
     RDKit          3D

 43 44  0  0  0  0  0  0  0  0999 V2000
    6.5187    2.1586   -1.0109 C   0  0  0  0  0  0  0  0  0  0  0  0
    5.8047    1.0024   -1.5166 N   0  0  0  0  0  0  0  0  0  0  0  0
    5.2555    0.1412   -0.4839 C   0  0  0  0  0  0  0  0  0  0  0  0
    4.4011   -0.9954   -1.0534 C   0  0  0  0  0  0  0  0  0  0  0  0
    5.1139   -1.9647   -2.0205 C   0  0  1  0  0  0  0  0  0  0  0  0
    6.3423   -2.6785   -1.4236 C   0  0  0  0  0  0  0  0  0  0  0  0
    5.9784   -3.7798   -0.4189 C   0  0  0  0  0  0  0  0  0  0  0  0
    5.0673   -4.7442   -1.0250 N   0  0  0  0  0  0  0  0  0  0  0  0
    5.0703   -6.0649   -0.6038 C   0  0  0  0  0  0  0  0  0  0  0  0
    5.5799   -6.4120    0.6735 C   0  0  0  0  0  0  0  0  0  0  0  0
    5.5764   -7.7138    1.1773 C   0  0  0  0  0  0  0  0  0  0  0  0
    6.1450   -8.0164    2.5409 C   0  0  0  0  0  0  0  0  0  0  0  0
    5.0181   -8.7423    0.3954 C   0  0  0  0  0  0  0  0  0  0  0  0
    4.5159   -8.4518   -0.8635 C   0  0  0  0  0  0  0  0  0  0  0  0
    4.5625   -7.1489   -1.3779 C   0  0  0  0  0  0  0  0  0  0  0  0
    4.1708   -7.0201   -2.7894 N   0  0  0  0  0  0  0  0  0  0  0  0
    4.6856   -6.1363   -3.4611 O   0  0  0  0  0  0  0  0  0  0  0  0
    3.3794   -7.8413   -3.2337 O   0  0  0  0  0  0  0  0  0  0  0  0
    3.8441   -4.1289   -1.5510 C   0  0  0  0  0  0  0  0  0  0  0  0
    4.1555   -3.0377   -2.5752 C   0  0  0  0  0  0  0  0  0  0  0  0
    6.9451    2.7346   -1.8473 H   0  0  0  0  0  0  0  0  0  0  0  0
    7.3470    1.9201   -0.3048 H   0  0  0  0  0  0  0  0  0  0  0  0
    5.8226    2.8264   -0.4747 H   0  0  0  0  0  0  0  0  0  0  0  0
    6.4129    0.4670   -2.1338 H   0  0  0  0  0  0  0  0  0  0  0  0
    4.6117    0.7634    0.1633 H   0  0  0  0  0  0  0  0  0  0  0  0
    6.0385   -0.2719    0.1963 H   0  0  0  0  0  0  0  0  0  0  0  0
    3.5520   -0.5446   -1.5948 H   0  0  0  0  0  0  0  0  0  0  0  0
    3.9669   -1.5492   -0.2033 H   0  0  0  0  0  0  0  0  0  0  0  0
    5.4582   -1.3646   -2.8811 H   0  0  0  0  0  0  0  0  0  0  0  0
    7.0237   -1.9636   -0.9336 H   0  0  0  0  0  0  0  0  0  0  0  0
    6.9093   -3.1480   -2.2446 H   0  0  0  0  0  0  0  0  0  0  0  0
    5.5442   -3.3342    0.5023 H   0  0  0  0  0  0  0  0  0  0  0  0
    6.8978   -4.3012   -0.1186 H   0  0  0  0  0  0  0  0  0  0  0  0
    5.9570   -5.6151    1.3143 H   0  0  0  0  0  0  0  0  0  0  0  0
    6.3567   -7.0998    3.1105 H   0  0  0  0  0  0  0  0  0  0  0  0
    7.0888   -8.5817    2.4531 H   0  0  0  0  0  0  0  0  0  0  0  0
    5.4540   -8.6379    3.1328 H   0  0  0  0  0  0  0  0  0  0  0  0
    4.9878   -9.7676    0.7715 H   0  0  0  0  0  0  0  0  0  0  0  0
    4.0973   -9.2312   -1.4997 H   0  0  0  0  0  0  0  0  0  0  0  0
    3.2686   -3.7050   -0.7006 H   0  0  0  0  0  0  0  0  0  0  0  0
    3.2014   -4.8906   -2.0034 H   0  0  0  0  0  0  0  0  0  0  0  0
    3.2110   -2.5739   -2.9057 H   0  0  0  0  0  0  0  0  0  0  0  0
    4.6088   -3.5218   -3.4539 H   0  0  0  0  0  0  0  0  0  0  0  0
  1  2  1  0
  1 21  1  0
  1 22  1  0
  1 23  1  0
  2  3  1  0
  2 24  1  0
  3  4  1  0
  3 25  1  0
  3 26  1  0
  4  5  1  0
  4 27  1  0
  4 28  1  0
  5  6  1  0
  5 20  1  0
  5 29  1  6
  6  7  1  0
  6 30  1  0
  6 31  1  0
  7  8  1  0
  7 32  1  0
  7 33  1  0
  8  9  1  0
  8 19  1  0
  9 10  2  0
  9 15  1  0
 10 11  1  0
 10 34  1  0
 11 12  1  0
 11 13  2  0
 12 35  1  0
 12 36  1  0
 12 37  1  0
 13 14  1  0
 13 38  1  0
 14 15  2  0
 14 39  1  0
 15 16  1  0
 16 17  2  0
 16 18  1  0
 19 20  1  0
 19 40  1  0
 19 41  1  0
 20 42  1  0
 20 43  1  0
M  CHG  2  16   1  18  -1
M  END

