
     RDKit          3D

 37 39  0  0  0  0  0  0  0  0999 V2000
    4.2833   -1.1751    5.0622 C   0  0  0  0  0  0  0  0  0  0  0  0
    5.0583   -2.1110    4.1750 C   0  0  0  0  0  0  0  0  0  0  0  0
    5.9347   -2.9412    4.7520 N   0  0  0  0  0  0  0  0  0  0  0  0
    6.6175   -3.7579    3.9438 C   0  0  0  0  0  0  0  0  0  0  0  0
    6.4439   -3.7632    2.5623 C   0  0  0  0  0  0  0  0  0  0  0  0
    5.5046   -2.8553    2.0504 C   0  0  0  0  0  0  0  0  0  0  0  0
    5.2028   -2.7810    0.5638 C   0  0  0  0  0  0  0  0  0  0  0  0
    4.2913   -3.8212    0.1155 N   0  0  0  0  0  0  0  0  0  0  0  0
    4.7374   -5.0281   -0.3538 C   0  0  0  0  0  0  0  0  0  0  0  0
    5.9327   -5.2888   -0.4372 O   0  0  0  0  0  0  0  0  0  0  0  0
    3.6584   -5.9823   -0.7614 C   0  0  1  0  0  0  0  0  0  0  0  0
    3.9886   -7.0488   -1.7837 C   0  0  0  0  0  0  0  0  0  0  0  0
    3.7232   -7.4661   -0.3746 C   0  0  1  0  0  0  0  0  0  0  0  0
    4.8347   -8.0581    0.5112 C   0  0  0  0  0  0  0  0  0  0  0  0
    4.0826   -8.7996    1.6284 C   0  0  0  0  0  0  0  0  0  0  0  0
    2.8315   -9.3364    0.9178 C   0  0  0  0  0  0  0  0  0  0  0  0
    2.4032   -8.1625    0.0189 C   0  0  0  0  0  0  0  0  0  0  0  0
    4.8192   -2.0392    2.8550 N   0  0  0  0  0  0  0  0  0  0  0  0
    4.4918   -1.3890    6.1178 H   0  0  0  0  0  0  0  0  0  0  0  0
    3.2037   -1.2667    4.8656 H   0  0  0  0  0  0  0  0  0  0  0  0
    4.5589   -0.1305    4.8423 H   0  0  0  0  0  0  0  0  0  0  0  0
    7.3358   -4.4352    4.4218 H   0  0  0  0  0  0  0  0  0  0  0  0
    6.9939   -4.4351    1.9014 H   0  0  0  0  0  0  0  0  0  0  0  0
    6.1309   -2.8943   -0.0136 H   0  0  0  0  0  0  0  0  0  0  0  0
    4.7578   -1.7979    0.3546 H   0  0  0  0  0  0  0  0  0  0  0  0
    3.2989   -3.6854    0.2639 H   0  0  0  0  0  0  0  0  0  0  0  0
    2.6484   -5.5595   -0.7975 H   0  0  0  0  0  0  0  0  0  0  0  0
    5.0295   -7.0595   -2.1207 H   0  0  0  0  0  0  0  0  0  0  0  0
    3.2392   -7.2626   -2.5520 H   0  0  0  0  0  0  0  0  0  0  0  0
    5.5470   -7.3046    0.8708 H   0  0  0  0  0  0  0  0  0  0  0  0
    5.4177   -8.7810   -0.0854 H   0  0  0  0  0  0  0  0  0  0  0  0
    3.7852   -8.0917    2.4226 H   0  0  0  0  0  0  0  0  0  0  0  0
    4.6872   -9.5872    2.1047 H   0  0  0  0  0  0  0  0  0  0  0  0
    2.0361   -9.6617    1.6066 H   0  0  0  0  0  0  0  0  0  0  0  0
    3.1040  -10.2083    0.2978 H   0  0  0  0  0  0  0  0  0  0  0  0
    1.7675   -7.4683    0.5957 H   0  0  0  0  0  0  0  0  0  0  0  0
    1.8177   -8.4811   -0.8584 H   0  0  0  0  0  0  0  0  0  0  0  0
  1  2  1  0
  1 19  1  0
  1 20  1  0
  1 21  1  0
  2  3  2  0
  2 18  1  0
  3  4  1  0
  4  5  2  0
  4 22  1  0
  5  6  1  0
  5 23  1  0
  6  7  1  0
  6 18  2  0
  7  8  1  0
  7 24  1  0
  7 25  1  0
  8  9  1  0
  8 26  1  0
  9 10  2  0
  9 11  1  0
 11 12  1  0
 11 13  1  0
 11 27  1  6
 13 12  1  6
 12 28  1  0
 12 29  1  0
 13 14  1  0
 13 17  1  0
 14 15  1  0
 14 30  1  0
 14 31  1  0
 15 16  1  0
 15 32  1  0
 15 33  1  0
 16 17  1  0
 16 34  1  0
 16 35  1  0
 17 36  1  0
 17 37  1  0
M  END

