
     RDKit          3D

 37 38  0  0  0  0  0  0  0  0999 V2000
    6.0759   -2.5483   -2.1612 C   0  0  0  0  0  0  0  0  0  0  0  0
    5.8579   -1.9353   -0.7716 C   0  0  1  0  0  0  0  0  0  0  0  0
    6.1158   -2.9754    0.3274 C   0  0  0  0  0  0  0  0  0  0  0  0
    6.7157   -0.6691   -0.5982 C   0  0  0  0  0  0  0  0  0  0  0  0
    6.4513    0.1284    0.6783 C   0  0  0  0  0  0  0  0  0  0  0  0
    7.2785    1.3292    0.7253 N   0  0  0  0  0  0  0  0  0  0  0  0
    7.1669    2.1216    1.9328 C   0  0  2  0  0  0  0  0  0  0  0  0
    6.1022    2.2936    2.2301 H   0  0  0  0  0  0  0  0  0  0  0  0
    7.8448    3.5047    1.8011 C   0  0  0  0  0  0  0  0  0  0  0  0
    8.2222    3.8486    3.2240 C   0  0  0  0  0  0  0  0  0  0  0  0
    8.5483    5.0816    3.7913 C   0  0  0  0  0  0  0  0  0  0  0  0
    8.8682    5.1387    5.1545 C   0  0  0  0  0  0  0  0  0  0  0  0
    8.8605    3.9785    5.9397 C   0  0  0  0  0  0  0  0  0  0  0  0
    8.5360    2.7408    5.3703 C   0  0  0  0  0  0  0  0  0  0  0  0
    8.2216    2.6889    4.0126 C   0  0  0  0  0  0  0  0  0  0  0  0
    7.8455    1.4816    3.1779 C   0  0  1  0  0  0  0  0  0  0  0  0
    8.7525    0.9531    2.8337 H   0  0  0  0  0  0  0  0  0  0  0  0
    7.0826    0.5045    3.8572 O   0  0  0  0  0  0  0  0  0  0  0  0
    5.4369   -3.4330   -2.3152 H   0  0  0  0  0  0  0  0  0  0  0  0
    7.1242   -2.8689   -2.2904 H   0  0  0  0  0  0  0  0  0  0  0  0
    5.8488   -1.8262   -2.9626 H   0  0  0  0  0  0  0  0  0  0  0  0
    4.7954   -1.6305   -0.7039 H   0  0  0  0  0  0  0  0  0  0  0  0
    7.1724   -3.2953    0.3247 H   0  0  0  0  0  0  0  0  0  0  0  0
    5.4967   -3.8744    0.1740 H   0  0  0  0  0  0  0  0  0  0  0  0
    5.8889   -2.5873    1.3322 H   0  0  0  0  0  0  0  0  0  0  0  0
    6.5429   -0.0067   -1.4678 H   0  0  0  0  0  0  0  0  0  0  0  0
    7.7873   -0.9363   -0.6304 H   0  0  0  0  0  0  0  0  0  0  0  0
    6.6824   -0.4755    1.5681 H   0  0  0  0  0  0  0  0  0  0  0  0
    5.3622    0.3624    0.7492 H   0  0  0  0  0  0  0  0  0  0  0  0
    7.0770    1.9124   -0.0870 H   0  0  0  0  0  0  0  0  0  0  0  0
    7.1999    4.2593    1.3219 H   0  0  0  0  0  0  0  0  0  0  0  0
    8.7480    3.3968    1.1722 H   0  0  0  0  0  0  0  0  0  0  0  0
    8.5471    5.9935    3.1873 H   0  0  0  0  0  0  0  0  0  0  0  0
    9.1197    6.0995    5.6116 H   0  0  0  0  0  0  0  0  0  0  0  0
    9.1068    4.0421    7.0030 H   0  0  0  0  0  0  0  0  0  0  0  0
    8.5193    1.8290    5.9732 H   0  0  0  0  0  0  0  0  0  0  0  0
    6.2997    0.9421    4.2217 H   0  0  0  0  0  0  0  0  0  0  0  0
  1  2  1  0
  1 19  1  0
  1 20  1  0
  1 21  1  0
  2  3  1  0
  2  4  1  0
  2 22  1  6
  3 23  1  0
  3 24  1  0
  3 25  1  0
  4  5  1  0
  4 26  1  0
  4 27  1  0
  5  6  1  0
  5 28  1  0
  5 29  1  0
  6  7  1  0
  6 30  1  0
  7  8  1  1
  7  9  1  0
  7 16  1  0
  9 10  1  0
  9 31  1  0
  9 32  1  0
 10 11  2  0
 10 15  1  0
 11 12  1  0
 11 33  1  0
 12 13  2  0
 12 34  1  0
 13 14  1  0
 13 35  1  0
 14 15  2  0
 14 36  1  0
 15 16  1  0
 16 17  1  6
 16 18  1  0
 18 37  1  0
M  END

