
     RDKit          3D

 32 33  0  0  0  0  0  0  0  0999 V2000
    2.8353   -1.5593    1.5289 C   0  0  0  0  0  0  0  0  0  0  0  0
    2.5464   -0.2519    0.9357 N   0  0  0  0  0  0  0  0  0  0  0  0
    1.2150   -0.1116    0.3891 C   0  0  1  0  0  0  0  0  0  0  0  0
    0.9984    0.7379   -0.8293 C   0  0  0  0  0  0  0  0  0  0  0  0
    0.9541   -0.7586   -0.9531 C   0  0  0  0  0  0  0  0  0  0  0  0
    3.0865    1.0627    1.8843 S   0  0  1  0  0  0  0  0  0  0  0  0
    2.5214    2.2781    1.3004 O   0  0  0  0  0  0  0  0  0  0  0  0
    2.9207    0.7666    3.3127 O   0  0  0  0  0  0  0  0  0  0  0  0
    4.8586    1.0507    1.5493 C   0  0  0  0  0  0  0  0  0  0  0  0
    5.7460    0.7658    2.5882 C   0  0  0  0  0  0  0  0  0  0  0  0
    7.1238    0.7959    2.3401 C   0  0  0  0  0  0  0  0  0  0  0  0
    7.6018    1.1170    1.0696 C   0  0  0  0  0  0  0  0  0  0  0  0
    6.6876    1.4181    0.0527 C   0  0  0  0  0  0  0  0  0  0  0  0
    7.3026    1.8359   -1.5858 S   0  0  1  0  0  0  0  0  0  0  0  0
    7.6609    3.4778   -1.4517 N   0  0  0  0  0  0  0  0  0  0  0  0
    8.5867    1.1564   -1.7645 O   0  0  0  0  0  0  0  0  0  0  0  0
    6.1859    1.6728   -2.5183 O   0  0  0  0  0  0  0  0  0  0  0  0
    5.3122    1.3862    0.2704 C   0  0  0  0  0  0  0  0  0  0  0  0
    2.6568   -2.3289    0.7644 H   0  0  0  0  0  0  0  0  0  0  0  0
    2.2102   -1.7741    2.4135 H   0  0  0  0  0  0  0  0  0  0  0  0
    3.8923   -1.6170    1.8269 H   0  0  0  0  0  0  0  0  0  0  0  0
    0.3965   -0.1523    1.1221 H   0  0  0  0  0  0  0  0  0  0  0  0
    1.8679    1.2595   -1.2326 H   0  0  0  0  0  0  0  0  0  0  0  0
    0.0670    1.3072   -0.8801 H   0  0  0  0  0  0  0  0  0  0  0  0
    1.8016   -1.2489   -1.4398 H   0  0  0  0  0  0  0  0  0  0  0  0
   -0.0086   -1.2571   -1.0962 H   0  0  0  0  0  0  0  0  0  0  0  0
    5.3483    0.5247    3.5755 H   0  0  0  0  0  0  0  0  0  0  0  0
    7.8261    0.5631    3.1438 H   0  0  0  0  0  0  0  0  0  0  0  0
    8.6717    1.1268    0.8536 H   0  0  0  0  0  0  0  0  0  0  0  0
    8.6074    3.6491   -1.7914 H   0  0  0  0  0  0  0  0  0  0  0  0
    6.9668    4.0470   -1.9360 H   0  0  0  0  0  0  0  0  0  0  0  0
    4.6185    1.6069   -0.5418 H   0  0  0  0  0  0  0  0  0  0  0  0
  1  2  1  0
  1 19  1  0
  1 20  1  0
  1 21  1  0
  2  3  1  0
  6  2  1  6
  3  4  1  0
  3  5  1  0
  3 22  1  1
  4  5  1  0
  4 23  1  0
  4 24  1  0
  5 25  1  0
  5 26  1  0
  6  7  2  0
  6  8  2  0
  6  9  1  0
  9 10  2  0
  9 18  1  0
 10 11  1  0
 10 27  1  0
 11 12  2  0
 11 28  1  0
 12 13  1  0
 12 29  1  0
 13 14  1  0
 13 18  2  0
 14 15  1  1
 14 16  2  0
 14 17  2  0
 15 30  1  0
 15 31  1  0
 18 32  1  0
M  END

