
     RDKit          3D

 39 40  0  0  0  0  0  0  0  0999 V2000
    3.4373    1.4706    1.5930 C   0  0  0  0  0  0  0  0  0  0  0  0
    2.7359    0.7032    0.4678 C   0  0  1  0  0  0  0  0  0  0  0  0
    2.6888   -0.8041    0.7373 C   0  0  0  0  0  0  0  0  0  0  0  0
    1.3313    1.2570    0.2245 C   0  0  0  0  0  0  0  0  0  0  0  0
    3.4156    0.9617   -0.8117 O   0  0  0  0  0  0  0  0  0  0  0  0
    4.6868    0.6132   -1.0381 C   0  0  0  0  0  0  0  0  0  0  0  0
    5.4297    0.0857   -0.2432 O   0  0  0  0  0  0  0  0  0  0  0  0
    5.0816    0.9177   -2.4746 C   0  0  0  0  0  0  0  0  0  0  0  0
    6.5134    1.0037   -2.5998 N   0  0  0  0  0  0  0  0  0  0  0  0
    7.0106    0.9612   -3.9598 C   0  0  0  0  0  0  0  0  0  0  0  0
    8.5107    1.1467   -4.0504 C   0  0  0  0  0  0  0  0  0  0  0  0
    9.2451    1.7324   -3.0203 C   0  0  0  0  0  0  0  0  0  0  0  0
   10.6412    1.9231   -3.1173 C   0  0  0  0  0  0  0  0  0  0  0  0
   11.3485    1.5390   -4.2509 C   0  0  0  0  0  0  0  0  0  0  0  0
   10.6165    0.9535   -5.2943 C   0  0  0  0  0  0  0  0  0  0  0  0
   11.0339    0.4806   -6.5205 N   0  0  0  0  0  0  0  0  0  0  0  0
   11.9874    0.4914   -6.8555 H   0  0  0  0  0  0  0  0  0  0  0  0
    9.9497   -0.0118   -7.2166 C   0  0  0  0  0  0  0  0  0  0  0  0
    8.8126    0.1317   -6.4577 C   0  0  0  0  0  0  0  0  0  0  0  0
    9.2084    0.7479   -5.2172 C   0  0  0  0  0  0  0  0  0  0  0  0
    2.8590    1.3696    2.5247 H   0  0  0  0  0  0  0  0  0  0  0  0
    3.5003    2.5417    1.3453 H   0  0  0  0  0  0  0  0  0  0  0  0
    4.4511    1.0873    1.7643 H   0  0  0  0  0  0  0  0  0  0  0  0
    2.0815   -0.9996    1.6349 H   0  0  0  0  0  0  0  0  0  0  0  0
    3.6947   -1.2117    0.8992 H   0  0  0  0  0  0  0  0  0  0  0  0
    2.2227   -1.3316   -0.1098 H   0  0  0  0  0  0  0  0  0  0  0  0
    0.7083    1.1243    1.1220 H   0  0  0  0  0  0  0  0  0  0  0  0
    0.8491    0.7353   -0.6161 H   0  0  0  0  0  0  0  0  0  0  0  0
    1.3744    2.3300   -0.0156 H   0  0  0  0  0  0  0  0  0  0  0  0
    4.5908    1.8539   -2.7911 H   0  0  0  0  0  0  0  0  0  0  0  0
    4.6142    0.1119   -3.0935 H   0  0  0  0  0  0  0  0  0  0  0  0
    6.9501    0.2898   -2.0167 H   0  0  0  0  0  0  0  0  0  0  0  0
    6.5163    1.7710   -4.5318 H   0  0  0  0  0  0  0  0  0  0  0  0
    6.7301    0.0217   -4.4907 H   0  0  0  0  0  0  0  0  0  0  0  0
    8.7152    2.0509   -2.1210 H   0  0  0  0  0  0  0  0  0  0  0  0
   11.1740    2.3843   -2.2817 H   0  0  0  0  0  0  0  0  0  0  0  0
   12.4289    1.6869   -4.3248 H   0  0  0  0  0  0  0  0  0  0  0  0
   10.0744   -0.4314   -8.2134 H   0  0  0  0  0  0  0  0  0  0  0  0
    7.8110   -0.1671   -6.7583 H   0  0  0  0  0  0  0  0  0  0  0  0
  1  2  1  0
  1 21  1  0
  1 22  1  0
  1 23  1  0
  2  3  1  0
  2  4  1  0
  2  5  1  6
  3 24  1  0
  3 25  1  0
  3 26  1  0
  4 27  1  0
  4 28  1  0
  4 29  1  0
  5  6  1  0
  6  7  2  0
  6  8  1  0
  8  9  1  0
  8 30  1  0
  8 31  1  0
  9 10  1  0
  9 32  1  0
 10 11  1  0
 10 33  1  0
 10 34  1  0
 11 12  2  0
 11 20  1  0
 12 13  1  0
 12 35  1  0
 13 14  2  0
 13 36  1  0
 14 15  1  0
 14 37  1  0
 15 16  1  0
 15 20  2  0
 16 17  1  0
 16 18  1  0
 18 19  2  0
 18 38  1  0
 19 20  1  0
 19 39  1  0
M  END

