
     RDKit          3D

 28 28  0  0  0  0  0  0  0  0999 V2000
    2.7403    0.3003    2.4610 C   0  0  0  0  0  0  0  0  0  0  0  0
    2.4669   -0.4161    1.1500 C   0  0  0  0  0  0  0  0  0  0  0  0
    3.0610   -1.7316    1.1296 O   0  0  0  0  0  0  0  0  0  0  0  0
    4.3314   -1.8361    0.7255 C   0  0  0  0  0  0  0  0  0  0  0  0
    5.0274   -0.9083    0.3879 O   0  0  0  0  0  0  0  0  0  0  0  0
    4.7791   -3.2868    0.7002 C   0  0  0  0  0  0  0  0  0  0  0  0
    6.2055   -3.3470    0.5486 N   0  0  0  0  0  0  0  0  0  0  0  0
    6.8615   -4.5482    0.2852 C   0  0  0  0  0  0  0  0  0  0  0  0
    6.2250   -5.7945    0.2734 C   0  0  0  0  0  0  0  0  0  0  0  0
    6.9437   -6.9691    0.0032 C   0  0  0  0  0  0  0  0  0  0  0  0
    6.0637   -8.6541   -0.0110 Br  0  0  0  0  0  0  0  0  0  0  0  0
    8.3061   -6.8920   -0.2629 C   0  0  0  0  0  0  0  0  0  0  0  0
    9.0163   -7.9956   -0.5313 F   0  0  0  0  0  0  0  0  0  0  0  0
    8.9646   -5.6604   -0.2341 C   0  0  0  0  0  0  0  0  0  0  0  0
    8.2674   -4.4847    0.0510 C   0  0  0  0  0  0  0  0  0  0  0  0
    8.8759   -3.2273    0.0630 N   0  0  0  0  0  0  0  0  0  0  0  0
    2.2081    1.2648    2.4769 H   0  0  0  0  0  0  0  0  0  0  0  0
    3.8151    0.5020    2.5809 H   0  0  0  0  0  0  0  0  0  0  0  0
    2.3928   -0.2983    3.3173 H   0  0  0  0  0  0  0  0  0  0  0  0
    2.8518    0.1598    0.2956 H   0  0  0  0  0  0  0  0  0  0  0  0
    1.3918   -0.5969    1.0079 H   0  0  0  0  0  0  0  0  0  0  0  0
    4.2167   -3.7802   -0.1242 H   0  0  0  0  0  0  0  0  0  0  0  0
    4.4417   -3.7792    1.6285 H   0  0  0  0  0  0  0  0  0  0  0  0
    6.5746   -2.5442    0.0402 H   0  0  0  0  0  0  0  0  0  0  0  0
    5.1550   -5.8724    0.4623 H   0  0  0  0  0  0  0  0  0  0  0  0
   10.0409   -5.6438   -0.4205 H   0  0  0  0  0  0  0  0  0  0  0  0
    9.8888   -3.2460    0.0049 H   0  0  0  0  0  0  0  0  0  0  0  0
    8.5629   -2.6307    0.8275 H   0  0  0  0  0  0  0  0  0  0  0  0
  1  2  1  0
  1 17  1  0
  1 18  1  0
  1 19  1  0
  2  3  1  0
  2 20  1  0
  2 21  1  0
  3  4  1  0
  4  5  2  0
  4  6  1  0
  6  7  1  0
  6 22  1  0
  6 23  1  0
  7  8  1  0
  7 24  1  0
  8  9  2  0
  8 15  1  0
  9 10  1  0
  9 25  1  0
 10 11  1  0
 10 12  2  0
 12 13  1  0
 12 14  1  0
 14 15  2  0
 14 26  1  0
 15 16  1  0
 16 27  1  0
 16 28  1  0
M  END

