
     RDKit          3D

 43 45  0  0  0  0  0  0  0  0999 V2000
    0.5930   -0.0758    0.1440 C   0  0  0  0  0  0  0  0  0  0  0  0
    2.1280   -0.1292    0.1941 C   0  0  1  0  0  0  0  0  0  0  0  0
    2.7108   -0.2349   -1.2347 C   0  0  0  0  0  0  0  0  0  0  0  0
    3.4090   -1.1538   -1.6103 O   0  0  0  0  0  0  0  0  0  0  0  0
    2.3637    0.7999   -2.0878 N   0  0  0  0  0  0  0  0  0  0  0  0
    3.1687    1.1421   -3.5755 S   0  0  1  0  0  0  0  0  0  0  0  0
    2.4130    2.2898   -4.0863 O   0  0  0  0  0  0  0  0  0  0  0  0
    4.6005    1.2231   -3.3287 O   0  0  0  0  0  0  0  0  0  0  0  0
    2.8266   -0.2884   -4.5757 C   0  0  1  0  0  0  0  0  0  0  0  0
    1.4769   -0.4129   -5.2263 C   0  0  0  0  0  0  0  0  0  0  0  0
    2.6758   -0.0553   -6.0580 C   0  0  0  0  0  0  0  0  0  0  0  0
    2.7682    1.0745    0.9369 C   0  0  0  0  0  0  0  0  0  0  0  0
    4.1558    0.5684    1.3396 C   0  0  0  0  0  0  0  0  0  0  0  0
    3.9586   -0.8749    1.5096 N   0  0  0  0  0  0  0  0  0  0  0  0
    5.0482   -1.6494    1.7873 C   0  0  0  0  0  0  0  0  0  0  0  0
    6.1591   -1.1571    1.9304 O   0  0  0  0  0  0  0  0  0  0  0  0
    4.8673   -3.1457    1.8836 C   0  0  0  0  0  0  0  0  0  0  0  0
    5.8088   -3.9629    1.2345 C   0  0  0  0  0  0  0  0  0  0  0  0
    5.7482   -5.3526    1.3291 C   0  0  0  0  0  0  0  0  0  0  0  0
    4.7535   -5.9560    2.1076 C   0  0  0  0  0  0  0  0  0  0  0  0
    3.8256   -5.1670    2.7891 C   0  0  0  0  0  0  0  0  0  0  0  0
    3.8992   -3.7808    2.6683 C   0  0  0  0  0  0  0  0  0  0  0  0
    3.0092   -3.0387    3.3572 F   0  0  0  0  0  0  0  0  0  0  0  0
    2.6466   -1.3138    1.0336 C   0  0  0  0  0  0  0  0  0  0  0  0
    0.2234    0.8145   -0.3884 H   0  0  0  0  0  0  0  0  0  0  0  0
    0.1830   -0.0415    1.1651 H   0  0  0  0  0  0  0  0  0  0  0  0
    0.1775   -0.9630   -0.3597 H   0  0  0  0  0  0  0  0  0  0  0  0
    1.7805    1.5760   -1.7856 H   0  0  0  0  0  0  0  0  0  0  0  0
    3.3575   -1.1590   -4.1841 H   0  0  0  0  0  0  0  0  0  0  0  0
    0.7536    0.3838   -5.0332 H   0  0  0  0  0  0  0  0  0  0  0  0
    1.0572   -1.4202   -5.2933 H   0  0  0  0  0  0  0  0  0  0  0  0
    2.7451    0.9752   -6.4157 H   0  0  0  0  0  0  0  0  0  0  0  0
    3.1211   -0.8068   -6.7150 H   0  0  0  0  0  0  0  0  0  0  0  0
    2.1598    1.2967    1.8290 H   0  0  0  0  0  0  0  0  0  0  0  0
    2.8160    1.9930    0.3333 H   0  0  0  0  0  0  0  0  0  0  0  0
    4.5350    1.0283    2.2650 H   0  0  0  0  0  0  0  0  0  0  0  0
    4.9132    0.7549    0.5584 H   0  0  0  0  0  0  0  0  0  0  0  0
    6.5944   -3.4748    0.6544 H   0  0  0  0  0  0  0  0  0  0  0  0
    6.4824   -5.9673    0.8035 H   0  0  0  0  0  0  0  0  0  0  0  0
    4.7042   -7.0442    2.1939 H   0  0  0  0  0  0  0  0  0  0  0  0
    3.0504   -5.6015    3.4234 H   0  0  0  0  0  0  0  0  0  0  0  0
    1.9568   -1.5009    1.8727 H   0  0  0  0  0  0  0  0  0  0  0  0
    2.7305   -2.2302    0.4347 H   0  0  0  0  0  0  0  0  0  0  0  0
  1  2  1  0
  1 25  1  0
  1 26  1  0
  1 27  1  0
  2  3  1  6
  2 12  1  0
  2 24  1  0
  3  4  2  0
  3  5  1  0
  6  5  1  1
  5 28  1  0
  6  7  2  0
  6  8  2  0
  6  9  1  0
  9 10  1  0
  9 11  1  0
  9 29  1  6
 10 11  1  0
 10 30  1  0
 10 31  1  0
 11 32  1  0
 11 33  1  0
 12 13  1  0
 12 34  1  0
 12 35  1  0
 13 14  1  0
 13 36  1  0
 13 37  1  0
 14 15  1  0
 14 24  1  0
 15 16  2  0
 15 17  1  0
 17 18  2  0
 17 22  1  0
 18 19  1  0
 18 38  1  0
 19 20  2  0
 19 39  1  0
 20 21  1  0
 20 40  1  0
 21 22  2  0
 21 41  1  0
 22 23  1  0
 24 42  1  0
 24 43  1  0
M  END

