
     RDKit          3D

 44 45  0  0  0  0  0  0  0  0999 V2000
    3.6384   -2.3895   -1.7389 C   0  0  0  0  0  0  0  0  0  0  0  0
    4.5956   -1.2026   -1.8632 C   0  0  0  0  0  0  0  0  0  0  0  0
    3.9468    0.1378   -1.4984 C   0  0  0  0  0  0  0  0  0  0  0  0
    4.8911    1.3480   -1.4963 C   0  0  0  0  0  0  0  0  0  0  0  0
    5.5872    1.6830   -2.8330 C   0  0  1  0  0  0  0  0  0  0  0  0
    4.6236    1.9484   -3.9960 C   0  0  0  0  0  0  0  0  0  0  0  0
    3.9279    3.1831   -3.8407 O   0  0  0  0  0  0  0  0  0  0  0  0
    4.5155    4.2178   -3.1806 B   0  0  0  0  0  0  0  0  0  0  0  0
    3.7363    5.5954   -3.0794 C   0  0  0  0  0  0  0  0  0  0  0  0
    3.9003    6.6023   -4.0418 C   0  0  0  0  0  0  0  0  0  0  0  0
    4.9979    6.3123   -5.3875 Cl  0  0  0  0  0  0  0  0  0  0  0  0
    3.2384    7.8293   -3.9853 C   0  0  0  0  0  0  0  0  0  0  0  0
    2.3584    8.1010   -2.9281 C   0  0  0  0  0  0  0  0  0  0  0  0
    1.5969    9.4067   -2.8716 C   0  0  0  0  0  0  0  0  0  0  0  0
    0.2461    9.3617   -3.6102 C   0  0  0  0  0  0  0  0  0  0  0  0
   -0.5156   10.6857   -3.5478 C   0  0  0  0  0  0  0  0  0  0  0  0
    2.1692    7.1173   -1.9475 C   0  0  0  0  0  0  0  0  0  0  0  0
    2.8491    5.9015   -2.0384 C   0  0  0  0  0  0  0  0  0  0  0  0
    2.5718    4.7085   -0.7728 Cl  0  0  0  0  0  0  0  0  0  0  0  0
    5.7444    4.1222   -2.6048 O   0  0  0  0  0  0  0  0  0  0  0  0
    6.4941    2.9131   -2.6994 C   0  0  0  0  0  0  0  0  0  0  0  0
    4.1303   -3.3378   -2.0082 H   0  0  0  0  0  0  0  0  0  0  0  0
    2.7635   -2.2691   -2.3998 H   0  0  0  0  0  0  0  0  0  0  0  0
    3.2590   -2.4916   -0.7084 H   0  0  0  0  0  0  0  0  0  0  0  0
    4.9893   -1.1650   -2.8947 H   0  0  0  0  0  0  0  0  0  0  0  0
    5.4749   -1.3676   -1.2132 H   0  0  0  0  0  0  0  0  0  0  0  0
    3.5057    0.0527   -0.4892 H   0  0  0  0  0  0  0  0  0  0  0  0
    3.0902    0.3267   -2.1705 H   0  0  0  0  0  0  0  0  0  0  0  0
    5.6835    1.1791   -0.7447 H   0  0  0  0  0  0  0  0  0  0  0  0
    4.3316    2.2301   -1.1452 H   0  0  0  0  0  0  0  0  0  0  0  0
    6.2291    0.8334   -3.1245 H   0  0  0  0  0  0  0  0  0  0  0  0
    3.8676    1.1545   -4.0887 H   0  0  0  0  0  0  0  0  0  0  0  0
    5.1827    1.9784   -4.9484 H   0  0  0  0  0  0  0  0  0  0  0  0
    3.4155    8.5724   -4.7652 H   0  0  0  0  0  0  0  0  0  0  0  0
    2.2166   10.2108   -3.3043 H   0  0  0  0  0  0  0  0  0  0  0  0
    1.4214    9.6827   -1.8176 H   0  0  0  0  0  0  0  0  0  0  0  0
   -0.3704    8.5526   -3.1809 H   0  0  0  0  0  0  0  0  0  0  0  0
    0.4220    9.0785   -4.6627 H   0  0  0  0  0  0  0  0  0  0  0  0
   -0.7345   10.9751   -2.5063 H   0  0  0  0  0  0  0  0  0  0  0  0
   -1.4757   10.6219   -4.0841 H   0  0  0  0  0  0  0  0  0  0  0  0
    0.0656   11.5057   -4.0020 H   0  0  0  0  0  0  0  0  0  0  0  0
    1.4957    7.2948   -1.1068 H   0  0  0  0  0  0  0  0  0  0  0  0
    7.1222    2.8440   -1.7968 H   0  0  0  0  0  0  0  0  0  0  0  0
    7.1703    2.9893   -3.5694 H   0  0  0  0  0  0  0  0  0  0  0  0
  1  2  1  0
  1 22  1  0
  1 23  1  0
  1 24  1  0
  2  3  1  0
  2 25  1  0
  2 26  1  0
  3  4  1  0
  3 27  1  0
  3 28  1  0
  4  5  1  0
  4 29  1  0
  4 30  1  0
  5  6  1  0
  5 21  1  0
  5 31  1  6
  6  7  1  0
  6 32  1  0
  6 33  1  0
  7  8  1  0
  8  9  1  0
  8 20  1  0
  9 10  2  0
  9 18  1  0
 10 11  1  0
 10 12  1  0
 12 13  2  0
 12 34  1  0
 13 14  1  0
 13 17  1  0
 14 15  1  0
 14 35  1  0
 14 36  1  0
 15 16  1  0
 15 37  1  0
 15 38  1  0
 16 39  1  0
 16 40  1  0
 16 41  1  0
 17 18  2  0
 17 42  1  0
 18 19  1  0
 20 21  1  0
 21 43  1  0
 21 44  1  0
M  END

