
     RDKit          3D

 55 56  0  0  0  0  0  0  0  0999 V2000
    0.7647   -0.4014    1.1541 C   0  0  0  0  0  0  0  0  0  0  0  0
    2.2505   -0.7520    1.0492 C   0  0  0  0  0  0  0  0  0  0  0  0
    3.1650    0.4468    1.3343 C   0  0  0  0  0  0  0  0  0  0  0  0
    4.6838    0.1834    1.3306 C   0  0  1  0  0  0  0  0  0  0  0  0
    5.1686   -0.3362   -0.0462 C   0  0  0  0  0  0  0  0  0  0  0  0
    4.9699    0.5812   -1.0993 O   0  0  0  0  0  0  0  0  0  0  0  0
    5.4808    1.4549    1.7129 C   0  0  0  0  0  0  0  0  0  0  0  0
    6.8137    0.9375    2.2614 C   0  0  0  0  0  0  0  0  0  0  0  0
    6.4644   -0.3762    2.8067 N   0  0  0  0  0  0  0  0  0  0  0  0
    7.4043   -1.1036    3.4968 C   0  0  0  0  0  0  0  0  0  0  0  0
    8.5488   -0.7007    3.6548 O   0  0  0  0  0  0  0  0  0  0  0  0
    6.9684   -2.3276    3.9872 N   0  0  0  0  0  0  0  0  0  0  0  0
    7.8287   -3.1656    4.7744 C   0  0  1  0  0  0  0  0  0  0  0  0
    7.5484   -3.3763    6.2864 C   0  0  0  0  0  0  0  0  0  0  0  0
    7.9321   -4.8750    6.1225 C   0  0  2  0  0  0  0  0  0  0  0  0
    9.3182   -5.1835    6.4912 N   0  0  0  0  0  0  0  0  0  0  0  0
    9.6959   -4.8762    7.8824 C   0  0  0  0  0  0  0  0  0  0  0  0
    8.8852   -5.5736    8.9799 C   0  0  0  0  0  0  0  0  0  0  0  0
    9.7689   -6.5088    6.0639 C   0  0  0  0  0  0  0  0  0  0  0  0
   11.1711   -6.4612    5.4303 C   0  0  0  0  0  0  0  0  0  0  0  0
   11.8241   -7.4446    5.2046 O   0  0  0  0  0  0  0  0  0  0  0  0
   11.5613   -5.2197    5.1287 O   0  0  0  0  0  0  0  0  0  0  0  0
    7.7475   -4.6999    4.5855 C   0  0  0  0  0  0  0  0  0  0  0  0
    5.1281   -0.8160    2.4263 C   0  0  0  0  0  0  0  0  0  0  0  0
    0.1269   -1.2730    0.9382 H   0  0  0  0  0  0  0  0  0  0  0  0
    0.4902    0.3964    0.4438 H   0  0  0  0  0  0  0  0  0  0  0  0
    0.5083   -0.0419    2.1646 H   0  0  0  0  0  0  0  0  0  0  0  0
    2.4541   -1.1578    0.0424 H   0  0  0  0  0  0  0  0  0  0  0  0
    2.4814   -1.5725    1.7521 H   0  0  0  0  0  0  0  0  0  0  0  0
    2.8940    0.8729    2.3169 H   0  0  0  0  0  0  0  0  0  0  0  0
    2.9503    1.2491    0.6042 H   0  0  0  0  0  0  0  0  0  0  0  0
    4.6923   -1.3125   -0.2619 H   0  0  0  0  0  0  0  0  0  0  0  0
    6.2530   -0.5236   -0.0040 H   0  0  0  0  0  0  0  0  0  0  0  0
    4.0261    0.6288   -1.2964 H   0  0  0  0  0  0  0  0  0  0  0  0
    4.9365    2.0090    2.4956 H   0  0  0  0  0  0  0  0  0  0  0  0
    5.6032    2.1227    0.8484 H   0  0  0  0  0  0  0  0  0  0  0  0
    7.2426    1.5829    3.0430 H   0  0  0  0  0  0  0  0  0  0  0  0
    7.5848    0.8427    1.4766 H   0  0  0  0  0  0  0  0  0  0  0  0
    5.9763   -2.5290    4.0006 H   0  0  0  0  0  0  0  0  0  0  0  0
    8.8477   -2.7890    4.6181 H   0  0  0  0  0  0  0  0  0  0  0  0
    6.4756   -3.2761    6.5151 H   0  0  0  0  0  0  0  0  0  0  0  0
    8.1147   -2.7592    6.9980 H   0  0  0  0  0  0  0  0  0  0  0  0
    7.2221   -5.5830    6.5919 H   0  0  0  0  0  0  0  0  0  0  0  0
    9.6400   -3.7860    8.0250 H   0  0  0  0  0  0  0  0  0  0  0  0
   10.7627   -5.1336    7.9882 H   0  0  0  0  0  0  0  0  0  0  0  0
    7.8294   -5.2601    8.9725 H   0  0  0  0  0  0  0  0  0  0  0  0
    9.2982   -5.3185    9.9687 H   0  0  0  0  0  0  0  0  0  0  0  0
    8.9132   -6.6709    8.8848 H   0  0  0  0  0  0  0  0  0  0  0  0
    9.0955   -6.9130    5.2924 H   0  0  0  0  0  0  0  0  0  0  0  0
    9.7882   -7.2602    6.8722 H   0  0  0  0  0  0  0  0  0  0  0  0
   10.8252   -4.6470    5.4566 H   0  0  0  0  0  0  0  0  0  0  0  0
    6.7413   -5.0176    4.2686 H   0  0  0  0  0  0  0  0  0  0  0  0
    8.4880   -5.1676    3.9196 H   0  0  0  0  0  0  0  0  0  0  0  0
    4.4236   -0.7850    3.2830 H   0  0  0  0  0  0  0  0  0  0  0  0
    5.1429   -1.8558    2.0522 H   0  0  0  0  0  0  0  0  0  0  0  0
  1  2  1  0
  1 25  1  0
  1 26  1  0
  1 27  1  0
  2  3  1  0
  2 28  1  0
  2 29  1  0
  4  3  1  6
  3 30  1  0
  3 31  1  0
  4  5  1  0
  4  7  1  0
  4 24  1  0
  5  6  1  0
  5 32  1  0
  5 33  1  0
  6 34  1  0
  7  8  1  0
  7 35  1  0
  7 36  1  0
  8  9  1  0
  8 37  1  0
  8 38  1  0
  9 10  1  0
  9 24  1  0
 10 11  2  0
 10 12  1  0
 12 13  1  0
 12 39  1  0
 13 14  1  0
 13 23  1  0
 13 40  1  1
 14 15  1  0
 14 41  1  0
 14 42  1  0
 15 16  1  0
 15 23  1  0
 15 43  1  1
 16 17  1  0
 16 19  1  0
 17 18  1  0
 17 44  1  0
 17 45  1  0
 18 46  1  0
 18 47  1  0
 18 48  1  0
 19 20  1  0
 19 49  1  0
 19 50  1  0
 20 21  2  0
 20 22  1  0
 22 51  1  0
 23 52  1  0
 23 53  1  0
 24 54  1  0
 24 55  1  0
M  END

