
     RDKit          3D

 55 59  0  0  0  0  0  0  0  0999 V2000
    1.7928    0.7194    1.1446 C   0  0  0  0  0  0  0  0  0  0  0  0
    3.1232    0.1522    0.7522 C   0  0  0  0  0  0  0  0  0  0  0  0
    4.1038    0.9664    0.3834 N   0  0  0  0  0  0  0  0  0  0  0  0
    5.1662    0.1878    0.0950 N   0  0  0  0  0  0  0  0  0  0  0  0
    6.3908    0.7992   -0.3027 C   0  0  0  0  0  0  0  0  0  0  0  0
    6.7503    2.0227    0.2804 C   0  0  0  0  0  0  0  0  0  0  0  0
    7.9378    2.6477   -0.1008 C   0  0  0  0  0  0  0  0  0  0  0  0
    8.7745    2.0582   -1.0543 C   0  0  0  0  0  0  0  0  0  0  0  0
    8.4066    0.8429   -1.6375 C   0  0  0  0  0  0  0  0  0  0  0  0
    7.2136    0.2128   -1.2740 C   0  0  0  0  0  0  0  0  0  0  0  0
    4.8877   -1.1416    0.3176 C   0  0  0  0  0  0  0  0  0  0  0  0
    5.8424   -2.1480    0.1710 N   0  0  0  0  0  0  0  0  0  0  0  0
    5.8026   -3.1494   -0.7739 C   0  0  0  0  0  0  0  0  0  0  0  0
    4.9442   -3.0647   -1.8951 C   0  0  0  0  0  0  0  0  0  0  0  0
    4.9483   -4.0462   -2.8763 C   0  0  0  0  0  0  0  0  0  0  0  0
    5.8067   -5.1529   -2.7863 C   0  0  0  0  0  0  0  0  0  0  0  0
    6.6352   -5.2638   -1.6781 C   0  0  0  0  0  0  0  0  0  0  0  0
    6.6415   -4.3005   -0.6475 C   0  0  0  0  0  0  0  0  0  0  0  0
    7.4811   -4.4753    0.5672 C   0  0  0  0  0  0  0  0  0  0  0  0
    7.7209   -3.5878    1.3648 O   0  0  0  0  0  0  0  0  0  0  0  0
    7.9723   -5.7064    0.8130 O   0  0  0  0  0  0  0  0  0  0  0  0
    3.5590   -1.2118    0.7438 C   0  0  0  0  0  0  0  0  0  0  0  0
    2.8137   -2.4168    1.1513 C   0  0  0  0  0  0  0  0  0  0  0  0
    1.4474   -2.5668    0.8148 C   0  0  0  0  0  0  0  0  0  0  0  0
    0.7493   -3.6979    1.2053 C   0  0  0  0  0  0  0  0  0  0  0  0
    1.3726   -4.7199    1.9443 C   0  0  0  0  0  0  0  0  0  0  0  0
    0.6361   -5.8293    2.3096 N   0  0  0  0  0  0  0  0  0  0  0  0
    1.2212   -6.7548    2.9876 C   0  0  0  0  0  0  0  0  0  0  0  0
    2.6342   -6.7384    3.4225 C   0  0  0  0  0  0  0  0  0  0  0  0
    3.1399   -7.6451    4.0643 O   0  0  0  0  0  0  0  0  0  0  0  0
    3.3448   -5.5929    3.0381 N   0  0  0  0  0  0  0  0  0  0  0  0
    4.7406   -5.4952    3.4504 C   0  0  0  0  0  0  0  0  0  0  0  0
    2.7453   -4.5810    2.2941 C   0  0  0  0  0  0  0  0  0  0  0  0
    3.4459   -3.4306    1.8891 C   0  0  0  0  0  0  0  0  0  0  0  0
    1.9009    1.7951    1.3416 H   0  0  0  0  0  0  0  0  0  0  0  0
    1.3932    0.2283    2.0449 H   0  0  0  0  0  0  0  0  0  0  0  0
    1.0426    0.5998    0.3449 H   0  0  0  0  0  0  0  0  0  0  0  0
    6.0852    2.4705    1.0189 H   0  0  0  0  0  0  0  0  0  0  0  0
    8.2134    3.6013    0.3563 H   0  0  0  0  0  0  0  0  0  0  0  0
    9.7068    2.5477   -1.3459 H   0  0  0  0  0  0  0  0  0  0  0  0
    9.0455    0.3817   -2.3946 H   0  0  0  0  0  0  0  0  0  0  0  0
    6.9191   -0.7178   -1.7578 H   0  0  0  0  0  0  0  0  0  0  0  0
    6.5842   -2.2576    0.8706 H   0  0  0  0  0  0  0  0  0  0  0  0
    4.2791   -2.2045   -1.9844 H   0  0  0  0  0  0  0  0  0  0  0  0
    4.2799   -3.9434   -3.7350 H   0  0  0  0  0  0  0  0  0  0  0  0
    5.8276   -5.9098   -3.5723 H   0  0  0  0  0  0  0  0  0  0  0  0
    7.3202   -6.1160   -1.6284 H   0  0  0  0  0  0  0  0  0  0  0  0
    7.6084   -6.3515    0.1910 H   0  0  0  0  0  0  0  0  0  0  0  0
    0.9472   -1.7980    0.2253 H   0  0  0  0  0  0  0  0  0  0  0  0
   -0.3026   -3.8384    0.9492 H   0  0  0  0  0  0  0  0  0  0  0  0
    0.6593   -7.6474    3.2893 H   0  0  0  0  0  0  0  0  0  0  0  0
    4.9591   -6.3718    4.0696 H   0  0  0  0  0  0  0  0  0  0  0  0
    4.9116   -4.5775    4.0327 H   0  0  0  0  0  0  0  0  0  0  0  0
    5.4136   -5.4913    2.5794 H   0  0  0  0  0  0  0  0  0  0  0  0
    4.4947   -3.3132    2.1527 H   0  0  0  0  0  0  0  0  0  0  0  0
  1  2  1  0
  1 35  1  0
  1 36  1  0
  1 37  1  0
  2  3  2  0
  2 22  1  0
  3  4  1  0
  4  5  1  0
  4 11  1  0
  5  6  2  0
  5 10  1  0
  6  7  1  0
  6 38  1  0
  7  8  2  0
  7 39  1  0
  8  9  1  0
  8 40  1  0
  9 10  2  0
  9 41  1  0
 10 42  1  0
 11 12  1  0
 11 22  2  0
 12 13  1  0
 12 43  1  0
 13 14  2  0
 13 18  1  0
 14 15  1  0
 14 44  1  0
 15 16  2  0
 15 45  1  0
 16 17  1  0
 16 46  1  0
 17 18  2  0
 17 47  1  0
 18 19  1  0
 19 20  2  0
 19 21  1  0
 21 48  1  0
 22 23  1  0
 23 24  2  0
 23 34  1  0
 24 25  1  0
 24 49  1  0
 25 26  2  0
 25 50  1  0
 26 27  1  0
 26 33  1  0
 27 28  2  0
 28 29  1  0
 28 51  1  0
 29 30  2  0
 29 31  1  0
 31 32  1  0
 31 33  1  0
 32 52  1  0
 32 53  1  0
 32 54  1  0
 33 34  2  0
 34 55  1  0
M  END

