
     RDKit          3D

 47 49  0  0  0  0  0  0  0  0999 V2000
    4.3407    1.1316    2.2818 C   0  0  0  0  0  0  0  0  0  0  0  0
    4.4626    0.4393    0.9472 C   0  0  0  0  0  0  0  0  0  0  0  0
    4.1188    1.0804   -0.2488 C   0  0  0  0  0  0  0  0  0  0  0  0
    4.2810    0.3660   -1.4404 C   0  0  0  0  0  0  0  0  0  0  0  0
    4.7578   -0.9380   -1.4175 C   0  0  0  0  0  0  0  0  0  0  0  0
    5.0604   -1.5224   -0.1588 C   0  0  0  0  0  0  0  0  0  0  0  0
    5.4959   -2.8355   -0.0252 N   0  0  0  0  0  0  0  0  0  0  0  0
    6.1078   -3.2644    1.2287 C   0  0  0  0  0  0  0  0  0  0  0  0
    5.7797   -4.7248    1.5507 C   0  0  0  0  0  0  0  0  0  0  0  0
    6.1249   -5.6692    0.3926 C   0  0  2  0  0  0  0  0  0  0  0  0
    7.5783   -5.8072    0.2638 N   0  0  0  0  0  0  0  0  0  0  0  0
    8.1553   -6.8600   -0.3534 C   0  0  0  0  0  0  0  0  0  0  0  0
    7.5271   -7.7887   -0.8503 O   0  0  0  0  0  0  0  0  0  0  0  0
    9.7100   -6.9220   -0.3853 C   0  0  1  0  0  0  0  0  0  0  0  0
   10.0670   -7.9248   -1.2869 O   0  0  0  0  0  0  0  0  0  0  0  0
   10.3445   -5.5879   -0.7366 C   0  0  0  0  0  0  0  0  0  0  0  0
   10.7563   -4.6966    0.2654 C   0  0  0  0  0  0  0  0  0  0  0  0
   11.2897   -3.4461   -0.0676 C   0  0  0  0  0  0  0  0  0  0  0  0
   11.4291   -3.0809   -1.4090 C   0  0  0  0  0  0  0  0  0  0  0  0
   11.0393   -3.9743   -2.4139 C   0  0  0  0  0  0  0  0  0  0  0  0
   10.5019   -5.2193   -2.0810 C   0  0  0  0  0  0  0  0  0  0  0  0
    5.4709   -5.1466   -0.8979 C   0  0  0  0  0  0  0  0  0  0  0  0
    5.8030   -3.6766   -1.1749 C   0  0  0  0  0  0  0  0  0  0  0  0
    4.9191   -0.8180    0.9736 N   0  0  0  0  0  0  0  0  0  0  0  0
    3.9664    2.1602    2.1801 H   0  0  0  0  0  0  0  0  0  0  0  0
    5.3197    1.1597    2.7873 H   0  0  0  0  0  0  0  0  0  0  0  0
    3.6588    0.5710    2.9417 H   0  0  0  0  0  0  0  0  0  0  0  0
    3.7486    2.1070   -0.2479 H   0  0  0  0  0  0  0  0  0  0  0  0
    4.0413    0.8335   -2.3996 H   0  0  0  0  0  0  0  0  0  0  0  0
    4.8986   -1.4752   -2.3535 H   0  0  0  0  0  0  0  0  0  0  0  0
    5.7481   -2.5991    2.0207 H   0  0  0  0  0  0  0  0  0  0  0  0
    7.2105   -3.1188    1.1769 H   0  0  0  0  0  0  0  0  0  0  0  0
    4.7001   -4.8107    1.7538 H   0  0  0  0  0  0  0  0  0  0  0  0
    6.3100   -5.0323    2.4672 H   0  0  0  0  0  0  0  0  0  0  0  0
    5.7384   -6.6794    0.5950 H   0  0  0  0  0  0  0  0  0  0  0  0
    8.1761   -5.0354    0.5401 H   0  0  0  0  0  0  0  0  0  0  0  0
   10.0162   -7.1870    0.6508 H   0  0  0  0  0  0  0  0  0  0  0  0
    9.2359   -8.4172   -1.4431 H   0  0  0  0  0  0  0  0  0  0  0  0
   10.6803   -4.9900    1.3176 H   0  0  0  0  0  0  0  0  0  0  0  0
   11.6107   -2.7635    0.7235 H   0  0  0  0  0  0  0  0  0  0  0  0
   11.8517   -2.1079   -1.6720 H   0  0  0  0  0  0  0  0  0  0  0  0
   11.1605   -3.6995   -3.4651 H   0  0  0  0  0  0  0  0  0  0  0  0
   10.2151   -5.9324   -2.8563 H   0  0  0  0  0  0  0  0  0  0  0  0
    4.3778   -5.2534   -0.7954 H   0  0  0  0  0  0  0  0  0  0  0  0
    5.7822   -5.7712   -1.7489 H   0  0  0  0  0  0  0  0  0  0  0  0
    5.2167   -3.3497   -2.0412 H   0  0  0  0  0  0  0  0  0  0  0  0
    6.8727   -3.5779   -1.4583 H   0  0  0  0  0  0  0  0  0  0  0  0
  1  2  1  0
  1 25  1  0
  1 26  1  0
  1 27  1  0
  2  3  2  0
  2 24  1  0
  3  4  1  0
  3 28  1  0
  4  5  2  0
  4 29  1  0
  5  6  1  0
  5 30  1  0
  6  7  1  0
  6 24  2  0
  7  8  1  0
  7 23  1  0
  8  9  1  0
  8 31  1  0
  8 32  1  0
  9 10  1  0
  9 33  1  0
  9 34  1  0
 10 11  1  0
 10 22  1  0
 10 35  1  1
 11 12  1  0
 11 36  1  0
 12 13  2  0
 12 14  1  0
 14 15  1  0
 14 16  1  0
 14 37  1  1
 15 38  1  0
 16 17  2  0
 16 21  1  0
 17 18  1  0
 17 39  1  0
 18 19  2  0
 18 40  1  0
 19 20  1  0
 19 41  1  0
 20 21  2  0
 20 42  1  0
 21 43  1  0
 22 23  1  0
 22 44  1  0
 22 45  1  0
 23 46  1  0
 23 47  1  0
M  END

