
     RDKit          3D

 72 77  0  0  0  0  0  0  0  0999 V2000
    3.2443   -0.7158    0.8203 C   0  0  0  0  0  0  0  0  0  0  0  0
    2.1447   -0.1167   -0.0870 C   0  0  1  0  0  0  0  0  0  0  0  0
    0.9990   -1.1421   -0.2520 C   0  0  0  0  0  0  0  0  0  0  0  0
    1.5745    1.1309    0.6115 C   0  0  0  0  0  0  0  0  0  0  0  0
    2.7434    0.2095   -1.4709 C   0  0  0  0  0  0  0  0  0  0  0  0
    3.3115   -0.8209   -2.2427 C   0  0  0  0  0  0  0  0  0  0  0  0
    3.8741   -0.5903   -3.5076 C   0  0  0  0  0  0  0  0  0  0  0  0
    4.4633   -1.6402   -4.3003 C   0  0  0  0  0  0  0  0  0  0  0  0
    5.0151   -1.3807   -5.5202 C   0  0  0  0  0  0  0  0  0  0  0  0
    5.0324   -0.0487   -6.0728 C   0  0  0  0  0  0  0  0  0  0  0  0
    5.6180    0.2405   -7.3139 C   0  0  0  0  0  0  0  0  0  0  0  0
    5.6560    1.5434   -7.8389 C   0  0  0  0  0  0  0  0  0  0  0  0
    6.3289    1.7980   -9.2036 C   0  0  1  0  0  0  0  0  0  0  0  0
    5.5802    0.9995  -10.2962 C   0  0  0  0  0  0  0  0  0  0  0  0
    6.3081    3.2864   -9.5960 C   0  0  0  0  0  0  0  0  0  0  0  0
    7.8033    1.3354   -9.1474 C   0  0  0  0  0  0  0  0  0  0  0  0
    5.0648    2.5703   -7.0902 C   0  0  0  0  0  0  0  0  0  0  0  0
    4.4435    2.3340   -5.8487 C   0  0  0  0  0  0  0  0  0  0  0  0
    3.8214    3.3886   -5.0640 C   0  0  0  0  0  0  0  0  0  0  0  0
    3.7886    4.7260   -5.5691 N   0  0  0  0  0  0  0  0  0  0  0  0
    3.0098    5.0166   -6.7156 C   0  0  0  0  0  0  0  0  0  0  0  0
    1.8866    4.2332   -7.0398 C   0  0  0  0  0  0  0  0  0  0  0  0
    1.1433    4.5015   -8.1917 C   0  0  0  0  0  0  0  0  0  0  0  0
    1.4902    5.5591   -9.0361 C   0  0  0  0  0  0  0  0  0  0  0  0
    2.6045    6.3438   -8.7168 C   0  0  0  0  0  0  0  0  0  0  0  0
    3.3633    6.0750   -7.5781 C   0  0  0  0  0  0  0  0  0  0  0  0
    4.3560    5.7606   -4.7780 C   0  0  0  0  0  0  0  0  0  0  0  0
    5.6128    5.5701   -4.1730 C   0  0  0  0  0  0  0  0  0  0  0  0
    6.1737    6.5684   -3.3763 C   0  0  0  0  0  0  0  0  0  0  0  0
    5.5042    7.7805   -3.1764 C   0  0  0  0  0  0  0  0  0  0  0  0
    4.2572    7.9759   -3.7775 C   0  0  0  0  0  0  0  0  0  0  0  0
    3.6804    6.9762   -4.5637 C   0  0  0  0  0  0  0  0  0  0  0  0
    3.2853    3.1104   -3.8320 C   0  0  0  0  0  0  0  0  0  0  0  0
    3.2992    1.7903   -3.2707 C   0  0  0  0  0  0  0  0  0  0  0  0
    2.7492    1.5051   -2.0045 C   0  0  0  0  0  0  0  0  0  0  0  0
    3.8704    0.7353   -4.0377 C   0  0  0  0  0  0  0  0  0  0  0  0
    4.4386    1.0093   -5.3170 C   0  0  0  0  0  0  0  0  0  0  0  0
    2.8335   -0.9573    1.8146 H   0  0  0  0  0  0  0  0  0  0  0  0
    4.0736   -0.0038    0.9582 H   0  0  0  0  0  0  0  0  0  0  0  0
    3.6654   -1.6421    0.4007 H   0  0  0  0  0  0  0  0  0  0  0  0
    0.5593   -1.3891    0.7285 H   0  0  0  0  0  0  0  0  0  0  0  0
    1.3492   -2.0818   -0.7055 H   0  0  0  0  0  0  0  0  0  0  0  0
    0.1981   -0.7397   -0.8925 H   0  0  0  0  0  0  0  0  0  0  0  0
    1.1597    0.8512    1.5927 H   0  0  0  0  0  0  0  0  0  0  0  0
    0.7618    1.5932    0.0297 H   0  0  0  0  0  0  0  0  0  0  0  0
    2.3483    1.8947    0.7861 H   0  0  0  0  0  0  0  0  0  0  0  0
    3.3259   -1.8440   -1.8590 H   0  0  0  0  0  0  0  0  0  0  0  0
    4.4642   -2.6576   -3.8995 H   0  0  0  0  0  0  0  0  0  0  0  0
    5.4635   -2.1889   -6.1048 H   0  0  0  0  0  0  0  0  0  0  0  0
    6.0622   -0.5871   -7.8725 H   0  0  0  0  0  0  0  0  0  0  0  0
    4.5267    1.3144  -10.3617 H   0  0  0  0  0  0  0  0  0  0  0  0
    5.5948   -0.0831  -10.0973 H   0  0  0  0  0  0  0  0  0  0  0  0
    6.0473    1.1642  -11.2813 H   0  0  0  0  0  0  0  0  0  0  0  0
    5.2829    3.6772   -9.6833 H   0  0  0  0  0  0  0  0  0  0  0  0
    6.7980    3.4192  -10.5736 H   0  0  0  0  0  0  0  0  0  0  0  0
    6.8498    3.9102   -8.8679 H   0  0  0  0  0  0  0  0  0  0  0  0
    7.8920    0.2623   -8.9196 H   0  0  0  0  0  0  0  0  0  0  0  0
    8.3617    1.8889   -8.3757 H   0  0  0  0  0  0  0  0  0  0  0  0
    8.2979    1.5110  -10.1170 H   0  0  0  0  0  0  0  0  0  0  0  0
    5.0766    3.5910   -7.4634 H   0  0  0  0  0  0  0  0  0  0  0  0
    1.5971    3.4110   -6.3838 H   0  0  0  0  0  0  0  0  0  0  0  0
    0.2755    3.8780   -8.4228 H   0  0  0  0  0  0  0  0  0  0  0  0
    0.9025    5.7695   -9.9327 H   0  0  0  0  0  0  0  0  0  0  0  0
    2.8970    7.1707   -9.3697 H   0  0  0  0  0  0  0  0  0  0  0  0
    4.2397    6.6845   -7.3513 H   0  0  0  0  0  0  0  0  0  0  0  0
    6.1462    4.6313   -4.3340 H   0  0  0  0  0  0  0  0  0  0  0  0
    7.1512    6.4002   -2.9163 H   0  0  0  0  0  0  0  0  0  0  0  0
    5.9492    8.5632   -2.5575 H   0  0  0  0  0  0  0  0  0  0  0  0
    3.7157    8.9131   -3.6229 H   0  0  0  0  0  0  0  0  0  0  0  0
    2.6991    7.1345   -5.0142 H   0  0  0  0  0  0  0  0  0  0  0  0
    2.8291    3.9203   -3.2578 H   0  0  0  0  0  0  0  0  0  0  0  0
    2.3200    2.3356   -1.4435 H   0  0  0  0  0  0  0  0  0  0  0  0
  2  1  1  1
  1 38  1  0
  1 39  1  0
  1 40  1  0
  2  3  1  0
  2  4  1  0
  2  5  1  0
  3 41  1  0
  3 42  1  0
  3 43  1  0
  4 44  1  0
  4 45  1  0
  4 46  1  0
  5  6  2  0
  5 35  1  0
  6  7  1  0
  6 47  1  0
  7  8  2  0
  7 36  1  0
  8  9  1  0
  8 48  1  0
  9 10  2  0
  9 49  1  0
 10 11  1  0
 10 37  1  0
 11 12  2  0
 11 50  1  0
 12 13  1  0
 12 17  1  0
 13 14  1  6
 13 15  1  0
 13 16  1  0
 14 51  1  0
 14 52  1  0
 14 53  1  0
 15 54  1  0
 15 55  1  0
 15 56  1  0
 16 57  1  0
 16 58  1  0
 16 59  1  0
 17 18  2  0
 17 60  1  0
 18 19  1  0
 18 37  1  0
 19 20  1  0
 19 33  2  0
 20 21  1  0
 20 27  1  0
 21 22  2  0
 21 26  1  0
 22 23  1  0
 22 61  1  0
 23 24  2  0
 23 62  1  0
 24 25  1  0
 24 63  1  0
 25 26  2  0
 25 64  1  0
 26 65  1  0
 27 28  2  0
 27 32  1  0
 28 29  1  0
 28 66  1  0
 29 30  2  0
 29 67  1  0
 30 31  1  0
 30 68  1  0
 31 32  2  0
 31 69  1  0
 32 70  1  0
 33 34  1  0
 33 71  1  0
 34 35  2  0
 34 36  1  0
 35 72  1  0
 36 37  2  0
M  END

