
     RDKit          3D

 52 53  0  0  0  0  0  0  0  0999 V2000
    1.5720   -2.5112   -0.8979 C   0  0  0  0  0  0  0  0  0  0  0  0
    2.1122   -1.3095   -0.4055 O   0  0  0  0  0  0  0  0  0  0  0  0
    2.8201   -0.3524   -1.2315 C   0  0  1  0  0  0  0  0  0  0  0  0
    4.3514   -0.7715   -1.3780 C   0  0  1  0  0  0  0  0  0  0  0  0
    4.8286   -1.4460   -0.1651 N   0  0  0  0  0  0  0  0  0  0  0  0
    4.8127   -1.4662   -2.6992 C   0  0  1  0  0  0  0  0  0  0  0  0
    6.3486   -1.3787   -2.8834 C   0  0  0  0  0  0  0  0  0  0  0  0
    7.1667   -2.4418   -2.1290 C   0  0  2  0  0  0  0  0  0  0  0  0
    8.6621   -2.3076   -2.4298 C   0  0  0  0  0  0  0  0  0  0  0  0
    6.6451   -3.8473   -2.4640 C   0  0  0  0  0  0  0  0  0  0  0  0
    5.1358   -4.0024   -2.2184 C   0  0  2  0  0  0  0  0  0  0  0  0
    4.6440   -5.4027   -2.5965 C   0  0  0  0  0  0  0  0  0  0  0  0
    4.3648   -2.9147   -2.9879 C   0  0  0  0  0  0  0  0  0  0  0  0
    2.0684   -0.1512   -2.5619 C   0  0  0  0  0  0  0  0  0  0  0  0
    2.3558    1.1158   -3.3908 C   0  0  0  0  0  0  0  0  0  0  0  0
    1.7151    2.3976   -2.8334 C   0  0  0  0  0  0  0  0  0  0  0  0
    2.4846    3.1102   -1.7016 C   0  0  0  0  0  0  0  0  0  0  0  0
    3.3633    2.2169   -0.8115 C   0  0  0  0  0  0  0  0  0  0  0  0
    2.7344    0.9044   -0.3191 C   0  0  0  0  0  0  0  0  0  0  0  0
    0.8687   -2.8733   -0.1314 H   0  0  0  0  0  0  0  0  0  0  0  0
    2.3342   -3.2964   -1.0524 H   0  0  0  0  0  0  0  0  0  0  0  0
    1.0072   -2.3880   -1.8378 H   0  0  0  0  0  0  0  0  0  0  0  0
    4.8919    0.1853   -1.4289 H   0  0  0  0  0  0  0  0  0  0  0  0
    4.0470   -1.9298    0.2777 H   0  0  0  0  0  0  0  0  0  0  0  0
    5.1561   -0.7686    0.5207 H   0  0  0  0  0  0  0  0  0  0  0  0
    4.3890   -0.8438   -3.5036 H   0  0  0  0  0  0  0  0  0  0  0  0
    6.7029   -0.3699   -2.6051 H   0  0  0  0  0  0  0  0  0  0  0  0
    6.5660   -1.4867   -3.9635 H   0  0  0  0  0  0  0  0  0  0  0  0
    7.0061   -2.2801   -1.0514 H   0  0  0  0  0  0  0  0  0  0  0  0
    8.8700   -2.4572   -3.5041 H   0  0  0  0  0  0  0  0  0  0  0  0
    9.2524   -3.0533   -1.8718 H   0  0  0  0  0  0  0  0  0  0  0  0
    9.0415   -1.3091   -2.1553 H   0  0  0  0  0  0  0  0  0  0  0  0
    7.1991   -4.6016   -1.8771 H   0  0  0  0  0  0  0  0  0  0  0  0
    6.8583   -4.0702   -3.5292 H   0  0  0  0  0  0  0  0  0  0  0  0
    4.9611   -3.8503   -1.1401 H   0  0  0  0  0  0  0  0  0  0  0  0
    4.7937   -5.5998   -3.6725 H   0  0  0  0  0  0  0  0  0  0  0  0
    3.5687   -5.5271   -2.3846 H   0  0  0  0  0  0  0  0  0  0  0  0
    5.1863   -6.1836   -2.0382 H   0  0  0  0  0  0  0  0  0  0  0  0
    3.2836   -3.0362   -2.8297 H   0  0  0  0  0  0  0  0  0  0  0  0
    4.5230   -3.0979   -4.0683 H   0  0  0  0  0  0  0  0  0  0  0  0
    0.9917   -0.1427   -2.3171 H   0  0  0  0  0  0  0  0  0  0  0  0
    2.2230   -1.0303   -3.2040 H   0  0  0  0  0  0  0  0  0  0  0  0
    1.9401    0.9374   -4.3966 H   0  0  0  0  0  0  0  0  0  0  0  0
    3.4392    1.2589   -3.5458 H   0  0  0  0  0  0  0  0  0  0  0  0
    0.6990    2.1402   -2.4869 H   0  0  0  0  0  0  0  0  0  0  0  0
    1.5674    3.1151   -3.6578 H   0  0  0  0  0  0  0  0  0  0  0  0
    1.7577    3.6504   -1.0706 H   0  0  0  0  0  0  0  0  0  0  0  0
    3.1339    3.8908   -2.1347 H   0  0  0  0  0  0  0  0  0  0  0  0
    3.6601    2.8107    0.0694 H   0  0  0  0  0  0  0  0  0  0  0  0
    4.3103    2.0049   -1.3351 H   0  0  0  0  0  0  0  0  0  0  0  0
    1.6691    1.0563   -0.0802 H   0  0  0  0  0  0  0  0  0  0  0  0
    3.2054    0.6084    0.6315 H   0  0  0  0  0  0  0  0  0  0  0  0
  1  2  1  0
  1 20  1  0
  1 21  1  0
  1 22  1  0
  3  2  1  1
  3  4  1  0
  3 14  1  0
  3 19  1  0
  4  5  1  0
  4  6  1  0
  4 23  1  6
  5 24  1  0
  5 25  1  0
  6  7  1  0
  6 13  1  0
  6 26  1  6
  7  8  1  0
  7 27  1  0
  7 28  1  0
  8  9  1  0
  8 10  1  0
  8 29  1  1
  9 30  1  0
  9 31  1  0
  9 32  1  0
 10 11  1  0
 10 33  1  0
 10 34  1  0
 11 12  1  0
 11 13  1  0
 11 35  1  1
 12 36  1  0
 12 37  1  0
 12 38  1  0
 13 39  1  0
 13 40  1  0
 14 15  1  0
 14 41  1  0
 14 42  1  0
 15 16  1  0
 15 43  1  0
 15 44  1  0
 16 17  1  0
 16 45  1  0
 16 46  1  0
 17 18  1  0
 17 47  1  0
 17 48  1  0
 18 19  1  0
 18 49  1  0
 18 50  1  0
 19 51  1  0
 19 52  1  0
M  END

