
     RDKit          3D

 51 53  0  0  0  0  0  0  0  0999 V2000
    1.3031   -0.1491    1.5862 C   0  0  0  0  0  0  0  0  0  0  0  0
    2.6678   -0.1660    0.9410 C   0  0  0  0  0  0  0  0  0  0  0  0
    3.0889    0.8575    0.0803 C   0  0  0  0  0  0  0  0  0  0  0  0
    4.3498    0.8175   -0.5144 C   0  0  0  0  0  0  0  0  0  0  0  0
    5.2532   -0.2329   -0.2773 C   0  0  0  0  0  0  0  0  0  0  0  0
    4.8282   -1.2749    0.5750 C   0  0  0  0  0  0  0  0  0  0  0  0
    3.5596   -1.2208    1.1682 C   0  0  0  0  0  0  0  0  0  0  0  0
    5.7403   -2.4524    0.8800 C   0  0  0  0  0  0  0  0  0  0  0  0
    6.8439   -2.6216   -0.0477 N   0  0  0  0  0  0  0  0  0  0  0  0
    7.5134   -1.3613   -0.3098 C   0  0  0  0  0  0  0  0  0  0  0  0
    6.6285   -0.2637   -0.9715 C   0  0  1  0  0  0  0  0  0  0  0  0
    6.4222   -0.5678   -2.4847 C   0  0  0  0  0  0  0  0  0  0  0  0
    7.6884   -0.4071   -3.3332 C   0  0  0  0  0  0  0  0  0  0  0  0
    8.3113    0.8917   -3.1111 N   0  0  0  0  0  0  0  0  0  0  0  0
    8.6497    1.6667   -4.1915 C   0  0  0  0  0  0  0  0  0  0  0  0
    8.4227    1.3543   -5.3465 O   0  0  0  0  0  0  0  0  0  0  0  0
    9.2565    2.8126   -3.8071 O   0  0  0  0  0  0  0  0  0  0  0  0
    9.7030    3.8123   -4.7793 C   0  0  1  0  0  0  0  0  0  0  0  0
    8.5046    4.3601   -5.5620 C   0  0  0  0  0  0  0  0  0  0  0  0
   10.3112    4.9016   -3.8928 C   0  0  0  0  0  0  0  0  0  0  0  0
   10.7685    3.2113   -5.7026 C   0  0  0  0  0  0  0  0  0  0  0  0
    8.6109    1.2116   -1.7201 C   0  0  0  0  0  0  0  0  0  0  0  0
    7.3477    1.1063   -0.8555 C   0  0  0  0  0  0  0  0  0  0  0  0
    0.7689    0.7898    1.3778 H   0  0  0  0  0  0  0  0  0  0  0  0
    1.3735   -0.2616    2.6808 H   0  0  0  0  0  0  0  0  0  0  0  0
    0.6753   -0.9788    1.2186 H   0  0  0  0  0  0  0  0  0  0  0  0
    2.4210    1.6976   -0.1306 H   0  0  0  0  0  0  0  0  0  0  0  0
    4.6298    1.6342   -1.1838 H   0  0  0  0  0  0  0  0  0  0  0  0
    3.2567   -2.0410    1.8291 H   0  0  0  0  0  0  0  0  0  0  0  0
    5.1517   -3.3836    0.9178 H   0  0  0  0  0  0  0  0  0  0  0  0
    6.1595   -2.3227    1.8976 H   0  0  0  0  0  0  0  0  0  0  0  0
    6.5172   -3.0425   -0.9164 H   0  0  0  0  0  0  0  0  0  0  0  0
    8.4056   -1.5577   -0.9232 H   0  0  0  0  0  0  0  0  0  0  0  0
    7.8857   -0.9761    0.6569 H   0  0  0  0  0  0  0  0  0  0  0  0
    5.6476    0.1096   -2.8790 H   0  0  0  0  0  0  0  0  0  0  0  0
    6.0258   -1.5901   -2.6092 H   0  0  0  0  0  0  0  0  0  0  0  0
    8.4177   -1.2077   -3.1020 H   0  0  0  0  0  0  0  0  0  0  0  0
    7.4528   -0.4864   -4.4014 H   0  0  0  0  0  0  0  0  0  0  0  0
    7.7414    4.7492   -4.8696 H   0  0  0  0  0  0  0  0  0  0  0  0
    8.0522    3.5790   -6.1856 H   0  0  0  0  0  0  0  0  0  0  0  0
    8.8311    5.1888   -6.2097 H   0  0  0  0  0  0  0  0  0  0  0  0
    9.5564    5.3058   -3.2010 H   0  0  0  0  0  0  0  0  0  0  0  0
   10.6937    5.7276   -4.5115 H   0  0  0  0  0  0  0  0  0  0  0  0
   11.1443    4.4974   -3.2977 H   0  0  0  0  0  0  0  0  0  0  0  0
   10.3441    2.4161   -6.3278 H   0  0  0  0  0  0  0  0  0  0  0  0
   11.5967    2.7930   -5.1088 H   0  0  0  0  0  0  0  0  0  0  0  0
   11.1802    3.9968   -6.3556 H   0  0  0  0  0  0  0  0  0  0  0  0
    9.0184    2.2264   -1.6710 H   0  0  0  0  0  0  0  0  0  0  0  0
    9.3983    0.5285   -1.3475 H   0  0  0  0  0  0  0  0  0  0  0  0
    6.6679    1.9130   -1.1688 H   0  0  0  0  0  0  0  0  0  0  0  0
    7.6062    1.3021    0.1990 H   0  0  0  0  0  0  0  0  0  0  0  0
  1  2  1  0
  1 24  1  0
  1 25  1  0
  1 26  1  0
  2  3  2  0
  2  7  1  0
  3  4  1  0
  3 27  1  0
  4  5  2  0
  4 28  1  0
  5  6  1  0
  5 11  1  0
  6  7  2  0
  6  8  1  0
  7 29  1  0
  8  9  1  0
  8 30  1  0
  8 31  1  0
  9 10  1  0
  9 32  1  0
 11 10  1  1
 10 33  1  0
 10 34  1  0
 11 12  1  0
 11 23  1  0
 12 13  1  0
 12 35  1  0
 12 36  1  0
 13 14  1  0
 13 37  1  0
 13 38  1  0
 14 15  1  0
 14 22  1  0
 15 16  2  0
 15 17  1  0
 18 17  1  1
 18 19  1  0
 18 20  1  0
 18 21  1  0
 19 39  1  0
 19 40  1  0
 19 41  1  0
 20 42  1  0
 20 43  1  0
 20 44  1  0
 21 45  1  0
 21 46  1  0
 21 47  1  0
 22 23  1  0
 22 48  1  0
 22 49  1  0
 23 50  1  0
 23 51  1  0
M  END

