
     RDKit          3D

 61 63  0  0  0  0  0  0  0  0999 V2000
   13.5752    4.6728   -6.2231 C   0  0  0  0  0  0  0  0  0  0  0  0
   12.9115    3.9426   -5.0821 C   0  0  0  0  0  0  0  0  0  0  0  0
   13.0729    2.5364   -4.9568 C   0  0  0  0  0  0  0  0  0  0  0  0
   12.4950    1.8038   -3.9356 C   0  0  0  0  0  0  0  0  0  0  0  0
   12.6741    0.3136   -3.8310 C   0  0  0  0  0  0  0  0  0  0  0  0
   11.7010    2.4916   -2.9606 C   0  0  0  0  0  0  0  0  0  0  0  0
   11.1373    1.7631   -1.9546 N   0  0  0  0  0  0  0  0  0  0  0  0
   10.4053    2.3790   -1.0620 C   0  0  0  0  0  0  0  0  0  0  0  0
    9.6381    1.4639    0.2602 S   0  0  0  0  0  0  0  0  0  0  0  0
   10.2998   -0.1912   -0.0464 C   0  0  0  0  0  0  0  0  0  0  0  0
   11.7499   -0.3894    0.3833 C   0  0  0  0  0  0  0  0  0  0  0  0
   12.4062    0.3708    1.0451 O   0  0  0  0  0  0  0  0  0  0  0  0
   12.1859   -1.5795   -0.0704 O   0  0  0  0  0  0  0  0  0  0  0  0
   13.5415   -1.9842    0.2748 C   0  0  1  0  0  0  0  0  0  0  0  0
   13.5391   -2.6779    1.6406 C   0  0  0  0  0  0  0  0  0  0  0  0
   12.7506   -3.9986    1.6529 C   0  0  2  0  0  0  0  0  0  0  0  0
   12.8304   -4.6895    3.0160 C   0  0  0  0  0  0  0  0  0  0  0  0
   13.2201   -4.9122    0.5076 C   0  0  0  0  0  0  0  0  0  0  0  0
   13.1862   -4.1956   -0.8491 C   0  0  0  0  0  0  0  0  0  0  0  0
   14.0256   -2.8983   -0.8675 C   0  0  2  0  0  0  0  0  0  0  0  0
   15.5656   -3.1257   -0.8467 C   0  0  1  0  0  0  0  0  0  0  0  0
   16.0218   -4.0231   -2.0078 C   0  0  0  0  0  0  0  0  0  0  0  0
   16.3521   -1.8047   -0.8842 C   0  0  0  0  0  0  0  0  0  0  0  0
   10.1610    3.7832   -1.0804 C   0  0  0  0  0  0  0  0  0  0  0  0
   10.7125    4.5588   -2.0761 C   0  0  0  0  0  0  0  0  0  0  0  0
   10.4761    6.0454   -2.1164 C   0  0  0  0  0  0  0  0  0  0  0  0
   11.5216    3.9071   -3.0706 C   0  0  0  0  0  0  0  0  0  0  0  0
   12.1408    4.6039   -4.1421 C   0  0  0  0  0  0  0  0  0  0  0  0
   13.2349    4.2847   -7.1982 H   0  0  0  0  0  0  0  0  0  0  0  0
   14.6709    4.5461   -6.1954 H   0  0  0  0  0  0  0  0  0  0  0  0
   13.3600    5.7511   -6.1958 H   0  0  0  0  0  0  0  0  0  0  0  0
   13.6802    2.0117   -5.7016 H   0  0  0  0  0  0  0  0  0  0  0  0
   13.3318   -0.0642   -4.6274 H   0  0  0  0  0  0  0  0  0  0  0  0
   11.7054   -0.2075   -3.9016 H   0  0  0  0  0  0  0  0  0  0  0  0
   13.0991    0.0311   -2.8552 H   0  0  0  0  0  0  0  0  0  0  0  0
   10.2033   -0.4444   -1.1104 H   0  0  0  0  0  0  0  0  0  0  0  0
    9.6658   -0.8854    0.5278 H   0  0  0  0  0  0  0  0  0  0  0  0
   14.1356   -1.0645    0.3347 H   0  0  0  0  0  0  0  0  0  0  0  0
   13.1453   -1.9785    2.3957 H   0  0  0  0  0  0  0  0  0  0  0  0
   14.5888   -2.8734    1.9252 H   0  0  0  0  0  0  0  0  0  0  0  0
   11.6913   -3.7487    1.4582 H   0  0  0  0  0  0  0  0  0  0  0  0
   13.8711   -4.9623    3.2626 H   0  0  0  0  0  0  0  0  0  0  0  0
   12.2319   -5.6150    3.0321 H   0  0  0  0  0  0  0  0  0  0  0  0
   12.4593   -4.0355    3.8221 H   0  0  0  0  0  0  0  0  0  0  0  0
   12.5856   -5.8145    0.4690 H   0  0  0  0  0  0  0  0  0  0  0  0
   14.2432   -5.2707    0.7268 H   0  0  0  0  0  0  0  0  0  0  0  0
   12.1431   -3.9231   -1.0785 H   0  0  0  0  0  0  0  0  0  0  0  0
   13.5053   -4.8763   -1.6525 H   0  0  0  0  0  0  0  0  0  0  0  0
   13.8028   -2.3631   -1.8084 H   0  0  0  0  0  0  0  0  0  0  0  0
   15.8341   -3.6435    0.0917 H   0  0  0  0  0  0  0  0  0  0  0  0
   15.7314   -3.5893   -2.9804 H   0  0  0  0  0  0  0  0  0  0  0  0
   15.5981   -5.0365   -1.9538 H   0  0  0  0  0  0  0  0  0  0  0  0
   17.1184   -4.1283   -2.0071 H   0  0  0  0  0  0  0  0  0  0  0  0
   16.0737   -1.2039   -1.7674 H   0  0  0  0  0  0  0  0  0  0  0  0
   17.4343   -2.0011   -0.9466 H   0  0  0  0  0  0  0  0  0  0  0  0
   16.1891   -1.1809    0.0070 H   0  0  0  0  0  0  0  0  0  0  0  0
    9.5435    4.2346   -0.2998 H   0  0  0  0  0  0  0  0  0  0  0  0
    9.8370    6.3685   -1.2827 H   0  0  0  0  0  0  0  0  0  0  0  0
    9.9881    6.3487   -3.0574 H   0  0  0  0  0  0  0  0  0  0  0  0
   11.4249    6.6034   -2.0539 H   0  0  0  0  0  0  0  0  0  0  0  0
   12.0073    5.6842   -4.2277 H   0  0  0  0  0  0  0  0  0  0  0  0
  1  2  1  0
  1 29  1  0
  1 30  1  0
  1 31  1  0
  2  3  2  0
  2 28  1  0
  3  4  1  0
  3 32  1  0
  4  5  1  0
  4  6  2  0
  5 33  1  0
  5 34  1  0
  5 35  1  0
  6  7  1  0
  6 27  1  0
  7  8  2  0
  8  9  1  0
  8 24  1  0
  9 10  1  0
 10 11  1  0
 10 36  1  0
 10 37  1  0
 11 12  2  0
 11 13  1  0
 13 14  1  0
 14 15  1  0
 14 20  1  0
 14 38  1  1
 15 16  1  0
 15 39  1  0
 15 40  1  0
 16 17  1  0
 16 18  1  0
 16 41  1  6
 17 42  1  0
 17 43  1  0
 17 44  1  0
 18 19  1  0
 18 45  1  0
 18 46  1  0
 19 20  1  0
 19 47  1  0
 19 48  1  0
 20 21  1  0
 20 49  1  6
 21 22  1  0
 21 23  1  0
 21 50  1  1
 22 51  1  0
 22 52  1  0
 22 53  1  0
 23 54  1  0
 23 55  1  0
 23 56  1  0
 24 25  2  0
 24 57  1  0
 25 26  1  0
 25 27  1  0
 26 58  1  0
 26 59  1  0
 26 60  1  0
 27 28  2  0
 28 61  1  0
M  END

