
     RDKit          3D

 75 78  0  0  0  0  0  0  0  0999 V2000
    4.2917   10.1279   -8.0012 C   0  0  0  0  0  0  0  0  0  0  0  0
    3.4387    9.7736   -6.7784 C   0  0  1  0  0  0  0  0  0  0  0  0
    3.6616   10.7496   -5.6182 C   0  0  0  0  0  0  0  0  0  0  0  0
    1.9567    9.7066   -7.1528 C   0  0  0  0  0  0  0  0  0  0  0  0
    3.7271    8.4039   -6.3446 O   0  0  0  0  0  0  0  0  0  0  0  0
    4.9556    8.0327   -5.9237 C   0  0  0  0  0  0  0  0  0  0  0  0
    5.9346    8.7481   -5.8502 O   0  0  0  0  0  0  0  0  0  0  0  0
    4.9387    6.7049   -5.5912 N   0  0  0  0  0  0  0  0  0  0  0  0
    6.0928    6.0191   -5.0538 C   0  0  0  0  0  0  0  0  0  0  0  0
    6.4633    4.7499   -5.8015 C   0  0  0  0  0  0  0  0  0  0  0  0
    6.9555    3.6392   -5.1057 C   0  0  0  0  0  0  0  0  0  0  0  0
    7.3423    2.4849   -5.7952 C   0  0  0  0  0  0  0  0  0  0  0  0
    7.2349    2.4236   -7.1847 C   0  0  0  0  0  0  0  0  0  0  0  0
    6.7349    3.5230   -7.9028 C   0  0  0  0  0  0  0  0  0  0  0  0
    6.6364    3.4873   -9.4159 C   0  0  0  0  0  0  0  0  0  0  0  0
    5.8199    2.3609   -9.9059 N   0  0  0  0  0  0  0  0  0  0  0  0
    4.3796    2.4142   -9.5797 C   0  0  0  0  0  0  0  0  0  0  0  0
    3.7030    1.0656   -9.4507 C   0  0  0  0  0  0  0  0  0  0  0  0
    4.1082    0.1448   -8.4737 C   0  0  0  0  0  0  0  0  0  0  0  0
    3.4698   -1.0882   -8.3239 C   0  0  0  0  0  0  0  0  0  0  0  0
    2.3960   -1.4143   -9.1640 C   0  0  0  0  0  0  0  0  0  0  0  0
    1.6820   -2.5813   -9.0645 O   0  0  0  0  0  0  0  0  0  0  0  0
    2.1930   -3.6699   -8.3906 C   0  0  0  0  0  0  0  0  0  0  0  0
    3.2357   -4.4238   -8.9435 C   0  0  0  0  0  0  0  0  0  0  0  0
    3.6905   -5.5658   -8.2815 C   0  0  0  0  0  0  0  0  0  0  0  0
    3.0911   -5.9402   -7.0794 C   0  0  0  0  0  0  0  0  0  0  0  0
    3.5271   -7.0396   -6.4459 F   0  0  0  0  0  0  0  0  0  0  0  0
    2.0475   -5.2034   -6.5237 C   0  0  0  0  0  0  0  0  0  0  0  0
    1.5988   -4.0576   -7.1859 C   0  0  0  0  0  0  0  0  0  0  0  0
    1.9757   -0.5073  -10.1444 C   0  0  0  0  0  0  0  0  0  0  0  0
    2.6289    0.7167  -10.2828 C   0  0  0  0  0  0  0  0  0  0  0  0
    6.2036    1.7675  -11.4489 S   0  0  1  0  0  0  0  0  0  0  0  0
    4.9899    1.7873  -12.2724 O   0  0  0  0  0  0  0  0  0  0  0  0
    7.4254    2.4288  -11.9062 O   0  0  0  0  0  0  0  0  0  0  0  0
    6.6029    0.0260  -11.1822 C   0  0  0  0  0  0  0  0  0  0  0  0
    5.7974   -0.9288  -11.8032 C   0  0  0  0  0  0  0  0  0  0  0  0
    6.1134   -2.2818  -11.6767 C   0  0  0  0  0  0  0  0  0  0  0  0
    5.0978   -3.4886  -12.4318 Cl  0  0  0  0  0  0  0  0  0  0  0  0
    7.2331   -2.6879  -10.9480 C   0  0  0  0  0  0  0  0  0  0  0  0
    8.0261   -1.7189  -10.3376 C   0  0  0  0  0  0  0  0  0  0  0  0
    9.4382   -2.1862   -9.4070 Cl  0  0  0  0  0  0  0  0  0  0  0  0
    7.7371   -0.3441  -10.4360 C   0  0  0  0  0  0  0  0  0  0  0  0
    8.4889    0.5916   -9.8344 O   0  0  0  0  0  0  0  0  0  0  0  0
    6.3532    4.6718   -7.1991 C   0  0  0  0  0  0  0  0  0  0  0  0
    3.9944   11.1148   -8.3889 H   0  0  0  0  0  0  0  0  0  0  0  0
    4.1389    9.3876   -8.8023 H   0  0  0  0  0  0  0  0  0  0  0  0
    5.3579   10.1561   -7.7431 H   0  0  0  0  0  0  0  0  0  0  0  0
    3.3396   11.7600   -5.9152 H   0  0  0  0  0  0  0  0  0  0  0  0
    4.7202   10.7860   -5.3316 H   0  0  0  0  0  0  0  0  0  0  0  0
    3.0664   10.4458   -4.7427 H   0  0  0  0  0  0  0  0  0  0  0  0
    1.6063   10.6896   -7.5022 H   0  0  0  0  0  0  0  0  0  0  0  0
    1.3506    9.4086   -6.2838 H   0  0  0  0  0  0  0  0  0  0  0  0
    1.7927    8.9720   -7.9558 H   0  0  0  0  0  0  0  0  0  0  0  0
    4.0518    6.2197   -5.6598 H   0  0  0  0  0  0  0  0  0  0  0  0
    5.9468    5.7783   -3.9849 H   0  0  0  0  0  0  0  0  0  0  0  0
    6.9216    6.7439   -5.1014 H   0  0  0  0  0  0  0  0  0  0  0  0
    7.0366    3.6753   -4.0152 H   0  0  0  0  0  0  0  0  0  0  0  0
    7.7285    1.6260   -5.2397 H   0  0  0  0  0  0  0  0  0  0  0  0
    7.5403    1.5278   -7.7282 H   0  0  0  0  0  0  0  0  0  0  0  0
    7.6360    3.3770   -9.8557 H   0  0  0  0  0  0  0  0  0  0  0  0
    6.2326    4.4507   -9.7793 H   0  0  0  0  0  0  0  0  0  0  0  0
    3.8358    3.0364  -10.3103 H   0  0  0  0  0  0  0  0  0  0  0  0
    4.3306    2.9312   -8.6092 H   0  0  0  0  0  0  0  0  0  0  0  0
    4.9398    0.3974   -7.8104 H   0  0  0  0  0  0  0  0  0  0  0  0
    3.7970   -1.7873   -7.5529 H   0  0  0  0  0  0  0  0  0  0  0  0
    3.6752   -4.1212   -9.8962 H   0  0  0  0  0  0  0  0  0  0  0  0
    4.4969   -6.1773   -8.6912 H   0  0  0  0  0  0  0  0  0  0  0  0
    1.5991   -5.5321   -5.5842 H   0  0  0  0  0  0  0  0  0  0  0  0
    0.7802   -3.4593   -6.7815 H   0  0  0  0  0  0  0  0  0  0  0  0
    1.1398   -0.7826  -10.7904 H   0  0  0  0  0  0  0  0  0  0  0  0
    2.3086    1.4101  -11.0641 H   0  0  0  0  0  0  0  0  0  0  0  0
    4.9289   -0.5999  -12.3732 H   0  0  0  0  0  0  0  0  0  0  0  0
    7.4863   -3.7434  -10.8506 H   0  0  0  0  0  0  0  0  0  0  0  0
    9.2501    0.1598   -9.4107 H   0  0  0  0  0  0  0  0  0  0  0  0
    5.9570    5.5310   -7.7475 H   0  0  0  0  0  0  0  0  0  0  0  0
  1  2  1  0
  1 45  1  0
  1 46  1  0
  1 47  1  0
  2  3  1  0
  2  4  1  0
  2  5  1  1
  3 48  1  0
  3 49  1  0
  3 50  1  0
  4 51  1  0
  4 52  1  0
  4 53  1  0
  5  6  1  0
  6  7  2  0
  6  8  1  0
  8  9  1  0
  8 54  1  0
  9 10  1  0
  9 55  1  0
  9 56  1  0
 10 11  2  0
 10 44  1  0
 11 12  1  0
 11 57  1  0
 12 13  2  0
 12 58  1  0
 13 14  1  0
 13 59  1  0
 14 15  1  0
 14 44  2  0
 15 16  1  0
 15 60  1  0
 15 61  1  0
 16 17  1  0
 32 16  1  1
 17 18  1  0
 17 62  1  0
 17 63  1  0
 18 19  2  0
 18 31  1  0
 19 20  1  0
 19 64  1  0
 20 21  2  0
 20 65  1  0
 21 22  1  0
 21 30  1  0
 22 23  1  0
 23 24  2  0
 23 29  1  0
 24 25  1  0
 24 66  1  0
 25 26  2  0
 25 67  1  0
 26 27  1  0
 26 28  1  0
 28 29  2  0
 28 68  1  0
 29 69  1  0
 30 31  2  0
 30 70  1  0
 31 71  1  0
 32 33  2  0
 32 34  2  0
 32 35  1  0
 35 36  2  0
 35 42  1  0
 36 37  1  0
 36 72  1  0
 37 38  1  0
 37 39  2  0
 39 40  1  0
 39 73  1  0
 40 41  1  0
 40 42  2  0
 42 43  1  0
 43 74  1  0
 44 75  1  0
M  END

