
     RDKit          3D

 42 45  0  0  0  0  0  0  0  0999 V2000
    1.1822   -0.1836   -0.4072 C   0  0  0  0  0  0  0  0  0  0  0  0
    2.6476   -0.1100   -0.0666 C   0  0  0  0  0  0  0  0  0  0  0  0
    3.1536    1.1140    0.0715 N   0  0  0  0  0  0  0  0  0  0  0  0
    4.4553    1.2772    0.3826 C   0  0  0  0  0  0  0  0  0  0  0  0
    4.9414    2.6715    0.5164 C   0  0  1  0  0  0  0  0  0  0  0  0
    6.0129    3.0029    1.5427 C   0  0  0  0  0  0  0  0  0  0  0  0
    6.3584    3.0223    0.0913 C   0  0  0  0  0  0  0  0  0  0  0  0
    5.3230    0.2791    0.5766 N   0  0  0  0  0  0  0  0  0  0  0  0
    4.8270   -0.9393    0.4355 C   0  0  0  0  0  0  0  0  0  0  0  0
    5.7848   -2.3829    0.6665 S   0  0  0  0  0  0  0  0  0  0  0  0
    4.3837   -3.4002    0.2954 C   0  0  0  0  0  0  0  0  0  0  0  0
    4.5275   -4.8864    0.2969 C   0  0  0  0  0  0  0  0  0  0  0  0
    3.5900   -5.6393    0.5086 O   0  0  0  0  0  0  0  0  0  0  0  0
    5.8098   -5.3333    0.0299 N   0  0  0  0  0  0  0  0  0  0  0  0
    6.2934   -6.6513    0.0109 C   0  0  0  0  0  0  0  0  0  0  0  0
    5.5030   -7.7796    0.3120 C   0  0  0  0  0  0  0  0  0  0  0  0
    6.0704   -9.0560    0.2767 C   0  0  0  0  0  0  0  0  0  0  0  0
    7.4118   -9.2509   -0.0545 C   0  0  0  0  0  0  0  0  0  0  0  0
    8.1734   -8.1211   -0.3506 C   0  0  0  0  0  0  0  0  0  0  0  0
    9.6006   -8.2859   -0.7075 N   0  0  0  0  0  0  0  0  0  0  0  0
   10.0489   -9.4198   -0.7252 O   0  0  0  0  0  0  0  0  0  0  0  0
   10.2396   -7.2773   -0.9626 O   0  0  0  0  0  0  0  0  0  0  0  0
    7.6454   -6.8343   -0.3241 C   0  0  0  0  0  0  0  0  0  0  0  0
    3.2363   -2.6791    0.0347 C   0  0  0  0  0  0  0  0  0  0  0  0
    1.9058   -3.2901   -0.3104 C   0  0  0  0  0  0  0  0  0  0  0  0
    3.4814   -1.2501    0.1107 C   0  0  0  0  0  0  0  0  0  0  0  0
    0.7825    0.8372   -0.4479 H   0  0  0  0  0  0  0  0  0  0  0  0
    0.6195   -0.7605    0.3424 H   0  0  0  0  0  0  0  0  0  0  0  0
    1.0182   -0.6684   -1.3821 H   0  0  0  0  0  0  0  0  0  0  0  0
    4.1586    3.4112    0.3398 H   0  0  0  0  0  0  0  0  0  0  0  0
    6.3847    2.1659    2.1395 H   0  0  0  0  0  0  0  0  0  0  0  0
    5.9119    3.9511    2.0779 H   0  0  0  0  0  0  0  0  0  0  0  0
    6.9644    2.1987   -0.2950 H   0  0  0  0  0  0  0  0  0  0  0  0
    6.5031    3.9846   -0.4076 H   0  0  0  0  0  0  0  0  0  0  0  0
    6.4893   -4.6276   -0.2345 H   0  0  0  0  0  0  0  0  0  0  0  0
    4.4552   -7.6390    0.5643 H   0  0  0  0  0  0  0  0  0  0  0  0
    5.4435   -9.9189    0.5133 H   0  0  0  0  0  0  0  0  0  0  0  0
    7.8709  -10.2378   -0.0886 H   0  0  0  0  0  0  0  0  0  0  0  0
    8.2985   -5.9943   -0.5640 H   0  0  0  0  0  0  0  0  0  0  0  0
    1.9738   -4.3810   -0.3585 H   0  0  0  0  0  0  0  0  0  0  0  0
    1.5327   -2.9039   -1.2711 H   0  0  0  0  0  0  0  0  0  0  0  0
    1.1538   -3.0385    0.4545 H   0  0  0  0  0  0  0  0  0  0  0  0
  1  2  1  0
  1 27  1  0
  1 28  1  0
  1 29  1  0
  2  3  2  0
  2 26  1  0
  3  4  1  0
  4  5  1  0
  4  8  2  0
  5  6  1  0
  5  7  1  0
  5 30  1  6
  6  7  1  0
  6 31  1  0
  6 32  1  0
  7 33  1  0
  7 34  1  0
  8  9  1  0
  9 10  2  0
  9 26  1  0
 10 11  1  0
 11 12  2  0
 11 24  1  0
 12 13  1  0
 12 14  1  0
 14 15  1  0
 14 35  1  0
 15 16  2  0
 15 23  1  0
 16 17  1  0
 16 36  1  0
 17 18  2  0
 17 37  1  0
 18 19  1  0
 18 38  1  0
 19 20  1  0
 19 23  2  0
 20 21  2  0
 20 22  1  0
 23 39  1  0
 24 25  1  0
 24 26  2  0
 25 40  1  0
 25 41  1  0
 25 42  1  0
M  CHG  4  10   1  13  -1  20   1  22  -1
M  END

