
     RDKit          3D

 22 23  0  0  0  0  0  0  0  0999 V2000
    1.1434   -0.1407   -0.8610 F   0  0  0  0  0  0  0  0  0  0  0  0
    2.4023   -0.0684   -0.4298 C   0  0  0  0  0  0  0  0  0  0  0  0
    3.0762    1.1509   -0.4283 C   0  0  0  0  0  0  0  0  0  0  0  0
    4.3983    1.2152    0.0298 C   0  0  0  0  0  0  0  0  0  0  0  0
    5.1290    2.5390   -0.0085 C   0  0  1  0  0  0  0  0  0  0  0  0
    5.8978    2.9027    1.6281 Cl  0  0  0  0  0  0  0  0  0  0  0  0
    6.1633    2.6330   -1.0942 C   0  0  0  0  0  0  0  0  0  0  0  0
    6.4424    1.7283   -2.0885 C   0  0  0  0  0  0  0  0  0  0  0  0
    7.4373    2.1913   -3.0041 C   0  0  0  0  0  0  0  0  0  0  0  0
    8.0401    1.1691   -4.4702 Br  0  0  0  0  0  0  0  0  0  0  0  0
    7.9028    3.4467   -2.6934 C   0  0  0  0  0  0  0  0  0  0  0  0
    9.1023    4.3604   -3.5132 Cl  0  0  0  0  0  0  0  0  0  0  0  0
    7.1324    4.0789   -1.2641 S   0  0  0  0  0  0  0  0  0  0  0  0
    5.0329    0.0514    0.4884 C   0  0  0  0  0  0  0  0  0  0  0  0
    4.3432   -1.1549    0.4821 C   0  0  0  0  0  0  0  0  0  0  0  0
    4.9275   -2.2694    0.9197 F   0  0  0  0  0  0  0  0  0  0  0  0
    3.0230   -1.2339    0.0235 C   0  0  0  0  0  0  0  0  0  0  0  0
    2.3731   -2.3925    0.0274 F   0  0  0  0  0  0  0  0  0  0  0  0
    2.5478    2.0356   -0.7887 H   0  0  0  0  0  0  0  0  0  0  0  0
    4.3955    3.3484   -0.1252 H   0  0  0  0  0  0  0  0  0  0  0  0
    5.9523    0.7607   -2.1849 H   0  0  0  0  0  0  0  0  0  0  0  0
    6.0534    0.0747    0.8728 H   0  0  0  0  0  0  0  0  0  0  0  0
  1  2  1  0
  2  3  2  0
  2 17  1  0
  3  4  1  0
  3 19  1  0
  4  5  1  0
  4 14  2  0
  5  6  1  0
  5  7  1  0
  5 20  1  6
  7  8  2  0
  7 13  1  0
  8  9  1  0
  8 21  1  0
  9 10  1  0
  9 11  2  0
 11 12  1  0
 11 13  1  0
 14 15  1  0
 14 22  1  0
 15 16  1  0
 15 17  2  0
 17 18  1  0
M  END

