
     RDKit          3D

 31 33  0  0  0  0  0  0  0  0999 V2000
    2.4686    0.3906    2.7903 S   0  0  0  0  0  0  0  0  0  0  0  0
    3.4205    0.2185    1.2972 C   0  0  0  0  0  0  0  0  0  0  0  0
    3.5578    1.2484    0.3517 C   0  0  0  0  0  0  0  0  0  0  0  0
    4.3225    1.0384   -0.7971 C   0  0  0  0  0  0  0  0  0  0  0  0
    4.9435   -0.1900   -1.0313 C   0  0  0  0  0  0  0  0  0  0  0  0
    4.8083   -1.2178   -0.0872 C   0  0  0  0  0  0  0  0  0  0  0  0
    5.4717   -2.4598   -0.3025 N   0  0  0  0  0  0  0  0  0  0  0  0
    6.8334   -2.5499   -0.5296 C   0  0  0  0  0  0  0  0  0  0  0  0
    7.1935   -3.8799   -0.5449 C   0  0  0  0  0  0  0  0  0  0  0  0
    6.0105   -4.6339   -0.3183 C   0  0  0  0  0  0  0  0  0  0  0  0
    4.9505   -3.7475   -0.1708 C   0  0  0  0  0  0  0  0  0  0  0  0
    3.5230   -4.0692   -0.0146 C   0  0  0  0  0  0  0  0  0  0  0  0
    3.1402   -5.1552    0.7981 C   0  0  0  0  0  0  0  0  0  0  0  0
    1.8039   -5.5329    0.9273 C   0  0  0  0  0  0  0  0  0  0  0  0
    0.8179   -4.8145    0.2456 C   0  0  0  0  0  0  0  0  0  0  0  0
   -0.8625   -5.2735    0.4095 Cl  0  0  0  0  0  0  0  0  0  0  0  0
    1.1660   -3.7318   -0.5668 C   0  0  0  0  0  0  0  0  0  0  0  0
    2.5067   -3.3701   -0.6962 C   0  0  0  0  0  0  0  0  0  0  0  0
    4.0584   -1.0118    1.0766 C   0  0  0  0  0  0  0  0  0  0  0  0
    2.1667    1.6989    2.6364 H   0  0  0  0  0  0  0  0  0  0  0  0
    3.0686    2.2121    0.5105 H   0  0  0  0  0  0  0  0  0  0  0  0
    4.4238    1.8437   -1.5289 H   0  0  0  0  0  0  0  0  0  0  0  0
    5.5198   -0.3627   -1.9418 H   0  0  0  0  0  0  0  0  0  0  0  0
    7.4347   -1.6477   -0.6108 H   0  0  0  0  0  0  0  0  0  0  0  0
    8.1982   -4.2669   -0.7030 H   0  0  0  0  0  0  0  0  0  0  0  0
    5.9171   -5.7181   -0.3189 H   0  0  0  0  0  0  0  0  0  0  0  0
    3.9060   -5.7047    1.3501 H   0  0  0  0  0  0  0  0  0  0  0  0
    1.5217   -6.3740    1.5629 H   0  0  0  0  0  0  0  0  0  0  0  0
    0.3891   -3.1841   -1.1028 H   0  0  0  0  0  0  0  0  0  0  0  0
    2.7653   -2.5397   -1.3553 H   0  0  0  0  0  0  0  0  0  0  0  0
    3.9826   -1.8134    1.8130 H   0  0  0  0  0  0  0  0  0  0  0  0
  1  2  1  0
  1 20  1  0
  2  3  2  0
  2 19  1  0
  3  4  1  0
  3 21  1  0
  4  5  2  0
  4 22  1  0
  5  6  1  0
  5 23  1  0
  6  7  1  0
  6 19  2  0
  7  8  1  0
  7 11  1  0
  8  9  2  0
  8 24  1  0
  9 10  1  0
  9 25  1  0
 10 11  2  0
 10 26  1  0
 11 12  1  0
 12 13  2  0
 12 18  1  0
 13 14  1  0
 13 27  1  0
 14 15  2  0
 14 28  1  0
 15 16  1  0
 15 17  1  0
 17 18  2  0
 17 29  1  0
 18 30  1  0
 19 31  1  0
M  END

