
     RDKit          3D

 46 49  0  0  0  0  0  0  0  0999 V2000
    1.2502    0.9155   -2.3484 C   0  0  0  0  0  0  0  0  0  0  0  0
    2.6042    0.5703   -1.7788 C   0  0  0  0  0  0  0  0  0  0  0  0
    2.7420    0.0090   -0.5008 C   0  0  0  0  0  0  0  0  0  0  0  0
    3.9979   -0.3048    0.0239 C   0  0  0  0  0  0  0  0  0  0  0  0
    5.1560   -0.0814   -0.7315 C   0  0  0  0  0  0  0  0  0  0  0  0
    6.4319   -0.4172   -0.1860 N   0  0  0  0  0  0  0  0  0  0  0  0
    6.8528   -1.7350   -0.0183 C   0  0  0  0  0  0  0  0  0  0  0  0
    6.1058   -2.8774   -0.0559 C   0  0  0  0  0  0  0  0  0  0  0  0
    6.6681   -4.2008   -0.0718 C   0  0  0  0  0  0  0  0  0  0  0  0
    7.8940   -4.5870   -0.5592 C   0  0  0  0  0  0  0  0  0  0  0  0
    8.8570   -3.7208   -1.1951 C   0  0  0  0  0  0  0  0  0  0  0  0
    9.0241   -2.3995   -0.9389 C   0  0  0  0  0  0  0  0  0  0  0  0
    8.3425   -1.7697    0.2476 C   0  0  1  0  0  0  0  0  0  0  0  0
    8.5533   -2.3707    1.1483 H   0  0  0  0  0  0  0  0  0  0  0  0
    8.6759   -0.2602    0.5193 C   0  0  2  0  0  0  0  0  0  0  0  0
   10.0314    0.1429    0.1175 C   0  0  0  0  0  0  0  0  0  0  0  0
   11.0848    0.4712   -0.2338 N   0  0  0  0  0  0  0  0  0  0  0  0
    8.4976    0.0162    1.9572 C   0  0  0  0  0  0  0  0  0  0  0  0
    8.3470    0.2036    3.0898 N   0  0  0  0  0  0  0  0  0  0  0  0
    7.5793    0.4759   -0.3527 C   0  0  2  0  0  0  0  0  0  0  0  0
    7.9672    0.4193   -1.3898 H   0  0  0  0  0  0  0  0  0  0  0  0
    7.3395    1.9298   -0.0162 C   0  0  0  0  0  0  0  0  0  0  0  0
    7.9962    2.9216   -0.7595 C   0  0  0  0  0  0  0  0  0  0  0  0
    7.8364    4.2745   -0.4563 C   0  0  0  0  0  0  0  0  0  0  0  0
    7.0000    4.6414    0.6011 C   0  0  0  0  0  0  0  0  0  0  0  0
    6.7817    6.3313    0.9837 Cl  0  0  0  0  0  0  0  0  0  0  0  0
    6.3325    3.6699    1.3534 C   0  0  0  0  0  0  0  0  0  0  0  0
    6.5070    2.3213    1.0435 C   0  0  0  0  0  0  0  0  0  0  0  0
    5.0330    0.4767   -2.0126 C   0  0  0  0  0  0  0  0  0  0  0  0
    3.7753    0.8019   -2.5195 C   0  0  0  0  0  0  0  0  0  0  0  0
    0.4479    0.7500   -1.6147 H   0  0  0  0  0  0  0  0  0  0  0  0
    1.0233    0.3023   -3.2371 H   0  0  0  0  0  0  0  0  0  0  0  0
    1.2058    1.9701   -2.6664 H   0  0  0  0  0  0  0  0  0  0  0  0
    1.8507   -0.1742    0.1056 H   0  0  0  0  0  0  0  0  0  0  0  0
    4.0860   -0.7172    1.0312 H   0  0  0  0  0  0  0  0  0  0  0  0
    5.0183   -2.7981   -0.1111 H   0  0  0  0  0  0  0  0  0  0  0  0
    5.9869   -5.0065    0.2241 H   0  0  0  0  0  0  0  0  0  0  0  0
    8.0954   -5.6620   -0.6039 H   0  0  0  0  0  0  0  0  0  0  0  0
    9.4850   -4.1731   -1.9711 H   0  0  0  0  0  0  0  0  0  0  0  0
    9.6986   -1.7973   -1.5543 H   0  0  0  0  0  0  0  0  0  0  0  0
    8.6483    2.6371   -1.5898 H   0  0  0  0  0  0  0  0  0  0  0  0
    8.3512    5.0420   -1.0361 H   0  0  0  0  0  0  0  0  0  0  0  0
    5.6831    3.9718    2.1764 H   0  0  0  0  0  0  0  0  0  0  0  0
    5.9864    1.5669    1.6347 H   0  0  0  0  0  0  0  0  0  0  0  0
    5.9216    0.6583   -2.6204 H   0  0  0  0  0  0  0  0  0  0  0  0
    3.7022    1.2411   -3.5186 H   0  0  0  0  0  0  0  0  0  0  0  0
  1  2  1  0
  1 31  1  0
  1 32  1  0
  1 33  1  0
  2  3  2  0
  2 30  1  0
  3  4  1  0
  3 34  1  0
  4  5  2  0
  4 35  1  0
  5  6  1  0
  5 29  1  0
  6  7  1  0
  6 20  1  0
  7  8  2  0
  7 13  1  0
  8  9  1  0
  8 36  1  0
  9 10  2  0
  9 37  1  0
 10 11  1  0
 10 38  1  0
 11 12  2  0
 11 39  1  0
 12 13  1  0
 12 40  1  0
 13 14  1  1
 13 15  1  0
 15 16  1  6
 15 18  1  0
 15 20  1  0
 16 17  3  0
 18 19  3  0
 20 21  1  6
 20 22  1  0
 22 23  2  0
 22 28  1  0
 23 24  1  0
 23 41  1  0
 24 25  2  0
 24 42  1  0
 25 26  1  0
 25 27  1  0
 27 28  2  0
 27 43  1  0
 28 44  1  0
 29 30  2  0
 29 45  1  0
 30 46  1  0
M  END

