
     RDKit          3D

 53 56  0  0  0  0  0  0  0  0999 V2000
    3.4856   -0.1015    1.0640 O   0  0  0  0  0  0  0  0  0  0  0  0
    3.6686   -0.0848   -0.1498 C   0  0  0  0  0  0  0  0  0  0  0  0
    3.3438    1.1792   -0.9566 C   0  0  1  0  0  0  0  0  0  0  0  0
    1.8348    1.2165   -1.3196 C   0  0  0  0  0  0  0  0  0  0  0  0
    0.9106    1.4246   -0.1179 C   0  0  0  0  0  0  0  0  0  0  0  0
    1.2536    3.0237    0.6732 S   0  0  2  0  0  0  0  0  0  0  0  0
    0.4949    3.1170    1.9264 O   0  0  0  0  0  0  0  0  0  0  0  0
    1.1190    4.0616   -0.3670 O   0  0  0  0  0  0  0  0  0  0  0  0
    3.0176    2.8382    1.0404 C   0  0  0  0  0  0  0  0  0  0  0  0
    3.8043    2.4630   -0.2195 C   0  0  0  0  0  0  0  0  0  0  0  0
    4.1469   -1.1948   -0.8086 N   0  0  0  0  0  0  0  0  0  0  0  0
    4.4641   -2.3945   -0.0341 C   0  0  0  0  0  0  0  0  0  0  0  0
    3.6332   -3.5993   -0.4859 C   0  0  0  0  0  0  0  0  0  0  0  0
    3.7252   -3.7724   -1.9256 N   0  0  0  0  0  0  0  0  0  0  0  0
    3.6459   -5.0172   -2.5385 C   0  0  0  0  0  0  0  0  0  0  0  0
    3.4673   -6.2203   -1.8084 C   0  0  0  0  0  0  0  0  0  0  0  0
    3.4466   -7.4295   -2.4949 C   0  0  0  0  0  0  0  0  0  0  0  0
    3.5850   -7.4153   -3.8811 C   0  0  0  0  0  0  0  0  0  0  0  0
    3.5651   -8.5579   -4.5823 F   0  0  0  0  0  0  0  0  0  0  0  0
    3.7312   -6.1952   -4.5327 C   0  0  0  0  0  0  0  0  0  0  0  0
    3.7621   -5.0369   -3.8761 N   0  0  0  0  0  0  0  0  0  0  0  0
    3.4156   -2.5689   -2.6812 C   0  0  0  0  0  0  0  0  0  0  0  0
    4.2952   -1.3803   -2.2603 C   0  0  2  0  0  0  0  0  0  0  0  0
    5.7688   -1.4779   -2.6755 C   0  0  0  0  0  0  0  0  0  0  0  0
    6.2274   -2.4075   -3.6224 C   0  0  0  0  0  0  0  0  0  0  0  0
    7.5665   -2.4239   -4.0243 C   0  0  0  0  0  0  0  0  0  0  0  0
    8.4535   -1.5044   -3.4735 C   0  0  0  0  0  0  0  0  0  0  0  0
    9.7379   -1.5175   -3.8556 F   0  0  0  0  0  0  0  0  0  0  0  0
    8.0342   -0.5730   -2.5259 C   0  0  0  0  0  0  0  0  0  0  0  0
    6.6949   -0.5703   -2.1341 C   0  0  0  0  0  0  0  0  0  0  0  0
    3.8996    1.1687   -1.9039 H   0  0  0  0  0  0  0  0  0  0  0  0
    1.5476    0.2832   -1.8328 H   0  0  0  0  0  0  0  0  0  0  0  0
    1.6644    2.0392   -2.0321 H   0  0  0  0  0  0  0  0  0  0  0  0
    1.0291    0.6612    0.6641 H   0  0  0  0  0  0  0  0  0  0  0  0
   -0.1482    1.4879   -0.4113 H   0  0  0  0  0  0  0  0  0  0  0  0
    3.0939    2.0774    1.8265 H   0  0  0  0  0  0  0  0  0  0  0  0
    3.3163    3.8219    1.4340 H   0  0  0  0  0  0  0  0  0  0  0  0
    4.8678    2.3656    0.0545 H   0  0  0  0  0  0  0  0  0  0  0  0
    3.7337    3.3003   -0.9319 H   0  0  0  0  0  0  0  0  0  0  0  0
    4.2724   -2.1701    1.0215 H   0  0  0  0  0  0  0  0  0  0  0  0
    5.5350   -2.6266   -0.1611 H   0  0  0  0  0  0  0  0  0  0  0  0
    2.5780   -3.4682   -0.1658 H   0  0  0  0  0  0  0  0  0  0  0  0
    4.0272   -4.4870    0.0259 H   0  0  0  0  0  0  0  0  0  0  0  0
    3.3293   -6.2195   -0.7283 H   0  0  0  0  0  0  0  0  0  0  0  0
    3.3102   -8.3780   -1.9707 H   0  0  0  0  0  0  0  0  0  0  0  0
    3.8271   -6.1696   -5.6242 H   0  0  0  0  0  0  0  0  0  0  0  0
    2.3600   -2.2748   -2.5042 H   0  0  0  0  0  0  0  0  0  0  0  0
    3.5200   -2.7859   -3.7481 H   0  0  0  0  0  0  0  0  0  0  0  0
    3.8662   -0.5034   -2.7630 H   0  0  0  0  0  0  0  0  0  0  0  0
    5.5501   -3.1465   -4.0540 H   0  0  0  0  0  0  0  0  0  0  0  0
    7.9301   -3.1474   -4.7566 H   0  0  0  0  0  0  0  0  0  0  0  0
    8.7555    0.1316   -2.1075 H   0  0  0  0  0  0  0  0  0  0  0  0
    6.3700    0.1509   -1.3806 H   0  0  0  0  0  0  0  0  0  0  0  0
  1  2  2  0
  2  3  1  0
  2 11  1  0
  3  4  1  0
  3 10  1  0
  3 31  1  6
  4  5  1  0
  4 32  1  0
  4 33  1  0
  6  5  1  6
  5 34  1  0
  5 35  1  0
  6  7  2  0
  6  8  2  0
  6  9  1  0
  9 10  1  0
  9 36  1  0
  9 37  1  0
 10 38  1  0
 10 39  1  0
 11 12  1  0
 11 23  1  0
 12 13  1  0
 12 40  1  0
 12 41  1  0
 13 14  1  0
 13 42  1  0
 13 43  1  0
 14 15  1  0
 14 22  1  0
 15 16  2  0
 15 21  1  0
 16 17  1  0
 16 44  1  0
 17 18  2  0
 17 45  1  0
 18 19  1  0
 18 20  1  0
 20 21  2  0
 20 46  1  0
 22 23  1  0
 22 47  1  0
 22 48  1  0
 23 24  1  0
 23 49  1  6
 24 25  2  0
 24 30  1  0
 25 26  1  0
 25 50  1  0
 26 27  2  0
 26 51  1  0
 27 28  1  0
 27 29  1  0
 29 30  2  0
 29 52  1  0
 30 53  1  0
M  END

