
     RDKit          3D

 39 39  0  0  0  0  0  0  0  0999 V2000
    2.1555   -0.2285    1.0305 C   0  0  0  0  0  0  0  0  0  0  0  0
    3.2742    0.0927    0.6963 C   0  0  0  0  0  0  0  0  0  0  0  0
    4.6169    0.5116    0.2862 C   0  0  0  0  0  0  0  0  0  0  0  0
    4.8853    0.2113   -1.1137 N   0  0  0  0  0  0  0  0  0  0  0  0
    6.1933    0.6502   -1.5699 C   0  0  0  0  0  0  0  0  0  0  0  0
    6.4694    0.2440   -3.0046 C   0  0  0  0  0  0  0  0  0  0  0  0
    7.2384    1.0628   -3.8339 C   0  0  0  0  0  0  0  0  0  0  0  0
    7.5291    0.6466   -5.1379 C   0  0  0  0  0  0  0  0  0  0  0  0
    8.4992    1.6688   -6.1716 Cl  0  0  0  0  0  0  0  0  0  0  0  0
    7.0466   -0.5636   -5.6516 C   0  0  0  0  0  0  0  0  0  0  0  0
    7.2683   -0.9114   -6.9450 O   0  0  0  0  0  0  0  0  0  0  0  0
    8.2793   -1.8914   -7.1892 C   0  0  0  0  0  0  0  0  0  0  0  0
    8.3682   -2.1156   -8.6891 C   0  0  0  0  0  0  0  0  0  0  0  0
    9.4326   -3.1435   -9.0716 C   0  0  0  0  0  0  0  0  0  0  0  0
    6.2658   -1.3894   -4.8017 C   0  0  0  0  0  0  0  0  0  0  0  0
    5.8280   -2.5417   -5.3682 O   0  0  0  0  0  0  0  0  0  0  0  0
    4.9906   -3.4392   -4.6471 C   0  0  0  0  0  0  0  0  0  0  0  0
    5.7704   -4.3815   -3.7397 C   0  0  0  0  0  0  0  0  0  0  0  0
    5.9861   -0.9808   -3.4929 C   0  0  0  0  0  0  0  0  0  0  0  0
    1.1664   -0.5204    1.3296 H   0  0  0  0  0  0  0  0  0  0  0  0
    5.3634   -0.0197    0.9057 H   0  0  0  0  0  0  0  0  0  0  0  0
    4.7390    1.5914    0.5367 H   0  0  0  0  0  0  0  0  0  0  0  0
    4.1522    0.6048   -1.7034 H   0  0  0  0  0  0  0  0  0  0  0  0
    6.9482    0.1806   -0.9096 H   0  0  0  0  0  0  0  0  0  0  0  0
    6.3516    1.7471   -1.4675 H   0  0  0  0  0  0  0  0  0  0  0  0
    7.6225    2.0218   -3.4818 H   0  0  0  0  0  0  0  0  0  0  0  0
    8.0245   -2.8310   -6.6673 H   0  0  0  0  0  0  0  0  0  0  0  0
    9.2464   -1.5297   -6.7907 H   0  0  0  0  0  0  0  0  0  0  0  0
    8.5765   -1.1455   -9.1712 H   0  0  0  0  0  0  0  0  0  0  0  0
    7.3757   -2.4354   -9.0492 H   0  0  0  0  0  0  0  0  0  0  0  0
   10.4374   -2.8282   -8.7436 H   0  0  0  0  0  0  0  0  0  0  0  0
    9.4716   -3.2872  -10.1626 H   0  0  0  0  0  0  0  0  0  0  0  0
    9.2292   -4.1270   -8.6155 H   0  0  0  0  0  0  0  0  0  0  0  0
    4.4636   -4.0132   -5.4247 H   0  0  0  0  0  0  0  0  0  0  0  0
    4.2261   -2.8777   -4.0826 H   0  0  0  0  0  0  0  0  0  0  0  0
    6.5112   -4.9521   -4.3210 H   0  0  0  0  0  0  0  0  0  0  0  0
    5.0825   -5.0977   -3.2621 H   0  0  0  0  0  0  0  0  0  0  0  0
    6.3026   -3.8394   -2.9437 H   0  0  0  0  0  0  0  0  0  0  0  0
    5.3799   -1.5909   -2.8249 H   0  0  0  0  0  0  0  0  0  0  0  0
  1  2  3  0
  1 20  1  0
  2  3  1  0
  3  4  1  0
  3 21  1  0
  3 22  1  0
  4  5  1  0
  4 23  1  0
  5  6  1  0
  5 24  1  0
  5 25  1  0
  6  7  2  0
  6 19  1  0
  7  8  1  0
  7 26  1  0
  8  9  1  0
  8 10  2  0
 10 11  1  0
 10 15  1  0
 11 12  1  0
 12 13  1  0
 12 27  1  0
 12 28  1  0
 13 14  1  0
 13 29  1  0
 13 30  1  0
 14 31  1  0
 14 32  1  0
 14 33  1  0
 15 16  1  0
 15 19  2  0
 16 17  1  0
 17 18  1  0
 17 34  1  0
 17 35  1  0
 18 36  1  0
 18 37  1  0
 18 38  1  0
 19 39  1  0
M  END

