
     RDKit          3D

 56 58  0  0  0  0  0  0  0  0999 V2000
    4.4302    0.5112    3.7687 C   0  0  0  0  0  0  0  0  0  0  0  0
    3.0108    0.1692    3.3584 C   0  0  0  0  0  0  0  0  0  0  0  0
    2.1092    0.9740    3.4834 O   0  0  0  0  0  0  0  0  0  0  0  0
    2.7352   -1.1985    2.7894 C   0  0  0  0  0  0  0  0  0  0  0  0
    1.4156   -1.5133    2.4221 C   0  0  0  0  0  0  0  0  0  0  0  0
    1.1027   -2.7633    1.8881 C   0  0  0  0  0  0  0  0  0  0  0  0
    2.0998   -3.7281    1.7148 C   0  0  0  0  0  0  0  0  0  0  0  0
    3.4124   -3.4076    2.0765 C   0  0  0  0  0  0  0  0  0  0  0  0
    4.7183   -4.6404    1.9554 S   0  0  1  0  0  0  0  0  0  0  0  0
    5.9912   -3.9259    2.1184 O   0  0  0  0  0  0  0  0  0  0  0  0
    4.3878   -5.7711    2.8279 O   0  0  0  0  0  0  0  0  0  0  0  0
    4.5619   -5.2135    0.3741 N   0  0  0  0  0  0  0  0  0  0  0  0
    5.0641   -4.3645   -0.7104 C   0  0  0  0  0  0  0  0  0  0  0  0
    4.1131   -4.2985   -1.9096 C   0  0  0  0  0  0  0  0  0  0  0  0
    3.6167   -5.6546   -2.4359 C   0  0  0  0  0  0  0  0  0  0  0  0
    2.7490   -6.3640   -1.4928 N   0  0  0  0  0  0  0  0  0  0  0  0
    1.0999   -6.0642   -1.5133 S   0  0  1  0  0  0  0  0  0  0  0  0
    0.6193   -6.1904   -0.1297 O   0  0  0  0  0  0  0  0  0  0  0  0
    0.9211   -4.8101   -2.2565 O   0  0  0  0  0  0  0  0  0  0  0  0
    0.3297   -7.3566   -2.4345 C   0  0  0  0  0  0  0  0  0  0  0  0
   -0.0948   -8.6316   -1.9424 C   0  0  0  0  0  0  0  0  0  0  0  0
   -0.0359   -9.1944   -0.5567 C   0  0  0  0  0  0  0  0  0  0  0  0
   -0.6237   -9.3352   -2.9332 N   0  0  0  0  0  0  0  0  0  0  0  0
   -0.5498   -8.5585   -4.0355 N   0  0  0  0  0  0  0  0  0  0  0  0
   -1.0916   -9.0466   -5.2885 C   0  0  0  0  0  0  0  0  0  0  0  0
    0.0115   -7.3456   -3.7981 C   0  0  0  0  0  0  0  0  0  0  0  0
    0.1650   -6.3134   -4.8675 C   0  0  0  0  0  0  0  0  0  0  0  0
    3.3176   -7.2215   -0.4578 C   0  0  0  0  0  0  0  0  0  0  0  0
    4.6114   -6.6540    0.1482 C   0  0  0  0  0  0  0  0  0  0  0  0
    3.7414   -2.1606    2.6111 C   0  0  0  0  0  0  0  0  0  0  0  0
    4.4470    1.5356    4.1612 H   0  0  0  0  0  0  0  0  0  0  0  0
    5.1190    0.4357    2.9117 H   0  0  0  0  0  0  0  0  0  0  0  0
    4.7968   -0.1841    4.5410 H   0  0  0  0  0  0  0  0  0  0  0  0
    0.6498   -0.7481    2.5647 H   0  0  0  0  0  0  0  0  0  0  0  0
    0.0773   -2.9995    1.5948 H   0  0  0  0  0  0  0  0  0  0  0  0
    1.8467   -4.6975    1.2815 H   0  0  0  0  0  0  0  0  0  0  0  0
    6.0593   -4.7340   -1.0280 H   0  0  0  0  0  0  0  0  0  0  0  0
    5.2281   -3.3520   -0.3150 H   0  0  0  0  0  0  0  0  0  0  0  0
    4.6347   -3.7715   -2.7282 H   0  0  0  0  0  0  0  0  0  0  0  0
    3.2245   -3.7014   -1.6554 H   0  0  0  0  0  0  0  0  0  0  0  0
    4.4604   -6.3218   -2.6860 H   0  0  0  0  0  0  0  0  0  0  0  0
    3.0658   -5.4911   -3.3722 H   0  0  0  0  0  0  0  0  0  0  0  0
   -0.4942   -8.5051    0.1665 H   0  0  0  0  0  0  0  0  0  0  0  0
    1.0025   -9.3625   -0.2285 H   0  0  0  0  0  0  0  0  0  0  0  0
   -0.5634  -10.1576   -0.5385 H   0  0  0  0  0  0  0  0  0  0  0  0
   -1.3657  -10.0966   -5.1345 H   0  0  0  0  0  0  0  0  0  0  0  0
   -0.3448   -8.9783   -6.0941 H   0  0  0  0  0  0  0  0  0  0  0  0
   -1.9884   -8.4791   -5.5852 H   0  0  0  0  0  0  0  0  0  0  0  0
   -0.7837   -6.1593   -5.4067 H   0  0  0  0  0  0  0  0  0  0  0  0
    0.9212   -6.6142   -5.6130 H   0  0  0  0  0  0  0  0  0  0  0  0
    0.4662   -5.3592   -4.4206 H   0  0  0  0  0  0  0  0  0  0  0  0
    3.5380   -8.2344   -0.8498 H   0  0  0  0  0  0  0  0  0  0  0  0
    2.5669   -7.3246    0.3357 H   0  0  0  0  0  0  0  0  0  0  0  0
    5.4727   -6.8716   -0.5087 H   0  0  0  0  0  0  0  0  0  0  0  0
    4.7962   -7.1696    1.1005 H   0  0  0  0  0  0  0  0  0  0  0  0
    4.7813   -1.9643    2.8730 H   0  0  0  0  0  0  0  0  0  0  0  0
  1  2  1  0
  1 31  1  0
  1 32  1  0
  1 33  1  0
  2  3  2  0
  2  4  1  0
  4  5  2  0
  4 30  1  0
  5  6  1  0
  5 34  1  0
  6  7  2  0
  6 35  1  0
  7  8  1  0
  7 36  1  0
  9  8  1  6
  8 30  2  0
  9 10  2  0
  9 11  2  0
  9 12  1  0
 12 13  1  0
 12 29  1  0
 13 14  1  0
 13 37  1  0
 13 38  1  0
 14 15  1  0
 14 39  1  0
 14 40  1  0
 15 16  1  0
 15 41  1  0
 15 42  1  0
 16 17  1  0
 16 28  1  0
 17 18  2  0
 17 19  2  0
 17 20  1  6
 20 21  1  0
 20 26  2  0
 21 22  1  0
 21 23  2  0
 22 43  1  0
 22 44  1  0
 22 45  1  0
 23 24  1  0
 24 25  1  0
 24 26  1  0
 25 46  1  0
 25 47  1  0
 25 48  1  0
 26 27  1  0
 27 49  1  0
 27 50  1  0
 27 51  1  0
 28 29  1  0
 28 52  1  0
 28 53  1  0
 29 54  1  0
 29 55  1  0
 30 56  1  0
M  END

