
     RDKit          3D

 56 58  0  0  0  0  0  0  0  0999 V2000
    2.0252    0.1349   -0.5644 C   0  0  0  0  0  0  0  0  0  0  0  0
    2.4989    1.0501    0.5787 C   0  0  0  0  0  0  0  0  0  0  0  0
    3.7733    0.7668    1.2103 N   0  0  0  0  0  0  0  0  0  0  0  0
    3.8930   -0.3554    2.1222 C   0  0  0  0  0  0  0  0  0  0  0  0
    4.4903   -1.6203    1.4749 C   0  0  0  0  0  0  0  0  0  0  0  0
    5.7476   -1.3181    0.7841 N   0  0  0  0  0  0  0  0  0  0  0  0
    6.9822   -1.6767    1.3627 C   0  0  0  0  0  0  0  0  0  0  0  0
    7.9302   -0.6992    1.7332 C   0  0  0  0  0  0  0  0  0  0  0  0
    9.1605   -1.0354    2.2971 C   0  0  0  0  0  0  0  0  0  0  0  0
    9.4470   -2.3774    2.5201 C   0  0  0  0  0  0  0  0  0  0  0  0
   10.6158   -2.7225    3.0855 F   0  0  0  0  0  0  0  0  0  0  0  0
    8.5491   -3.3729    2.1507 C   0  0  0  0  0  0  0  0  0  0  0  0
    7.3251   -3.0470    1.5482 C   0  0  0  0  0  0  0  0  0  0  0  0
    6.4170   -4.1627    1.0475 C   0  0  1  0  0  0  0  0  0  0  0  0
    7.1498   -5.2144    0.1998 C   0  0  0  0  0  0  0  0  0  0  0  0
    5.7021   -4.7923    2.1665 N   0  0  0  0  0  0  0  0  0  0  0  0
    4.4468   -5.3055    2.0305 C   0  0  0  0  0  0  0  0  0  0  0  0
    3.8136   -5.2249    0.9868 O   0  0  0  0  0  0  0  0  0  0  0  0
    3.8203   -5.9845    3.2656 C   0  0  1  0  0  0  0  0  0  0  0  0
    3.2056   -7.3340    2.8584 C   0  0  0  0  0  0  0  0  0  0  0  0
    4.2887   -8.3362    2.4617 C   0  0  0  0  0  0  0  0  0  0  0  0
    5.4141   -8.3291    3.3950 N   0  0  0  0  0  0  0  0  0  0  0  0
    5.7992   -7.3045    4.2163 C   0  0  0  0  0  0  0  0  0  0  0  0
    6.8948   -7.2761    4.7522 O   0  0  0  0  0  0  0  0  0  0  0  0
    4.7519   -6.2198    4.4601 C   0  0  0  0  0  0  0  0  0  0  0  0
    5.6429   -0.1925   -0.1392 C   0  0  0  0  0  0  0  0  0  0  0  0
    5.0071    1.0562    0.5044 C   0  0  0  0  0  0  0  0  0  0  0  0
    1.0444    0.4723   -0.9406 H   0  0  0  0  0  0  0  0  0  0  0  0
    1.9133   -0.9098   -0.2333 H   0  0  0  0  0  0  0  0  0  0  0  0
    2.7271    0.1455   -1.4140 H   0  0  0  0  0  0  0  0  0  0  0  0
    1.7290    1.0491    1.3716 H   0  0  0  0  0  0  0  0  0  0  0  0
    2.5367    2.0893    0.2040 H   0  0  0  0  0  0  0  0  0  0  0  0
    2.9031   -0.5855    2.5498 H   0  0  0  0  0  0  0  0  0  0  0  0
    4.5503   -0.0639    2.9674 H   0  0  0  0  0  0  0  0  0  0  0  0
    3.7692   -2.0584    0.7607 H   0  0  0  0  0  0  0  0  0  0  0  0
    4.6796   -2.3751    2.2496 H   0  0  0  0  0  0  0  0  0  0  0  0
    7.6876    0.3556    1.5975 H   0  0  0  0  0  0  0  0  0  0  0  0
    9.8843   -0.2706    2.5858 H   0  0  0  0  0  0  0  0  0  0  0  0
    8.8425   -4.4130    2.3097 H   0  0  0  0  0  0  0  0  0  0  0  0
    5.6441   -3.7136    0.4127 H   0  0  0  0  0  0  0  0  0  0  0  0
    7.8892   -5.7797    0.7884 H   0  0  0  0  0  0  0  0  0  0  0  0
    7.6740   -4.7355   -0.6415 H   0  0  0  0  0  0  0  0  0  0  0  0
    6.4179   -5.9266   -0.2103 H   0  0  0  0  0  0  0  0  0  0  0  0
    6.2217   -4.9412    3.0238 H   0  0  0  0  0  0  0  0  0  0  0  0
    3.0031   -5.3080    3.5690 H   0  0  0  0  0  0  0  0  0  0  0  0
    2.5222   -7.1905    2.0101 H   0  0  0  0  0  0  0  0  0  0  0  0
    2.6184   -7.7254    3.7054 H   0  0  0  0  0  0  0  0  0  0  0  0
    4.6454   -8.1018    1.4410 H   0  0  0  0  0  0  0  0  0  0  0  0
    3.8631   -9.3527    2.4214 H   0  0  0  0  0  0  0  0  0  0  0  0
    6.1504   -9.0135    3.2424 H   0  0  0  0  0  0  0  0  0  0  0  0
    5.2794   -5.3161    4.7980 H   0  0  0  0  0  0  0  0  0  0  0  0
    4.1472   -6.5484    5.3230 H   0  0  0  0  0  0  0  0  0  0  0  0
    5.0158   -0.5081   -0.9956 H   0  0  0  0  0  0  0  0  0  0  0  0
    6.6404    0.0394   -0.5417 H   0  0  0  0  0  0  0  0  0  0  0  0
    4.8170    1.8190   -0.2684 H   0  0  0  0  0  0  0  0  0  0  0  0
    5.7343    1.4978    1.2167 H   0  0  0  0  0  0  0  0  0  0  0  0
  1  2  1  0
  1 28  1  0
  1 29  1  0
  1 30  1  0
  2  3  1  0
  2 31  1  0
  2 32  1  0
  3  4  1  0
  3 27  1  0
  4  5  1  0
  4 33  1  0
  4 34  1  0
  5  6  1  0
  5 35  1  0
  5 36  1  0
  6  7  1  0
  6 26  1  0
  7  8  2  0
  7 13  1  0
  8  9  1  0
  8 37  1  0
  9 10  2  0
  9 38  1  0
 10 11  1  0
 10 12  1  0
 12 13  2  0
 12 39  1  0
 13 14  1  0
 14 15  1  0
 14 16  1  0
 14 40  1  6
 15 41  1  0
 15 42  1  0
 15 43  1  0
 16 17  1  0
 16 44  1  0
 17 18  2  0
 17 19  1  0
 19 20  1  0
 19 25  1  0
 19 45  1  1
 20 21  1  0
 20 46  1  0
 20 47  1  0
 21 22  1  0
 21 48  1  0
 21 49  1  0
 22 23  1  0
 22 50  1  0
 23 24  2  0
 23 25  1  0
 25 51  1  0
 25 52  1  0
 26 27  1  0
 26 53  1  0
 26 54  1  0
 27 55  1  0
 27 56  1  0
M  END

