
     RDKit          3D

 70 74  0  0  0  0  0  0  0  0999 V2000
    7.0082   -2.1115   -1.9601 C   0  0  0  0  0  0  0  0  0  0  0  0
    7.0180   -2.7961   -0.5911 C   0  0  0  0  0  0  0  0  0  0  0  0
    8.3934   -3.3217   -0.1528 C   0  0  0  0  0  0  0  0  0  0  0  0
    9.4226   -2.2754    0.1822 C   0  0  0  0  0  0  0  0  0  0  0  0
    9.2318   -0.9523    0.4936 C   0  0  0  0  0  0  0  0  0  0  0  0
   10.5378   -0.4012    0.8008 C   0  0  0  0  0  0  0  0  0  0  0  0
   11.4954   -1.3366    0.6513 N   0  0  0  0  0  0  0  0  0  0  0  0
   10.8712   -2.5054    0.3132 C   0  0  0  0  0  0  0  0  0  0  0  0
   11.4781   -3.7808    0.2483 C   0  0  0  0  0  0  0  0  0  0  0  0
   12.7832   -4.2185    0.5350 C   0  0  0  0  0  0  0  0  0  0  0  0
   13.9506   -3.4615    0.7474 C   0  0  0  0  0  0  0  0  0  0  0  0
   14.0418   -2.1309    0.4421 N   0  0  0  0  0  0  0  0  0  0  0  0
   13.1588   -1.5793    0.3216 H   0  0  0  0  0  0  0  0  0  0  0  0
   15.1631   -1.5827    0.9951 C   0  0  0  0  0  0  0  0  0  0  0  0
   15.8838   -2.6392    1.6275 C   0  0  0  0  0  0  0  0  0  0  0  0
   15.1797   -3.8222    1.4275 C   0  0  0  0  0  0  0  0  0  0  0  0
   15.5778   -5.1963    1.8825 C   0  0  0  0  0  0  0  0  0  0  0  0
   14.9807   -5.6161    3.2415 C   0  0  0  0  0  0  0  0  0  0  0  0
   13.5776   -5.7409    3.2337 O   0  0  0  0  0  0  0  0  0  0  0  0
   15.2879   -0.1642    0.9136 C   0  0  0  0  0  0  0  0  0  0  0  0
   15.5025    0.6163    2.0062 N   0  0  0  0  0  0  0  0  0  0  0  0
   14.9802    1.8185    1.6665 C   0  0  0  0  0  0  0  0  0  0  0  0
   14.5524    2.7598    2.6695 C   0  0  0  0  0  0  0  0  0  0  0  0
   13.2489    3.2049    2.7468 C   0  0  0  0  0  0  0  0  0  0  0  0
   12.1053    2.5712    2.1534 C   0  0  0  0  0  0  0  0  0  0  0  0
   12.0760    1.2708    1.7029 N   0  0  0  0  0  0  0  0  0  0  0  0
   12.8649    0.6354    1.7047 H   0  0  0  0  0  0  0  0  0  0  0  0
   10.8251    0.9068    1.2876 C   0  0  0  0  0  0  0  0  0  0  0  0
    9.9921    2.0402    1.4907 C   0  0  0  0  0  0  0  0  0  0  0  0
   10.7654    3.0688    2.0297 C   0  0  0  0  0  0  0  0  0  0  0  0
   10.2870    4.4317    2.4471 C   0  0  0  0  0  0  0  0  0  0  0  0
    9.8253    4.5085    3.9164 C   0  0  0  0  0  0  0  0  0  0  0  0
    9.3337    5.8993    4.3171 C   0  0  0  0  0  0  0  0  0  0  0  0
   14.6079    1.8833    0.2485 C   0  0  0  0  0  0  0  0  0  0  0  0
   14.2149    3.1065   -0.5297 C   0  0  0  0  0  0  0  0  0  0  0  0
   13.1023    2.8797   -1.5606 C   0  0  0  0  0  0  0  0  0  0  0  0
   12.8089    4.0472   -2.3002 O   0  0  0  0  0  0  0  0  0  0  0  0
   14.7814    0.6017   -0.2089 C   0  0  0  0  0  0  0  0  0  0  0  0
    5.9966   -1.7631   -2.2234 H   0  0  0  0  0  0  0  0  0  0  0  0
    7.3361   -2.8058   -2.7519 H   0  0  0  0  0  0  0  0  0  0  0  0
    7.6808   -1.2401   -1.9881 H   0  0  0  0  0  0  0  0  0  0  0  0
    6.3176   -3.6486   -0.6096 H   0  0  0  0  0  0  0  0  0  0  0  0
    6.6245   -2.1087    0.1782 H   0  0  0  0  0  0  0  0  0  0  0  0
    8.7898   -3.9840   -0.9431 H   0  0  0  0  0  0  0  0  0  0  0  0
    8.2594   -3.9742    0.7305 H   0  0  0  0  0  0  0  0  0  0  0  0
    8.2891   -0.4096    0.5334 H   0  0  0  0  0  0  0  0  0  0  0  0
   10.7735   -4.5933    0.0502 H   0  0  0  0  0  0  0  0  0  0  0  0
   12.8951   -5.2955    0.6830 H   0  0  0  0  0  0  0  0  0  0  0  0
   16.8487   -2.5263    2.1188 H   0  0  0  0  0  0  0  0  0  0  0  0
   16.6762   -5.2413    1.9682 H   0  0  0  0  0  0  0  0  0  0  0  0
   15.2843   -5.9479    1.1308 H   0  0  0  0  0  0  0  0  0  0  0  0
   15.3242   -4.9093    4.0229 H   0  0  0  0  0  0  0  0  0  0  0  0
   15.3774   -6.6101    3.5052 H   0  0  0  0  0  0  0  0  0  0  0  0
   13.1903   -4.8599    3.1373 H   0  0  0  0  0  0  0  0  0  0  0  0
   15.2559    3.0559    3.4567 H   0  0  0  0  0  0  0  0  0  0  0  0
   13.0199    4.0369    3.4204 H   0  0  0  0  0  0  0  0  0  0  0  0
    8.9310    2.0879    1.2519 H   0  0  0  0  0  0  0  0  0  0  0  0
    9.4485    4.7329    1.7959 H   0  0  0  0  0  0  0  0  0  0  0  0
   11.0829    5.1776    2.2807 H   0  0  0  0  0  0  0  0  0  0  0  0
   10.6561    4.1999    4.5748 H   0  0  0  0  0  0  0  0  0  0  0  0
    9.0256    3.7649    4.0769 H   0  0  0  0  0  0  0  0  0  0  0  0
   10.1267    6.6566    4.1976 H   0  0  0  0  0  0  0  0  0  0  0  0
    9.0079    5.9225    5.3690 H   0  0  0  0  0  0  0  0  0  0  0  0
    8.4792    6.2176    3.6966 H   0  0  0  0  0  0  0  0  0  0  0  0
   15.0933    3.5051   -1.0700 H   0  0  0  0  0  0  0  0  0  0  0  0
   13.9039    3.9035    0.1662 H   0  0  0  0  0  0  0  0  0  0  0  0
   12.2024    2.4737   -1.0582 H   0  0  0  0  0  0  0  0  0  0  0  0
   13.4200    2.1262   -2.2989 H   0  0  0  0  0  0  0  0  0  0  0  0
   12.4676    4.7101   -1.6858 H   0  0  0  0  0  0  0  0  0  0  0  0
   14.6231    0.2159   -1.2152 H   0  0  0  0  0  0  0  0  0  0  0  0
  1  2  1  0
  1 39  1  0
  1 40  1  0
  1 41  1  0
  2  3  1  0
  2 42  1  0
  2 43  1  0
  3  4  1  0
  3 44  1  0
  3 45  1  0
  4  5  2  0
  4  8  1  0
  5  6  1  0
  5 46  1  0
  6  7  2  0
  6 28  1  0
  7  8  1  0
  8  9  2  0
  9 10  1  0
  9 47  1  0
 10 11  2  0
 10 48  1  0
 11 12  1  0
 11 16  1  0
 12 13  1  0
 12 14  1  0
 14 15  1  0
 14 20  2  0
 15 16  2  0
 15 49  1  0
 16 17  1  0
 17 18  1  0
 17 50  1  0
 17 51  1  0
 18 19  1  0
 18 52  1  0
 18 53  1  0
 19 54  1  0
 20 21  1  0
 20 38  1  0
 21 22  2  0
 22 23  1  0
 22 34  1  0
 23 24  2  0
 23 55  1  0
 24 25  1  0
 24 56  1  0
 25 26  1  0
 25 30  2  0
 26 27  1  0
 26 28  1  0
 28 29  2  0
 29 30  1  0
 29 57  1  0
 30 31  1  0
 31 32  1  0
 31 58  1  0
 31 59  1  0
 32 33  1  0
 32 60  1  0
 32 61  1  0
 33 62  1  0
 33 63  1  0
 33 64  1  0
 34 35  1  0
 34 38  2  0
 35 36  1  0
 35 65  1  0
 35 66  1  0
 36 37  1  0
 36 67  1  0
 36 68  1  0
 37 69  1  0
 38 70  1  0
M  END

