
     RDKit          3D

 68 71  0  0  0  0  0  0  0  0999 V2000
    2.0958   -4.3851    0.8988 C   0  0  0  0  0  0  0  0  0  0  0  0
    3.2072   -3.7141    1.7088 C   0  0  0  0  0  0  0  0  0  0  0  0
    3.1175   -2.1733    1.7159 C   0  0  1  0  0  0  0  0  0  0  0  0
    2.0386   -1.6584    2.7079 C   0  0  0  0  0  0  0  0  0  0  0  0
    1.0986   -2.3660    3.0264 O   0  0  0  0  0  0  0  0  0  0  0  0
    2.1857   -0.3544    3.0840 N   0  0  0  0  0  0  0  0  0  0  0  0
    1.3158    0.4439    3.8518 C   0  0  0  0  0  0  0  0  0  0  0  0
    0.1107    0.0048    4.4170 C   0  0  0  0  0  0  0  0  0  0  0  0
   -0.6940    0.8801    5.1450 C   0  0  0  0  0  0  0  0  0  0  0  0
   -0.3117    2.2146    5.3245 C   0  0  0  0  0  0  0  0  0  0  0  0
   -1.1583    2.9987    6.0465 O   0  0  0  0  0  0  0  0  0  0  0  0
   -0.8347    4.3495    6.2653 C   0  0  0  0  0  0  0  0  0  0  0  0
    0.8945    2.6745    4.7680 C   0  0  0  0  0  0  0  0  0  0  0  0
    1.7012    1.7915    4.0410 C   0  0  0  0  0  0  0  0  0  0  0  0
    2.8904    2.1409    3.4673 O   0  0  0  0  0  0  0  0  0  0  0  0
    3.3498    3.4747    3.5598 C   0  0  0  0  0  0  0  0  0  0  0  0
    4.4177   -1.4878    1.8735 N   0  0  0  0  0  0  0  0  0  0  0  0
    4.8513   -0.5989    0.7912 C   0  0  0  0  0  0  0  0  0  0  0  0
    5.3926   -1.2889   -0.4514 C   0  0  0  0  0  0  0  0  0  0  0  0
    6.1827   -2.4433   -0.3823 C   0  0  0  0  0  0  0  0  0  0  0  0
    6.7169   -3.0181   -1.5396 C   0  0  0  0  0  0  0  0  0  0  0  0
    6.4820   -2.4615   -2.8047 C   0  0  0  0  0  0  0  0  0  0  0  0
    7.0506   -3.0792   -4.0587 C   0  0  0  0  0  0  0  0  0  0  0  0
    5.6867   -1.3051   -2.8696 C   0  0  0  0  0  0  0  0  0  0  0  0
    5.1501   -0.7322   -1.7167 C   0  0  0  0  0  0  0  0  0  0  0  0
    5.1320   -1.7233    3.0183 C   0  0  0  0  0  0  0  0  0  0  0  0
    4.6971   -2.4027    3.9355 O   0  0  0  0  0  0  0  0  0  0  0  0
    6.5289   -1.0871    3.1679 C   0  0  0  0  0  0  0  0  0  0  0  0
    6.4750    0.2141    3.8057 N   0  0  0  0  0  0  0  0  0  0  0  0
    6.7320    1.3406    3.0914 N   0  0  0  0  0  0  0  0  0  0  0  0
    6.6556    2.3682    3.8616 N   0  0  0  0  0  0  0  0  0  0  0  0
    6.3409    1.9415    5.1329 C   0  0  0  0  0  0  0  0  0  0  0  0
    6.1586    2.6574    6.3314 C   0  0  0  0  0  0  0  0  0  0  0  0
    5.8379    1.9253    7.4657 C   0  0  0  0  0  0  0  0  0  0  0  0
    5.6914    0.5137    7.4221 C   0  0  0  0  0  0  0  0  0  0  0  0
    5.8677   -0.2114    6.2506 C   0  0  0  0  0  0  0  0  0  0  0  0
    6.2058    0.5358    5.1091 C   0  0  0  0  0  0  0  0  0  0  0  0
    2.2203   -5.4798    0.9075 H   0  0  0  0  0  0  0  0  0  0  0  0
    2.1123   -4.0596   -0.1559 H   0  0  0  0  0  0  0  0  0  0  0  0
    1.1093   -4.1493    1.3201 H   0  0  0  0  0  0  0  0  0  0  0  0
    4.1842   -3.9834    1.2771 H   0  0  0  0  0  0  0  0  0  0  0  0
    3.2015   -4.0781    2.7447 H   0  0  0  0  0  0  0  0  0  0  0  0
    2.7565   -1.8641    0.7205 H   0  0  0  0  0  0  0  0  0  0  0  0
    3.0322    0.1250    2.8004 H   0  0  0  0  0  0  0  0  0  0  0  0
   -0.1820   -1.0327    4.2728 H   0  0  0  0  0  0  0  0  0  0  0  0
   -1.6329    0.5413    5.5860 H   0  0  0  0  0  0  0  0  0  0  0  0
   -1.6512    4.7764    6.8638 H   0  0  0  0  0  0  0  0  0  0  0  0
   -0.7559    4.9166    5.3190 H   0  0  0  0  0  0  0  0  0  0  0  0
    0.1121    4.4646    6.8251 H   0  0  0  0  0  0  0  0  0  0  0  0
    1.2075    3.7072    4.8983 H   0  0  0  0  0  0  0  0  0  0  0  0
    4.3354    3.5017    3.0788 H   0  0  0  0  0  0  0  0  0  0  0  0
    3.4675    3.7881    4.6115 H   0  0  0  0  0  0  0  0  0  0  0  0
    2.6625    4.1731    3.0496 H   0  0  0  0  0  0  0  0  0  0  0  0
    5.5950    0.1108    1.1832 H   0  0  0  0  0  0  0  0  0  0  0  0
    3.9908    0.0274    0.5033 H   0  0  0  0  0  0  0  0  0  0  0  0
    6.3792   -2.9151    0.5836 H   0  0  0  0  0  0  0  0  0  0  0  0
    7.3270   -3.9218   -1.4550 H   0  0  0  0  0  0  0  0  0  0  0  0
    7.6671   -3.9614   -3.8322 H   0  0  0  0  0  0  0  0  0  0  0  0
    7.6798   -2.3601   -4.6093 H   0  0  0  0  0  0  0  0  0  0  0  0
    6.2494   -3.3969   -4.7470 H   0  0  0  0  0  0  0  0  0  0  0  0
    5.4781   -0.8487   -3.8418 H   0  0  0  0  0  0  0  0  0  0  0  0
    4.5310    0.1662   -1.8014 H   0  0  0  0  0  0  0  0  0  0  0  0
    7.0714   -0.9582    2.2244 H   0  0  0  0  0  0  0  0  0  0  0  0
    7.0971   -1.7751    3.8098 H   0  0  0  0  0  0  0  0  0  0  0  0
    6.2716    3.7429    6.3536 H   0  0  0  0  0  0  0  0  0  0  0  0
    5.6873    2.4410    8.4170 H   0  0  0  0  0  0  0  0  0  0  0  0
    5.4215   -0.0164    8.3387 H   0  0  0  0  0  0  0  0  0  0  0  0
    5.7186   -1.2908    6.2025 H   0  0  0  0  0  0  0  0  0  0  0  0
  1  2  1  0
  1 38  1  0
  1 39  1  0
  1 40  1  0
  2  3  1  0
  2 41  1  0
  2 42  1  0
  3  4  1  0
  3 17  1  0
  3 43  1  6
  4  5  2  0
  4  6  1  0
  6  7  1  0
  6 44  1  0
  7  8  2  0
  7 14  1  0
  8  9  1  0
  8 45  1  0
  9 10  2  0
  9 46  1  0
 10 11  1  0
 10 13  1  0
 11 12  1  0
 12 47  1  0
 12 48  1  0
 12 49  1  0
 13 14  2  0
 13 50  1  0
 14 15  1  0
 15 16  1  0
 16 51  1  0
 16 52  1  0
 16 53  1  0
 17 18  1  0
 17 26  1  0
 18 19  1  0
 18 54  1  0
 18 55  1  0
 19 20  2  0
 19 25  1  0
 20 21  1  0
 20 56  1  0
 21 22  2  0
 21 57  1  0
 22 23  1  0
 22 24  1  0
 23 58  1  0
 23 59  1  0
 23 60  1  0
 24 25  2  0
 24 61  1  0
 25 62  1  0
 26 27  2  0
 26 28  1  0
 28 29  1  0
 28 63  1  0
 28 64  1  0
 29 30  1  0
 29 37  1  0
 30 31  2  0
 31 32  1  0
 32 33  1  0
 32 37  2  0
 33 34  2  0
 33 65  1  0
 34 35  1  0
 34 66  1  0
 35 36  2  0
 35 67  1  0
 36 37  1  0
 36 68  1  0
M  END

