
     RDKit          3D

 39 40  0  0  0  0  0  0  0  0999 V2000
    0.6212   -0.4022    2.5901 C   0  0  0  0  0  0  0  0  0  0  0  0
    2.1479   -0.3744    2.6659 C   0  0  0  0  0  0  0  0  0  0  0  0
    2.8260   -0.4875    1.2877 C   0  0  0  0  0  0  0  0  0  0  0  0
    4.3366   -0.4443    1.3484 C   0  0  0  0  0  0  0  0  0  0  0  0
    5.0091    0.8033    1.5036 C   0  0  0  0  0  0  0  0  0  0  0  0
    6.3824    0.8706    1.5968 C   0  0  0  0  0  0  0  0  0  0  0  0
    7.1764   -0.3085    1.5400 C   0  0  0  0  0  0  0  0  0  0  0  0
    8.5943   -0.2893    1.6295 C   0  0  0  0  0  0  0  0  0  0  0  0
    9.3629   -1.4385    1.5686 C   0  0  0  0  0  0  0  0  0  0  0  0
   10.8883   -1.3643    1.6164 C   0  0  1  0  0  0  0  0  0  0  0  0
   11.4740   -1.2319    0.1959 C   0  0  0  0  0  0  0  0  0  0  0  0
   11.4321   -0.2557    2.5295 C   0  0  0  0  0  0  0  0  0  0  0  0
    8.6980   -2.7064    1.4123 C   0  0  0  0  0  0  0  0  0  0  0  0
    9.4763   -4.0009    1.3577 C   0  0  0  0  0  0  0  0  0  0  0  0
    7.3173   -2.7395    1.3245 C   0  0  0  0  0  0  0  0  0  0  0  0
    6.5171   -1.5670    1.3825 C   0  0  0  0  0  0  0  0  0  0  0  0
    5.0978   -1.5987    1.2906 C   0  0  0  0  0  0  0  0  0  0  0  0
    0.1665   -0.3220    3.5904 H   0  0  0  0  0  0  0  0  0  0  0  0
    0.2583   -1.3387    2.1339 H   0  0  0  0  0  0  0  0  0  0  0  0
    0.2337    0.4315    1.9804 H   0  0  0  0  0  0  0  0  0  0  0  0
    2.5081   -1.1970    3.3082 H   0  0  0  0  0  0  0  0  0  0  0  0
    2.4806    0.5568    3.1574 H   0  0  0  0  0  0  0  0  0  0  0  0
    2.4608    0.3330    0.6438 H   0  0  0  0  0  0  0  0  0  0  0  0
    2.5035   -1.4257    0.8048 H   0  0  0  0  0  0  0  0  0  0  0  0
    4.4180    1.7233    1.5429 H   0  0  0  0  0  0  0  0  0  0  0  0
    6.8797    1.8382    1.7109 H   0  0  0  0  0  0  0  0  0  0  0  0
    9.0782    0.6830    1.7493 H   0  0  0  0  0  0  0  0  0  0  0  0
   11.2518   -2.3185    2.0309 H   0  0  0  0  0  0  0  0  0  0  0  0
   11.1647   -0.2780   -0.2622 H   0  0  0  0  0  0  0  0  0  0  0  0
   11.1304   -2.0413   -0.4667 H   0  0  0  0  0  0  0  0  0  0  0  0
   12.5762   -1.2570    0.2190 H   0  0  0  0  0  0  0  0  0  0  0  0
   11.2194    0.7499    2.1322 H   0  0  0  0  0  0  0  0  0  0  0  0
   12.5272   -0.3396    2.6191 H   0  0  0  0  0  0  0  0  0  0  0  0
   11.0017   -0.3163    3.5413 H   0  0  0  0  0  0  0  0  0  0  0  0
   10.0351   -4.1833    2.2915 H   0  0  0  0  0  0  0  0  0  0  0  0
   10.2155   -4.0099    0.5400 H   0  0  0  0  0  0  0  0  0  0  0  0
    8.8018   -4.8558    1.2047 H   0  0  0  0  0  0  0  0  0  0  0  0
    6.8129   -3.7038    1.2090 H   0  0  0  0  0  0  0  0  0  0  0  0
    4.6049   -2.5683    1.1671 H   0  0  0  0  0  0  0  0  0  0  0  0
  1  2  1  0
  1 18  1  0
  1 19  1  0
  1 20  1  0
  2  3  1  0
  2 21  1  0
  2 22  1  0
  3  4  1  0
  3 23  1  0
  3 24  1  0
  4  5  2  0
  4 17  1  0
  5  6  1  0
  5 25  1  0
  6  7  2  0
  6 26  1  0
  7  8  1  0
  7 16  1  0
  8  9  2  0
  8 27  1  0
  9 10  1  0
  9 13  1  0
 10 11  1  0
 10 12  1  0
 10 28  1  1
 11 29  1  0
 11 30  1  0
 11 31  1  0
 12 32  1  0
 12 33  1  0
 12 34  1  0
 13 14  1  0
 13 15  2  0
 14 35  1  0
 14 36  1  0
 14 37  1  0
 15 16  1  0
 15 38  1  0
 16 17  2  0
 17 39  1  0
M  END

