
     RDKit          3D

101105  0  0  0  0  0  0  0  0999 V2000
   12.2466    3.8285    2.1702 C   0  0  0  0  0  0  0  0  0  0  0  0
   11.1122    2.8887    1.7592 C   0  0  0  0  0  0  0  0  0  0  0  0
   11.4365    2.0573    0.5153 C   0  0  0  0  0  0  0  0  0  0  0  0
   10.3090    1.1226    0.1047 C   0  0  0  0  0  0  0  0  0  0  0  0
   10.6996    0.4030   -1.0435 O   0  0  0  0  0  0  0  0  0  0  0  0
    9.7369   -0.4972   -1.5218 C   0  0  0  0  0  0  0  0  0  0  0  0
   10.3172   -1.1790   -2.7496 C   0  0  0  0  0  0  0  0  0  0  0  0
    9.3452   -2.0886   -3.2255 O   0  0  0  0  0  0  0  0  0  0  0  0
    9.6016   -2.8324   -4.3311 C   0  0  0  0  0  0  0  0  0  0  0  0
   10.7973   -2.7842   -5.0628 C   0  0  0  0  0  0  0  0  0  0  0  0
   10.9554   -3.5971   -6.1892 C   0  0  0  0  0  0  0  0  0  0  0  0
    9.9471   -4.4734   -6.6221 C   0  0  0  0  0  0  0  0  0  0  0  0
   10.1264   -5.3332   -7.8209 C   0  0  0  0  0  0  0  0  0  0  0  0
    9.5827   -6.6316   -7.8809 C   0  0  0  0  0  0  0  0  0  0  0  0
    9.7251   -7.4151   -9.0230 C   0  0  0  0  0  0  0  0  0  0  0  0
   10.4476   -6.9682  -10.1422 C   0  0  0  0  0  0  0  0  0  0  0  0
   11.0584   -5.6896  -10.0740 C   0  0  0  0  0  0  0  0  0  0  0  0
   10.8451   -4.8847   -8.9396 C   0  0  0  0  0  0  0  0  0  0  0  0
   11.9168   -5.1655  -11.1507 C   0  0  0  0  0  0  0  0  0  0  0  0
   12.9703   -5.7987  -11.7131 C   0  0  0  0  0  0  0  0  0  0  0  0
   13.6512   -5.0409  -12.8313 C   0  0  0  0  0  0  0  0  0  0  0  0
   13.3361   -3.9004  -13.1341 O   0  0  0  0  0  0  0  0  0  0  0  0
   14.6410   -5.7414  -13.4967 N   0  0  0  0  0  0  0  0  0  0  0  0
   15.4372   -5.3354  -14.5794 C   0  0  0  0  0  0  0  0  0  0  0  0
   15.3404   -4.0699  -15.1891 C   0  0  0  0  0  0  0  0  0  0  0  0
   16.1725   -3.7561  -16.2645 C   0  0  0  0  0  0  0  0  0  0  0  0
   17.1184   -4.6694  -16.7540 C   0  0  0  0  0  0  0  0  0  0  0  0
   18.1601   -4.2703  -18.1550 S   0  0  0  0  0  0  0  0  0  0  0  0
   19.5955   -3.4342  -17.2918 C   0  0  0  0  0  0  0  0  0  0  0  0
   20.5774   -2.9032  -18.2723 C   0  0  0  0  0  0  0  0  0  0  0  0
   21.8117   -3.3930  -18.6619 C   0  0  0  0  0  0  0  0  0  0  0  0
   22.3655   -2.6101  -19.6366 N   0  0  0  0  0  0  0  0  0  0  0  0
   21.4863   -1.6572  -19.8505 C   0  0  0  0  0  0  0  0  0  0  0  0
   20.3766   -1.7758  -19.0583 N   0  0  0  0  0  0  0  0  0  0  0  0
   19.2391   -0.8622  -19.0257 C   0  0  0  0  0  0  0  0  0  0  0  0
   19.3144    0.2099  -17.9290 C   0  0  0  0  0  0  0  0  0  0  0  0
   20.4823    1.1857  -18.0714 C   0  0  0  0  0  0  0  0  0  0  0  0
   17.2056   -5.9320  -16.1459 C   0  0  0  0  0  0  0  0  0  0  0  0
   16.3786   -6.2593  -15.0751 C   0  0  0  0  0  0  0  0  0  0  0  0
   13.4786   -7.1528  -11.2539 C   0  0  0  0  0  0  0  0  0  0  0  0
   12.8707   -8.3860  -11.9618 C   0  0  0  0  0  0  0  0  0  0  0  0
   11.5099   -8.8200  -11.3863 C   0  0  0  0  0  0  0  0  0  0  0  0
   10.4867   -7.7868  -11.3089 N   0  0  0  0  0  0  0  0  0  0  0  0
    9.9630   -7.2582  -12.5638 C   0  0  0  0  0  0  0  0  0  0  0  0
    9.0071   -8.2160  -13.3079 C   0  0  1  0  0  0  0  0  0  0  0  0
    7.7885   -8.5876  -12.4587 C   0  0  0  0  0  0  0  0  0  0  0  0
    8.5944   -7.5973  -14.6490 C   0  0  0  0  0  0  0  0  0  0  0  0
    8.7540   -4.5049   -5.8696 C   0  0  0  0  0  0  0  0  0  0  0  0
    8.5799   -3.7032   -4.7481 C   0  0  0  0  0  0  0  0  0  0  0  0
   11.9831    4.4119    3.0667 H   0  0  0  0  0  0  0  0  0  0  0  0
   12.4854    4.5436    1.3653 H   0  0  0  0  0  0  0  0  0  0  0  0
   13.1689    3.2678    2.3962 H   0  0  0  0  0  0  0  0  0  0  0  0
   10.1948    3.4780    1.5774 H   0  0  0  0  0  0  0  0  0  0  0  0
   10.8727    2.2124    2.6001 H   0  0  0  0  0  0  0  0  0  0  0  0
   12.3443    1.4529    0.6883 H   0  0  0  0  0  0  0  0  0  0  0  0
   11.6658    2.7214   -0.3365 H   0  0  0  0  0  0  0  0  0  0  0  0
    9.3831    1.7015   -0.1008 H   0  0  0  0  0  0  0  0  0  0  0  0
   10.0666    0.4228    0.9331 H   0  0  0  0  0  0  0  0  0  0  0  0
    8.7937    0.0192   -1.7959 H   0  0  0  0  0  0  0  0  0  0  0  0
    9.4783   -1.2627   -0.7612 H   0  0  0  0  0  0  0  0  0  0  0  0
   11.2533   -1.6999   -2.4770 H   0  0  0  0  0  0  0  0  0  0  0  0
   10.5636   -0.4204   -3.5150 H   0  0  0  0  0  0  0  0  0  0  0  0
   11.6141   -2.1281   -4.7618 H   0  0  0  0  0  0  0  0  0  0  0  0
   11.9050   -3.5598   -6.7282 H   0  0  0  0  0  0  0  0  0  0  0  0
    9.0333   -7.0294   -7.0246 H   0  0  0  0  0  0  0  0  0  0  0  0
    9.2571   -8.4010   -9.0733 H   0  0  0  0  0  0  0  0  0  0  0  0
   11.2707   -3.8781   -8.9345 H   0  0  0  0  0  0  0  0  0  0  0  0
   11.7197   -4.1496  -11.5108 H   0  0  0  0  0  0  0  0  0  0  0  0
   14.8183   -6.6842  -13.1761 H   0  0  0  0  0  0  0  0  0  0  0  0
   14.6111   -3.3556  -14.8157 H   0  0  0  0  0  0  0  0  0  0  0  0
   16.0800   -2.7768  -16.7402 H   0  0  0  0  0  0  0  0  0  0  0  0
   20.0901   -4.1772  -16.6510 H   0  0  0  0  0  0  0  0  0  0  0  0
   19.1763   -2.6499  -16.6434 H   0  0  0  0  0  0  0  0  0  0  0  0
   22.3150   -4.2803  -18.2767 H   0  0  0  0  0  0  0  0  0  0  0  0
   21.5848   -0.8463  -20.5737 H   0  0  0  0  0  0  0  0  0  0  0  0
   18.3266   -1.4665  -18.9096 H   0  0  0  0  0  0  0  0  0  0  0  0
   19.1815   -0.3813  -20.0156 H   0  0  0  0  0  0  0  0  0  0  0  0
   19.3553   -0.2820  -16.9420 H   0  0  0  0  0  0  0  0  0  0  0  0
   18.3593    0.7633  -17.9521 H   0  0  0  0  0  0  0  0  0  0  0  0
   21.4532    0.6681  -18.0198 H   0  0  0  0  0  0  0  0  0  0  0  0
   20.4656    1.9396  -17.2689 H   0  0  0  0  0  0  0  0  0  0  0  0
   20.4407    1.7238  -19.0335 H   0  0  0  0  0  0  0  0  0  0  0  0
   17.9265   -6.6615  -16.5217 H   0  0  0  0  0  0  0  0  0  0  0  0
   16.4600   -7.2490  -14.6149 H   0  0  0  0  0  0  0  0  0  0  0  0
   13.2964   -7.2445  -10.1709 H   0  0  0  0  0  0  0  0  0  0  0  0
   14.5772   -7.1779  -11.3529 H   0  0  0  0  0  0  0  0  0  0  0  0
   13.5596   -9.2424  -11.8580 H   0  0  0  0  0  0  0  0  0  0  0  0
   12.7859   -8.1936  -13.0455 H   0  0  0  0  0  0  0  0  0  0  0  0
   11.6663   -9.2100  -10.3671 H   0  0  0  0  0  0  0  0  0  0  0  0
   11.1314   -9.6687  -11.9831 H   0  0  0  0  0  0  0  0  0  0  0  0
   10.7719   -6.9615  -13.2608 H   0  0  0  0  0  0  0  0  0  0  0  0
    9.4139   -6.3310  -12.3336 H   0  0  0  0  0  0  0  0  0  0  0  0
    9.5639   -9.1460  -13.5298 H   0  0  0  0  0  0  0  0  0  0  0  0
    7.1784   -7.6952  -12.2345 H   0  0  0  0  0  0  0  0  0  0  0  0
    8.0940   -9.0320  -11.4998 H   0  0  0  0  0  0  0  0  0  0  0  0
    7.1420   -9.3107  -12.9821 H   0  0  0  0  0  0  0  0  0  0  0  0
    8.0323   -6.6598  -14.4959 H   0  0  0  0  0  0  0  0  0  0  0  0
    7.9476   -8.2808  -15.2220 H   0  0  0  0  0  0  0  0  0  0  0  0
    9.4698   -7.3601  -15.2757 H   0  0  0  0  0  0  0  0  0  0  0  0
    7.9342   -5.1545   -6.1850 H   0  0  0  0  0  0  0  0  0  0  0  0
    7.6500   -3.7238   -4.1762 H   0  0  0  0  0  0  0  0  0  0  0  0
  1  2  1  0
  1 50  1  0
  1 51  1  0
  1 52  1  0
  2  3  1  0
  2 53  1  0
  2 54  1  0
  3  4  1  0
  3 55  1  0
  3 56  1  0
  4  5  1  0
  4 57  1  0
  4 58  1  0
  5  6  1  0
  6  7  1  0
  6 59  1  0
  6 60  1  0
  7  8  1  0
  7 61  1  0
  7 62  1  0
  8  9  1  0
  9 10  2  0
  9 49  1  0
 10 11  1  0
 10 63  1  0
 11 12  2  0
 11 64  1  0
 12 13  1  0
 12 48  1  0
 13 14  2  0
 13 18  1  0
 14 15  1  0
 14 65  1  0
 15 16  2  0
 15 66  1  0
 16 17  1  0
 16 43  1  0
 17 18  2  0
 17 19  1  0
 18 67  1  0
 19 20  2  0
 19 68  1  0
 20 21  1  0
 20 40  1  0
 21 22  2  0
 21 23  1  0
 23 24  1  0
 23 69  1  0
 24 25  2  0
 24 39  1  0
 25 26  1  0
 25 70  1  0
 26 27  2  0
 26 71  1  0
 27 28  1  0
 27 38  1  0
 28 29  1  0
 29 30  1  0
 29 72  1  0
 29 73  1  0
 30 31  2  0
 30 34  1  0
 31 32  1  0
 31 74  1  0
 32 33  2  0
 33 34  1  0
 33 75  1  0
 34 35  1  0
 35 36  1  0
 35 76  1  0
 35 77  1  0
 36 37  1  0
 36 78  1  0
 36 79  1  0
 37 80  1  0
 37 81  1  0
 37 82  1  0
 38 39  2  0
 38 83  1  0
 39 84  1  0
 40 41  1  0
 40 85  1  0
 40 86  1  0
 41 42  1  0
 41 87  1  0
 41 88  1  0
 42 43  1  0
 42 89  1  0
 42 90  1  0
 43 44  1  0
 44 45  1  0
 44 91  1  0
 44 92  1  0
 45 46  1  0
 45 47  1  0
 45 93  1  6
 46 94  1  0
 46 95  1  0
 46 96  1  0
 47 97  1  0
 47 98  1  0
 47 99  1  0
 48 49  2  0
 48100  1  0
 49101  1  0
M  END

