
     RDKit          3D

 50 53  0  0  0  0  0  0  0  0999 V2000
    8.5175   -3.4419    6.8147 C   0  0  0  0  0  0  0  0  0  0  0  0
    7.9020   -2.1729    6.3076 C   0  0  0  0  0  0  0  0  0  0  0  0
    8.0035   -1.7343    5.0870 N   0  0  0  0  0  0  0  0  0  0  0  0
    7.3021   -0.5619    4.8822 C   0  0  0  0  0  0  0  0  0  0  0  0
    7.2957    0.0751    3.5470 C   0  0  0  0  0  0  0  0  0  0  0  0
    6.2833    0.9739    3.1635 C   0  0  0  0  0  0  0  0  0  0  0  0
    6.2976    1.5345    1.8872 C   0  0  0  0  0  0  0  0  0  0  0  0
    7.2975    1.2210    0.9625 C   0  0  0  0  0  0  0  0  0  0  0  0
    8.3137    0.3247    1.3358 C   0  0  0  0  0  0  0  0  0  0  0  0
    9.3544   -0.0699    0.4689 N   0  0  0  0  0  0  0  0  0  0  0  0
    9.4173    0.0654   -0.8955 C   0  0  0  0  0  0  0  0  0  0  0  0
    8.6431    0.7092   -1.5757 O   0  0  0  0  0  0  0  0  0  0  0  0
   10.6053   -0.6776   -1.5458 C   0  0  0  0  0  0  0  0  0  0  0  0
   10.6708   -2.1000   -1.2414 N   0  0  0  0  0  0  0  0  0  0  0  0
   10.3284   -3.1149   -2.1886 C   0  0  0  0  0  0  0  0  0  0  0  0
    9.9170   -2.9093   -3.3021 O   0  0  0  0  0  0  0  0  0  0  0  0
   10.5967   -4.2990   -1.5692 N   0  0  0  0  0  0  0  0  0  0  0  0
   11.0647   -4.1739   -0.1918 C   0  0  2  0  0  0  0  0  0  0  0  0
   12.4817   -4.7438    0.0232 C   0  0  0  0  0  0  0  0  0  0  0  0
   10.0650   -4.7694    0.8262 C   0  0  0  0  0  0  0  0  0  0  0  0
    9.6044   -4.0186    1.9200 C   0  0  0  0  0  0  0  0  0  0  0  0
    8.6991   -4.5147    2.8570 C   0  0  0  0  0  0  0  0  0  0  0  0
    8.2413   -5.8240    2.7218 C   0  0  0  0  0  0  0  0  0  0  0  0
    7.1184   -6.4853    3.8848 Cl  0  0  0  0  0  0  0  0  0  0  0  0
    8.6807   -6.6211    1.6630 C   0  0  0  0  0  0  0  0  0  0  0  0
    9.5814   -6.0907    0.7358 C   0  0  0  0  0  0  0  0  0  0  0  0
   10.0890   -7.1861   -0.5516 Cl  0  0  0  0  0  0  0  0  0  0  0  0
   11.1432   -2.6314   -0.0784 C   0  0  0  0  0  0  0  0  0  0  0  0
   11.5616   -1.9948    0.8742 O   0  0  0  0  0  0  0  0  0  0  0  0
    8.3050   -0.2336    2.6251 C   0  0  0  0  0  0  0  0  0  0  0  0
    6.6519   -0.0933    6.0035 C   0  0  0  0  0  0  0  0  0  0  0  0
    6.9189   -1.1519    7.3400 S   0  0  0  0  0  0  0  0  0  0  0  0
    9.5796   -3.4842    6.5283 H   0  0  0  0  0  0  0  0  0  0  0  0
    8.0180   -4.3186    6.3692 H   0  0  0  0  0  0  0  0  0  0  0  0
    8.4440   -3.5228    7.9082 H   0  0  0  0  0  0  0  0  0  0  0  0
    5.4687    1.2111    3.8506 H   0  0  0  0  0  0  0  0  0  0  0  0
    5.5034    2.2256    1.5932 H   0  0  0  0  0  0  0  0  0  0  0  0
    7.2953    1.6444   -0.0389 H   0  0  0  0  0  0  0  0  0  0  0  0
   10.1245   -0.5794    0.9027 H   0  0  0  0  0  0  0  0  0  0  0  0
   11.5522   -0.2074   -1.2326 H   0  0  0  0  0  0  0  0  0  0  0  0
   10.4827   -0.5794   -2.6306 H   0  0  0  0  0  0  0  0  0  0  0  0
   10.3695   -5.1837   -2.0059 H   0  0  0  0  0  0  0  0  0  0  0  0
   12.4756   -5.8385   -0.0626 H   0  0  0  0  0  0  0  0  0  0  0  0
   12.8383   -4.4628    1.0242 H   0  0  0  0  0  0  0  0  0  0  0  0
   13.1738   -4.3346   -0.7285 H   0  0  0  0  0  0  0  0  0  0  0  0
    9.9781   -3.0072    2.0615 H   0  0  0  0  0  0  0  0  0  0  0  0
    8.3624   -3.8685    3.6698 H   0  0  0  0  0  0  0  0  0  0  0  0
    8.3299   -7.6472    1.5558 H   0  0  0  0  0  0  0  0  0  0  0  0
    9.0885   -0.9316    2.9251 H   0  0  0  0  0  0  0  0  0  0  0  0
    6.0655    0.8159    6.1134 H   0  0  0  0  0  0  0  0  0  0  0  0
  1  2  1  0
  1 33  1  0
  1 34  1  0
  1 35  1  0
  2  3  2  0
  2 32  1  0
  3  4  1  0
  4  5  1  0
  4 31  2  0
  5  6  2  0
  5 30  1  0
  6  7  1  0
  6 36  1  0
  7  8  2  0
  7 37  1  0
  8  9  1  0
  8 38  1  0
  9 10  1  0
  9 30  2  0
 10 11  1  0
 10 39  1  0
 11 12  2  0
 11 13  1  0
 13 14  1  0
 13 40  1  0
 13 41  1  0
 14 15  1  0
 14 28  1  0
 15 16  2  0
 15 17  1  0
 17 18  1  0
 17 42  1  0
 18 19  1  6
 18 20  1  0
 18 28  1  0
 19 43  1  0
 19 44  1  0
 19 45  1  0
 20 21  2  0
 20 26  1  0
 21 22  1  0
 21 46  1  0
 22 23  2  0
 22 47  1  0
 23 24  1  0
 23 25  1  0
 25 26  2  0
 25 48  1  0
 26 27  1  0
 28 29  2  0
 30 49  1  0
 31 32  1  0
 31 50  1  0
M  END

