
     RDKit          3D

 37 38  0  0  0  0  0  0  0  0999 V2000
    1.2960   -0.3505    0.0183 C   0  0  0  0  0  0  0  0  0  0  0  0
    2.7535   -0.1918    0.0006 N   0  0  0  0  0  0  0  0  0  0  0  0
    3.5447   -1.3564   -0.0147 C   0  0  0  0  0  0  0  0  0  0  0  0
    3.0704   -2.4809   -0.0186 O   0  0  0  0  0  0  0  0  0  0  0  0
    4.9596   -1.0323   -0.0278 C   0  0  0  0  0  0  0  0  0  0  0  0
    5.4318    0.2782   -0.0318 C   0  0  0  0  0  0  0  0  0  0  0  0
    6.7753    0.3062   -0.0429 N   0  0  0  0  0  0  0  0  0  0  0  0
    7.1244   -0.9696   -0.0395 C   0  0  0  0  0  0  0  0  0  0  0  0
    8.5225   -1.3474   -0.0646 N   0  0  0  0  0  0  0  0  0  0  0  0
    8.7887   -2.5493    0.0746 O   0  0  0  0  0  0  0  0  0  0  0  0
    9.3391   -0.4718   -0.2288 O   0  0  0  0  0  0  0  0  0  0  0  0
    6.0729   -1.8473   -0.0268 N   0  0  0  0  0  0  0  0  0  0  0  0
    5.9965   -3.3290   -0.0103 C   0  0  0  0  0  0  0  0  0  0  0  0
    5.7399   -3.9491   -1.3893 C   0  0  0  0  0  0  0  0  0  0  0  0
    6.9316   -3.9887   -2.3313 C   0  0  0  0  0  0  0  0  0  0  0  0
    7.9186   -4.8384   -1.7221 O   0  0  0  0  0  0  0  0  0  0  0  0
    9.3918   -4.9582   -2.4216 S   0  0  1  0  0  0  0  0  0  0  0  0
   10.1047   -5.9001   -1.5916 O   0  0  0  0  0  0  0  0  0  0  0  0
    9.2403   -5.1087   -3.8525 O   0  0  0  0  0  0  0  0  0  0  0  0
    9.9589   -3.4624   -2.2017 O   0  0  0  0  0  0  0  0  0  0  0  0
    4.5838    1.3551   -0.0214 N   0  0  0  0  0  0  0  0  0  0  0  0
    5.0765    2.7318   -0.0284 C   0  0  0  0  0  0  0  0  0  0  0  0
    3.2049    1.1479   -0.0026 C   0  0  0  0  0  0  0  0  0  0  0  0
    2.4238    2.0745    0.0089 O   0  0  0  0  0  0  0  0  0  0  0  0
    1.0768   -1.4227    0.0180 H   0  0  0  0  0  0  0  0  0  0  0  0
    0.8537    0.1330   -0.8639 H   0  0  0  0  0  0  0  0  0  0  0  0
    0.8762    0.1277    0.9143 H   0  0  0  0  0  0  0  0  0  0  0  0
    5.1501   -3.5681    0.6436 H   0  0  0  0  0  0  0  0  0  0  0  0
    6.9235   -3.7092    0.4258 H   0  0  0  0  0  0  0  0  0  0  0  0
    4.8974   -3.4362   -1.8791 H   0  0  0  0  0  0  0  0  0  0  0  0
    5.4073   -4.9849   -1.2134 H   0  0  0  0  0  0  0  0  0  0  0  0
    7.3610   -2.9866   -2.5042 H   0  0  0  0  0  0  0  0  0  0  0  0
    6.6435   -4.4049   -3.3094 H   0  0  0  0  0  0  0  0  0  0  0  0
    9.9113   -3.2268   -1.2454 H   0  0  0  0  0  0  0  0  0  0  0  0
    6.1718    2.7010   -0.0372 H   0  0  0  0  0  0  0  0  0  0  0  0
    4.7197    3.2657    0.8637 H   0  0  0  0  0  0  0  0  0  0  0  0
    4.7060    3.2623   -0.9171 H   0  0  0  0  0  0  0  0  0  0  0  0
  1  2  1  0
  1 25  1  0
  1 26  1  0
  1 27  1  0
  2  3  1  0
  2 23  1  0
  3  4  2  0
  3  5  1  0
  5  6  1  0
  5 12  2  0
  6  7  1  0
  6 21  2  0
  7  8  2  0
  8  9  1  0
  8 12  1  0
  9 10  1  0
  9 11  1  0
 12 13  1  0
 13 14  1  0
 13 28  1  0
 13 29  1  0
 14 15  1  0
 14 30  1  0
 14 31  1  0
 15 16  1  0
 15 32  1  0
 15 33  1  0
 17 16  1  1
 17 18  2  0
 17 19  2  0
 17 20  1  0
 20 34  1  0
 21 22  1  0
 21 23  1  0
 22 35  1  0
 22 36  1  0
 22 37  1  0
 23 24  2  0
M  CHG  4  10  -1  11  -1  12   1  21   1
M  END

