
     RDKit          3D

 66 69  0  0  0  0  0  0  0  0999 V2000
    7.7287   -5.9745   -1.1292 C   0  0  0  0  0  0  0  0  0  0  0  0
    6.6467   -5.0492   -0.6278 C   0  0  0  0  0  0  0  0  0  0  0  0
    5.6514   -4.6703   -1.3572 N   0  0  0  0  0  0  0  0  0  0  0  0
    5.5619   -5.0869   -2.6445 N   0  0  0  0  0  0  0  0  0  0  0  0
    4.4525   -4.2246   -3.6247 S   0  0  1  0  0  0  0  0  0  0  0  0
    4.2641   -2.8768   -3.0883 O   0  0  0  0  0  0  0  0  0  0  0  0
    4.9948   -4.4433   -4.9709 O   0  0  0  0  0  0  0  0  0  0  0  0
    2.9115   -5.1359   -3.3894 C   0  0  0  0  0  0  0  0  0  0  0  0
    3.0451   -6.4555   -2.9576 C   0  0  0  0  0  0  0  0  0  0  0  0
    1.9268   -7.1937   -2.5924 C   0  0  0  0  0  0  0  0  0  0  0  0
    2.0943   -8.5722   -2.1347 N   0  0  0  0  0  0  0  0  0  0  0  0
    3.2266   -9.0365   -2.1227 O   0  0  0  0  0  0  0  0  0  0  0  0
    1.0895   -9.1794   -1.7921 O   0  0  0  0  0  0  0  0  0  0  0  0
    0.6544   -6.6130   -2.6283 C   0  0  0  0  0  0  0  0  0  0  0  0
    0.5128   -5.3160   -3.0818 C   0  0  0  0  0  0  0  0  0  0  0  0
    1.6148   -4.5289   -3.5392 C   0  0  0  0  0  0  0  0  0  0  0  0
    1.3811   -3.2956   -4.0879 N   0  0  0  0  0  0  0  0  0  0  0  0
    2.1989   -2.7208   -5.1524 C   0  0  0  0  0  0  0  0  0  0  0  0
    0.1304   -2.5780   -3.8188 C   0  0  0  0  0  0  0  0  0  0  0  0
   -0.0723   -2.1583   -2.3588 C   0  0  0  0  0  0  0  0  0  0  0  0
   -1.3349   -1.2991   -2.1990 C   0  0  0  0  0  0  0  0  0  0  0  0
   -1.7221   -1.1099   -0.8090 N   0  0  0  0  0  0  0  0  0  0  0  0
   -0.8766   -0.2094   -0.0189 C   0  0  0  0  0  0  0  0  0  0  0  0
   -1.2470    1.2636   -0.2104 C   0  0  0  0  0  0  0  0  0  0  0  0
   -2.6227    1.4856    0.0562 O   0  0  0  0  0  0  0  0  0  0  0  0
   -3.4569    0.6859   -0.7588 C   0  0  0  0  0  0  0  0  0  0  0  0
   -3.1319   -0.8009   -0.5776 C   0  0  0  0  0  0  0  0  0  0  0  0
    6.6976   -4.5113    0.7309 C   0  0  0  0  0  0  0  0  0  0  0  0
    7.5135   -4.8900    1.8212 C   0  0  0  0  0  0  0  0  0  0  0  0
    7.2901   -4.1696    2.9229 N   0  0  0  0  0  0  0  0  0  0  0  0
    6.3294   -3.3028    2.5752 N   0  0  0  0  0  0  0  0  0  0  0  0
    5.8021   -2.3588    3.4144 C   0  0  0  0  0  0  0  0  0  0  0  0
    4.8378   -1.5106    2.9470 C   0  0  0  0  0  0  0  0  0  0  0  0
    4.3932   -1.6138    1.5858 C   0  0  0  0  0  0  0  0  0  0  0  0
    3.3883   -0.7166    1.0938 C   0  0  0  0  0  0  0  0  0  0  0  0
    2.5712    0.0069    0.6972 N   0  0  0  0  0  0  0  0  0  0  0  0
    4.9285   -2.5793    0.7448 C   0  0  0  0  0  0  0  0  0  0  0  0
    5.9179   -3.4510    1.2483 C   0  0  0  0  0  0  0  0  0  0  0  0
    7.2885   -6.8984   -1.5402 H   0  0  0  0  0  0  0  0  0  0  0  0
    8.4385   -6.2528   -0.3414 H   0  0  0  0  0  0  0  0  0  0  0  0
    8.3119   -5.4983   -1.9382 H   0  0  0  0  0  0  0  0  0  0  0  0
    6.4018   -5.2909   -3.1969 H   0  0  0  0  0  0  0  0  0  0  0  0
    4.0274   -6.9112   -2.8581 H   0  0  0  0  0  0  0  0  0  0  0  0
   -0.2096   -7.1999   -2.3169 H   0  0  0  0  0  0  0  0  0  0  0  0
   -0.4905   -4.8992   -3.1336 H   0  0  0  0  0  0  0  0  0  0  0  0
    2.9255   -3.4485   -5.5301 H   0  0  0  0  0  0  0  0  0  0  0  0
    2.7498   -1.8288   -4.8180 H   0  0  0  0  0  0  0  0  0  0  0  0
    1.5428   -2.4463   -5.9958 H   0  0  0  0  0  0  0  0  0  0  0  0
   -0.7403   -3.1606   -4.1768 H   0  0  0  0  0  0  0  0  0  0  0  0
    0.1548   -1.6745   -4.4444 H   0  0  0  0  0  0  0  0  0  0  0  0
    0.8252   -1.6144   -2.0229 H   0  0  0  0  0  0  0  0  0  0  0  0
   -0.1726   -3.0377   -1.7037 H   0  0  0  0  0  0  0  0  0  0  0  0
   -2.1721   -1.8175   -2.6989 H   0  0  0  0  0  0  0  0  0  0  0  0
   -1.1944   -0.3487   -2.7635 H   0  0  0  0  0  0  0  0  0  0  0  0
    0.1866   -0.3661   -0.2482 H   0  0  0  0  0  0  0  0  0  0  0  0
   -1.0105   -0.4630    1.0482 H   0  0  0  0  0  0  0  0  0  0  0  0
   -1.0043    1.5942   -1.2430 H   0  0  0  0  0  0  0  0  0  0  0  0
   -0.6764    1.8995    0.4835 H   0  0  0  0  0  0  0  0  0  0  0  0
   -3.3453    0.9771   -1.8261 H   0  0  0  0  0  0  0  0  0  0  0  0
   -4.4967    0.8992   -0.4624 H   0  0  0  0  0  0  0  0  0  0  0  0
   -3.7622   -1.4181   -1.2395 H   0  0  0  0  0  0  0  0  0  0  0  0
   -3.3779   -1.0786    0.4641 H   0  0  0  0  0  0  0  0  0  0  0  0
    8.2648   -5.6785    1.8556 H   0  0  0  0  0  0  0  0  0  0  0  0
    6.2063   -2.3528    4.4266 H   0  0  0  0  0  0  0  0  0  0  0  0
    4.4129   -0.7577    3.6105 H   0  0  0  0  0  0  0  0  0  0  0  0
    4.6144   -2.6875   -0.2933 H   0  0  0  0  0  0  0  0  0  0  0  0
  1  2  1  0
  1 39  1  0
  1 40  1  0
  1 41  1  0
  2  3  2  0
  2 28  1  0
  3  4  1  0
  5  4  1  1
  4 42  1  0
  5  6  2  0
  5  7  2  0
  5  8  1  0
  8  9  2  0
  8 16  1  0
  9 10  1  0
  9 43  1  0
 10 11  1  0
 10 14  2  0
 11 12  2  0
 11 13  1  0
 14 15  1  0
 14 44  1  0
 15 16  2  0
 15 45  1  0
 16 17  1  0
 17 18  1  0
 17 19  1  0
 18 46  1  0
 18 47  1  0
 18 48  1  0
 19 20  1  0
 19 49  1  0
 19 50  1  0
 20 21  1  0
 20 51  1  0
 20 52  1  0
 21 22  1  0
 21 53  1  0
 21 54  1  0
 22 23  1  0
 22 27  1  0
 23 24  1  0
 23 55  1  0
 23 56  1  0
 24 25  1  0
 24 57  1  0
 24 58  1  0
 25 26  1  0
 26 27  1  0
 26 59  1  0
 26 60  1  0
 27 61  1  0
 27 62  1  0
 28 29  1  0
 28 38  2  0
 29 30  2  0
 29 63  1  0
 30 31  1  0
 31 32  1  0
 31 38  1  0
 32 33  2  0
 32 64  1  0
 33 34  1  0
 33 65  1  0
 34 35  1  0
 34 37  2  0
 35 36  3  0
 37 38  1  0
 37 66  1  0
M  CHG  2  11   1  13  -1
M  END

