
     RDKit          3D

 42 44  0  0  0  0  0  0  0  0999 V2000
    4.4927    3.0038    1.0939 C   0  0  0  0  0  0  0  0  0  0  0  0
    3.3259    3.5611    0.2807 C   0  0  0  0  0  0  0  0  0  0  0  0
    2.0455    2.7192    0.4076 C   0  0  1  0  0  0  0  0  0  0  0  0
    2.2400    1.6816    0.0955 H   0  0  0  0  0  0  0  0  0  0  0  0
    1.5493    2.6566    1.7623 N   0  0  0  0  0  0  0  0  0  0  0  0
    1.2705    1.4751    2.3802 C   0  0  0  0  0  0  0  0  0  0  0  0
    1.4567    0.3768    1.8719 O   0  0  0  0  0  0  0  0  0  0  0  0
    0.7151    1.6057    3.7755 C   0  0  0  0  0  0  0  0  0  0  0  0
    0.4252    0.4254    4.4058 C   0  0  0  0  0  0  0  0  0  0  0  0
   -0.1061    0.3276    5.6595 N   0  0  0  0  0  0  0  0  0  0  0  0
   -0.3551   -0.9719    6.2127 C   0  0  0  0  0  0  0  0  0  0  0  0
    0.6571   -1.8227    6.2433 N   0  0  0  0  0  0  0  0  0  0  0  0
    0.4785   -3.0543    6.7165 C   0  0  0  0  0  0  0  0  0  0  0  0
   -0.7640   -3.4681    7.2016 C   0  0  0  0  0  0  0  0  0  0  0  0
   -0.9103   -4.6985    7.6874 F   0  0  0  0  0  0  0  0  0  0  0  0
   -1.8548   -2.6023    7.1684 C   0  0  0  0  0  0  0  0  0  0  0  0
   -1.6414   -1.3329    6.6459 C   0  0  0  0  0  0  0  0  0  0  0  0
   -2.6558   -0.4838    6.5353 F   0  0  0  0  0  0  0  0  0  0  0  0
   -0.3297    1.4845    6.4084 C   0  0  0  0  0  0  0  0  0  0  0  0
   -0.7671    1.3313    7.6615 N   0  0  0  0  0  0  0  0  0  0  0  0
   -0.9832    2.4080    8.3802 C   0  0  0  0  0  0  0  0  0  0  0  0
   -1.5543    2.1748   10.0136 Cl  0  0  0  0  0  0  0  0  0  0  0  0
   -0.7799    3.7248    7.9184 C   0  0  0  0  0  0  0  0  0  0  0  0
   -0.3103    3.8742    6.6242 C   0  0  0  0  0  0  0  0  0  0  0  0
   -0.0658    2.7415    5.8264 C   0  0  0  0  0  0  0  0  0  0  0  0
    0.4695    2.8785    4.4533 C   0  0  0  0  0  0  0  0  0  0  0  0
    0.6860    3.9933    3.9661 O   0  0  0  0  0  0  0  0  0  0  0  0
    0.9420    3.2379   -0.5182 C   0  0  1  0  0  0  0  0  0  0  0  0
    1.3451    3.2418   -1.8021 F   0  0  0  0  0  0  0  0  0  0  0  0
   -0.1624    2.4827   -0.4437 F   0  0  0  0  0  0  0  0  0  0  0  0
    0.5874    4.5006   -0.2046 F   0  0  0  0  0  0  0  0  0  0  0  0
    5.3887    3.6317    0.9716 H   0  0  0  0  0  0  0  0  0  0  0  0
    4.7511    1.9807    0.7761 H   0  0  0  0  0  0  0  0  0  0  0  0
    4.2509    2.9680    2.1672 H   0  0  0  0  0  0  0  0  0  0  0  0
    3.5964    3.6107   -0.7859 H   0  0  0  0  0  0  0  0  0  0  0  0
    3.1021    4.5961    0.5919 H   0  0  0  0  0  0  0  0  0  0  0  0
    1.3297    3.5117    2.2840 H   0  0  0  0  0  0  0  0  0  0  0  0
    0.6191   -0.5139    3.8850 H   0  0  0  0  0  0  0  0  0  0  0  0
    1.3306   -3.7408    6.7235 H   0  0  0  0  0  0  0  0  0  0  0  0
   -2.8413   -2.9081    7.5198 H   0  0  0  0  0  0  0  0  0  0  0  0
   -0.9826    4.5756    8.5684 H   0  0  0  0  0  0  0  0  0  0  0  0
   -0.1141    4.8563    6.1885 H   0  0  0  0  0  0  0  0  0  0  0  0
  1  2  1  0
  1 32  1  0
  1 33  1  0
  1 34  1  0
  2  3  1  0
  2 35  1  0
  2 36  1  0
  3  4  1  6
  3  5  1  0
  3 28  1  0
  5  6  1  0
  5 37  1  0
  6  7  2  0
  6  8  1  0
  8  9  2  0
  8 26  1  0
  9 10  1  0
  9 38  1  0
 10 11  1  0
 10 19  1  0
 11 12  2  0
 11 17  1  0
 12 13  1  0
 13 14  2  0
 13 39  1  0
 14 15  1  0
 14 16  1  0
 16 17  2  0
 16 40  1  0
 17 18  1  0
 19 20  1  0
 19 25  2  0
 20 21  2  0
 21 22  1  0
 21 23  1  0
 23 24  2  0
 23 41  1  0
 24 25  1  0
 24 42  1  0
 25 26  1  0
 26 27  2  0
 28 29  1  6
 28 30  1  0
 28 31  1  0
M  END

