
     RDKit          3D

 51 51  0  0  0  0  0  0  0  0999 V2000
    1.2586   -4.5067   -1.3496 C   0  0  0  0  0  0  0  0  0  0  0  0
    2.6904   -3.9751   -1.2887 C   0  0  0  0  0  0  0  0  0  0  0  0
    2.8813   -2.6553   -2.0363 C   0  0  0  0  0  0  0  0  0  0  0  0
    4.2482   -2.1717   -1.9216 N   0  0  0  0  0  0  0  0  0  0  0  0
    4.5545   -0.9187   -2.6162 C   0  0  1  0  0  0  0  0  0  0  0  0
    3.9913    0.2778   -1.8403 C   0  0  0  0  0  0  0  0  0  0  0  0
    6.0766   -0.7795   -2.7809 C   0  0  0  0  0  0  0  0  0  0  0  0
    6.7430   -1.7200   -3.8158 C   0  0  1  0  0  0  0  0  0  0  0  0
    6.4996   -1.1887   -5.2312 C   0  0  0  0  0  0  0  0  0  0  0  0
    8.1751   -1.8557   -3.4868 N   0  0  0  0  0  0  0  0  0  0  0  0
    8.4497   -2.7467   -2.3560 C   0  0  0  0  0  0  0  0  0  0  0  0
    8.5327   -4.2317   -2.7630 C   0  0  0  0  0  0  0  0  0  0  0  0
    9.4907   -4.4806   -3.8412 N   0  0  0  0  0  0  0  0  0  0  0  0
   10.8833   -4.6133   -3.4200 C   0  0  0  0  0  0  0  0  0  0  0  0
   11.2055   -5.9949   -2.8311 C   0  0  0  0  0  0  0  0  0  0  0  0
   10.9974   -7.1453   -3.8154 C   0  0  0  0  0  0  0  0  0  0  0  0
    9.2374   -3.5821   -4.9662 C   0  0  0  0  0  0  0  0  0  0  0  0
    9.1506   -2.1027   -4.5490 C   0  0  0  0  0  0  0  0  0  0  0  0
    1.1598   -5.4588   -0.8047 H   0  0  0  0  0  0  0  0  0  0  0  0
    0.9368   -4.6847   -2.3895 H   0  0  0  0  0  0  0  0  0  0  0  0
    0.5464   -3.7933   -0.9019 H   0  0  0  0  0  0  0  0  0  0  0  0
    3.3815   -4.7298   -1.7094 H   0  0  0  0  0  0  0  0  0  0  0  0
    3.0031   -3.8279   -0.2410 H   0  0  0  0  0  0  0  0  0  0  0  0
    2.1978   -1.9023   -1.6068 H   0  0  0  0  0  0  0  0  0  0  0  0
    2.5578   -2.7828   -3.0972 H   0  0  0  0  0  0  0  0  0  0  0  0
    4.8794   -2.9029   -2.2453 H   0  0  0  0  0  0  0  0  0  0  0  0
    4.0859   -0.9070   -3.6284 H   0  0  0  0  0  0  0  0  0  0  0  0
    4.4593    0.3390   -0.8446 H   0  0  0  0  0  0  0  0  0  0  0  0
    2.9029    0.1975   -1.6965 H   0  0  0  0  0  0  0  0  0  0  0  0
    4.1851    1.2191   -2.3789 H   0  0  0  0  0  0  0  0  0  0  0  0
    6.5263   -0.9394   -1.7884 H   0  0  0  0  0  0  0  0  0  0  0  0
    6.3253    0.2571   -3.0626 H   0  0  0  0  0  0  0  0  0  0  0  0
    6.2355   -2.7104   -3.7634 H   0  0  0  0  0  0  0  0  0  0  0  0
    7.0258   -0.2332   -5.3894 H   0  0  0  0  0  0  0  0  0  0  0  0
    5.4249   -1.0048   -5.3773 H   0  0  0  0  0  0  0  0  0  0  0  0
    6.8168   -1.8948   -6.0128 H   0  0  0  0  0  0  0  0  0  0  0  0
    7.6805   -2.6153   -1.5792 H   0  0  0  0  0  0  0  0  0  0  0  0
    9.4075   -2.4391   -1.8966 H   0  0  0  0  0  0  0  0  0  0  0  0
    7.5368   -4.5752   -3.1005 H   0  0  0  0  0  0  0  0  0  0  0  0
    8.7912   -4.8510   -1.8893 H   0  0  0  0  0  0  0  0  0  0  0  0
   11.1961   -3.8332   -2.6916 H   0  0  0  0  0  0  0  0  0  0  0  0
   11.5155   -4.4608   -4.3114 H   0  0  0  0  0  0  0  0  0  0  0  0
   10.5935   -6.1629   -1.9270 H   0  0  0  0  0  0  0  0  0  0  0  0
   12.2525   -5.9776   -2.4793 H   0  0  0  0  0  0  0  0  0  0  0  0
    9.9647   -7.1449   -4.1957 H   0  0  0  0  0  0  0  0  0  0  0  0
   11.1944   -8.1218   -3.3448 H   0  0  0  0  0  0  0  0  0  0  0  0
   11.6706   -7.0522   -4.6848 H   0  0  0  0  0  0  0  0  0  0  0  0
    8.2826   -3.8822   -5.4393 H   0  0  0  0  0  0  0  0  0  0  0  0
   10.0243   -3.7236   -5.7257 H   0  0  0  0  0  0  0  0  0  0  0  0
    8.9438   -1.4656   -5.4196 H   0  0  0  0  0  0  0  0  0  0  0  0
   10.1392   -1.7835   -4.1679 H   0  0  0  0  0  0  0  0  0  0  0  0
  1  2  1  0
  1 19  1  0
  1 20  1  0
  1 21  1  0
  2  3  1  0
  2 22  1  0
  2 23  1  0
  3  4  1  0
  3 24  1  0
  3 25  1  0
  4  5  1  0
  4 26  1  0
  5  6  1  0
  5  7  1  0
  5 27  1  6
  6 28  1  0
  6 29  1  0
  6 30  1  0
  7  8  1  0
  7 31  1  0
  7 32  1  0
  8  9  1  0
  8 10  1  0
  8 33  1  6
  9 34  1  0
  9 35  1  0
  9 36  1  0
 10 11  1  0
 10 18  1  0
 11 12  1  0
 11 37  1  0
 11 38  1  0
 12 13  1  0
 12 39  1  0
 12 40  1  0
 13 14  1  0
 13 17  1  0
 14 15  1  0
 14 41  1  0
 14 42  1  0
 15 16  1  0
 15 43  1  0
 15 44  1  0
 16 45  1  0
 16 46  1  0
 16 47  1  0
 17 18  1  0
 17 48  1  0
 17 49  1  0
 18 50  1  0
 18 51  1  0
M  END

