
     RDKit          3D

 30 31  0  0  0  0  0  0  0  0999 V2000
    1.0318   -0.2088    0.3143 N   0  0  0  0  0  0  0  0  0  0  0  0
    2.3868   -0.1267    0.3709 C   0  0  0  0  0  0  0  0  0  0  0  0
    3.0666    1.0912    0.6024 C   0  0  0  0  0  0  0  0  0  0  0  0
    4.4540    1.0218    0.6159 C   0  0  0  0  0  0  0  0  0  0  0  0
    5.1438   -0.1061    0.4252 N   0  0  0  0  0  0  0  0  0  0  0  0
    4.3984   -1.1907    0.2165 C   0  0  0  0  0  0  0  0  0  0  0  0
    5.1019   -2.3187    0.0264 O   0  0  0  0  0  0  0  0  0  0  0  0
    4.4027   -3.5329   -0.2048 C   0  0  0  0  0  0  0  0  0  0  0  0
    5.4633   -4.6058   -0.3815 C   0  0  0  0  0  0  0  0  0  0  0  0
    4.7792   -5.8204   -0.6105 O   0  0  0  0  0  0  0  0  0  0  0  0
    5.4844   -6.9664   -0.8051 C   0  0  0  0  0  0  0  0  0  0  0  0
    6.8854   -7.0431   -0.7990 C   0  0  0  0  0  0  0  0  0  0  0  0
    7.5097   -8.2791   -1.0111 C   0  0  0  0  0  0  0  0  0  0  0  0
    6.7597   -9.4351   -1.2283 C   0  0  0  0  0  0  0  0  0  0  0  0
    5.3608   -9.3503   -1.2329 C   0  0  0  0  0  0  0  0  0  0  0  0
    4.7249   -8.1294   -1.0237 C   0  0  0  0  0  0  0  0  0  0  0  0
    3.0710   -1.2666    0.1807 N   0  0  0  0  0  0  0  0  0  0  0  0
    0.4504    0.5807    0.5534 H   0  0  0  0  0  0  0  0  0  0  0  0
    0.6115   -1.1247    0.2266 H   0  0  0  0  0  0  0  0  0  0  0  0
    2.5354    2.0311    0.7594 H   0  0  0  0  0  0  0  0  0  0  0  0
    5.0449    1.9294    0.7909 H   0  0  0  0  0  0  0  0  0  0  0  0
    3.7693   -3.4583   -1.1035 H   0  0  0  0  0  0  0  0  0  0  0  0
    3.7410   -3.7744    0.6429 H   0  0  0  0  0  0  0  0  0  0  0  0
    6.0937   -4.6653    0.5246 H   0  0  0  0  0  0  0  0  0  0  0  0
    6.1205   -4.3490   -1.2325 H   0  0  0  0  0  0  0  0  0  0  0  0
    7.4957   -6.1553   -0.6318 H   0  0  0  0  0  0  0  0  0  0  0  0
    8.6019   -8.3287   -1.0045 H   0  0  0  0  0  0  0  0  0  0  0  0
    7.2564  -10.3940   -1.3926 H   0  0  0  0  0  0  0  0  0  0  0  0
    4.7583  -10.2468   -1.4016 H   0  0  0  0  0  0  0  0  0  0  0  0
    3.6362   -8.0444   -1.0239 H   0  0  0  0  0  0  0  0  0  0  0  0
  1  2  1  0
  1 18  1  0
  1 19  1  0
  2  3  2  0
  2 17  1  0
  3  4  1  0
  3 20  1  0
  4  5  2  0
  4 21  1  0
  5  6  1  0
  6  7  1  0
  6 17  2  0
  7  8  1  0
  8  9  1  0
  8 22  1  0
  8 23  1  0
  9 10  1  0
  9 24  1  0
  9 25  1  0
 10 11  1  0
 11 12  2  0
 11 16  1  0
 12 13  1  0
 12 26  1  0
 13 14  2  0
 13 27  1  0
 14 15  1  0
 14 28  1  0
 15 16  2  0
 15 29  1  0
 16 30  1  0
M  END

