
     RDKit          3D

 34 34  0  0  0  0  0  0  0  0999 V2000
    2.2095    0.5402   -1.2621 C   0  0  0  0  0  0  0  0  0  0  0  0
    2.3933   -0.3035    0.0064 C   0  0  0  0  0  0  0  0  0  0  0  0
    2.9341    0.4009    1.1729 N   0  0  0  0  0  0  0  0  0  0  0  0
    2.0289    1.3679    1.7648 C   0  0  0  0  0  0  0  0  0  0  0  0
    4.3192    0.7375    1.1376 C   0  0  0  0  0  0  0  0  0  0  0  0
    4.7332    2.0672    0.9198 C   0  0  0  0  0  0  0  0  0  0  0  0
    6.0778    2.4527    0.8865 C   0  0  0  0  0  0  0  0  0  0  0  0
    6.5200    3.8737    0.6558 C   0  0  0  0  0  0  0  0  0  0  0  0
    7.0191    1.4350    1.0692 C   0  0  0  0  0  0  0  0  0  0  0  0
    8.3297    1.7536    1.0328 F   0  0  0  0  0  0  0  0  0  0  0  0
    6.6530    0.1174    1.3010 C   0  0  0  0  0  0  0  0  0  0  0  0
    5.3030   -0.2596    1.3583 C   0  0  0  0  0  0  0  0  0  0  0  0
    4.9429   -1.7000    1.7392 C   0  0  1  0  0  0  0  0  0  0  0  0
    3.8486   -1.7286    1.8496 H   0  0  0  0  0  0  0  0  0  0  0  0
    5.3518   -2.7126    0.6629 C   0  0  0  0  0  0  0  0  0  0  0  0
    5.4967   -2.1341    3.0255 N   0  0  0  0  0  0  0  0  0  0  0  0
    1.8137   -0.0842   -2.0797 H   0  0  0  0  0  0  0  0  0  0  0  0
    3.1671    0.9685   -1.5990 H   0  0  0  0  0  0  0  0  0  0  0  0
    1.5009    1.3699   -1.1095 H   0  0  0  0  0  0  0  0  0  0  0  0
    3.0545   -1.1522   -0.2232 H   0  0  0  0  0  0  0  0  0  0  0  0
    1.4237   -0.7418    0.3030 H   0  0  0  0  0  0  0  0  0  0  0  0
    1.0704    0.8728    1.9946 H   0  0  0  0  0  0  0  0  0  0  0  0
    1.7953    2.2480    1.1288 H   0  0  0  0  0  0  0  0  0  0  0  0
    2.4496    1.7436    2.7096 H   0  0  0  0  0  0  0  0  0  0  0  0
    3.9758    2.8377    0.7609 H   0  0  0  0  0  0  0  0  0  0  0  0
    5.6564    4.5401    0.5176 H   0  0  0  0  0  0  0  0  0  0  0  0
    7.1631    3.9542   -0.2361 H   0  0  0  0  0  0  0  0  0  0  0  0
    7.1131    4.2518    1.5051 H   0  0  0  0  0  0  0  0  0  0  0  0
    7.4493   -0.6129    1.4669 H   0  0  0  0  0  0  0  0  0  0  0  0
    4.9131   -2.4681   -0.3165 H   0  0  0  0  0  0  0  0  0  0  0  0
    5.0290   -3.7228    0.9570 H   0  0  0  0  0  0  0  0  0  0  0  0
    6.4477   -2.7322    0.5348 H   0  0  0  0  0  0  0  0  0  0  0  0
    5.2452   -1.4696    3.7580 H   0  0  0  0  0  0  0  0  0  0  0  0
    6.5176   -2.1442    2.9919 H   0  0  0  0  0  0  0  0  0  0  0  0
  1  2  1  0
  1 17  1  0
  1 18  1  0
  1 19  1  0
  2  3  1  0
  2 20  1  0
  2 21  1  0
  3  4  1  0
  3  5  1  0
  4 22  1  0
  4 23  1  0
  4 24  1  0
  5  6  2  0
  5 12  1  0
  6  7  1  0
  6 25  1  0
  7  8  1  0
  7  9  2  0
  8 26  1  0
  8 27  1  0
  8 28  1  0
  9 10  1  0
  9 11  1  0
 11 12  2  0
 11 29  1  0
 12 13  1  0
 13 14  1  1
 13 15  1  0
 13 16  1  0
 15 30  1  0
 15 31  1  0
 15 32  1  0
 16 33  1  0
 16 34  1  0
M  END

