
     RDKit          3D

 52 55  0  0  0  0  0  0  0  0999 V2000
    3.5774    1.5835    2.6596 C   0  0  0  0  0  0  0  0  0  0  0  0
    2.9638    0.2913    2.1484 C   0  0  0  0  0  0  0  0  0  0  0  0
    3.8588   -0.8260    2.3195 O   0  0  0  0  0  0  0  0  0  0  0  0
    4.7647   -1.0601    1.3521 C   0  0  0  0  0  0  0  0  0  0  0  0
    4.8554   -0.3922    0.3487 O   0  0  0  0  0  0  0  0  0  0  0  0
    5.6615   -2.2464    1.7042 C   0  0  1  0  0  0  0  0  0  0  0  0
    4.8554   -3.5112    2.0739 C   0  0  0  0  0  0  0  0  0  0  0  0
    4.2621   -4.1677    0.8247 C   0  0  0  0  0  0  0  0  0  0  0  0
    5.2977   -4.4643   -0.1655 N   0  0  0  0  0  0  0  0  0  0  0  0
    5.5339   -5.6760   -0.7382 C   0  0  0  0  0  0  0  0  0  0  0  0
    6.1957   -5.6853   -1.9102 N   0  0  0  0  0  0  0  0  0  0  0  0
    6.3654   -6.8387   -2.5369 C   0  0  0  0  0  0  0  0  0  0  0  0
    5.9172   -8.0340   -2.1629 N   0  0  0  0  0  0  0  0  0  0  0  0
    5.2914   -8.1007   -0.9740 C   0  0  0  0  0  0  0  0  0  0  0  0
    4.8426   -9.4590   -0.5377 C   0  0  0  0  0  0  0  0  0  0  0  0
    3.4882   -9.7164   -0.4032 C   0  0  0  0  0  0  0  0  0  0  0  0
    3.0167  -11.0095   -0.0782 C   0  0  0  0  0  0  0  0  0  0  0  0
    3.9078  -12.0386    0.1275 C   0  0  0  0  0  0  0  0  0  0  0  0
    5.3089  -11.8214    0.0145 C   0  0  0  0  0  0  0  0  0  0  0  0
    6.2408  -12.8737    0.2403 C   0  0  0  0  0  0  0  0  0  0  0  0
    7.5972  -12.6555    0.1365 C   0  0  0  0  0  0  0  0  0  0  0  0
    8.0804  -11.3668   -0.1994 C   0  0  0  0  0  0  0  0  0  0  0  0
    7.2051  -10.3256   -0.4283 C   0  0  0  0  0  0  0  0  0  0  0  0
    5.7965  -10.5142   -0.3311 C   0  0  0  0  0  0  0  0  0  0  0  0
    5.1189   -6.9394   -0.2035 C   0  0  0  0  0  0  0  0  0  0  0  0
    4.7337   -7.0521    1.2106 N   0  0  0  0  0  0  0  0  0  0  0  0
    3.6246   -7.4775    1.4929 O   0  0  0  0  0  0  0  0  0  0  0  0
    5.5762   -6.7033    2.0247 O   0  0  0  0  0  0  0  0  0  0  0  0
    6.0060   -3.2600   -0.6175 C   0  0  0  0  0  0  0  0  0  0  0  0
    6.6602   -2.5504    0.5755 C   0  0  0  0  0  0  0  0  0  0  0  0
    2.8420    2.4007    2.5876 H   0  0  0  0  0  0  0  0  0  0  0  0
    4.4567    1.8630    2.0605 H   0  0  0  0  0  0  0  0  0  0  0  0
    3.8809    1.4862    3.7136 H   0  0  0  0  0  0  0  0  0  0  0  0
    2.6989    0.3748    1.0842 H   0  0  0  0  0  0  0  0  0  0  0  0
    2.0667    0.0195    2.7234 H   0  0  0  0  0  0  0  0  0  0  0  0
    6.2130   -1.9235    2.6048 H   0  0  0  0  0  0  0  0  0  0  0  0
    4.0518   -3.2587    2.7805 H   0  0  0  0  0  0  0  0  0  0  0  0
    5.5201   -4.2350    2.5690 H   0  0  0  0  0  0  0  0  0  0  0  0
    3.5425   -3.4737    0.3470 H   0  0  0  0  0  0  0  0  0  0  0  0
    3.6835   -5.0603    1.0783 H   0  0  0  0  0  0  0  0  0  0  0  0
    6.9303   -6.8012   -3.4771 H   0  0  0  0  0  0  0  0  0  0  0  0
    2.7718   -8.9089   -0.5574 H   0  0  0  0  0  0  0  0  0  0  0  0
    1.9414  -11.1818    0.0097 H   0  0  0  0  0  0  0  0  0  0  0  0
    3.5505  -13.0398    0.3838 H   0  0  0  0  0  0  0  0  0  0  0  0
    5.8568  -13.8635    0.5020 H   0  0  0  0  0  0  0  0  0  0  0  0
    8.3019  -13.4718    0.3136 H   0  0  0  0  0  0  0  0  0  0  0  0
    9.1571  -11.1968   -0.2794 H   0  0  0  0  0  0  0  0  0  0  0  0
    7.5952   -9.3439   -0.6956 H   0  0  0  0  0  0  0  0  0  0  0  0
    5.2891   -2.5802   -1.1099 H   0  0  0  0  0  0  0  0  0  0  0  0
    6.7492   -3.5555   -1.3645 H   0  0  0  0  0  0  0  0  0  0  0  0
    7.1260   -1.6190    0.2215 H   0  0  0  0  0  0  0  0  0  0  0  0
    7.4597   -3.1937    0.9783 H   0  0  0  0  0  0  0  0  0  0  0  0
  1  2  1  0
  1 31  1  0
  1 32  1  0
  1 33  1  0
  2  3  1  0
  2 34  1  0
  2 35  1  0
  3  4  1  0
  4  5  2  0
  4  6  1  0
  6  7  1  0
  6 30  1  0
  6 36  1  1
  7  8  1  0
  7 37  1  0
  7 38  1  0
  8  9  1  0
  8 39  1  0
  8 40  1  0
  9 10  1  0
  9 29  1  0
 10 11  2  0
 10 25  1  0
 11 12  1  0
 12 13  2  0
 12 41  1  0
 13 14  1  0
 14 15  1  0
 14 25  2  0
 15 16  2  0
 15 24  1  0
 16 17  1  0
 16 42  1  0
 17 18  2  0
 17 43  1  0
 18 19  1  0
 18 44  1  0
 19 20  1  0
 19 24  2  0
 20 21  2  0
 20 45  1  0
 21 22  1  0
 21 46  1  0
 22 23  2  0
 22 47  1  0
 23 24  1  0
 23 48  1  0
 25 26  1  0
 26 27  2  0
 26 28  1  0
 29 30  1  0
 29 49  1  0
 29 50  1  0
 30 51  1  0
 30 52  1  0
M  CHG  2  26   1  28  -1
M  END

