
     RDKit          3D

 34 36  0  0  0  0  0  0  0  0999 V2000
    1.0713    0.6490   -0.2289 O   0  0  0  0  0  0  0  0  0  0  0  0
    2.2642    0.1919    0.3504 C   0  0  2  0  0  0  0  0  0  0  0  0
    2.8595    0.9619    1.5572 C   0  0  0  0  0  0  0  0  0  0  0  0
    4.2447    0.8217    0.8850 C   0  0  2  0  0  0  0  0  0  0  0  0
    5.1043    1.9462    0.8531 O   0  0  0  0  0  0  0  0  0  0  0  0
    5.8209    2.2975    1.9456 C   0  0  0  0  0  0  0  0  0  0  0  0
    6.6872    3.3946    1.7858 C   0  0  0  0  0  0  0  0  0  0  0  0
    7.4534    3.8052    2.8676 C   0  0  0  0  0  0  0  0  0  0  0  0
    8.2781    4.8488    2.7133 F   0  0  0  0  0  0  0  0  0  0  0  0
    7.4044    3.1760    4.1134 C   0  0  0  0  0  0  0  0  0  0  0  0
    6.5362    2.0970    4.2323 C   0  0  0  0  0  0  0  0  0  0  0  0
    6.4531    1.4644    5.4108 F   0  0  0  0  0  0  0  0  0  0  0  0
    5.7396    1.6383    3.1829 C   0  0  0  0  0  0  0  0  0  0  0  0
    3.5439    0.5083   -0.4693 C   0  0  2  0  0  0  0  0  0  0  0  0
    3.4319    1.7187   -1.4239 C   0  0  0  0  0  0  0  0  0  0  0  0
    4.5986    1.5671   -2.4386 C   0  0  0  0  0  0  0  0  0  0  0  0
    5.2409    0.1871   -2.1503 C   0  0  0  0  0  0  0  0  0  0  0  0
    4.1719   -0.5746   -1.3534 C   0  0  0  0  0  0  0  0  0  0  0  0
    0.3281    0.3431    0.3065 H   0  0  0  0  0  0  0  0  0  0  0  0
    2.2100   -0.8936    0.5639 H   0  0  0  0  0  0  0  0  0  0  0  0
    2.7193    0.5512    2.5689 H   0  0  0  0  0  0  0  0  0  0  0  0
    2.5256    2.0095    1.5326 H   0  0  0  0  0  0  0  0  0  0  0  0
    4.8042   -0.0554    1.2562 H   0  0  0  0  0  0  0  0  0  0  0  0
    6.7536    3.9083    0.8270 H   0  0  0  0  0  0  0  0  0  0  0  0
    8.0147    3.5151    4.9498 H   0  0  0  0  0  0  0  0  0  0  0  0
    5.0765    0.7941    3.3595 H   0  0  0  0  0  0  0  0  0  0  0  0
    3.4612    2.6781   -0.8898 H   0  0  0  0  0  0  0  0  0  0  0  0
    2.4576    1.6595   -1.9298 H   0  0  0  0  0  0  0  0  0  0  0  0
    5.3361    2.3769   -2.3343 H   0  0  0  0  0  0  0  0  0  0  0  0
    4.2182    1.6174   -3.4713 H   0  0  0  0  0  0  0  0  0  0  0  0
    6.1395    0.3149   -1.5244 H   0  0  0  0  0  0  0  0  0  0  0  0
    5.5578   -0.3426   -3.0623 H   0  0  0  0  0  0  0  0  0  0  0  0
    4.5728   -1.4239   -0.7753 H   0  0  0  0  0  0  0  0  0  0  0  0
    3.3944   -0.9748   -2.0289 H   0  0  0  0  0  0  0  0  0  0  0  0
  1  2  1  0
  1 19  1  0
  2  3  1  0
  2 14  1  0
  2 20  1  1
  3  4  1  0
  3 21  1  0
  3 22  1  0
  4  5  1  0
  4 14  1  0
  4 23  1  1
  5  6  1  0
  6  7  2  0
  6 13  1  0
  7  8  1  0
  7 24  1  0
  8  9  1  0
  8 10  2  0
 10 11  1  0
 10 25  1  0
 11 12  1  0
 11 13  2  0
 13 26  1  0
 14 15  1  6
 14 18  1  0
 15 16  1  0
 15 27  1  0
 15 28  1  0
 16 17  1  0
 16 29  1  0
 16 30  1  0
 17 18  1  0
 17 31  1  0
 17 32  1  0
 18 33  1  0
 18 34  1  0
M  END

