
     RDKit          3D

 44 47  0  0  0  0  0  0  0  0999 V2000
    0.9042    0.2124    0.6072 O   0  0  0  0  0  0  0  0  0  0  0  0
    2.0581   -0.1115    0.3811 C   0  0  0  0  0  0  0  0  0  0  0  0
    2.5144   -0.5166   -0.8608 N   0  0  0  0  0  0  0  0  0  0  0  0
    1.8165   -0.5996   -2.0751 C   0  0  0  0  0  0  0  0  0  0  0  0
    0.4711   -0.2149   -2.2258 C   0  0  0  0  0  0  0  0  0  0  0  0
   -0.1409   -0.3295   -3.4742 C   0  0  0  0  0  0  0  0  0  0  0  0
    0.5467   -0.8243   -4.5930 C   0  0  0  0  0  0  0  0  0  0  0  0
   -0.0524   -0.9585   -5.9662 C   0  0  0  0  0  0  0  0  0  0  0  0
    0.6427   -1.0709   -6.9635 O   0  0  0  0  0  0  0  0  0  0  0  0
   -1.4263   -0.9481   -6.0306 N   0  0  0  0  0  0  0  0  0  0  0  0
   -2.1151   -1.1410   -7.2723 C   0  0  1  0  0  0  0  0  0  0  0  0
   -3.4696   -0.5028   -7.4311 C   0  0  0  0  0  0  0  0  0  0  0  0
   -2.2889    0.0267   -8.2053 C   0  0  0  0  0  0  0  0  0  0  0  0
    1.8938   -1.1866   -4.4352 C   0  0  0  0  0  0  0  0  0  0  0  0
    2.5173   -1.0836   -3.1986 C   0  0  0  0  0  0  0  0  0  0  0  0
    3.0847   -0.1007    1.4529 C   0  0  0  0  0  0  0  0  0  0  0  0
    2.7938    0.0566    2.8368 C   0  0  0  0  0  0  0  0  0  0  0  0
    3.8913    0.0607    3.5706 N   0  0  0  0  0  0  0  0  0  0  0  0
    4.9138   -0.0847    2.6968 N   0  0  0  0  0  0  0  0  0  0  0  0
    6.2580   -0.0981    3.1638 C   0  0  0  0  0  0  0  0  0  0  0  0
    6.5500    0.4409    4.4244 C   0  0  0  0  0  0  0  0  0  0  0  0
    7.8673    0.4397    4.8842 C   0  0  0  0  0  0  0  0  0  0  0  0
    8.8968   -0.0879    4.0978 C   0  0  0  0  0  0  0  0  0  0  0  0
    8.5968   -0.6284    2.8445 C   0  0  0  0  0  0  0  0  0  0  0  0
    7.2812   -0.6436    2.3762 C   0  0  0  0  0  0  0  0  0  0  0  0
    4.4717   -0.1804    1.4114 C   0  0  0  0  0  0  0  0  0  0  0  0
    3.4715   -0.8447   -0.9012 H   0  0  0  0  0  0  0  0  0  0  0  0
   -0.0726    0.1700   -1.3669 H   0  0  0  0  0  0  0  0  0  0  0  0
   -1.1765    0.0073   -3.5679 H   0  0  0  0  0  0  0  0  0  0  0  0
   -1.9455   -1.1197   -5.1777 H   0  0  0  0  0  0  0  0  0  0  0  0
   -1.9574   -2.1198   -7.7430 H   0  0  0  0  0  0  0  0  0  0  0  0
   -3.8420    0.1024   -6.5989 H   0  0  0  0  0  0  0  0  0  0  0  0
   -4.2429   -1.0661   -7.9603 H   0  0  0  0  0  0  0  0  0  0  0  0
   -1.8586    0.9803   -7.8898 H   0  0  0  0  0  0  0  0  0  0  0  0
   -2.2293   -0.1691   -9.2790 H   0  0  0  0  0  0  0  0  0  0  0  0
    2.4371   -1.5480   -5.3104 H   0  0  0  0  0  0  0  0  0  0  0  0
    3.5667   -1.3773   -3.0951 H   0  0  0  0  0  0  0  0  0  0  0  0
    1.8102    0.1591    3.2926 H   0  0  0  0  0  0  0  0  0  0  0  0
    5.7365    0.8483    5.0238 H   0  0  0  0  0  0  0  0  0  0  0  0
    8.0904    0.8612    5.8674 H   0  0  0  0  0  0  0  0  0  0  0  0
    9.9266   -0.0828    4.4622 H   0  0  0  0  0  0  0  0  0  0  0  0
    9.3900   -1.0556    2.2262 H   0  0  0  0  0  0  0  0  0  0  0  0
    7.0578   -1.0987    1.4099 H   0  0  0  0  0  0  0  0  0  0  0  0
    5.1681   -0.2439    0.5790 H   0  0  0  0  0  0  0  0  0  0  0  0
  1  2  2  0
  2  3  1  0
  2 16  1  0
  3  4  1  0
  3 27  1  0
  4  5  2  0
  4 15  1  0
  5  6  1  0
  5 28  1  0
  6  7  2  0
  6 29  1  0
  7  8  1  0
  7 14  1  0
  8  9  2  0
  8 10  1  0
 10 11  1  0
 10 30  1  0
 11 12  1  0
 11 13  1  0
 11 31  1  6
 12 13  1  0
 12 32  1  0
 12 33  1  0
 13 34  1  0
 13 35  1  0
 14 15  2  0
 14 36  1  0
 15 37  1  0
 16 17  1  0
 16 26  2  0
 17 18  2  0
 17 38  1  0
 18 19  1  0
 19 20  1  0
 19 26  1  0
 20 21  2  0
 20 25  1  0
 21 22  1  0
 21 39  1  0
 22 23  2  0
 22 40  1  0
 23 24  1  0
 23 41  1  0
 24 25  2  0
 24 42  1  0
 25 43  1  0
 26 44  1  0
M  END

