
     RDKit          3D

 60 63  0  0  0  0  0  0  0  0999 V2000
    1.5701    0.1250    0.5496 C   0  0  0  0  0  0  0  0  0  0  0  0
    2.9458   -0.1197   -0.0134 C   0  0  0  0  0  0  0  0  0  0  0  0
    3.6395    0.9420   -0.4250 N   0  0  0  0  0  0  0  0  0  0  0  0
    4.8625    0.6934   -0.9270 C   0  0  0  0  0  0  0  0  0  0  0  0
    5.5119    1.8569   -1.3456 N   0  0  0  0  0  0  0  0  0  0  0  0
    6.7480    2.0215   -1.9036 C   0  0  0  0  0  0  0  0  0  0  0  0
    7.6162    1.0801   -2.1628 N   0  0  0  0  0  0  0  0  0  0  0  0
    8.7487    1.5956   -2.7232 C   0  0  0  0  0  0  0  0  0  0  0  0
    8.7946    2.9537   -2.9119 C   0  0  0  0  0  0  0  0  0  0  0  0
    9.9469    3.6886   -3.4972 C   0  0  0  0  0  0  0  0  0  0  0  0
   10.8752    3.0918   -4.0092 O   0  0  0  0  0  0  0  0  0  0  0  0
    9.8905    5.0652   -3.3965 N   0  0  0  0  0  0  0  0  0  0  0  0
   10.8644    5.9382   -3.9440 C   0  0  0  0  0  0  0  0  0  0  0  0
   11.5786    6.8223   -3.1118 C   0  0  0  0  0  0  0  0  0  0  0  0
   11.3237    6.8332   -1.6248 C   0  0  0  0  0  0  0  0  0  0  0  0
   12.5276    7.6812   -3.6863 C   0  0  0  0  0  0  0  0  0  0  0  0
   12.7775    7.6491   -5.0589 C   0  0  0  0  0  0  0  0  0  0  0  0
   12.0680    6.7760   -5.8837 C   0  0  0  0  0  0  0  0  0  0  0  0
   11.0960    5.9291   -5.3367 C   0  0  0  0  0  0  0  0  0  0  0  0
   10.3365    5.1054   -6.0947 O   0  0  0  0  0  0  0  0  0  0  0  0
    7.2769    3.6495   -2.3554 S   0  0  0  0  0  0  0  0  0  0  0  0
    5.4078   -0.5832   -1.0210 C   0  0  0  0  0  0  0  0  0  0  0  0
    4.5939   -1.6389   -0.5388 C   0  0  0  0  0  0  0  0  0  0  0  0
    5.0108   -2.9478   -0.5343 N   0  0  0  0  0  0  0  0  0  0  0  0
    6.2789   -3.3790   -1.1084 C   0  0  0  0  0  0  0  0  0  0  0  0
    6.8952   -4.5151   -0.2730 C   0  0  0  0  0  0  0  0  0  0  0  0
    5.9831   -5.6292   -0.0228 N   0  0  0  0  0  0  0  0  0  0  0  0
    5.8426   -6.5840   -1.1265 C   0  0  0  0  0  0  0  0  0  0  0  0
    6.9962   -7.5918   -1.0926 C   0  0  0  0  0  0  0  0  0  0  0  0
    7.1062   -8.1701    0.1806 O   0  0  0  0  0  0  0  0  0  0  0  0
    4.7404   -5.1315    0.5663 C   0  0  0  0  0  0  0  0  0  0  0  0
    4.0680   -4.0325   -0.2615 C   0  0  0  0  0  0  0  0  0  0  0  0
    3.3643   -1.3855   -0.0518 N   0  0  0  0  0  0  0  0  0  0  0  0
    1.3056    1.1869    0.4726 H   0  0  0  0  0  0  0  0  0  0  0  0
    1.5345   -0.1842    1.6069 H   0  0  0  0  0  0  0  0  0  0  0  0
    0.8265   -0.4852    0.0135 H   0  0  0  0  0  0  0  0  0  0  0  0
    4.9389    2.6819   -1.1966 H   0  0  0  0  0  0  0  0  0  0  0  0
    9.5758    0.9410   -3.0016 H   0  0  0  0  0  0  0  0  0  0  0  0
    9.1810    5.4737   -2.7981 H   0  0  0  0  0  0  0  0  0  0  0  0
   11.3807    5.8181   -1.2001 H   0  0  0  0  0  0  0  0  0  0  0  0
   10.3205    7.2269   -1.3807 H   0  0  0  0  0  0  0  0  0  0  0  0
   12.0557    7.4662   -1.1035 H   0  0  0  0  0  0  0  0  0  0  0  0
   13.0851    8.3680   -3.0449 H   0  0  0  0  0  0  0  0  0  0  0  0
   13.5299    8.3113   -5.4943 H   0  0  0  0  0  0  0  0  0  0  0  0
   12.2498    6.7572   -6.9628 H   0  0  0  0  0  0  0  0  0  0  0  0
   10.6640    5.1073   -7.0033 H   0  0  0  0  0  0  0  0  0  0  0  0
    6.3940   -0.7145   -1.4521 H   0  0  0  0  0  0  0  0  0  0  0  0
    6.9887   -2.5435   -1.1304 H   0  0  0  0  0  0  0  0  0  0  0  0
    6.1322   -3.7067   -2.1578 H   0  0  0  0  0  0  0  0  0  0  0  0
    7.2086   -4.0992    0.7007 H   0  0  0  0  0  0  0  0  0  0  0  0
    7.8036   -4.8833   -0.7741 H   0  0  0  0  0  0  0  0  0  0  0  0
    5.7772   -6.1096   -2.1277 H   0  0  0  0  0  0  0  0  0  0  0  0
    4.9019   -7.1357   -0.9710 H   0  0  0  0  0  0  0  0  0  0  0  0
    7.9419   -7.0949   -1.4030 H   0  0  0  0  0  0  0  0  0  0  0  0
    6.8083   -8.3916   -1.8290 H   0  0  0  0  0  0  0  0  0  0  0  0
    6.9310   -7.4324    0.7914 H   0  0  0  0  0  0  0  0  0  0  0  0
    4.9736   -4.7259    1.5671 H   0  0  0  0  0  0  0  0  0  0  0  0
    4.0433   -5.9719    0.7078 H   0  0  0  0  0  0  0  0  0  0  0  0
    3.2059   -3.6087    0.2659 H   0  0  0  0  0  0  0  0  0  0  0  0
    3.6986   -4.4533   -1.2194 H   0  0  0  0  0  0  0  0  0  0  0  0
  1  2  1  0
  1 34  1  0
  1 35  1  0
  1 36  1  0
  2  3  2  0
  2 33  1  0
  3  4  1  0
  4  5  1  0
  4 22  2  0
  5  6  1  0
  5 37  1  0
  6  7  2  0
  6 21  1  0
  7  8  1  0
  8  9  2  0
  8 38  1  0
  9 10  1  0
  9 21  1  0
 10 11  2  0
 10 12  1  0
 12 13  1  0
 12 39  1  0
 13 14  2  0
 13 19  1  0
 14 15  1  0
 14 16  1  0
 15 40  1  0
 15 41  1  0
 15 42  1  0
 16 17  2  0
 16 43  1  0
 17 18  1  0
 17 44  1  0
 18 19  2  0
 18 45  1  0
 19 20  1  0
 20 46  1  0
 22 23  1  0
 22 47  1  0
 23 24  1  0
 23 33  2  0
 24 25  1  0
 24 32  1  0
 25 26  1  0
 25 48  1  0
 25 49  1  0
 26 27  1  0
 26 50  1  0
 26 51  1  0
 27 28  1  0
 27 31  1  0
 28 29  1  0
 28 52  1  0
 28 53  1  0
 29 30  1  0
 29 54  1  0
 29 55  1  0
 30 56  1  0
 31 32  1  0
 31 57  1  0
 31 58  1  0
 32 59  1  0
 32 60  1  0
M  END

