
     RDKit          3D

 33 34  0  0  0  0  0  0  0  0999 V2000
    3.6255    0.5943   -1.5360 C   0  0  0  0  0  0  0  0  0  0  0  0
    2.5077   -0.2915   -0.9878 C   0  0  0  0  0  0  0  0  0  0  0  0
    2.9825   -1.6700   -0.6258 C   0  0  0  0  0  0  0  0  0  0  0  0
    4.2247   -2.0979   -0.6981 N   0  0  0  0  0  0  0  0  0  0  0  0
    4.2191   -3.4125   -0.2898 C   0  0  0  0  0  0  0  0  0  0  0  0
    5.4682   -4.2348   -0.2373 C   0  0  0  0  0  0  0  0  0  0  0  0
    2.9337   -3.7878    0.0498 C   0  0  0  0  0  0  0  0  0  0  0  0
    2.3654   -4.9553    0.5884 N   0  0  0  0  0  0  0  0  0  0  0  0
    2.1437   -2.6562   -0.1621 N   0  0  0  0  0  0  0  0  0  0  0  0
    0.7163   -2.5865    0.0619 C   0  0  0  0  0  0  0  0  0  0  0  0
   -0.1517   -2.8351   -1.1649 C   0  0  0  0  0  0  0  0  0  0  0  0
   -1.5380   -2.6312   -1.0695 C   0  0  0  0  0  0  0  0  0  0  0  0
   -2.3736   -2.8756   -2.1605 C   0  0  0  0  0  0  0  0  0  0  0  0
   -1.8348   -3.3277   -3.3704 C   0  0  0  0  0  0  0  0  0  0  0  0
   -0.4572   -3.5303   -3.4757 C   0  0  0  0  0  0  0  0  0  0  0  0
    0.3794   -3.2858   -2.3801 C   0  0  0  0  0  0  0  0  0  0  0  0
    3.2418    1.5971   -1.7794 H   0  0  0  0  0  0  0  0  0  0  0  0
    4.0642    0.1563   -2.4448 H   0  0  0  0  0  0  0  0  0  0  0  0
    4.4407    0.6964   -0.8049 H   0  0  0  0  0  0  0  0  0  0  0  0
    1.6874   -0.3677   -1.7246 H   0  0  0  0  0  0  0  0  0  0  0  0
    2.0567    0.1867   -0.0971 H   0  0  0  0  0  0  0  0  0  0  0  0
    6.1765   -3.8529    0.5180 H   0  0  0  0  0  0  0  0  0  0  0  0
    5.9937   -4.2132   -1.2061 H   0  0  0  0  0  0  0  0  0  0  0  0
    5.2459   -5.2856    0.0061 H   0  0  0  0  0  0  0  0  0  0  0  0
    3.0012   -5.4421    1.2144 H   0  0  0  0  0  0  0  0  0  0  0  0
    2.0342   -5.6151   -0.1163 H   0  0  0  0  0  0  0  0  0  0  0  0
    0.4691   -1.6045    0.4960 H   0  0  0  0  0  0  0  0  0  0  0  0
    0.4859   -3.3476    0.8255 H   0  0  0  0  0  0  0  0  0  0  0  0
   -1.9679   -2.2763   -0.1275 H   0  0  0  0  0  0  0  0  0  0  0  0
   -3.4503   -2.7103   -2.0678 H   0  0  0  0  0  0  0  0  0  0  0  0
   -2.4872   -3.5174   -4.2265 H   0  0  0  0  0  0  0  0  0  0  0  0
   -0.0253   -3.8793   -4.4173 H   0  0  0  0  0  0  0  0  0  0  0  0
    1.4565   -3.4424   -2.4743 H   0  0  0  0  0  0  0  0  0  0  0  0
  1  2  1  0
  1 17  1  0
  1 18  1  0
  1 19  1  0
  2  3  1  0
  2 20  1  0
  2 21  1  0
  3  4  2  0
  3  9  1  0
  4  5  1  0
  5  6  1  0
  5  7  2  0
  6 22  1  0
  6 23  1  0
  6 24  1  0
  7  8  1  0
  7  9  1  0
  8 25  1  0
  8 26  1  0
  9 10  1  0
 10 11  1  0
 10 27  1  0
 10 28  1  0
 11 12  2  0
 11 16  1  0
 12 13  1  0
 12 29  1  0
 13 14  2  0
 13 30  1  0
 14 15  1  0
 14 31  1  0
 15 16  2  0
 15 32  1  0
 16 33  1  0
M  END

