
     RDKit          3D

 46 48  0  0  0  0  0  0  0  0999 V2000
    4.2664    0.2334   -0.1419 O   0  0  0  0  0  0  0  0  0  0  0  0
    3.1755    0.7304   -0.2129 C   0  0  0  0  0  0  0  0  0  0  0  0
    2.6517    1.0634   -1.4076 O   0  0  0  0  0  0  0  0  0  0  0  0
    2.2766    1.0091    1.0032 C   0  0  2  0  0  0  0  0  0  0  0  0
    1.3913    0.3586    0.9078 H   0  0  0  0  0  0  0  0  0  0  0  0
    1.8755    2.4928    1.1272 C   0  0  0  0  0  0  0  0  0  0  0  0
    2.9784    3.0643    1.8849 N   0  0  0  0  0  0  0  0  0  0  0  0
    3.1563    4.4383    1.8837 C   0  0  0  0  0  0  0  0  0  0  0  0
    2.4029    5.1645    1.2534 O   0  0  0  0  0  0  0  0  0  0  0  0
    4.2324    4.8722    2.6347 N   0  0  0  0  0  0  0  0  0  0  0  0
    4.6844    6.1937    2.8396 C   0  0  0  0  0  0  0  0  0  0  0  0
    4.0505    7.3214    2.2937 C   0  0  0  0  0  0  0  0  0  0  0  0
    4.5941    8.5786    2.5700 C   0  0  0  0  0  0  0  0  0  0  0  0
    5.7284    8.7477    3.3596 C   0  0  0  0  0  0  0  0  0  0  0  0
    6.3767    7.6167    3.9140 C   0  0  0  0  0  0  0  0  0  0  0  0
    7.5020    7.7511    4.6990 N   0  0  0  0  0  0  0  0  0  0  0  0
    8.1823    9.0211    4.9231 C   0  0  0  0  0  0  0  0  0  0  0  0
    9.5079    8.6122    5.5788 C   0  0  0  0  0  0  0  0  0  0  0  0
    9.1423    7.3272    6.3333 C   0  0  0  0  0  0  0  0  0  0  0  0
    8.1438    6.6418    5.3907 C   0  0  0  0  0  0  0  0  0  0  0  0
    5.8319    6.3437    3.6366 C   0  0  0  0  0  0  0  0  0  0  0  0
    3.7467    2.0693    2.6251 C   0  0  0  0  0  0  0  0  0  0  0  0
    3.0525    0.7280    2.3046 C   0  0  1  0  0  0  0  0  0  0  0  0
    3.7912   -0.0669    2.1368 H   0  0  0  0  0  0  0  0  0  0  0  0
    2.1560    0.2477    3.4332 C   0  0  1  0  0  0  0  0  0  0  0  0
    1.2131    1.1509    3.7684 F   0  0  0  0  0  0  0  0  0  0  0  0
    1.5182   -0.8865    3.0952 F   0  0  0  0  0  0  0  0  0  0  0  0
    2.8728   -0.0053    4.5412 F   0  0  0  0  0  0  0  0  0  0  0  0
    1.7784    1.4695   -1.3084 H   0  0  0  0  0  0  0  0  0  0  0  0
    0.9133    2.5953    1.6584 H   0  0  0  0  0  0  0  0  0  0  0  0
    1.7697    3.0201    0.1669 H   0  0  0  0  0  0  0  0  0  0  0  0
    4.8007    4.1656    3.0826 H   0  0  0  0  0  0  0  0  0  0  0  0
    3.1655    7.2026    1.6756 H   0  0  0  0  0  0  0  0  0  0  0  0
    4.1065    9.4640    2.1523 H   0  0  0  0  0  0  0  0  0  0  0  0
    6.1046    9.7517    3.5547 H   0  0  0  0  0  0  0  0  0  0  0  0
    7.5926    9.6884    5.5846 H   0  0  0  0  0  0  0  0  0  0  0  0
    8.3384    9.5656    3.9759 H   0  0  0  0  0  0  0  0  0  0  0  0
    9.9201    9.3992    6.2278 H   0  0  0  0  0  0  0  0  0  0  0  0
   10.2591    8.3941    4.8013 H   0  0  0  0  0  0  0  0  0  0  0  0
    8.6470    7.5757    7.2867 H   0  0  0  0  0  0  0  0  0  0  0  0
   10.0105    6.6924    6.5652 H   0  0  0  0  0  0  0  0  0  0  0  0
    7.4070    6.0309    5.9420 H   0  0  0  0  0  0  0  0  0  0  0  0
    8.6594    5.9612    4.6814 H   0  0  0  0  0  0  0  0  0  0  0  0
    6.3135    5.4495    4.0371 H   0  0  0  0  0  0  0  0  0  0  0  0
    3.7517    2.2672    3.7115 H   0  0  0  0  0  0  0  0  0  0  0  0
    4.7957    2.0311    2.2813 H   0  0  0  0  0  0  0  0  0  0  0  0
  1  2  2  0
  2  3  1  0
  2  4  1  0
  3 29  1  0
  4  5  1  6
  4  6  1  0
  4 23  1  0
  6  7  1  0
  6 30  1  0
  6 31  1  0
  7  8  1  0
  7 22  1  0
  8  9  2  0
  8 10  1  0
 10 11  1  0
 10 32  1  0
 11 12  2  0
 11 21  1  0
 12 13  1  0
 12 33  1  0
 13 14  2  0
 13 34  1  0
 14 15  1  0
 14 35  1  0
 15 16  1  0
 15 21  2  0
 16 17  1  0
 16 20  1  0
 17 18  1  0
 17 36  1  0
 17 37  1  0
 18 19  1  0
 18 38  1  0
 18 39  1  0
 19 20  1  0
 19 40  1  0
 19 41  1  0
 20 42  1  0
 20 43  1  0
 21 44  1  0
 22 23  1  0
 22 45  1  0
 22 46  1  0
 23 24  1  6
 23 25  1  0
 25 26  1  1
 25 27  1  0
 25 28  1  0
M  END

