
     RDKit          3D

 40 41  0  0  0  0  0  0  0  0999 V2000
    1.1084    0.4773    0.1755 C   0  0  0  0  0  0  0  0  0  0  0  0
    2.6085    0.2153    0.0437 C   0  0  0  0  0  0  0  0  0  0  0  0
    3.0195   -1.1856    0.4955 C   0  0  0  0  0  0  0  0  0  0  0  0
    4.4518   -1.3956    0.3314 N   0  0  0  0  0  0  0  0  0  0  0  0
    4.9516   -2.6802    0.7926 C   0  0  1  0  0  0  0  0  0  0  0  0
    4.4840   -3.8219   -0.1054 C   0  0  0  0  0  0  0  0  0  0  0  0
    4.3780   -3.6426   -1.4933 C   0  0  0  0  0  0  0  0  0  0  0  0
    3.9714   -4.7081   -2.2912 C   0  0  0  0  0  0  0  0  0  0  0  0
    3.8723   -4.5270   -3.6160 F   0  0  0  0  0  0  0  0  0  0  0  0
    3.6558   -5.9600   -1.7668 C   0  0  0  0  0  0  0  0  0  0  0  0
    3.7562   -6.1092   -0.3862 C   0  0  0  0  0  0  0  0  0  0  0  0
    3.4470   -7.2952    0.1567 F   0  0  0  0  0  0  0  0  0  0  0  0
    4.1571   -5.0688    0.4489 C   0  0  0  0  0  0  0  0  0  0  0  0
    6.5112   -2.6038    0.9231 C   0  0  1  0  0  0  0  0  0  0  0  0
    7.0690   -3.8363    1.6409 C   0  0  0  0  0  0  0  0  0  0  0  0
    7.2519   -2.3104   -0.3993 C   0  0  0  0  0  0  0  0  0  0  0  0
    8.4442   -1.4615    0.0574 C   0  0  0  0  0  0  0  0  0  0  0  0
    7.8285   -0.6451    1.1977 C   0  0  0  0  0  0  0  0  0  0  0  0
    6.7820   -1.4460    1.7457 O   0  0  0  0  0  0  0  0  0  0  0  0
    0.8478    1.4945   -0.1567 H   0  0  0  0  0  0  0  0  0  0  0  0
    0.7698    0.3722    1.2198 H   0  0  0  0  0  0  0  0  0  0  0  0
    0.5223   -0.2309   -0.4339 H   0  0  0  0  0  0  0  0  0  0  0  0
    3.1679    0.9629    0.6367 H   0  0  0  0  0  0  0  0  0  0  0  0
    2.9318    0.3536   -1.0022 H   0  0  0  0  0  0  0  0  0  0  0  0
    2.4773   -1.9350   -0.1071 H   0  0  0  0  0  0  0  0  0  0  0  0
    2.6890   -1.3460    1.5481 H   0  0  0  0  0  0  0  0  0  0  0  0
    4.9580   -0.6836    0.8582 H   0  0  0  0  0  0  0  0  0  0  0  0
    4.5883   -2.9085    1.8191 H   0  0  0  0  0  0  0  0  0  0  0  0
    4.5876   -2.6740   -1.9463 H   0  0  0  0  0  0  0  0  0  0  0  0
    3.3331   -6.7815   -2.4067 H   0  0  0  0  0  0  0  0  0  0  0  0
    4.2008   -5.2425    1.5255 H   0  0  0  0  0  0  0  0  0  0  0  0
    6.8590   -4.7619    1.0856 H   0  0  0  0  0  0  0  0  0  0  0  0
    6.6308   -3.9207    2.6472 H   0  0  0  0  0  0  0  0  0  0  0  0
    8.1592   -3.7476    1.7596 H   0  0  0  0  0  0  0  0  0  0  0  0
    6.6000   -1.7175   -1.0571 H   0  0  0  0  0  0  0  0  0  0  0  0
    7.5426   -3.2261   -0.9332 H   0  0  0  0  0  0  0  0  0  0  0  0
    8.8556   -0.8277   -0.7425 H   0  0  0  0  0  0  0  0  0  0  0  0
    9.2630   -2.0974    0.4301 H   0  0  0  0  0  0  0  0  0  0  0  0
    7.4065    0.3072    0.8215 H   0  0  0  0  0  0  0  0  0  0  0  0
    8.5489   -0.3986    1.9956 H   0  0  0  0  0  0  0  0  0  0  0  0
  1  2  1  0
  1 20  1  0
  1 21  1  0
  1 22  1  0
  2  3  1  0
  2 23  1  0
  2 24  1  0
  3  4  1  0
  3 25  1  0
  3 26  1  0
  4  5  1  0
  4 27  1  0
  5  6  1  0
  5 14  1  0
  5 28  1  1
  6  7  2  0
  6 13  1  0
  7  8  1  0
  7 29  1  0
  8  9  1  0
  8 10  2  0
 10 11  1  0
 10 30  1  0
 11 12  1  0
 11 13  2  0
 13 31  1  0
 14 15  1  1
 14 16  1  0
 14 19  1  0
 15 32  1  0
 15 33  1  0
 15 34  1  0
 16 17  1  0
 16 35  1  0
 16 36  1  0
 17 18  1  0
 17 37  1  0
 17 38  1  0
 18 19  1  0
 18 39  1  0
 18 40  1  0
M  END

