
     RDKit          3D

 44 45  0  0  0  0  0  0  0  0999 V2000
    3.4922   -0.4588    1.3647 C   0  0  0  0  0  0  0  0  0  0  0  0
    2.6870   -1.2839    0.3617 C   0  0  0  0  0  0  0  0  0  0  0  0
    2.9521   -0.9034   -1.1030 C   0  0  0  0  0  0  0  0  0  0  0  0
    4.3358   -1.1284   -1.5128 N   0  0  0  0  0  0  0  0  0  0  0  0
    4.6649   -2.5096   -1.8546 C   0  0  0  0  0  0  0  0  0  0  0  0
    4.2231   -2.9059   -3.2724 C   0  0  0  0  0  0  0  0  0  0  0  0
    4.7966   -1.9367   -4.3147 C   0  0  0  0  0  0  0  0  0  0  0  0
    4.5246   -0.4692   -3.9347 C   0  0  2  0  0  0  0  0  0  0  0  0
    5.0968    0.5391   -4.9403 C   0  0  0  0  0  0  0  0  0  0  0  0
    4.4319    0.4322   -6.2406 N   0  0  0  0  0  0  0  0  0  0  0  0
    4.9093   -0.1542   -2.4574 C   0  0  2  0  0  0  0  0  0  0  0  0
    6.3904    0.0514   -2.1730 C   0  0  0  0  0  0  0  0  0  0  0  0
    7.5271   -0.5528   -2.6577 C   0  0  0  0  0  0  0  0  0  0  0  0
    8.7336   -0.0836   -2.0500 C   0  0  0  0  0  0  0  0  0  0  0  0
    8.5324    0.8804   -1.0927 C   0  0  0  0  0  0  0  0  0  0  0  0
    9.5568    1.6162   -0.2735 C   0  0  0  0  0  0  0  0  0  0  0  0
    9.7161    3.1004   -0.6376 C   0  0  0  0  0  0  0  0  0  0  0  0
    6.8274    1.2146   -0.9403 S   0  0  0  0  0  0  0  0  0  0  0  0
    3.3213   -0.7988    2.3988 H   0  0  0  0  0  0  0  0  0  0  0  0
    3.2156    0.6085    1.3153 H   0  0  0  0  0  0  0  0  0  0  0  0
    4.5689   -0.5308    1.1485 H   0  0  0  0  0  0  0  0  0  0  0  0
    1.6049   -1.1686    0.5525 H   0  0  0  0  0  0  0  0  0  0  0  0
    2.9000   -2.3581    0.5056 H   0  0  0  0  0  0  0  0  0  0  0  0
    2.7327    0.1708   -1.2269 H   0  0  0  0  0  0  0  0  0  0  0  0
    2.2211   -1.4358   -1.7494 H   0  0  0  0  0  0  0  0  0  0  0  0
    4.2130   -3.1788   -1.1061 H   0  0  0  0  0  0  0  0  0  0  0  0
    5.7576   -2.6413   -1.7619 H   0  0  0  0  0  0  0  0  0  0  0  0
    3.1205   -2.8970   -3.3335 H   0  0  0  0  0  0  0  0  0  0  0  0
    4.5372   -3.9412   -3.4902 H   0  0  0  0  0  0  0  0  0  0  0  0
    4.3498   -2.1436   -5.3018 H   0  0  0  0  0  0  0  0  0  0  0  0
    5.8815   -2.1096   -4.4256 H   0  0  0  0  0  0  0  0  0  0  0  0
    3.4281   -0.3362   -3.9772 H   0  0  0  0  0  0  0  0  0  0  0  0
    6.1992    0.4285   -4.9896 H   0  0  0  0  0  0  0  0  0  0  0  0
    4.9131    1.5566   -4.5530 H   0  0  0  0  0  0  0  0  0  0  0  0
    4.7593   -0.3959   -6.7390 H   0  0  0  0  0  0  0  0  0  0  0  0
    4.6904    1.2234   -6.8300 H   0  0  0  0  0  0  0  0  0  0  0  0
    4.4278    0.8083   -2.2212 H   0  0  0  0  0  0  0  0  0  0  0  0
    7.5192   -1.3170   -3.4337 H   0  0  0  0  0  0  0  0  0  0  0  0
    9.7267   -0.4532   -2.3152 H   0  0  0  0  0  0  0  0  0  0  0  0
   10.5211    1.0976   -0.4046 H   0  0  0  0  0  0  0  0  0  0  0  0
    9.3085    1.5305    0.7993 H   0  0  0  0  0  0  0  0  0  0  0  0
   10.0134    3.2192   -1.6915 H   0  0  0  0  0  0  0  0  0  0  0  0
   10.4841    3.5783   -0.0082 H   0  0  0  0  0  0  0  0  0  0  0  0
    8.7725    3.6506   -0.4942 H   0  0  0  0  0  0  0  0  0  0  0  0
  1  2  1  0
  1 19  1  0
  1 20  1  0
  1 21  1  0
  2  3  1  0
  2 22  1  0
  2 23  1  0
  3  4  1  0
  3 24  1  0
  3 25  1  0
  4  5  1  0
  4 11  1  0
  5  6  1  0
  5 26  1  0
  5 27  1  0
  6  7  1  0
  6 28  1  0
  6 29  1  0
  7  8  1  0
  7 30  1  0
  7 31  1  0
  8  9  1  0
  8 11  1  0
  8 32  1  1
  9 10  1  0
  9 33  1  0
  9 34  1  0
 10 35  1  0
 10 36  1  0
 11 12  1  0
 11 37  1  1
 12 13  2  0
 12 18  1  0
 13 14  1  0
 13 38  1  0
 14 15  2  0
 14 39  1  0
 15 16  1  0
 15 18  1  0
 16 17  1  0
 16 40  1  0
 16 41  1  0
 17 42  1  0
 17 43  1  0
 17 44  1  0
M  END

