
     RDKit          3D

 40 41  0  0  0  0  0  0  0  0999 V2000
    0.9023    1.1892    0.3754 C   0  0  0  0  0  0  0  0  0  0  0  0
    2.4011    1.1869    0.6821 C   0  0  0  0  0  0  0  0  0  0  0  0
    2.8837   -0.1206    1.3213 C   0  0  0  0  0  0  0  0  0  0  0  0
    4.4048   -0.2102    1.5635 C   0  0  1  0  0  0  0  0  0  0  0  0
    4.9333    0.7978    2.6085 C   0  0  0  0  0  0  0  0  0  0  0  0
    4.5437    0.4297    4.0495 C   0  0  0  0  0  0  0  0  0  0  0  0
    4.9554   -1.0005    4.4447 C   0  0  2  0  0  0  0  0  0  0  0  0
    6.4108   -1.0464    4.6194 N   0  0  0  0  0  0  0  0  0  0  0  0
    7.1886   -2.0286    5.1773 C   0  0  0  0  0  0  0  0  0  0  0  0
    8.5831   -1.9990    4.9040 C   0  0  0  0  0  0  0  0  0  0  0  0
    9.4706   -2.9206    5.4316 C   0  0  0  0  0  0  0  0  0  0  0  0
    9.0011   -3.9438    6.2699 C   0  0  0  0  0  0  0  0  0  0  0  0
   10.1157   -5.1183    6.9304 Cl  0  0  0  0  0  0  0  0  0  0  0  0
    7.6506   -4.0122    6.5696 C   0  0  0  0  0  0  0  0  0  0  0  0
    6.7348   -3.0697    6.0437 C   0  0  0  0  0  0  0  0  0  0  0  0
    5.3738   -3.2235    6.4639 C   0  0  0  0  0  0  0  0  0  0  0  0
    4.2897   -3.3973    6.8473 N   0  0  0  0  0  0  0  0  0  0  0  0
    4.4442   -2.0137    3.3968 C   0  0  0  0  0  0  0  0  0  0  0  0
    4.8491   -1.6335    1.9659 C   0  0  0  0  0  0  0  0  0  0  0  0
    0.5847    2.1387   -0.0842 H   0  0  0  0  0  0  0  0  0  0  0  0
    0.3050    1.0475    1.2918 H   0  0  0  0  0  0  0  0  0  0  0  0
    0.6336    0.3763   -0.3200 H   0  0  0  0  0  0  0  0  0  0  0  0
    2.6346    2.0400    1.3429 H   0  0  0  0  0  0  0  0  0  0  0  0
    2.9686    1.3650   -0.2497 H   0  0  0  0  0  0  0  0  0  0  0  0
    2.5952   -0.9589    0.6613 H   0  0  0  0  0  0  0  0  0  0  0  0
    2.3284   -0.2857    2.2618 H   0  0  0  0  0  0  0  0  0  0  0  0
    4.8898    0.0279    0.5992 H   0  0  0  0  0  0  0  0  0  0  0  0
    4.5847    1.8181    2.3825 H   0  0  0  0  0  0  0  0  0  0  0  0
    6.0349    0.8480    2.5168 H   0  0  0  0  0  0  0  0  0  0  0  0
    3.4507    0.5054    4.1663 H   0  0  0  0  0  0  0  0  0  0  0  0
    4.9803    1.1473    4.7638 H   0  0  0  0  0  0  0  0  0  0  0  0
    4.4909   -1.2302    5.4118 H   0  0  0  0  0  0  0  0  0  0  0  0
    6.9284   -0.4191    4.0159 H   0  0  0  0  0  0  0  0  0  0  0  0
    8.9640   -1.2129    4.2458 H   0  0  0  0  0  0  0  0  0  0  0  0
   10.5338   -2.8592    5.1925 H   0  0  0  0  0  0  0  0  0  0  0  0
    7.2758   -4.7974    7.2269 H   0  0  0  0  0  0  0  0  0  0  0  0
    3.3460   -2.0678    3.4858 H   0  0  0  0  0  0  0  0  0  0  0  0
    4.8134   -3.0220    3.6428 H   0  0  0  0  0  0  0  0  0  0  0  0
    4.4424   -2.3711    1.2540 H   0  0  0  0  0  0  0  0  0  0  0  0
    5.9482   -1.7013    1.8754 H   0  0  0  0  0  0  0  0  0  0  0  0
  1  2  1  0
  1 20  1  0
  1 21  1  0
  1 22  1  0
  2  3  1  0
  2 23  1  0
  2 24  1  0
  3  4  1  0
  3 25  1  0
  3 26  1  0
  4  5  1  0
  4 19  1  0
  4 27  1  6
  5  6  1  0
  5 28  1  0
  5 29  1  0
  6  7  1  0
  6 30  1  0
  6 31  1  0
  7  8  1  0
  7 18  1  0
  7 32  1  1
  8  9  1  0
  8 33  1  0
  9 10  2  0
  9 15  1  0
 10 11  1  0
 10 34  1  0
 11 12  2  0
 11 35  1  0
 12 13  1  0
 12 14  1  0
 14 15  2  0
 14 36  1  0
 15 16  1  0
 16 17  3  0
 18 19  1  0
 18 37  1  0
 18 38  1  0
 19 39  1  0
 19 40  1  0
M  END

