
     RDKit          3D

 45 45  0  0  0  0  0  0  0  0999 V2000
   14.6218   -4.9762   -2.1246 C   0  0  0  0  0  0  0  0  0  0  0  0
   14.5507   -3.4698   -2.0594 C   0  0  0  0  0  0  0  0  0  0  0  0
   15.8883   -2.7791   -2.1551 C   0  0  0  0  0  0  0  0  0  0  0  0
   13.3682   -2.8415   -1.9228 C   0  0  0  0  0  0  0  0  0  0  0  0
   13.0916   -1.3642   -1.8479 C   0  0  0  0  0  0  0  0  0  0  0  0
   12.1955   -0.8753   -3.0008 C   0  0  0  0  0  0  0  0  0  0  0  0
   11.7438    0.5915   -2.8850 C   0  0  1  0  0  0  0  0  0  0  0  0
   12.9046    1.5909   -3.0023 C   0  0  0  0  0  0  0  0  0  0  0  0
   10.6294    0.8673   -3.8156 N   0  0  0  0  0  0  0  0  0  0  0  0
   10.8674    0.8294   -5.2634 C   0  0  2  0  0  0  0  0  0  0  0  0
   11.8440    0.3566   -5.4587 H   0  0  0  0  0  0  0  0  0  0  0  0
   10.8802    2.2030   -5.9788 C   0  0  0  0  0  0  0  0  0  0  0  0
    9.6590    3.0595   -5.7157 C   0  0  0  0  0  0  0  0  0  0  0  0
    9.6968    4.0919   -4.7628 C   0  0  0  0  0  0  0  0  0  0  0  0
    8.5640    4.8679   -4.4927 C   0  0  0  0  0  0  0  0  0  0  0  0
    7.3708    4.6234   -5.1761 C   0  0  0  0  0  0  0  0  0  0  0  0
    7.3203    3.6031   -6.1321 C   0  0  0  0  0  0  0  0  0  0  0  0
    8.4513    2.8286   -6.4000 C   0  0  0  0  0  0  0  0  0  0  0  0
    9.8406   -0.1251   -5.9314 C   0  0  0  0  0  0  0  0  0  0  0  0
    9.7512   -0.2576   -7.1269 O   0  0  0  0  0  0  0  0  0  0  0  0
    9.0972   -0.7845   -5.0497 O   0  0  0  0  0  0  0  0  0  0  0  0
   15.0874   -5.3102   -3.0693 H   0  0  0  0  0  0  0  0  0  0  0  0
   13.6277   -5.4412   -2.0507 H   0  0  0  0  0  0  0  0  0  0  0  0
   15.2507   -5.3792   -1.3103 H   0  0  0  0  0  0  0  0  0  0  0  0
   16.4016   -3.0567   -3.0929 H   0  0  0  0  0  0  0  0  0  0  0  0
   16.5521   -3.1029   -1.3336 H   0  0  0  0  0  0  0  0  0  0  0  0
   15.8212   -1.6836   -2.1199 H   0  0  0  0  0  0  0  0  0  0  0  0
   12.4716   -3.4737   -1.8700 H   0  0  0  0  0  0  0  0  0  0  0  0
   14.0304   -0.7910   -1.8276 H   0  0  0  0  0  0  0  0  0  0  0  0
   12.5780   -1.1446   -0.8917 H   0  0  0  0  0  0  0  0  0  0  0  0
   11.2922   -1.5070   -3.0468 H   0  0  0  0  0  0  0  0  0  0  0  0
   12.7276   -1.0371   -3.9548 H   0  0  0  0  0  0  0  0  0  0  0  0
   11.3005    0.7109   -1.8800 H   0  0  0  0  0  0  0  0  0  0  0  0
   13.4183    1.5031   -3.9740 H   0  0  0  0  0  0  0  0  0  0  0  0
   13.6560    1.4258   -2.2149 H   0  0  0  0  0  0  0  0  0  0  0  0
   12.5439    2.6270   -2.9000 H   0  0  0  0  0  0  0  0  0  0  0  0
   10.1595    1.7362   -3.5606 H   0  0  0  0  0  0  0  0  0  0  0  0
   10.9697    1.9916   -7.0547 H   0  0  0  0  0  0  0  0  0  0  0  0
   11.7856    2.7486   -5.6716 H   0  0  0  0  0  0  0  0  0  0  0  0
   10.6334    4.3064   -4.2385 H   0  0  0  0  0  0  0  0  0  0  0  0
    8.6184    5.6698   -3.7516 H   0  0  0  0  0  0  0  0  0  0  0  0
    6.4847    5.2294   -4.9705 H   0  0  0  0  0  0  0  0  0  0  0  0
    6.3927    3.4106   -6.6777 H   0  0  0  0  0  0  0  0  0  0  0  0
    8.4055    2.0371   -7.1518 H   0  0  0  0  0  0  0  0  0  0  0  0
    9.3935   -0.4026   -4.1783 H   0  0  0  0  0  0  0  0  0  0  0  0
  1  2  1  0
  1 22  1  0
  1 23  1  0
  1 24  1  0
  2  3  1  0
  2  4  2  0
  3 25  1  0
  3 26  1  0
  3 27  1  0
  4  5  1  0
  4 28  1  0
  5  6  1  0
  5 29  1  0
  5 30  1  0
  6  7  1  0
  6 31  1  0
  6 32  1  0
  7  8  1  0
  7  9  1  0
  7 33  1  1
  8 34  1  0
  8 35  1  0
  8 36  1  0
  9 10  1  0
  9 37  1  0
 10 11  1  1
 10 12  1  0
 10 19  1  0
 12 13  1  0
 12 38  1  0
 12 39  1  0
 13 14  2  0
 13 18  1  0
 14 15  1  0
 14 40  1  0
 15 16  2  0
 15 41  1  0
 16 17  1  0
 16 42  1  0
 17 18  2  0
 17 43  1  0
 18 44  1  0
 19 20  2  0
 19 21  1  0
 21 45  1  0
M  END

