
     RDKit          3D

 59 62  0  0  0  0  0  0  0  0999 V2000
    3.5546   -2.0438    7.5070 C   0  0  0  0  0  0  0  0  0  0  0  0
    3.6109   -2.6488    6.1140 C   0  0  0  0  0  0  0  0  0  0  0  0
    3.4527   -3.8405    5.9454 O   0  0  0  0  0  0  0  0  0  0  0  0
    3.8556   -1.6768    4.9577 C   0  0  1  0  0  0  0  0  0  0  0  0
    5.3654   -1.3382    4.8358 C   0  0  0  0  0  0  0  0  0  0  0  0
    6.1754   -2.4998    4.2468 C   0  0  0  0  0  0  0  0  0  0  0  0
    5.6777   -2.9679    2.8615 C   0  0  2  0  0  0  0  0  0  0  0  0
    6.0848   -2.0230    1.6704 C   0  0  1  0  0  0  0  0  0  0  0  0
    5.7548   -2.6645    0.3078 C   0  0  0  0  0  0  0  0  0  0  0  0
    5.4528   -0.7512    1.7510 O   0  0  0  0  0  0  0  0  0  0  0  0
    7.5827   -1.7381    1.7329 C   0  0  0  0  0  0  0  0  0  0  0  0
    8.1182   -0.5997    2.0511 N   0  0  0  0  0  0  0  0  0  0  0  0
    9.4837   -0.6601    2.0492 C   0  0  0  0  0  0  0  0  0  0  0  0
   10.0536   -1.8734    1.7289 C   0  0  0  0  0  0  0  0  0  0  0  0
   11.4759   -2.2371    1.6445 C   0  0  0  0  0  0  0  0  0  0  0  0
   11.9015   -3.5700    1.7890 C   0  0  0  0  0  0  0  0  0  0  0  0
   13.2617   -3.8757    1.7191 C   0  0  0  0  0  0  0  0  0  0  0  0
   14.2066   -2.8747    1.5135 C   0  0  0  0  0  0  0  0  0  0  0  0
   13.7986   -1.5322    1.3659 C   0  0  0  0  0  0  0  0  0  0  0  0
   14.8071   -0.5847    1.1534 N   0  0  0  0  0  0  0  0  0  0  0  0
   14.7884    0.7749    0.9644 C   0  0  0  0  0  0  0  0  0  0  0  0
   16.0149    1.3147    0.7892 N   0  0  0  0  0  0  0  0  0  0  0  0
   16.0631    2.6254    0.5996 C   0  0  0  0  0  0  0  0  0  0  0  0
   14.9207    3.4355    0.5761 C   0  0  0  0  0  0  0  0  0  0  0  0
   13.7088    2.7737    0.7679 C   0  0  0  0  0  0  0  0  0  0  0  0
   12.3898    3.5061    0.7689 C   0  0  0  0  0  0  0  0  0  0  0  0
   12.5625    4.8550    0.5614 F   0  0  0  0  0  0  0  0  0  0  0  0
   13.6349    1.4533    0.9622 N   0  0  0  0  0  0  0  0  0  0  0  0
   12.4305   -1.2249    1.4261 C   0  0  0  0  0  0  0  0  0  0  0  0
    8.7624   -3.0062    1.3996 S   0  0  0  0  0  0  0  0  0  0  0  0
    4.1660   -3.2844    2.9551 C   0  0  0  0  0  0  0  0  0  0  0  0
    3.3040   -2.1910    3.6139 C   0  0  0  0  0  0  0  0  0  0  0  0
    3.6217   -2.8381    8.2621 H   0  0  0  0  0  0  0  0  0  0  0  0
    2.5901   -1.5202    7.6270 H   0  0  0  0  0  0  0  0  0  0  0  0
    4.3463   -1.2957    7.6664 H   0  0  0  0  0  0  0  0  0  0  0  0
    3.3297   -0.7426    5.2242 H   0  0  0  0  0  0  0  0  0  0  0  0
    5.7761   -1.0609    5.8213 H   0  0  0  0  0  0  0  0  0  0  0  0
    5.4718   -0.4570    4.1867 H   0  0  0  0  0  0  0  0  0  0  0  0
    6.1181   -3.3668    4.9277 H   0  0  0  0  0  0  0  0  0  0  0  0
    7.2376   -2.2166    4.2025 H   0  0  0  0  0  0  0  0  0  0  0  0
    6.1893   -3.9218    2.6436 H   0  0  0  0  0  0  0  0  0  0  0  0
    4.6690   -2.8156    0.2013 H   0  0  0  0  0  0  0  0  0  0  0  0
    6.2395   -3.6444    0.1816 H   0  0  0  0  0  0  0  0  0  0  0  0
    6.0916   -2.0015   -0.5024 H   0  0  0  0  0  0  0  0  0  0  0  0
    4.5419   -0.8612    1.4518 H   0  0  0  0  0  0  0  0  0  0  0  0
   10.0575    0.2282    2.3194 H   0  0  0  0  0  0  0  0  0  0  0  0
   11.1729   -4.3627    1.9717 H   0  0  0  0  0  0  0  0  0  0  0  0
   13.5923   -4.9111    1.8331 H   0  0  0  0  0  0  0  0  0  0  0  0
   15.2698   -3.1263    1.4614 H   0  0  0  0  0  0  0  0  0  0  0  0
   15.7544   -0.9466    1.1258 H   0  0  0  0  0  0  0  0  0  0  0  0
   17.0591    3.0628    0.4578 H   0  0  0  0  0  0  0  0  0  0  0  0
   14.9645    4.5118    0.4191 H   0  0  0  0  0  0  0  0  0  0  0  0
   11.8829    3.3483    1.7374 H   0  0  0  0  0  0  0  0  0  0  0  0
   11.7407    3.0948   -0.0242 H   0  0  0  0  0  0  0  0  0  0  0  0
   12.1218   -0.1938    1.2832 H   0  0  0  0  0  0  0  0  0  0  0  0
    4.0621   -4.1940    3.5645 H   0  0  0  0  0  0  0  0  0  0  0  0
    3.7497   -3.5332    1.9652 H   0  0  0  0  0  0  0  0  0  0  0  0
    2.2852   -2.5856    3.7603 H   0  0  0  0  0  0  0  0  0  0  0  0
    3.2019   -1.3203    2.9457 H   0  0  0  0  0  0  0  0  0  0  0  0
  1  2  1  0
  1 33  1  0
  1 34  1  0
  1 35  1  0
  2  3  2  0
  2  4  1  0
  4  5  1  0
  4 32  1  0
  4 36  1  1
  5  6  1  0
  5 37  1  0
  5 38  1  0
  6  7  1  0
  6 39  1  0
  6 40  1  0
  7  8  1  0
  7 31  1  0
  7 41  1  6
  8  9  1  0
  8 10  1  1
  8 11  1  0
  9 42  1  0
  9 43  1  0
  9 44  1  0
 10 45  1  0
 11 12  2  0
 11 30  1  0
 12 13  1  0
 13 14  2  0
 13 46  1  0
 14 15  1  0
 14 30  1  0
 15 16  2  0
 15 29  1  0
 16 17  1  0
 16 47  1  0
 17 18  2  0
 17 48  1  0
 18 19  1  0
 18 49  1  0
 19 20  1  0
 19 29  2  0
 20 21  1  0
 20 50  1  0
 21 22  2  0
 21 28  1  0
 22 23  1  0
 23 24  2  0
 23 51  1  0
 24 25  1  0
 24 52  1  0
 25 26  1  0
 25 28  2  0
 26 27  1  0
 26 53  1  0
 26 54  1  0
 29 55  1  0
 31 32  1  0
 31 56  1  0
 31 57  1  0
 32 58  1  0
 32 59  1  0
M  END

