
     RDKit          3D

 53 57  0  0  0  0  0  0  0  0999 V2000
    7.6202   -1.3356   -5.6286 O   0  0  0  0  0  0  0  0  0  0  0  0
    7.0945   -2.2769   -5.1163 C   0  0  0  0  0  0  0  0  0  0  0  0
    7.1957   -3.6245   -5.4072 N   0  0  0  0  0  0  0  0  0  0  0  0
    7.7980   -3.9978   -6.1315 H   0  0  0  0  0  0  0  0  0  0  0  0
    6.4463   -4.4113   -4.5342 C   0  0  0  0  0  0  0  0  0  0  0  0
    6.4134   -5.6151   -4.4413 O   0  0  0  0  0  0  0  0  0  0  0  0
    5.7276   -3.4906   -3.7858 N   0  0  0  0  0  0  0  0  0  0  0  0
    5.3298   -3.7178   -2.4103 C   0  0  0  0  0  0  0  0  0  0  0  0
    6.4825   -3.6925   -1.4012 C   0  0  0  0  0  0  0  0  0  0  0  0
    6.0667   -4.2220   -0.0245 C   0  0  0  0  0  0  0  0  0  0  0  0
    5.4503   -5.5430   -0.0544 N   0  0  0  0  0  0  0  0  0  0  0  0
    4.8048   -5.8640    1.2214 C   0  0  0  0  0  0  0  0  0  0  0  0
    4.0214   -7.1889    1.2021 C   0  0  0  0  0  0  0  0  0  0  0  0
    4.9796   -8.2667    0.7267 C   0  0  2  0  0  0  0  0  0  0  0  0
    5.8393   -8.2854    1.4357 H   0  0  0  0  0  0  0  0  0  0  0  0
    5.5220   -7.8901   -0.6541 C   0  0  1  0  0  0  0  0  0  0  0  0
    4.6491   -7.6702   -1.3004 H   0  0  0  0  0  0  0  0  0  0  0  0
    6.3287   -6.6025   -0.5664 C   0  0  0  0  0  0  0  0  0  0  0  0
    6.0885   -9.2067   -1.1228 C   0  0  0  0  0  0  0  0  0  0  0  0
    6.9801   -9.5216   -2.1405 C   0  0  0  0  0  0  0  0  0  0  0  0
    7.1974  -10.8739   -2.4254 C   0  0  0  0  0  0  0  0  0  0  0  0
    8.0732  -11.2019   -3.3937 F   0  0  0  0  0  0  0  0  0  0  0  0
    6.5294  -11.8868   -1.7431 C   0  0  0  0  0  0  0  0  0  0  0  0
    5.6167  -11.5670   -0.7267 C   0  0  0  0  0  0  0  0  0  0  0  0
    5.4051  -10.2217   -0.4127 C   0  0  0  0  0  0  0  0  0  0  0  0
    4.5223   -9.6584    0.5357 N   0  0  0  0  0  0  0  0  0  0  0  0
    4.0602  -10.3898    1.6677 C   0  0  0  0  0  0  0  0  0  0  0  0
    4.9282  -11.1595    2.4628 C   0  0  0  0  0  0  0  0  0  0  0  0
    4.4519  -11.8448    3.5818 C   0  0  0  0  0  0  0  0  0  0  0  0
    3.1018  -11.7441    3.9129 C   0  0  0  0  0  0  0  0  0  0  0  0
    2.6415  -12.3978    4.9895 F   0  0  0  0  0  0  0  0  0  0  0  0
    2.2193  -10.9835    3.1492 C   0  0  0  0  0  0  0  0  0  0  0  0
    2.7038  -10.3159    2.0225 C   0  0  0  0  0  0  0  0  0  0  0  0
    6.2225   -2.1875   -4.0576 O   0  0  0  0  0  0  0  0  0  0  0  0
    4.8496   -4.7060   -2.4089 H   0  0  0  0  0  0  0  0  0  0  0  0
    4.5510   -2.9815   -2.1585 H   0  0  0  0  0  0  0  0  0  0  0  0
    6.8626   -2.6651   -1.2824 H   0  0  0  0  0  0  0  0  0  0  0  0
    7.3208   -4.2870   -1.8004 H   0  0  0  0  0  0  0  0  0  0  0  0
    5.3315   -3.5265    0.4156 H   0  0  0  0  0  0  0  0  0  0  0  0
    6.9552   -4.1941    0.6485 H   0  0  0  0  0  0  0  0  0  0  0  0
    4.1202   -5.0378    1.4714 H   0  0  0  0  0  0  0  0  0  0  0  0
    5.5534   -5.9092    2.0475 H   0  0  0  0  0  0  0  0  0  0  0  0
    3.1609   -7.1161    0.5168 H   0  0  0  0  0  0  0  0  0  0  0  0
    3.6351   -7.3915    2.2138 H   0  0  0  0  0  0  0  0  0  0  0  0
    6.6870   -6.3209   -1.5675 H   0  0  0  0  0  0  0  0  0  0  0  0
    7.2254   -6.7506    0.0789 H   0  0  0  0  0  0  0  0  0  0  0  0
    7.4975   -8.7555   -2.7219 H   0  0  0  0  0  0  0  0  0  0  0  0
    6.7299  -12.9260   -2.0113 H   0  0  0  0  0  0  0  0  0  0  0  0
    5.0894  -12.3616   -0.1962 H   0  0  0  0  0  0  0  0  0  0  0  0
    5.9861  -11.2242    2.1999 H   0  0  0  0  0  0  0  0  0  0  0  0
    5.1129  -12.4494    4.2062 H   0  0  0  0  0  0  0  0  0  0  0  0
    1.1668  -10.9349    3.4352 H   0  0  0  0  0  0  0  0  0  0  0  0
    2.0278   -9.7329    1.3940 H   0  0  0  0  0  0  0  0  0  0  0  0
  1  2  2  0
  2  3  1  0
  2 34  1  0
  3  4  1  0
  3  5  1  0
  5  6  2  0
  5  7  1  0
  7  8  1  0
  7 34  1  0
  8  9  1  0
  8 35  1  0
  8 36  1  0
  9 10  1  0
  9 37  1  0
  9 38  1  0
 10 11  1  0
 10 39  1  0
 10 40  1  0
 11 12  1  0
 11 18  1  0
 12 13  1  0
 12 41  1  0
 12 42  1  0
 13 14  1  0
 13 43  1  0
 13 44  1  0
 14 15  1  1
 14 16  1  0
 14 26  1  0
 16 17  1  6
 16 18  1  0
 16 19  1  0
 18 45  1  0
 18 46  1  0
 19 20  2  0
 19 25  1  0
 20 21  1  0
 20 47  1  0
 21 22  1  0
 21 23  2  0
 23 24  1  0
 23 48  1  0
 24 25  2  0
 24 49  1  0
 25 26  1  0
 26 27  1  0
 27 28  2  0
 27 33  1  0
 28 29  1  0
 28 50  1  0
 29 30  2  0
 29 51  1  0
 30 31  1  0
 30 32  1  0
 32 33  2  0
 32 52  1  0
 33 53  1  0
M  END

