
     RDKit          3D

 30 31  0  0  0  0  0  0  0  0999 V2000
    0.8373    0.1357    0.0987 C   0  0  0  0  0  0  0  0  0  0  0  0
    2.2861    0.1313    0.0568 N   0  0  0  0  0  0  0  0  0  0  0  0
    2.8633    1.1777   -0.7631 C   0  0  0  0  0  0  0  0  0  0  0  0
    4.4032    1.1327   -0.7543 C   0  0  1  0  0  0  0  0  0  0  0  0
    4.9409   -0.1731   -1.3287 C   0  0  0  0  0  0  0  0  0  0  0  0
    4.7572   -0.5091   -2.6826 C   0  0  0  0  0  0  0  0  0  0  0  0
    5.2548   -1.7087   -3.1970 C   0  0  0  0  0  0  0  0  0  0  0  0
    5.9468   -2.6054   -2.3768 C   0  0  0  0  0  0  0  0  0  0  0  0
    6.1210   -2.2676   -1.0383 C   0  0  0  0  0  0  0  0  0  0  0  0
    6.7799   -3.1136   -0.2305 F   0  0  0  0  0  0  0  0  0  0  0  0
    5.6310   -1.0758   -0.5063 C   0  0  0  0  0  0  0  0  0  0  0  0
    4.9896    2.3515   -1.4582 C   0  0  1  0  0  0  0  0  0  0  0  0
    5.1571    3.6507   -0.7101 C   0  0  0  0  0  0  0  0  0  0  0  0
    6.3689    2.8449   -1.1100 C   0  0  0  0  0  0  0  0  0  0  0  0
    0.4751   -0.7113    0.7024 H   0  0  0  0  0  0  0  0  0  0  0  0
    0.3451    0.0779   -0.8992 H   0  0  0  0  0  0  0  0  0  0  0  0
    0.4756    1.0601    0.5816 H   0  0  0  0  0  0  0  0  0  0  0  0
    2.6255   -0.7783   -0.2544 H   0  0  0  0  0  0  0  0  0  0  0  0
    2.5447    2.1540   -0.3563 H   0  0  0  0  0  0  0  0  0  0  0  0
    2.5027    1.1588   -1.8196 H   0  0  0  0  0  0  0  0  0  0  0  0
    4.7069    1.1751    0.3048 H   0  0  0  0  0  0  0  0  0  0  0  0
    4.2209    0.1742   -3.3453 H   0  0  0  0  0  0  0  0  0  0  0  0
    5.1048   -1.9517   -4.2520 H   0  0  0  0  0  0  0  0  0  0  0  0
    6.3470   -3.5485   -2.7536 H   0  0  0  0  0  0  0  0  0  0  0  0
    5.7950   -0.8641    0.5526 H   0  0  0  0  0  0  0  0  0  0  0  0
    4.7026    2.4448   -2.5121 H   0  0  0  0  0  0  0  0  0  0  0  0
    4.8817    3.6681    0.3493 H   0  0  0  0  0  0  0  0  0  0  0  0
    4.9545    4.5873   -1.2375 H   0  0  0  0  0  0  0  0  0  0  0  0
    6.9140    2.3151   -0.3227 H   0  0  0  0  0  0  0  0  0  0  0  0
    7.0062    3.2228   -1.9143 H   0  0  0  0  0  0  0  0  0  0  0  0
  1  2  1  0
  1 15  1  0
  1 16  1  0
  1 17  1  0
  2  3  1  0
  2 18  1  0
  3  4  1  0
  3 19  1  0
  3 20  1  0
  4  5  1  0
  4 12  1  0
  4 21  1  1
  5  6  2  0
  5 11  1  0
  6  7  1  0
  6 22  1  0
  7  8  2  0
  7 23  1  0
  8  9  1  0
  8 24  1  0
  9 10  1  0
  9 11  2  0
 11 25  1  0
 12 13  1  0
 12 14  1  0
 12 26  1  6
 13 14  1  0
 13 27  1  0
 13 28  1  0
 14 29  1  0
 14 30  1  0
M  END

