
     RDKit          3D

 69 75  0  0  0  0  0  0  0  0999 V2000
    2.7898   -0.4218    2.8462 C   0  0  0  0  0  0  0  0  0  0  0  0
    2.2999   -1.2842    1.8320 O   0  0  0  0  0  0  0  0  0  0  0  0
    3.1460   -1.9443    1.0071 C   0  0  0  0  0  0  0  0  0  0  0  0
    4.5347   -1.9947    1.1902 C   0  0  0  0  0  0  0  0  0  0  0  0
    5.3336   -2.6997    0.2835 C   0  0  0  0  0  0  0  0  0  0  0  0
    4.7626   -3.3541   -0.8076 C   0  0  0  0  0  0  0  0  0  0  0  0
    3.3762   -3.2999   -0.9840 C   0  0  0  0  0  0  0  0  0  0  0  0
    2.5498   -2.6017   -0.0981 C   0  0  0  0  0  0  0  0  0  0  0  0
    1.0559   -2.5828   -0.3218 C   0  0  2  0  0  0  0  0  0  0  0  0
    0.3447   -1.1896   -0.1832 C   0  0  0  0  0  0  0  0  0  0  0  0
   -0.4485   -1.3920    1.0548 C   0  0  0  0  0  0  0  0  0  0  0  0
   -0.3925   -2.7725    1.4434 C   0  0  0  0  0  0  0  0  0  0  0  0
    0.3956   -3.4970    0.6430 O   0  0  0  0  0  0  0  0  0  0  0  0
   -1.1503   -2.9403    2.5679 C   0  0  0  0  0  0  0  0  0  0  0  0
   -1.6741   -1.6071    2.8605 C   0  0  0  0  0  0  0  0  0  0  0  0
   -2.4991   -1.1577    3.8371 C   0  0  0  0  0  0  0  0  0  0  0  0
   -2.9240    0.2653    3.9461 C   0  0  2  0  0  0  0  0  0  0  0  0
   -4.4450    0.4991    4.1071 C   0  0  0  0  0  0  0  0  0  0  0  0
   -4.5548    1.9889    3.7927 C   0  0  1  0  0  0  0  0  0  0  0  0
   -4.2343    2.7330    4.9592 O   0  0  0  0  0  0  0  0  0  0  0  0
   -3.5527    3.9389    4.6000 C   0  0  2  0  0  0  0  0  0  0  0  0
   -4.5461    5.1128    4.4174 C   0  0  1  0  0  0  0  0  0  0  0  0
   -5.5862    5.2088    5.5522 C   0  0  0  0  0  0  0  0  0  0  0  0
   -4.9965    5.7281    6.8708 C   0  0  0  0  0  0  0  0  0  0  0  0
   -4.2941    7.0769    6.6734 C   0  0  0  0  0  0  0  0  0  0  0  0
   -3.2391    6.9954    5.5636 C   0  0  0  0  0  0  0  0  0  0  0  0
   -3.8215    6.4727    4.2448 C   0  0  2  0  0  0  0  0  0  0  0  0
   -4.7215    7.4700    3.7685 O   0  0  0  0  0  0  0  0  0  0  0  0
   -4.9425    7.4786    2.3846 C   0  0  0  0  0  0  0  0  0  0  0  0
   -2.7551    3.5817    3.3247 C   0  0  0  0  0  0  0  0  0  0  0  0
   -3.4133    2.2796    2.7780 C   0  0  1  0  0  0  0  0  0  0  0  0
   -2.5888    1.0835    2.8123 N   0  0  0  0  0  0  0  0  0  0  0  0
   -1.3573    0.8950    1.9940 B   0  0  1  0  0  0  0  0  0  0  0  0
   -1.4629    1.4042    0.7044 F   0  0  0  0  0  0  0  0  0  0  0  0
   -0.1552    1.3581    2.5886 F   0  0  0  0  0  0  0  0  0  0  0  0
   -1.1742   -0.6954    1.8825 N   0  0  0  0  0  0  0  0  0  0  0  0
    1.9193    0.1364    3.2139 H   0  0  0  0  0  0  0  0  0  0  0  0
    3.5263    0.2924    2.4403 H   0  0  0  0  0  0  0  0  0  0  0  0
    3.2540   -0.9933    3.6687 H   0  0  0  0  0  0  0  0  0  0  0  0
    4.9964   -1.4917    2.0399 H   0  0  0  0  0  0  0  0  0  0  0  0
    6.4149   -2.7329    0.4398 H   0  0  0  0  0  0  0  0  0  0  0  0
    5.3866   -3.9036   -1.5154 H   0  0  0  0  0  0  0  0  0  0  0  0
    2.9190   -3.8113   -1.8361 H   0  0  0  0  0  0  0  0  0  0  0  0
    0.8530   -3.0214   -1.3080 H   0  0  0  0  0  0  0  0  0  0  0  0
   -0.3274   -0.9973   -1.0359 H   0  0  0  0  0  0  0  0  0  0  0  0
    1.0448   -0.3481   -0.1164 H   0  0  0  0  0  0  0  0  0  0  0  0
   -1.3448   -3.8371    3.1506 H   0  0  0  0  0  0  0  0  0  0  0  0
   -2.8445   -1.8547    4.6057 H   0  0  0  0  0  0  0  0  0  0  0  0
   -2.4525    0.6258    4.8989 H   0  0  0  0  0  0  0  0  0  0  0  0
   -4.8305    0.2614    5.1093 H   0  0  0  0  0  0  0  0  0  0  0  0
   -4.9925   -0.0893    3.3541 H   0  0  0  0  0  0  0  0  0  0  0  0
   -5.5536    2.2704    3.4105 H   0  0  0  0  0  0  0  0  0  0  0  0
   -2.8795    4.1535    5.4446 H   0  0  0  0  0  0  0  0  0  0  0  0
   -5.0914    4.9143    3.4768 H   0  0  0  0  0  0  0  0  0  0  0  0
   -6.0494    4.2223    5.7016 H   0  0  0  0  0  0  0  0  0  0  0  0
   -6.3808    5.8994    5.2238 H   0  0  0  0  0  0  0  0  0  0  0  0
   -4.2803    4.9914    7.2778 H   0  0  0  0  0  0  0  0  0  0  0  0
   -5.7967    5.8210    7.6245 H   0  0  0  0  0  0  0  0  0  0  0  0
   -3.8271    7.4154    7.6139 H   0  0  0  0  0  0  0  0  0  0  0  0
   -5.0396    7.8410    6.3955 H   0  0  0  0  0  0  0  0  0  0  0  0
   -2.4146    6.3318    5.8773 H   0  0  0  0  0  0  0  0  0  0  0  0
   -2.7942    7.9855    5.3733 H   0  0  0  0  0  0  0  0  0  0  0  0
   -2.9974    6.3642    3.5120 H   0  0  0  0  0  0  0  0  0  0  0  0
   -5.6183    8.3177    2.1603 H   0  0  0  0  0  0  0  0  0  0  0  0
   -5.4179    6.5488    2.0140 H   0  0  0  0  0  0  0  0  0  0  0  0
   -4.0013    7.6259    1.8160 H   0  0  0  0  0  0  0  0  0  0  0  0
   -1.6995    3.3819    3.5529 H   0  0  0  0  0  0  0  0  0  0  0  0
   -2.7822    4.3876    2.5771 H   0  0  0  0  0  0  0  0  0  0  0  0
   -3.7899    2.4445    1.7552 H   0  0  0  0  0  0  0  0  0  0  0  0
  1  2  1  0
  1 37  1  0
  1 38  1  0
  1 39  1  0
  2  3  1  0
  3  4  2  0
  3  8  1  0
  4  5  1  0
  4 40  1  0
  5  6  2  0
  5 41  1  0
  6  7  1  0
  6 42  1  0
  7  8  2  0
  7 43  1  0
  8  9  1  0
  9 10  1  0
  9 13  1  0
  9 44  1  6
 10 11  1  0
 10 45  1  0
 10 46  1  0
 11 12  1  0
 11 36  2  0
 12 13  1  0
 12 14  2  0
 14 15  1  0
 14 47  1  0
 15 16  2  0
 15 36  1  0
 16 17  1  0
 16 48  1  0
 17 18  1  0
 17 32  1  0
 17 49  1  1
 18 19  1  0
 18 50  1  0
 18 51  1  0
 19 20  1  0
 19 31  1  0
 19 52  1  6
 20 21  1  0
 21 22  1  0
 21 30  1  0
 21 53  1  1
 22 23  1  0
 22 27  1  0
 22 54  1  6
 23 24  1  0
 23 55  1  0
 23 56  1  0
 24 25  1  0
 24 57  1  0
 24 58  1  0
 25 26  1  0
 25 59  1  0
 25 60  1  0
 26 27  1  0
 26 61  1  0
 26 62  1  0
 27 28  1  0
 27 63  1  6
 28 29  1  0
 29 64  1  0
 29 65  1  0
 29 66  1  0
 30 31  1  0
 30 67  1  0
 30 68  1  0
 31 32  1  0
 31 69  1  6
 32 33  1  0
 33 34  1  6
 33 35  1  0
 33 36  1  0
M  CHG  2  33  -1  36   1
M  END

