
     RDKit          3D

 25 27  0  0  0  0  0  0  0  0999 V2000
   -3.3160    0.3621    0.0000 C   0  0  0  0  0  0  0  0  0  0  0  0
   -2.6773    1.5597   -0.3352 C   0  0  0  0  0  0  0  0  0  0  0  0
   -1.2832    1.6280   -0.3411 C   0  0  0  0  0  0  0  0  0  0  0  0
   -0.5102    0.5099    0.0035 C   0  0  0  0  0  0  0  0  0  0  0  0
   -1.1577   -0.7009    0.3438 C   0  0  0  0  0  0  0  0  0  0  0  0
   -2.5558   -0.7613    0.3309 C   0  0  0  0  0  0  0  0  0  0  0  0
   -0.4567   -1.7769    0.8027 O   0  0  0  0  0  0  0  0  0  0  0  0
    0.4019   -2.5147   -0.0663 C   0  0  0  0  0  0  0  0  0  0  0  0
    1.1779   -1.6442   -1.0609 C   0  0  0  0  0  0  0  0  0  0  0  0
    1.7495   -0.4075   -0.4477 C   0  0  0  0  0  0  0  0  0  0  0  0
    3.0475    0.0362   -0.2861 C   0  0  0  0  0  0  0  0  0  0  0  0
    2.9912    1.3301    0.3147 C   0  0  0  0  0  0  0  0  0  0  0  0
    1.6615    1.6431    0.4930 C   0  0  0  0  0  0  0  0  0  0  0  0
    0.9017    0.5826    0.0309 N   0  0  0  0  0  0  0  0  0  0  0  0
   -4.4068    0.3007    0.0041 H   0  0  0  0  0  0  0  0  0  0  0  0
   -3.2626    2.4426   -0.6020 H   0  0  0  0  0  0  0  0  0  0  0  0
   -0.7753    2.5525   -0.6231 H   0  0  0  0  0  0  0  0  0  0  0  0
   -3.0254   -1.7057    0.6140 H   0  0  0  0  0  0  0  0  0  0  0  0
   -0.1891   -3.2748   -0.6125 H   0  0  0  0  0  0  0  0  0  0  0  0
    1.0956   -3.0397    0.6069 H   0  0  0  0  0  0  0  0  0  0  0  0
    0.5121   -1.3719   -1.9001 H   0  0  0  0  0  0  0  0  0  0  0  0
    1.9900   -2.2478   -1.4945 H   0  0  0  0  0  0  0  0  0  0  0  0
    3.9415   -0.5137   -0.5755 H   0  0  0  0  0  0  0  0  0  0  0  0
    3.8346    1.9570    0.5977 H   0  0  0  0  0  0  0  0  0  0  0  0
    1.1873    2.5086    0.9485 H   0  0  0  0  0  0  0  0  0  0  0  0
  1  2  2  0
  1  6  1  0
  1 15  1  0
  2  3  1  0
  2 16  1  0
  3  4  2  0
  3 17  1  0
  4  5  1  0
  4 14  1  0
  5  6  2  0
  5  7  1  0
  6 18  1  0
  7  8  1  0
  8  9  1  0
  8 19  1  0
  8 20  1  0
  9 10  1  0
  9 21  1  0
  9 22  1  0
 10 11  2  0
 10 14  1  0
 11 12  1  0
 11 23  1  0
 12 13  2  0
 12 24  1  0
 13 14  1  0
 13 25  1  0
M  END

