
     RDKit          3D

 28 28  0  0  0  0  0  0  0  0999 V2000
    0.8022    0.2913   -0.0265 C   0  0  0  0  0  0  0  0  0  0  0  0
    2.3229    0.1480   -0.1015 C   0  0  0  0  0  0  0  0  0  0  0  0
    2.9439   -0.4215    1.1781 C   0  0  0  0  0  0  0  0  0  0  0  0
    4.4667   -0.5564    1.1030 C   0  0  0  0  0  0  0  0  0  0  0  0
    5.1233   -1.1318    2.3643 C   0  0  1  0  0  0  0  0  0  0  0  0
    4.5875   -2.8739    2.7474 S   0  0  0  0  0  0  0  0  0  0  0  0
    5.4060   -4.0500    1.0247 Br  0  0  0  0  0  0  0  0  0  0  0  0
    6.6263   -0.9660    2.4629 C   0  0  0  0  0  0  0  0  0  0  0  0
    7.2290   -0.8343    3.7260 C   0  0  0  0  0  0  0  0  0  0  0  0
    8.6104   -0.6888    3.8527 C   0  0  0  0  0  0  0  0  0  0  0  0
    9.4213   -0.6747    2.7124 C   0  0  0  0  0  0  0  0  0  0  0  0
    8.8361   -0.8063    1.4516 C   0  0  0  0  0  0  0  0  0  0  0  0
    7.4501   -0.9493    1.3267 C   0  0  0  0  0  0  0  0  0  0  0  0
    0.3875    0.6980   -0.9626 H   0  0  0  0  0  0  0  0  0  0  0  0
    0.5025    0.9679    0.7915 H   0  0  0  0  0  0  0  0  0  0  0  0
    0.3173   -0.6820    0.1577 H   0  0  0  0  0  0  0  0  0  0  0  0
    2.7761    1.1317   -0.3228 H   0  0  0  0  0  0  0  0  0  0  0  0
    2.5904   -0.5033   -0.9533 H   0  0  0  0  0  0  0  0  0  0  0  0
    2.5008   -1.4083    1.3957 H   0  0  0  0  0  0  0  0  0  0  0  0
    2.6764    0.2279    2.0332 H   0  0  0  0  0  0  0  0  0  0  0  0
    4.9155    0.4363    0.9221 H   0  0  0  0  0  0  0  0  0  0  0  0
    4.7390   -1.1785    0.2335 H   0  0  0  0  0  0  0  0  0  0  0  0
    4.6683   -0.6494    3.2510 H   0  0  0  0  0  0  0  0  0  0  0  0
    6.6032   -0.8523    4.6232 H   0  0  0  0  0  0  0  0  0  0  0  0
    9.0568   -0.5837    4.8450 H   0  0  0  0  0  0  0  0  0  0  0  0
   10.5041   -0.5605    2.8083 H   0  0  0  0  0  0  0  0  0  0  0  0
    9.4603   -0.7979    0.5543 H   0  0  0  0  0  0  0  0  0  0  0  0
    7.0138   -1.0513    0.3319 H   0  0  0  0  0  0  0  0  0  0  0  0
  1  2  1  0
  1 14  1  0
  1 15  1  0
  1 16  1  0
  2  3  1  0
  2 17  1  0
  2 18  1  0
  3  4  1  0
  3 19  1  0
  3 20  1  0
  4  5  1  0
  4 21  1  0
  4 22  1  0
  5  6  1  0
  5  8  1  0
  5 23  1  1
  6  7  1  0
  8  9  2  0
  8 13  1  0
  9 10  1  0
  9 24  1  0
 10 11  2  0
 10 25  1  0
 11 12  1  0
 11 26  1  0
 12 13  2  0
 12 27  1  0
 13 28  1  0
M  END

