
     RDKit          3D

 58 61  0  0  0  0  0  0  0  0999 V2000
    3.8423   -4.7443    4.3446 C   0  0  0  0  0  0  0  0  0  0  0  0
    4.1497   -3.3057    3.9766 C   0  0  0  0  0  0  0  0  0  0  0  0
    3.4682   -3.0068    2.7584 O   0  0  0  0  0  0  0  0  0  0  0  0
    3.6137   -1.8043    2.1419 C   0  0  0  0  0  0  0  0  0  0  0  0
    4.2487   -0.7161    2.7623 C   0  0  0  0  0  0  0  0  0  0  0  0
    4.3625    0.5077    2.0996 C   0  0  0  0  0  0  0  0  0  0  0  0
    3.8518    0.6638    0.8097 C   0  0  0  0  0  0  0  0  0  0  0  0
    3.2330   -0.4202    0.1901 C   0  0  0  0  0  0  0  0  0  0  0  0
    3.0973   -1.6635    0.8266 C   0  0  0  0  0  0  0  0  0  0  0  0
    2.4537   -2.7462   -0.0094 C   0  0  0  0  0  0  0  0  0  0  0  0
    2.1893   -2.5584   -1.1915 O   0  0  0  0  0  0  0  0  0  0  0  0
    2.1278   -3.9062    0.6387 N   0  0  0  0  0  0  0  0  0  0  0  0
    1.7120   -5.0302   -0.0522 N   0  0  0  0  0  0  0  0  0  0  0  0
    2.2506   -6.2262    0.3935 C   0  0  0  0  0  0  0  0  0  0  0  0
    3.1054   -6.2448    1.2727 O   0  0  0  0  0  0  0  0  0  0  0  0
    1.7312   -7.4363   -0.2808 C   0  0  0  0  0  0  0  0  0  0  0  0
    2.2321   -8.6981    0.0679 C   0  0  0  0  0  0  0  0  0  0  0  0
    1.7986   -9.8444   -0.5929 C   0  0  0  0  0  0  0  0  0  0  0  0
    0.8520   -9.7193   -1.6221 C   0  0  0  0  0  0  0  0  0  0  0  0
    0.3389   -8.4761   -1.9813 C   0  0  0  0  0  0  0  0  0  0  0  0
    0.7689   -7.3109   -1.3116 C   0  0  0  0  0  0  0  0  0  0  0  0
    0.3098   -6.0629   -1.6503 N   0  0  0  0  0  0  0  0  0  0  0  0
    0.4191   -4.9169   -0.7603 C   0  0  1  0  0  0  0  0  0  0  0  0
    0.5138   -4.0185   -1.3854 H   0  0  0  0  0  0  0  0  0  0  0  0
   -0.7703   -4.7179    0.1713 C   0  0  0  0  0  0  0  0  0  0  0  0
   -1.4426   -3.4897    0.1849 C   0  0  0  0  0  0  0  0  0  0  0  0
   -2.5359   -3.2559    1.0176 C   0  0  0  0  0  0  0  0  0  0  0  0
   -3.0133   -4.2647    1.8898 C   0  0  0  0  0  0  0  0  0  0  0  0
   -4.0998   -4.0510    2.7178 N   0  0  0  0  0  0  0  0  0  0  0  0
   -4.5374   -5.0903    3.6259 C   0  0  0  0  0  0  0  0  0  0  0  0
   -4.7553   -2.7601    2.7326 C   0  0  0  0  0  0  0  0  0  0  0  0
   -2.3263   -5.5075    1.8770 C   0  0  0  0  0  0  0  0  0  0  0  0
   -1.2362   -5.7192    1.0391 C   0  0  0  0  0  0  0  0  0  0  0  0
    4.4103   -5.0289    5.2439 H   0  0  0  0  0  0  0  0  0  0  0  0
    4.1039   -5.4222    3.5191 H   0  0  0  0  0  0  0  0  0  0  0  0
    2.7699   -4.8716    4.5589 H   0  0  0  0  0  0  0  0  0  0  0  0
    5.2342   -3.1518    3.8307 H   0  0  0  0  0  0  0  0  0  0  0  0
    3.8145   -2.6133    4.7699 H   0  0  0  0  0  0  0  0  0  0  0  0
    4.6537   -0.8192    3.7684 H   0  0  0  0  0  0  0  0  0  0  0  0
    4.8584    1.3421    2.6027 H   0  0  0  0  0  0  0  0  0  0  0  0
    3.9414    1.6192    0.2882 H   0  0  0  0  0  0  0  0  0  0  0  0
    2.8395   -0.3448   -0.8250 H   0  0  0  0  0  0  0  0  0  0  0  0
    2.5155   -4.0931    1.5636 H   0  0  0  0  0  0  0  0  0  0  0  0
    2.9764   -8.7426    0.8657 H   0  0  0  0  0  0  0  0  0  0  0  0
    2.1918  -10.8257   -0.3195 H   0  0  0  0  0  0  0  0  0  0  0  0
    0.5039  -10.6102   -2.1522 H   0  0  0  0  0  0  0  0  0  0  0  0
   -0.4013   -8.3935   -2.7819 H   0  0  0  0  0  0  0  0  0  0  0  0
   -0.4562   -6.0134   -2.3102 H   0  0  0  0  0  0  0  0  0  0  0  0
   -1.0993   -2.6854   -0.4734 H   0  0  0  0  0  0  0  0  0  0  0  0
   -3.0164   -2.2789    0.9856 H   0  0  0  0  0  0  0  0  0  0  0  0
   -4.8352   -6.0116    3.0922 H   0  0  0  0  0  0  0  0  0  0  0  0
   -5.4106   -4.7379    4.1899 H   0  0  0  0  0  0  0  0  0  0  0  0
   -3.7551   -5.3701    4.3571 H   0  0  0  0  0  0  0  0  0  0  0  0
   -4.0764   -1.9447    3.0473 H   0  0  0  0  0  0  0  0  0  0  0  0
   -5.5963   -2.7856    3.4375 H   0  0  0  0  0  0  0  0  0  0  0  0
   -5.1596   -2.4882    1.7402 H   0  0  0  0  0  0  0  0  0  0  0  0
   -2.6453   -6.3197    2.5292 H   0  0  0  0  0  0  0  0  0  0  0  0
   -0.7417   -6.6936    1.0678 H   0  0  0  0  0  0  0  0  0  0  0  0
  1  2  1  0
  1 34  1  0
  1 35  1  0
  1 36  1  0
  2  3  1  0
  2 37  1  0
  2 38  1  0
  3  4  1  0
  4  5  2  0
  4  9  1  0
  5  6  1  0
  5 39  1  0
  6  7  2  0
  6 40  1  0
  7  8  1  0
  7 41  1  0
  8  9  2  0
  8 42  1  0
  9 10  1  0
 10 11  2  0
 10 12  1  0
 12 13  1  0
 12 43  1  0
 13 14  1  0
 13 23  1  0
 14 15  2  0
 14 16  1  0
 16 17  2  0
 16 21  1  0
 17 18  1  0
 17 44  1  0
 18 19  2  0
 18 45  1  0
 19 20  1  0
 19 46  1  0
 20 21  2  0
 20 47  1  0
 21 22  1  0
 22 23  1  0
 22 48  1  0
 23 24  1  6
 23 25  1  0
 25 26  2  0
 25 33  1  0
 26 27  1  0
 26 49  1  0
 27 28  2  0
 27 50  1  0
 28 29  1  0
 28 32  1  0
 29 30  1  0
 29 31  1  0
 30 51  1  0
 30 52  1  0
 30 53  1  0
 31 54  1  0
 31 55  1  0
 31 56  1  0
 32 33  2  0
 32 57  1  0
 33 58  1  0
M  END

