
     RDKit          3D

 41 43  0  0  0  0  0  0  0  0999 V2000
    1.2931    1.6187   -1.0743 C   0  0  0  0  0  0  0  0  0  0  0  0
    1.7418    0.5977   -0.2068 O   0  0  0  0  0  0  0  0  0  0  0  0
    2.5927    0.9038    0.7991 C   0  0  0  0  0  0  0  0  0  0  0  0
    3.1077    2.1833    1.0447 C   0  0  0  0  0  0  0  0  0  0  0  0
    3.9528    2.4152    2.1329 C   0  0  0  0  0  0  0  0  0  0  0  0
    4.3108    1.3766    3.0078 C   0  0  0  0  0  0  0  0  0  0  0  0
    5.1971    1.6026    4.1476 C   0  0  0  0  0  0  0  0  0  0  0  0
    5.9264    0.6913    4.8748 C   0  0  0  0  0  0  0  0  0  0  0  0
    6.6748    1.4023    5.8842 C   0  0  0  0  0  0  0  0  0  0  0  0
    7.5744    1.0657    6.8538 C   0  0  0  0  0  0  0  0  0  0  0  0
    8.0957   -0.2279    7.2646 C   0  0  0  0  0  0  0  0  0  0  0  0
    7.5809   -1.4726    6.8308 C   0  0  0  0  0  0  0  0  0  0  0  0
    8.1326   -2.6713    7.2650 C   0  0  0  0  0  0  0  0  0  0  0  0
    9.2256   -2.6732    8.1550 C   0  0  0  0  0  0  0  0  0  0  0  0
    9.7970   -3.9119    8.5987 C   0  0  0  0  0  0  0  0  0  0  0  0
   10.2595   -4.9159    8.9565 N   0  0  0  0  0  0  0  0  0  0  0  0
    9.7436   -1.4441    8.6083 C   0  0  0  0  0  0  0  0  0  0  0  0
    9.1816   -0.2512    8.1722 C   0  0  0  0  0  0  0  0  0  0  0  0
    6.3145    2.8636    5.7144 C   0  0  0  0  0  0  0  0  0  0  0  0
    6.6733    3.8237    6.3618 O   0  0  0  0  0  0  0  0  0  0  0  0
    5.4394    2.8902    4.6338 N   0  0  0  0  0  0  0  0  0  0  0  0
    3.7982    0.0880    2.7438 C   0  0  0  0  0  0  0  0  0  0  0  0
    2.9587   -0.1634    1.6658 C   0  0  0  0  0  0  0  0  0  0  0  0
    2.4447   -1.4157    1.5185 O   0  0  0  0  0  0  0  0  0  0  0  0
    2.7817   -2.1417    0.3432 C   0  0  0  0  0  0  0  0  0  0  0  0
    0.6039    1.1428   -1.7840 H   0  0  0  0  0  0  0  0  0  0  0  0
    2.1275    2.0758   -1.6352 H   0  0  0  0  0  0  0  0  0  0  0  0
    0.7537    2.4100   -0.5248 H   0  0  0  0  0  0  0  0  0  0  0  0
    2.8494    3.0148    0.3891 H   0  0  0  0  0  0  0  0  0  0  0  0
    4.3518    3.4218    2.2739 H   0  0  0  0  0  0  0  0  0  0  0  0
    5.9705   -0.3684    4.6465 H   0  0  0  0  0  0  0  0  0  0  0  0
    7.9723    1.9266    7.4029 H   0  0  0  0  0  0  0  0  0  0  0  0
    6.7215   -1.5038    6.1635 H   0  0  0  0  0  0  0  0  0  0  0  0
    7.7178   -3.6214    6.9227 H   0  0  0  0  0  0  0  0  0  0  0  0
   10.5852   -1.4362    9.3035 H   0  0  0  0  0  0  0  0  0  0  0  0
    9.5893    0.6968    8.5316 H   0  0  0  0  0  0  0  0  0  0  0  0
    4.9311    3.7252    4.3735 H   0  0  0  0  0  0  0  0  0  0  0  0
    4.0240   -0.7516    3.4026 H   0  0  0  0  0  0  0  0  0  0  0  0
    2.3413   -3.1417    0.4584 H   0  0  0  0  0  0  0  0  0  0  0  0
    3.8774   -2.2443    0.2412 H   0  0  0  0  0  0  0  0  0  0  0  0
    2.3752   -1.6682   -0.5634 H   0  0  0  0  0  0  0  0  0  0  0  0
  1  2  1  0
  1 26  1  0
  1 27  1  0
  1 28  1  0
  2  3  1  0
  3  4  2  0
  3 23  1  0
  4  5  1  0
  4 29  1  0
  5  6  2  0
  5 30  1  0
  6  7  1  0
  6 22  1  0
  7  8  2  0
  7 21  1  0
  8  9  1  0
  8 31  1  0
  9 10  2  0
  9 19  1  0
 10 11  1  0
 10 32  1  0
 11 12  2  0
 11 18  1  0
 12 13  1  0
 12 33  1  0
 13 14  2  0
 13 34  1  0
 14 15  1  0
 14 17  1  0
 15 16  3  0
 17 18  2  0
 17 35  1  0
 18 36  1  0
 19 20  2  0
 19 21  1  0
 21 37  1  0
 22 23  2  0
 22 38  1  0
 23 24  1  0
 24 25  1  0
 25 39  1  0
 25 40  1  0
 25 41  1  0
M  END

