
     RDKit          3D

 41 42  0  0  0  0  0  0  0  0999 V2000
    4.1516   -2.4182   -0.7193 C   0  0  0  0  0  0  0  0  0  0  0  0
    3.9839   -0.9422   -0.4089 C   0  0  0  0  0  0  0  0  0  0  0  0
    4.4245   -0.6938    0.9068 O   0  0  0  0  0  0  0  0  0  0  0  0
    4.3174    0.6520    1.3138 C   0  0  0  0  0  0  0  0  0  0  0  0
    4.7542    0.7803    2.7675 C   0  0  0  0  0  0  0  0  0  0  0  0
    6.1664    0.2119    3.0373 C   0  0  1  0  0  0  0  0  0  0  0  0
    7.2109    0.6890    2.1285 N   0  0  0  0  0  0  0  0  0  0  0  0
    7.4565    2.1186    2.0790 C   0  0  0  0  0  0  0  0  0  0  0  0
    6.6207    0.3470    4.4958 C   0  0  0  0  0  0  0  0  0  0  0  0
    5.7680    0.7438    5.5334 C   0  0  0  0  0  0  0  0  0  0  0  0
    6.2392    0.7948    6.8533 C   0  0  0  0  0  0  0  0  0  0  0  0
    7.5539    0.4598    7.1560 C   0  0  0  0  0  0  0  0  0  0  0  0
    8.4180    0.0657    6.1202 C   0  0  0  0  0  0  0  0  0  0  0  0
    9.6963   -0.2399    6.4931 O   0  0  0  0  0  0  0  0  0  0  0  0
   10.6255   -0.5923    5.5108 C   0  0  1  0  0  0  0  0  0  0  0  0
   11.7699   -1.4308    5.9785 C   0  0  0  0  0  0  0  0  0  0  0  0
   10.7170   -2.0280    5.0680 C   0  0  0  0  0  0  0  0  0  0  0  0
    7.9528    0.0112    4.8028 C   0  0  0  0  0  0  0  0  0  0  0  0
    3.8075   -2.6407   -1.7415 H   0  0  0  0  0  0  0  0  0  0  0  0
    3.5681   -3.0294   -0.0136 H   0  0  0  0  0  0  0  0  0  0  0  0
    5.2085   -2.7157   -0.6352 H   0  0  0  0  0  0  0  0  0  0  0  0
    2.9203   -0.6414   -0.5189 H   0  0  0  0  0  0  0  0  0  0  0  0
    4.5605   -0.3251   -1.1312 H   0  0  0  0  0  0  0  0  0  0  0  0
    3.2713    1.0073    1.2055 H   0  0  0  0  0  0  0  0  0  0  0  0
    4.9373    1.2984    0.6572 H   0  0  0  0  0  0  0  0  0  0  0  0
    4.0274    0.2397    3.3946 H   0  0  0  0  0  0  0  0  0  0  0  0
    4.6916    1.8434    3.0548 H   0  0  0  0  0  0  0  0  0  0  0  0
    6.0916   -0.8704    2.8354 H   0  0  0  0  0  0  0  0  0  0  0  0
    7.0659    0.3011    1.2000 H   0  0  0  0  0  0  0  0  0  0  0  0
    7.7505    2.4819    3.0770 H   0  0  0  0  0  0  0  0  0  0  0  0
    6.5995    2.7415    1.7429 H   0  0  0  0  0  0  0  0  0  0  0  0
    8.2978    2.3224    1.3971 H   0  0  0  0  0  0  0  0  0  0  0  0
    4.7311    1.0144    5.3339 H   0  0  0  0  0  0  0  0  0  0  0  0
    5.5647    1.1060    7.6557 H   0  0  0  0  0  0  0  0  0  0  0  0
    7.9394    0.4984    8.1767 H   0  0  0  0  0  0  0  0  0  0  0  0
   10.8150    0.1967    4.7716 H   0  0  0  0  0  0  0  0  0  0  0  0
   11.7500   -1.7276    7.0305 H   0  0  0  0  0  0  0  0  0  0  0  0
   12.7652   -1.2220    5.5770 H   0  0  0  0  0  0  0  0  0  0  0  0
   10.0044   -2.7258    5.5157 H   0  0  0  0  0  0  0  0  0  0  0  0
   10.9719   -2.2377    4.0249 H   0  0  0  0  0  0  0  0  0  0  0  0
    8.6084   -0.2823    3.9842 H   0  0  0  0  0  0  0  0  0  0  0  0
  1  2  1  0
  1 19  1  0
  1 20  1  0
  1 21  1  0
  2  3  1  0
  2 22  1  0
  2 23  1  0
  3  4  1  0
  4  5  1  0
  4 24  1  0
  4 25  1  0
  5  6  1  0
  5 26  1  0
  5 27  1  0
  6  7  1  0
  6  9  1  0
  6 28  1  6
  7  8  1  0
  7 29  1  0
  8 30  1  0
  8 31  1  0
  8 32  1  0
  9 10  2  0
  9 18  1  0
 10 11  1  0
 10 33  1  0
 11 12  2  0
 11 34  1  0
 12 13  1  0
 12 35  1  0
 13 14  1  0
 13 18  2  0
 14 15  1  0
 15 16  1  0
 15 17  1  0
 15 36  1  6
 16 17  1  0
 16 37  1  0
 16 38  1  0
 17 39  1  0
 17 40  1  0
 18 41  1  0
M  END

