
     RDKit          3D

 24 25  0  0  0  0  0  0  0  0999 V2000
    1.1732   -0.2341    0.9397 N   0  0  0  0  0  0  0  0  0  0  0  0
    2.2988   -0.1911    0.6565 C   0  0  0  0  0  0  0  0  0  0  0  0
    3.6889   -0.1328    0.3066 C   0  0  0  0  0  0  0  0  0  0  0  0
    4.3738    1.0941    0.2992 C   0  0  0  0  0  0  0  0  0  0  0  0
    5.7228    1.1519   -0.0402 C   0  0  0  0  0  0  0  0  0  0  0  0
    6.4182   -0.0204   -0.3791 C   0  0  0  0  0  0  0  0  0  0  0  0
    7.7231   -0.0531   -0.7103 O   0  0  0  0  0  0  0  0  0  0  0  0
    8.4799    1.1319   -0.7175 C   0  0  1  0  0  0  0  0  0  0  0  0
    9.6650    1.1215   -1.6232 C   0  0  0  0  0  0  0  0  0  0  0  0
    8.4709    1.9906   -1.9533 C   0  0  0  0  0  0  0  0  0  0  0  0
    5.7341   -1.2601   -0.3768 C   0  0  0  0  0  0  0  0  0  0  0  0
    6.4713   -2.5300   -0.7440 C   0  0  1  0  0  0  0  0  0  0  0  0
    7.4896   -2.7779    0.0942 F   0  0  0  0  0  0  0  0  0  0  0  0
    5.6533   -3.5977   -0.7001 F   0  0  0  0  0  0  0  0  0  0  0  0
    6.9775   -2.4713   -1.9868 F   0  0  0  0  0  0  0  0  0  0  0  0
    4.3864   -1.3062   -0.0367 C   0  0  0  0  0  0  0  0  0  0  0  0
    3.8415    2.0106    0.5609 H   0  0  0  0  0  0  0  0  0  0  0  0
    6.2364    2.1122   -0.0504 H   0  0  0  0  0  0  0  0  0  0  0  0
    8.5603    1.6046    0.2688 H   0  0  0  0  0  0  0  0  0  0  0  0
    9.8056    0.2158   -2.2188 H   0  0  0  0  0  0  0  0  0  0  0  0
   10.5866    1.5923   -1.2713 H   0  0  0  0  0  0  0  0  0  0  0  0
    7.8280    1.6674   -2.7767 H   0  0  0  0  0  0  0  0  0  0  0  0
    8.5510    3.0748   -1.8318 H   0  0  0  0  0  0  0  0  0  0  0  0
    3.8673   -2.2644   -0.0370 H   0  0  0  0  0  0  0  0  0  0  0  0
  1  2  3  0
  2  3  1  0
  3  4  2  0
  3 16  1  0
  4  5  1  0
  4 17  1  0
  5  6  2  0
  5 18  1  0
  6  7  1  0
  6 11  1  0
  7  8  1  0
  8  9  1  0
  8 10  1  0
  8 19  1  1
  9 10  1  0
  9 20  1  0
  9 21  1  0
 10 22  1  0
 10 23  1  0
 11 12  1  0
 11 16  2  0
 12 13  1  1
 12 14  1  0
 12 15  1  0
 16 24  1  0
M  END

