
     RDKit          3D

 65 68  0  0  0  0  0  0  0  0999 V2000
    6.2526   -1.8142    2.9899 C   0  0  0  0  0  0  0  0  0  0  0  0
    5.6535   -1.0081    1.8666 C   0  0  0  0  0  0  0  0  0  0  0  0
    6.2220    0.2037    1.4462 C   0  0  0  0  0  0  0  0  0  0  0  0
    5.6337    0.9342    0.4008 C   0  0  0  0  0  0  0  0  0  0  0  0
    6.2105    2.2225   -0.0640 C   0  0  0  0  0  0  0  0  0  0  0  0
    5.3925    3.2731   -0.5017 C   0  0  0  0  0  0  0  0  0  0  0  0
    5.9496    4.4768   -0.9315 C   0  0  0  0  0  0  0  0  0  0  0  0
    7.3335    4.6769   -0.9289 C   0  0  0  0  0  0  0  0  0  0  0  0
    7.9903    6.2661   -1.5517 S   0  0  1  0  0  0  0  0  0  0  0  0
    9.0526    6.7039   -0.6344 O   0  0  0  0  0  0  0  0  0  0  0  0
    8.2445    6.1188   -2.9902 O   0  0  0  0  0  0  0  0  0  0  0  0
    6.6296    7.4828   -1.3862 C   0  0  1  0  0  0  0  0  0  0  0  0
    5.8182    7.1164   -2.0310 H   0  0  0  0  0  0  0  0  0  0  0  0
    6.1761    7.7518    0.0658 C   0  0  0  0  0  0  0  0  0  0  0  0
    6.0821    9.2865    0.1926 C   0  0  2  0  0  0  0  0  0  0  0  0
    4.8310    9.7663    0.9343 C   0  0  0  0  0  0  0  0  0  0  0  0
    4.0252    9.0104    1.4431 O   0  0  0  0  0  0  0  0  0  0  0  0
    4.7070   11.1358    0.9587 N   0  0  0  0  0  0  0  0  0  0  0  0
    3.7001   11.8315    1.6999 C   0  0  1  0  0  0  0  0  0  0  0  0
    4.0731   12.1880    3.0622 C   0  0  0  0  0  0  0  0  0  0  0  0
    4.3876   12.4818    4.1392 N   0  0  0  0  0  0  0  0  0  0  0  0
    2.8025   12.8112    0.9463 C   0  0  0  0  0  0  0  0  0  0  0  0
    2.2403   11.5139    1.4281 C   0  0  0  0  0  0  0  0  0  0  0  0
    6.2233    9.8391   -1.2443 C   0  0  1  0  0  0  0  0  0  0  0  0
    5.2359    9.8128   -1.7491 H   0  0  0  0  0  0  0  0  0  0  0  0
    6.7089   11.1630   -1.1871 O   0  0  0  0  0  0  0  0  0  0  0  0
    6.7282   11.9107   -2.4141 C   0  0  1  0  0  0  0  0  0  0  0  0
    5.3657   12.5443   -2.6947 C   0  0  0  0  0  0  0  0  0  0  0  0
    7.8405   12.9420   -2.2814 C   0  0  0  0  0  0  0  0  0  0  0  0
    7.1596    8.8249   -1.9212 C   0  0  0  0  0  0  0  0  0  0  0  0
    8.1777    3.6240   -0.5122 C   0  0  0  0  0  0  0  0  0  0  0  0
    9.7006    3.7084   -0.4828 C   0  0  1  0  0  0  0  0  0  0  0  0
   10.1912    4.2882   -1.5821 F   0  0  0  0  0  0  0  0  0  0  0  0
   10.1406    4.3763    0.5885 F   0  0  0  0  0  0  0  0  0  0  0  0
   10.2404    2.4732   -0.4176 F   0  0  0  0  0  0  0  0  0  0  0  0
    7.6007    2.4251   -0.0854 C   0  0  0  0  0  0  0  0  0  0  0  0
    4.4771    0.3944   -0.1832 C   0  0  0  0  0  0  0  0  0  0  0  0
    3.9848   -0.8203    0.2997 C   0  0  0  0  0  0  0  0  0  0  0  0
    4.5476   -1.5066    1.2931 N   0  0  0  0  0  0  0  0  0  0  0  0
    7.1501   -1.3392    3.4105 H   0  0  0  0  0  0  0  0  0  0  0  0
    6.5188   -2.8214    2.6311 H   0  0  0  0  0  0  0  0  0  0  0  0
    5.5123   -1.9507    3.7943 H   0  0  0  0  0  0  0  0  0  0  0  0
    7.1095    0.5856    1.9552 H   0  0  0  0  0  0  0  0  0  0  0  0
    4.3063    3.1648   -0.4895 H   0  0  0  0  0  0  0  0  0  0  0  0
    5.2772    5.2686   -1.2592 H   0  0  0  0  0  0  0  0  0  0  0  0
    6.9106    7.3517    0.7787 H   0  0  0  0  0  0  0  0  0  0  0  0
    5.2070    7.2887    0.2951 H   0  0  0  0  0  0  0  0  0  0  0  0
    6.9558    9.6748    0.7434 H   0  0  0  0  0  0  0  0  0  0  0  0
    5.4432   11.6751    0.5064 H   0  0  0  0  0  0  0  0  0  0  0  0
    3.0203   12.9221   -0.1188 H   0  0  0  0  0  0  0  0  0  0  0  0
    2.5269   13.7339    1.4627 H   0  0  0  0  0  0  0  0  0  0  0  0
    2.0623   10.7096    0.7131 H   0  0  0  0  0  0  0  0  0  0  0  0
    1.5688   11.5172    2.2893 H   0  0  0  0  0  0  0  0  0  0  0  0
    6.9800   11.2222   -3.2417 H   0  0  0  0  0  0  0  0  0  0  0  0
    5.1096   13.2746   -1.9097 H   0  0  0  0  0  0  0  0  0  0  0  0
    4.5652   11.7894   -2.7407 H   0  0  0  0  0  0  0  0  0  0  0  0
    5.3775   13.0739   -3.6603 H   0  0  0  0  0  0  0  0  0  0  0  0
    7.6365   13.6202   -1.4371 H   0  0  0  0  0  0  0  0  0  0  0  0
    7.9233   13.5466   -3.1977 H   0  0  0  0  0  0  0  0  0  0  0  0
    8.8060   12.4482   -2.0981 H   0  0  0  0  0  0  0  0  0  0  0  0
    8.1834    8.9990   -1.5528 H   0  0  0  0  0  0  0  0  0  0  0  0
    7.1695    8.8666   -3.0183 H   0  0  0  0  0  0  0  0  0  0  0  0
    8.2626    1.6129    0.2128 H   0  0  0  0  0  0  0  0  0  0  0  0
    3.9788    0.8912   -1.0180 H   0  0  0  0  0  0  0  0  0  0  0  0
    3.0864   -1.2603   -0.1503 H   0  0  0  0  0  0  0  0  0  0  0  0
  1  2  1  0
  1 40  1  0
  1 41  1  0
  1 42  1  0
  2  3  2  0
  2 39  1  0
  3  4  1  0
  3 43  1  0
  4  5  1  0
  4 37  2  0
  5  6  2  0
  5 36  1  0
  6  7  1  0
  6 44  1  0
  7  8  2  0
  7 45  1  0
  9  8  1  1
  8 31  1  0
  9 10  2  0
  9 11  2  0
  9 12  1  0
 12 13  1  6
 12 14  1  0
 12 30  1  0
 14 15  1  0
 14 46  1  0
 14 47  1  0
 15 16  1  0
 15 24  1  0
 15 48  1  1
 16 17  2  0
 16 18  1  0
 18 19  1  0
 18 49  1  0
 19 20  1  1
 19 22  1  0
 19 23  1  0
 20 21  3  0
 22 23  1  0
 22 50  1  0
 22 51  1  0
 23 52  1  0
 23 53  1  0
 24 25  1  6
 24 26  1  0
 24 30  1  0
 26 27  1  0
 27 28  1  0
 27 29  1  0
 27 54  1  6
 28 55  1  0
 28 56  1  0
 28 57  1  0
 29 58  1  0
 29 59  1  0
 29 60  1  0
 30 61  1  0
 30 62  1  0
 31 32  1  0
 31 36  2  0
 32 33  1  6
 32 34  1  0
 32 35  1  0
 36 63  1  0
 37 38  1  0
 37 64  1  0
 38 39  2  0
 38 65  1  0
M  END

