
     RDKit          3D

 38 38  0  0  0  0  0  0  0  0999 V2000
    3.3315    3.0931    3.7563 C   0  0  0  0  0  0  0  0  0  0  0  0
    2.9435    2.2700    2.5278 C   0  0  0  0  0  0  0  0  0  0  0  0
    3.1036    3.0008    1.1887 C   0  0  0  0  0  0  0  0  0  0  0  0
    4.4795    3.4135    0.8883 N   0  0  0  0  0  0  0  0  0  0  0  0
    4.7741    4.8363    0.9180 C   0  0  0  0  0  0  0  0  0  0  0  0
    5.3280    2.4463    0.4007 C   0  0  0  0  0  0  0  0  0  0  0  0
    4.9336    1.3060    0.1846 O   0  0  0  0  0  0  0  0  0  0  0  0
    6.7852    2.7909    0.2019 C   0  0  0  0  0  0  0  0  0  0  0  0
    7.5280    3.2055    1.3205 C   0  0  0  0  0  0  0  0  0  0  0  0
    8.9252    3.3326    1.2804 C   0  0  0  0  0  0  0  0  0  0  0  0
    9.6544    3.6641    2.4191 N   0  0  0  0  0  0  0  0  0  0  0  0
    9.5695    3.0559    0.0580 C   0  0  0  0  0  0  0  0  0  0  0  0
    8.8331    2.6832   -1.0602 C   0  0  0  0  0  0  0  0  0  0  0  0
    7.4332    2.5317   -1.0269 C   0  0  0  0  0  0  0  0  0  0  0  0
    6.7781    2.1475   -2.2268 N   0  0  0  0  0  0  0  0  0  0  0  0
    6.8902    0.7480   -2.6086 C   0  0  0  0  0  0  0  0  0  0  0  0
    5.5101    2.7484   -2.5851 C   0  0  0  0  0  0  0  0  0  0  0  0
    3.1833    2.5175    4.6839 H   0  0  0  0  0  0  0  0  0  0  0  0
    2.7283    4.0138    3.8380 H   0  0  0  0  0  0  0  0  0  0  0  0
    4.3926    3.3898    3.7232 H   0  0  0  0  0  0  0  0  0  0  0  0
    1.8879    1.9550    2.6087 H   0  0  0  0  0  0  0  0  0  0  0  0
    3.5372    1.3429    2.4849 H   0  0  0  0  0  0  0  0  0  0  0  0
    2.4772    3.9076    1.1747 H   0  0  0  0  0  0  0  0  0  0  0  0
    2.7586    2.3379    0.3803 H   0  0  0  0  0  0  0  0  0  0  0  0
    4.0483    5.3932    0.2985 H   0  0  0  0  0  0  0  0  0  0  0  0
    5.7772    5.0285    0.5220 H   0  0  0  0  0  0  0  0  0  0  0  0
    4.7224    5.2442    1.9426 H   0  0  0  0  0  0  0  0  0  0  0  0
    7.0060    3.3888    2.2644 H   0  0  0  0  0  0  0  0  0  0  0  0
    9.1486    4.1600    3.1442 H   0  0  0  0  0  0  0  0  0  0  0  0
   10.5769    4.0520    2.2569 H   0  0  0  0  0  0  0  0  0  0  0  0
   10.6568    3.1534   -0.0145 H   0  0  0  0  0  0  0  0  0  0  0  0
    9.3418    2.5130   -2.0122 H   0  0  0  0  0  0  0  0  0  0  0  0
    7.9128    0.3844   -2.4309 H   0  0  0  0  0  0  0  0  0  0  0  0
    6.6739    0.6342   -3.6850 H   0  0  0  0  0  0  0  0  0  0  0  0
    6.1914    0.1011   -2.0396 H   0  0  0  0  0  0  0  0  0  0  0  0
    5.4843    3.7979   -2.2552 H   0  0  0  0  0  0  0  0  0  0  0  0
    4.6271    2.2267   -2.1652 H   0  0  0  0  0  0  0  0  0  0  0  0
    5.4025    2.7454   -3.6850 H   0  0  0  0  0  0  0  0  0  0  0  0
  1  2  1  0
  1 18  1  0
  1 19  1  0
  1 20  1  0
  2  3  1  0
  2 21  1  0
  2 22  1  0
  3  4  1  0
  3 23  1  0
  3 24  1  0
  4  5  1  0
  4  6  1  0
  5 25  1  0
  5 26  1  0
  5 27  1  0
  6  7  2  0
  6  8  1  0
  8  9  2  0
  8 14  1  0
  9 10  1  0
  9 28  1  0
 10 11  1  0
 10 12  2  0
 11 29  1  0
 11 30  1  0
 12 13  1  0
 12 31  1  0
 13 14  2  0
 13 32  1  0
 14 15  1  0
 15 16  1  0
 15 17  1  0
 16 33  1  0
 16 34  1  0
 16 35  1  0
 17 36  1  0
 17 37  1  0
 17 38  1  0
M  END

