
     RDKit          3D

 44 45  0  0  0  0  0  0  0  0999 V2000
    2.0546    0.3866   -1.2844 C   0  0  0  0  0  0  0  0  0  0  0  0
    1.6332    0.7427    0.0123 O   0  0  0  0  0  0  0  0  0  0  0  0
    2.5629    1.0212    0.9604 C   0  0  0  0  0  0  0  0  0  0  0  0
    3.9493    0.9836    0.7541 C   0  0  0  0  0  0  0  0  0  0  0  0
    4.8153    1.2869    1.8124 C   0  0  0  0  0  0  0  0  0  0  0  0
    4.3370    1.6326    3.0797 C   0  0  0  0  0  0  0  0  0  0  0  0
    5.3066    2.0310    4.1832 C   0  0  1  0  0  0  0  0  0  0  0  0
    5.5126    3.5715    4.2550 C   0  0  0  0  0  0  0  0  0  0  0  0
    5.7127    3.8727    5.7433 C   0  0  0  0  0  0  0  0  0  0  0  0
    4.7640    2.8768    6.4109 C   0  0  0  0  0  0  0  0  0  0  0  0
    4.8757    1.6898    5.5544 N   0  0  0  0  0  0  0  0  0  0  0  0
    4.7404    0.4391    6.1181 C   0  0  0  0  0  0  0  0  0  0  0  0
    4.3371    0.3203    7.2652 O   0  0  0  0  0  0  0  0  0  0  0  0
    5.1790   -0.7568    5.2518 C   0  0  1  0  0  0  0  0  0  0  0  0
    4.8495   -0.5417    4.2169 H   0  0  0  0  0  0  0  0  0  0  0  0
    6.6414   -0.8719    5.3553 N   0  0  0  0  0  0  0  0  0  0  0  0
    4.5087   -2.1002    5.6347 C   0  0  1  0  0  0  0  0  0  0  0  0
    4.9266   -2.6534    7.0032 C   0  0  0  0  0  0  0  0  0  0  0  0
    2.9839   -2.0292    5.4829 C   0  0  0  0  0  0  0  0  0  0  0  0
    2.9437    1.6658    3.2700 C   0  0  0  0  0  0  0  0  0  0  0  0
    2.0689    1.3636    2.2327 C   0  0  0  0  0  0  0  0  0  0  0  0
    1.1442    0.2097   -1.8726 H   0  0  0  0  0  0  0  0  0  0  0  0
    2.6623   -0.5367   -1.2814 H   0  0  0  0  0  0  0  0  0  0  0  0
    2.6385    1.1931   -1.7643 H   0  0  0  0  0  0  0  0  0  0  0  0
    4.3673    0.7154   -0.2164 H   0  0  0  0  0  0  0  0  0  0  0  0
    5.8948    1.2460    1.6355 H   0  0  0  0  0  0  0  0  0  0  0  0
    6.2757    1.5472    3.9657 H   0  0  0  0  0  0  0  0  0  0  0  0
    4.6018    4.0721    3.8898 H   0  0  0  0  0  0  0  0  0  0  0  0
    6.3439    3.8987    3.6131 H   0  0  0  0  0  0  0  0  0  0  0  0
    5.4915    4.9186    6.0040 H   0  0  0  0  0  0  0  0  0  0  0  0
    6.7516    3.6622    6.0484 H   0  0  0  0  0  0  0  0  0  0  0  0
    3.7260    3.2598    6.4289 H   0  0  0  0  0  0  0  0  0  0  0  0
    5.0266    2.6092    7.4428 H   0  0  0  0  0  0  0  0  0  0  0  0
    7.1041    0.0200    5.1876 H   0  0  0  0  0  0  0  0  0  0  0  0
    6.9907   -1.5226    4.6512 H   0  0  0  0  0  0  0  0  0  0  0  0
    4.8785   -2.8109    4.8684 H   0  0  0  0  0  0  0  0  0  0  0  0
    4.5271   -2.0305    7.8144 H   0  0  0  0  0  0  0  0  0  0  0  0
    6.0219   -2.6690    7.0977 H   0  0  0  0  0  0  0  0  0  0  0  0
    4.5507   -3.6828    7.1269 H   0  0  0  0  0  0  0  0  0  0  0  0
    2.5460   -1.3621    6.2414 H   0  0  0  0  0  0  0  0  0  0  0  0
    2.5343   -3.0266    5.6139 H   0  0  0  0  0  0  0  0  0  0  0  0
    2.6881   -1.6582    4.4871 H   0  0  0  0  0  0  0  0  0  0  0  0
    2.5392    1.9193    4.2531 H   0  0  0  0  0  0  0  0  0  0  0  0
    0.9871    1.3816    2.3797 H   0  0  0  0  0  0  0  0  0  0  0  0
  1  2  1  0
  1 22  1  0
  1 23  1  0
  1 24  1  0
  2  3  1  0
  3  4  2  0
  3 21  1  0
  4  5  1  0
  4 25  1  0
  5  6  2  0
  5 26  1  0
  6  7  1  0
  6 20  1  0
  7  8  1  0
  7 11  1  0
  7 27  1  6
  8  9  1  0
  8 28  1  0
  8 29  1  0
  9 10  1  0
  9 30  1  0
  9 31  1  0
 10 11  1  0
 10 32  1  0
 10 33  1  0
 11 12  1  0
 12 13  2  0
 12 14  1  0
 14 15  1  6
 14 16  1  0
 14 17  1  0
 16 34  1  0
 16 35  1  0
 17 18  1  0
 17 19  1  0
 17 36  1  6
 18 37  1  0
 18 38  1  0
 18 39  1  0
 19 40  1  0
 19 41  1  0
 19 42  1  0
 20 21  2  0
 20 43  1  0
 21 44  1  0
M  END

