
     RDKit          3D

 25 26  0  0  0  0  0  0  0  0999 V2000
    3.2636    3.0564    0.2517 C   0  0  0  0  0  0  0  0  0  0  0  0
    3.6416    1.6086    0.3302 C   0  0  0  0  0  0  0  0  0  0  0  0
    2.8430    0.5300    0.6280 C   0  0  0  0  0  0  0  0  0  0  0  0
    3.5355   -0.7167    0.6114 C   0  0  0  0  0  0  0  0  0  0  0  0
    4.8711   -0.5936    0.3001 C   0  0  0  0  0  0  0  0  0  0  0  0
    5.9115   -1.6508    0.1537 C   0  0  1  0  0  0  0  0  0  0  0  0
    7.2939   -1.5010    1.6505 Br  0  0  0  0  0  0  0  0  0  0  0  0
    5.3864   -3.0637    0.0836 C   0  0  0  0  0  0  0  0  0  0  0  0
    4.8460   -3.7198    1.2007 C   0  0  0  0  0  0  0  0  0  0  0  0
    4.3307   -5.0121    1.0867 C   0  0  0  0  0  0  0  0  0  0  0  0
    4.3534   -5.6618   -0.1444 C   0  0  0  0  0  0  0  0  0  0  0  0
    3.8698   -6.8994   -0.2708 F   0  0  0  0  0  0  0  0  0  0  0  0
    4.8961   -5.0197   -1.2606 C   0  0  0  0  0  0  0  0  0  0  0  0
    4.9206   -5.6564   -2.4344 F   0  0  0  0  0  0  0  0  0  0  0  0
    5.4102   -3.7319   -1.1501 C   0  0  0  0  0  0  0  0  0  0  0  0
    5.2765    1.0866    0.0254 S   0  0  0  0  0  0  0  0  0  0  0  0
    2.2015    3.1806    0.5091 H   0  0  0  0  0  0  0  0  0  0  0  0
    3.4167    3.4670   -0.7605 H   0  0  0  0  0  0  0  0  0  0  0  0
    3.8554    3.6736    0.9479 H   0  0  0  0  0  0  0  0  0  0  0  0
    1.7790    0.6278    0.8519 H   0  0  0  0  0  0  0  0  0  0  0  0
    3.0569   -1.6758    0.8076 H   0  0  0  0  0  0  0  0  0  0  0  0
    6.5402   -1.4474   -0.7207 H   0  0  0  0  0  0  0  0  0  0  0  0
    4.8517   -3.2240    2.1727 H   0  0  0  0  0  0  0  0  0  0  0  0
    3.9131   -5.5385    1.9474 H   0  0  0  0  0  0  0  0  0  0  0  0
    5.8256   -3.2647   -2.0458 H   0  0  0  0  0  0  0  0  0  0  0  0
  1  2  1  0
  1 17  1  0
  1 18  1  0
  1 19  1  0
  2  3  2  0
  2 16  1  0
  3  4  1  0
  3 20  1  0
  4  5  2  0
  4 21  1  0
  5  6  1  0
  5 16  1  0
  6  7  1  0
  6  8  1  0
  6 22  1  6
  8  9  2  0
  8 15  1  0
  9 10  1  0
  9 23  1  0
 10 11  2  0
 10 24  1  0
 11 12  1  0
 11 13  1  0
 13 14  1  0
 13 15  2  0
 15 25  1  0
M  END

