
     RDKit          3D

 24 24  0  0  0  0  0  0  0  0999 V2000
    1.0799    0.3331    0.0349 C   0  0  0  0  0  0  0  0  0  0  0  0
    2.5775    0.2208   -0.0673 C   0  0  0  0  0  0  0  0  0  0  0  0
    3.3711    1.3383   -0.4113 C   0  0  0  0  0  0  0  0  0  0  0  0
    2.6222    2.8775   -0.7681 Cl  0  0  0  0  0  0  0  0  0  0  0  0
    4.7649    1.2777   -0.4982 C   0  0  0  0  0  0  0  0  0  0  0  0
    5.4081    0.0747   -0.2195 C   0  0  0  0  0  0  0  0  0  0  0  0
    7.2017   -0.0160   -0.3144 S   0  0  1  0  0  0  0  0  0  0  0  0
    7.5681   -1.3565   -0.7701 O   0  0  0  0  0  0  0  0  0  0  0  0
    7.6526    1.2090   -0.9859 O   0  0  0  0  0  0  0  0  0  0  0  0
    7.6872    0.0511    1.3254 N   0  0  0  0  0  0  0  0  0  0  0  0
    8.0321    1.2885    1.8613 N   0  0  0  0  0  0  0  0  0  0  0  0
    4.6849   -1.0641    0.1209 C   0  0  0  0  0  0  0  0  0  0  0  0
    3.2960   -0.9720    0.1745 C   0  0  0  0  0  0  0  0  0  0  0  0
    2.5887   -2.2362    0.4955 N   0  0  0  0  0  0  0  0  0  0  0  0
    1.4819   -2.4073    0.0124 O   0  0  0  0  0  0  0  0  0  0  0  0
    3.1767   -3.0342    1.2041 O   0  0  0  0  0  0  0  0  0  0  0  0
    0.7912    1.3709    0.2389 H   0  0  0  0  0  0  0  0  0  0  0  0
    0.6719   -0.3219    0.8133 H   0  0  0  0  0  0  0  0  0  0  0  0
    0.6067    0.0250   -0.9113 H   0  0  0  0  0  0  0  0  0  0  0  0
    5.3421    2.1547   -0.7920 H   0  0  0  0  0  0  0  0  0  0  0  0
    8.4040   -0.6674    1.4535 H   0  0  0  0  0  0  0  0  0  0  0  0
    7.2005    1.7556    2.2210 H   0  0  0  0  0  0  0  0  0  0  0  0
    8.4845    1.8891    1.1666 H   0  0  0  0  0  0  0  0  0  0  0  0
    5.1770   -2.0130    0.3311 H   0  0  0  0  0  0  0  0  0  0  0  0
  1  2  1  0
  1 17  1  0
  1 18  1  0
  1 19  1  0
  2  3  2  0
  2 13  1  0
  3  4  1  0
  3  5  1  0
  5  6  2  0
  5 20  1  0
  6  7  1  0
  6 12  1  0
  7  8  2  0
  7  9  2  0
  7 10  1  1
 10 11  1  0
 10 21  1  0
 11 22  1  0
 11 23  1  0
 12 13  2  0
 12 24  1  0
 13 14  1  0
 14 15  2  0
 14 16  1  0
M  CHG  2  14   1  16  -1
M  END

