
     RDKit          3D

 35 36  0  0  0  0  0  0  0  0999 V2000
    2.5023    0.7895    2.2243 C   0  0  0  0  0  0  0  0  0  0  0  0
    3.1270    0.4188    0.9520 N   0  0  0  0  0  0  0  0  0  0  0  0
    3.1485    1.2785   -0.1299 C   0  0  0  0  0  0  0  0  0  0  0  0
    2.4808    2.6243    0.0046 C   0  0  0  0  0  0  0  0  0  0  0  0
    1.0765    2.4421    0.0748 O   0  0  0  0  0  0  0  0  0  0  0  0
    0.2617    3.5314    0.1497 C   0  0  0  0  0  0  0  0  0  0  0  0
   -1.1170    3.2641    0.2038 C   0  0  0  0  0  0  0  0  0  0  0  0
   -2.0262    4.3130    0.3109 C   0  0  0  0  0  0  0  0  0  0  0  0
   -1.5829    5.6383    0.3624 C   0  0  0  0  0  0  0  0  0  0  0  0
   -0.2140    5.9111    0.2821 C   0  0  0  0  0  0  0  0  0  0  0  0
    0.2226    7.3505    0.3456 C   0  0  0  0  0  0  0  0  0  0  0  0
   -0.4430    8.2208    0.8382 O   0  0  0  0  0  0  0  0  0  0  0  0
    1.4338    7.6333   -0.1920 O   0  0  0  0  0  0  0  0  0  0  0  0
    0.7144    4.8567    0.1837 C   0  0  0  0  0  0  0  0  0  0  0  0
    3.7618    0.9331   -1.2901 C   0  0  0  0  0  0  0  0  0  0  0  0
    4.4243   -0.3524   -1.4520 C   0  0  0  0  0  0  0  0  0  0  0  0
    4.9912   -0.7134   -2.4665 O   0  0  0  0  0  0  0  0  0  0  0  0
    4.3547   -1.1810   -0.3068 N   0  0  0  0  0  0  0  0  0  0  0  0
    4.9843   -2.5006   -0.3567 C   0  0  0  0  0  0  0  0  0  0  0  0
    3.7416   -0.8473    0.8948 C   0  0  0  0  0  0  0  0  0  0  0  0
    3.7377   -1.6066    1.8439 O   0  0  0  0  0  0  0  0  0  0  0  0
    1.4761    1.1379    2.0562 H   0  0  0  0  0  0  0  0  0  0  0  0
    3.0796    1.5779    2.7340 H   0  0  0  0  0  0  0  0  0  0  0  0
    2.4971   -0.1030    2.8580 H   0  0  0  0  0  0  0  0  0  0  0  0
    2.7487    3.2315   -0.8756 H   0  0  0  0  0  0  0  0  0  0  0  0
    2.8460    3.1536    0.9044 H   0  0  0  0  0  0  0  0  0  0  0  0
   -1.4463    2.2238    0.1659 H   0  0  0  0  0  0  0  0  0  0  0  0
   -3.0956    4.0937    0.3582 H   0  0  0  0  0  0  0  0  0  0  0  0
   -2.2804    6.4712    0.4614 H   0  0  0  0  0  0  0  0  0  0  0  0
    1.7577    6.8795   -0.7044 H   0  0  0  0  0  0  0  0  0  0  0  0
    1.7835    5.0732    0.1807 H   0  0  0  0  0  0  0  0  0  0  0  0
    3.7745    1.6028   -2.1483 H   0  0  0  0  0  0  0  0  0  0  0  0
    5.4075   -2.6229   -1.3588 H   0  0  0  0  0  0  0  0  0  0  0  0
    4.2398   -3.2831   -0.1521 H   0  0  0  0  0  0  0  0  0  0  0  0
    5.7727   -2.5755    0.4061 H   0  0  0  0  0  0  0  0  0  0  0  0
  1  2  1  0
  1 22  1  0
  1 23  1  0
  1 24  1  0
  2  3  1  0
  2 20  1  0
  3  4  1  0
  3 15  2  0
  4  5  1  0
  4 25  1  0
  4 26  1  0
  5  6  1  0
  6  7  2  0
  6 14  1  0
  7  8  1  0
  7 27  1  0
  8  9  2  0
  8 28  1  0
  9 10  1  0
  9 29  1  0
 10 11  1  0
 10 14  2  0
 11 12  2  0
 11 13  1  0
 13 30  1  0
 14 31  1  0
 15 16  1  0
 15 32  1  0
 16 17  2  0
 16 18  1  0
 18 19  1  0
 18 20  1  0
 19 33  1  0
 19 34  1  0
 19 35  1  0
 20 21  2  0
M  END

