
     RDKit          3D

 48 48  0  0  0  0  0  0  0  0999 V2000
    4.0792   -1.1501   -1.4669 C   0  0  0  0  0  0  0  0  0  0  0  0
    3.9088   -2.2265   -0.4099 C   0  0  0  0  0  0  0  0  0  0  0  0
    3.8160   -1.6709    0.9174 O   0  0  0  0  0  0  0  0  0  0  0  0
    5.1329   -1.2758    1.7925 P   0  0  1  0  0  0  0  0  0  0  0  0
    6.4214   -1.5384    1.0915 O   0  0  0  0  0  0  0  0  0  0  0  0
    4.8265    0.4361    2.3204 C   0  0  0  0  0  0  0  0  0  0  0  0
    3.3831    0.8047    2.6832 C   0  0  1  0  0  0  0  0  0  0  0  0
    2.7364    0.5389    1.8337 H   0  0  0  0  0  0  0  0  0  0  0  0
    2.8188    0.1420    3.9537 C   0  0  0  0  0  0  0  0  0  0  0  0
    1.7576    1.1442    4.3854 C   0  0  2  0  0  0  0  0  0  0  0  0
    0.5507    0.9831    3.5972 O   0  0  0  0  0  0  0  0  0  0  0  0
   -0.3845    0.1211    4.0518 C   0  0  0  0  0  0  0  0  0  0  0  0
   -1.5950    0.1086    3.1514 C   0  0  0  0  0  0  0  0  0  0  0  0
   -0.2456   -0.5411    5.0511 O   0  0  0  0  0  0  0  0  0  0  0  0
    2.2801    2.3962    4.0930 O   0  0  0  0  0  0  0  0  0  0  0  0
    3.1967    2.3148    2.9917 C   0  0  2  0  0  0  0  0  0  0  0  0
    4.1492    2.7696    3.3187 H   0  0  0  0  0  0  0  0  0  0  0  0
    2.6156    3.1474    1.8496 C   0  0  0  0  0  0  0  0  0  0  0  0
    3.5675    3.2791    0.7827 O   0  0  0  0  0  0  0  0  0  0  0  0
    3.3216    2.6607   -0.3946 C   0  0  0  0  0  0  0  0  0  0  0  0
    4.4195    2.9410   -1.3905 C   0  0  0  0  0  0  0  0  0  0  0  0
    2.3631    1.9560   -0.5985 O   0  0  0  0  0  0  0  0  0  0  0  0
    4.9218   -2.0719    3.1934 O   0  0  0  0  0  0  0  0  0  0  0  0
    5.1799   -3.4850    3.2756 C   0  0  0  0  0  0  0  0  0  0  0  0
    5.3708   -3.8631    4.7305 C   0  0  0  0  0  0  0  0  0  0  0  0
    4.0485   -1.6025   -2.4716 H   0  0  0  0  0  0  0  0  0  0  0  0
    5.0567   -0.6560   -1.3501 H   0  0  0  0  0  0  0  0  0  0  0  0
    3.2823   -0.3935   -1.3990 H   0  0  0  0  0  0  0  0  0  0  0  0
    4.7444   -2.9429   -0.4491 H   0  0  0  0  0  0  0  0  0  0  0  0
    2.9682   -2.7799   -0.5541 H   0  0  0  0  0  0  0  0  0  0  0  0
    5.1815    1.0539    1.4800 H   0  0  0  0  0  0  0  0  0  0  0  0
    5.5151    0.6275    3.1608 H   0  0  0  0  0  0  0  0  0  0  0  0
    3.5887    0.0753    4.7391 H   0  0  0  0  0  0  0  0  0  0  0  0
    2.4197   -0.8664    3.7913 H   0  0  0  0  0  0  0  0  0  0  0  0
    1.4795    1.0960    5.4463 H   0  0  0  0  0  0  0  0  0  0  0  0
   -2.0332    1.1172    3.0998 H   0  0  0  0  0  0  0  0  0  0  0  0
   -2.3331   -0.6043    3.5374 H   0  0  0  0  0  0  0  0  0  0  0  0
   -1.2988   -0.1686    2.1280 H   0  0  0  0  0  0  0  0  0  0  0  0
    2.4055    4.1638    2.2136 H   0  0  0  0  0  0  0  0  0  0  0  0
    1.6886    2.6920    1.4765 H   0  0  0  0  0  0  0  0  0  0  0  0
    4.8238    3.9541   -1.2634 H   0  0  0  0  0  0  0  0  0  0  0  0
    4.0357    2.7956   -2.4079 H   0  0  0  0  0  0  0  0  0  0  0  0
    5.2415    2.2250   -1.2257 H   0  0  0  0  0  0  0  0  0  0  0  0
    6.0786   -3.7200    2.6814 H   0  0  0  0  0  0  0  0  0  0  0  0
    4.3250   -4.0272    2.8346 H   0  0  0  0  0  0  0  0  0  0  0  0
    6.2296   -3.3270    5.1626 H   0  0  0  0  0  0  0  0  0  0  0  0
    5.5567   -4.9453    4.8180 H   0  0  0  0  0  0  0  0  0  0  0  0
    4.4751   -3.6171    5.3215 H   0  0  0  0  0  0  0  0  0  0  0  0
  1  2  1  0
  1 26  1  0
  1 27  1  0
  1 28  1  0
  2  3  1  0
  2 29  1  0
  2 30  1  0
  4  3  1  6
  4  5  2  0
  4  6  1  0
  4 23  1  0
  6  7  1  0
  6 31  1  0
  6 32  1  0
  7  8  1  6
  7  9  1  0
  7 16  1  0
  9 10  1  0
  9 33  1  0
  9 34  1  0
 10 11  1  0
 10 15  1  0
 10 35  1  1
 11 12  1  0
 12 13  1  0
 12 14  2  0
 13 36  1  0
 13 37  1  0
 13 38  1  0
 15 16  1  0
 16 17  1  1
 16 18  1  0
 18 19  1  0
 18 39  1  0
 18 40  1  0
 19 20  1  0
 20 21  1  0
 20 22  2  0
 21 41  1  0
 21 42  1  0
 21 43  1  0
 23 24  1  0
 24 25  1  0
 24 44  1  0
 24 45  1  0
 25 46  1  0
 25 47  1  0
 25 48  1  0
M  END

