
     RDKit          3D

106113  0  0  0  0  0  0  0  0999 V2000
    1.9663    0.8551    3.2296 C   0  0  0  0  0  0  0  0  0  0  0  0
    3.2128    0.7341    2.3877 C   0  0  0  0  0  0  0  0  0  0  0  0
    3.1599    0.7668    0.9911 C   0  0  0  0  0  0  0  0  0  0  0  0
    4.3131    0.6700    0.1977 C   0  0  0  0  0  0  0  0  0  0  0  0
    4.1425    0.7375   -1.3061 C   0  0  0  0  0  0  0  0  0  0  0  0
    5.5851    0.5004    0.8088 C   0  0  0  0  0  0  0  0  0  0  0  0
    6.9080    0.3651   -0.0585 B   0  0  0  0  0  0  0  0  0  0  0  0
    7.2792    1.4547   -1.1505 C   0  0  0  0  0  0  0  0  0  0  0  0
    7.3000    2.8398   -0.8251 C   0  0  0  0  0  0  0  0  0  0  0  0
    6.9931    3.3518    0.5677 C   0  0  0  0  0  0  0  0  0  0  0  0
    7.6305    3.7888   -1.8044 C   0  0  0  0  0  0  0  0  0  0  0  0
    7.9144    3.4282   -3.1243 C   0  0  0  0  0  0  0  0  0  0  0  0
    8.2550    4.4598   -4.1714 C   0  0  0  0  0  0  0  0  0  0  0  0
    7.8739    2.0658   -3.4456 C   0  0  0  0  0  0  0  0  0  0  0  0
    7.5820    1.0823   -2.4935 C   0  0  0  0  0  0  0  0  0  0  0  0
    7.5845   -0.3598   -2.9572 C   0  0  0  0  0  0  0  0  0  0  0  0
    7.7914   -0.9251    0.1612 C   0  0  0  0  0  0  0  0  0  0  0  0
    7.1093   -2.1066    0.3604 C   0  0  0  0  0  0  0  0  0  0  0  0
    7.7403   -3.3941    0.4188 C   0  0  0  0  0  0  0  0  0  0  0  0
    6.9933   -4.5740    0.5901 C   0  0  0  0  0  0  0  0  0  0  0  0
    7.6353   -5.8082    0.6522 C   0  0  0  0  0  0  0  0  0  0  0  0
    9.0251   -5.8921    0.5389 C   0  0  0  0  0  0  0  0  0  0  0  0
    9.8230   -4.7447    0.3579 C   0  0  0  0  0  0  0  0  0  0  0  0
   11.2799   -4.8089    0.2642 C   0  0  0  0  0  0  0  0  0  0  0  0
   12.1430   -6.1261    0.1518 B   0  0  0  0  0  0  0  0  0  0  0  0
   11.6537   -7.3766   -0.6935 C   0  0  0  0  0  0  0  0  0  0  0  0
   11.1897   -7.2264   -2.0303 C   0  0  0  0  0  0  0  0  0  0  0  0
   11.1118   -5.8805   -2.7213 C   0  0  0  0  0  0  0  0  0  0  0  0
   10.7974   -8.3525   -2.7693 C   0  0  0  0  0  0  0  0  0  0  0  0
   10.8124   -9.6412   -2.2292 C   0  0  0  0  0  0  0  0  0  0  0  0
   10.3720  -10.8413   -3.0307 C   0  0  0  0  0  0  0  0  0  0  0  0
   11.2555   -9.7837   -0.9084 C   0  0  0  0  0  0  0  0  0  0  0  0
   11.6875   -8.6925   -0.1451 C   0  0  0  0  0  0  0  0  0  0  0  0
   12.1610   -8.9686    1.2675 C   0  0  0  0  0  0  0  0  0  0  0  0
   13.5635   -6.1303    0.8615 C   0  0  0  0  0  0  0  0  0  0  0  0
   13.6795   -5.8486    2.2495 C   0  0  0  0  0  0  0  0  0  0  0  0
   12.4775   -5.5372    3.1201 C   0  0  0  0  0  0  0  0  0  0  0  0
   14.9381   -5.8683    2.8692 C   0  0  0  0  0  0  0  0  0  0  0  0
   16.1124   -6.1275    2.1574 C   0  0  0  0  0  0  0  0  0  0  0  0
   17.4623   -6.1325    2.8319 C   0  0  0  0  0  0  0  0  0  0  0  0
   15.9955   -6.3882    0.7859 C   0  0  0  0  0  0  0  0  0  0  0  0
   14.7563   -6.4100    0.1347 C   0  0  0  0  0  0  0  0  0  0  0  0
   14.7409   -6.7196   -1.3480 C   0  0  0  0  0  0  0  0  0  0  0  0
   11.9693   -3.6176    0.1841 C   0  0  0  0  0  0  0  0  0  0  0  0
   11.3373   -2.3314    0.1094 C   0  0  0  0  0  0  0  0  0  0  0  0
   12.0877   -1.1469   -0.0056 C   0  0  0  0  0  0  0  0  0  0  0  0
   11.4458    0.0873   -0.0666 C   0  0  0  0  0  0  0  0  0  0  0  0
   10.0517    0.1656   -0.0213 C   0  0  0  0  0  0  0  0  0  0  0  0
    9.2493   -0.9878    0.0854 C   0  0  0  0  0  0  0  0  0  0  0  0
    9.9101   -2.2591    0.1609 C   0  0  0  0  0  0  0  0  0  0  0  0
    9.1636   -3.4715    0.3064 C   0  0  0  0  0  0  0  0  0  0  0  0
    5.6417    0.4504    2.2310 C   0  0  0  0  0  0  0  0  0  0  0  0
    6.9455    0.2744    2.9850 C   0  0  0  0  0  0  0  0  0  0  0  0
    4.4703    0.5834    2.9857 C   0  0  0  0  0  0  0  0  0  0  0  0
    1.0701    1.0039    2.6093 H   0  0  0  0  0  0  0  0  0  0  0  0
    2.0370    1.7037    3.9306 H   0  0  0  0  0  0  0  0  0  0  0  0
    1.8066   -0.0498    3.8402 H   0  0  0  0  0  0  0  0  0  0  0  0
    2.1889    0.8787    0.4987 H   0  0  0  0  0  0  0  0  0  0  0  0
    3.0777    0.7072   -1.5805 H   0  0  0  0  0  0  0  0  0  0  0  0
    4.6389   -0.0997   -1.8211 H   0  0  0  0  0  0  0  0  0  0  0  0
    4.5716    1.6620   -1.7224 H   0  0  0  0  0  0  0  0  0  0  0  0
    7.5642    2.8233    1.3465 H   0  0  0  0  0  0  0  0  0  0  0  0
    5.9288    3.2282    0.8206 H   0  0  0  0  0  0  0  0  0  0  0  0
    7.2366    4.4213    0.6514 H   0  0  0  0  0  0  0  0  0  0  0  0
    7.6590    4.8465   -1.5247 H   0  0  0  0  0  0  0  0  0  0  0  0
    8.2019    5.4816   -3.7674 H   0  0  0  0  0  0  0  0  0  0  0  0
    7.5671    4.3999   -5.0314 H   0  0  0  0  0  0  0  0  0  0  0  0
    9.2735    4.3067   -4.5671 H   0  0  0  0  0  0  0  0  0  0  0  0
    8.0824    1.7564   -4.4749 H   0  0  0  0  0  0  0  0  0  0  0  0
    8.4684   -0.9010   -2.5844 H   0  0  0  0  0  0  0  0  0  0  0  0
    6.7044   -0.9205   -2.6090 H   0  0  0  0  0  0  0  0  0  0  0  0
    7.6018   -0.4148   -4.0557 H   0  0  0  0  0  0  0  0  0  0  0  0
    6.0202   -2.0838    0.4585 H   0  0  0  0  0  0  0  0  0  0  0  0
    5.9055   -4.5087    0.6780 H   0  0  0  0  0  0  0  0  0  0  0  0
    7.0508   -6.7213    0.7908 H   0  0  0  0  0  0  0  0  0  0  0  0
    9.5031   -6.8701    0.5883 H   0  0  0  0  0  0  0  0  0  0  0  0
   12.0184   -5.2743   -2.5774 H   0  0  0  0  0  0  0  0  0  0  0  0
   10.2700   -5.2810   -2.3403 H   0  0  0  0  0  0  0  0  0  0  0  0
   10.9641   -6.0076   -3.8040 H   0  0  0  0  0  0  0  0  0  0  0  0
   10.4637   -8.2139   -3.8023 H   0  0  0  0  0  0  0  0  0  0  0  0
   10.0498  -10.5573   -4.0434 H   0  0  0  0  0  0  0  0  0  0  0  0
    9.5308  -11.3617   -2.5424 H   0  0  0  0  0  0  0  0  0  0  0  0
   11.1874  -11.5776   -3.1300 H   0  0  0  0  0  0  0  0  0  0  0  0
   11.2726  -10.7814   -0.4579 H   0  0  0  0  0  0  0  0  0  0  0  0
   11.9509  -10.0102    1.5519 H   0  0  0  0  0  0  0  0  0  0  0  0
   11.6701   -8.3202    2.0099 H   0  0  0  0  0  0  0  0  0  0  0  0
   13.2440   -8.8021    1.3732 H   0  0  0  0  0  0  0  0  0  0  0  0
   11.5872   -6.1238    2.8506 H   0  0  0  0  0  0  0  0  0  0  0  0
   12.1878   -4.4771    3.0391 H   0  0  0  0  0  0  0  0  0  0  0  0
   12.7000   -5.7393    4.1788 H   0  0  0  0  0  0  0  0  0  0  0  0
   15.0005   -5.6714    3.9442 H   0  0  0  0  0  0  0  0  0  0  0  0
   17.3816   -5.8985    3.9038 H   0  0  0  0  0  0  0  0  0  0  0  0
   18.1407   -5.3924    2.3749 H   0  0  0  0  0  0  0  0  0  0  0  0
   17.9536   -7.1157    2.7375 H   0  0  0  0  0  0  0  0  0  0  0  0
   16.9008   -6.5882    0.2036 H   0  0  0  0  0  0  0  0  0  0  0  0
   15.7637   -6.7524   -1.7513 H   0  0  0  0  0  0  0  0  0  0  0  0
   14.1833   -5.9657   -1.9257 H   0  0  0  0  0  0  0  0  0  0  0  0
   14.2650   -7.6904   -1.5558 H   0  0  0  0  0  0  0  0  0  0  0  0
   13.0623   -3.6351    0.1512 H   0  0  0  0  0  0  0  0  0  0  0  0
   13.1787   -1.2081   -0.0418 H   0  0  0  0  0  0  0  0  0  0  0  0
   12.0336    1.0050   -0.1505 H   0  0  0  0  0  0  0  0  0  0  0  0
    9.5737    1.1435   -0.0732 H   0  0  0  0  0  0  0  0  0  0  0  0
    7.7857    0.8124    2.5221 H   0  0  0  0  0  0  0  0  0  0  0  0
    7.2427   -0.7856    3.0302 H   0  0  0  0  0  0  0  0  0  0  0  0
    6.8497    0.6362    4.0199 H   0  0  0  0  0  0  0  0  0  0  0  0
    4.5411    0.5661    4.0783 H   0  0  0  0  0  0  0  0  0  0  0  0
  1  2  1  0
  1 55  1  0
  1 56  1  0
  1 57  1  0
  2  3  2  0
  2 54  1  0
  3  4  1  0
  3 58  1  0
  4  5  1  0
  4  6  2  0
  5 59  1  0
  5 60  1  0
  5 61  1  0
  6  7  1  0
  6 52  1  0
  7  8  1  0
  7 17  1  0
  8  9  2  0
  8 15  1  0
  9 10  1  0
  9 11  1  0
 10 62  1  0
 10 63  1  0
 10 64  1  0
 11 12  2  0
 11 65  1  0
 12 13  1  0
 12 14  1  0
 13 66  1  0
 13 67  1  0
 13 68  1  0
 14 15  2  0
 14 69  1  0
 15 16  1  0
 16 70  1  0
 16 71  1  0
 16 72  1  0
 17 18  2  0
 17 49  1  0
 18 19  1  0
 18 73  1  0
 19 20  2  0
 19 51  1  0
 20 21  1  0
 20 74  1  0
 21 22  2  0
 21 75  1  0
 22 23  1  0
 22 76  1  0
 23 24  1  0
 23 51  2  0
 24 25  1  0
 24 44  2  0
 25 26  1  0
 25 35  1  0
 26 27  2  0
 26 33  1  0
 27 28  1  0
 27 29  1  0
 28 77  1  0
 28 78  1  0
 28 79  1  0
 29 30  2  0
 29 80  1  0
 30 31  1  0
 30 32  1  0
 31 81  1  0
 31 82  1  0
 31 83  1  0
 32 33  2  0
 32 84  1  0
 33 34  1  0
 34 85  1  0
 34 86  1  0
 34 87  1  0
 35 36  2  0
 35 42  1  0
 36 37  1  0
 36 38  1  0
 37 88  1  0
 37 89  1  0
 37 90  1  0
 38 39  2  0
 38 91  1  0
 39 40  1  0
 39 41  1  0
 40 92  1  0
 40 93  1  0
 40 94  1  0
 41 42  2  0
 41 95  1  0
 42 43  1  0
 43 96  1  0
 43 97  1  0
 43 98  1  0
 44 45  1  0
 44 99  1  0
 45 46  1  0
 45 50  2  0
 46 47  2  0
 46100  1  0
 47 48  1  0
 47101  1  0
 48 49  2  0
 48102  1  0
 49 50  1  0
 50 51  1  0
 52 53  1  0
 52 54  2  0
 53103  1  0
 53104  1  0
 53105  1  0
 54106  1  0
M  END

