
     RDKit          3D

 37 38  0  0  0  0  0  0  0  0999 V2000
    1.1987    0.5172    0.8762 C   0  0  0  0  0  0  0  0  0  0  0  0
    2.5981    0.2283    0.3938 C   0  0  0  0  0  0  0  0  0  0  0  0
    3.4568    1.3110    0.1550 C   0  0  0  0  0  0  0  0  0  0  0  0
    4.7997    1.1234   -0.1655 C   0  0  0  0  0  0  0  0  0  0  0  0
    5.3001   -0.1715   -0.2542 C   0  0  0  0  0  0  0  0  0  0  0  0
    4.4567   -1.2807   -0.0851 C   0  0  0  0  0  0  0  0  0  0  0  0
    5.1017   -2.6223   -0.2802 C   0  0  0  0  0  0  0  0  0  0  0  0
    4.6065   -3.3662   -1.2883 N   0  0  0  0  0  0  0  0  0  0  0  0
    6.3845   -3.1383    0.6444 S   0  0  0  0  0  0  0  0  0  0  0  0
    3.0780   -1.1034    0.2422 C   0  0  0  0  0  0  0  0  0  0  0  0
    2.2353   -2.2113    0.5122 N   0  0  0  0  0  0  0  0  0  0  0  0
    2.5846   -3.1819    1.5544 C   0  0  0  0  0  0  0  0  0  0  0  0
    1.9283   -4.5154    1.1186 C   0  0  0  0  0  0  0  0  0  0  0  0
    1.4103   -4.2467   -0.3025 C   0  0  0  0  0  0  0  0  0  0  0  0
    1.1172   -2.7233   -0.3237 C   0  0  1  0  0  0  0  0  0  0  0  0
   -0.2735   -2.4815    0.3138 C   0  0  0  0  0  0  0  0  0  0  0  0
    1.1225   -2.1445   -1.7410 C   0  0  0  0  0  0  0  0  0  0  0  0
    1.1420    1.5257    1.3113 H   0  0  0  0  0  0  0  0  0  0  0  0
    0.8860   -0.2111    1.6375 H   0  0  0  0  0  0  0  0  0  0  0  0
    0.4552    0.4763    0.0626 H   0  0  0  0  0  0  0  0  0  0  0  0
    3.0661    2.3262    0.2700 H   0  0  0  0  0  0  0  0  0  0  0  0
    5.4583    1.9812   -0.3209 H   0  0  0  0  0  0  0  0  0  0  0  0
    6.3561   -0.3488   -0.4666 H   0  0  0  0  0  0  0  0  0  0  0  0
    3.8924   -3.0059   -1.9089 H   0  0  0  0  0  0  0  0  0  0  0  0
    5.0319   -4.2662   -1.4838 H   0  0  0  0  0  0  0  0  0  0  0  0
    2.2050   -2.8653    2.5458 H   0  0  0  0  0  0  0  0  0  0  0  0
    3.6756   -3.2744    1.6590 H   0  0  0  0  0  0  0  0  0  0  0  0
    1.0999   -4.7813    1.7929 H   0  0  0  0  0  0  0  0  0  0  0  0
    2.6436   -5.3507    1.1476 H   0  0  0  0  0  0  0  0  0  0  0  0
    0.5263   -4.8500   -0.5620 H   0  0  0  0  0  0  0  0  0  0  0  0
    2.1955   -4.4736   -1.0392 H   0  0  0  0  0  0  0  0  0  0  0  0
   -0.2960   -2.8166    1.3620 H   0  0  0  0  0  0  0  0  0  0  0  0
   -1.0476   -3.0431   -0.2339 H   0  0  0  0  0  0  0  0  0  0  0  0
   -0.5560   -1.4219    0.2960 H   0  0  0  0  0  0  0  0  0  0  0  0
    2.0652   -2.3469   -2.2723 H   0  0  0  0  0  0  0  0  0  0  0  0
    0.9745   -1.0545   -1.7398 H   0  0  0  0  0  0  0  0  0  0  0  0
    0.3090   -2.5938   -2.3312 H   0  0  0  0  0  0  0  0  0  0  0  0
  1  2  1  0
  1 18  1  0
  1 19  1  0
  1 20  1  0
  2  3  2  0
  2 10  1  0
  3  4  1  0
  3 21  1  0
  4  5  2  0
  4 22  1  0
  5  6  1  0
  5 23  1  0
  6  7  1  0
  6 10  2  0
  7  8  1  0
  7  9  2  0
  8 24  1  0
  8 25  1  0
 10 11  1  0
 11 12  1  0
 11 15  1  0
 12 13  1  0
 12 26  1  0
 12 27  1  0
 13 14  1  0
 13 28  1  0
 13 29  1  0
 14 15  1  0
 14 30  1  0
 14 31  1  0
 15 16  1  1
 15 17  1  0
 16 32  1  0
 16 33  1  0
 16 34  1  0
 17 35  1  0
 17 36  1  0
 17 37  1  0
M  END

