
     RDKit          3D

 41 41  0  0  0  0  0  0  0  0999 V2000
    4.4578   -1.7262   -2.5873 C   0  0  0  0  0  0  0  0  0  0  0  0
    3.2223   -1.8523   -1.6949 C   0  0  0  0  0  0  0  0  0  0  0  0
    2.9692   -0.6095   -0.8279 C   0  0  1  0  0  0  0  0  0  0  0  0
    2.8515    0.5612   -1.6551 O   0  0  0  0  0  0  0  0  0  0  0  0
    1.6139    1.0878   -2.0298 C   0  0  1  0  0  0  0  0  0  0  0  0
    1.8220    2.5642   -2.3392 C   0  0  0  0  0  0  0  0  0  0  0  0
    1.0282    0.3613   -3.1911 N   0  0  0  0  0  0  0  0  0  0  0  0
    1.7302    0.2772   -4.3779 C   0  0  0  0  0  0  0  0  0  0  0  0
    1.2833   -0.3610   -5.4885 C   0  0  0  0  0  0  0  0  0  0  0  0
    2.0501   -0.4494   -6.7747 C   0  0  0  0  0  0  0  0  0  0  0  0
   -0.0325   -1.0078   -5.4302 C   0  0  0  0  0  0  0  0  0  0  0  0
   -0.5662   -1.6115   -6.3416 O   0  0  0  0  0  0  0  0  0  0  0  0
   -0.6698   -0.8820   -4.1838 N   0  0  0  0  0  0  0  0  0  0  0  0
   -1.5845   -1.3197   -4.1032 H   0  0  0  0  0  0  0  0  0  0  0  0
   -0.2254   -0.2334   -3.0460 C   0  0  0  0  0  0  0  0  0  0  0  0
   -0.8791   -0.1983   -2.0175 O   0  0  0  0  0  0  0  0  0  0  0  0
    1.8240   -0.7842    0.1878 C   0  0  1  0  0  0  0  0  0  0  0  0
    2.0898   -1.9343    1.1650 C   0  0  0  0  0  0  0  0  0  0  0  0
    1.7092    0.4537    0.8787 O   0  0  0  0  0  0  0  0  0  0  0  0
    0.4837    0.6672    1.5403 C   0  0  0  0  0  0  0  0  0  0  0  0
    4.5906   -2.6250   -3.2095 H   0  0  0  0  0  0  0  0  0  0  0  0
    5.3711   -1.5988   -1.9825 H   0  0  0  0  0  0  0  0  0  0  0  0
    4.3837   -0.8564   -3.2555 H   0  0  0  0  0  0  0  0  0  0  0  0
    3.3484   -2.7246   -1.0349 H   0  0  0  0  0  0  0  0  0  0  0  0
    2.3276   -2.0579   -2.3084 H   0  0  0  0  0  0  0  0  0  0  0  0
    3.8783   -0.4060   -0.2347 H   0  0  0  0  0  0  0  0  0  0  0  0
    0.8624    0.9865   -1.2426 H   0  0  0  0  0  0  0  0  0  0  0  0
    2.5958    2.7106   -3.1083 H   0  0  0  0  0  0  0  0  0  0  0  0
    2.1575    3.0693   -1.4227 H   0  0  0  0  0  0  0  0  0  0  0  0
    0.8839    3.0259   -2.6814 H   0  0  0  0  0  0  0  0  0  0  0  0
    2.7072    0.7633   -4.3579 H   0  0  0  0  0  0  0  0  0  0  0  0
    3.0194    0.0653   -6.7017 H   0  0  0  0  0  0  0  0  0  0  0  0
    1.4766   -0.0048   -7.6044 H   0  0  0  0  0  0  0  0  0  0  0  0
    2.2297   -1.5006   -7.0531 H   0  0  0  0  0  0  0  0  0  0  0  0
    0.8776   -0.9888   -0.3508 H   0  0  0  0  0  0  0  0  0  0  0  0
    3.0779   -1.8249    1.6403 H   0  0  0  0  0  0  0  0  0  0  0  0
    2.0408   -2.9151    0.6705 H   0  0  0  0  0  0  0  0  0  0  0  0
    1.3307   -1.9390    1.9610 H   0  0  0  0  0  0  0  0  0  0  0  0
    0.5069    1.6885    1.9483 H   0  0  0  0  0  0  0  0  0  0  0  0
    0.3240   -0.0329    2.3824 H   0  0  0  0  0  0  0  0  0  0  0  0
   -0.3763    0.5768    0.8487 H   0  0  0  0  0  0  0  0  0  0  0  0
  1  2  1  0
  1 21  1  0
  1 22  1  0
  1 23  1  0
  2  3  1  0
  2 24  1  0
  2 25  1  0
  3  4  1  0
  3 17  1  0
  3 26  1  1
  4  5  1  0
  5  6  1  0
  5  7  1  0
  5 27  1  1
  6 28  1  0
  6 29  1  0
  6 30  1  0
  7  8  1  0
  7 15  1  0
  8  9  2  0
  8 31  1  0
  9 10  1  0
  9 11  1  0
 10 32  1  0
 10 33  1  0
 10 34  1  0
 11 12  2  0
 11 13  1  0
 13 14  1  0
 13 15  1  0
 15 16  2  0
 17 18  1  0
 17 19  1  0
 17 35  1  6
 18 36  1  0
 18 37  1  0
 18 38  1  0
 19 20  1  0
 20 39  1  0
 20 40  1  0
 20 41  1  0
M  END

