
     RDKit          3D

 81 91  0  0  0  0  0  0  0  0999 V2000
    1.3201    2.0853   -1.0460 N   0  0  0  0  0  0  0  0  0  0  0  0
    2.4515    1.8494   -0.9322 C   0  0  0  0  0  0  0  0  0  0  0  0
    3.8500    1.5572   -0.7892 C   0  0  0  0  0  0  0  0  0  0  0  0
    4.6151    1.3145   -1.9226 C   0  0  0  0  0  0  0  0  0  0  0  0
    5.9884    1.0237   -1.8052 C   0  0  0  0  0  0  0  0  0  0  0  0
    6.5915    0.9768   -0.5622 C   0  0  0  0  0  0  0  0  0  0  0  0
    7.9843    0.6708   -0.4727 N   0  0  0  0  0  0  0  0  0  0  0  0
    8.5434   -0.6070   -0.3866 C   0  0  0  0  0  0  0  0  0  0  0  0
    7.8228   -1.8715   -0.3590 C   0  0  0  0  0  0  0  0  0  0  0  0
    8.4522   -3.1034   -0.2763 C   0  0  0  0  0  0  0  0  0  0  0  0
    7.5550   -4.1952   -0.2539 C   0  0  0  0  0  0  0  0  0  0  0  0
    6.2222   -3.8251   -0.3190 C   0  0  0  0  0  0  0  0  0  0  0  0
    5.0288   -4.6782   -0.3176 C   0  0  0  0  0  0  0  0  0  0  0  0
    5.1085   -6.0255    0.0932 C   0  0  0  0  0  0  0  0  0  0  0  0
    3.9891   -6.8529    0.0831 C   0  0  0  0  0  0  0  0  0  0  0  0
    2.7381   -6.3555   -0.3154 C   0  0  0  0  0  0  0  0  0  0  0  0
    1.5950   -7.1942   -0.3139 N   0  0  0  0  0  0  0  0  0  0  0  0
    1.1040   -7.9066    0.7861 C   0  0  0  0  0  0  0  0  0  0  0  0
    1.5709   -7.9423    2.1064 C   0  0  0  0  0  0  0  0  0  0  0  0
    0.8729   -8.7293    3.0236 C   0  0  0  0  0  0  0  0  0  0  0  0
   -0.2671   -9.4625    2.6441 C   0  0  0  0  0  0  0  0  0  0  0  0
   -0.7364   -9.4135    1.3322 C   0  0  0  0  0  0  0  0  0  0  0  0
   -0.0538   -8.6300    0.3905 C   0  0  0  0  0  0  0  0  0  0  0  0
   -0.2684   -8.3403   -1.0141 C   0  0  0  0  0  0  0  0  0  0  0  0
   -1.2215   -8.7590   -1.9538 C   0  0  0  0  0  0  0  0  0  0  0  0
   -1.1308   -8.2973   -3.2661 C   0  0  0  0  0  0  0  0  0  0  0  0
   -0.0918   -7.4279   -3.6481 C   0  0  0  0  0  0  0  0  0  0  0  0
    0.8692   -6.9957   -2.7330 C   0  0  0  0  0  0  0  0  0  0  0  0
    0.7666   -7.4512   -1.4123 C   0  0  0  0  0  0  0  0  0  0  0  0
    2.6396   -5.0134   -0.7130 C   0  0  0  0  0  0  0  0  0  0  0  0
    3.7674   -4.1963   -0.7240 C   0  0  0  0  0  0  0  0  0  0  0  0
    6.0885   -2.0838   -0.4060 S   0  0  0  0  0  0  0  0  0  0  0  0
    9.8605   -0.5536   -0.3269 N   0  0  0  0  0  0  0  0  0  0  0  0
   10.1921    0.7679   -0.3752 C   0  0  0  0  0  0  0  0  0  0  0  0
   11.5154    1.3312   -0.3441 C   0  0  0  0  0  0  0  0  0  0  0  0
   12.6611    0.5121   -0.2517 C   0  0  0  0  0  0  0  0  0  0  0  0
   13.9260    1.0752   -0.2241 C   0  0  0  0  0  0  0  0  0  0  0  0
   14.0654    2.4744   -0.2892 C   0  0  0  0  0  0  0  0  0  0  0  0
   12.9464    3.2888   -0.3805 C   0  0  0  0  0  0  0  0  0  0  0  0
   11.6365    2.7499   -0.4110 C   0  0  0  0  0  0  0  0  0  0  0  0
   10.4334    3.5902   -0.5076 C   0  0  0  0  0  0  0  0  0  0  0  0
   10.5243    5.0003   -0.5753 C   0  0  0  0  0  0  0  0  0  0  0  0
    9.4031    5.8107   -0.6664 C   0  0  0  0  0  0  0  0  0  0  0  0
    8.1233    5.2330   -0.6935 C   0  0  0  0  0  0  0  0  0  0  0  0
    7.9879    3.8559   -0.6294 C   0  0  0  0  0  0  0  0  0  0  0  0
    9.1186    3.0071   -0.5364 C   0  0  0  0  0  0  0  0  0  0  0  0
    9.0544    1.5706   -0.4663 C   0  0  0  0  0  0  0  0  0  0  0  0
    5.8428    1.2236    0.6327 C   0  0  0  0  0  0  0  0  0  0  0  0
    6.4364    1.1874    1.9246 C   0  0  0  0  0  0  0  0  0  0  0  0
    5.6803    1.4315    3.0514 C   0  0  0  0  0  0  0  0  0  0  0  0
    4.2986    1.7218    2.9391 C   0  0  0  0  0  0  0  0  0  0  0  0
    3.6928    1.7652    1.7010 C   0  0  0  0  0  0  0  0  0  0  0  0
    4.4430    1.5196    0.5191 C   0  0  0  0  0  0  0  0  0  0  0  0
    4.1484    1.3491   -2.9084 H   0  0  0  0  0  0  0  0  0  0  0  0
    6.5871    0.8329   -2.6973 H   0  0  0  0  0  0  0  0  0  0  0  0
    9.5379   -3.1839   -0.2385 H   0  0  0  0  0  0  0  0  0  0  0  0
    7.8824   -5.2344   -0.2113 H   0  0  0  0  0  0  0  0  0  0  0  0
    6.0628   -6.4351    0.4293 H   0  0  0  0  0  0  0  0  0  0  0  0
    4.0799   -7.8980    0.3853 H   0  0  0  0  0  0  0  0  0  0  0  0
    2.4476   -7.3704    2.4142 H   0  0  0  0  0  0  0  0  0  0  0  0
    1.2199   -8.7727    4.0592 H   0  0  0  0  0  0  0  0  0  0  0  0
   -0.7896  -10.0700    3.3868 H   0  0  0  0  0  0  0  0  0  0  0  0
   -1.6277   -9.9750    1.0410 H   0  0  0  0  0  0  0  0  0  0  0  0
   -2.0230   -9.4418   -1.6606 H   0  0  0  0  0  0  0  0  0  0  0  0
   -1.8680   -8.6151   -4.0072 H   0  0  0  0  0  0  0  0  0  0  0  0
   -0.0321   -7.0839   -4.6838 H   0  0  0  0  0  0  0  0  0  0  0  0
    1.6753   -6.3288   -3.0425 H   0  0  0  0  0  0  0  0  0  0  0  0
    1.6701   -4.6103   -1.0115 H   0  0  0  0  0  0  0  0  0  0  0  0
    3.6628   -3.1604   -1.0553 H   0  0  0  0  0  0  0  0  0  0  0  0
   12.5180   -0.5689   -0.2034 H   0  0  0  0  0  0  0  0  0  0  0  0
   14.8113    0.4384   -0.1525 H   0  0  0  0  0  0  0  0  0  0  0  0
   15.0605    2.9258   -0.2683 H   0  0  0  0  0  0  0  0  0  0  0  0
   13.0954    4.3676   -0.4292 H   0  0  0  0  0  0  0  0  0  0  0  0
   11.5046    5.4760   -0.5558 H   0  0  0  0  0  0  0  0  0  0  0  0
    9.5189    6.8960   -0.7167 H   0  0  0  0  0  0  0  0  0  0  0  0
    7.2340    5.8639   -0.7643 H   0  0  0  0  0  0  0  0  0  0  0  0
    6.9895    3.4244   -0.6517 H   0  0  0  0  0  0  0  0  0  0  0  0
    7.5004    0.9642    2.0133 H   0  0  0  0  0  0  0  0  0  0  0  0
    6.1491    1.4008    4.0377 H   0  0  0  0  0  0  0  0  0  0  0  0
    3.7098    1.9125    3.8393 H   0  0  0  0  0  0  0  0  0  0  0  0
    2.6275    1.9890    1.6143 H   0  0  0  0  0  0  0  0  0  0  0  0
  1  2  3  0
  2  3  1  0
  3  4  2  0
  3 53  1  0
  4  5  1  0
  4 54  1  0
  5  6  2  0
  5 55  1  0
  6  7  1  0
  6 48  1  0
  7  8  1  0
  7 47  1  0
  8  9  1  0
  8 33  2  0
  9 10  2  0
  9 32  1  0
 10 11  1  0
 10 56  1  0
 11 12  2  0
 11 57  1  0
 12 13  1  0
 12 32  1  0
 13 14  2  0
 13 31  1  0
 14 15  1  0
 14 58  1  0
 15 16  2  0
 15 59  1  0
 16 17  1  0
 16 30  1  0
 17 18  1  0
 17 29  1  0
 18 19  2  0
 18 23  1  0
 19 20  1  0
 19 60  1  0
 20 21  2  0
 20 61  1  0
 21 22  1  0
 21 62  1  0
 22 23  2  0
 22 63  1  0
 23 24  1  0
 24 25  1  0
 24 29  2  0
 25 26  2  0
 25 64  1  0
 26 27  1  0
 26 65  1  0
 27 28  2  0
 27 66  1  0
 28 29  1  0
 28 67  1  0
 30 31  2  0
 30 68  1  0
 31 69  1  0
 33 34  1  0
 34 35  2  0
 34 47  1  0
 35 36  1  0
 35 40  1  0
 36 37  2  0
 36 70  1  0
 37 38  1  0
 37 71  1  0
 38 39  2  0
 38 72  1  0
 39 40  1  0
 39 73  1  0
 40 41  2  0
 41 42  1  0
 41 46  1  0
 42 43  2  0
 42 74  1  0
 43 44  1  0
 43 75  1  0
 44 45  2  0
 44 76  1  0
 45 46  1  0
 45 77  1  0
 46 47  2  0
 48 49  1  0
 48 53  2  0
 49 50  2  0
 49 78  1  0
 50 51  1  0
 50 79  1  0
 51 52  2  0
 51 80  1  0
 52 53  1  0
 52 81  1  0
M  END

