
     RDKit          3D

 67 71  0  0  0  0  0  0  0  0999 V2000
    1.9623    0.7100    0.5713 C   0  0  0  0  0  0  0  0  0  0  0  0
    2.4203   -0.5025    0.9162 C   0  0  0  0  0  0  0  0  0  0  0  0
    2.9792   -1.5368    0.0279 C   0  0  0  0  0  0  0  0  0  0  0  0
    3.4432   -2.7423    0.5870 C   0  0  0  0  0  0  0  0  0  0  0  0
    3.9876   -3.7506   -0.2078 C   0  0  0  0  0  0  0  0  0  0  0  0
    4.0837   -3.5842   -1.5954 C   0  0  0  0  0  0  0  0  0  0  0  0
    4.6285   -4.6176   -2.4136 N   0  0  0  0  0  0  0  0  0  0  0  0
    3.8877   -5.7313   -2.7518 C   0  0  0  0  0  0  0  0  0  0  0  0
    2.7335   -5.9746   -2.4884 O   0  0  0  0  0  0  0  0  0  0  0  0
    4.7468   -6.5548   -3.4899 N   0  0  0  0  0  0  0  0  0  0  0  0
    6.0225   -6.0366   -3.6362 C   0  0  0  0  0  0  0  0  0  0  0  0
    7.0219   -6.5267   -4.2519 N   0  0  0  0  0  0  0  0  0  0  0  0
    6.9089   -7.8167   -4.9254 C   0  0  1  0  0  0  0  0  0  0  0  0
    6.4072   -7.6454   -6.3787 C   0  0  0  0  0  0  0  0  0  0  0  0
    7.4332   -6.9416   -7.2767 C   0  0  0  0  0  0  0  0  0  0  0  0
    8.7899   -7.6582   -7.2466 C   0  0  0  0  0  0  0  0  0  0  0  0
    9.3067   -7.8185   -5.8107 C   0  0  0  0  0  0  0  0  0  0  0  0
    8.2783   -8.5237   -4.9178 C   0  0  0  0  0  0  0  0  0  0  0  0
    6.0427   -4.6989   -2.8678 C   0  0  1  0  0  0  0  0  0  0  0  0
    6.4200   -3.5046   -3.7759 C   0  0  0  0  0  0  0  0  0  0  0  0
    7.9297   -3.4276   -4.0785 C   0  0  0  0  0  0  0  0  0  0  0  0
    8.7635   -3.4379   -2.8782 N   0  0  0  0  0  0  0  0  0  0  0  0
    8.8268   -2.1781   -2.1525 C   0  0  0  0  0  0  0  0  0  0  0  0
    9.6224   -1.1063   -2.8797 C   0  0  0  0  0  0  0  0  0  0  0  0
    9.2334    0.2386   -2.8265 C   0  0  0  0  0  0  0  0  0  0  0  0
    9.9892    1.2397   -3.4460 C   0  0  0  0  0  0  0  0  0  0  0  0
   11.1506    0.8872   -4.1369 C   0  0  0  0  0  0  0  0  0  0  0  0
   12.3087    2.3964   -5.0932 I   0  0  0  0  0  0  0  0  0  0  0  0
   11.5565   -0.4495   -4.2118 C   0  0  0  0  0  0  0  0  0  0  0  0
   10.7909   -1.4343   -3.5838 C   0  0  0  0  0  0  0  0  0  0  0  0
    8.4889   -4.6209   -2.0713 C   0  0  0  0  0  0  0  0  0  0  0  0
    7.0106   -4.7568   -1.6583 C   0  0  0  0  0  0  0  0  0  0  0  0
    3.6047   -2.3945   -2.1683 C   0  0  0  0  0  0  0  0  0  0  0  0
    3.0683   -1.3877   -1.3704 C   0  0  0  0  0  0  0  0  0  0  0  0
    1.5671    1.3943    1.3260 H   0  0  0  0  0  0  0  0  0  0  0  0
    1.9602    1.0694   -0.4615 H   0  0  0  0  0  0  0  0  0  0  0  0
    2.3883   -0.7824    1.9756 H   0  0  0  0  0  0  0  0  0  0  0  0
    3.3728   -2.8906    1.6681 H   0  0  0  0  0  0  0  0  0  0  0  0
    4.3331   -4.6823    0.2442 H   0  0  0  0  0  0  0  0  0  0  0  0
    4.4100   -7.4238   -3.8827 H   0  0  0  0  0  0  0  0  0  0  0  0
    6.1931   -8.4772   -4.3918 H   0  0  0  0  0  0  0  0  0  0  0  0
    5.4497   -7.0971   -6.3817 H   0  0  0  0  0  0  0  0  0  0  0  0
    6.1941   -8.6506   -6.7857 H   0  0  0  0  0  0  0  0  0  0  0  0
    7.5619   -5.9003   -6.9350 H   0  0  0  0  0  0  0  0  0  0  0  0
    7.0491   -6.8879   -8.3094 H   0  0  0  0  0  0  0  0  0  0  0  0
    9.5247   -7.1100   -7.8601 H   0  0  0  0  0  0  0  0  0  0  0  0
    8.6832   -8.6571   -7.7103 H   0  0  0  0  0  0  0  0  0  0  0  0
    9.5253   -6.8234   -5.3878 H   0  0  0  0  0  0  0  0  0  0  0  0
   10.2561   -8.3800   -5.8047 H   0  0  0  0  0  0  0  0  0  0  0  0
    8.6447   -8.5889   -3.8802 H   0  0  0  0  0  0  0  0  0  0  0  0
    8.1326   -9.5610   -5.2701 H   0  0  0  0  0  0  0  0  0  0  0  0
    6.1037   -2.5839   -3.2599 H   0  0  0  0  0  0  0  0  0  0  0  0
    5.8454   -3.5560   -4.7154 H   0  0  0  0  0  0  0  0  0  0  0  0
    8.1419   -2.5158   -4.6579 H   0  0  0  0  0  0  0  0  0  0  0  0
    8.2144   -4.2884   -4.7013 H   0  0  0  0  0  0  0  0  0  0  0  0
    9.3271   -2.3833   -1.1890 H   0  0  0  0  0  0  0  0  0  0  0  0
    7.8337   -1.7545   -1.8854 H   0  0  0  0  0  0  0  0  0  0  0  0
    8.3205    0.5175   -2.2913 H   0  0  0  0  0  0  0  0  0  0  0  0
    9.6671    2.2812   -3.3926 H   0  0  0  0  0  0  0  0  0  0  0  0
   12.4625   -0.7243   -4.7552 H   0  0  0  0  0  0  0  0  0  0  0  0
   11.0898   -2.4832   -3.6443 H   0  0  0  0  0  0  0  0  0  0  0  0
    9.1222   -4.5982   -1.1696 H   0  0  0  0  0  0  0  0  0  0  0  0
    8.7775   -5.5081   -2.6550 H   0  0  0  0  0  0  0  0  0  0  0  0
    6.7401   -3.9338   -0.9760 H   0  0  0  0  0  0  0  0  0  0  0  0
    6.8528   -5.6963   -1.1025 H   0  0  0  0  0  0  0  0  0  0  0  0
    3.6404   -2.2736   -3.2525 H   0  0  0  0  0  0  0  0  0  0  0  0
    2.6998   -0.4766   -1.8463 H   0  0  0  0  0  0  0  0  0  0  0  0
  1  2  2  0
  1 35  1  0
  1 36  1  0
  2  3  1  0
  2 37  1  0
  3  4  2  0
  3 34  1  0
  4  5  1  0
  4 38  1  0
  5  6  2  0
  5 39  1  0
  6  7  1  0
  6 33  1  0
  7  8  1  0
  7 19  1  0
  8  9  2  0
  8 10  1  0
 10 11  1  0
 10 40  1  0
 11 12  2  0
 19 11  1  6
 12 13  1  0
 13 14  1  0
 13 18  1  0
 13 41  1  1
 14 15  1  0
 14 42  1  0
 14 43  1  0
 15 16  1  0
 15 44  1  0
 15 45  1  0
 16 17  1  0
 16 46  1  0
 16 47  1  0
 17 18  1  0
 17 48  1  0
 17 49  1  0
 18 50  1  0
 18 51  1  0
 19 20  1  0
 19 32  1  0
 20 21  1  0
 20 52  1  0
 20 53  1  0
 21 22  1  0
 21 54  1  0
 21 55  1  0
 22 23  1  0
 22 31  1  0
 23 24  1  0
 23 56  1  0
 23 57  1  0
 24 25  2  0
 24 30  1  0
 25 26  1  0
 25 58  1  0
 26 27  2  0
 26 59  1  0
 27 28  1  0
 27 29  1  0
 29 30  2  0
 29 60  1  0
 30 61  1  0
 31 32  1  0
 31 62  1  0
 31 63  1  0
 32 64  1  0
 32 65  1  0
 33 34  2  0
 33 66  1  0
 34 67  1  0
M  END

