
     RDKit          3D

 43 45  0  0  0  0  0  0  0  0999 V2000
    2.4891   -1.0515   -2.6923 O   0  0  0  0  0  0  0  0  0  0  0  0
    3.1280   -0.6119   -1.7609 C   0  0  0  0  0  0  0  0  0  0  0  0
    3.1892    0.7375   -1.4453 N   0  0  0  0  0  0  0  0  0  0  0  0
    2.4781    1.6487   -2.1376 N   0  0  0  0  0  0  0  0  0  0  0  0
    2.6424    2.8884   -1.8536 C   0  0  0  0  0  0  0  0  0  0  0  0
    1.9136    3.9542   -2.5418 C   0  0  0  0  0  0  0  0  0  0  0  0
    0.9883    3.6765   -3.5638 C   0  0  0  0  0  0  0  0  0  0  0  0
    0.3001    4.6998   -4.2122 C   0  0  0  0  0  0  0  0  0  0  0  0
    0.5276    6.0401   -3.8472 C   0  0  0  0  0  0  0  0  0  0  0  0
   -0.0896    7.1049   -4.4140 O   0  0  0  0  0  0  0  0  0  0  0  0
   -1.0210    6.9050   -5.4625 C   0  0  0  0  0  0  0  0  0  0  0  0
   -1.5378    8.2382   -5.9514 C   0  0  0  0  0  0  0  0  0  0  0  0
   -0.7572    9.3994   -5.8651 C   0  0  0  0  0  0  0  0  0  0  0  0
   -1.2374   10.6121   -6.3673 C   0  0  0  0  0  0  0  0  0  0  0  0
   -2.4990   10.6788   -6.9658 C   0  0  0  0  0  0  0  0  0  0  0  0
   -3.2830    9.5246   -7.0541 C   0  0  0  0  0  0  0  0  0  0  0  0
   -2.8060    8.3139   -6.5452 C   0  0  0  0  0  0  0  0  0  0  0  0
    1.4499    6.3302   -2.8261 C   0  0  0  0  0  0  0  0  0  0  0  0
    2.1293    5.3006   -2.1869 C   0  0  0  0  0  0  0  0  0  0  0  0
    3.9488   -1.4979   -0.8557 C   0  0  0  0  0  0  0  0  0  0  0  0
    4.2827   -1.1733    0.4692 C   0  0  0  0  0  0  0  0  0  0  0  0
    5.0275   -2.0668    1.2437 C   0  0  0  0  0  0  0  0  0  0  0  0
    5.4466   -3.2879    0.7121 C   0  0  0  0  0  0  0  0  0  0  0  0
    5.0983   -3.6115   -0.6044 C   0  0  0  0  0  0  0  0  0  0  0  0
    5.6087   -5.1428   -1.2748 Cl  0  0  0  0  0  0  0  0  0  0  0  0
    4.3483   -2.7338   -1.3858 C   0  0  0  0  0  0  0  0  0  0  0  0
    3.8646    1.0547   -0.7478 H   0  0  0  0  0  0  0  0  0  0  0  0
    3.3534    3.2049   -1.0643 H   0  0  0  0  0  0  0  0  0  0  0  0
    0.8162    2.6353   -3.8440 H   0  0  0  0  0  0  0  0  0  0  0  0
   -0.4107    4.4452   -4.9982 H   0  0  0  0  0  0  0  0  0  0  0  0
   -1.8625    6.2771   -5.1159 H   0  0  0  0  0  0  0  0  0  0  0  0
   -0.5318    6.3616   -6.2953 H   0  0  0  0  0  0  0  0  0  0  0  0
    0.2249    9.3481   -5.3923 H   0  0  0  0  0  0  0  0  0  0  0  0
   -0.6208   11.5115   -6.2898 H   0  0  0  0  0  0  0  0  0  0  0  0
   -2.8726   11.6281   -7.3580 H   0  0  0  0  0  0  0  0  0  0  0  0
   -4.2740    9.5678   -7.5132 H   0  0  0  0  0  0  0  0  0  0  0  0
   -3.4303    7.4173   -6.6079 H   0  0  0  0  0  0  0  0  0  0  0  0
    1.6126    7.3746   -2.5535 H   0  0  0  0  0  0  0  0  0  0  0  0
    2.8438    5.5424   -1.3945 H   0  0  0  0  0  0  0  0  0  0  0  0
    3.9361   -0.2407    0.9202 H   0  0  0  0  0  0  0  0  0  0  0  0
    5.2776   -1.8153    2.2773 H   0  0  0  0  0  0  0  0  0  0  0  0
    6.0303   -3.9914    1.3080 H   0  0  0  0  0  0  0  0  0  0  0  0
    4.0595   -2.9907   -2.4054 H   0  0  0  0  0  0  0  0  0  0  0  0
  1  2  2  0
  2  3  1  0
  2 20  1  0
  3  4  1  0
  3 27  1  0
  4  5  2  0
  5  6  1  0
  5 28  1  0
  6  7  2  0
  6 19  1  0
  7  8  1  0
  7 29  1  0
  8  9  2  0
  8 30  1  0
  9 10  1  0
  9 18  1  0
 10 11  1  0
 11 12  1  0
 11 31  1  0
 11 32  1  0
 12 13  2  0
 12 17  1  0
 13 14  1  0
 13 33  1  0
 14 15  2  0
 14 34  1  0
 15 16  1  0
 15 35  1  0
 16 17  2  0
 16 36  1  0
 17 37  1  0
 18 19  2  0
 18 38  1  0
 19 39  1  0
 20 21  2  0
 20 26  1  0
 21 22  1  0
 21 40  1  0
 22 23  2  0
 22 41  1  0
 23 24  1  0
 23 42  1  0
 24 25  1  0
 24 26  2  0
 26 43  1  0
M  END

