
     RDKit          3D

 38 40  0  0  0  0  0  0  0  0999 V2000
    2.5127    1.0049   -0.2156 C   0  0  0  0  0  0  0  0  0  0  0  0
    2.3122    0.0407    0.7990 O   0  0  0  0  0  0  0  0  0  0  0  0
    3.0887   -1.0618    0.8116 C   0  0  0  0  0  0  0  0  0  0  0  0
    2.8694   -2.0041    1.8357 C   0  0  0  0  0  0  0  0  0  0  0  0
    3.5824   -3.1126    1.9345 N   0  0  0  0  0  0  0  0  0  0  0  0
    4.5482   -3.3226    1.0223 C   0  0  0  0  0  0  0  0  0  0  0  0
    5.3566   -4.6105    1.1827 C   0  0  2  0  0  0  0  0  0  0  0  0
    6.4577   -4.7119    0.1077 C   0  0  0  0  0  0  0  0  0  0  0  0
    4.3933   -5.8170    1.1370 C   0  0  0  0  0  0  0  0  0  0  0  0
    5.0767   -7.1253    1.5171 C   0  0  0  0  0  0  0  0  0  0  0  0
    5.8252   -7.0354    2.8227 C   0  0  0  0  0  0  0  0  0  0  0  0
    6.0201   -8.1987    3.4594 N   0  0  0  0  0  0  0  0  0  0  0  0
    6.6718   -8.1828    4.5999 C   0  0  0  0  0  0  0  0  0  0  0  0
    6.9126   -9.7200    5.4073 Cl  0  0  0  0  0  0  0  0  0  0  0  0
    7.1753   -7.0269    5.2055 C   0  0  0  0  0  0  0  0  0  0  0  0
    6.9967   -5.7979    4.5675 C   0  0  0  0  0  0  0  0  0  0  0  0
    7.5458   -4.5609    5.2259 C   0  0  0  0  0  0  0  0  0  0  0  0
    6.2982   -5.7994    3.3230 C   0  0  0  0  0  0  0  0  0  0  0  0
    6.0813   -4.5363    2.5503 C   0  0  0  0  0  0  0  0  0  0  0  0
    6.5118   -3.4654    2.9370 O   0  0  0  0  0  0  0  0  0  0  0  0
    4.8172   -2.5026    0.0128 N   0  0  0  0  0  0  0  0  0  0  0  0
    4.0995   -1.3802   -0.1025 C   0  0  0  0  0  0  0  0  0  0  0  0
    1.7884    1.8087   -0.0302 H   0  0  0  0  0  0  0  0  0  0  0  0
    2.3321    0.5831   -1.2205 H   0  0  0  0  0  0  0  0  0  0  0  0
    3.5335    1.4254   -0.1821 H   0  0  0  0  0  0  0  0  0  0  0  0
    2.0815   -1.8168    2.5753 H   0  0  0  0  0  0  0  0  0  0  0  0
    6.0090   -4.7545   -0.8954 H   0  0  0  0  0  0  0  0  0  0  0  0
    7.0792   -5.6083    0.2547 H   0  0  0  0  0  0  0  0  0  0  0  0
    7.1083   -3.8284    0.1443 H   0  0  0  0  0  0  0  0  0  0  0  0
    3.9543   -5.8937    0.1288 H   0  0  0  0  0  0  0  0  0  0  0  0
    3.5643   -5.6181    1.8342 H   0  0  0  0  0  0  0  0  0  0  0  0
    5.7897   -7.4419    0.7340 H   0  0  0  0  0  0  0  0  0  0  0  0
    4.3509   -7.9475    1.6034 H   0  0  0  0  0  0  0  0  0  0  0  0
    7.6983   -7.0925    6.1601 H   0  0  0  0  0  0  0  0  0  0  0  0
    8.0199   -4.8176    6.1845 H   0  0  0  0  0  0  0  0  0  0  0  0
    6.7554   -3.8161    5.3977 H   0  0  0  0  0  0  0  0  0  0  0  0
    8.2802   -4.0584    4.5798 H   0  0  0  0  0  0  0  0  0  0  0  0
    4.3438   -0.7252   -0.9449 H   0  0  0  0  0  0  0  0  0  0  0  0
  1  2  1  0
  1 23  1  0
  1 24  1  0
  1 25  1  0
  2  3  1  0
  3  4  2  0
  3 22  1  0
  4  5  1  0
  4 26  1  0
  5  6  2  0
  6  7  1  0
  6 21  1  0
  7  8  1  6
  7  9  1  0
  7 19  1  0
  8 27  1  0
  8 28  1  0
  8 29  1  0
  9 10  1  0
  9 30  1  0
  9 31  1  0
 10 11  1  0
 10 32  1  0
 10 33  1  0
 11 12  2  0
 11 18  1  0
 12 13  1  0
 13 14  1  0
 13 15  2  0
 15 16  1  0
 15 34  1  0
 16 17  1  0
 16 18  2  0
 17 35  1  0
 17 36  1  0
 17 37  1  0
 18 19  1  0
 19 20  2  0
 21 22  2  0
 22 38  1  0
M  END

