
     RDKit          3D

 44 45  0  0  0  0  0  0  0  0999 V2000
    3.5449   -1.4703    1.3554 C   0  0  0  0  0  0  0  0  0  0  0  0
    3.8804   -0.6202    0.2920 O   0  0  0  0  0  0  0  0  0  0  0  0
    4.4608    0.5953    0.6913 C   0  0  0  0  0  0  0  0  0  0  0  0
    4.8663    1.3828   -0.5611 C   0  0  1  0  0  0  0  0  0  0  0  0
    3.6870    1.6493   -1.4937 C   0  0  0  0  0  0  0  0  0  0  0  0
    5.5034    2.6393   -0.1839 N   0  0  0  0  0  0  0  0  0  0  0  0
    6.8331    2.8063    0.0775 C   0  0  0  0  0  0  0  0  0  0  0  0
    7.9607    1.5847    0.0431 S   0  0  0  0  0  0  0  0  0  0  0  0
    7.1338    4.1319    0.3607 N   0  0  0  0  0  0  0  0  0  0  0  0
    8.3603    4.5236    0.7216 N   0  0  0  0  0  0  0  0  0  0  0  0
    8.6049    5.7731    0.9381 C   0  0  0  0  0  0  0  0  0  0  0  0
    7.5531    6.8369    0.7861 C   0  0  0  0  0  0  0  0  0  0  0  0
    6.8275    7.2919    1.9012 C   0  0  0  0  0  0  0  0  0  0  0  0
    5.8295    8.2594    1.7526 C   0  0  0  0  0  0  0  0  0  0  0  0
    5.5412    8.7832    0.4883 C   0  0  0  0  0  0  0  0  0  0  0  0
    6.2538    8.3349   -0.6279 C   0  0  0  0  0  0  0  0  0  0  0  0
    7.2522    7.3668   -0.4814 C   0  0  0  0  0  0  0  0  0  0  0  0
    9.9813    6.1422    1.3523 C   0  0  0  0  0  0  0  0  0  0  0  0
   10.9620    5.1420    1.5230 C   0  0  0  0  0  0  0  0  0  0  0  0
   12.2565    5.4807    1.9074 C   0  0  0  0  0  0  0  0  0  0  0  0
   12.6046    6.8202    2.1302 C   0  0  0  0  0  0  0  0  0  0  0  0
   11.6427    7.8181    1.9622 C   0  0  0  0  0  0  0  0  0  0  0  0
   10.3413    7.4836    1.5758 C   0  0  0  0  0  0  0  0  0  0  0  0
    3.1129   -2.3882    0.9302 H   0  0  0  0  0  0  0  0  0  0  0  0
    2.7972   -1.0112    2.0348 H   0  0  0  0  0  0  0  0  0  0  0  0
    4.4311   -1.7450    1.9623 H   0  0  0  0  0  0  0  0  0  0  0  0
    5.3645    0.4233    1.3076 H   0  0  0  0  0  0  0  0  0  0  0  0
    3.7456    1.1950    1.2986 H   0  0  0  0  0  0  0  0  0  0  0  0
    5.6319    0.7879   -1.0820 H   0  0  0  0  0  0  0  0  0  0  0  0
    2.9274    2.2884   -1.0081 H   0  0  0  0  0  0  0  0  0  0  0  0
    3.2020    0.6989   -1.7538 H   0  0  0  0  0  0  0  0  0  0  0  0
    4.0190    2.1457   -2.4185 H   0  0  0  0  0  0  0  0  0  0  0  0
    4.8793    3.4256   -0.0266 H   0  0  0  0  0  0  0  0  0  0  0  0
    6.4028    4.8399    0.2530 H   0  0  0  0  0  0  0  0  0  0  0  0
    7.0549    6.8874    2.8910 H   0  0  0  0  0  0  0  0  0  0  0  0
    5.2764    8.6073    2.6288 H   0  0  0  0  0  0  0  0  0  0  0  0
    4.7626    9.5417    0.3735 H   0  0  0  0  0  0  0  0  0  0  0  0
    6.0353    8.7431   -1.6181 H   0  0  0  0  0  0  0  0  0  0  0  0
    7.8132    7.0226   -1.3544 H   0  0  0  0  0  0  0  0  0  0  0  0
   10.6819    4.1024    1.3444 H   0  0  0  0  0  0  0  0  0  0  0  0
   13.0045    4.6938    2.0351 H   0  0  0  0  0  0  0  0  0  0  0  0
   13.6221    7.0814    2.4324 H   0  0  0  0  0  0  0  0  0  0  0  0
   11.9036    8.8661    2.1310 H   0  0  0  0  0  0  0  0  0  0  0  0
    9.6004    8.2748    1.4450 H   0  0  0  0  0  0  0  0  0  0  0  0
  1  2  1  0
  1 24  1  0
  1 25  1  0
  1 26  1  0
  2  3  1  0
  3  4  1  0
  3 27  1  0
  3 28  1  0
  4  5  1  0
  4  6  1  0
  4 29  1  6
  5 30  1  0
  5 31  1  0
  5 32  1  0
  6  7  1  0
  6 33  1  0
  7  8  2  0
  7  9  1  0
  9 10  1  0
  9 34  1  0
 10 11  2  0
 11 12  1  0
 11 18  1  0
 12 13  2  0
 12 17  1  0
 13 14  1  0
 13 35  1  0
 14 15  2  0
 14 36  1  0
 15 16  1  0
 15 37  1  0
 16 17  2  0
 16 38  1  0
 17 39  1  0
 18 19  2  0
 18 23  1  0
 19 20  1  0
 19 40  1  0
 20 21  2  0
 20 41  1  0
 21 22  1  0
 21 42  1  0
 22 23  2  0
 22 43  1  0
 23 44  1  0
M  END

