
     RDKit          3D

 52 54  0  0  0  0  0  0  0  0999 V2000
    1.0192   -0.2141   -1.8320 C   0  0  0  0  0  0  0  0  0  0  0  0
    2.4056    0.1172   -2.3745 C   0  0  0  0  0  0  0  0  0  0  0  0
    3.6588   -0.0343   -1.0440 S   0  0  0  0  0  0  0  0  0  0  0  0
    5.1595    0.4108   -1.9951 C   0  0  0  0  0  0  0  0  0  0  0  0
    6.3419    0.5485   -1.0421 C   0  0  0  0  0  0  0  0  0  0  0  0
    7.5688    0.7359   -1.7601 O   0  0  0  0  0  0  0  0  0  0  0  0
    7.8771    2.0090   -2.1479 C   0  0  0  0  0  0  0  0  0  0  0  0
    7.1632    2.9627   -1.9309 O   0  0  0  0  0  0  0  0  0  0  0  0
    9.1583    2.0456   -2.8419 C   0  0  0  0  0  0  0  0  0  0  0  0
    9.9223    0.8978   -3.0385 N   0  0  0  0  0  0  0  0  0  0  0  0
    9.6388   -0.0166   -2.7071 H   0  0  0  0  0  0  0  0  0  0  0  0
   11.0579    1.2071   -3.6950 C   0  0  0  0  0  0  0  0  0  0  0  0
   11.0485    2.5882   -3.9411 C   0  0  0  0  0  0  0  0  0  0  0  0
    9.8385    3.1290   -3.3952 C   0  0  0  0  0  0  0  0  0  0  0  0
    9.3934    4.5591   -3.4106 C   0  0  0  0  0  0  0  0  0  0  0  0
   12.1737    3.2371   -4.6217 C   0  0  0  0  0  0  0  0  0  0  0  0
   12.2560    4.4364   -4.8319 O   0  0  0  0  0  0  0  0  0  0  0  0
   13.2748    2.2817   -5.1048 C   0  0  0  0  0  0  0  0  0  0  0  0
   13.4818    1.0004   -4.2722 C   0  0  1  0  0  0  0  0  0  0  0  0
   14.1795    1.2140   -2.9300 C   0  0  0  0  0  0  0  0  0  0  0  0
   14.2891    2.4638   -2.2939 C   0  0  0  0  0  0  0  0  0  0  0  0
   14.9287    2.5984   -1.0639 C   0  0  0  0  0  0  0  0  0  0  0  0
   15.4887    1.4821   -0.4232 C   0  0  0  0  0  0  0  0  0  0  0  0
   16.0910    1.7104    0.7717 O   0  0  0  0  0  0  0  0  0  0  0  0
   16.6807    0.6347    1.4639 C   0  0  0  0  0  0  0  0  0  0  0  0
   15.4008    0.2269   -1.0452 C   0  0  0  0  0  0  0  0  0  0  0  0
   14.7550    0.1126   -2.2800 C   0  0  0  0  0  0  0  0  0  0  0  0
   12.1266    0.2543   -4.1172 C   0  0  0  0  0  0  0  0  0  0  0  0
    0.2650   -0.1217   -2.6297 H   0  0  0  0  0  0  0  0  0  0  0  0
    0.7359    0.4696   -1.0162 H   0  0  0  0  0  0  0  0  0  0  0  0
    0.9774   -1.2437   -1.4426 H   0  0  0  0  0  0  0  0  0  0  0  0
    2.4356    1.1459   -2.7698 H   0  0  0  0  0  0  0  0  0  0  0  0
    2.6765   -0.5664   -3.1962 H   0  0  0  0  0  0  0  0  0  0  0  0
    4.9935    1.3672   -2.5140 H   0  0  0  0  0  0  0  0  0  0  0  0
    5.3746   -0.3676   -2.7460 H   0  0  0  0  0  0  0  0  0  0  0  0
    6.4841   -0.3733   -0.4593 H   0  0  0  0  0  0  0  0  0  0  0  0
    6.1832    1.3930   -0.3561 H   0  0  0  0  0  0  0  0  0  0  0  0
   10.1516    5.1857   -3.8945 H   0  0  0  0  0  0  0  0  0  0  0  0
    9.2116    4.9246   -2.3876 H   0  0  0  0  0  0  0  0  0  0  0  0
    8.4355    4.6665   -3.9443 H   0  0  0  0  0  0  0  0  0  0  0  0
   14.2032    2.8636   -5.1974 H   0  0  0  0  0  0  0  0  0  0  0  0
   12.9887    1.9887   -6.1324 H   0  0  0  0  0  0  0  0  0  0  0  0
   14.1359    0.3350   -4.8600 H   0  0  0  0  0  0  0  0  0  0  0  0
   13.8779    3.3619   -2.7575 H   0  0  0  0  0  0  0  0  0  0  0  0
   15.0101    3.5718   -0.5759 H   0  0  0  0  0  0  0  0  0  0  0  0
   17.0992    1.0495    2.3909 H   0  0  0  0  0  0  0  0  0  0  0  0
   17.4965    0.1669    0.8829 H   0  0  0  0  0  0  0  0  0  0  0  0
   15.9408   -0.1441    1.7245 H   0  0  0  0  0  0  0  0  0  0  0  0
   15.8353   -0.6615   -0.5862 H   0  0  0  0  0  0  0  0  0  0  0  0
   14.7101   -0.8743   -2.7521 H   0  0  0  0  0  0  0  0  0  0  0  0
   12.2206   -0.5784   -3.4019 H   0  0  0  0  0  0  0  0  0  0  0  0
   11.8526   -0.1964   -5.0903 H   0  0  0  0  0  0  0  0  0  0  0  0
  1  2  1  0
  1 29  1  0
  1 30  1  0
  1 31  1  0
  2  3  1  0
  2 32  1  0
  2 33  1  0
  3  4  1  0
  4  5  1  0
  4 34  1  0
  4 35  1  0
  5  6  1  0
  5 36  1  0
  5 37  1  0
  6  7  1  0
  7  8  2  0
  7  9  1  0
  9 10  1  0
  9 14  2  0
 10 11  1  0
 10 12  1  0
 12 13  2  0
 12 28  1  0
 13 14  1  0
 13 16  1  0
 14 15  1  0
 15 38  1  0
 15 39  1  0
 15 40  1  0
 16 17  2  0
 16 18  1  0
 18 19  1  0
 18 41  1  0
 18 42  1  0
 19 20  1  0
 19 28  1  0
 19 43  1  6
 20 21  2  0
 20 27  1  0
 21 22  1  0
 21 44  1  0
 22 23  2  0
 22 45  1  0
 23 24  1  0
 23 26  1  0
 24 25  1  0
 25 46  1  0
 25 47  1  0
 25 48  1  0
 26 27  2  0
 26 49  1  0
 27 50  1  0
 28 51  1  0
 28 52  1  0
M  END

