
     RDKit          3D

 51 54  0  0  0  0  0  0  0  0999 V2000
    5.4565   -0.6691    4.3388 N   0  0  0  0  0  0  0  0  0  0  0  0
    4.8470    0.5330    4.1593 C   0  0  0  0  0  0  0  0  0  0  0  0
    4.9144    1.4369    4.9782 O   0  0  0  0  0  0  0  0  0  0  0  0
    4.1289    0.7297    2.8382 C   0  0  0  0  0  0  0  0  0  0  0  0
    3.9067    2.0611    2.4695 C   0  0  0  0  0  0  0  0  0  0  0  0
    3.4045    2.3711    1.2065 C   0  0  0  0  0  0  0  0  0  0  0  0
    3.1560    1.3113    0.3344 C   0  0  0  0  0  0  0  0  0  0  0  0
    3.3034    0.0330    0.6832 N   0  0  0  0  0  0  0  0  0  0  0  0
    3.7453   -0.2744    1.9048 C   0  0  0  0  0  0  0  0  0  0  0  0
    3.8232   -1.6543    2.2249 N   0  0  0  0  0  0  0  0  0  0  0  0
    3.8258   -2.5772    1.0817 C   0  0  0  0  0  0  0  0  0  0  0  0
    4.1843   -3.9862    1.5467 C   0  0  0  0  0  0  0  0  0  0  0  0
    3.2747   -4.4376    2.5948 N   0  0  0  0  0  0  0  0  0  0  0  0
    2.6808   -5.6720    2.4613 C   0  0  0  0  0  0  0  0  0  0  0  0
    2.9039   -6.3824    1.4867 O   0  0  0  0  0  0  0  0  0  0  0  0
    1.7289   -6.2046    3.4932 C   0  0  0  0  0  0  0  0  0  0  0  0
    1.1819   -7.5099    3.3871 C   0  0  0  0  0  0  0  0  0  0  0  0
    0.3514   -7.6260    4.4826 C   0  0  0  0  0  0  0  0  0  0  0  0
    0.4264   -6.4476    5.1665 N   0  0  0  0  0  0  0  0  0  0  0  0
   -0.2725   -6.0957    6.3997 C   0  0  1  0  0  0  0  0  0  0  0  0
    0.6532   -5.7840    7.5882 C   0  0  0  0  0  0  0  0  0  0  0  0
   -0.2879   -5.0728    8.5652 C   0  0  0  0  0  0  0  0  0  0  0  0
   -1.1334   -4.1484    7.6600 C   0  0  0  0  0  0  0  0  0  0  0  0
   -1.1895   -4.8500    6.2756 C   0  0  0  0  0  0  0  0  0  0  0  0
    1.2547   -5.5808    4.5800 N   0  0  0  0  0  0  0  0  0  0  0  0
    3.2027   -3.5240    3.7263 C   0  0  0  0  0  0  0  0  0  0  0  0
    2.8716   -2.1084    3.2577 C   0  0  0  0  0  0  0  0  0  0  0  0
    6.0184   -0.7972    5.1715 H   0  0  0  0  0  0  0  0  0  0  0  0
    5.3900   -1.3863    3.6206 H   0  0  0  0  0  0  0  0  0  0  0  0
    4.1745    2.8340    3.1932 H   0  0  0  0  0  0  0  0  0  0  0  0
    3.2383    3.4045    0.8957 H   0  0  0  0  0  0  0  0  0  0  0  0
    2.8115    1.4990   -0.6898 H   0  0  0  0  0  0  0  0  0  0  0  0
    4.5594   -2.2249    0.3436 H   0  0  0  0  0  0  0  0  0  0  0  0
    2.8419   -2.5863    0.5770 H   0  0  0  0  0  0  0  0  0  0  0  0
    5.2228   -3.9968    1.9318 H   0  0  0  0  0  0  0  0  0  0  0  0
    4.1217   -4.6976    0.7150 H   0  0  0  0  0  0  0  0  0  0  0  0
    1.3857   -8.2325    2.6033 H   0  0  0  0  0  0  0  0  0  0  0  0
   -0.2815   -8.4406    4.8281 H   0  0  0  0  0  0  0  0  0  0  0  0
   -0.8807   -6.9797    6.6468 H   0  0  0  0  0  0  0  0  0  0  0  0
    1.4494   -5.1019    7.2478 H   0  0  0  0  0  0  0  0  0  0  0  0
    1.1335   -6.6854    7.9995 H   0  0  0  0  0  0  0  0  0  0  0  0
    0.2449   -4.5281    9.3593 H   0  0  0  0  0  0  0  0  0  0  0  0
   -0.9356   -5.8150    9.0637 H   0  0  0  0  0  0  0  0  0  0  0  0
   -0.6428   -3.1669    7.5648 H   0  0  0  0  0  0  0  0  0  0  0  0
   -2.1334   -3.9605    8.0790 H   0  0  0  0  0  0  0  0  0  0  0  0
   -0.7988   -4.1984    5.4815 H   0  0  0  0  0  0  0  0  0  0  0  0
   -2.2105   -5.1397    5.9846 H   0  0  0  0  0  0  0  0  0  0  0  0
    4.1816   -3.5081    4.2457 H   0  0  0  0  0  0  0  0  0  0  0  0
    2.4454   -3.8668    4.4368 H   0  0  0  0  0  0  0  0  0  0  0  0
    2.9056   -1.4269    4.1177 H   0  0  0  0  0  0  0  0  0  0  0  0
    1.8397   -2.0911    2.8511 H   0  0  0  0  0  0  0  0  0  0  0  0
  1  2  1  0
  1 28  1  0
  1 29  1  0
  2  3  2  0
  2  4  1  0
  4  5  2  0
  4  9  1  0
  5  6  1  0
  5 30  1  0
  6  7  2  0
  6 31  1  0
  7  8  1  0
  7 32  1  0
  8  9  2  0
  9 10  1  0
 10 11  1  0
 10 27  1  0
 11 12  1  0
 11 33  1  0
 11 34  1  0
 12 13  1  0
 12 35  1  0
 12 36  1  0
 13 14  1  0
 13 26  1  0
 14 15  2  0
 14 16  1  0
 16 17  1  0
 16 25  2  0
 17 18  2  0
 17 37  1  0
 18 19  1  0
 18 38  1  0
 19 20  1  0
 19 25  1  0
 20 21  1  0
 20 24  1  0
 20 39  1  1
 21 22  1  0
 21 40  1  0
 21 41  1  0
 22 23  1  0
 22 42  1  0
 22 43  1  0
 23 24  1  0
 23 44  1  0
 23 45  1  0
 24 46  1  0
 24 47  1  0
 26 27  1  0
 26 48  1  0
 26 49  1  0
 27 50  1  0
 27 51  1  0
M  END

