
     RDKit          3D

 45 47  0  0  0  0  0  0  0  0999 V2000
    3.3884    0.7573    0.5098 C   0  0  0  0  0  0  0  0  0  0  0  0
    2.8748   -0.5813   -0.0200 C   0  0  0  0  0  0  0  0  0  0  0  0
    3.2715   -0.8739   -1.4741 C   0  0  0  0  0  0  0  0  0  0  0  0
    4.7062   -0.9674   -1.6912 N   0  0  0  0  0  0  0  0  0  0  0  0
    5.3726   -2.1650   -1.6255 C   0  0  0  0  0  0  0  0  0  0  0  0
    4.7847   -3.2150   -1.3963 O   0  0  0  0  0  0  0  0  0  0  0  0
    6.8522   -2.1251   -1.8655 C   0  0  0  0  0  0  0  0  0  0  0  0
    7.6412   -0.9638   -1.8242 C   0  0  0  0  0  0  0  0  0  0  0  0
    9.0142   -1.0040   -2.0479 C   0  0  0  0  0  0  0  0  0  0  0  0
    9.6687   -2.2307   -2.3261 C   0  0  0  0  0  0  0  0  0  0  0  0
   11.0210   -2.2807   -2.5545 N   0  0  0  0  0  0  0  0  0  0  0  0
   11.8820   -1.1014   -2.5365 C   0  0  0  0  0  0  0  0  0  0  0  0
   13.2435   -1.6701   -2.8399 C   0  0  0  0  0  0  0  0  0  0  0  0
   14.4721   -1.0274   -2.9581 C   0  0  0  0  0  0  0  0  0  0  0  0
   15.6221   -1.7738   -3.2494 C   0  0  0  0  0  0  0  0  0  0  0  0
   15.5352   -3.1669   -3.4216 C   0  0  0  0  0  0  0  0  0  0  0  0
   16.5931   -3.9690   -3.7051 O   0  0  0  0  0  0  0  0  0  0  0  0
   17.8767   -3.4035   -3.8425 C   0  0  0  0  0  0  0  0  0  0  0  0
   14.2914   -3.8151   -3.3015 C   0  0  0  0  0  0  0  0  0  0  0  0
   13.1633   -3.0582   -3.0125 C   0  0  0  0  0  0  0  0  0  0  0  0
   11.7400   -3.5196   -2.8371 C   0  0  0  0  0  0  0  0  0  0  0  0
    8.8722   -3.4050   -2.3525 C   0  0  0  0  0  0  0  0  0  0  0  0
    7.5048   -3.3431   -2.1200 C   0  0  0  0  0  0  0  0  0  0  0  0
    3.0890    0.9183    1.5576 H   0  0  0  0  0  0  0  0  0  0  0  0
    2.9957    1.6034   -0.0807 H   0  0  0  0  0  0  0  0  0  0  0  0
    4.4891    0.8043    0.4720 H   0  0  0  0  0  0  0  0  0  0  0  0
    1.7725   -0.6121    0.0440 H   0  0  0  0  0  0  0  0  0  0  0  0
    3.2448   -1.4074    0.6103 H   0  0  0  0  0  0  0  0  0  0  0  0
    2.8726   -0.0883   -2.1393 H   0  0  0  0  0  0  0  0  0  0  0  0
    2.8323   -1.8334   -1.7847 H   0  0  0  0  0  0  0  0  0  0  0  0
    5.2094   -0.1431   -1.9880 H   0  0  0  0  0  0  0  0  0  0  0  0
    7.1948    0.0056   -1.5850 H   0  0  0  0  0  0  0  0  0  0  0  0
    9.5848   -0.0766   -1.9955 H   0  0  0  0  0  0  0  0  0  0  0  0
   11.8524   -0.5900   -1.5530 H   0  0  0  0  0  0  0  0  0  0  0  0
   11.5632   -0.3532   -3.2902 H   0  0  0  0  0  0  0  0  0  0  0  0
   14.5550    0.0551   -2.8267 H   0  0  0  0  0  0  0  0  0  0  0  0
   16.5793   -1.2606   -3.3398 H   0  0  0  0  0  0  0  0  0  0  0  0
   18.5613   -4.2325   -4.0674 H   0  0  0  0  0  0  0  0  0  0  0  0
   18.2106   -2.9075   -2.9130 H   0  0  0  0  0  0  0  0  0  0  0  0
   17.9188   -2.6718   -4.6697 H   0  0  0  0  0  0  0  0  0  0  0  0
   14.2515   -4.8977   -3.4398 H   0  0  0  0  0  0  0  0  0  0  0  0
   11.6417   -4.2498   -2.0092 H   0  0  0  0  0  0  0  0  0  0  0  0
   11.3531   -4.0202   -3.7471 H   0  0  0  0  0  0  0  0  0  0  0  0
    9.3309   -4.3735   -2.5530 H   0  0  0  0  0  0  0  0  0  0  0  0
    6.8996   -4.2518   -2.1301 H   0  0  0  0  0  0  0  0  0  0  0  0
  1  2  1  0
  1 24  1  0
  1 25  1  0
  1 26  1  0
  2  3  1  0
  2 27  1  0
  2 28  1  0
  3  4  1  0
  3 29  1  0
  3 30  1  0
  4  5  1  0
  4 31  1  0
  5  6  2  0
  5  7  1  0
  7  8  2  0
  7 23  1  0
  8  9  1  0
  8 32  1  0
  9 10  2  0
  9 33  1  0
 10 11  1  0
 10 22  1  0
 11 12  1  0
 11 21  1  0
 12 13  1  0
 12 34  1  0
 12 35  1  0
 13 14  1  0
 13 20  2  0
 14 15  2  0
 14 36  1  0
 15 16  1  0
 15 37  1  0
 16 17  1  0
 16 19  2  0
 17 18  1  0
 18 38  1  0
 18 39  1  0
 18 40  1  0
 19 20  1  0
 19 41  1  0
 20 21  1  0
 21 42  1  0
 21 43  1  0
 22 23  2  0
 22 44  1  0
 23 45  1  0
M  END

