
     RDKit          3D

 80 85  0  0  0  0  0  0  0  0999 V2000
    0.6122   -0.2969   -0.5700 C   0  0  0  0  0  0  0  0  0  0  0  0
    2.1079   -0.1353   -0.2434 C   0  0  1  0  0  0  0  0  0  0  0  0
    2.3293   -0.1311    1.2786 C   0  0  0  0  0  0  0  0  0  0  0  0
    3.2006   -1.3932   -1.2042 Si  0  0  1  0  0  4  0  0  0  0  0  0
    2.6382   -3.1050   -0.7708 C   0  0  0  0  0  0  0  0  0  0  0  0
    2.2702   -4.2405   -0.4858 C   0  0  0  0  0  0  0  0  0  0  0  0
    1.8456   -5.5584   -0.1604 C   0  0  0  0  0  0  0  0  0  0  0  0
    0.8257   -5.7562    0.8186 C   0  0  0  0  0  0  0  0  0  0  0  0
    0.2206   -4.6662    1.4855 C   0  0  0  0  0  0  0  0  0  0  0  0
   -0.7768   -4.8393    2.4431 C   0  0  0  0  0  0  0  0  0  0  0  0
   -1.3920   -3.7322    3.1207 C   0  0  0  0  0  0  0  0  0  0  0  0
   -2.3699   -3.9368    4.0571 C   0  0  0  0  0  0  0  0  0  0  0  0
   -2.8012   -5.2645    4.3815 C   0  0  0  0  0  0  0  0  0  0  0  0
   -2.2419   -6.3491    3.7601 C   0  0  0  0  0  0  0  0  0  0  0  0
   -1.2133   -6.1835    2.7716 C   0  0  0  0  0  0  0  0  0  0  0  0
   -0.6229   -7.2652    2.1205 C   0  0  0  0  0  0  0  0  0  0  0  0
    0.3891   -7.1023    1.1480 C   0  0  0  0  0  0  0  0  0  0  0  0
    0.9834   -8.2240    0.4906 C   0  0  0  0  0  0  0  0  0  0  0  0
    0.5574   -9.5383    0.8105 C   0  0  0  0  0  0  0  0  0  0  0  0
    0.1904  -10.6721    1.0862 C   0  0  0  0  0  0  0  0  0  0  0  0
   -0.2370  -11.9932    1.4069 C   0  0  0  0  0  0  0  0  0  0  0  0
    0.3394  -13.1158    0.7692 C   0  0  0  0  0  0  0  0  0  0  0  0
   -0.0760  -14.4081    1.0804 C   0  0  0  0  0  0  0  0  0  0  0  0
   -1.0756  -14.5865    2.0363 C   0  0  0  0  0  0  0  0  0  0  0  0
   -1.4771  -15.8279    2.3375 F   0  0  0  0  0  0  0  0  0  0  0  0
   -1.6674  -13.5038    2.6861 C   0  0  0  0  0  0  0  0  0  0  0  0
   -1.2478  -12.2139    2.3707 C   0  0  0  0  0  0  0  0  0  0  0  0
    2.0060   -8.0249   -0.4884 C   0  0  0  0  0  0  0  0  0  0  0  0
    2.6139   -9.1123   -1.1552 C   0  0  0  0  0  0  0  0  0  0  0  0
    3.6120   -8.9373   -2.1121 C   0  0  0  0  0  0  0  0  0  0  0  0
    4.2300  -10.0426   -2.7896 C   0  0  0  0  0  0  0  0  0  0  0  0
    5.2087   -9.8358   -3.7249 C   0  0  0  0  0  0  0  0  0  0  0  0
    5.6380   -8.5072   -4.0481 C   0  0  0  0  0  0  0  0  0  0  0  0
    5.0763   -7.4240   -3.4267 C   0  0  0  0  0  0  0  0  0  0  0  0
    4.0468   -7.5922   -2.4392 C   0  0  0  0  0  0  0  0  0  0  0  0
    3.4547   -6.5118   -1.7880 C   0  0  0  0  0  0  0  0  0  0  0  0
    2.4411   -6.6780   -0.8164 C   0  0  0  0  0  0  0  0  0  0  0  0
    2.8614   -1.1429   -3.0799 C   0  0  1  0  0  0  0  0  0  0  0  0
    3.3078    0.2383   -3.5933 C   0  0  0  0  0  0  0  0  0  0  0  0
    3.3617   -2.2759   -3.9923 C   0  0  0  0  0  0  0  0  0  0  0  0
    5.0495   -1.2097   -0.6933 C   0  0  1  0  0  0  0  0  0  0  0  0
    5.3726   -1.9189    0.6358 C   0  0  0  0  0  0  0  0  0  0  0  0
    6.0581   -1.6480   -1.7696 C   0  0  0  0  0  0  0  0  0  0  0  0
    0.0110    0.4634   -0.0414 H   0  0  0  0  0  0  0  0  0  0  0  0
    0.2374   -1.2865   -0.2590 H   0  0  0  0  0  0  0  0  0  0  0  0
    0.3989   -0.1899   -1.6449 H   0  0  0  0  0  0  0  0  0  0  0  0
    2.4296    0.8533   -0.6257 H   0  0  0  0  0  0  0  0  0  0  0  0
    2.1047   -1.1146    1.7253 H   0  0  0  0  0  0  0  0  0  0  0  0
    1.6686    0.6071    1.7664 H   0  0  0  0  0  0  0  0  0  0  0  0
    3.3630    0.1293    1.5518 H   0  0  0  0  0  0  0  0  0  0  0  0
    0.5512   -3.6562    1.2377 H   0  0  0  0  0  0  0  0  0  0  0  0
   -1.0618   -2.7201    2.8717 H   0  0  0  0  0  0  0  0  0  0  0  0
   -2.8302   -3.0858    4.5655 H   0  0  0  0  0  0  0  0  0  0  0  0
   -3.5832   -5.4044    5.1321 H   0  0  0  0  0  0  0  0  0  0  0  0
   -2.5701   -7.3625    4.0067 H   0  0  0  0  0  0  0  0  0  0  0  0
   -0.9504   -8.2763    2.3675 H   0  0  0  0  0  0  0  0  0  0  0  0
    1.1211  -12.9631    0.0227 H   0  0  0  0  0  0  0  0  0  0  0  0
    0.3621  -15.2818    0.5942 H   0  0  0  0  0  0  0  0  0  0  0  0
   -2.4469  -13.6856    3.4284 H   0  0  0  0  0  0  0  0  0  0  0  0
   -1.7033  -11.3581    2.8724 H   0  0  0  0  0  0  0  0  0  0  0  0
    2.2869  -10.1236   -0.9084 H   0  0  0  0  0  0  0  0  0  0  0  0
    3.9015  -11.0557   -2.5422 H   0  0  0  0  0  0  0  0  0  0  0  0
    5.6709  -10.6857   -4.2333 H   0  0  0  0  0  0  0  0  0  0  0  0
    6.4205   -8.3656   -4.7979 H   0  0  0  0  0  0  0  0  0  0  0  0
    5.4021   -6.4097   -3.6723 H   0  0  0  0  0  0  0  0  0  0  0  0
    3.7814   -5.4994   -2.0314 H   0  0  0  0  0  0  0  0  0  0  0  0
    1.7566   -1.1678   -3.1271 H   0  0  0  0  0  0  0  0  0  0  0  0
    4.4043    0.3526   -3.5688 H   0  0  0  0  0  0  0  0  0  0  0  0
    2.8786    1.0651   -3.0044 H   0  0  0  0  0  0  0  0  0  0  0  0
    2.9932    0.3886   -4.6409 H   0  0  0  0  0  0  0  0  0  0  0  0
    4.4610   -2.3136   -4.0429 H   0  0  0  0  0  0  0  0  0  0  0  0
    2.9962   -2.1331   -5.0245 H   0  0  0  0  0  0  0  0  0  0  0  0
    3.0086   -3.2615   -3.6506 H   0  0  0  0  0  0  0  0  0  0  0  0
    5.1798   -0.1204   -0.5385 H   0  0  0  0  0  0  0  0  0  0  0  0
    5.2771   -3.0118    0.5324 H   0  0  0  0  0  0  0  0  0  0  0  0
    4.7120   -1.6135    1.4600 H   0  0  0  0  0  0  0  0  0  0  0  0
    6.4104   -1.7049    0.9466 H   0  0  0  0  0  0  0  0  0  0  0  0
    5.9582   -2.7210   -2.0047 H   0  0  0  0  0  0  0  0  0  0  0  0
    7.0924   -1.4923   -1.4156 H   0  0  0  0  0  0  0  0  0  0  0  0
    5.9478   -1.0887   -2.7105 H   0  0  0  0  0  0  0  0  0  0  0  0
  1  2  1  0
  1 44  1  0
  1 45  1  0
  1 46  1  0
  2  3  1  0
  2  4  1  0
  2 47  1  6
  3 48  1  0
  3 49  1  0
  3 50  1  0
  4  5  1  1
  4 38  1  0
  4 41  1  0
  5  6  3  0
  6  7  1  0
  7  8  2  0
  7 37  1  0
  8  9  1  0
  8 17  1  0
  9 10  2  0
  9 51  1  0
 10 11  1  0
 10 15  1  0
 11 12  2  0
 11 52  1  0
 12 13  1  0
 12 53  1  0
 13 14  2  0
 13 54  1  0
 14 15  1  0
 14 55  1  0
 15 16  2  0
 16 17  1  0
 16 56  1  0
 17 18  2  0
 18 19  1  0
 18 28  1  0
 19 20  3  0
 20 21  1  0
 21 22  2  0
 21 27  1  0
 22 23  1  0
 22 57  1  0
 23 24  2  0
 23 58  1  0
 24 25  1  0
 24 26  1  0
 26 27  2  0
 26 59  1  0
 27 60  1  0
 28 29  1  0
 28 37  2  0
 29 30  2  0
 29 61  1  0
 30 31  1  0
 30 35  1  0
 31 32  2  0
 31 62  1  0
 32 33  1  0
 32 63  1  0
 33 34  2  0
 33 64  1  0
 34 35  1  0
 34 65  1  0
 35 36  2  0
 36 37  1  0
 36 66  1  0
 38 39  1  0
 38 40  1  0
 38 67  1  1
 39 68  1  0
 39 69  1  0
 39 70  1  0
 40 71  1  0
 40 72  1  0
 40 73  1  0
 41 42  1  0
 41 43  1  0
 41 74  1  1
 42 75  1  0
 42 76  1  0
 42 77  1  0
 43 78  1  0
 43 79  1  0
 43 80  1  0
M  END

