
     RDKit          3D

242259  0  0  0  0  0  0  0  0999 V2000
    0.4507   -1.5201   -8.4849 C   0  0  0  0  0  0  0  0  0  0  0  0
   -0.8120   -0.9327   -7.8125 C   0  0  1  0  0  0  0  0  0  0  0  0
   -1.7991   -0.4568   -8.9037 C   0  0  0  0  0  0  0  0  0  0  0  0
   -1.4926   -2.0565   -7.0105 C   0  0  0  0  0  0  0  0  0  0  0  0
   -0.4149    0.2608   -6.9196 C   0  0  0  0  0  0  0  0  0  0  0  0
    0.2256    1.3839   -7.5016 C   0  0  0  0  0  0  0  0  0  0  0  0
    0.6116    2.5030   -6.7673 C   0  0  0  0  0  0  0  0  0  0  0  0
    0.3475    2.5114   -5.3924 C   0  0  0  0  0  0  0  0  0  0  0  0
   -0.2789    1.4012   -4.7727 C   0  0  0  0  0  0  0  0  0  0  0  0
   -0.6563    0.2892   -5.5417 C   0  0  0  0  0  0  0  0  0  0  0  0
   -0.3736    1.7122   -3.3590 C   0  0  0  0  0  0  0  0  0  0  0  0
   -0.9002    1.0240   -2.2547 C   0  0  0  0  0  0  0  0  0  0  0  0
   -0.8692    1.5958   -0.9781 C   0  0  0  0  0  0  0  0  0  0  0  0
   -1.4296    0.8830    0.2698 C   0  0  1  0  0  0  0  0  0  0  0  0
   -0.2986    0.6894    1.3066 C   0  0  0  0  0  0  0  0  0  0  0  0
   -2.5560    1.7392    0.8942 C   0  0  0  0  0  0  0  0  0  0  0  0
   -2.0124   -0.5017   -0.0653 C   0  0  0  0  0  0  0  0  0  0  0  0
   -0.2977    2.8866   -0.8458 C   0  0  0  0  0  0  0  0  0  0  0  0
    0.2341    3.5955   -1.9206 C   0  0  0  0  0  0  0  0  0  0  0  0
    0.2016    2.9958   -3.1853 C   0  0  0  0  0  0  0  0  0  0  0  0
    0.6380    3.4777   -4.4238 N   0  0  0  0  0  0  0  0  0  0  0  0
    1.2647    4.7284   -4.6570 C   0  0  0  0  0  0  0  0  0  0  0  0
    2.4355    5.0813   -3.9679 C   0  0  0  0  0  0  0  0  0  0  0  0
    3.0512    6.3106   -4.1958 C   0  0  0  0  0  0  0  0  0  0  0  0
    2.5148    7.2230   -5.1229 C   0  0  0  0  0  0  0  0  0  0  0  0
    3.1417    8.4737   -5.3579 N   0  0  0  0  0  0  0  0  0  0  0  0
    3.2626    8.9678   -6.6828 C   0  0  0  0  0  0  0  0  0  0  0  0
    3.0233   10.3231   -6.9733 C   0  0  0  0  0  0  0  0  0  0  0  0
    3.1506   10.8042   -8.2740 C   0  0  0  0  0  0  0  0  0  0  0  0
    3.5058    9.9595   -9.3443 C   0  0  0  0  0  0  0  0  0  0  0  0
    3.6329   10.4751  -10.7289 C   0  0  0  0  0  0  0  0  0  0  0  0
    4.0901   11.7822  -10.9883 C   0  0  0  0  0  0  0  0  0  0  0  0
    4.2194   12.2680  -12.2872 C   0  0  0  0  0  0  0  0  0  0  0  0
    3.8795   11.4650  -13.3908 C   0  0  0  0  0  0  0  0  0  0  0  0
    4.0030   11.9564  -14.7164 N   0  0  0  0  0  0  0  0  0  0  0  0
    4.5290   11.1195  -15.7345 C   0  0  0  0  0  0  0  0  0  0  0  0
    3.9447   11.0862  -17.0139 C   0  0  0  0  0  0  0  0  0  0  0  0
    4.4608   10.2616  -18.0118 C   0  0  0  0  0  0  0  0  0  0  0  0
    5.5773    9.4485  -17.7620 C   0  0  0  0  0  0  0  0  0  0  0  0
    6.1022    8.6098  -18.7779 N   0  0  0  0  0  0  0  0  0  0  0  0
    6.5252    9.0214  -20.0463 C   0  0  0  0  0  0  0  0  0  0  0  0
    6.5744   10.3019  -20.6104 C   0  0  0  0  0  0  0  0  0  0  0  0
    7.0685   10.4279  -21.9067 C   0  0  0  0  0  0  0  0  0  0  0  0
    7.5237    9.3239  -22.6711 C   0  0  0  0  0  0  0  0  0  0  0  0
    8.0498    9.5579  -24.1021 C   0  0  1  0  0  0  0  0  0  0  0  0
    9.2611   10.5183  -24.0588 C   0  0  0  0  0  0  0  0  0  0  0  0
    8.5015    8.2496  -24.7758 C   0  0  0  0  0  0  0  0  0  0  0  0
    6.9313   10.1824  -24.9686 C   0  0  0  0  0  0  0  0  0  0  0  0
    7.4756    8.0569  -22.0796 C   0  0  0  0  0  0  0  0  0  0  0  0
    6.9840    7.8956  -20.7747 C   0  0  0  0  0  0  0  0  0  0  0  0
    6.8291    6.7453  -19.9047 C   0  0  0  0  0  0  0  0  0  0  0  0
    7.0907    5.3753  -20.0637 C   0  0  0  0  0  0  0  0  0  0  0  0
    6.8146    4.4727  -19.0309 C   0  0  0  0  0  0  0  0  0  0  0  0
    7.0857    2.9589  -19.1502 C   0  0  1  0  0  0  0  0  0  0  0  0
    8.0882    2.5253  -18.0554 C   0  0  0  0  0  0  0  0  0  0  0  0
    5.7623    2.1791  -18.9707 C   0  0  0  0  0  0  0  0  0  0  0  0
    7.6802    2.5814  -20.5190 C   0  0  0  0  0  0  0  0  0  0  0  0
    6.2593    4.9890  -17.8328 C   0  0  0  0  0  0  0  0  0  0  0  0
    5.9887    6.3422  -17.6428 C   0  0  0  0  0  0  0  0  0  0  0  0
    6.2857    7.2261  -18.6872 C   0  0  0  0  0  0  0  0  0  0  0  0
    6.1640    9.4806  -16.4872 C   0  0  0  0  0  0  0  0  0  0  0  0
    5.6473   10.3024  -15.4875 C   0  0  0  0  0  0  0  0  0  0  0  0
    3.6013   13.2809  -15.0242 C   0  0  0  0  0  0  0  0  0  0  0  0
    4.3695   14.0854  -15.8864 C   0  0  0  0  0  0  0  0  0  0  0  0
    3.9644   15.3805  -16.2027 C   0  0  0  0  0  0  0  0  0  0  0  0
    2.7994   15.9242  -15.6393 C   0  0  0  0  0  0  0  0  0  0  0  0
    2.3972   17.2486  -15.9484 N   0  0  0  0  0  0  0  0  0  0  0  0
    1.1635   17.6278  -16.4873 C   0  0  0  0  0  0  0  0  0  0  0  0
    0.0679   16.8458  -16.8721 C   0  0  0  0  0  0  0  0  0  0  0  0
   -1.0431   17.4935  -17.4078 C   0  0  0  0  0  0  0  0  0  0  0  0
   -1.1087   18.8991  -17.5819 C   0  0  0  0  0  0  0  0  0  0  0  0
   -2.3830   19.5304  -18.1796 C   0  0  1  0  0  0  0  0  0  0  0  0
   -3.5943   19.2063  -17.2744 C   0  0  0  0  0  0  0  0  0  0  0  0
   -2.2716   21.0611  -18.2984 C   0  0  0  0  0  0  0  0  0  0  0  0
   -2.6321   18.9563  -19.5938 C   0  0  0  0  0  0  0  0  0  0  0  0
    0.0043   19.6564  -17.2005 C   0  0  0  0  0  0  0  0  0  0  0  0
    1.1399   19.0346  -16.6579 C   0  0  0  0  0  0  0  0  0  0  0  0
    2.4226   19.5314  -16.1975 C   0  0  0  0  0  0  0  0  0  0  0  0
    2.9811   20.8159  -16.1044 C   0  0  0  0  0  0  0  0  0  0  0  0
    4.2685   20.9971  -15.5869 C   0  0  0  0  0  0  0  0  0  0  0  0
    4.9316   22.3844  -15.4646 C   0  0  1  0  0  0  0  0  0  0  0  0
    5.2626   22.6719  -13.9816 C   0  0  0  0  0  0  0  0  0  0  0  0
    6.2360   22.4095  -16.2950 C   0  0  0  0  0  0  0  0  0  0  0  0
    4.0177   23.5120  -15.9772 C   0  0  0  0  0  0  0  0  0  0  0  0
    4.9766   19.8460  -15.1579 C   0  0  0  0  0  0  0  0  0  0  0  0
    4.4517   18.5581  -15.2376 C   0  0  0  0  0  0  0  0  0  0  0  0
    3.1665   18.4031  -15.7706 C   0  0  0  0  0  0  0  0  0  0  0  0
    2.0403   15.1314  -14.7643 C   0  0  0  0  0  0  0  0  0  0  0  0
    2.4248   13.8238  -14.4747 C   0  0  0  0  0  0  0  0  0  0  0  0
    3.4138   10.1606  -13.1454 C   0  0  0  0  0  0  0  0  0  0  0  0
    3.3022    9.6791  -11.8433 C   0  0  0  0  0  0  0  0  0  0  0  0
    3.7353    8.6029   -9.0407 C   0  0  0  0  0  0  0  0  0  0  0  0
    3.6250    8.1151   -7.7410 C   0  0  0  0  0  0  0  0  0  0  0  0
    3.6481    9.2294   -4.2697 C   0  0  0  0  0  0  0  0  0  0  0  0
    4.8889    9.8861   -4.3648 C   0  0  0  0  0  0  0  0  0  0  0  0
    5.3865   10.6275   -3.2950 C   0  0  0  0  0  0  0  0  0  0  0  0
    4.6588   10.7375   -2.0998 C   0  0  0  0  0  0  0  0  0  0  0  0
    5.1656   11.4936   -1.0122 N   0  0  0  0  0  0  0  0  0  0  0  0
    5.5380   12.8413   -1.0517 C   0  0  0  0  0  0  0  0  0  0  0  0
    5.4825   13.7628   -2.1043 C   0  0  0  0  0  0  0  0  0  0  0  0
    5.9042   15.0670   -1.8559 C   0  0  0  0  0  0  0  0  0  0  0  0
    6.3799   15.4978   -0.5915 C   0  0  0  0  0  0  0  0  0  0  0  0
    6.8307   16.9617   -0.4095 C   0  0  1  0  0  0  0  0  0  0  0  0
    5.6481   17.9102   -0.7149 C   0  0  0  0  0  0  0  0  0  0  0  0
    7.3133   17.2466    1.0243 C   0  0  0  0  0  0  0  0  0  0  0  0
    7.9968   17.2684   -1.3779 C   0  0  0  0  0  0  0  0  0  0  0  0
    6.4140   14.5603    0.4466 C   0  0  0  0  0  0  0  0  0  0  0  0
    5.9951   13.2382    0.2297 C   0  0  0  0  0  0  0  0  0  0  0  0
    5.8963   12.0720    1.0867 C   0  0  0  0  0  0  0  0  0  0  0  0
    6.2088   11.8383    2.4352 C   0  0  0  0  0  0  0  0  0  0  0  0
    6.0223   10.5721    3.0005 C   0  0  0  0  0  0  0  0  0  0  0  0
    6.3460   10.2607    4.4762 C   0  0  1  0  0  0  0  0  0  0  0  0
    5.0639    9.7840    5.1977 C   0  0  0  0  0  0  0  0  0  0  0  0
    7.4182    9.1486    4.5485 C   0  0  0  0  0  0  0  0  0  0  0  0
    6.8850   11.4930    5.2248 C   0  0  0  0  0  0  0  0  0  0  0  0
    5.5175    9.5433    2.1656 C   0  0  0  0  0  0  0  0  0  0  0  0
    5.1967    9.7424    0.8247 C   0  0  0  0  0  0  0  0  0  0  0  0
    5.3813   11.0216    0.2866 C   0  0  0  0  0  0  0  0  0  0  0  0
    3.4199   10.0852   -2.0018 C   0  0  0  0  0  0  0  0  0  0  0  0
    2.9218    9.3413   -3.0698 C   0  0  0  0  0  0  0  0  0  0  0  0
    1.3423    6.8650   -5.8131 C   0  0  0  0  0  0  0  0  0  0  0  0
    0.7263    5.6366   -5.5819 C   0  0  0  0  0  0  0  0  0  0  0  0
    0.1841   -2.3736   -9.1303 H   0  0  0  0  0  0  0  0  0  0  0  0
    1.1700   -1.8753   -7.7298 H   0  0  0  0  0  0  0  0  0  0  0  0
    0.9659   -0.7772   -9.1129 H   0  0  0  0  0  0  0  0  0  0  0  0
   -2.0915   -1.2976   -9.5547 H   0  0  0  0  0  0  0  0  0  0  0  0
   -1.3592    0.3222   -9.5449 H   0  0  0  0  0  0  0  0  0  0  0  0
   -2.7142   -0.0408   -8.4528 H   0  0  0  0  0  0  0  0  0  0  0  0
   -1.7607   -2.8864   -7.6834 H   0  0  0  0  0  0  0  0  0  0  0  0
   -2.4194   -1.7118   -6.5258 H   0  0  0  0  0  0  0  0  0  0  0  0
   -0.8300   -2.4646   -6.2312 H   0  0  0  0  0  0  0  0  0  0  0  0
    0.4337    1.3839   -8.5740 H   0  0  0  0  0  0  0  0  0  0  0  0
    1.1086    3.3422   -7.2567 H   0  0  0  0  0  0  0  0  0  0  0  0
   -1.1375   -0.5521   -5.0425 H   0  0  0  0  0  0  0  0  0  0  0  0
   -1.3367    0.0377   -2.4136 H   0  0  0  0  0  0  0  0  0  0  0  0
    0.1365    1.6492    1.6245 H   0  0  0  0  0  0  0  0  0  0  0  0
    0.5159    0.0748    0.8909 H   0  0  0  0  0  0  0  0  0  0  0  0
   -0.6821    0.1830    2.2081 H   0  0  0  0  0  0  0  0  0  0  0  0
   -2.1962    2.7338    1.1990 H   0  0  0  0  0  0  0  0  0  0  0  0
   -2.9662    1.2449    1.7906 H   0  0  0  0  0  0  0  0  0  0  0  0
   -3.3808    1.8872    0.1790 H   0  0  0  0  0  0  0  0  0  0  0  0
   -1.2520   -1.1759   -0.4895 H   0  0  0  0  0  0  0  0  0  0  0  0
   -2.8472   -0.4340   -0.7805 H   0  0  0  0  0  0  0  0  0  0  0  0
   -2.3999   -0.9757    0.8504 H   0  0  0  0  0  0  0  0  0  0  0  0
   -0.2686    3.3596    0.1385 H   0  0  0  0  0  0  0  0  0  0  0  0
    0.6575    4.5903   -1.7728 H   0  0  0  0  0  0  0  0  0  0  0  0
    2.8781    4.3735   -3.2643 H   0  0  0  0  0  0  0  0  0  0  0  0
    3.9689    6.5629   -3.6615 H   0  0  0  0  0  0  0  0  0  0  0  0
    2.7230   11.0002   -6.1714 H   0  0  0  0  0  0  0  0  0  0  0  0
    2.9290   11.8562   -8.4680 H   0  0  0  0  0  0  0  0  0  0  0  0
    4.3906   12.4235  -10.1566 H   0  0  0  0  0  0  0  0  0  0  0  0
    4.5990   13.2780  -12.4532 H   0  0  0  0  0  0  0  0  0  0  0  0
    3.0679   11.7022  -17.2214 H   0  0  0  0  0  0  0  0  0  0  0  0
    3.9805   10.2278  -18.9916 H   0  0  0  0  0  0  0  0  0  0  0  0
    6.2416   11.1814  -20.0569 H   0  0  0  0  0  0  0  0  0  0  0  0
    7.1032   11.4295  -22.3415 H   0  0  0  0  0  0  0  0  0  0  0  0
   10.0781   10.0948  -23.4532 H   0  0  0  0  0  0  0  0  0  0  0  0
    8.9967   11.4952  -23.6259 H   0  0  0  0  0  0  0  0  0  0  0  0
    9.6483   10.6990  -25.0755 H   0  0  0  0  0  0  0  0  0  0  0  0
    9.3217    7.7649  -24.2234 H   0  0  0  0  0  0  0  0  0  0  0  0
    8.8679    8.4603  -25.7930 H   0  0  0  0  0  0  0  0  0  0  0  0
    7.6752    7.5271  -24.8655 H   0  0  0  0  0  0  0  0  0  0  0  0
    6.5888   11.1475  -24.5650 H   0  0  0  0  0  0  0  0  0  0  0  0
    6.0570    9.5144  -25.0243 H   0  0  0  0  0  0  0  0  0  0  0  0
    7.2909   10.3601  -25.9959 H   0  0  0  0  0  0  0  0  0  0  0  0
    7.8220    7.1757  -22.6200 H   0  0  0  0  0  0  0  0  0  0  0  0
    7.5093    5.0298  -21.0092 H   0  0  0  0  0  0  0  0  0  0  0  0
    7.7055    2.7289  -17.0436 H   0  0  0  0  0  0  0  0  0  0  0  0
    9.0456    3.0596  -18.1641 H   0  0  0  0  0  0  0  0  0  0  0  0
    8.2917    1.4435  -18.1229 H   0  0  0  0  0  0  0  0  0  0  0  0
    5.3020    2.3695  -17.9892 H   0  0  0  0  0  0  0  0  0  0  0  0
    5.9389    1.0934  -19.0501 H   0  0  0  0  0  0  0  0  0  0  0  0
    5.0301    2.4627  -19.7435 H   0  0  0  0  0  0  0  0  0  0  0  0
    8.6446    3.0814  -20.7000 H   0  0  0  0  0  0  0  0  0  0  0  0
    7.0007    2.8379  -21.3468 H   0  0  0  0  0  0  0  0  0  0  0  0
    7.8582    1.4953  -20.5624 H   0  0  0  0  0  0  0  0  0  0  0  0
    6.0263    4.3048  -17.0137 H   0  0  0  0  0  0  0  0  0  0  0  0
    5.5538    6.6936  -16.7057 H   0  0  0  0  0  0  0  0  0  0  0  0
    7.0478    8.8715  -16.2877 H   0  0  0  0  0  0  0  0  0  0  0  0
    6.1229   10.3245  -14.5054 H   0  0  0  0  0  0  0  0  0  0  0  0
    5.2869   13.6849  -16.3215 H   0  0  0  0  0  0  0  0  0  0  0  0
    4.5600   15.9840  -16.8906 H   0  0  0  0  0  0  0  0  0  0  0  0
    0.0770   15.7600  -16.7637 H   0  0  0  0  0  0  0  0  0  0  0  0
   -1.8951   16.8780  -17.7052 H   0  0  0  0  0  0  0  0  0  0  0  0
   -3.4480   19.6114  -16.2605 H   0  0  0  0  0  0  0  0  0  0  0  0
   -3.7585   18.1219  -17.1800 H   0  0  0  0  0  0  0  0  0  0  0  0
   -4.5162   19.6476  -17.6884 H   0  0  0  0  0  0  0  0  0  0  0  0
   -2.1214   21.5394  -17.3179 H   0  0  0  0  0  0  0  0  0  0  0  0
   -3.1997   21.4712  -18.7272 H   0  0  0  0  0  0  0  0  0  0  0  0
   -1.4423   21.3627  -18.9572 H   0  0  0  0  0  0  0  0  0  0  0  0
   -2.7650   17.8638  -19.5770 H   0  0  0  0  0  0  0  0  0  0  0  0
   -1.7870   19.1797  -20.2642 H   0  0  0  0  0  0  0  0  0  0  0  0
   -3.5427   19.3952  -20.0348 H   0  0  0  0  0  0  0  0  0  0  0  0
    0.0098   20.7398  -17.3217 H   0  0  0  0  0  0  0  0  0  0  0  0
    2.3899   21.6682  -16.4398 H   0  0  0  0  0  0  0  0  0  0  0  0
    5.9510   21.9230  -13.5610 H   0  0  0  0  0  0  0  0  0  0  0  0
    4.3488   22.6684  -13.3662 H   0  0  0  0  0  0  0  0  0  0  0  0
    5.7412   23.6598  -13.8762 H   0  0  0  0  0  0  0  0  0  0  0  0
    6.9566   21.6514  -15.9518 H   0  0  0  0  0  0  0  0  0  0  0  0
    6.7262   23.3942  -16.2164 H   0  0  0  0  0  0  0  0  0  0  0  0
    6.0290   22.2158  -17.3596 H   0  0  0  0  0  0  0  0  0  0  0  0
    3.0779   23.5709  -15.4060 H   0  0  0  0  0  0  0  0  0  0  0  0
    3.7642   23.3835  -17.0412 H   0  0  0  0  0  0  0  0  0  0  0  0
    4.5280   24.4827  -15.8741 H   0  0  0  0  0  0  0  0  0  0  0  0
    5.9802   19.9605  -14.7418 H   0  0  0  0  0  0  0  0  0  0  0  0
    5.0303   17.7014  -14.8881 H   0  0  0  0  0  0  0  0  0  0  0  0
    1.1364   15.5451  -14.3127 H   0  0  0  0  0  0  0  0  0  0  0  0
    1.8144   13.2168  -13.8038 H   0  0  0  0  0  0  0  0  0  0  0  0
    3.1265    9.5252  -13.9852 H   0  0  0  0  0  0  0  0  0  0  0  0
    2.9100    8.6713  -11.6889 H   0  0  0  0  0  0  0  0  0  0  0  0
    4.0471    7.9184   -9.8329 H   0  0  0  0  0  0  0  0  0  0  0  0
    3.8333    7.0631   -7.5369 H   0  0  0  0  0  0  0  0  0  0  0  0
    5.4739    9.8004   -5.2822 H   0  0  0  0  0  0  0  0  0  0  0  0
    6.3625   11.1103   -3.3752 H   0  0  0  0  0  0  0  0  0  0  0  0
    5.1169   13.4775   -3.0921 H   0  0  0  0  0  0  0  0  0  0  0  0
    5.8591   15.7810   -2.6813 H   0  0  0  0  0  0  0  0  0  0  0  0
    4.8038   17.7191   -0.0335 H   0  0  0  0  0  0  0  0  0  0  0  0
    5.2793   17.7897   -1.7450 H   0  0  0  0  0  0  0  0  0  0  0  0
    5.9541   18.9625   -0.5922 H   0  0  0  0  0  0  0  0  0  0  0  0
    6.5179   17.0772    1.7669 H   0  0  0  0  0  0  0  0  0  0  0  0
    7.6269   18.2989    1.1109 H   0  0  0  0  0  0  0  0  0  0  0  0
    8.1770   16.6210    1.2989 H   0  0  0  0  0  0  0  0  0  0  0  0
    7.7061   17.1255   -2.4299 H   0  0  0  0  0  0  0  0  0  0  0  0
    8.8585   16.6119   -1.1773 H   0  0  0  0  0  0  0  0  0  0  0  0
    8.3302   18.3134   -1.2639 H   0  0  0  0  0  0  0  0  0  0  0  0
    6.7622   14.8415    1.4406 H   0  0  0  0  0  0  0  0  0  0  0  0
    6.6030   12.6622    3.0304 H   0  0  0  0  0  0  0  0  0  0  0  0
    4.6466    8.8754    4.7373 H   0  0  0  0  0  0  0  0  0  0  0  0
    4.2837   10.5613    5.1692 H   0  0  0  0  0  0  0  0  0  0  0  0
    5.2773    9.5535    6.2548 H   0  0  0  0  0  0  0  0  0  0  0  0
    7.0795    8.2185    4.0670 H   0  0  0  0  0  0  0  0  0  0  0  0
    7.6593    8.9110    5.5980 H   0  0  0  0  0  0  0  0  0  0  0  0
    8.3475    9.4644    4.0482 H   0  0  0  0  0  0  0  0  0  0  0  0
    6.1555   12.3179    5.2371 H   0  0  0  0  0  0  0  0  0  0  0  0
    7.8192   11.8687    4.7788 H   0  0  0  0  0  0  0  0  0  0  0  0
    7.1022   11.2287    6.2719 H   0  0  0  0  0  0  0  0  0  0  0  0
    5.3706    8.5431    2.5796 H   0  0  0  0  0  0  0  0  0  0  0  0
    4.8176    8.9186    0.2177 H   0  0  0  0  0  0  0  0  0  0  0  0
    2.8327   10.1833   -1.0866 H   0  0  0  0  0  0  0  0  0  0  0  0
    1.9499    8.8524   -2.9814 H   0  0  0  0  0  0  0  0  0  0  0  0
    0.9032    7.5648   -6.5263 H   0  0  0  0  0  0  0  0  0  0  0  0
   -0.1973    5.3841   -6.1066 H   0  0  0  0  0  0  0  0  0  0  0  0
  2  1  1  6
  1123  1  0
  1124  1  0
  1125  1  0
  2  3  1  0
  2  4  1  0
  2  5  1  0
  3126  1  0
  3127  1  0
  3128  1  0
  4129  1  0
  4130  1  0
  4131  1  0
  5  6  2  0
  5 10  1  0
  6  7  1  0
  6132  1  0
  7  8  2  0
  7133  1  0
  8  9  1  0
  8 21  1  0
  9 10  2  0
  9 11  1  0
 10134  1  0
 11 12  2  0
 11 20  1  0
 12 13  1  0
 12135  1  0
 13 14  1  0
 13 18  2  0
 14 15  1  1
 14 16  1  0
 14 17  1  0
 15136  1  0
 15137  1  0
 15138  1  0
 16139  1  0
 16140  1  0
 16141  1  0
 17142  1  0
 17143  1  0
 17144  1  0
 18 19  1  0
 18145  1  0
 19 20  2  0
 19146  1  0
 20 21  1  0
 21 22  1  0
 22 23  2  0
 22122  1  0
 23 24  1  0
 23147  1  0
 24 25  2  0
 24148  1  0
 25 26  1  0
 25121  1  0
 26 27  1  0
 26 94  1  0
 27 28  2  0
 27 93  1  0
 28 29  1  0
 28149  1  0
 29 30  2  0
 29150  1  0
 30 31  1  0
 30 92  1  0
 31 32  2  0
 31 91  1  0
 32 33  1  0
 32151  1  0
 33 34  2  0
 33152  1  0
 34 35  1  0
 34 90  1  0
 35 36  1  0
 35 63  1  0
 36 37  2  0
 36 62  1  0
 37 38  1  0
 37153  1  0
 38 39  2  0
 38154  1  0
 39 40  1  0
 39 61  1  0
 40 41  1  0
 40 60  1  0
 41 42  2  0
 41 50  1  0
 42 43  1  0
 42155  1  0
 43 44  2  0
 43156  1  0
 44 45  1  0
 44 49  1  0
 45 46  1  1
 45 47  1  0
 45 48  1  0
 46157  1  0
 46158  1  0
 46159  1  0
 47160  1  0
 47161  1  0
 47162  1  0
 48163  1  0
 48164  1  0
 48165  1  0
 49 50  2  0
 49166  1  0
 50 51  1  0
 51 52  1  0
 51 60  2  0
 52 53  2  0
 52167  1  0
 53 54  1  0
 53 58  1  0
 54 55  1  1
 54 56  1  0
 54 57  1  0
 55168  1  0
 55169  1  0
 55170  1  0
 56171  1  0
 56172  1  0
 56173  1  0
 57174  1  0
 57175  1  0
 57176  1  0
 58 59  2  0
 58177  1  0
 59 60  1  0
 59178  1  0
 61 62  2  0
 61179  1  0
 62180  1  0
 63 64  2  0
 63 89  1  0
 64 65  1  0
 64181  1  0
 65 66  2  0
 65182  1  0
 66 67  1  0
 66 88  1  0
 67 68  1  0
 67 87  1  0
 68 69  2  0
 68 77  1  0
 69 70  1  0
 69183  1  0
 70 71  2  0
 70184  1  0
 71 72  1  0
 71 76  1  0
 72 73  1  1
 72 74  1  0
 72 75  1  0
 73185  1  0
 73186  1  0
 73187  1  0
 74188  1  0
 74189  1  0
 74190  1  0
 75191  1  0
 75192  1  0
 75193  1  0
 76 77  2  0
 76194  1  0
 77 78  1  0
 78 79  1  0
 78 87  2  0
 79 80  2  0
 79195  1  0
 80 81  1  0
 80 85  1  0
 81 82  1  1
 81 83  1  0
 81 84  1  0
 82196  1  0
 82197  1  0
 82198  1  0
 83199  1  0
 83200  1  0
 83201  1  0
 84202  1  0
 84203  1  0
 84204  1  0
 85 86  2  0
 85205  1  0
 86 87  1  0
 86206  1  0
 88 89  2  0
 88207  1  0
 89208  1  0
 90 91  2  0
 90209  1  0
 91210  1  0
 92 93  2  0
 92211  1  0
 93212  1  0
 94 95  2  0
 94120  1  0
 95 96  1  0
 95213  1  0
 96 97  2  0
 96214  1  0
 97 98  1  0
 97119  1  0
 98 99  1  0
 98118  1  0
 99100  2  0
 99108  1  0
100101  1  0
100215  1  0
101102  2  0
101216  1  0
102103  1  0
102107  1  0
103104  1  6
103105  1  0
103106  1  0
104217  1  0
104218  1  0
104219  1  0
105220  1  0
105221  1  0
105222  1  0
106223  1  0
106224  1  0
106225  1  0
107108  2  0
107226  1  0
108109  1  0
109110  1  0
109118  2  0
110111  2  0
110227  1  0
111112  1  0
111116  1  0
112113  1  1
112114  1  0
112115  1  0
113228  1  0
113229  1  0
113230  1  0
114231  1  0
114232  1  0
114233  1  0
115234  1  0
115235  1  0
115236  1  0
116117  2  0
116237  1  0
117118  1  0
117238  1  0
119120  2  0
119239  1  0
120240  1  0
121122  2  0
121241  1  0
122242  1  0
M  END

