
     RDKit          3D

 38 37  0  0  0  0  0  0  0  0999 V2000
    1.9709   -0.0442    6.3875 C   0  0  0  0  0  0  0  0  0  0  0  0
    2.5024    0.7727    5.2232 C   0  0  0  0  0  0  0  0  0  0  0  0
    3.0603   -0.0955    4.2133 O   0  0  0  0  0  0  0  0  0  0  0  0
    4.3908   -0.1187    4.0314 C   0  0  0  0  0  0  0  0  0  0  0  0
    5.1669    0.5745    4.6531 O   0  0  0  0  0  0  0  0  0  0  0  0
    4.7873   -1.1286    2.9593 C   0  0  1  0  0  0  0  0  0  0  0  0
    4.0682   -0.8424    1.6309 C   0  0  0  0  0  0  0  0  0  0  0  0
    6.3228   -1.1810    2.7726 C   0  0  0  0  0  0  0  0  0  0  0  0
    7.1276   -1.5061    3.9339 N   0  0  0  0  0  0  0  0  0  0  0  0
    7.0490   -2.8602    4.4764 C   0  0  1  0  0  0  0  0  0  0  0  0
    7.9297   -3.8175    3.6635 C   0  0  0  0  0  0  0  0  0  0  0  0
    7.4847   -2.8466    5.9531 C   0  0  0  0  0  0  0  0  0  0  0  0
    6.5405   -2.1175    6.9217 C   0  0  0  0  0  0  0  0  0  0  0  0
    5.2317   -2.8550    7.2044 C   0  0  0  0  0  0  0  0  0  0  0  0
    4.3442   -2.1112    8.0188 O   0  0  0  0  0  0  0  0  0  0  0  0
    1.4872    0.6258    7.1172 H   0  0  0  0  0  0  0  0  0  0  0  0
    2.7759   -0.5912    6.9028 H   0  0  0  0  0  0  0  0  0  0  0  0
    1.2184   -0.7718    6.0447 H   0  0  0  0  0  0  0  0  0  0  0  0
    3.2774    1.4822    5.5441 H   0  0  0  0  0  0  0  0  0  0  0  0
    1.6949    1.3277    4.7207 H   0  0  0  0  0  0  0  0  0  0  0  0
    4.4275   -2.1056    3.3298 H   0  0  0  0  0  0  0  0  0  0  0  0
    4.3725    0.1347    1.2203 H   0  0  0  0  0  0  0  0  0  0  0  0
    2.9772   -0.8343    1.7603 H   0  0  0  0  0  0  0  0  0  0  0  0
    4.3229   -1.6117    0.8851 H   0  0  0  0  0  0  0  0  0  0  0  0
    6.6524   -0.1979    2.3945 H   0  0  0  0  0  0  0  0  0  0  0  0
    6.5366   -1.9035    1.9666 H   0  0  0  0  0  0  0  0  0  0  0  0
    6.9689   -0.8003    4.6473 H   0  0  0  0  0  0  0  0  0  0  0  0
    6.0103   -3.2603    4.4364 H   0  0  0  0  0  0  0  0  0  0  0  0
    8.9864   -3.5131    3.7327 H   0  0  0  0  0  0  0  0  0  0  0  0
    7.6509   -3.8136    2.5981 H   0  0  0  0  0  0  0  0  0  0  0  0
    7.8335   -4.8537    4.0274 H   0  0  0  0  0  0  0  0  0  0  0  0
    8.4846   -2.3809    5.9985 H   0  0  0  0  0  0  0  0  0  0  0  0
    7.6155   -3.8895    6.2911 H   0  0  0  0  0  0  0  0  0  0  0  0
    6.2906   -1.1092    6.5508 H   0  0  0  0  0  0  0  0  0  0  0  0
    7.0668   -1.9661    7.8829 H   0  0  0  0  0  0  0  0  0  0  0  0
    5.4500   -3.8477    7.6511 H   0  0  0  0  0  0  0  0  0  0  0  0
    4.6838   -3.0467    6.2681 H   0  0  0  0  0  0  0  0  0  0  0  0
    4.8145   -1.8502    8.8220 H   0  0  0  0  0  0  0  0  0  0  0  0
  1  2  1  0
  1 16  1  0
  1 17  1  0
  1 18  1  0
  2  3  1  0
  2 19  1  0
  2 20  1  0
  3  4  1  0
  4  5  2  0
  4  6  1  0
  6  7  1  0
  6  8  1  0
  6 21  1  1
  7 22  1  0
  7 23  1  0
  7 24  1  0
  8  9  1  0
  8 25  1  0
  8 26  1  0
  9 10  1  0
  9 27  1  0
 10 11  1  0
 10 12  1  0
 10 28  1  1
 11 29  1  0
 11 30  1  0
 11 31  1  0
 12 13  1  0
 12 32  1  0
 12 33  1  0
 13 14  1  0
 13 34  1  0
 13 35  1  0
 14 15  1  0
 14 36  1  0
 14 37  1  0
 15 38  1  0
M  END

