
     RDKit          3D

 87 88  0  0  0  0  0  0  0  0999 V2000
   12.2127    0.9097   -7.0784 C   0  0  0  0  0  0  0  0  0  0  0  0
   11.9617    2.2517   -7.4849 O   0  0  0  0  0  0  0  0  0  0  0  0
   12.0249    3.1931   -6.5176 C   0  0  0  0  0  0  0  0  0  0  0  0
   12.2738    2.9155   -5.3609 O   0  0  0  0  0  0  0  0  0  0  0  0
   11.7333    4.5307   -7.0783 C   0  0  0  0  0  0  0  0  0  0  0  0
   11.8502    5.7021   -6.4247 C   0  0  0  0  0  0  0  0  0  0  0  0
   12.3513    5.9577   -5.0350 C   0  0  0  0  0  0  0  0  0  0  0  0
   11.4550    6.9091   -4.2179 C   0  0  2  0  0  0  0  0  0  0  0  0
   11.9973    7.1085   -3.2698 H   0  0  0  0  0  0  0  0  0  0  0  0
   10.0988    6.3548   -3.8442 C   0  0  0  0  0  0  0  0  0  0  0  0
    9.7217    5.0720   -3.8516 C   0  0  0  0  0  0  0  0  0  0  0  0
    8.3674    4.5806   -3.4232 C   0  0  0  0  0  0  0  0  0  0  0  0
    8.4158    3.6042   -2.2440 C   0  0  2  0  0  0  0  0  0  0  0  0
    9.1062    2.7783   -2.5101 H   0  0  0  0  0  0  0  0  0  0  0  0
    7.0480    3.0327   -1.8766 C   0  0  0  0  0  0  0  0  0  0  0  0
    7.1250    2.1939   -0.5911 C   0  0  1  0  0  0  0  0  0  0  0  0
    6.1128    2.1510   -0.1575 H   0  0  0  0  0  0  0  0  0  0  0  0
    7.5727    0.7399   -0.8320 C   0  0  0  0  0  0  0  0  0  0  0  0
    7.7675   -0.0972    0.4389 C   0  0  0  0  0  0  0  0  0  0  0  0
    6.5170   -0.2501    1.3108 C   0  0  0  0  0  0  0  0  0  0  0  0
    6.7350   -1.1853    2.5147 C   0  0  0  0  0  0  0  0  0  0  0  0
    5.5110   -1.3348    3.3915 C   0  0  0  0  0  0  0  0  0  0  0  0
    4.5866   -2.3690    3.1732 C   0  0  0  0  0  0  0  0  0  0  0  0
    3.4354   -2.4856    3.9575 C   0  0  0  0  0  0  0  0  0  0  0  0
    3.1861   -1.5649    4.9794 C   0  0  0  0  0  0  0  0  0  0  0  0
    4.0976   -0.5298    5.2098 C   0  0  0  0  0  0  0  0  0  0  0  0
    5.2470   -0.4183    4.4228 C   0  0  0  0  0  0  0  0  0  0  0  0
    7.8866    2.8673    0.4148 O   0  0  0  0  0  0  0  0  0  0  0  0
    9.0756    3.5762    0.0756 C   0  0  2  0  0  0  0  0  0  0  0  0
   10.2972    2.6455   -0.0103 C   0  0  0  0  0  0  0  0  0  0  0  0
    9.2561    4.6103    1.1810 C   0  0  0  0  0  0  0  0  0  0  0  0
    8.9221    4.3170   -1.1225 O   0  0  0  0  0  0  0  0  0  0  0  0
   11.2876    8.1289   -4.9352 O   0  0  0  0  0  0  0  0  0  0  0  0
   11.6285    9.6921   -4.3908 Si  0  0  1  0  0  4  0  0  0  0  0  0
   10.6513   10.0483   -2.8140 C   0  0  0  0  0  0  0  0  0  0  0  0
   13.4738    9.8364   -4.0088 C   0  0  0  0  0  0  0  0  0  0  0  0
   11.0974   10.8252   -5.8405 C   0  0  1  0  0  0  0  0  0  0  0  0
    9.6058   10.5868   -6.1541 C   0  0  0  0  0  0  0  0  0  0  0  0
   11.3129   12.3039   -5.4570 C   0  0  0  0  0  0  0  0  0  0  0  0
   11.9352   10.4951   -7.0929 C   0  0  0  0  0  0  0  0  0  0  0  0
   12.1223    0.2931   -7.9815 H   0  0  0  0  0  0  0  0  0  0  0  0
   11.4831    0.5842   -6.3207 H   0  0  0  0  0  0  0  0  0  0  0  0
   13.2213    0.8098   -6.6485 H   0  0  0  0  0  0  0  0  0  0  0  0
   11.3992    4.5271   -8.1186 H   0  0  0  0  0  0  0  0  0  0  0  0
   11.5744    6.6073   -6.9763 H   0  0  0  0  0  0  0  0  0  0  0  0
   13.3304    6.4629   -5.1315 H   0  0  0  0  0  0  0  0  0  0  0  0
   12.5208    5.0208   -4.4915 H   0  0  0  0  0  0  0  0  0  0  0  0
    9.3904    7.1185   -3.5005 H   0  0  0  0  0  0  0  0  0  0  0  0
   10.4258    4.2980   -4.1799 H   0  0  0  0  0  0  0  0  0  0  0  0
    7.8833    4.0521   -4.2653 H   0  0  0  0  0  0  0  0  0  0  0  0
    7.7166    5.4280   -3.1507 H   0  0  0  0  0  0  0  0  0  0  0  0
    6.6429    2.4232   -2.7007 H   0  0  0  0  0  0  0  0  0  0  0  0
    6.3601    3.8792   -1.7162 H   0  0  0  0  0  0  0  0  0  0  0  0
    6.7991    0.2691   -1.4661 H   0  0  0  0  0  0  0  0  0  0  0  0
    8.5011    0.7147   -1.4262 H   0  0  0  0  0  0  0  0  0  0  0  0
    8.5737    0.3484    1.0448 H   0  0  0  0  0  0  0  0  0  0  0  0
    8.1247   -1.1000    0.1428 H   0  0  0  0  0  0  0  0  0  0  0  0
    5.6784   -0.6362    0.7027 H   0  0  0  0  0  0  0  0  0  0  0  0
    6.1966    0.7365    1.6854 H   0  0  0  0  0  0  0  0  0  0  0  0
    7.5747   -0.7983    3.1176 H   0  0  0  0  0  0  0  0  0  0  0  0
    7.0485   -2.1781    2.1482 H   0  0  0  0  0  0  0  0  0  0  0  0
    4.7754   -3.0978    2.3789 H   0  0  0  0  0  0  0  0  0  0  0  0
    2.7318   -3.3017    3.7720 H   0  0  0  0  0  0  0  0  0  0  0  0
    2.2881   -1.6557    5.5961 H   0  0  0  0  0  0  0  0  0  0  0  0
    3.9148    0.1929    6.0097 H   0  0  0  0  0  0  0  0  0  0  0  0
    5.9565    0.3926    4.6140 H   0  0  0  0  0  0  0  0  0  0  0  0
   10.4270    2.1054    0.9388 H   0  0  0  0  0  0  0  0  0  0  0  0
   11.2010    3.2420   -0.2040 H   0  0  0  0  0  0  0  0  0  0  0  0
   10.2063    1.9024   -0.8133 H   0  0  0  0  0  0  0  0  0  0  0  0
    9.3517    4.1113    2.1559 H   0  0  0  0  0  0  0  0  0  0  0  0
    8.3753    5.2668    1.2000 H   0  0  0  0  0  0  0  0  0  0  0  0
   10.1529    5.2176    0.9920 H   0  0  0  0  0  0  0  0  0  0  0  0
   10.9049    9.3228   -2.0231 H   0  0  0  0  0  0  0  0  0  0  0  0
    9.5643    9.9896   -2.9833 H   0  0  0  0  0  0  0  0  0  0  0  0
   10.8792   11.0527   -2.4202 H   0  0  0  0  0  0  0  0  0  0  0  0
   13.7637    9.1375   -3.2064 H   0  0  0  0  0  0  0  0  0  0  0  0
   13.7348   10.8511   -3.6653 H   0  0  0  0  0  0  0  0  0  0  0  0
   14.0929    9.6077   -4.8910 H   0  0  0  0  0  0  0  0  0  0  0  0
    8.9570   10.8530   -5.3034 H   0  0  0  0  0  0  0  0  0  0  0  0
    9.4105    9.5331   -6.4071 H   0  0  0  0  0  0  0  0  0  0  0  0
    9.2883   11.2067   -7.0125 H   0  0  0  0  0  0  0  0  0  0  0  0
   10.7167   12.5963   -4.5769 H   0  0  0  0  0  0  0  0  0  0  0  0
   11.0100   12.9655   -6.2889 H   0  0  0  0  0  0  0  0  0  0  0  0
   12.3699   12.5270   -5.2347 H   0  0  0  0  0  0  0  0  0  0  0  0
   11.8165    9.4427   -7.3954 H   0  0  0  0  0  0  0  0  0  0  0  0
   13.0103   10.6800   -6.9335 H   0  0  0  0  0  0  0  0  0  0  0  0
   11.6188   11.1248   -7.9445 H   0  0  0  0  0  0  0  0  0  0  0  0
  1  2  1  0
  1 41  1  0
  1 42  1  0
  1 43  1  0
  2  3  1  0
  3  4  2  0
  3  5  1  0
  5  6  2  0
  5 44  1  0
  6  7  1  0
  6 45  1  0
  7  8  1  0
  7 46  1  0
  7 47  1  0
  8  9  1  1
  8 10  1  0
  8 33  1  0
 10 11  2  0
 10 48  1  0
 11 12  1  0
 11 49  1  0
 12 13  1  0
 12 50  1  0
 12 51  1  0
 13 14  1  6
 13 15  1  0
 13 32  1  0
 15 16  1  0
 15 52  1  0
 15 53  1  0
 16 17  1  1
 16 18  1  0
 16 28  1  0
 18 19  1  0
 18 54  1  0
 18 55  1  0
 19 20  1  0
 19 56  1  0
 19 57  1  0
 20 21  1  0
 20 58  1  0
 20 59  1  0
 21 22  1  0
 21 60  1  0
 21 61  1  0
 22 23  2  0
 22 27  1  0
 23 24  1  0
 23 62  1  0
 24 25  2  0
 24 63  1  0
 25 26  1  0
 25 64  1  0
 26 27  2  0
 26 65  1  0
 27 66  1  0
 28 29  1  0
 29 30  1  6
 29 31  1  0
 29 32  1  0
 30 67  1  0
 30 68  1  0
 30 69  1  0
 31 70  1  0
 31 71  1  0
 31 72  1  0
 34 33  1  6
 34 35  1  0
 34 36  1  0
 34 37  1  0
 35 73  1  0
 35 74  1  0
 35 75  1  0
 36 76  1  0
 36 77  1  0
 36 78  1  0
 37 38  1  6
 37 39  1  0
 37 40  1  0
 38 79  1  0
 38 80  1  0
 38 81  1  0
 39 82  1  0
 39 83  1  0
 39 84  1  0
 40 85  1  0
 40 86  1  0
 40 87  1  0
M  END

