
     RDKit          3D

 46 49  0  0  0  0  0  0  0  0999 V2000
    0.9702    0.2490    0.4302 C   0  0  0  0  0  0  0  0  0  0  0  0
    2.3227   -0.0898    0.1599 O   0  0  0  0  0  0  0  0  0  0  0  0
    3.0800   -0.3828    1.2675 C   0  0  0  0  0  0  0  0  0  0  0  0
    3.6742    0.7027    1.9736 C   0  0  0  0  0  0  0  0  0  0  0  0
    3.5917    2.0422    1.4900 C   0  0  0  0  0  0  0  0  0  0  0  0
    4.1653    3.0855    2.1825 C   0  0  0  0  0  0  0  0  0  0  0  0
    4.8577    2.8392    3.3974 C   0  0  0  0  0  0  0  0  0  0  0  0
    4.9671    1.5579    3.8901 C   0  0  0  0  0  0  0  0  0  0  0  0
    4.3835    0.4537    3.1994 C   0  0  0  0  0  0  0  0  0  0  0  0
    4.4888   -0.8727    3.6949 C   0  0  0  0  0  0  0  0  0  0  0  0
    5.0983   -1.0777    4.9173 O   0  0  0  0  0  0  0  0  0  0  0  0
    4.2224   -1.0316    6.0363 C   0  0  0  0  0  0  0  0  0  0  0  0
    3.9858   -1.9268    2.9320 C   0  0  0  0  0  0  0  0  0  0  0  0
    3.2791   -1.6977    1.6902 C   0  0  0  0  0  0  0  0  0  0  0  0
    2.8964   -3.0192    1.1790 C   0  0  0  0  0  0  0  0  0  0  0  0
    2.2780   -3.4948   -0.0120 C   0  0  0  0  0  0  0  0  0  0  0  0
    1.8478   -2.6298   -1.1716 C   0  0  0  0  0  0  0  0  0  0  0  0
    2.0908   -4.8737   -0.1174 C   0  0  0  0  0  0  0  0  0  0  0  0
    2.4832   -5.7826    0.8789 C   0  0  0  0  0  0  0  0  0  0  0  0
    3.1235   -5.3374    2.0321 C   0  0  0  0  0  0  0  0  0  0  0  0
    3.5381   -6.1471    3.0507 O   0  0  0  0  0  0  0  0  0  0  0  0
    3.3254   -7.5350    2.9457 C   0  0  0  0  0  0  0  0  0  0  0  0
    3.3506   -3.9476    2.1575 C   0  0  0  0  0  0  0  0  0  0  0  0
    4.0159   -3.2902    3.1889 N   0  0  0  0  0  0  0  0  0  0  0  0
    4.8527   -3.9477    4.1873 C   0  0  0  0  0  0  0  0  0  0  0  0
    0.4911    0.4596   -0.5365 H   0  0  0  0  0  0  0  0  0  0  0  0
    0.8954    1.1447    1.0716 H   0  0  0  0  0  0  0  0  0  0  0  0
    0.4373   -0.5827    0.9245 H   0  0  0  0  0  0  0  0  0  0  0  0
    3.0861    2.2189    0.5396 H   0  0  0  0  0  0  0  0  0  0  0  0
    4.1022    4.1035    1.7898 H   0  0  0  0  0  0  0  0  0  0  0  0
    5.3205    3.6709    3.9352 H   0  0  0  0  0  0  0  0  0  0  0  0
    5.5250    1.3590    4.8063 H   0  0  0  0  0  0  0  0  0  0  0  0
    4.8403   -1.1633    6.9364 H   0  0  0  0  0  0  0  0  0  0  0  0
    3.4679   -1.8378    5.9953 H   0  0  0  0  0  0  0  0  0  0  0  0
    3.6977   -0.0622    6.0965 H   0  0  0  0  0  0  0  0  0  0  0  0
    2.6085   -1.8868   -1.4422 H   0  0  0  0  0  0  0  0  0  0  0  0
    0.9259   -2.0695   -0.9494 H   0  0  0  0  0  0  0  0  0  0  0  0
    1.6420   -3.2599   -2.0497 H   0  0  0  0  0  0  0  0  0  0  0  0
    1.6213   -5.2706   -1.0211 H   0  0  0  0  0  0  0  0  0  0  0  0
    2.2896   -6.8448    0.7308 H   0  0  0  0  0  0  0  0  0  0  0  0
    2.2506   -7.7823    2.8726 H   0  0  0  0  0  0  0  0  0  0  0  0
    3.7322   -7.9851    3.8616 H   0  0  0  0  0  0  0  0  0  0  0  0
    3.8468   -7.9676    2.0725 H   0  0  0  0  0  0  0  0  0  0  0  0
    5.5139   -4.6811    3.7055 H   0  0  0  0  0  0  0  0  0  0  0  0
    4.2434   -4.4828    4.9305 H   0  0  0  0  0  0  0  0  0  0  0  0
    5.4595   -3.1871    4.6852 H   0  0  0  0  0  0  0  0  0  0  0  0
  1  2  1  0
  1 26  1  0
  1 27  1  0
  1 28  1  0
  2  3  1  0
  3  4  2  0
  3 14  1  0
  4  5  1  0
  4  9  1  0
  5  6  2  0
  5 29  1  0
  6  7  1  0
  6 30  1  0
  7  8  2  0
  7 31  1  0
  8  9  1  0
  8 32  1  0
  9 10  2  0
 10 11  1  0
 10 13  1  0
 11 12  1  0
 12 33  1  0
 12 34  1  0
 12 35  1  0
 13 14  2  0
 13 24  1  0
 14 15  1  0
 15 16  2  0
 15 23  1  0
 16 17  1  0
 16 18  1  0
 17 36  1  0
 17 37  1  0
 17 38  1  0
 18 19  2  0
 18 39  1  0
 19 20  1  0
 19 40  1  0
 20 21  1  0
 20 23  2  0
 21 22  1  0
 22 41  1  0
 22 42  1  0
 22 43  1  0
 23 24  1  0
 24 25  1  0
 25 44  1  0
 25 45  1  0
 25 46  1  0
M  END

