
     RDKit          3D

 58 60  0  0  0  0  0  0  0  0999 V2000
    7.5407    7.6240    5.7892 C   0  0  0  0  0  0  0  0  0  0  0  0
    8.0219    6.2485    5.3712 C   0  0  0  0  0  0  0  0  0  0  0  0
    7.1773    5.7857    4.3239 O   0  0  0  0  0  0  0  0  0  0  0  0
    7.3888    4.5750    3.7663 C   0  0  0  0  0  0  0  0  0  0  0  0
    6.4901    4.1995    2.7465 C   0  0  0  0  0  0  0  0  0  0  0  0
    6.6211    2.9732    2.1098 C   0  0  0  0  0  0  0  0  0  0  0  0
    7.6625    2.1074    2.4780 C   0  0  0  0  0  0  0  0  0  0  0  0
    7.8459    0.5337    1.6359 S   0  0  1  0  0  0  0  0  0  0  0  0
    8.7110   -0.3001    2.4742 O   0  0  0  0  0  0  0  0  0  0  0  0
    6.5089    0.1191    1.2086 O   0  0  0  0  0  0  0  0  0  0  0  0
    8.6792    0.8060    0.2195 N   0  0  0  0  0  0  0  0  0  0  0  0
   10.1320    0.9716    0.1363 C   0  0  1  0  0  0  0  0  0  0  0  0
   10.7045    0.1525   -1.0327 C   0  0  0  0  0  0  0  0  0  0  0  0
   10.3815    0.7597   -2.4046 C   0  0  0  0  0  0  0  0  0  0  0  0
   10.7702    2.1707   -2.4627 N   0  0  0  0  0  0  0  0  0  0  0  0
   11.6133    2.7525   -3.3712 C   0  0  0  0  0  0  0  0  0  0  0  0
   11.9855    3.9164   -3.2815 O   0  0  0  0  0  0  0  0  0  0  0  0
   12.1379    1.9340   -4.5634 C   0  0  0  0  0  0  0  0  0  0  0  0
   13.5626    1.6905   -4.4379 N   0  0  0  0  0  0  0  0  0  0  0  0
   14.0387    0.5343   -3.8817 C   0  0  0  0  0  0  0  0  0  0  0  0
   13.2935   -0.3765   -3.5369 O   0  0  0  0  0  0  0  0  0  0  0  0
   15.5322    0.4319   -3.7275 C   0  0  0  0  0  0  0  0  0  0  0  0
   16.0258   -0.5585   -2.8637 C   0  0  0  0  0  0  0  0  0  0  0  0
   17.3995   -0.7118   -2.6754 C   0  0  0  0  0  0  0  0  0  0  0  0
   18.2976    0.1148   -3.3595 C   0  0  0  0  0  0  0  0  0  0  0  0
   17.8159    1.0917   -4.2362 C   0  0  0  0  0  0  0  0  0  0  0  0
   16.4402    1.2492   -4.4209 C   0  0  0  0  0  0  0  0  0  0  0  0
   10.2229    3.0028   -1.3886 C   0  0  0  0  0  0  0  0  0  0  0  0
   10.5700    2.4426   -0.0068 C   0  0  0  0  0  0  0  0  0  0  0  0
    8.5469    2.4601    3.4977 C   0  0  0  0  0  0  0  0  0  0  0  0
    8.4172    3.6937    4.1429 C   0  0  0  0  0  0  0  0  0  0  0  0
    8.1724    8.0159    6.6012 H   0  0  0  0  0  0  0  0  0  0  0  0
    6.5007    7.5803    6.1466 H   0  0  0  0  0  0  0  0  0  0  0  0
    7.5854    8.3260    4.9428 H   0  0  0  0  0  0  0  0  0  0  0  0
    7.9843    5.5427    6.2218 H   0  0  0  0  0  0  0  0  0  0  0  0
    9.0692    6.2882    5.0177 H   0  0  0  0  0  0  0  0  0  0  0  0
    5.6874    4.8917    2.4851 H   0  0  0  0  0  0  0  0  0  0  0  0
    5.9090    2.6687    1.3402 H   0  0  0  0  0  0  0  0  0  0  0  0
    8.0802    1.1174   -0.5390 H   0  0  0  0  0  0  0  0  0  0  0  0
   10.5236    0.5545    1.0753 H   0  0  0  0  0  0  0  0  0  0  0  0
   10.3182   -0.8771   -0.9859 H   0  0  0  0  0  0  0  0  0  0  0  0
   11.8007    0.1000   -0.9322 H   0  0  0  0  0  0  0  0  0  0  0  0
    9.2978    0.6722   -2.6184 H   0  0  0  0  0  0  0  0  0  0  0  0
   10.9239    0.1865   -3.1621 H   0  0  0  0  0  0  0  0  0  0  0  0
   11.9632    2.5663   -5.4470 H   0  0  0  0  0  0  0  0  0  0  0  0
   11.6409    0.9728   -4.7219 H   0  0  0  0  0  0  0  0  0  0  0  0
   14.1592    2.5096   -4.4536 H   0  0  0  0  0  0  0  0  0  0  0  0
   15.3072   -1.2006   -2.3511 H   0  0  0  0  0  0  0  0  0  0  0  0
   17.7733   -1.4812   -1.9952 H   0  0  0  0  0  0  0  0  0  0  0  0
   19.3742   -0.0069   -3.2149 H   0  0  0  0  0  0  0  0  0  0  0  0
   18.5137    1.7285   -4.7854 H   0  0  0  0  0  0  0  0  0  0  0  0
   16.0821    1.9968   -5.1327 H   0  0  0  0  0  0  0  0  0  0  0  0
    9.1229    3.0571   -1.5088 H   0  0  0  0  0  0  0  0  0  0  0  0
   10.6209    4.0154   -1.5224 H   0  0  0  0  0  0  0  0  0  0  0  0
   10.0987    3.0601    0.7741 H   0  0  0  0  0  0  0  0  0  0  0  0
   11.6615    2.5044    0.1401 H   0  0  0  0  0  0  0  0  0  0  0  0
    9.3273    1.7588    3.7983 H   0  0  0  0  0  0  0  0  0  0  0  0
    9.1135    3.9503    4.9410 H   0  0  0  0  0  0  0  0  0  0  0  0
  1  2  1  0
  1 32  1  0
  1 33  1  0
  1 34  1  0
  2  3  1  0
  2 35  1  0
  2 36  1  0
  3  4  1  0
  4  5  2  0
  4 31  1  0
  5  6  1  0
  5 37  1  0
  6  7  2  0
  6 38  1  0
  7  8  1  0
  7 30  1  0
  8  9  2  0
  8 10  2  0
  8 11  1  6
 11 12  1  0
 11 39  1  0
 12 13  1  0
 12 29  1  0
 12 40  1  1
 13 14  1  0
 13 41  1  0
 13 42  1  0
 14 15  1  0
 14 43  1  0
 14 44  1  0
 15 16  1  0
 15 28  1  0
 16 17  2  0
 16 18  1  0
 18 19  1  0
 18 45  1  0
 18 46  1  0
 19 20  1  0
 19 47  1  0
 20 21  2  0
 20 22  1  0
 22 23  2  0
 22 27  1  0
 23 24  1  0
 23 48  1  0
 24 25  2  0
 24 49  1  0
 25 26  1  0
 25 50  1  0
 26 27  2  0
 26 51  1  0
 27 52  1  0
 28 29  1  0
 28 53  1  0
 28 54  1  0
 29 55  1  0
 29 56  1  0
 30 31  2  0
 30 57  1  0
 31 58  1  0
M  END

