
     RDKit          3D

 34 34  0  0  0  0  0  0  0  0999 V2000
    3.8558    2.5965    2.1324 C   0  0  0  0  0  0  0  0  0  0  0  0
    4.0941    1.2540    2.8004 C   0  0  0  0  0  0  0  0  0  0  0  0
    4.5124    1.1689    3.9409 O   0  0  0  0  0  0  0  0  0  0  0  0
    3.7965    0.0412    2.0111 C   0  0  0  0  0  0  0  0  0  0  0  0
    3.3229   -0.1006    0.7201 C   0  0  0  0  0  0  0  0  0  0  0  0
    3.1775   -1.4573    0.3275 C   0  0  0  0  0  0  0  0  0  0  0  0
    3.5430   -2.3492    1.3168 C   0  0  0  0  0  0  0  0  0  0  0  0
    3.4732   -3.8488    1.2692 C   0  0  0  0  0  0  0  0  0  0  0  0
    2.1965   -4.4060    1.9217 C   0  0  0  0  0  0  0  0  0  0  0  0
    2.1713   -5.8758    1.9391 N   0  0  0  0  0  0  0  0  0  0  0  0
    1.7461   -6.7154    0.5392 S   0  0  1  0  0  0  0  0  0  0  0  0
    0.7718   -7.7408    0.9207 O   0  0  0  0  0  0  0  0  0  0  0  0
    1.4672   -5.7453   -0.5266 O   0  0  0  0  0  0  0  0  0  0  0  0
    3.2779   -7.5765    0.0982 C   0  0  0  0  0  0  0  0  0  0  0  0
    3.0634   -8.4026   -1.1658 C   0  0  0  0  0  0  0  0  0  0  0  0
    4.3146   -9.1446   -1.5851 C   0  0  1  0  0  0  0  0  0  0  0  0
    4.7312   -9.9945   -0.6282 F   0  0  0  0  0  0  0  0  0  0  0  0
    4.1002   -9.8591   -2.6981 F   0  0  0  0  0  0  0  0  0  0  0  0
    5.3317   -8.2975   -1.8338 F   0  0  0  0  0  0  0  0  0  0  0  0
    4.0693   -1.5161    2.7475 S   0  0  0  0  0  0  0  0  0  0  0  0
    4.1215    3.3939    2.8381 H   0  0  0  0  0  0  0  0  0  0  0  0
    2.7999    2.7051    1.8362 H   0  0  0  0  0  0  0  0  0  0  0  0
    4.4657    2.6949    1.2199 H   0  0  0  0  0  0  0  0  0  0  0  0
    3.0893    0.7457    0.0724 H   0  0  0  0  0  0  0  0  0  0  0  0
    2.8174   -1.7759   -0.6527 H   0  0  0  0  0  0  0  0  0  0  0  0
    4.3487   -4.2971    1.7672 H   0  0  0  0  0  0  0  0  0  0  0  0
    3.4926   -4.1621    0.2142 H   0  0  0  0  0  0  0  0  0  0  0  0
    1.3119   -3.9872    1.4139 H   0  0  0  0  0  0  0  0  0  0  0  0
    2.1533   -4.0889    2.9748 H   0  0  0  0  0  0  0  0  0  0  0  0
    1.6524   -6.2849    2.7147 H   0  0  0  0  0  0  0  0  0  0  0  0
    3.5387   -8.2027    0.9628 H   0  0  0  0  0  0  0  0  0  0  0  0
    4.0507   -6.8073   -0.0388 H   0  0  0  0  0  0  0  0  0  0  0  0
    2.7607   -7.7533   -2.0007 H   0  0  0  0  0  0  0  0  0  0  0  0
    2.2667   -9.1444   -1.0078 H   0  0  0  0  0  0  0  0  0  0  0  0
  1  2  1  0
  1 21  1  0
  1 22  1  0
  1 23  1  0
  2  3  2  0
  2  4  1  0
  4  5  2  0
  4 20  1  0
  5  6  1  0
  5 24  1  0
  6  7  2  0
  6 25  1  0
  7  8  1  0
  7 20  1  0
  8  9  1  0
  8 26  1  0
  8 27  1  0
  9 10  1  0
  9 28  1  0
  9 29  1  0
 11 10  1  1
 10 30  1  0
 11 12  2  0
 11 13  2  0
 11 14  1  0
 14 15  1  0
 14 31  1  0
 14 32  1  0
 15 16  1  0
 15 33  1  0
 15 34  1  0
 16 17  1  1
 16 18  1  0
 16 19  1  0
M  END

