
     RDKit          3D

 76 84  0  0  0  0  0  0  0  0999 V2000
    1.7564    0.6667    2.9850 C   0  0  0  0  0  0  0  0  0  0  0  0
    3.1052    0.6572    2.3081 C   0  0  0  0  0  0  0  0  0  0  0  0
    4.2829    0.4050    3.0273 C   0  0  0  0  0  0  0  0  0  0  0  0
    5.5321    0.4173    2.4021 C   0  0  0  0  0  0  0  0  0  0  0  0
    5.6501    0.6882    1.0284 C   0  0  0  0  0  0  0  0  0  0  0  0
    6.9870    0.6924    0.3598 C   0  0  0  0  0  0  0  0  0  0  0  0
    7.7327   -0.5168    0.3371 C   0  0  0  0  0  0  0  0  0  0  0  0
    8.9814   -0.6211   -0.1782 N   0  0  0  0  0  0  0  0  0  0  0  0
    9.3552   -1.9140   -0.0688 C   0  0  0  0  0  0  0  0  0  0  0  0
   10.6121   -2.4084   -0.5318 C   0  0  0  0  0  0  0  0  0  0  0  0
   10.9769   -3.7828   -0.1684 C   0  0  0  0  0  0  0  0  0  0  0  0
   10.8638   -4.4929    1.0072 C   0  0  0  0  0  0  0  0  0  0  0  0
   11.4117   -5.7903    0.7618 C   0  0  0  0  0  0  0  0  0  0  0  0
   11.8221   -5.7830   -0.5417 C   0  0  0  0  0  0  0  0  0  0  0  0
   11.5700   -4.5800   -1.1098 O   0  0  0  0  0  0  0  0  0  0  0  0
   11.5236   -1.6286   -1.2904 C   0  0  0  0  0  0  0  0  0  0  0  0
   12.8339   -2.0030   -1.7073 C   0  0  0  0  0  0  0  0  0  0  0  0
   13.4937   -1.0237   -2.4173 C   0  0  0  0  0  0  0  0  0  0  0  0
   12.7364    0.1710   -2.5925 C   0  0  0  0  0  0  0  0  0  0  0  0
   11.1748    0.0101   -1.8112 S   0  0  0  0  0  0  0  0  0  0  0  0
   13.1630    1.3625   -3.2353 C   0  0  0  0  0  0  0  0  0  0  0  0
   14.4930    1.3916   -3.8600 C   0  0  0  0  0  0  0  0  0  0  0  0
   15.5273    2.2997   -3.8119 C   0  0  0  0  0  0  0  0  0  0  0  0
   16.5848    1.7653   -4.6127 C   0  0  0  0  0  0  0  0  0  0  0  0
   16.1255    0.5707   -5.0912 C   0  0  0  0  0  0  0  0  0  0  0  0
   14.8704    0.3331   -4.6412 O   0  0  0  0  0  0  0  0  0  0  0  0
   12.3845    2.5571   -3.2667 C   0  0  0  0  0  0  0  0  0  0  0  0
   11.2046    2.6880   -2.6229 N   0  0  0  0  0  0  0  0  0  0  0  0
   10.7594    3.9480   -2.8465 C   0  0  0  0  0  0  0  0  0  0  0  0
    9.5542    4.4641   -2.3024 C   0  0  0  0  0  0  0  0  0  0  0  0
    9.1921    5.8876   -2.5908 C   0  0  0  0  0  0  0  0  0  0  0  0
    8.8513    6.2991   -3.8890 C   0  0  0  0  0  0  0  0  0  0  0  0
    8.5165    7.6299   -4.1554 C   0  0  0  0  0  0  0  0  0  0  0  0
    8.5115    8.5973   -3.1405 C   0  0  0  0  0  0  0  0  0  0  0  0
    8.1505   10.0357   -3.4211 C   0  0  0  0  0  0  0  0  0  0  0  0
    8.8545    8.1826   -1.8425 C   0  0  0  0  0  0  0  0  0  0  0  0
    9.1862    6.8555   -1.5699 C   0  0  0  0  0  0  0  0  0  0  0  0
    8.6733    3.6985   -1.5044 C   0  0  0  0  0  0  0  0  0  0  0  0
    7.4385    4.1346   -0.9390 C   0  0  0  0  0  0  0  0  0  0  0  0
    6.7722    3.1526   -0.2361 C   0  0  0  0  0  0  0  0  0  0  0  0
    7.4420    1.8931   -0.2333 C   0  0  0  0  0  0  0  0  0  0  0  0
    8.9571    2.0132   -1.1097 S   0  0  0  0  0  0  0  0  0  0  0  0
   11.7061    4.6733   -3.6966 C   0  0  0  0  0  0  0  0  0  0  0  0
   12.7137    3.8002   -3.9734 C   0  0  0  0  0  0  0  0  0  0  0  0
    8.2784   -2.7011    0.5413 C   0  0  0  0  0  0  0  0  0  0  0  0
    7.2667   -1.8259    0.7983 C   0  0  0  0  0  0  0  0  0  0  0  0
    4.4700    0.9401    0.3047 C   0  0  0  0  0  0  0  0  0  0  0  0
    3.2248    0.9205    0.9334 C   0  0  0  0  0  0  0  0  0  0  0  0
    1.7899    0.1637    3.9629 H   0  0  0  0  0  0  0  0  0  0  0  0
    0.9923    0.1659    2.3693 H   0  0  0  0  0  0  0  0  0  0  0  0
    1.4050    1.6992    3.1571 H   0  0  0  0  0  0  0  0  0  0  0  0
    4.2241    0.1953    4.0993 H   0  0  0  0  0  0  0  0  0  0  0  0
    6.4332    0.2220    2.9882 H   0  0  0  0  0  0  0  0  0  0  0  0
   10.4622   -4.1125    1.9428 H   0  0  0  0  0  0  0  0  0  0  0  0
   11.4947   -6.6171    1.4641 H   0  0  0  0  0  0  0  0  0  0  0  0
   12.2875   -6.5270   -1.1832 H   0  0  0  0  0  0  0  0  0  0  0  0
   13.2683   -2.9739   -1.4798 H   0  0  0  0  0  0  0  0  0  0  0  0
   14.5024   -1.1423   -2.8069 H   0  0  0  0  0  0  0  0  0  0  0  0
   15.5349    3.2253   -3.2421 H   0  0  0  0  0  0  0  0  0  0  0  0
   17.5601    2.2089   -4.8021 H   0  0  0  0  0  0  0  0  0  0  0  0
   16.5536   -0.1898   -5.7393 H   0  0  0  0  0  0  0  0  0  0  0  0
    8.8405    5.5653   -4.6986 H   0  0  0  0  0  0  0  0  0  0  0  0
    8.2505    7.9199   -5.1760 H   0  0  0  0  0  0  0  0  0  0  0  0
    7.9388   10.1997   -4.4879 H   0  0  0  0  0  0  0  0  0  0  0  0
    8.9669   10.7179   -3.1306 H   0  0  0  0  0  0  0  0  0  0  0  0
    7.2581   10.3436   -2.8503 H   0  0  0  0  0  0  0  0  0  0  0  0
    8.8667    8.9146   -1.0292 H   0  0  0  0  0  0  0  0  0  0  0  0
    9.4582    6.5622   -0.5529 H   0  0  0  0  0  0  0  0  0  0  0  0
    7.0657    5.1509   -1.0623 H   0  0  0  0  0  0  0  0  0  0  0  0
    5.8201    3.3104    0.2695 H   0  0  0  0  0  0  0  0  0  0  0  0
   11.6059    5.7005   -4.0399 H   0  0  0  0  0  0  0  0  0  0  0  0
   13.5796    3.9727   -4.6070 H   0  0  0  0  0  0  0  0  0  0  0  0
    8.2782   -3.7755    0.7053 H   0  0  0  0  0  0  0  0  0  0  0  0
    6.2902   -2.0479    1.2229 H   0  0  0  0  0  0  0  0  0  0  0  0
    4.5313    1.1339   -0.7688 H   0  0  0  0  0  0  0  0  0  0  0  0
    2.3241    1.1073    0.3409 H   0  0  0  0  0  0  0  0  0  0  0  0
  1  2  1  0
  1 49  1  0
  1 50  1  0
  1 51  1  0
  2  3  2  0
  2 48  1  0
  3  4  1  0
  3 52  1  0
  4  5  2  0
  4 53  1  0
  5  6  1  0
  5 47  1  0
  6  7  1  0
  6 41  2  0
  7  8  2  0
  7 46  1  0
  8  9  1  0
  9 10  2  0
  9 45  1  0
 10 11  1  0
 10 16  1  0
 11 12  2  0
 11 15  1  0
 12 13  1  0
 12 54  1  0
 13 14  2  0
 13 55  1  0
 14 15  1  0
 14 56  1  0
 16 17  2  0
 16 20  1  0
 17 18  1  0
 17 57  1  0
 18 19  2  0
 18 58  1  0
 19 20  1  0
 19 21  1  0
 21 22  1  0
 21 27  2  0
 22 23  2  0
 22 26  1  0
 23 24  1  0
 23 59  1  0
 24 25  2  0
 24 60  1  0
 25 26  1  0
 25 61  1  0
 27 28  1  0
 27 44  1  0
 28 29  2  0
 29 30  1  0
 29 43  1  0
 30 31  1  0
 30 38  2  0
 31 32  2  0
 31 37  1  0
 32 33  1  0
 32 62  1  0
 33 34  2  0
 33 63  1  0
 34 35  1  0
 34 36  1  0
 35 64  1  0
 35 65  1  0
 35 66  1  0
 36 37  2  0
 36 67  1  0
 37 68  1  0
 38 39  1  0
 38 42  1  0
 39 40  2  0
 39 69  1  0
 40 41  1  0
 40 70  1  0
 41 42  1  0
 43 44  2  0
 43 71  1  0
 44 72  1  0
 45 46  2  0
 45 73  1  0
 46 74  1  0
 47 48  2  0
 47 75  1  0
 48 76  1  0
M  END

