
     RDKit          3D

 44 46  0  0  0  0  0  0  0  0999 V2000
    1.3164   -0.8877    0.6336 C   0  0  0  0  0  0  0  0  0  0  0  0
    2.5667   -0.2874    0.2814 O   0  0  0  0  0  0  0  0  0  0  0  0
    3.3141    0.1794    1.2926 C   0  0  0  0  0  0  0  0  0  0  0  0
    2.9876    0.1073    2.4495 O   0  0  0  0  0  0  0  0  0  0  0  0
    4.6562    0.7567    0.7863 C   0  0  1  0  0  0  0  0  0  0  0  0
    4.3149    1.5124   -0.5180 C   0  0  0  0  0  0  0  0  0  0  0  0
    3.8368    2.6204   -0.5253 O   0  0  0  0  0  0  0  0  0  0  0  0
    4.5523    0.8130   -1.6372 O   0  0  0  0  0  0  0  0  0  0  0  0
    4.1536    1.4311   -2.8629 C   0  0  0  0  0  0  0  0  0  0  0  0
    5.1595    1.7640    1.8398 C   0  0  0  0  0  0  0  0  0  0  0  0
    6.6320    2.0491    1.8143 C   0  0  0  0  0  0  0  0  0  0  0  0
    7.2723    2.9591    2.5793 C   0  0  0  0  0  0  0  0  0  0  0  0
    8.7318    2.7507    2.5141 C   0  0  0  0  0  0  0  0  0  0  0  0
    9.6043    3.4220    3.0214 O   0  0  0  0  0  0  0  0  0  0  0  0
    8.9434    1.4496    1.7264 C   0  0  0  0  0  0  0  0  0  0  0  0
    7.5988    1.1940    0.9963 C   0  0  2  0  0  0  0  0  0  0  0  0
    7.7217    1.7037   -0.4709 C   0  0  0  0  0  0  0  0  0  0  0  0
    8.6141    0.7953   -1.3306 C   0  0  0  0  0  0  0  0  0  0  0  0
    8.1560   -0.6678   -1.2881 C   0  0  0  0  0  0  0  0  0  0  0  0
    8.0236   -1.1763    0.1543 C   0  0  0  0  0  0  0  0  0  0  0  0
    7.1146   -0.2786    1.0184 C   0  0  2  0  0  0  0  0  0  0  0  0
    5.6209   -0.4658    0.6100 C   0  0  0  0  0  0  0  0  0  0  0  0
    0.8525   -1.1993   -0.3099 H   0  0  0  0  0  0  0  0  0  0  0  0
    0.6739   -0.1647    1.1575 H   0  0  0  0  0  0  0  0  0  0  0  0
    1.4747   -1.7570    1.2890 H   0  0  0  0  0  0  0  0  0  0  0  0
    4.4260    0.7298   -3.6608 H   0  0  0  0  0  0  0  0  0  0  0  0
    4.6711    2.3920   -3.0011 H   0  0  0  0  0  0  0  0  0  0  0  0
    3.0688    1.6140   -2.8658 H   0  0  0  0  0  0  0  0  0  0  0  0
    4.9211    1.3386    2.8284 H   0  0  0  0  0  0  0  0  0  0  0  0
    4.5740    2.6923    1.7622 H   0  0  0  0  0  0  0  0  0  0  0  0
    6.8108    3.7127    3.2205 H   0  0  0  0  0  0  0  0  0  0  0  0
    9.1500    0.6557    2.4655 H   0  0  0  0  0  0  0  0  0  0  0  0
    9.8278    1.5259    1.0795 H   0  0  0  0  0  0  0  0  0  0  0  0
    8.1174    2.7324   -0.4557 H   0  0  0  0  0  0  0  0  0  0  0  0
    6.7300    1.7653   -0.9405 H   0  0  0  0  0  0  0  0  0  0  0  0
    9.6587    0.8604   -0.9800 H   0  0  0  0  0  0  0  0  0  0  0  0
    8.6203    1.1638   -2.3702 H   0  0  0  0  0  0  0  0  0  0  0  0
    8.8626   -1.3048   -1.8457 H   0  0  0  0  0  0  0  0  0  0  0  0
    7.1870   -0.7593   -1.8089 H   0  0  0  0  0  0  0  0  0  0  0  0
    9.0248   -1.2191    0.6173 H   0  0  0  0  0  0  0  0  0  0  0  0
    7.6388   -2.2109    0.1624 H   0  0  0  0  0  0  0  0  0  0  0  0
    7.2070   -0.6130    2.0660 H   0  0  0  0  0  0  0  0  0  0  0  0
    5.2349   -1.2991    1.2173 H   0  0  0  0  0  0  0  0  0  0  0  0
    5.5418   -0.7971   -0.4313 H   0  0  0  0  0  0  0  0  0  0  0  0
  1  2  1  0
  1 23  1  0
  1 24  1  0
  1 25  1  0
  2  3  1  0
  3  4  2  0
  5  3  1  1
  5  6  1  0
  5 10  1  0
  5 22  1  0
  6  7  2  0
  6  8  1  0
  8  9  1  0
  9 26  1  0
  9 27  1  0
  9 28  1  0
 10 11  1  0
 10 29  1  0
 10 30  1  0
 11 12  2  0
 11 16  1  0
 12 13  1  0
 12 31  1  0
 13 14  2  0
 13 15  1  0
 16 15  1  1
 15 32  1  0
 15 33  1  0
 16 17  1  0
 16 21  1  0
 17 18  1  0
 17 34  1  0
 17 35  1  0
 18 19  1  0
 18 36  1  0
 18 37  1  0
 19 20  1  0
 19 38  1  0
 19 39  1  0
 20 21  1  0
 20 40  1  0
 20 41  1  0
 21 22  1  0
 21 42  1  1
 22 43  1  0
 22 44  1  0
M  END

