
     RDKit          3D

 49 50  0  0  0  0  0  0  0  0999 V2000
    2.8334    1.5113    0.0532 C   0  0  0  0  0  0  0  0  0  0  0  0
    2.3425    0.2063    0.7210 C   0  0  1  0  0  0  0  0  0  0  0  0
    2.6580    0.2432    2.2270 C   0  0  0  0  0  0  0  0  0  0  0  0
    0.8218    0.0797    0.5315 C   0  0  0  0  0  0  0  0  0  0  0  0
    2.9329   -1.0062    0.1244 N   0  0  0  0  0  0  0  0  0  0  0  0
    4.3792   -1.1580    0.0938 C   0  0  0  0  0  0  0  0  0  0  0  0
    4.7681   -2.5148   -0.4964 C   0  0  0  0  0  0  0  0  0  0  0  0
    6.2780   -2.7664   -0.5171 C   0  0  0  0  0  0  0  0  0  0  0  0
    6.6609   -4.1240   -1.1115 C   0  0  0  0  0  0  0  0  0  0  0  0
    8.1640   -4.4025   -1.1237 C   0  0  2  0  0  0  0  0  0  0  0  0
    8.9790   -3.6038   -2.1786 C   0  0  0  0  0  0  0  0  0  0  0  0
    9.4154   -4.6775   -3.1863 C   0  0  0  0  0  0  0  0  0  0  0  0
    9.4673   -5.9512   -2.3347 C   0  0  1  0  0  0  0  0  0  0  0  0
    9.2796   -7.2911   -3.0761 C   0  0  0  0  0  0  0  0  0  0  0  0
   10.0343   -8.3672   -2.2482 C   0  0  0  0  0  0  0  0  0  0  0  0
   10.6166   -7.6148   -1.0298 C   0  0  0  0  0  0  0  0  0  0  0  0
   10.7674   -6.1733   -1.5290 C   0  0  0  0  0  0  0  0  0  0  0  0
    8.3606   -5.7837   -1.4350 O   0  0  0  0  0  0  0  0  0  0  0  0
    2.3320    2.3934    0.4838 H   0  0  0  0  0  0  0  0  0  0  0  0
    2.6217    1.4999   -1.0294 H   0  0  0  0  0  0  0  0  0  0  0  0
    3.9178    1.6525    0.1837 H   0  0  0  0  0  0  0  0  0  0  0  0
    2.1215    1.0727    2.7138 H   0  0  0  0  0  0  0  0  0  0  0  0
    3.7320    0.3916    2.4198 H   0  0  0  0  0  0  0  0  0  0  0  0
    2.3517   -0.7006    2.7039 H   0  0  0  0  0  0  0  0  0  0  0  0
    0.2915    0.9354    0.9778 H   0  0  0  0  0  0  0  0  0  0  0  0
    0.4538   -0.8470    0.9976 H   0  0  0  0  0  0  0  0  0  0  0  0
    0.5600    0.0479   -0.5402 H   0  0  0  0  0  0  0  0  0  0  0  0
    2.5628   -1.1232   -0.8190 H   0  0  0  0  0  0  0  0  0  0  0  0
    4.7660   -1.0983    1.1253 H   0  0  0  0  0  0  0  0  0  0  0  0
    4.9057   -0.3576   -0.4743 H   0  0  0  0  0  0  0  0  0  0  0  0
    4.3734   -2.5871   -1.5280 H   0  0  0  0  0  0  0  0  0  0  0  0
    4.2569   -3.3054    0.0791 H   0  0  0  0  0  0  0  0  0  0  0  0
    6.6724   -2.6972    0.5139 H   0  0  0  0  0  0  0  0  0  0  0  0
    6.7744   -1.9559   -1.0820 H   0  0  0  0  0  0  0  0  0  0  0  0
    6.2759   -4.2138   -2.1436 H   0  0  0  0  0  0  0  0  0  0  0  0
    6.1803   -4.9317   -0.5337 H   0  0  0  0  0  0  0  0  0  0  0  0
    8.5635   -4.1995   -0.1100 H   0  0  0  0  0  0  0  0  0  0  0  0
    9.8537   -3.1243   -1.7128 H   0  0  0  0  0  0  0  0  0  0  0  0
    8.3834   -2.8045   -2.6450 H   0  0  0  0  0  0  0  0  0  0  0  0
   10.3724   -4.4511   -3.6802 H   0  0  0  0  0  0  0  0  0  0  0  0
    8.6533   -4.8030   -3.9729 H   0  0  0  0  0  0  0  0  0  0  0  0
    9.6933   -7.2120   -4.0939 H   0  0  0  0  0  0  0  0  0  0  0  0
    8.2032   -7.4944   -3.1717 H   0  0  0  0  0  0  0  0  0  0  0  0
   10.8467   -8.8107   -2.8468 H   0  0  0  0  0  0  0  0  0  0  0  0
    9.3792   -9.1975   -1.9437 H   0  0  0  0  0  0  0  0  0  0  0  0
   11.5570   -8.0519   -0.6595 H   0  0  0  0  0  0  0  0  0  0  0  0
    9.8919   -7.6266   -0.2009 H   0  0  0  0  0  0  0  0  0  0  0  0
   11.6362   -6.0875   -2.2064 H   0  0  0  0  0  0  0  0  0  0  0  0
   10.8997   -5.4355   -0.7220 H   0  0  0  0  0  0  0  0  0  0  0  0
  1  2  1  0
  1 19  1  0
  1 20  1  0
  1 21  1  0
  2  3  1  0
  2  4  1  0
  2  5  1  6
  3 22  1  0
  3 23  1  0
  3 24  1  0
  4 25  1  0
  4 26  1  0
  4 27  1  0
  5  6  1  0
  5 28  1  0
  6  7  1  0
  6 29  1  0
  6 30  1  0
  7  8  1  0
  7 31  1  0
  7 32  1  0
  8  9  1  0
  8 33  1  0
  8 34  1  0
  9 10  1  0
  9 35  1  0
  9 36  1  0
 10 11  1  0
 10 18  1  0
 10 37  1  1
 11 12  1  0
 11 38  1  0
 11 39  1  0
 12 13  1  0
 12 40  1  0
 12 41  1  0
 13 14  1  0
 13 17  1  0
 13 18  1  1
 14 15  1  0
 14 42  1  0
 14 43  1  0
 15 16  1  0
 15 44  1  0
 15 45  1  0
 16 17  1  0
 16 46  1  0
 16 47  1  0
 17 48  1  0
 17 49  1  0
M  END

