
     RDKit          3D

 44 44  0  0  0  0  0  0  0  0999 V2000
    2.0534    8.9567    3.5245 C   0  0  0  0  0  0  0  0  0  0  0  0
    3.5413    8.6645    3.5771 C   0  0  0  0  0  0  0  0  0  0  0  0
    3.7478    7.2896    3.3397 O   0  0  0  0  0  0  0  0  0  0  0  0
    5.0921    6.8922    3.3634 C   0  0  0  0  0  0  0  0  0  0  0  0
    5.1432    5.3990    3.0871 C   0  0  0  0  0  0  0  0  0  0  0  0
    6.4910    4.9891    3.1124 O   0  0  0  0  0  0  0  0  0  0  0  0
    6.6936    3.6196    2.8624 C   0  0  0  0  0  0  0  0  0  0  0  0
    8.1767    3.2481    2.8967 C   0  0  0  0  0  0  0  0  0  0  0  0
    8.5218    2.0904    2.7085 O   0  0  0  0  0  0  0  0  0  0  0  0
    9.0210    4.2765    3.1430 N   0  0  0  0  0  0  0  0  0  0  0  0
   10.4725    4.1029    3.1899 C   0  0  1  0  0  0  0  0  0  0  0  0
   11.1760    5.4394    2.9110 C   0  0  0  0  0  0  0  0  0  0  0  0
   11.0478    6.4389    4.0705 C   0  0  0  0  0  0  0  0  0  0  0  0
   11.5238    5.8262    5.3943 C   0  0  0  0  0  0  0  0  0  0  0  0
   10.8049    4.5005    5.6885 C   0  0  0  0  0  0  0  0  0  0  0  0
   10.9185    3.4796    4.5405 C   0  0  2  0  0  0  0  0  0  0  0  0
   12.3139    2.8338    4.4636 C   0  0  0  0  0  0  0  0  0  0  0  0
   12.4214    1.9333    3.3224 N   0  0  0  0  0  0  0  0  0  0  0  0
    1.8624   10.0258    3.7064 H   0  0  0  0  0  0  0  0  0  0  0  0
    1.5171    8.3714    4.2875 H   0  0  0  0  0  0  0  0  0  0  0  0
    1.6418    8.6913    2.5384 H   0  0  0  0  0  0  0  0  0  0  0  0
    3.9588    8.9491    4.5663 H   0  0  0  0  0  0  0  0  0  0  0  0
    4.0834    9.2694    2.8194 H   0  0  0  0  0  0  0  0  0  0  0  0
    5.5619    7.1019    4.3473 H   0  0  0  0  0  0  0  0  0  0  0  0
    5.6897    7.4299    2.5977 H   0  0  0  0  0  0  0  0  0  0  0  0
    4.6805    5.1886    2.1023 H   0  0  0  0  0  0  0  0  0  0  0  0
    4.5477    4.8604    3.8511 H   0  0  0  0  0  0  0  0  0  0  0  0
    6.3018    3.3231    1.8690 H   0  0  0  0  0  0  0  0  0  0  0  0
    6.1767    2.9873    3.6116 H   0  0  0  0  0  0  0  0  0  0  0  0
    8.5981    5.1852    3.2987 H   0  0  0  0  0  0  0  0  0  0  0  0
   10.7336    3.3842    2.4014 H   0  0  0  0  0  0  0  0  0  0  0  0
   10.7825    5.8709    1.9750 H   0  0  0  0  0  0  0  0  0  0  0  0
   12.2429    5.2296    2.7275 H   0  0  0  0  0  0  0  0  0  0  0  0
    9.9945    6.7609    4.1787 H   0  0  0  0  0  0  0  0  0  0  0  0
   11.6162    7.3559    3.8416 H   0  0  0  0  0  0  0  0  0  0  0  0
   11.3609    6.5348    6.2239 H   0  0  0  0  0  0  0  0  0  0  0  0
   12.6150    5.6617    5.3452 H   0  0  0  0  0  0  0  0  0  0  0  0
    9.7348    4.7098    5.8636 H   0  0  0  0  0  0  0  0  0  0  0  0
   11.1859    4.0573    6.6248 H   0  0  0  0  0  0  0  0  0  0  0  0
   10.2121    2.6558    4.7407 H   0  0  0  0  0  0  0  0  0  0  0  0
   12.5012    2.3476    5.4470 H   0  0  0  0  0  0  0  0  0  0  0  0
   13.0952    3.6073    4.3600 H   0  0  0  0  0  0  0  0  0  0  0  0
   11.6908    1.2204    3.3570 H   0  0  0  0  0  0  0  0  0  0  0  0
   13.3161    1.4456    3.3230 H   0  0  0  0  0  0  0  0  0  0  0  0
  1  2  1  0
  1 19  1  0
  1 20  1  0
  1 21  1  0
  2  3  1  0
  2 22  1  0
  2 23  1  0
  3  4  1  0
  4  5  1  0
  4 24  1  0
  4 25  1  0
  5  6  1  0
  5 26  1  0
  5 27  1  0
  6  7  1  0
  7  8  1  0
  7 28  1  0
  7 29  1  0
  8  9  2  0
  8 10  1  0
 10 11  1  0
 10 30  1  0
 11 12  1  0
 11 16  1  0
 11 31  1  6
 12 13  1  0
 12 32  1  0
 12 33  1  0
 13 14  1  0
 13 34  1  0
 13 35  1  0
 14 15  1  0
 14 36  1  0
 14 37  1  0
 15 16  1  0
 15 38  1  0
 15 39  1  0
 16 17  1  0
 16 40  1  1
 17 18  1  0
 17 41  1  0
 17 42  1  0
 18 43  1  0
 18 44  1  0
M  END

