
     RDKit          3D

 21 21  0  0  0  0  0  0  0  0999 V2000
    1.2269    0.7347   -0.2007 C   0  0  0  0  0  0  0  0  0  0  0  0
    2.2350   -0.0926    0.0638 C   0  0  0  0  0  0  0  0  0  0  0  0
    2.9216   -0.9608   -0.9796 C   0  0  1  0  0  0  0  0  0  0  0  0
    2.5672   -2.2448   -0.7160 O   0  0  0  0  0  0  0  0  0  0  0  0
    2.6435   -0.6209   -2.2861 O   0  0  0  0  0  0  0  0  0  0  0  0
    4.4798   -0.7868   -0.7783 N   0  0  0  0  0  0  0  0  0  0  0  0
    4.9693    0.5091   -0.9580 C   0  0  0  0  0  0  0  0  0  0  0  0
    4.2918    1.4196   -1.3888 O   0  0  0  0  0  0  0  0  0  0  0  0
    6.2977    0.6970   -0.6034 N   0  0  0  0  0  0  0  0  0  0  0  0
    6.6574    1.6437   -0.6898 H   0  0  0  0  0  0  0  0  0  0  0  0
    7.2098   -0.2923   -0.2585 C   0  0  0  0  0  0  0  0  0  0  0  0
    8.3620   -0.0793    0.0221 O   0  0  0  0  0  0  0  0  0  0  0  0
    6.6445   -1.5599   -0.3125 N   0  0  0  0  0  0  0  0  0  0  0  0
    7.2722   -2.3474   -0.1731 H   0  0  0  0  0  0  0  0  0  0  0  0
    5.3353   -1.8786   -0.6498 C   0  0  0  0  0  0  0  0  0  0  0  0
    5.0065   -3.0395   -0.8123 O   0  0  0  0  0  0  0  0  0  0  0  0
    0.7174    1.2785    0.5986 H   0  0  0  0  0  0  0  0  0  0  0  0
    0.8718    0.8885   -1.2230 H   0  0  0  0  0  0  0  0  0  0  0  0
    2.5709   -0.2753    1.0893 H   0  0  0  0  0  0  0  0  0  0  0  0
    3.2583   -2.8568   -1.0424 H   0  0  0  0  0  0  0  0  0  0  0  0
    2.8943    0.3148   -2.3916 H   0  0  0  0  0  0  0  0  0  0  0  0
  1  2  2  0
  1 17  1  0
  1 18  1  0
  2  3  1  0
  2 19  1  0
  3  4  1  1
  3  5  1  0
  3  6  1  0
  4 20  1  0
  5 21  1  0
  6  7  1  0
  6 15  1  0
  7  8  2  0
  7  9  1  0
  9 10  1  0
  9 11  1  0
 11 12  2  0
 11 13  1  0
 13 14  1  0
 13 15  1  0
 15 16  2  0
M  END

