
     RDKit          3D

 57 60  0  0  0  0  0  0  0  0999 V2000
    5.6071   -0.4113    8.3311 C   0  0  0  0  0  0  0  0  0  0  0  0
    5.5322    0.5503    7.1455 C   0  0  0  0  0  0  0  0  0  0  0  0
    6.0036   -0.0771    5.8420 C   0  0  0  0  0  0  0  0  0  0  0  0
    5.9048    0.8772    4.8093 O   0  0  0  0  0  0  0  0  0  0  0  0
    6.3236    0.4183    3.5536 C   0  0  0  0  0  0  0  0  0  0  0  0
    6.3131    1.5874    2.5816 C   0  0  2  0  0  0  0  0  0  0  0  0
    5.3475    2.1048    2.6894 H   0  0  0  0  0  0  0  0  0  0  0  0
    6.6048    1.2149    1.1111 C   0  0  0  0  0  0  0  0  0  0  0  0
    8.0584    1.6570    0.8704 C   0  0  2  0  0  0  0  0  0  0  0  0
    8.4113    2.2418   -0.5050 C   0  0  0  0  0  0  0  0  0  0  0  0
    9.8150    1.6693   -0.8481 C   0  0  1  0  0  0  0  0  0  0  0  0
    9.9046    1.1352   -2.2773 C   0  0  0  0  0  0  0  0  0  0  0  0
   10.9317    2.6591   -0.5780 C   0  0  0  0  0  0  0  0  0  0  0  0
   11.9947    2.4543    0.2514 C   0  0  0  0  0  0  0  0  0  0  0  0
   13.0312    3.8540    0.2335 S   0  0  0  0  0  0  0  0  0  0  0  0
   11.9219    4.6062   -0.9258 C   0  0  0  0  0  0  0  0  0  0  0  0
   12.2058    5.8585   -1.3896 N   0  0  0  0  0  0  0  0  0  0  0  0
   11.5064    6.6566   -2.3010 C   0  0  0  0  0  0  0  0  0  0  0  0
   10.3248    6.2898   -2.9559 C   0  0  0  0  0  0  0  0  0  0  0  0
    9.7137    7.1759   -3.8524 C   0  0  0  0  0  0  0  0  0  0  0  0
   10.2700    8.4275   -4.1028 C   0  0  0  0  0  0  0  0  0  0  0  0
   11.4539    8.8097   -3.4540 C   0  0  0  0  0  0  0  0  0  0  0  0
   12.0710    7.9358   -2.5603 C   0  0  0  0  0  0  0  0  0  0  0  0
   13.2235    8.2006   -1.8744 O   0  0  0  0  0  0  0  0  0  0  0  0
   13.8625    9.4469   -2.0419 C   0  0  0  0  0  0  0  0  0  0  0  0
   10.8985    3.8620   -1.2446 N   0  0  0  0  0  0  0  0  0  0  0  0
    9.9827    0.5424    0.0507 O   0  0  0  0  0  0  0  0  0  0  0  0
    9.0521    0.4872    1.0169 C   0  0  0  0  0  0  0  0  0  0  0  0
    9.0228   -0.3821    1.8448 O   0  0  0  0  0  0  0  0  0  0  0  0
    8.3041    2.6562    2.0273 C   0  0  0  0  0  0  0  0  0  0  0  0
    9.2116    3.4318    2.1208 O   0  0  0  0  0  0  0  0  0  0  0  0
    7.3236    2.5499    2.9406 O   0  0  0  0  0  0  0  0  0  0  0  0
    5.2604    0.0722    9.2575 H   0  0  0  0  0  0  0  0  0  0  0  0
    6.6392   -0.7588    8.5059 H   0  0  0  0  0  0  0  0  0  0  0  0
    4.9803   -1.3045    8.1697 H   0  0  0  0  0  0  0  0  0  0  0  0
    6.1453    1.4472    7.3366 H   0  0  0  0  0  0  0  0  0  0  0  0
    4.4978    0.9075    7.0039 H   0  0  0  0  0  0  0  0  0  0  0  0
    5.3894   -0.9727    5.6022 H   0  0  0  0  0  0  0  0  0  0  0  0
    7.0519   -0.4306    5.9405 H   0  0  0  0  0  0  0  0  0  0  0  0
    5.6347   -0.3627    3.1625 H   0  0  0  0  0  0  0  0  0  0  0  0
    7.3357   -0.0268    3.5864 H   0  0  0  0  0  0  0  0  0  0  0  0
    5.9358    1.7753    0.4416 H   0  0  0  0  0  0  0  0  0  0  0  0
    6.4529    0.1431    0.9210 H   0  0  0  0  0  0  0  0  0  0  0  0
    8.4279    3.3387   -0.5128 H   0  0  0  0  0  0  0  0  0  0  0  0
    7.6798    1.9002   -1.2525 H   0  0  0  0  0  0  0  0  0  0  0  0
    9.1091    0.3973   -2.4647 H   0  0  0  0  0  0  0  0  0  0  0  0
   10.8800    0.6557   -2.4433 H   0  0  0  0  0  0  0  0  0  0  0  0
    9.8003    1.9684   -2.9871 H   0  0  0  0  0  0  0  0  0  0  0  0
   12.2125    1.5924    0.8757 H   0  0  0  0  0  0  0  0  0  0  0  0
   13.0380    6.3068   -1.0220 H   0  0  0  0  0  0  0  0  0  0  0  0
    9.9001    5.3101   -2.7503 H   0  0  0  0  0  0  0  0  0  0  0  0
    8.7916    6.8740   -4.3549 H   0  0  0  0  0  0  0  0  0  0  0  0
    9.7929    9.1187   -4.8014 H   0  0  0  0  0  0  0  0  0  0  0  0
   11.8867    9.7905   -3.6521 H   0  0  0  0  0  0  0  0  0  0  0  0
   14.7517    9.4341   -1.3976 H   0  0  0  0  0  0  0  0  0  0  0  0
   13.2093   10.2835   -1.7364 H   0  0  0  0  0  0  0  0  0  0  0  0
   14.1791    9.6050   -3.0882 H   0  0  0  0  0  0  0  0  0  0  0  0
  1  2  1  0
  1 33  1  0
  1 34  1  0
  1 35  1  0
  2  3  1  0
  2 36  1  0
  2 37  1  0
  3  4  1  0
  3 38  1  0
  3 39  1  0
  4  5  1  0
  5  6  1  0
  5 40  1  0
  5 41  1  0
  6  7  1  6
  6  8  1  0
  6 32  1  0
  8  9  1  0
  8 42  1  0
  8 43  1  0
  9 10  1  0
  9 28  1  1
  9 30  1  0
 10 11  1  0
 10 44  1  0
 10 45  1  0
 11 12  1  6
 11 13  1  0
 11 27  1  0
 12 46  1  0
 12 47  1  0
 12 48  1  0
 13 14  2  0
 13 26  1  0
 14 15  1  0
 14 49  1  0
 15 16  1  0
 16 17  1  0
 16 26  2  0
 17 18  1  0
 17 50  1  0
 18 19  2  0
 18 23  1  0
 19 20  1  0
 19 51  1  0
 20 21  2  0
 20 52  1  0
 21 22  1  0
 21 53  1  0
 22 23  2  0
 22 54  1  0
 23 24  1  0
 24 25  1  0
 25 55  1  0
 25 56  1  0
 25 57  1  0
 27 28  1  0
 28 29  2  0
 30 31  2  0
 30 32  1  0
M  END

