
     RDKit          3D

 51 56  0  0  0  0  0  0  0  0999 V2000
    1.1164    0.6772   -0.5136 C   0  0  0  0  0  0  0  0  0  0  0  0
    2.6089    0.5291   -0.3682 C   0  0  0  0  0  0  0  0  0  0  0  0
    3.1772   -0.7821   -0.2505 C   0  0  0  0  0  0  0  0  0  0  0  0
    4.5300   -0.9762   -0.1147 C   0  0  0  0  0  0  0  0  0  0  0  0
    5.4163    0.1410   -0.0858 C   0  0  0  0  0  0  0  0  0  0  0  0
    6.7422   -0.0428    0.0479 N   0  0  0  0  0  0  0  0  0  0  0  0
    7.5244    1.0331    0.0740 C   0  0  0  0  0  0  0  0  0  0  0  0
    8.9535    0.8571    0.2247 C   0  0  0  0  0  0  0  0  0  0  0  0
    9.7615    1.9592    0.2409 C   0  0  0  0  0  0  0  0  0  0  0  0
    9.2637    3.3153    0.1127 C   0  0  0  0  0  0  0  0  0  0  0  0
   10.1307    4.4294    0.1332 C   0  0  0  0  0  0  0  0  0  0  0  0
    9.6192    5.7143    0.0107 C   0  0  0  0  0  0  0  0  0  0  0  0
    8.2343    5.9165   -0.1324 C   0  0  0  0  0  0  0  0  0  0  0  0
    7.3686    4.8314   -0.1519 C   0  0  0  0  0  0  0  0  0  0  0  0
    7.8643    3.5180   -0.0306 C   0  0  0  0  0  0  0  0  0  0  0  0
    6.9693    2.3631   -0.0513 C   0  0  0  0  0  0  0  0  0  0  0  0
    5.6631    2.5465   -0.1868 N   0  0  0  0  0  0  0  0  0  0  0  0
    4.8615    1.4641   -0.2040 C   0  0  0  0  0  0  0  0  0  0  0  0
    3.4515    1.6213   -0.3439 C   0  0  0  0  0  0  0  0  0  0  0  0
   11.1223    1.8646    0.4219 O   0  0  0  0  0  0  0  0  0  0  0  0
   11.8048    0.6709    0.2977 C   0  0  0  0  0  0  0  0  0  0  0  0
   12.9706    0.6512    0.5586 O   0  0  0  0  0  0  0  0  0  0  0  0
   10.9815   -0.4880   -0.2141 C   0  0  0  0  0  0  0  0  0  0  0  0
    9.5510   -0.5237    0.3660 C   0  0  1  0  0  0  0  0  0  0  0  0
    9.5152   -1.0720    1.7921 C   0  0  0  0  0  0  0  0  0  0  0  0
    9.8099   -0.2745    2.9084 C   0  0  0  0  0  0  0  0  0  0  0  0
    9.8161   -0.8154    4.1951 C   0  0  0  0  0  0  0  0  0  0  0  0
    9.5217   -2.1692    4.3880 C   0  0  0  0  0  0  0  0  0  0  0  0
    9.4684   -2.7444    5.7807 C   0  0  1  0  0  0  0  0  0  0  0  0
   10.2923   -2.0972    6.6233 F   0  0  0  0  0  0  0  0  0  0  0  0
    8.2293   -2.6618    6.3054 F   0  0  0  0  0  0  0  0  0  0  0  0
    9.8111   -4.0454    5.7978 F   0  0  0  0  0  0  0  0  0  0  0  0
    9.2254   -2.9770    3.2843 C   0  0  0  0  0  0  0  0  0  0  0  0
    9.2233   -2.4286    2.0022 C   0  0  0  0  0  0  0  0  0  0  0  0
    0.7507    0.1477   -1.4097 H   0  0  0  0  0  0  0  0  0  0  0  0
    0.8189    1.7322   -0.5964 H   0  0  0  0  0  0  0  0  0  0  0  0
    0.5888    0.2405    0.3514 H   0  0  0  0  0  0  0  0  0  0  0  0
    2.5073   -1.6468   -0.2693 H   0  0  0  0  0  0  0  0  0  0  0  0
    4.9638   -1.9740   -0.0228 H   0  0  0  0  0  0  0  0  0  0  0  0
   11.2020    4.2634    0.2491 H   0  0  0  0  0  0  0  0  0  0  0  0
   10.2971    6.5712    0.0272 H   0  0  0  0  0  0  0  0  0  0  0  0
    7.8387    6.9307   -0.2275 H   0  0  0  0  0  0  0  0  0  0  0  0
    6.2915    4.9638   -0.2610 H   0  0  0  0  0  0  0  0  0  0  0  0
    3.0679    2.6404   -0.4305 H   0  0  0  0  0  0  0  0  0  0  0  0
   11.5424   -1.4097   -0.0127 H   0  0  0  0  0  0  0  0  0  0  0  0
   10.9181   -0.3665   -1.3108 H   0  0  0  0  0  0  0  0  0  0  0  0
    8.9496   -1.2075   -0.2481 H   0  0  0  0  0  0  0  0  0  0  0  0
   10.0332    0.7869    2.7812 H   0  0  0  0  0  0  0  0  0  0  0  0
   10.0548   -0.1830    5.0521 H   0  0  0  0  0  0  0  0  0  0  0  0
    8.9983   -4.0349    3.4291 H   0  0  0  0  0  0  0  0  0  0  0  0
    8.9846   -3.0661    1.1467 H   0  0  0  0  0  0  0  0  0  0  0  0
  1  2  1  0
  1 35  1  0
  1 36  1  0
  1 37  1  0
  2  3  2  0
  2 19  1  0
  3  4  1  0
  3 38  1  0
  4  5  2  0
  4 39  1  0
  5  6  1  0
  5 18  1  0
  6  7  2  0
  7  8  1  0
  7 16  1  0
  8  9  2  0
  8 24  1  0
  9 10  1  0
  9 20  1  0
 10 11  1  0
 10 15  2  0
 11 12  2  0
 11 40  1  0
 12 13  1  0
 12 41  1  0
 13 14  2  0
 13 42  1  0
 14 15  1  0
 14 43  1  0
 15 16  1  0
 16 17  2  0
 17 18  1  0
 18 19  2  0
 19 44  1  0
 20 21  1  0
 21 22  2  0
 21 23  1  0
 23 24  1  0
 23 45  1  0
 23 46  1  0
 24 25  1  0
 24 47  1  6
 25 26  2  0
 25 34  1  0
 26 27  1  0
 26 48  1  0
 27 28  2  0
 27 49  1  0
 28 29  1  0
 28 33  1  0
 29 30  1  1
 29 31  1  0
 29 32  1  0
 33 34  2  0
 33 50  1  0
 34 51  1  0
M  END

