
     RDKit          3D

 52 55  0  0  0  0  0  0  0  0999 V2000
    1.2989   -0.5892   -0.3523 N   0  0  0  0  0  0  0  0  0  0  0  0
    2.5532   -0.3580   -0.2771 C   0  0  0  0  0  0  0  0  0  0  0  0
    3.2076    0.7768    0.4999 C   0  0  0  0  0  0  0  0  0  0  0  0
    2.2602    1.8428    1.0657 C   0  0  1  0  0  0  0  0  0  0  0  0
    1.3278    1.3189    2.0821 N   0  0  0  0  0  0  0  0  0  0  0  0
    1.7467    0.7108    3.2411 C   0  0  0  0  0  0  0  0  0  0  0  0
    2.9107    0.4044    3.4622 O   0  0  0  0  0  0  0  0  0  0  0  0
    0.6744    0.4139    4.2269 C   0  0  0  0  0  0  0  0  0  0  0  0
   -0.7029    0.4699    4.1326 C   0  0  0  0  0  0  0  0  0  0  0  0
   -1.3562    0.0765    5.3272 C   0  0  0  0  0  0  0  0  0  0  0  0
   -0.4778   -0.2880    6.3354 C   0  0  0  0  0  0  0  0  0  0  0  0
   -0.7992   -0.7470    7.6956 C   0  0  0  0  0  0  0  0  0  0  0  0
    0.0973   -1.5407    8.4383 C   0  0  0  0  0  0  0  0  0  0  0  0
   -0.2301   -1.9695    9.7246 C   0  0  0  0  0  0  0  0  0  0  0  0
   -1.4555   -1.6291   10.3028 C   0  0  0  0  0  0  0  0  0  0  0  0
   -2.3469   -0.8431    9.5663 C   0  0  0  0  0  0  0  0  0  0  0  0
   -3.8843   -0.3937   10.2712 Cl  0  0  0  0  0  0  0  0  0  0  0  0
   -2.0314   -0.3984    8.2829 C   0  0  0  0  0  0  0  0  0  0  0  0
    1.1722   -0.1375    5.7967 S   0  0  0  0  0  0  0  0  0  0  0  0
    2.9606    3.1032    1.5696 C   0  0  0  0  0  0  0  0  0  0  0  0
    4.3077    3.1657    1.9413 C   0  0  0  0  0  0  0  0  0  0  0  0
    4.8827    4.3542    2.4049 C   0  0  0  0  0  0  0  0  0  0  0  0
    4.1028    5.5070    2.5058 C   0  0  0  0  0  0  0  0  0  0  0  0
    2.7512    5.4686    2.1526 C   0  0  0  0  0  0  0  0  0  0  0  0
    2.1848    4.2749    1.6956 C   0  0  0  0  0  0  0  0  0  0  0  0
    0.8609    4.1824    1.3595 O   0  0  0  0  0  0  0  0  0  0  0  0
    3.4714   -1.2821   -1.0217 C   0  0  0  0  0  0  0  0  0  0  0  0
    2.9303   -2.2886   -1.8407 C   0  0  0  0  0  0  0  0  0  0  0  0
    3.7866   -3.1433   -2.5263 C   0  0  0  0  0  0  0  0  0  0  0  0
    5.1683   -2.9715   -2.3714 C   0  0  0  0  0  0  0  0  0  0  0  0
    5.7030   -2.0292   -1.5948 N   0  0  0  0  0  0  0  0  0  0  0  0
    4.8732   -1.2110   -0.9413 C   0  0  0  0  0  0  0  0  0  0  0  0
    0.7664    0.0710    0.2193 H   0  0  0  0  0  0  0  0  0  0  0  0
    3.9112    1.2885   -0.1761 H   0  0  0  0  0  0  0  0  0  0  0  0
    3.8100    0.3436    1.3122 H   0  0  0  0  0  0  0  0  0  0  0  0
    1.6034    2.1643    0.2422 H   0  0  0  0  0  0  0  0  0  0  0  0
    0.4454    1.8172    2.1271 H   0  0  0  0  0  0  0  0  0  0  0  0
   -1.2376    0.7534    3.2243 H   0  0  0  0  0  0  0  0  0  0  0  0
   -2.4406    0.0289    5.4332 H   0  0  0  0  0  0  0  0  0  0  0  0
    1.0511   -1.8386    7.9972 H   0  0  0  0  0  0  0  0  0  0  0  0
    0.4760   -2.5867   10.2853 H   0  0  0  0  0  0  0  0  0  0  0  0
   -1.7215   -1.9624   11.3069 H   0  0  0  0  0  0  0  0  0  0  0  0
   -2.7405    0.2365    7.7513 H   0  0  0  0  0  0  0  0  0  0  0  0
    4.9230    2.2678    1.8767 H   0  0  0  0  0  0  0  0  0  0  0  0
    5.9369    4.3744    2.6893 H   0  0  0  0  0  0  0  0  0  0  0  0
    4.5402    6.4420    2.8645 H   0  0  0  0  0  0  0  0  0  0  0  0
    2.1302    6.3666    2.2346 H   0  0  0  0  0  0  0  0  0  0  0  0
    0.4435    5.0495    1.4455 H   0  0  0  0  0  0  0  0  0  0  0  0
    1.8442   -2.3699   -1.9132 H   0  0  0  0  0  0  0  0  0  0  0  0
    3.3975   -3.9338   -3.1725 H   0  0  0  0  0  0  0  0  0  0  0  0
    5.8703   -3.6282   -2.8998 H   0  0  0  0  0  0  0  0  0  0  0  0
    5.3583   -0.4597   -0.3101 H   0  0  0  0  0  0  0  0  0  0  0  0
  1  2  2  0
  1 33  1  0
  2  3  1  0
  2 27  1  0
  3  4  1  0
  3 34  1  0
  3 35  1  0
  4  5  1  0
  4 20  1  0
  4 36  1  6
  5  6  1  0
  5 37  1  0
  6  7  2  0
  6  8  1  0
  8  9  2  0
  8 19  1  0
  9 10  1  0
  9 38  1  0
 10 11  2  0
 10 39  1  0
 11 12  1  0
 11 19  1  0
 12 13  2  0
 12 18  1  0
 13 14  1  0
 13 40  1  0
 14 15  2  0
 14 41  1  0
 15 16  1  0
 15 42  1  0
 16 17  1  0
 16 18  2  0
 18 43  1  0
 20 21  2  0
 20 25  1  0
 21 22  1  0
 21 44  1  0
 22 23  2  0
 22 45  1  0
 23 24  1  0
 23 46  1  0
 24 25  2  0
 24 47  1  0
 25 26  1  0
 26 48  1  0
 27 28  2  0
 27 32  1  0
 28 29  1  0
 28 49  1  0
 29 30  2  0
 29 50  1  0
 30 31  1  0
 30 51  1  0
 31 32  2  0
 32 52  1  0
M  END

