
     RDKit          3D

 31 32  0  0  0  0  0  0  0  0999 V2000
    1.0847    0.7139   -0.3279 N   0  0  0  0  0  0  0  0  0  0  0  0
    2.1155   -0.1738   -0.2372 C   0  0  0  0  0  0  0  0  0  0  0  0
    2.4702   -0.8482   -1.1934 O   0  0  0  0  0  0  0  0  0  0  0  0
    2.8083   -0.2385    1.1265 C   0  0  1  0  0  0  0  0  0  0  0  0
    2.9445   -1.6921    1.6360 C   0  0  0  0  0  0  0  0  0  0  0  0
    4.0286   -2.4886    0.8984 C   0  0  0  0  0  0  0  0  0  0  0  0
    5.3153   -1.7721    0.8681 N   0  0  0  0  0  0  0  0  0  0  0  0
    6.3665   -2.0449    2.1465 S   0  0  1  0  0  0  0  0  0  0  0  0
    7.3663   -0.9772    2.1137 O   0  0  0  0  0  0  0  0  0  0  0  0
    5.6472   -2.3584    3.3879 O   0  0  0  0  0  0  0  0  0  0  0  0
    7.1474   -3.5740    1.6698 C   0  0  0  0  0  0  0  0  0  0  0  0
    7.2526   -4.6786    2.4758 C   0  0  0  0  0  0  0  0  0  0  0  0
    8.0211   -5.7139    1.8653 C   0  0  0  0  0  0  0  0  0  0  0  0
    8.3213   -7.2369    2.6264 Cl  0  0  0  0  0  0  0  0  0  0  0  0
    8.4842   -5.3644    0.6133 C   0  0  0  0  0  0  0  0  0  0  0  0
    9.5131   -6.4126   -0.5465 Br  0  0  0  0  0  0  0  0  0  0  0  0
    7.9850   -3.7630    0.1580 S   0  0  0  0  0  0  0  0  0  0  0  0
    5.2333   -0.4101    0.3158 C   0  0  0  0  0  0  0  0  0  0  0  0
    4.1990    0.4422    1.0585 C   0  0  0  0  0  0  0  0  0  0  0  0
    0.6097    0.8088   -1.2186 H   0  0  0  0  0  0  0  0  0  0  0  0
    0.7694    1.2663    0.4573 H   0  0  0  0  0  0  0  0  0  0  0  0
    2.1944    0.3190    1.8535 H   0  0  0  0  0  0  0  0  0  0  0  0
    1.9801   -2.2194    1.5480 H   0  0  0  0  0  0  0  0  0  0  0  0
    3.2052   -1.6614    2.7057 H   0  0  0  0  0  0  0  0  0  0  0  0
    3.7313   -2.6596   -0.1460 H   0  0  0  0  0  0  0  0  0  0  0  0
    4.1759   -3.4679    1.3763 H   0  0  0  0  0  0  0  0  0  0  0  0
    6.8000   -4.7445    3.4646 H   0  0  0  0  0  0  0  0  0  0  0  0
    4.9528   -0.5166   -0.7431 H   0  0  0  0  0  0  0  0  0  0  0  0
    6.2282    0.0485    0.3684 H   0  0  0  0  0  0  0  0  0  0  0  0
    4.1173    1.4314    0.5772 H   0  0  0  0  0  0  0  0  0  0  0  0
    4.5566    0.6154    2.0878 H   0  0  0  0  0  0  0  0  0  0  0  0
  1  2  1  0
  1 20  1  0
  1 21  1  0
  2  3  2  0
  2  4  1  0
  4  5  1  0
  4 19  1  0
  4 22  1  1
  5  6  1  0
  5 23  1  0
  5 24  1  0
  6  7  1  0
  6 25  1  0
  6 26  1  0
  7  8  1  0
  7 18  1  0
  8  9  2  0
  8 10  2  0
  8 11  1  6
 11 12  2  0
 11 17  1  0
 12 13  1  0
 12 27  1  0
 13 14  1  0
 13 15  2  0
 15 16  1  0
 15 17  1  0
 18 19  1  0
 18 28  1  0
 18 29  1  0
 19 30  1  0
 19 31  1  0
M  END

