
     RDKit          3D

 34 35  0  0  0  0  0  0  0  0999 V2000
   -0.2625   -3.5336    0.3379 N   0  0  0  0  0  0  0  0  0  0  0  0
    0.8917   -4.3732    0.6143 C   0  0  0  0  0  0  0  0  0  0  0  0
    2.1670   -3.6628    0.2508 C   0  0  0  0  0  0  0  0  0  0  0  0
    3.3061   -4.2306   -0.0095 N   0  0  0  0  0  0  0  0  0  0  0  0
    4.2916   -3.3013   -0.2553 C   0  0  0  0  0  0  0  0  0  0  0  0
    5.6907   -3.7210   -0.5828 C   0  0  0  0  0  0  0  0  0  0  0  0
    6.5719   -2.9055   -0.8060 O   0  0  0  0  0  0  0  0  0  0  0  0
    5.8367   -5.0851   -0.5952 N   0  0  0  0  0  0  0  0  0  0  0  0
    6.9820   -5.8514   -0.8544 C   0  0  0  0  0  0  0  0  0  0  0  0
    8.2332   -5.2901   -1.1715 C   0  0  0  0  0  0  0  0  0  0  0  0
    9.3228   -6.1264   -1.4172 C   0  0  0  0  0  0  0  0  0  0  0  0
    9.2209   -7.5258   -1.3662 C   0  0  0  0  0  0  0  0  0  0  0  0
   10.4245   -8.4162   -1.5724 C   0  0  0  0  0  0  0  0  0  0  0  0
   11.1143   -8.8067   -0.2521 C   0  0  0  0  0  0  0  0  0  0  0  0
   10.2737   -9.5253    0.6221 O   0  0  0  0  0  0  0  0  0  0  0  0
    7.9639   -8.0707   -1.0494 C   0  0  0  0  0  0  0  0  0  0  0  0
    6.8639   -7.2521   -0.7977 C   0  0  0  0  0  0  0  0  0  0  0  0
    3.8902   -1.9906   -0.1862 C   0  0  0  0  0  0  0  0  0  0  0  0
    2.2118   -1.9054    0.2010 S   0  0  0  0  0  0  0  0  0  0  0  0
   -1.0910   -3.8725    0.8228 H   0  0  0  0  0  0  0  0  0  0  0  0
   -0.4790   -3.5186   -0.6587 H   0  0  0  0  0  0  0  0  0  0  0  0
    0.9107   -5.3616    0.1120 H   0  0  0  0  0  0  0  0  0  0  0  0
    0.9145   -4.5814    1.6990 H   0  0  0  0  0  0  0  0  0  0  0  0
    4.9797   -5.5910   -0.3828 H   0  0  0  0  0  0  0  0  0  0  0  0
    8.3312   -4.2080   -1.2223 H   0  0  0  0  0  0  0  0  0  0  0  0
   10.2860   -5.6695   -1.6642 H   0  0  0  0  0  0  0  0  0  0  0  0
   11.1643   -7.9101   -2.2153 H   0  0  0  0  0  0  0  0  0  0  0  0
   10.1236   -9.3429   -2.0890 H   0  0  0  0  0  0  0  0  0  0  0  0
   11.5201   -7.8944    0.2315 H   0  0  0  0  0  0  0  0  0  0  0  0
   11.9714   -9.4647   -0.4707 H   0  0  0  0  0  0  0  0  0  0  0  0
    9.5501   -8.9392    0.8839 H   0  0  0  0  0  0  0  0  0  0  0  0
    7.8422   -9.1566   -1.0098 H   0  0  0  0  0  0  0  0  0  0  0  0
    5.8954   -7.7022   -0.5602 H   0  0  0  0  0  0  0  0  0  0  0  0
    4.5075   -1.1116   -0.3594 H   0  0  0  0  0  0  0  0  0  0  0  0
  1  2  1  0
  1 20  1  0
  1 21  1  0
  2  3  1  0
  2 22  1  0
  2 23  1  0
  3  4  2  0
  3 19  1  0
  4  5  1  0
  5  6  1  0
  5 18  2  0
  6  7  2  0
  6  8  1  0
  8  9  1  0
  8 24  1  0
  9 10  2  0
  9 17  1  0
 10 11  1  0
 10 25  1  0
 11 12  2  0
 11 26  1  0
 12 13  1  0
 12 16  1  0
 13 14  1  0
 13 27  1  0
 13 28  1  0
 14 15  1  0
 14 29  1  0
 14 30  1  0
 15 31  1  0
 16 17  2  0
 16 32  1  0
 17 33  1  0
 18 19  1  0
 18 34  1  0
M  END

