
     RDKit          3D

 43 44  0  0  0  0  0  0  0  0999 V2000
    1.0009    0.0219    0.2318 C   0  0  0  0  0  0  0  0  0  0  0  0
    2.5224    0.0303    0.0837 C   0  0  0  0  0  0  0  0  0  0  0  0
    3.0213    1.1257   -0.8810 C   0  0  0  0  0  0  0  0  0  0  0  0
    4.5223    1.1584   -1.0383 C   0  0  0  0  0  0  0  0  0  0  0  0
    5.2728    2.0552   -0.3403 C   0  0  0  0  0  0  0  0  0  0  0  0
    6.7278    2.1117   -0.4063 C   0  0  0  0  0  0  0  0  0  0  0  0
    7.4427    2.8739    0.1876 O   0  0  0  0  0  0  0  0  0  0  0  0
    7.3275    1.1758   -1.2481 O   0  0  0  0  0  0  0  0  0  0  0  0
    6.6227    0.2732   -1.9717 C   0  0  0  0  0  0  0  0  0  0  0  0
    7.3570   -0.5909   -2.7823 C   0  0  0  0  0  0  0  0  0  0  0  0
    6.6930   -1.5454   -3.5603 C   0  0  0  0  0  0  0  0  0  0  0  0
    7.4782   -2.3488   -4.3209 O   0  0  0  0  0  0  0  0  0  0  0  0
    6.8980   -3.3477   -5.1410 C   0  0  0  0  0  0  0  0  0  0  0  0
    7.9648   -4.1357   -5.9057 C   0  0  0  0  0  0  0  0  0  0  0  0
    7.6093   -5.0324   -6.6519 O   0  0  0  0  0  0  0  0  0  0  0  0
    9.2459   -3.7581   -5.6809 N   0  0  0  0  0  0  0  0  0  0  0  0
   10.3971   -4.3906   -6.3197 C   0  0  1  0  0  0  0  0  0  0  0  0
   11.1448   -3.3884   -7.2060 C   0  0  0  0  0  0  0  0  0  0  0  0
   11.3109   -5.0365   -5.2726 C   0  0  0  0  0  0  0  0  0  0  0  0
    5.2867   -1.6279   -3.5243 C   0  0  0  0  0  0  0  0  0  0  0  0
    4.5724   -0.7563   -2.7084 C   0  0  0  0  0  0  0  0  0  0  0  0
    5.2082    0.2127   -1.9090 C   0  0  0  0  0  0  0  0  0  0  0  0
    0.6728   -0.7607    0.9338 H   0  0  0  0  0  0  0  0  0  0  0  0
    0.5025   -0.1665   -0.7338 H   0  0  0  0  0  0  0  0  0  0  0  0
    0.6287    0.9878    0.6118 H   0  0  0  0  0  0  0  0  0  0  0  0
    2.8698   -0.9574   -0.2640 H   0  0  0  0  0  0  0  0  0  0  0  0
    2.9954    0.1860    1.0682 H   0  0  0  0  0  0  0  0  0  0  0  0
    2.6850    2.1064   -0.5079 H   0  0  0  0  0  0  0  0  0  0  0  0
    2.5422    0.9901   -1.8657 H   0  0  0  0  0  0  0  0  0  0  0  0
    4.8154    2.7931    0.3210 H   0  0  0  0  0  0  0  0  0  0  0  0
    8.4442   -0.5153   -2.8052 H   0  0  0  0  0  0  0  0  0  0  0  0
    6.2155   -2.9073   -5.8889 H   0  0  0  0  0  0  0  0  0  0  0  0
    6.3194   -4.0729   -4.5424 H   0  0  0  0  0  0  0  0  0  0  0  0
    9.3966   -2.9920   -5.0323 H   0  0  0  0  0  0  0  0  0  0  0  0
    9.9674   -5.1793   -6.9555 H   0  0  0  0  0  0  0  0  0  0  0  0
   11.5537   -2.5557   -6.6079 H   0  0  0  0  0  0  0  0  0  0  0  0
   10.4764   -2.9642   -7.9706 H   0  0  0  0  0  0  0  0  0  0  0  0
   11.9888   -3.8756   -7.7193 H   0  0  0  0  0  0  0  0  0  0  0  0
   11.7272   -4.2791   -4.5861 H   0  0  0  0  0  0  0  0  0  0  0  0
   12.1578   -5.5483   -5.7565 H   0  0  0  0  0  0  0  0  0  0  0  0
   10.7601   -5.7764   -4.6721 H   0  0  0  0  0  0  0  0  0  0  0  0
    4.7498   -2.3608   -4.1249 H   0  0  0  0  0  0  0  0  0  0  0  0
    3.4841   -0.8319   -2.6952 H   0  0  0  0  0  0  0  0  0  0  0  0
  1  2  1  0
  1 23  1  0
  1 24  1  0
  1 25  1  0
  2  3  1  0
  2 26  1  0
  2 27  1  0
  3  4  1  0
  3 28  1  0
  3 29  1  0
  4  5  2  0
  4 22  1  0
  5  6  1  0
  5 30  1  0
  6  7  2  0
  6  8  1  0
  8  9  1  0
  9 10  1  0
  9 22  2  0
 10 11  2  0
 10 31  1  0
 11 12  1  0
 11 20  1  0
 12 13  1  0
 13 14  1  0
 13 32  1  0
 13 33  1  0
 14 15  2  0
 14 16  1  0
 16 17  1  0
 16 34  1  0
 17 18  1  0
 17 19  1  0
 17 35  1  6
 18 36  1  0
 18 37  1  0
 18 38  1  0
 19 39  1  0
 19 40  1  0
 19 41  1  0
 20 21  2  0
 20 42  1  0
 21 22  1  0
 21 43  1  0
M  END

