
     RDKit          3D

 30 31  0  0  0  0  0  0  0  0999 V2000
    1.3957   -1.0292   -0.6259 C   0  0  0  0  0  0  0  0  0  0  0  0
    2.3292   -0.0168    0.0555 C   0  0  1  0  0  0  0  0  0  0  0  0
    3.6000   -0.6962    0.6141 C   0  0  0  0  0  0  0  0  0  0  0  0
    3.2677   -1.7157    1.6028 N   0  0  0  0  0  0  0  0  0  0  0  0
    2.6901    1.1396   -0.8542 C   0  0  0  0  0  0  0  0  0  0  0  0
    2.3963    2.4569   -0.5907 C   0  0  0  0  0  0  0  0  0  0  0  0
    2.9590    3.5240   -1.8279 S   0  0  0  0  0  0  0  0  0  0  0  0
    3.6117    2.1905   -2.7604 C   0  0  0  0  0  0  0  0  0  0  0  0
    4.2718    2.4435   -4.0483 C   0  0  0  0  0  0  0  0  0  0  0  0
    4.0502    3.6314   -4.7781 C   0  0  0  0  0  0  0  0  0  0  0  0
    4.6822    3.8968   -5.9913 C   0  0  0  0  0  0  0  0  0  0  0  0
    5.5621    2.9494   -6.5097 C   0  0  0  0  0  0  0  0  0  0  0  0
    6.1742    3.1827   -7.6769 F   0  0  0  0  0  0  0  0  0  0  0  0
    5.8173    1.7569   -5.8395 C   0  0  0  0  0  0  0  0  0  0  0  0
    5.1731    1.5278   -4.6279 C   0  0  0  0  0  0  0  0  0  0  0  0
    5.4461    0.3736   -3.9991 F   0  0  0  0  0  0  0  0  0  0  0  0
    3.3903    1.0001   -2.0964 C   0  0  0  0  0  0  0  0  0  0  0  0
    1.1862   -1.8632    0.0588 H   0  0  0  0  0  0  0  0  0  0  0  0
    1.8604   -1.4478   -1.5339 H   0  0  0  0  0  0  0  0  0  0  0  0
    0.4462   -0.5578   -0.9228 H   0  0  0  0  0  0  0  0  0  0  0  0
    1.7903    0.4100    0.9216 H   0  0  0  0  0  0  0  0  0  0  0  0
    4.2802    0.0969    0.9903 H   0  0  0  0  0  0  0  0  0  0  0  0
    4.1341   -1.1886   -0.2173 H   0  0  0  0  0  0  0  0  0  0  0  0
    2.9468   -1.2811    2.4690 H   0  0  0  0  0  0  0  0  0  0  0  0
    4.0915   -2.2642    1.8464 H   0  0  0  0  0  0  0  0  0  0  0  0
    1.8747    2.8616    0.2762 H   0  0  0  0  0  0  0  0  0  0  0  0
    3.3466    4.3663   -4.3813 H   0  0  0  0  0  0  0  0  0  0  0  0
    4.4955    4.8197   -6.5422 H   0  0  0  0  0  0  0  0  0  0  0  0
    6.5079    1.0166   -6.2443 H   0  0  0  0  0  0  0  0  0  0  0  0
    3.7106    0.0414   -2.5000 H   0  0  0  0  0  0  0  0  0  0  0  0
  1  2  1  0
  1 18  1  0
  1 19  1  0
  1 20  1  0
  2  3  1  0
  2  5  1  0
  2 21  1  1
  3  4  1  0
  3 22  1  0
  3 23  1  0
  4 24  1  0
  4 25  1  0
  5  6  2  0
  5 17  1  0
  6  7  1  0
  6 26  1  0
  7  8  1  0
  8  9  1  0
  8 17  2  0
  9 10  2  0
  9 15  1  0
 10 11  1  0
 10 27  1  0
 11 12  2  0
 11 28  1  0
 12 13  1  0
 12 14  1  0
 14 15  2  0
 14 29  1  0
 15 16  1  0
 17 30  1  0
M  END

