
     RDKit          3D

 72 78  0  0  0  0  0  0  0  0999 V2000
    4.7279    4.1833    2.9595 C   0  0  0  0  0  0  0  0  0  0  0  0
    4.3771    3.7027    1.9054 C   0  0  0  0  0  0  0  0  0  0  0  0
    3.9314    3.1180    0.6323 C   0  0  0  0  0  0  0  0  0  0  0  0
    4.5729    1.8655    0.2730 N   0  0  0  0  0  0  0  0  0  0  0  0
    5.6885    1.6594   -0.4702 C   0  0  0  0  0  0  0  0  0  0  0  0
    5.9755    0.3023   -0.8272 C   0  0  0  0  0  0  0  0  0  0  0  0
    5.3317   -0.8892   -0.4520 C   0  0  0  0  0  0  0  0  0  0  0  0
    6.0220   -1.9533   -1.0606 C   0  0  0  0  0  0  0  0  0  0  0  0
    5.6936   -3.3720   -0.9284 C   0  0  0  0  0  0  0  0  0  0  0  0
    4.4302   -3.9343   -0.7110 C   0  0  0  0  0  0  0  0  0  0  0  0
    4.5934   -5.3419   -0.6185 C   0  0  0  0  0  0  0  0  0  0  0  0
    5.9487   -5.6271   -0.7686 N   0  0  0  0  0  0  0  0  0  0  0  0
    6.5983   -4.4745   -0.9502 C   0  0  0  0  0  0  0  0  0  0  0  0
    6.6059   -7.0481   -0.6283 B   0  0  2  0  0  0  0  0  0  0  0  0
    7.2891   -7.1274    0.5714 F   0  0  0  0  0  0  0  0  0  0  0  0
    7.4358   -7.2948   -1.7028 F   0  0  0  0  0  0  0  0  0  0  0  0
    5.4032   -8.0547   -0.6235 N   0  0  0  0  0  0  0  0  0  0  0  0
    5.4895   -9.3918   -0.6514 C   0  0  0  0  0  0  0  0  0  0  0  0
    4.2055   -9.9689   -0.5279 C   0  0  0  0  0  0  0  0  0  0  0  0
    3.3038   -8.9137   -0.4191 C   0  0  0  0  0  0  0  0  0  0  0  0
    4.0615   -7.7113   -0.4827 C   0  0  0  0  0  0  0  0  0  0  0  0
    3.6460   -6.3673   -0.4649 C   0  0  0  0  0  0  0  0  0  0  0  0
    2.1969   -6.0315   -0.3042 C   0  0  0  0  0  0  0  0  0  0  0  0
    1.6611   -5.8550    0.9900 C   0  0  0  0  0  0  0  0  0  0  0  0
    2.5249   -6.0000    2.2210 C   0  0  0  0  0  0  0  0  0  0  0  0
    0.3003   -5.5395    1.1176 C   0  0  0  0  0  0  0  0  0  0  0  0
   -0.5369   -5.3971    0.0059 C   0  0  0  0  0  0  0  0  0  0  0  0
   -2.0024   -5.0701    0.1613 C   0  0  0  0  0  0  0  0  0  0  0  0
    0.0228   -5.5771   -1.2666 C   0  0  0  0  0  0  0  0  0  0  0  0
    1.3747   -5.8922   -1.4470 C   0  0  0  0  0  0  0  0  0  0  0  0
    1.9325   -6.0772   -2.8388 C   0  0  0  0  0  0  0  0  0  0  0  0
    7.0714   -1.3656   -1.8187 C   0  0  0  0  0  0  0  0  0  0  0  0
    8.0779   -2.0265   -2.7050 C   0  0  0  0  0  0  0  0  0  0  0  0
    7.0327   -0.0226   -1.6584 N   0  0  0  0  0  0  0  0  0  0  0  0
    7.9766    1.0053   -2.3554 B   0  0  1  0  0  0  0  0  0  0  0  0
    9.2992    0.7062   -2.0513 F   0  0  0  0  0  0  0  0  0  0  0  0
    7.7752    0.9905   -3.7324 F   0  0  0  0  0  0  0  0  0  0  0  0
    7.6046    2.4089   -1.7755 N   0  0  0  0  0  0  0  0  0  0  0  0
    8.2928    3.5453   -2.0246 C   0  0  0  0  0  0  0  0  0  0  0  0
    9.4797    3.5954   -2.9304 C   0  0  0  0  0  0  0  0  0  0  0  0
    7.7087    4.6043   -1.2994 C   0  0  0  0  0  0  0  0  0  0  0  0
    6.6261    4.0834   -0.5951 C   0  0  0  0  0  0  0  0  0  0  0  0
    6.5550    2.7003   -0.9052 C   0  0  0  0  0  0  0  0  0  0  0  0
    5.0476    4.6080    3.8933 H   0  0  0  0  0  0  0  0  0  0  0  0
    4.0672    3.8416   -0.1867 H   0  0  0  0  0  0  0  0  0  0  0  0
    2.8469    2.9259    0.6919 H   0  0  0  0  0  0  0  0  0  0  0  0
    4.0986    1.0292    0.5881 H   0  0  0  0  0  0  0  0  0  0  0  0
    4.4823   -0.9994    0.2216 H   0  0  0  0  0  0  0  0  0  0  0  0
    3.4778   -3.4113   -0.6548 H   0  0  0  0  0  0  0  0  0  0  0  0
    7.6811   -4.4634   -1.0639 H   0  0  0  0  0  0  0  0  0  0  0  0
    6.4562   -9.8835   -0.7557 H   0  0  0  0  0  0  0  0  0  0  0  0
    3.9837  -11.0341   -0.5261 H   0  0  0  0  0  0  0  0  0  0  0  0
    2.2219   -8.9667   -0.3163 H   0  0  0  0  0  0  0  0  0  0  0  0
    2.9571   -7.0108    2.2947 H   0  0  0  0  0  0  0  0  0  0  0  0
    1.9447   -5.8122    3.1358 H   0  0  0  0  0  0  0  0  0  0  0  0
    3.3735   -5.2974    2.2055 H   0  0  0  0  0  0  0  0  0  0  0  0
   -0.1143   -5.4027    2.1207 H   0  0  0  0  0  0  0  0  0  0  0  0
   -2.2630   -4.8620    1.2095 H   0  0  0  0  0  0  0  0  0  0  0  0
   -2.6356   -5.9061   -0.1813 H   0  0  0  0  0  0  0  0  0  0  0  0
   -2.2833   -4.1896   -0.4397 H   0  0  0  0  0  0  0  0  0  0  0  0
   -0.6129   -5.4699   -2.1510 H   0  0  0  0  0  0  0  0  0  0  0  0
    1.1485   -5.9504   -3.5989 H   0  0  0  0  0  0  0  0  0  0  0  0
    2.3724   -7.0790   -2.9683 H   0  0  0  0  0  0  0  0  0  0  0  0
    2.7336   -5.3516   -3.0532 H   0  0  0  0  0  0  0  0  0  0  0  0
    7.7412   -3.0297   -2.9982 H   0  0  0  0  0  0  0  0  0  0  0  0
    8.2356   -1.4290   -3.6138 H   0  0  0  0  0  0  0  0  0  0  0  0
    9.0561   -2.1176   -2.2039 H   0  0  0  0  0  0  0  0  0  0  0  0
    9.2236    3.2087   -3.9291 H   0  0  0  0  0  0  0  0  0  0  0  0
   10.2921    2.9597   -2.5462 H   0  0  0  0  0  0  0  0  0  0  0  0
    9.8434    4.6273   -3.0273 H   0  0  0  0  0  0  0  0  0  0  0  0
    8.0623    5.6335   -1.2923 H   0  0  0  0  0  0  0  0  0  0  0  0
    6.0039    4.6333    0.1033 H   0  0  0  0  0  0  0  0  0  0  0  0
  1  2  3  0
  1 44  1  0
  2  3  1  0
  3  4  1  0
  3 45  1  0
  3 46  1  0
  4  5  1  0
  4 47  1  0
  5  6  1  0
  5 43  2  0
  6  7  2  0
  6 34  1  0
  7  8  1  0
  7 48  1  0
  8  9  1  0
  8 32  2  0
  9 10  1  0
  9 13  2  0
 10 11  2  0
 10 49  1  0
 11 12  1  0
 11 22  1  0
 12 13  1  0
 12 14  1  0
 13 50  1  0
 14 15  1  1
 14 16  1  0
 14 17  1  0
 17 18  2  0
 17 21  1  0
 18 19  1  0
 18 51  1  0
 19 20  2  0
 19 52  1  0
 20 21  1  0
 20 53  1  0
 21 22  2  0
 22 23  1  0
 23 24  2  0
 23 30  1  0
 24 25  1  0
 24 26  1  0
 25 54  1  0
 25 55  1  0
 25 56  1  0
 26 27  2  0
 26 57  1  0
 27 28  1  0
 27 29  1  0
 28 58  1  0
 28 59  1  0
 28 60  1  0
 29 30  2  0
 29 61  1  0
 30 31  1  0
 31 62  1  0
 31 63  1  0
 31 64  1  0
 32 33  1  0
 32 34  1  0
 33 65  1  0
 33 66  1  0
 33 67  1  0
 34 35  1  0
 35 36  1  6
 35 37  1  0
 35 38  1  0
 38 39  2  0
 38 43  1  0
 39 40  1  0
 39 41  1  0
 40 68  1  0
 40 69  1  0
 40 70  1  0
 41 42  2  0
 41 71  1  0
 42 43  1  0
 42 72  1  0
M  CHG  4  14  -1  17   1  35  -1  38   1
M  END

