
     RDKit          3D

 39 41  0  0  0  0  0  0  0  0999 V2000
    0.4309    1.1199    0.2978 C   0  0  0  0  0  0  0  0  0  0  0  0
    1.3253    2.2568    0.3231 N   0  0  0  0  0  0  0  0  0  0  0  0
    2.6877    2.2397    0.2110 C   0  0  0  0  0  0  0  0  0  0  0  0
    3.0937    3.5677    0.2817 C   0  0  0  0  0  0  0  0  0  0  0  0
    4.3790    4.1112    0.2224 N   0  0  0  0  0  0  0  0  0  0  0  0
    5.5467    3.3908    0.0701 C   0  0  0  0  0  0  0  0  0  0  0  0
    5.5248    2.1547   -0.0303 O   0  0  0  0  0  0  0  0  0  0  0  0
    6.7902    4.1345    0.0295 C   0  0  0  0  0  0  0  0  0  0  0  0
    7.0008    5.8911    0.1591 S   0  0  0  0  0  0  0  0  0  0  0  0
    8.7404    5.6575   -0.0747 C   0  0  0  0  0  0  0  0  0  0  0  0
    9.5962    6.7137   -0.1200 N   0  0  0  0  0  0  0  0  0  0  0  0
   11.0415    6.4725   -0.0916 C   0  0  0  0  0  0  0  0  0  0  0  0
   11.7806    7.4495   -1.0072 C   0  0  0  0  0  0  0  0  0  0  0  0
   11.4058    8.9010   -0.6888 C   0  0  0  0  0  0  0  0  0  0  0  0
    9.8854    9.0835   -0.7453 C   0  0  0  0  0  0  0  0  0  0  0  0
    9.1651    8.0783    0.1591 C   0  0  0  0  0  0  0  0  0  0  0  0
    9.1155    4.4091   -0.2012 N   0  0  0  0  0  0  0  0  0  0  0  0
    8.0520    3.5507   -0.1495 C   0  0  0  0  0  0  0  0  0  0  0  0
    8.2626    2.2231   -0.2619 N   0  0  0  0  0  0  0  0  0  0  0  0
    1.8868    4.2987    0.4351 C   0  0  0  0  0  0  0  0  0  0  0  0
    0.8300    3.4890    0.4574 N   0  0  0  0  0  0  0  0  0  0  0  0
    1.0234    0.1990    0.2180 H   0  0  0  0  0  0  0  0  0  0  0  0
   -0.2529    1.1847   -0.5630 H   0  0  0  0  0  0  0  0  0  0  0  0
   -0.1688    1.0851    1.2201 H   0  0  0  0  0  0  0  0  0  0  0  0
    3.2693    1.3327    0.0941 H   0  0  0  0  0  0  0  0  0  0  0  0
    4.4394    5.1191    0.2929 H   0  0  0  0  0  0  0  0  0  0  0  0
   11.2091    5.4299   -0.3856 H   0  0  0  0  0  0  0  0  0  0  0  0
   11.4068    6.5858    0.9500 H   0  0  0  0  0  0  0  0  0  0  0  0
   11.5257    7.2217   -2.0570 H   0  0  0  0  0  0  0  0  0  0  0  0
   12.8661    7.2911   -0.8979 H   0  0  0  0  0  0  0  0  0  0  0  0
   11.9019    9.5939   -1.3877 H   0  0  0  0  0  0  0  0  0  0  0  0
   11.7701    9.1611    0.3225 H   0  0  0  0  0  0  0  0  0  0  0  0
    9.5347    8.9416   -1.7824 H   0  0  0  0  0  0  0  0  0  0  0  0
    9.5989   10.1045   -0.4441 H   0  0  0  0  0  0  0  0  0  0  0  0
    8.0789    8.1502    0.0043 H   0  0  0  0  0  0  0  0  0  0  0  0
    9.3584    8.3229    1.2242 H   0  0  0  0  0  0  0  0  0  0  0  0
    9.1888    1.8875   -0.4815 H   0  0  0  0  0  0  0  0  0  0  0  0
    7.4350    1.6305   -0.2677 H   0  0  0  0  0  0  0  0  0  0  0  0
    1.7571    5.3775    0.5302 H   0  0  0  0  0  0  0  0  0  0  0  0
  1  2  1  0
  1 22  1  0
  1 23  1  0
  1 24  1  0
  2  3  1  0
  2 21  1  0
  3  4  2  0
  3 25  1  0
  4  5  1  0
  4 20  1  0
  5  6  1  0
  5 26  1  0
  6  7  2  0
  6  8  1  0
  8  9  1  0
  8 18  2  0
  9 10  1  0
 10 11  1  0
 10 17  2  0
 11 12  1  0
 11 16  1  0
 12 13  1  0
 12 27  1  0
 12 28  1  0
 13 14  1  0
 13 29  1  0
 13 30  1  0
 14 15  1  0
 14 31  1  0
 14 32  1  0
 15 16  1  0
 15 33  1  0
 15 34  1  0
 16 35  1  0
 16 36  1  0
 17 18  1  0
 18 19  1  0
 19 37  1  0
 19 38  1  0
 20 21  2  0
 20 39  1  0
M  END

