
     RDKit          3D

 53 57  0  0  0  0  0  0  0  0999 V2000
   12.2628   -3.5058    1.0079 C   0  0  0  0  0  0  0  0  0  0  0  0
   11.0612   -2.7396    0.5114 C   0  0  0  0  0  0  0  0  0  0  0  0
   11.1239   -1.3390    0.3480 C   0  0  0  0  0  0  0  0  0  0  0  0
   10.0319   -0.6116   -0.1077 C   0  0  0  0  0  0  0  0  0  0  0  0
    8.8376   -1.2753   -0.4144 C   0  0  0  0  0  0  0  0  0  0  0  0
    7.8004   -0.5203   -0.8555 O   0  0  0  0  0  0  0  0  0  0  0  0
    6.5626   -1.0533   -1.1939 C   0  0  0  0  0  0  0  0  0  0  0  0
    5.7039   -0.3043   -1.5748 O   0  0  0  0  0  0  0  0  0  0  0  0
    6.4369   -2.5019   -1.0455 C   0  0  0  0  0  0  0  0  0  0  0  0
    7.4545   -3.2846   -0.6068 C   0  0  0  0  0  0  0  0  0  0  0  0
    7.3004   -4.7766   -0.4602 C   0  0  0  0  0  0  0  0  0  0  0  0
    6.0023   -5.1714   -0.8414 O   0  0  0  0  0  0  0  0  0  0  0  0
    5.6499   -6.4779   -0.7899 C   0  0  0  0  0  0  0  0  0  0  0  0
    6.4931   -7.5142   -0.3605 C   0  0  0  0  0  0  0  0  0  0  0  0
    6.0232   -8.8295   -0.3509 C   0  0  0  0  0  0  0  0  0  0  0  0
    4.7178   -9.1461   -0.7595 C   0  0  0  0  0  0  0  0  0  0  0  0
    4.2244  -10.5387   -0.7386 C   0  0  0  0  0  0  0  0  0  0  0  0
    2.9178  -10.8998   -0.4846 C   0  0  0  0  0  0  0  0  0  0  0  0
    2.5939  -12.2948   -0.4856 C   0  0  0  0  0  0  0  0  0  0  0  0
    1.2011  -12.7639   -0.2412 C   0  0  0  0  0  0  0  0  0  0  0  0
    0.1150  -11.8771   -0.1220 C   0  0  0  0  0  0  0  0  0  0  0  0
   -1.1764  -12.3571    0.1045 C   0  0  0  0  0  0  0  0  0  0  0  0
   -1.4047  -13.7315    0.2173 C   0  0  0  0  0  0  0  0  0  0  0  0
   -0.3330  -14.6238    0.0981 C   0  0  0  0  0  0  0  0  0  0  0  0
    0.9561  -14.1465   -0.1304 C   0  0  0  0  0  0  0  0  0  0  0  0
    3.5079  -13.2264   -0.6890 N   0  0  0  0  0  0  0  0  0  0  0  0
    4.8085  -12.9079   -0.9254 C   0  0  0  0  0  0  0  0  0  0  0  0
    6.0306  -14.0108   -1.1774 S   0  0  0  0  0  0  0  0  0  0  0  0
    5.1172  -11.5392   -0.9652 N   0  0  0  0  0  0  0  0  0  0  0  0
    6.0821  -11.3308   -1.2065 H   0  0  0  0  0  0  0  0  0  0  0  0
    3.8845   -8.0908   -1.1860 C   0  0  0  0  0  0  0  0  0  0  0  0
    4.3393   -6.7805   -1.2035 C   0  0  0  0  0  0  0  0  0  0  0  0
    8.7322   -2.6733   -0.2655 C   0  0  0  0  0  0  0  0  0  0  0  0
    9.8627   -3.3808    0.2004 C   0  0  0  0  0  0  0  0  0  0  0  0
   12.5772   -3.1548    2.0049 H   0  0  0  0  0  0  0  0  0  0  0  0
   13.1266   -3.3754    0.3349 H   0  0  0  0  0  0  0  0  0  0  0  0
   12.0556   -4.5834    1.0821 H   0  0  0  0  0  0  0  0  0  0  0  0
   12.0528   -0.8127    0.5851 H   0  0  0  0  0  0  0  0  0  0  0  0
   10.0750    0.4713   -0.2359 H   0  0  0  0  0  0  0  0  0  0  0  0
    5.4682   -2.9218   -1.3101 H   0  0  0  0  0  0  0  0  0  0  0  0
    7.5002   -5.0635    0.5904 H   0  0  0  0  0  0  0  0  0  0  0  0
    8.0593   -5.2875   -1.0839 H   0  0  0  0  0  0  0  0  0  0  0  0
    7.5094   -7.3141   -0.0223 H   0  0  0  0  0  0  0  0  0  0  0  0
    6.6893   -9.6136    0.0180 H   0  0  0  0  0  0  0  0  0  0  0  0
    2.1836  -10.1359   -0.2463 H   0  0  0  0  0  0  0  0  0  0  0  0
    0.2625  -10.8001   -0.2154 H   0  0  0  0  0  0  0  0  0  0  0  0
   -2.0081  -11.6536    0.1914 H   0  0  0  0  0  0  0  0  0  0  0  0
   -2.4158  -14.1064    0.3960 H   0  0  0  0  0  0  0  0  0  0  0  0
   -0.5048  -15.6997    0.1840 H   0  0  0  0  0  0  0  0  0  0  0  0
    1.8040  -14.8254   -0.2292 H   0  0  0  0  0  0  0  0  0  0  0  0
    2.8729   -8.3075   -1.5345 H   0  0  0  0  0  0  0  0  0  0  0  0
    3.6992   -5.9653   -1.5455 H   0  0  0  0  0  0  0  0  0  0  0  0
    9.8051   -4.4647    0.3236 H   0  0  0  0  0  0  0  0  0  0  0  0
  1  2  1  0
  1 35  1  0
  1 36  1  0
  1 37  1  0
  2  3  2  0
  2 34  1  0
  3  4  1  0
  3 38  1  0
  4  5  2  0
  4 39  1  0
  5  6  1  0
  5 33  1  0
  6  7  1  0
  7  8  2  0
  7  9  1  0
  9 10  2  0
  9 40  1  0
 10 11  1  0
 10 33  1  0
 11 12  1  0
 11 41  1  0
 11 42  1  0
 12 13  1  0
 13 14  2  0
 13 32  1  0
 14 15  1  0
 14 43  1  0
 15 16  2  0
 15 44  1  0
 16 17  1  0
 16 31  1  0
 17 18  2  0
 17 29  1  0
 18 19  1  0
 18 45  1  0
 19 20  1  0
 19 26  2  0
 20 21  2  0
 20 25  1  0
 21 22  1  0
 21 46  1  0
 22 23  2  0
 22 47  1  0
 23 24  1  0
 23 48  1  0
 24 25  2  0
 24 49  1  0
 25 50  1  0
 26 27  1  0
 27 28  2  0
 27 29  1  0
 29 30  1  0
 31 32  2  0
 31 51  1  0
 32 52  1  0
 33 34  2  0
 34 53  1  0
M  END

