
     RDKit          3D

 40 43  0  0  0  0  0  0  0  0999 V2000
    4.7712    5.3716   -0.4274 I   0  0  0  0  0  0  0  0  0  0  0  0
    5.5217    3.4312   -0.1240 C   0  0  0  0  0  0  0  0  0  0  0  0
    4.8759    2.3911    0.4490 C   0  0  0  0  0  0  0  0  0  0  0  0
    5.7747    1.2298    0.4538 C   0  0  0  0  0  0  0  0  0  0  0  0
    6.9611    1.5593   -0.1140 C   0  0  0  0  0  0  0  0  0  0  0  0
    8.1734    0.6912   -0.2986 C   0  0  0  0  0  0  0  0  0  0  0  0
    7.8543   -0.7153   -0.1280 N   0  0  0  0  0  0  0  0  0  0  0  0
    8.9406   -1.6989   -0.0688 C   0  0  2  0  0  0  0  0  0  0  0  0
    9.7613   -1.5281    1.2319 C   0  0  0  0  0  0  0  0  0  0  0  0
   10.8325   -2.6310    1.3474 C   0  0  1  0  0  0  0  0  0  0  0  0
   10.1495   -4.0116    1.3731 C   0  0  0  0  0  0  0  0  0  0  0  0
    9.3459   -4.2075    0.0731 C   0  0  2  0  0  0  0  0  0  0  0  0
   10.2979   -4.1316   -1.1365 C   0  0  0  0  0  0  0  0  0  0  0  0
   10.9850   -2.7527   -1.1633 C   0  0  2  0  0  0  0  0  0  0  0  0
   11.7855   -2.5524    0.1385 C   0  0  0  0  0  0  0  0  0  0  0  0
    9.9152   -1.6476   -1.2768 C   0  0  0  0  0  0  0  0  0  0  0  0
    8.2846   -3.0981   -0.0384 C   0  0  0  0  0  0  0  0  0  0  0  0
    6.9062    3.0088   -0.5427 C   0  0  0  0  0  0  0  0  0  0  0  0
    3.8602    2.3981    0.8459 H   0  0  0  0  0  0  0  0  0  0  0  0
    5.5285    0.2496    0.8624 H   0  0  0  0  0  0  0  0  0  0  0  0
    8.9302    0.9777    0.4549 H   0  0  0  0  0  0  0  0  0  0  0  0
    8.6395    0.9388   -1.2797 H   0  0  0  0  0  0  0  0  0  0  0  0
    7.1767   -0.9951   -0.8367 H   0  0  0  0  0  0  0  0  0  0  0  0
    9.0713   -1.5580    2.0915 H   0  0  0  0  0  0  0  0  0  0  0  0
   10.2510   -0.5397    1.2473 H   0  0  0  0  0  0  0  0  0  0  0  0
   11.4039   -2.4831    2.2796 H   0  0  0  0  0  0  0  0  0  0  0  0
    9.4812   -4.0884    2.2480 H   0  0  0  0  0  0  0  0  0  0  0  0
   10.9056   -4.8091    1.4773 H   0  0  0  0  0  0  0  0  0  0  0  0
    8.8442   -5.1900    0.0904 H   0  0  0  0  0  0  0  0  0  0  0  0
    9.7366   -4.2945   -2.0732 H   0  0  0  0  0  0  0  0  0  0  0  0
   11.0548   -4.9327   -1.0756 H   0  0  0  0  0  0  0  0  0  0  0  0
   11.6656   -2.6943   -2.0300 H   0  0  0  0  0  0  0  0  0  0  0  0
   12.2991   -1.5751    0.1220 H   0  0  0  0  0  0  0  0  0  0  0  0
   12.5714   -3.3228    0.2235 H   0  0  0  0  0  0  0  0  0  0  0  0
    9.3402   -1.7650   -2.2131 H   0  0  0  0  0  0  0  0  0  0  0  0
   10.4058   -0.6605   -1.3250 H   0  0  0  0  0  0  0  0  0  0  0  0
    7.5815   -3.1403    0.8101 H   0  0  0  0  0  0  0  0  0  0  0  0
    7.6869   -3.2389   -0.9579 H   0  0  0  0  0  0  0  0  0  0  0  0
    7.0587    3.1256   -1.6313 H   0  0  0  0  0  0  0  0  0  0  0  0
    7.6879    3.6203   -0.0553 H   0  0  0  0  0  0  0  0  0  0  0  0
  1  2  1  0
  2  3  2  0
  2 18  1  0
  3  4  1  0
  3 19  1  0
  4  5  2  0
  4 20  1  0
  5  6  1  0
  5 18  1  0
  6  7  1  0
  6 21  1  0
  6 22  1  0
  8  7  1  6
  7 23  1  0
  8  9  1  0
  8 16  1  0
  8 17  1  0
  9 10  1  0
  9 24  1  0
  9 25  1  0
 10 11  1  0
 10 15  1  0
 10 26  1  1
 11 12  1  0
 11 27  1  0
 11 28  1  0
 12 13  1  0
 12 17  1  0
 12 29  1  1
 13 14  1  0
 13 30  1  0
 13 31  1  0
 14 15  1  0
 14 16  1  0
 14 32  1  6
 15 33  1  0
 15 34  1  0
 16 35  1  0
 16 36  1  0
 17 37  1  0
 17 38  1  0
 18 39  1  0
 18 40  1  0
M  END

