
     RDKit          3D

 30 31  0  0  0  0  0  0  0  0999 V2000
    3.2729   -1.3989    0.0912 C   0  0  0  0  0  0  0  0  0  0  0  0
    2.5840   -0.0495   -0.1636 C   0  0  1  0  0  0  0  0  0  0  0  0
    1.1132   -0.1226   -0.1574 N   0  0  0  0  0  0  0  0  0  0  0  0
    3.0429    0.9957    0.8175 C   0  0  0  0  0  0  0  0  0  0  0  0
    3.8636    0.9066    1.9257 C   0  0  0  0  0  0  0  0  0  0  0  0
    3.9643    2.1129    2.5654 N   0  0  0  0  0  0  0  0  0  0  0  0
    3.2224    2.9461    1.8654 C   0  0  0  0  0  0  0  0  0  0  0  0
    2.6384    2.3274    0.7860 N   0  0  0  0  0  0  0  0  0  0  0  0
    1.8128    2.9942   -0.2363 C   0  0  2  0  0  0  0  0  0  0  0  0
    2.6144    3.2607   -1.5186 C   0  0  0  0  0  0  0  0  0  0  0  0
    1.2200    4.2782    0.3683 C   0  0  0  0  0  0  0  0  0  0  0  0
    2.2828    5.1408    1.0594 C   0  0  0  0  0  0  0  0  0  0  0  0
    2.9277    4.3743    2.2210 C   0  0  0  0  0  0  0  0  0  0  0  0
    2.9343   -2.1407   -0.6496 H   0  0  0  0  0  0  0  0  0  0  0  0
    3.0251   -1.7830    1.0938 H   0  0  0  0  0  0  0  0  0  0  0  0
    4.3693   -1.3228    0.0165 H   0  0  0  0  0  0  0  0  0  0  0  0
    2.8652    0.2722   -1.1841 H   0  0  0  0  0  0  0  0  0  0  0  0
    0.7921   -0.4375    0.7600 H   0  0  0  0  0  0  0  0  0  0  0  0
    0.7918   -0.8156   -0.8349 H   0  0  0  0  0  0  0  0  0  0  0  0
    4.3834    0.0237    2.2951 H   0  0  0  0  0  0  0  0  0  0  0  0
    1.0013    2.2911   -0.4748 H   0  0  0  0  0  0  0  0  0  0  0  0
    3.4535    3.9515   -1.3426 H   0  0  0  0  0  0  0  0  0  0  0  0
    1.9599    3.7023   -2.2869 H   0  0  0  0  0  0  0  0  0  0  0  0
    3.0313    2.3307   -1.9313 H   0  0  0  0  0  0  0  0  0  0  0  0
    0.4400    4.0048    1.1005 H   0  0  0  0  0  0  0  0  0  0  0  0
    0.7162    4.8427   -0.4324 H   0  0  0  0  0  0  0  0  0  0  0  0
    1.8334    6.0761    1.4285 H   0  0  0  0  0  0  0  0  0  0  0  0
    3.0547    5.4381    0.3294 H   0  0  0  0  0  0  0  0  0  0  0  0
    2.2465    4.3785    3.0920 H   0  0  0  0  0  0  0  0  0  0  0  0
    3.8564    4.8564    2.5637 H   0  0  0  0  0  0  0  0  0  0  0  0
  1  2  1  0
  1 14  1  0
  1 15  1  0
  1 16  1  0
  2  3  1  0
  2  4  1  0
  2 17  1  6
  3 18  1  0
  3 19  1  0
  4  5  2  0
  4  8  1  0
  5  6  1  0
  5 20  1  0
  6  7  2  0
  7  8  1  0
  7 13  1  0
  8  9  1  0
  9 10  1  0
  9 11  1  0
  9 21  1  6
 10 22  1  0
 10 23  1  0
 10 24  1  0
 11 12  1  0
 11 25  1  0
 11 26  1  0
 12 13  1  0
 12 27  1  0
 12 28  1  0
 13 29  1  0
 13 30  1  0
M  END

