
     RDKit          3D

 36 38  0  0  0  0  0  0  0  0999 V2000
    6.8057    3.1633   -2.0311 N   0  0  0  0  0  0  0  0  0  0  0  0
    7.7347    2.4052   -1.3797 C   0  0  0  0  0  0  0  0  0  0  0  0
    8.5641    1.7335   -1.9672 O   0  0  0  0  0  0  0  0  0  0  0  0
    7.6437    2.4330    0.1485 C   0  0  0  0  0  0  0  0  0  0  0  0
    6.7489    1.3267    0.6819 C   0  0  0  0  0  0  0  0  0  0  0  0
    5.6623    1.6127    1.5207 C   0  0  0  0  0  0  0  0  0  0  0  0
    4.8590    0.5735    1.9993 C   0  0  0  0  0  0  0  0  0  0  0  0
    5.1099   -0.7556    1.6583 C   0  0  0  0  0  0  0  0  0  0  0  0
    6.1974   -1.0511    0.8134 C   0  0  0  0  0  0  0  0  0  0  0  0
    6.5282   -2.3540    0.4134 N   0  0  0  0  0  0  0  0  0  0  0  0
    5.9148   -3.5415    0.7254 C   0  0  0  0  0  0  0  0  0  0  0  0
    4.9305   -3.6666    1.4399 O   0  0  0  0  0  0  0  0  0  0  0  0
    6.5691   -4.7245    0.0982 C   0  0  0  0  0  0  0  0  0  0  0  0
    7.6376   -4.6058   -0.6775 N   0  0  0  0  0  0  0  0  0  0  0  0
    7.9689   -5.8417   -1.0731 N   0  0  0  0  0  0  0  0  0  0  0  0
    8.7684   -5.9718   -1.6806 H   0  0  0  0  0  0  0  0  0  0  0  0
    7.1266   -6.8008   -0.5670 C   0  0  0  0  0  0  0  0  0  0  0  0
    7.0950   -8.1986   -0.7139 C   0  0  0  0  0  0  0  0  0  0  0  0
    6.0812   -8.8734   -0.0464 C   0  0  0  0  0  0  0  0  0  0  0  0
    5.1241   -8.1896    0.7449 C   0  0  0  0  0  0  0  0  0  0  0  0
    5.1576   -6.8096    0.8883 C   0  0  0  0  0  0  0  0  0  0  0  0
    6.1768   -6.1003    0.2209 C   0  0  0  0  0  0  0  0  0  0  0  0
    7.0051   -0.0049    0.3346 C   0  0  0  0  0  0  0  0  0  0  0  0
    6.7551    3.0898   -3.0409 H   0  0  0  0  0  0  0  0  0  0  0  0
    6.0460    3.6167   -1.5414 H   0  0  0  0  0  0  0  0  0  0  0  0
    7.2831    3.4104    0.5045 H   0  0  0  0  0  0  0  0  0  0  0  0
    8.6729    2.2995    0.5157 H   0  0  0  0  0  0  0  0  0  0  0  0
    5.4495    2.6466    1.8063 H   0  0  0  0  0  0  0  0  0  0  0  0
    4.0151    0.8013    2.6561 H   0  0  0  0  0  0  0  0  0  0  0  0
    4.4864   -1.5653    2.0296 H   0  0  0  0  0  0  0  0  0  0  0  0
    7.3353   -2.4477   -0.1982 H   0  0  0  0  0  0  0  0  0  0  0  0
    7.8296   -8.7306   -1.3221 H   0  0  0  0  0  0  0  0  0  0  0  0
    6.0189   -9.9611   -0.1327 H   0  0  0  0  0  0  0  0  0  0  0  0
    4.3463   -8.7672    1.2500 H   0  0  0  0  0  0  0  0  0  0  0  0
    4.4297   -6.2680    1.4929 H   0  0  0  0  0  0  0  0  0  0  0  0
    7.8449   -0.2260   -0.3306 H   0  0  0  0  0  0  0  0  0  0  0  0
  1  2  1  0
  1 24  1  0
  1 25  1  0
  2  3  2  0
  2  4  1  0
  4  5  1  0
  4 26  1  0
  4 27  1  0
  5  6  2  0
  5 23  1  0
  6  7  1  0
  6 28  1  0
  7  8  2  0
  7 29  1  0
  8  9  1  0
  8 30  1  0
  9 10  1  0
  9 23  2  0
 10 11  1  0
 10 31  1  0
 11 12  2  0
 11 13  1  0
 13 14  2  0
 13 22  1  0
 14 15  1  0
 15 16  1  0
 15 17  1  0
 17 18  1  0
 17 22  2  0
 18 19  2  0
 18 32  1  0
 19 20  1  0
 19 33  1  0
 20 21  2  0
 20 34  1  0
 21 22  1  0
 21 35  1  0
 23 36  1  0
M  END

