
     RDKit          3D

 47 52  0  0  0  0  0  0  0  0999 V2000
    2.2048    0.1742   -1.5368 C   0  0  0  0  0  0  0  0  0  0  0  0
    1.6646    0.6455   -0.2790 N   0  0  0  0  0  0  0  0  0  0  0  0
    0.2379    0.5859   -0.0385 C   0  0  0  0  0  0  0  0  0  0  0  0
    2.5079    1.1664    0.6843 C   0  0  0  0  0  0  0  0  0  0  0  0
    2.0103    1.6459    1.9233 C   0  0  0  0  0  0  0  0  0  0  0  0
    2.8664    2.1567    2.8947 C   0  0  0  0  0  0  0  0  0  0  0  0
    4.2476    2.2347    2.6752 C   0  0  0  0  0  0  0  0  0  0  0  0
    5.1214    2.7717    3.6847 N   0  0  0  0  0  0  0  0  0  0  0  0
    5.9342    1.9220    4.4402 C   0  0  0  0  0  0  0  0  0  0  0  0
    6.9449    0.6798    3.6816 S   0  0  0  0  0  0  0  0  0  0  0  0
    7.6348    0.2464    5.2375 C   0  0  0  0  0  0  0  0  0  0  0  0
    8.5663   -0.7667    5.4874 C   0  0  0  0  0  0  0  0  0  0  0  0
    9.0171   -0.9503    6.7946 C   0  0  0  0  0  0  0  0  0  0  0  0
    8.5385   -0.1375    7.8389 C   0  0  0  0  0  0  0  0  0  0  0  0
    7.6024    0.8629    7.5934 C   0  0  0  0  0  0  0  0  0  0  0  0
    7.1319    1.0672    6.2818 C   0  0  0  0  0  0  0  0  0  0  0  0
    6.1503    2.0005    5.7903 C   0  0  0  0  0  0  0  0  0  0  0  0
    5.2242    3.1211    6.8282 S   0  0  0  0  0  0  0  0  0  0  0  0
    4.9197    4.3258    5.5686 C   0  0  0  0  0  0  0  0  0  0  0  0
    4.6956    6.0208    5.9594 S   0  0  0  0  0  0  0  0  0  0  0  0
    4.4843    6.4040    4.2600 C   0  0  0  0  0  0  0  0  0  0  0  0
    4.2287    7.6721    3.7246 C   0  0  0  0  0  0  0  0  0  0  0  0
    4.1396    7.8042    2.3410 C   0  0  0  0  0  0  0  0  0  0  0  0
    4.3061    6.6842    1.5047 C   0  0  0  0  0  0  0  0  0  0  0  0
    4.5532    5.4227    2.0363 C   0  0  0  0  0  0  0  0  0  0  0  0
    4.6403    5.2588    3.4347 C   0  0  0  0  0  0  0  0  0  0  0  0
    4.8747    4.0625    4.2230 C   0  0  0  0  0  0  0  0  0  0  0  0
    4.7511    1.7822    1.4496 C   0  0  0  0  0  0  0  0  0  0  0  0
    3.9081    1.2488    0.4767 C   0  0  0  0  0  0  0  0  0  0  0  0
    1.3893   -0.2094   -2.1633 H   0  0  0  0  0  0  0  0  0  0  0  0
    2.9338   -0.6458   -1.3975 H   0  0  0  0  0  0  0  0  0  0  0  0
    2.7137    0.9768   -2.1033 H   0  0  0  0  0  0  0  0  0  0  0  0
   -0.2607    0.1437   -0.9106 H   0  0  0  0  0  0  0  0  0  0  0  0
   -0.2022    1.5872    0.1276 H   0  0  0  0  0  0  0  0  0  0  0  0
   -0.0125   -0.0358    0.8412 H   0  0  0  0  0  0  0  0  0  0  0  0
    0.9435    1.6121    2.1401 H   0  0  0  0  0  0  0  0  0  0  0  0
    2.4563    2.5062    3.8451 H   0  0  0  0  0  0  0  0  0  0  0  0
    8.9390   -1.3952    4.6751 H   0  0  0  0  0  0  0  0  0  0  0  0
    9.7509   -1.7317    7.0066 H   0  0  0  0  0  0  0  0  0  0  0  0
    8.9067   -0.2941    8.8558 H   0  0  0  0  0  0  0  0  0  0  0  0
    7.2343    1.4936    8.4064 H   0  0  0  0  0  0  0  0  0  0  0  0
    4.1104    8.5391    4.3787 H   0  0  0  0  0  0  0  0  0  0  0  0
    3.9436    8.7863    1.9037 H   0  0  0  0  0  0  0  0  0  0  0  0
    4.2397    6.8068    0.4209 H   0  0  0  0  0  0  0  0  0  0  0  0
    4.6753    4.5630    1.3777 H   0  0  0  0  0  0  0  0  0  0  0  0
    5.8219    1.8573    1.2464 H   0  0  0  0  0  0  0  0  0  0  0  0
    4.3496    0.9053   -0.4578 H   0  0  0  0  0  0  0  0  0  0  0  0
  1  2  1  0
  1 30  1  0
  1 31  1  0
  1 32  1  0
  2  3  1  0
  2  4  1  0
  3 33  1  0
  3 34  1  0
  3 35  1  0
  4  5  2  0
  4 29  1  0
  5  6  1  0
  5 36  1  0
  6  7  2  0
  6 37  1  0
  7  8  1  0
  7 28  1  0
  8  9  1  0
  8 27  1  0
  9 10  1  0
  9 17  2  0
 10 11  1  0
 11 12  2  0
 11 16  1  0
 12 13  1  0
 12 38  1  0
 13 14  2  0
 13 39  1  0
 14 15  1  0
 14 40  1  0
 15 16  2  0
 15 41  1  0
 16 17  1  0
 17 18  1  0
 18 19  1  0
 19 20  1  0
 19 27  2  0
 20 21  1  0
 21 22  2  0
 21 26  1  0
 22 23  1  0
 22 42  1  0
 23 24  2  0
 23 43  1  0
 24 25  1  0
 24 44  1  0
 25 26  2  0
 25 45  1  0
 26 27  1  0
 28 29  2  0
 28 46  1  0
 29 47  1  0
M  END

