
     RDKit          3D

 34 36  0  0  0  0  0  0  0  0999 V2000
    1.3412    0.3202    1.4497 C   0  0  0  0  0  0  0  0  0  0  0  0
    2.0716   -0.0354    0.1543 C   0  0  0  0  0  0  0  0  0  0  0  0
    2.7285   -1.3316    0.1921 N   0  0  0  0  0  0  0  0  0  0  0  0
    4.0878   -1.4761    0.4514 C   0  0  0  0  0  0  0  0  0  0  0  0
    4.9039   -0.5964    0.6536 O   0  0  0  0  0  0  0  0  0  0  0  0
    4.3390   -2.8528    0.4201 N   0  0  0  0  0  0  0  0  0  0  0  0
    5.6763   -3.3817    0.6014 C   0  0  0  0  0  0  0  0  0  0  0  0
    5.9104   -4.0167    1.9361 C   0  0  0  0  0  0  0  0  0  0  0  0
    6.3886   -3.5405    3.1343 C   0  0  0  0  0  0  0  0  0  0  0  0
    6.3331   -4.6263    4.0567 C   0  0  0  0  0  0  0  0  0  0  0  0
    5.8216   -5.6743    3.3381 C   0  0  0  0  0  0  0  0  0  0  0  0
    5.5366   -7.0274    3.7256 N   0  0  0  0  0  0  0  0  0  0  0  0
    5.7905   -7.3152    4.8878 O   0  0  0  0  0  0  0  0  0  0  0  0
    5.0700   -7.7744    2.8811 O   0  0  0  0  0  0  0  0  0  0  0  0
    5.5653   -5.3249    2.0639 O   0  0  0  0  0  0  0  0  0  0  0  0
    3.1601   -3.5515    0.1617 C   0  0  0  0  0  0  0  0  0  0  0  0
    2.8892   -4.9118    0.0412 C   0  0  0  0  0  0  0  0  0  0  0  0
    1.5674   -5.2870   -0.2470 C   0  0  0  0  0  0  0  0  0  0  0  0
    0.5585   -4.3294   -0.4026 C   0  0  0  0  0  0  0  0  0  0  0  0
    0.8304   -2.9586   -0.2704 C   0  0  0  0  0  0  0  0  0  0  0  0
    2.1406   -2.5821    0.0141 C   0  0  0  0  0  0  0  0  0  0  0  0
    0.8595    1.3062    1.3545 H   0  0  0  0  0  0  0  0  0  0  0  0
    2.0462    0.3647    2.2940 H   0  0  0  0  0  0  0  0  0  0  0  0
    0.5605   -0.4179    1.6918 H   0  0  0  0  0  0  0  0  0  0  0  0
    2.8604    0.7026   -0.0525 H   0  0  0  0  0  0  0  0  0  0  0  0
    1.3771   -0.0274   -0.7023 H   0  0  0  0  0  0  0  0  0  0  0  0
    6.3587   -2.5273    0.4915 H   0  0  0  0  0  0  0  0  0  0  0  0
    5.8957   -4.1131   -0.1937 H   0  0  0  0  0  0  0  0  0  0  0  0
    6.7327   -2.5258    3.3231 H   0  0  0  0  0  0  0  0  0  0  0  0
    6.6242   -4.6536    5.1028 H   0  0  0  0  0  0  0  0  0  0  0  0
    3.6658   -5.6635    0.1895 H   0  0  0  0  0  0  0  0  0  0  0  0
    1.3256   -6.3478   -0.3435 H   0  0  0  0  0  0  0  0  0  0  0  0
   -0.4617   -4.6512   -0.6244 H   0  0  0  0  0  0  0  0  0  0  0  0
    0.0385   -2.2164   -0.3859 H   0  0  0  0  0  0  0  0  0  0  0  0
  1  2  1  0
  1 22  1  0
  1 23  1  0
  1 24  1  0
  2  3  1  0
  2 25  1  0
  2 26  1  0
  3  4  1  0
  3 21  1  0
  4  5  2  0
  4  6  1  0
  6  7  1  0
  6 16  1  0
  7  8  1  0
  7 27  1  0
  7 28  1  0
  8  9  2  0
  8 15  1  0
  9 10  1  0
  9 29  1  0
 10 11  2  0
 10 30  1  0
 11 12  1  0
 11 15  1  0
 12 13  2  0
 12 14  1  0
 16 17  1  0
 16 21  2  0
 17 18  2  0
 17 31  1  0
 18 19  1  0
 18 32  1  0
 19 20  2  0
 19 33  1  0
 20 21  1  0
 20 34  1  0
M  CHG  2  12   1  14  -1
M  END

