
     RDKit          3D

 42 45  0  0  0  0  0  0  0  0999 V2000
    1.4543   -0.3342   -0.6854 C   0  0  0  0  0  0  0  0  0  0  0  0
    2.8099   -0.2257   -0.2021 N   0  0  0  0  0  0  0  0  0  0  0  0
    3.4459   -1.3114    0.3806 C   0  0  0  0  0  0  0  0  0  0  0  0
    3.0477   -2.4588    0.4086 O   0  0  0  0  0  0  0  0  0  0  0  0
    4.6239   -0.8319    0.9358 N   0  0  0  0  0  0  0  0  0  0  0  0
    4.9194    0.4991    0.4470 C   0  0  0  0  0  0  0  0  0  0  0  0
    3.5045    1.0384    0.0814 C   0  0  1  0  0  0  0  0  0  0  0  0
    3.5244    1.9732   -1.1398 C   0  0  0  0  0  0  0  0  0  0  0  0
    4.1420    3.3416   -0.8251 C   0  0  0  0  0  0  0  0  0  0  0  0
    3.4491    3.9731    0.2944 N   0  0  0  0  0  0  0  0  0  0  0  0
    2.8377    5.2028    0.3335 C   0  0  0  0  0  0  0  0  0  0  0  0
    2.3531    5.6424    1.3736 O   0  0  0  0  0  0  0  0  0  0  0  0
    2.7273    6.0704   -0.8850 C   0  0  0  0  0  0  0  0  0  0  0  0
    3.0067    5.7269   -2.1369 N   0  0  0  0  0  0  0  0  0  0  0  0
    2.7352    6.7858   -2.9089 N   0  0  0  0  0  0  0  0  0  0  0  0
    2.8804    6.7202   -3.9087 H   0  0  0  0  0  0  0  0  0  0  0  0
    2.2678    7.8563   -2.1918 C   0  0  0  0  0  0  0  0  0  0  0  0
    1.8669    9.1459   -2.5816 C   0  0  0  0  0  0  0  0  0  0  0  0
    1.4340   10.0023   -1.5810 C   0  0  0  0  0  0  0  0  0  0  0  0
    1.4007    9.5811   -0.2275 C   0  0  0  0  0  0  0  0  0  0  0  0
    0.8367   10.7215    0.9765 Cl  0  0  0  0  0  0  0  0  0  0  0  0
    1.7928    8.3100    0.1649 C   0  0  0  0  0  0  0  0  0  0  0  0
    2.2402    7.4293   -0.8413 C   0  0  0  0  0  0  0  0  0  0  0  0
    3.4708    3.1718    1.5169 C   0  0  0  0  0  0  0  0  0  0  0  0
    2.8633    1.7842    1.2794 C   0  0  0  0  0  0  0  0  0  0  0  0
    1.1900   -1.4007   -0.6672 H   0  0  0  0  0  0  0  0  0  0  0  0
    1.3559    0.0334   -1.7206 H   0  0  0  0  0  0  0  0  0  0  0  0
    0.7308    0.2127   -0.0537 H   0  0  0  0  0  0  0  0  0  0  0  0
    5.3564   -1.5076    1.1170 H   0  0  0  0  0  0  0  0  0  0  0  0
    5.5682    0.4844   -0.4514 H   0  0  0  0  0  0  0  0  0  0  0  0
    5.4166    1.1158    1.2110 H   0  0  0  0  0  0  0  0  0  0  0  0
    2.4907    2.1391   -1.4851 H   0  0  0  0  0  0  0  0  0  0  0  0
    4.0711    1.4929   -1.9679 H   0  0  0  0  0  0  0  0  0  0  0  0
    4.0917    3.9867   -1.7050 H   0  0  0  0  0  0  0  0  0  0  0  0
    5.2097    3.2222   -0.5549 H   0  0  0  0  0  0  0  0  0  0  0  0
    1.8917    9.4683   -3.6246 H   0  0  0  0  0  0  0  0  0  0  0  0
    1.1106   11.0156   -1.8242 H   0  0  0  0  0  0  0  0  0  0  0  0
    1.7580    7.9852    1.2029 H   0  0  0  0  0  0  0  0  0  0  0  0
    2.9178    3.7188    2.2886 H   0  0  0  0  0  0  0  0  0  0  0  0
    4.5179    3.0804    1.8632 H   0  0  0  0  0  0  0  0  0  0  0  0
    1.7845    1.9029    1.0886 H   0  0  0  0  0  0  0  0  0  0  0  0
    2.9684    1.1707    2.1890 H   0  0  0  0  0  0  0  0  0  0  0  0
  1  2  1  0
  1 26  1  0
  1 27  1  0
  1 28  1  0
  2  3  1  0
  7  2  1  6
  3  4  2  0
  3  5  1  0
  5  6  1  0
  5 29  1  0
  6  7  1  0
  6 30  1  0
  6 31  1  0
  7  8  1  0
  7 25  1  0
  8  9  1  0
  8 32  1  0
  8 33  1  0
  9 10  1  0
  9 34  1  0
  9 35  1  0
 10 11  1  0
 10 24  1  0
 11 12  2  0
 11 13  1  0
 13 14  2  0
 13 23  1  0
 14 15  1  0
 15 16  1  0
 15 17  1  0
 17 18  1  0
 17 23  2  0
 18 19  2  0
 18 36  1  0
 19 20  1  0
 19 37  1  0
 20 21  1  0
 20 22  2  0
 22 23  1  0
 22 38  1  0
 24 25  1  0
 24 39  1  0
 24 40  1  0
 25 41  1  0
 25 42  1  0
M  END

