
     RDKit          3D

 50 52  0  0  0  0  0  0  0  0999 V2000
    3.0328   -1.5848   -0.0736 C   0  0  0  0  0  0  0  0  0  0  0  0
    2.6591   -0.1139    0.1596 C   0  0  1  0  0  0  0  0  0  0  0  0
    1.1833    0.1726   -0.0890 C   0  0  0  0  0  0  0  0  0  0  0  0
    0.1577   -0.6709    0.3718 C   0  0  0  0  0  0  0  0  0  0  0  0
   -1.1819   -0.3700    0.1357 C   0  0  0  0  0  0  0  0  0  0  0  0
   -1.5417    0.7772   -0.5865 C   0  0  0  0  0  0  0  0  0  0  0  0
   -3.0056    1.0409   -0.8051 C   0  0  0  0  0  0  0  0  0  0  0  0
   -3.8740    0.5029   -0.1706 O   0  0  0  0  0  0  0  0  0  0  0  0
   -3.3214    1.9280   -1.7777 O   0  0  0  0  0  0  0  0  0  0  0  0
   -0.5253    1.6332   -1.0376 C   0  0  0  0  0  0  0  0  0  0  0  0
    0.8143    1.3313   -0.7917 C   0  0  0  0  0  0  0  0  0  0  0  0
    3.1202    0.4661    1.5580 C   0  0  1  0  0  0  0  0  0  0  0  0
    2.5592   -0.3396    2.7234 C   0  0  0  0  0  0  0  0  0  0  0  0
    1.5463   -0.0491    3.3070 O   0  0  0  0  0  0  0  0  0  0  0  0
    4.6261    0.6597    1.6579 C   0  0  0  0  0  0  0  0  0  0  0  0
    5.5215   -0.3932    1.9153 C   0  0  0  0  0  0  0  0  0  0  0  0
    6.8969   -0.1510    1.9768 C   0  0  0  0  0  0  0  0  0  0  0  0
    7.4020    1.1341    1.7837 C   0  0  0  0  0  0  0  0  0  0  0  0
    6.5325    2.2108    1.5290 C   0  0  0  0  0  0  0  0  0  0  0  0
    7.0554    3.5886    1.3289 C   0  0  0  0  0  0  0  0  0  0  0  0
    8.2592    3.8167    0.6353 C   0  0  0  0  0  0  0  0  0  0  0  0
    8.7481    5.1064    0.4400 C   0  0  0  0  0  0  0  0  0  0  0  0
    8.0416    6.1982    0.9476 C   0  0  0  0  0  0  0  0  0  0  0  0
    8.6298    7.4410    0.7331 O   0  0  0  0  0  0  0  0  0  0  0  0
    7.8980    8.5719    0.6413 C   0  0  1  0  0  0  0  0  0  0  0  0
    6.8794    8.4522   -0.2197 F   0  0  0  0  0  0  0  0  0  0  0  0
    7.3764    8.9457    1.8239 F   0  0  0  0  0  0  0  0  0  0  0  0
    8.7015    9.5395    0.2232 F   0  0  0  0  0  0  0  0  0  0  0  0
    6.8500    6.0081    1.6516 C   0  0  0  0  0  0  0  0  0  0  0  0
    6.3684    4.7095    1.8277 C   0  0  0  0  0  0  0  0  0  0  0  0
    5.1528    1.9478    1.4748 C   0  0  0  0  0  0  0  0  0  0  0  0
    2.7038   -1.9035   -1.0745 H   0  0  0  0  0  0  0  0  0  0  0  0
    2.5662   -2.2649    0.6559 H   0  0  0  0  0  0  0  0  0  0  0  0
    4.1214   -1.7299   -0.0201 H   0  0  0  0  0  0  0  0  0  0  0  0
    3.2200    0.4853   -0.5760 H   0  0  0  0  0  0  0  0  0  0  0  0
    0.4005   -1.5764    0.9305 H   0  0  0  0  0  0  0  0  0  0  0  0
   -1.9772   -1.0195    0.5060 H   0  0  0  0  0  0  0  0  0  0  0  0
   -2.5341    2.1691   -2.2848 H   0  0  0  0  0  0  0  0  0  0  0  0
   -0.7625    2.5622   -1.5654 H   0  0  0  0  0  0  0  0  0  0  0  0
    1.5906    2.0121   -1.1526 H   0  0  0  0  0  0  0  0  0  0  0  0
    2.6426    1.4534    1.6414 H   0  0  0  0  0  0  0  0  0  0  0  0
    3.1448   -1.2461    3.0253 H   0  0  0  0  0  0  0  0  0  0  0  0
    5.1576   -1.4097    2.0742 H   0  0  0  0  0  0  0  0  0  0  0  0
    7.5817   -0.9761    2.1883 H   0  0  0  0  0  0  0  0  0  0  0  0
    8.4772    1.3101    1.8608 H   0  0  0  0  0  0  0  0  0  0  0  0
    8.8102    2.9732    0.2140 H   0  0  0  0  0  0  0  0  0  0  0  0
    9.6727    5.2854   -0.1117 H   0  0  0  0  0  0  0  0  0  0  0  0
    6.3074    6.8523    2.0754 H   0  0  0  0  0  0  0  0  0  0  0  0
    5.4479    4.5687    2.3983 H   0  0  0  0  0  0  0  0  0  0  0  0
    4.4644    2.7701    1.2628 H   0  0  0  0  0  0  0  0  0  0  0  0
  1  2  1  0
  1 32  1  0
  1 33  1  0
  1 34  1  0
  2  3  1  0
  2 12  1  0
  2 35  1  6
  3  4  2  0
  3 11  1  0
  4  5  1  0
  4 36  1  0
  5  6  2  0
  5 37  1  0
  6  7  1  0
  6 10  1  0
  7  8  2  0
  7  9  1  0
  9 38  1  0
 10 11  2  0
 10 39  1  0
 11 40  1  0
 12 13  1  0
 12 15  1  0
 12 41  1  1
 13 14  2  0
 13 42  1  0
 15 16  2  0
 15 31  1  0
 16 17  1  0
 16 43  1  0
 17 18  2  0
 17 44  1  0
 18 19  1  0
 18 45  1  0
 19 20  1  0
 19 31  2  0
 20 21  2  0
 20 30  1  0
 21 22  1  0
 21 46  1  0
 22 23  2  0
 22 47  1  0
 23 24  1  0
 23 29  1  0
 24 25  1  0
 25 26  1  6
 25 27  1  0
 25 28  1  0
 29 30  2  0
 29 48  1  0
 30 49  1  0
 31 50  1  0
M  END

