
     RDKit          3D

 37 38  0  0  0  0  0  0  0  0999 V2000
    1.8506   -1.1460   -0.7544 O   0  0  0  0  0  0  0  0  0  0  0  0
    2.8041   -0.5941   -0.2279 C   0  0  0  0  0  0  0  0  0  0  0  0
    3.7012    0.3511   -1.0380 C   0  0  0  0  0  0  0  0  0  0  0  0
    4.3011    1.5547   -0.2921 C   0  0  1  0  0  0  0  0  0  0  0  0
    5.2072    1.1275    0.7223 O   0  0  0  0  0  0  0  0  0  0  0  0
    4.9398    2.5921   -1.2174 C   0  0  0  0  0  0  0  0  0  0  0  0
    4.3137    3.0110   -2.4044 C   0  0  0  0  0  0  0  0  0  0  0  0
    4.9018    3.9865   -3.2132 C   0  0  0  0  0  0  0  0  0  0  0  0
    6.1240    4.5660   -2.8617 C   0  0  0  0  0  0  0  0  0  0  0  0
    6.7293    4.1497   -1.6801 C   0  0  0  0  0  0  0  0  0  0  0  0
    7.8986    4.6975   -1.3164 F   0  0  0  0  0  0  0  0  0  0  0  0
    6.1584    3.1833   -0.8549 C   0  0  0  0  0  0  0  0  0  0  0  0
    3.1570   -0.7772    1.0759 N   0  0  0  0  0  0  0  0  0  0  0  0
    2.4634   -1.6860    1.9566 C   0  0  0  0  0  0  0  0  0  0  0  0
    3.4343   -2.7114    2.5631 C   0  0  1  0  0  0  0  0  0  0  0  0
    4.5465   -2.0457    3.1611 O   0  0  0  0  0  0  0  0  0  0  0  0
    2.7688   -3.6823    3.5002 C   0  0  0  0  0  0  0  0  0  0  0  0
    2.9356   -5.0441    3.5663 C   0  0  0  0  0  0  0  0  0  0  0  0
    2.2084   -5.6685    4.6240 C   0  0  0  0  0  0  0  0  0  0  0  0
    1.4964   -4.7591    5.3627 C   0  0  0  0  0  0  0  0  0  0  0  0
    0.4833   -5.0799    6.7214 Cl  0  0  0  0  0  0  0  0  0  0  0  0
    1.6877   -3.1339    4.7686 S   0  0  0  0  0  0  0  0  0  0  0  0
    3.0786    0.6772   -1.8805 H   0  0  0  0  0  0  0  0  0  0  0  0
    4.5232   -0.2433   -1.4795 H   0  0  0  0  0  0  0  0  0  0  0  0
    3.4917    2.0577    0.2661 H   0  0  0  0  0  0  0  0  0  0  0  0
    5.9529    0.6805    0.2938 H   0  0  0  0  0  0  0  0  0  0  0  0
    3.3561    2.5824   -2.7049 H   0  0  0  0  0  0  0  0  0  0  0  0
    4.4019    4.3000   -4.1329 H   0  0  0  0  0  0  0  0  0  0  0  0
    6.6055    5.3270   -3.4785 H   0  0  0  0  0  0  0  0  0  0  0  0
    6.6610    2.9124    0.0737 H   0  0  0  0  0  0  0  0  0  0  0  0
    3.9956   -0.3138    1.4223 H   0  0  0  0  0  0  0  0  0  0  0  0
    1.6752   -2.1860    1.3763 H   0  0  0  0  0  0  0  0  0  0  0  0
    1.9684   -1.1281    2.7764 H   0  0  0  0  0  0  0  0  0  0  0  0
    3.8660   -3.3004    1.7378 H   0  0  0  0  0  0  0  0  0  0  0  0
    4.2754   -1.7289    4.0344 H   0  0  0  0  0  0  0  0  0  0  0  0
    3.5748   -5.5905    2.8703 H   0  0  0  0  0  0  0  0  0  0  0  0
    2.2078   -6.7379    4.8345 H   0  0  0  0  0  0  0  0  0  0  0  0
  1  2  2  0
  2  3  1  0
  2 13  1  0
  3  4  1  0
  3 23  1  0
  3 24  1  0
  4  5  1  0
  4  6  1  0
  4 25  1  1
  5 26  1  0
  6  7  2  0
  6 12  1  0
  7  8  1  0
  7 27  1  0
  8  9  2  0
  8 28  1  0
  9 10  1  0
  9 29  1  0
 10 11  1  0
 10 12  2  0
 12 30  1  0
 13 14  1  0
 13 31  1  0
 14 15  1  0
 14 32  1  0
 14 33  1  0
 15 16  1  0
 15 17  1  0
 15 34  1  6
 16 35  1  0
 17 18  2  0
 17 22  1  0
 18 19  1  0
 18 36  1  0
 19 20  2  0
 19 37  1  0
 20 21  1  0
 20 22  1  0
M  END

