
     RDKit          3D

 44 45  0  0  0  0  0  0  0  0999 V2000
    1.0839   -2.0248    1.0109 C   0  0  0  0  0  0  0  0  0  0  0  0
    2.5695   -2.3711    1.1822 C   0  0  1  0  0  0  0  0  0  0  0  0
    3.2415   -2.5212   -0.1892 C   0  0  0  0  0  0  0  0  0  0  0  0
    3.3135   -1.3395    2.0672 C   0  0  1  0  0  0  0  0  0  0  0  0
    2.6585   -1.0988    3.4353 C   0  0  0  0  0  0  0  0  0  0  0  0
    4.7069   -1.7415    2.2431 N   0  0  0  0  0  0  0  0  0  0  0  0
    5.7452   -0.8663    2.1749 C   0  0  0  0  0  0  0  0  0  0  0  0
    5.6365    0.3172    1.8947 O   0  0  0  0  0  0  0  0  0  0  0  0
    7.1253   -1.4874    2.4752 C   0  0  0  0  0  0  0  0  0  0  0  0
    7.3285   -1.8076    3.8970 N   0  0  0  0  0  0  0  0  0  0  0  0
    6.8657   -3.0296    4.3416 C   0  0  0  0  0  0  0  0  0  0  0  0
    6.2621   -3.7929    3.5966 O   0  0  0  0  0  0  0  0  0  0  0  0
    7.1687   -3.3932    5.7931 C   0  0  0  0  0  0  0  0  0  0  0  0
    6.2830   -2.6906    6.7209 N   0  0  0  0  0  0  0  0  0  0  0  0
    6.1203   -1.2603    6.4408 C   0  0  0  0  0  0  0  0  0  0  0  0
    7.3904   -0.5533    6.0146 C   0  0  0  0  0  0  0  0  0  0  0  0
    8.0379    0.3732    6.8427 C   0  0  0  0  0  0  0  0  0  0  0  0
    9.2140    1.0098    6.4422 C   0  0  0  0  0  0  0  0  0  0  0  0
    9.7702    0.7062    5.1965 C   0  0  0  0  0  0  0  0  0  0  0  0
    9.1521   -0.2265    4.3637 C   0  0  0  0  0  0  0  0  0  0  0  0
    7.9629   -0.8576    4.7602 C   0  0  0  0  0  0  0  0  0  0  0  0
    0.5978   -2.7402    0.3286 H   0  0  0  0  0  0  0  0  0  0  0  0
    0.9607   -1.0178    0.5759 H   0  0  0  0  0  0  0  0  0  0  0  0
    0.5307   -2.0515    1.9612 H   0  0  0  0  0  0  0  0  0  0  0  0
    2.6289   -3.3481    1.7019 H   0  0  0  0  0  0  0  0  0  0  0  0
    3.1890   -1.5763   -0.7564 H   0  0  0  0  0  0  0  0  0  0  0  0
    2.7415   -3.2991   -0.7880 H   0  0  0  0  0  0  0  0  0  0  0  0
    4.3023   -2.7955   -0.0964 H   0  0  0  0  0  0  0  0  0  0  0  0
    3.3512   -0.3783    1.5293 H   0  0  0  0  0  0  0  0  0  0  0  0
    2.5857   -2.0363    4.0127 H   0  0  0  0  0  0  0  0  0  0  0  0
    1.6477   -0.6759    3.3390 H   0  0  0  0  0  0  0  0  0  0  0  0
    3.2627   -0.3842    4.0146 H   0  0  0  0  0  0  0  0  0  0  0  0
    4.9208   -2.6918    2.5487 H   0  0  0  0  0  0  0  0  0  0  0  0
    7.8664   -0.7457    2.1636 H   0  0  0  0  0  0  0  0  0  0  0  0
    7.2589   -2.4127    1.8967 H   0  0  0  0  0  0  0  0  0  0  0  0
    8.2464   -3.1979    5.9772 H   0  0  0  0  0  0  0  0  0  0  0  0
    6.9983   -4.4758    5.8757 H   0  0  0  0  0  0  0  0  0  0  0  0
    6.6239   -2.8279    7.6706 H   0  0  0  0  0  0  0  0  0  0  0  0
    5.7007   -0.7803    7.3367 H   0  0  0  0  0  0  0  0  0  0  0  0
    5.3651   -1.1467    5.6431 H   0  0  0  0  0  0  0  0  0  0  0  0
    7.5959    0.6104    7.8150 H   0  0  0  0  0  0  0  0  0  0  0  0
    9.6937    1.7405    7.0977 H   0  0  0  0  0  0  0  0  0  0  0  0
   10.6941    1.1906    4.8716 H   0  0  0  0  0  0  0  0  0  0  0  0
    9.6020   -0.4719    3.3999 H   0  0  0  0  0  0  0  0  0  0  0  0
  1  2  1  0
  1 22  1  0
  1 23  1  0
  1 24  1  0
  2  3  1  0
  2  4  1  0
  2 25  1  1
  3 26  1  0
  3 27  1  0
  3 28  1  0
  4  5  1  0
  4  6  1  0
  4 29  1  6
  5 30  1  0
  5 31  1  0
  5 32  1  0
  6  7  1  0
  6 33  1  0
  7  8  2  0
  7  9  1  0
  9 10  1  0
  9 34  1  0
  9 35  1  0
 10 11  1  0
 10 21  1  0
 11 12  2  0
 11 13  1  0
 13 14  1  0
 13 36  1  0
 13 37  1  0
 14 15  1  0
 14 38  1  0
 15 16  1  0
 15 39  1  0
 15 40  1  0
 16 17  2  0
 16 21  1  0
 17 18  1  0
 17 41  1  0
 18 19  2  0
 18 42  1  0
 19 20  1  0
 19 43  1  0
 20 21  2  0
 20 44  1  0
M  END

