
     RDKit          3D

 38 38  0  0  0  0  0  0  0  0999 V2000
    3.1252   -0.2200    1.4007 C   0  0  0  0  0  0  0  0  0  0  0  0
    4.5604    0.3120    1.3789 C   0  0  0  0  0  0  0  0  0  0  0  0
    4.8484    1.4710    0.3938 C   0  0  2  0  0  0  0  0  0  0  0  0
    4.0431    2.7268    0.7601 C   0  0  0  0  0  0  0  0  0  0  0  0
    4.6475    1.0576   -1.0962 C   0  0  2  0  0  0  0  0  0  0  0  0
    3.5888    0.7859   -1.2460 H   0  0  0  0  0  0  0  0  0  0  0  0
    5.5500   -0.0538   -1.4230 N   0  0  0  0  0  0  0  0  0  0  0  0
    5.2178   -1.0949   -2.7229 S   0  0  1  0  0  0  0  0  0  0  0  0
    5.0056   -0.2280   -3.8794 O   0  0  0  0  0  0  0  0  0  0  0  0
    6.2736   -2.1024   -2.6585 O   0  0  0  0  0  0  0  0  0  0  0  0
    3.6548   -1.9005   -2.3585 C   0  0  0  0  0  0  0  0  0  0  0  0
    2.4632   -1.3465   -2.8324 C   0  0  0  0  0  0  0  0  0  0  0  0
    1.2560   -1.9832   -2.5270 C   0  0  0  0  0  0  0  0  0  0  0  0
    1.2142   -3.1613   -1.7682 C   0  0  0  0  0  0  0  0  0  0  0  0
   -0.0674   -3.8733   -1.4324 C   0  0  0  0  0  0  0  0  0  0  0  0
    2.4427   -3.6817   -1.3292 C   0  0  0  0  0  0  0  0  0  0  0  0
    2.4302   -4.8174   -0.6154 F   0  0  0  0  0  0  0  0  0  0  0  0
    3.6636   -3.0820   -1.6089 C   0  0  0  0  0  0  0  0  0  0  0  0
    4.9155    2.2544   -2.0326 C   0  0  0  0  0  0  0  0  0  0  0  0
    4.0730    3.0762   -2.2759 O   0  0  0  0  0  0  0  0  0  0  0  0
    6.1731    2.3507   -2.4743 O   0  0  0  0  0  0  0  0  0  0  0  0
    3.0216   -1.0148    2.1559 H   0  0  0  0  0  0  0  0  0  0  0  0
    2.8248   -0.6513    0.4325 H   0  0  0  0  0  0  0  0  0  0  0  0
    2.3999    0.5686    1.6536 H   0  0  0  0  0  0  0  0  0  0  0  0
    5.2532   -0.5297    1.1963 H   0  0  0  0  0  0  0  0  0  0  0  0
    4.8288    0.6744    2.3859 H   0  0  0  0  0  0  0  0  0  0  0  0
    5.9204    1.7205    0.4991 H   0  0  0  0  0  0  0  0  0  0  0  0
    2.9697    2.6018    0.5516 H   0  0  0  0  0  0  0  0  0  0  0  0
    4.3759    3.6092    0.1985 H   0  0  0  0  0  0  0  0  0  0  0  0
    4.1602    2.9415    1.8339 H   0  0  0  0  0  0  0  0  0  0  0  0
    5.9016   -0.5907   -0.6319 H   0  0  0  0  0  0  0  0  0  0  0  0
    2.4865   -0.4453   -3.4467 H   0  0  0  0  0  0  0  0  0  0  0  0
    0.3186   -1.5588   -2.8954 H   0  0  0  0  0  0  0  0  0  0  0  0
   -0.9364   -3.3385   -1.8399 H   0  0  0  0  0  0  0  0  0  0  0  0
   -0.1958   -3.9668   -0.3418 H   0  0  0  0  0  0  0  0  0  0  0  0
   -0.0684   -4.8981   -1.8382 H   0  0  0  0  0  0  0  0  0  0  0  0
    4.5946   -3.5397   -1.2716 H   0  0  0  0  0  0  0  0  0  0  0  0
    6.6175    1.5044   -2.2772 H   0  0  0  0  0  0  0  0  0  0  0  0
  1  2  1  0
  1 22  1  0
  1 23  1  0
  1 24  1  0
  2  3  1  0
  2 25  1  0
  2 26  1  0
  3  4  1  0
  3  5  1  0
  3 27  1  6
  4 28  1  0
  4 29  1  0
  4 30  1  0
  5  6  1  1
  5  7  1  0
  5 19  1  0
  8  7  1  1
  7 31  1  0
  8  9  2  0
  8 10  2  0
  8 11  1  0
 11 12  2  0
 11 18  1  0
 12 13  1  0
 12 32  1  0
 13 14  2  0
 13 33  1  0
 14 15  1  0
 14 16  1  0
 15 34  1  0
 15 35  1  0
 15 36  1  0
 16 17  1  0
 16 18  2  0
 18 37  1  0
 19 20  2  0
 19 21  1  0
 21 38  1  0
M  END

