
     RDKit          3D

 64 66  0  0  0  0  0  0  0  0999 V2000
    1.2001   -1.0630   -0.0499 C   0  0  0  0  0  0  0  0  0  0  0  0
    2.6476   -0.6764   -0.2528 C   0  0  0  0  0  0  0  0  0  0  0  0
    3.0967    0.6491   -0.0770 C   0  0  0  0  0  0  0  0  0  0  0  0
    2.0059    1.6692    0.1786 C   0  0  0  0  0  0  0  0  0  0  0  0
    4.4766    0.9916   -0.1998 C   0  0  0  0  0  0  0  0  0  0  0  0
    4.9924    2.3938    0.3291 C   0  0  2  0  0  0  0  0  0  0  0  0
    4.1970    2.8482    1.6306 C   0  0  0  0  0  0  0  0  0  0  0  0
    4.3007    2.0072    2.7845 C   0  0  0  0  0  0  0  0  0  0  0  0
    4.8446    0.5868    2.7736 C   0  0  0  0  0  0  0  0  0  0  0  0
    3.8563    2.4369    4.0563 C   0  0  0  0  0  0  0  0  0  0  0  0
    3.9532    1.5253    5.2618 C   0  0  0  0  0  0  0  0  0  0  0  0
    3.3339    3.7302    4.2044 C   0  0  0  0  0  0  0  0  0  0  0  0
    2.9790    4.2367    5.4238 O   0  0  0  0  0  0  0  0  0  0  0  0
    3.1046    4.5337    3.0824 C   0  0  0  0  0  0  0  0  0  0  0  0
    2.4192    5.8673    3.2782 C   0  0  0  0  0  0  0  0  0  0  0  0
    3.4860    4.0759    1.7976 C   0  0  0  0  0  0  0  0  0  0  0  0
    2.9540    4.9606    0.6830 C   0  0  0  0  0  0  0  0  0  0  0  0
    5.0255    3.3334   -0.9297 C   0  0  0  0  0  0  0  0  0  0  0  0
    5.7405    4.6923   -0.8121 C   0  0  0  0  0  0  0  0  0  0  0  0
    7.1409    4.5680   -0.2088 C   0  0  0  0  0  0  0  0  0  0  0  0
    7.0766    3.7678    1.0925 C   0  0  0  0  0  0  0  0  0  0  0  0
    6.4887    2.3727    0.8412 C   0  0  0  0  0  0  0  0  0  0  0  0
    5.3328    0.0083   -0.7843 C   0  0  0  0  0  0  0  0  0  0  0  0
    6.7087    0.2849   -1.3779 C   0  0  0  0  0  0  0  0  0  0  0  0
    4.8950   -1.3311   -0.9284 C   0  0  0  0  0  0  0  0  0  0  0  0
    5.8256   -2.4248   -1.4149 C   0  0  0  0  0  0  0  0  0  0  0  0
    3.5662   -1.6653   -0.6285 C   0  0  0  0  0  0  0  0  0  0  0  0
    3.0978   -2.9438   -0.7496 O   0  0  0  0  0  0  0  0  0  0  0  0
    0.7934   -0.6538    0.8881 H   0  0  0  0  0  0  0  0  0  0  0  0
    1.0895   -2.1533   -0.0246 H   0  0  0  0  0  0  0  0  0  0  0  0
    0.5577   -0.6853   -0.8653 H   0  0  0  0  0  0  0  0  0  0  0  0
    1.1280    1.4310   -0.4404 H   0  0  0  0  0  0  0  0  0  0  0  0
    2.3084    2.6828   -0.0821 H   0  0  0  0  0  0  0  0  0  0  0  0
    1.6669    1.6857    1.2271 H   0  0  0  0  0  0  0  0  0  0  0  0
    5.1994    0.2413    1.8042 H   0  0  0  0  0  0  0  0  0  0  0  0
    4.0526   -0.1173    3.0798 H   0  0  0  0  0  0  0  0  0  0  0  0
    5.6661    0.4653    3.4996 H   0  0  0  0  0  0  0  0  0  0  0  0
    3.5556    0.5223    5.0466 H   0  0  0  0  0  0  0  0  0  0  0  0
    3.3701    1.8902    6.1224 H   0  0  0  0  0  0  0  0  0  0  0  0
    4.9928    1.3830    5.6059 H   0  0  0  0  0  0  0  0  0  0  0  0
    3.2845    3.6408    6.1174 H   0  0  0  0  0  0  0  0  0  0  0  0
    2.3194    6.0994    4.3443 H   0  0  0  0  0  0  0  0  0  0  0  0
    1.4065    5.8771    2.8382 H   0  0  0  0  0  0  0  0  0  0  0  0
    2.9742    6.6906    2.8000 H   0  0  0  0  0  0  0  0  0  0  0  0
    1.8625    5.0609    0.8010 H   0  0  0  0  0  0  0  0  0  0  0  0
    3.1264    4.5872   -0.3231 H   0  0  0  0  0  0  0  0  0  0  0  0
    3.3558    5.9847    0.7346 H   0  0  0  0  0  0  0  0  0  0  0  0
    4.0226    3.4486   -1.3625 H   0  0  0  0  0  0  0  0  0  0  0  0
    5.5689    2.7586   -1.6953 H   0  0  0  0  0  0  0  0  0  0  0  0
    5.1634    5.3916   -0.1941 H   0  0  0  0  0  0  0  0  0  0  0  0
    5.7916    5.1466   -1.8173 H   0  0  0  0  0  0  0  0  0  0  0  0
    7.5730    5.5690   -0.0396 H   0  0  0  0  0  0  0  0  0  0  0  0
    7.8157    4.0540   -0.9188 H   0  0  0  0  0  0  0  0  0  0  0  0
    6.4779    4.3144    1.8410 H   0  0  0  0  0  0  0  0  0  0  0  0
    8.0860    3.6533    1.5236 H   0  0  0  0  0  0  0  0  0  0  0  0
    6.5813    1.7723    1.7506 H   0  0  0  0  0  0  0  0  0  0  0  0
    7.1375    1.8970    0.1043 H   0  0  0  0  0  0  0  0  0  0  0  0
    6.8512    1.3299   -1.6645 H   0  0  0  0  0  0  0  0  0  0  0  0
    6.8331   -0.2997   -2.3012 H   0  0  0  0  0  0  0  0  0  0  0  0
    7.5433    0.0056   -0.7122 H   0  0  0  0  0  0  0  0  0  0  0  0
    6.8696   -2.2442   -1.1276 H   0  0  0  0  0  0  0  0  0  0  0  0
    5.8091   -2.5500   -2.5134 H   0  0  0  0  0  0  0  0  0  0  0  0
    5.5721   -3.4034   -0.9710 H   0  0  0  0  0  0  0  0  0  0  0  0
    3.7964   -3.5097   -1.0981 H   0  0  0  0  0  0  0  0  0  0  0  0
  1  2  1  0
  1 29  1  0
  1 30  1  0
  1 31  1  0
  2  3  2  0
  2 27  1  0
  3  4  1  0
  3  5  1  0
  4 32  1  0
  4 33  1  0
  4 34  1  0
  6  5  1  6
  5 23  2  0
  6  7  1  0
  6 18  1  0
  6 22  1  0
  7  8  2  0
  7 16  1  0
  8  9  1  0
  8 10  1  0
  9 35  1  0
  9 36  1  0
  9 37  1  0
 10 11  1  0
 10 12  2  0
 11 38  1  0
 11 39  1  0
 11 40  1  0
 12 13  1  0
 12 14  1  0
 13 41  1  0
 14 15  1  0
 14 16  2  0
 15 42  1  0
 15 43  1  0
 15 44  1  0
 16 17  1  0
 17 45  1  0
 17 46  1  0
 17 47  1  0
 18 19  1  0
 18 48  1  0
 18 49  1  0
 19 20  1  0
 19 50  1  0
 19 51  1  0
 20 21  1  0
 20 52  1  0
 20 53  1  0
 21 22  1  0
 21 54  1  0
 21 55  1  0
 22 56  1  0
 22 57  1  0
 23 24  1  0
 23 25  1  0
 24 58  1  0
 24 59  1  0
 24 60  1  0
 25 26  1  0
 25 27  2  0
 26 61  1  0
 26 62  1  0
 26 63  1  0
 27 28  1  0
 28 64  1  0
M  END

