
     RDKit          3D

 42 46  0  0  0  0  0  0  0  0999 V2000
    3.9975    5.3983   -0.3232 C   0  0  0  0  0  0  0  0  0  0  0  0
    4.7955    4.1485   -0.5790 C   0  0  0  0  0  0  0  0  0  0  0  0
    6.0976    4.2079   -1.0235 C   0  0  0  0  0  0  0  0  0  0  0  0
    6.8878    3.0409   -1.2957 C   0  0  0  0  0  0  0  0  0  0  0  0
    6.3798    1.7802   -1.1315 C   0  0  0  0  0  0  0  0  0  0  0  0
    5.0325    1.6545   -0.6718 C   0  0  0  0  0  0  0  0  0  0  0  0
    4.2204    0.5705   -0.4126 C   0  0  0  0  0  0  0  0  0  0  0  0
    3.0146    1.0049    0.0058 O   0  0  0  0  0  0  0  0  0  0  0  0
    2.9925    2.3582    0.0452 C   0  0  0  0  0  0  0  0  0  0  0  0
    1.6918    3.0198    0.4666 C   0  0  2  0  0  0  0  0  0  0  0  0
    1.8723    3.8878    1.6557 N   0  0  0  0  0  0  0  0  0  0  0  0
    1.4963    3.3247    2.9564 C   0  0  0  0  0  0  0  0  0  0  0  0
    2.0205    1.9311    3.2167 C   0  0  0  0  0  0  0  0  0  0  0  0
    3.0087    1.6846    4.1781 C   0  0  0  0  0  0  0  0  0  0  0  0
    3.4043    0.3830    4.4965 C   0  0  0  0  0  0  0  0  0  0  0  0
    2.8114   -0.6993    3.8410 C   0  0  0  0  0  0  0  0  0  0  0  0
    1.8447   -0.4773    2.8591 C   0  0  0  0  0  0  0  0  0  0  0  0
    1.4506    0.8297    2.5461 C   0  0  0  0  0  0  0  0  0  0  0  0
    0.4729    1.0615    1.5444 N   0  0  0  0  0  0  0  0  0  0  0  0
   -0.6745    0.3154    1.3478 C   0  0  0  0  0  0  0  0  0  0  0  0
   -1.3479    0.8270    0.2600 C   0  0  0  0  0  0  0  0  0  0  0  0
   -0.5801    1.9229   -0.2326 C   0  0  0  0  0  0  0  0  0  0  0  0
    0.5393    2.0500    0.5680 C   0  0  0  0  0  0  0  0  0  0  0  0
    4.2303    2.8356   -0.3810 C   0  0  0  0  0  0  0  0  0  0  0  0
    4.6193    6.2978   -0.4424 H   0  0  0  0  0  0  0  0  0  0  0  0
    3.5698    5.3820    0.6908 H   0  0  0  0  0  0  0  0  0  0  0  0
    3.1512    5.4836   -1.0279 H   0  0  0  0  0  0  0  0  0  0  0  0
    6.5543    5.1892   -1.1808 H   0  0  0  0  0  0  0  0  0  0  0  0
    7.9151    3.1754   -1.6450 H   0  0  0  0  0  0  0  0  0  0  0  0
    6.9796    0.8917   -1.3429 H   0  0  0  0  0  0  0  0  0  0  0  0
    4.3545   -0.5054   -0.4752 H   0  0  0  0  0  0  0  0  0  0  0  0
    1.4187    3.7028   -0.3527 H   0  0  0  0  0  0  0  0  0  0  0  0
    1.3336    4.7403    1.5158 H   0  0  0  0  0  0  0  0  0  0  0  0
    0.3936    3.2833    3.0826 H   0  0  0  0  0  0  0  0  0  0  0  0
    1.8803    4.0003    3.7369 H   0  0  0  0  0  0  0  0  0  0  0  0
    3.4608    2.5329    4.6989 H   0  0  0  0  0  0  0  0  0  0  0  0
    4.1722    0.2150    5.2553 H   0  0  0  0  0  0  0  0  0  0  0  0
    3.1144   -1.7218    4.0800 H   0  0  0  0  0  0  0  0  0  0  0  0
    1.4067   -1.3142    2.3125 H   0  0  0  0  0  0  0  0  0  0  0  0
   -0.9333   -0.4904    2.0303 H   0  0  0  0  0  0  0  0  0  0  0  0
   -2.2969    0.4637   -0.1299 H   0  0  0  0  0  0  0  0  0  0  0  0
   -0.8101    2.5492   -1.0932 H   0  0  0  0  0  0  0  0  0  0  0  0
  1  2  1  0
  1 25  1  0
  1 26  1  0
  1 27  1  0
  2  3  2  0
  2 24  1  0
  3  4  1  0
  3 28  1  0
  4  5  2  0
  4 29  1  0
  5  6  1  0
  5 30  1  0
  6  7  2  0
  6 24  1  0
  7  8  1  0
  7 31  1  0
  8  9  1  0
  9 10  1  0
  9 24  2  0
 10 11  1  0
 10 23  1  0
 10 32  1  6
 11 12  1  0
 11 33  1  0
 12 13  1  0
 12 34  1  0
 12 35  1  0
 13 14  1  0
 13 18  2  0
 14 15  2  0
 14 36  1  0
 15 16  1  0
 15 37  1  0
 16 17  2  0
 16 38  1  0
 17 18  1  0
 17 39  1  0
 18 19  1  0
 19 20  1  0
 19 23  1  0
 20 21  2  0
 20 40  1  0
 21 22  1  0
 21 41  1  0
 22 23  2  0
 22 42  1  0
M  END

