
     RDKit          3D

 29 29  0  0  0  0  0  0  0  0999 V2000
    4.8841    2.6587    0.5260 F   0  0  0  0  0  0  0  0  0  0  0  0
    4.3271    1.4471    0.5846 C   0  0  0  0  0  0  0  0  0  0  0  0
    3.0834    1.3042    1.1934 C   0  0  0  0  0  0  0  0  0  0  0  0
    2.5087    0.0346    1.2572 C   0  0  0  0  0  0  0  0  0  0  0  0
    3.1730   -1.0672    0.7146 C   0  0  0  0  0  0  0  0  0  0  0  0
    4.4221   -0.9349    0.0911 C   0  0  0  0  0  0  0  0  0  0  0  0
    5.1506   -2.1493   -0.4723 C   0  0  0  0  0  0  0  0  0  0  0  0
    4.2950   -3.3133   -0.6708 N   0  0  0  0  0  0  0  0  0  0  0  0
    3.5158   -3.2526   -1.9094 C   0  0  0  0  0  0  0  0  0  0  0  0
    2.3372   -4.2189   -1.9114 C   0  0  0  0  0  0  0  0  0  0  0  0
    1.2140   -3.9367   -3.4980 Br  0  0  0  0  0  0  0  0  0  0  0  0
    4.8349   -4.5861   -0.2579 C   0  0  0  0  0  0  0  0  0  0  0  0
    5.8926   -5.2244   -1.1602 C   0  0  1  0  0  0  0  0  0  0  0  0
    6.9229   -4.3943   -1.3989 F   0  0  0  0  0  0  0  0  0  0  0  0
    6.3854   -6.3347   -0.5861 F   0  0  0  0  0  0  0  0  0  0  0  0
    5.3835   -5.5833   -2.3563 F   0  0  0  0  0  0  0  0  0  0  0  0
    4.9986    0.3471    0.0377 C   0  0  0  0  0  0  0  0  0  0  0  0
    6.7083    0.6511   -0.7474 Br  0  0  0  0  0  0  0  0  0  0  0  0
    2.5943    2.1891    1.6050 H   0  0  0  0  0  0  0  0  0  0  0  0
    1.5351   -0.0957    1.7354 H   0  0  0  0  0  0  0  0  0  0  0  0
    2.7335   -2.0646    0.7640 H   0  0  0  0  0  0  0  0  0  0  0  0
    5.9608   -2.4176    0.2256 H   0  0  0  0  0  0  0  0  0  0  0  0
    5.6692   -1.8562   -1.4042 H   0  0  0  0  0  0  0  0  0  0  0  0
    4.1331   -3.4275   -2.8129 H   0  0  0  0  0  0  0  0  0  0  0  0
    3.1209   -2.2288   -1.9912 H   0  0  0  0  0  0  0  0  0  0  0  0
    1.6888   -4.0702   -1.0381 H   0  0  0  0  0  0  0  0  0  0  0  0
    2.6500   -5.2684   -1.9644 H   0  0  0  0  0  0  0  0  0  0  0  0
    4.0359   -5.3370   -0.1474 H   0  0  0  0  0  0  0  0  0  0  0  0
    5.2986   -4.4799    0.7350 H   0  0  0  0  0  0  0  0  0  0  0  0
  1  2  1  0
  2  3  2  0
  2 17  1  0
  3  4  1  0
  3 19  1  0
  4  5  2  0
  4 20  1  0
  5  6  1  0
  5 21  1  0
  6  7  1  0
  6 17  2  0
  7  8  1  0
  7 22  1  0
  7 23  1  0
  8  9  1  0
  8 12  1  0
  9 10  1  0
  9 24  1  0
  9 25  1  0
 10 11  1  0
 10 26  1  0
 10 27  1  0
 12 13  1  0
 12 28  1  0
 12 29  1  0
 13 14  1  6
 13 15  1  0
 13 16  1  0
 17 18  1  0
M  END

