
     RDKit          3D

 50 53  0  0  0  0  0  0  0  0999 V2000
    0.9850    3.3275    1.6533 C   0  0  0  0  0  0  0  0  0  0  0  0
    2.4924    3.3886    1.9357 C   0  0  1  0  0  0  0  0  0  0  0  0
    2.8228    3.9854    3.3191 C   0  0  0  0  0  0  0  0  0  0  0  0
    2.4797    3.0392    4.4793 C   0  0  0  0  0  0  0  0  0  0  0  0
    3.1616    1.6753    4.3067 C   0  0  0  0  0  0  0  0  0  0  0  0
    2.8483    1.0550    2.9364 C   0  0  0  0  0  0  0  0  0  0  0  0
    3.1680    1.9992    1.7648 C   0  0  2  0  0  0  0  0  0  0  0  0
    4.6162    2.1209    1.5934 N   0  0  0  0  0  0  0  0  0  0  0  0
    5.1731    2.3617    0.3795 C   0  0  0  0  0  0  0  0  0  0  0  0
    4.5389    2.4972   -0.6543 O   0  0  0  0  0  0  0  0  0  0  0  0
    6.6919    2.4979    0.3373 C   0  0  0  0  0  0  0  0  0  0  0  0
    7.2875    2.1051    1.5772 O   0  0  0  0  0  0  0  0  0  0  0  0
    8.6105    2.3011    1.7357 C   0  0  0  0  0  0  0  0  0  0  0  0
    9.2967    2.8988    0.7778 N   0  0  0  0  0  0  0  0  0  0  0  0
   10.6133    3.0933    0.9638 C   0  0  0  0  0  0  0  0  0  0  0  0
   11.3196    2.7415    2.0278 N   0  0  0  0  0  0  0  0  0  0  0  0
   10.6165    2.1319    2.9838 C   0  0  0  0  0  0  0  0  0  0  0  0
   11.3133    1.5599    4.4840 S   0  0  0  0  0  0  0  0  0  0  0  0
    9.7500    0.9563    5.0152 C   0  0  0  0  0  0  0  0  0  0  0  0
    8.7455    1.1699    4.1059 C   0  0  0  0  0  0  0  0  0  0  0  0
    9.2294    1.8563    2.9310 C   0  0  0  0  0  0  0  0  0  0  0  0
    7.3271    0.7212    4.3662 C   0  0  0  0  0  0  0  0  0  0  0  0
    7.2492   -0.2832    5.5253 C   0  0  0  0  0  0  0  0  0  0  0  0
    8.1000    0.1646    6.7191 C   0  0  0  0  0  0  0  0  0  0  0  0
    9.5860    0.2624    6.3391 C   0  0  0  0  0  0  0  0  0  0  0  0
    0.5398    4.3340    1.7077 H   0  0  0  0  0  0  0  0  0  0  0  0
    0.4387    2.6903    2.3669 H   0  0  0  0  0  0  0  0  0  0  0  0
    0.7918    2.9335    0.6426 H   0  0  0  0  0  0  0  0  0  0  0  0
    2.9338    4.0397    1.1635 H   0  0  0  0  0  0  0  0  0  0  0  0
    2.3021    4.9500    3.4434 H   0  0  0  0  0  0  0  0  0  0  0  0
    3.9029    4.2160    3.3558 H   0  0  0  0  0  0  0  0  0  0  0  0
    1.3864    2.8942    4.5363 H   0  0  0  0  0  0  0  0  0  0  0  0
    2.7759    3.4947    5.4391 H   0  0  0  0  0  0  0  0  0  0  0  0
    2.8557    0.9834    5.1092 H   0  0  0  0  0  0  0  0  0  0  0  0
    4.2549    1.8002    4.4232 H   0  0  0  0  0  0  0  0  0  0  0  0
    1.7757    0.8033    2.8935 H   0  0  0  0  0  0  0  0  0  0  0  0
    3.3928    0.1056    2.8000 H   0  0  0  0  0  0  0  0  0  0  0  0
    2.7969    1.5608    0.8259 H   0  0  0  0  0  0  0  0  0  0  0  0
    5.2374    2.0373    2.3893 H   0  0  0  0  0  0  0  0  0  0  0  0
    6.9480    3.5421    0.1002 H   0  0  0  0  0  0  0  0  0  0  0  0
    7.0737    1.8805   -0.4902 H   0  0  0  0  0  0  0  0  0  0  0  0
   11.1498    3.5932    0.1493 H   0  0  0  0  0  0  0  0  0  0  0  0
    6.8977    0.2885    3.4492 H   0  0  0  0  0  0  0  0  0  0  0  0
    6.7063    1.6075    4.5990 H   0  0  0  0  0  0  0  0  0  0  0  0
    7.6043   -1.2700    5.1777 H   0  0  0  0  0  0  0  0  0  0  0  0
    6.1991   -0.4188    5.8303 H   0  0  0  0  0  0  0  0  0  0  0  0
    7.9793   -0.5311    7.5649 H   0  0  0  0  0  0  0  0  0  0  0  0
    7.7471    1.1510    7.0690 H   0  0  0  0  0  0  0  0  0  0  0  0
   10.0278   -0.7503    6.2805 H   0  0  0  0  0  0  0  0  0  0  0  0
   10.1520    0.7915    7.1244 H   0  0  0  0  0  0  0  0  0  0  0  0
  1  2  1  0
  1 26  1  0
  1 27  1  0
  1 28  1  0
  2  3  1  0
  2  7  1  0
  2 29  1  6
  3  4  1  0
  3 30  1  0
  3 31  1  0
  4  5  1  0
  4 32  1  0
  4 33  1  0
  5  6  1  0
  5 34  1  0
  5 35  1  0
  6  7  1  0
  6 36  1  0
  6 37  1  0
  7  8  1  0
  7 38  1  6
  8  9  1  0
  8 39  1  0
  9 10  2  0
  9 11  1  0
 11 12  1  0
 11 40  1  0
 11 41  1  0
 12 13  1  0
 13 14  2  0
 13 21  1  0
 14 15  1  0
 15 16  2  0
 15 42  1  0
 16 17  1  0
 17 18  1  0
 17 21  2  0
 18 19  1  0
 19 20  2  0
 19 25  1  0
 20 21  1  0
 20 22  1  0
 22 23  1  0
 22 43  1  0
 22 44  1  0
 23 24  1  0
 23 45  1  0
 23 46  1  0
 24 25  1  0
 24 47  1  0
 24 48  1  0
 25 49  1  0
 25 50  1  0
M  END

