
     RDKit          3D

 91 96  0  0  0  0  0  0  0  0999 V2000
   -0.7481   -1.8542   22.8793 C   0  0  0  0  0  0  0  0  0  0  0  0
    0.3786   -1.6035   22.2084 C   0  0  0  0  0  0  0  0  0  0  0  0
    0.6497   -0.4430   21.2827 C   0  0  0  0  0  0  0  0  0  0  0  0
    1.7060   -0.9555   20.2796 C   0  0  1  0  0  0  0  0  0  0  0  0
    1.2441   -1.2309   19.3153 H   0  0  0  0  0  0  0  0  0  0  0  0
    2.7847    0.0660   20.0154 C   0  0  0  0  0  0  0  0  0  0  0  0
    2.8861    1.2600   20.5710 N   0  0  0  0  0  0  0  0  0  0  0  0
    3.9937    1.8331   20.0130 C   0  0  0  0  0  0  0  0  0  0  0  0
    4.5890    0.9732   19.0954 C   0  0  0  0  0  0  0  0  0  0  0  0
    5.7863    1.1011   18.2665 C   0  0  0  0  0  0  0  0  0  0  0  0
    6.3602   -0.0065   17.6118 C   0  0  0  0  0  0  0  0  0  0  0  0
    7.5036    0.1300   16.8276 C   0  0  0  0  0  0  0  0  0  0  0  0
    8.1371    1.3761   16.6605 C   0  0  0  0  0  0  0  0  0  0  0  0
    9.3549    1.5201   15.8261 C   0  0  0  0  0  0  0  0  0  0  0  0
    9.5551    0.7337   14.6758 C   0  0  0  0  0  0  0  0  0  0  0  0
   10.6976    0.8695   13.8903 C   0  0  0  0  0  0  0  0  0  0  0  0
   11.7053    1.7978   14.2195 C   0  0  0  0  0  0  0  0  0  0  0  0
   12.9076    1.9538   13.4032 C   0  0  0  0  0  0  0  0  0  0  0  0
   13.9006    2.9277   13.3811 C   0  0  0  0  0  0  0  0  0  0  0  0
   14.8299    2.6572   12.4155 N   0  0  0  0  0  0  0  0  0  0  0  0
   14.4307    1.5356   11.8441 C   0  0  0  0  0  0  0  0  0  0  0  0
   15.1223    0.7955   10.7245 C   0  0  2  0  0  0  0  0  0  0  0  0
   15.3438   -0.2282   11.0706 H   0  0  0  0  0  0  0  0  0  0  0  0
   16.3840    1.5174   10.2222 C   0  0  0  0  0  0  0  0  0  0  0  0
   15.8664    2.3945    9.0734 C   0  0  0  0  0  0  0  0  0  0  0  0
   14.8106    1.5145    8.3942 C   0  0  0  0  0  0  0  0  0  0  0  0
   14.2922    0.7012    9.5014 N   0  0  0  0  0  0  0  0  0  0  0  0
   13.2458   -0.1586    9.4220 C   0  0  0  0  0  0  0  0  0  0  0  0
   12.8269   -0.8122   10.3751 O   0  0  0  0  0  0  0  0  0  0  0  0
   12.7412   -0.1978    8.1759 O   0  0  0  0  0  0  0  0  0  0  0  0
   11.5890   -1.0329    7.8160 C   0  0  1  0  0  0  0  0  0  0  0  0
   10.3557   -0.6054    8.6180 C   0  0  0  0  0  0  0  0  0  0  0  0
   11.4004   -0.7244    6.3295 C   0  0  0  0  0  0  0  0  0  0  0  0
   11.9310   -2.5115    8.0250 C   0  0  0  0  0  0  0  0  0  0  0  0
   13.2807    1.0724   12.4075 N   0  0  0  0  0  0  0  0  0  0  0  0
   12.8160    0.2277   12.0720 H   0  0  0  0  0  0  0  0  0  0  0  0
   11.5084    2.5844   15.3728 C   0  0  0  0  0  0  0  0  0  0  0  0
   10.3631    2.4507   16.1508 C   0  0  0  0  0  0  0  0  0  0  0  0
    7.5627    2.4817   17.3203 C   0  0  0  0  0  0  0  0  0  0  0  0
    6.4174    2.3505   18.0988 C   0  0  0  0  0  0  0  0  0  0  0  0
    3.7837   -0.1475   19.1152 N   0  0  0  0  0  0  0  0  0  0  0  0
    3.8915   -1.0399   18.6325 H   0  0  0  0  0  0  0  0  0  0  0  0
    2.2119   -2.2060   20.9010 N   0  0  0  0  0  0  0  0  0  0  0  0
    2.9431   -3.0938   20.1779 C   0  0  0  0  0  0  0  0  0  0  0  0
    3.3239   -2.8817   19.0292 O   0  0  0  0  0  0  0  0  0  0  0  0
    3.1856   -4.2182   20.8734 O   0  0  0  0  0  0  0  0  0  0  0  0
    3.9571   -5.3389   20.3201 C   0  0  1  0  0  0  0  0  0  0  0  0
    5.3857   -4.8870   20.0020 C   0  0  0  0  0  0  0  0  0  0  0  0
    3.9538   -6.3492   21.4690 C   0  0  0  0  0  0  0  0  0  0  0  0
    3.2427   -5.9106   19.0915 C   0  0  0  0  0  0  0  0  0  0  0  0
    1.6178   -2.4696   22.2149 C   0  0  0  0  0  0  0  0  0  0  0  0
   -1.6099   -1.1841   22.8141 H   0  0  0  0  0  0  0  0  0  0  0  0
   -0.8466   -2.7313   23.5254 H   0  0  0  0  0  0  0  0  0  0  0  0
    1.0833    0.4068   21.8353 H   0  0  0  0  0  0  0  0  0  0  0  0
   -0.2566   -0.0775   20.7803 H   0  0  0  0  0  0  0  0  0  0  0  0
    4.3255    2.8294   20.3015 H   0  0  0  0  0  0  0  0  0  0  0  0
    5.9244   -1.0014   17.7327 H   0  0  0  0  0  0  0  0  0  0  0  0
    7.9316   -0.7596   16.3600 H   0  0  0  0  0  0  0  0  0  0  0  0
    8.7860    0.0212   14.3690 H   0  0  0  0  0  0  0  0  0  0  0  0
   10.7904    0.2552   12.9912 H   0  0  0  0  0  0  0  0  0  0  0  0
   13.9735    3.8152   14.0080 H   0  0  0  0  0  0  0  0  0  0  0  0
   17.1048    0.7741    9.8455 H   0  0  0  0  0  0  0  0  0  0  0  0
   16.8565    2.0974   11.0244 H   0  0  0  0  0  0  0  0  0  0  0  0
   16.6577    2.7089    8.3770 H   0  0  0  0  0  0  0  0  0  0  0  0
   15.3976    3.3005    9.4881 H   0  0  0  0  0  0  0  0  0  0  0  0
   15.2537    0.8674    7.6156 H   0  0  0  0  0  0  0  0  0  0  0  0
   14.0020    2.0893    7.9193 H   0  0  0  0  0  0  0  0  0  0  0  0
   10.1715    0.4732    8.4937 H   0  0  0  0  0  0  0  0  0  0  0  0
   10.4823   -0.8233    9.6857 H   0  0  0  0  0  0  0  0  0  0  0  0
    9.4699   -1.1465    8.2506 H   0  0  0  0  0  0  0  0  0  0  0  0
   11.1936    0.3459    6.1782 H   0  0  0  0  0  0  0  0  0  0  0  0
   10.5566   -1.3034    5.9247 H   0  0  0  0  0  0  0  0  0  0  0  0
   12.3066   -0.9846    5.7619 H   0  0  0  0  0  0  0  0  0  0  0  0
   12.0944   -2.7321    9.0873 H   0  0  0  0  0  0  0  0  0  0  0  0
   12.8396   -2.7778    7.4625 H   0  0  0  0  0  0  0  0  0  0  0  0
   11.1053   -3.1391    7.6548 H   0  0  0  0  0  0  0  0  0  0  0  0
   12.2772    3.2985   15.6757 H   0  0  0  0  0  0  0  0  0  0  0  0
   10.2631    3.0604   17.0516 H   0  0  0  0  0  0  0  0  0  0  0  0
    8.0043    3.4728   17.1941 H   0  0  0  0  0  0  0  0  0  0  0  0
    5.9898    3.2379   18.5702 H   0  0  0  0  0  0  0  0  0  0  0  0
    5.8507   -4.4301   20.8895 H   0  0  0  0  0  0  0  0  0  0  0  0
    5.3979   -4.1597   19.1809 H   0  0  0  0  0  0  0  0  0  0  0  0
    5.9924   -5.7583   19.7100 H   0  0  0  0  0  0  0  0  0  0  0  0
    4.4243   -5.9183   22.3656 H   0  0  0  0  0  0  0  0  0  0  0  0
    4.5121   -7.2530   21.1819 H   0  0  0  0  0  0  0  0  0  0  0  0
    2.9245   -6.6428   21.7254 H   0  0  0  0  0  0  0  0  0  0  0  0
    3.2211   -5.1816   18.2718 H   0  0  0  0  0  0  0  0  0  0  0  0
    2.2084   -6.1912   19.3453 H   0  0  0  0  0  0  0  0  0  0  0  0
    3.7661   -6.8163   18.7473 H   0  0  0  0  0  0  0  0  0  0  0  0
    2.3106   -2.1725   23.0262 H   0  0  0  0  0  0  0  0  0  0  0  0
    1.3992   -3.5380   22.3400 H   0  0  0  0  0  0  0  0  0  0  0  0
  1  2  2  0
  1 52  1  0
  1 53  1  0
  2  3  1  0
  2 51  1  0
  3  4  1  0
  3 54  1  0
  3 55  1  0
  4  5  1  6
  4  6  1  0
  4 43  1  0
  6  7  2  0
  6 41  1  0
  7  8  1  0
  8  9  2  0
  8 56  1  0
  9 10  1  0
  9 41  1  0
 10 11  2  0
 10 40  1  0
 11 12  1  0
 11 57  1  0
 12 13  2  0
 12 58  1  0
 13 14  1  0
 13 39  1  0
 14 15  2  0
 14 38  1  0
 15 16  1  0
 15 59  1  0
 16 17  2  0
 16 60  1  0
 17 18  1  0
 17 37  1  0
 18 19  2  0
 18 35  1  0
 19 20  1  0
 19 61  1  0
 20 21  2  0
 21 22  1  0
 21 35  1  0
 22 23  1  1
 22 24  1  0
 22 27  1  0
 24 25  1  0
 24 62  1  0
 24 63  1  0
 25 26  1  0
 25 64  1  0
 25 65  1  0
 26 27  1  0
 26 66  1  0
 26 67  1  0
 27 28  1  0
 28 29  2  0
 28 30  1  0
 31 30  1  1
 31 32  1  0
 31 33  1  0
 31 34  1  0
 32 68  1  0
 32 69  1  0
 32 70  1  0
 33 71  1  0
 33 72  1  0
 33 73  1  0
 34 74  1  0
 34 75  1  0
 34 76  1  0
 35 36  1  0
 37 38  2  0
 37 77  1  0
 38 78  1  0
 39 40  2  0
 39 79  1  0
 40 80  1  0
 41 42  1  0
 43 44  1  0
 43 51  1  0
 44 45  2  0
 44 46  1  0
 47 46  1  1
 47 48  1  0
 47 49  1  0
 47 50  1  0
 48 81  1  0
 48 82  1  0
 48 83  1  0
 49 84  1  0
 49 85  1  0
 49 86  1  0
 50 87  1  0
 50 88  1  0
 50 89  1  0
 51 90  1  0
 51 91  1  0
M  END

