
     RDKit          3D

 42 44  0  0  0  0  0  0  0  0999 V2000
    3.2377   -0.8281    1.8605 C   0  0  0  0  0  0  0  0  0  0  0  0
    4.1191   -1.8878    2.1349 O   0  0  0  0  0  0  0  0  0  0  0  0
    4.4912   -2.6401    1.0095 C   0  0  0  0  0  0  0  0  0  0  0  0
    5.3795   -1.8922    0.0371 C   0  0  0  0  0  0  0  0  0  0  0  0
    5.0665   -1.8420   -1.2350 N   0  0  0  0  0  0  0  0  0  0  0  0
    6.2698   -0.9661   -2.0332 S   0  0  0  0  0  0  0  0  0  0  0  0
    7.1405   -0.7070   -0.5108 C   0  0  0  0  0  0  0  0  0  0  0  0
    8.3135   -0.0292   -0.3978 N   0  0  0  0  0  0  0  0  0  0  0  0
    8.9646    0.0992    0.9040 C   0  0  0  0  0  0  0  0  0  0  0  0
    9.0167    1.5584    1.3529 C   0  0  0  0  0  0  0  0  0  0  0  0
    9.8735    2.5904    0.1200 S   0  0  2  0  0  0  0  0  0  0  0  0
   11.2369    2.0408   -0.0142 O   0  0  0  0  0  0  0  0  0  0  0  0
    9.6804    4.0016    0.4940 O   0  0  0  0  0  0  0  0  0  0  0  0
    8.9719    2.1671   -1.4699 C   0  0  1  0  0  0  0  0  0  0  0  0
    7.5442    2.7512   -1.4842 C   0  0  0  0  0  0  0  0  0  0  0  0
    7.4662    4.2686   -1.7120 C   0  0  0  0  0  0  0  0  0  0  0  0
    8.2847    4.7038   -2.9324 C   0  0  0  0  0  0  0  0  0  0  0  0
    9.7381    4.2310   -2.8203 C   0  0  0  0  0  0  0  0  0  0  0  0
    9.8218    2.7096   -2.6376 C   0  0  0  0  0  0  0  0  0  0  0  0
    8.9729    0.6149   -1.5221 C   0  0  0  0  0  0  0  0  0  0  0  0
    6.5140   -1.2748    0.4904 N   0  0  0  0  0  0  0  0  0  0  0  0
    2.9801   -0.3572    2.8205 H   0  0  0  0  0  0  0  0  0  0  0  0
    2.3044   -1.1807    1.3770 H   0  0  0  0  0  0  0  0  0  0  0  0
    3.6907   -0.0592    1.2045 H   0  0  0  0  0  0  0  0  0  0  0  0
    3.6132   -3.0116    0.4479 H   0  0  0  0  0  0  0  0  0  0  0  0
    5.0502   -3.5082    1.3953 H   0  0  0  0  0  0  0  0  0  0  0  0
    9.9922   -0.2967    0.8377 H   0  0  0  0  0  0  0  0  0  0  0  0
    8.3983   -0.5013    1.6272 H   0  0  0  0  0  0  0  0  0  0  0  0
    9.6222    1.6924    2.2623 H   0  0  0  0  0  0  0  0  0  0  0  0
    8.0201    1.9916    1.5162 H   0  0  0  0  0  0  0  0  0  0  0  0
    6.9972    2.4699   -0.5700 H   0  0  0  0  0  0  0  0  0  0  0  0
    7.0152    2.2384   -2.3085 H   0  0  0  0  0  0  0  0  0  0  0  0
    7.8369    4.7909   -0.8178 H   0  0  0  0  0  0  0  0  0  0  0  0
    6.4077    4.5503   -1.8377 H   0  0  0  0  0  0  0  0  0  0  0  0
    8.2480    5.8001   -3.0403 H   0  0  0  0  0  0  0  0  0  0  0  0
    7.8328    4.2848   -3.8517 H   0  0  0  0  0  0  0  0  0  0  0  0
   10.2243    4.7311   -1.9674 H   0  0  0  0  0  0  0  0  0  0  0  0
   10.3078    4.5128   -3.7209 H   0  0  0  0  0  0  0  0  0  0  0  0
   10.8659    2.3855   -2.5073 H   0  0  0  0  0  0  0  0  0  0  0  0
    9.4470    2.2141   -3.5530 H   0  0  0  0  0  0  0  0  0  0  0  0
   10.0184    0.2673   -1.5739 H   0  0  0  0  0  0  0  0  0  0  0  0
    8.4840    0.3057   -2.4585 H   0  0  0  0  0  0  0  0  0  0  0  0
  1  2  1  0
  1 22  1  0
  1 23  1  0
  1 24  1  0
  2  3  1  0
  3  4  1  0
  3 25  1  0
  3 26  1  0
  4  5  2  0
  4 21  1  0
  5  6  1  0
  6  7  1  0
  7  8  1  0
  7 21  2  0
  8  9  1  0
  8 20  1  0
  9 10  1  0
  9 27  1  0
  9 28  1  0
 11 10  1  1
 10 29  1  0
 10 30  1  0
 11 12  2  0
 11 13  2  0
 11 14  1  0
 14 15  1  1
 14 19  1  0
 14 20  1  0
 15 16  1  0
 15 31  1  0
 15 32  1  0
 16 17  1  0
 16 33  1  0
 16 34  1  0
 17 18  1  0
 17 35  1  0
 17 36  1  0
 18 19  1  0
 18 37  1  0
 18 38  1  0
 19 39  1  0
 19 40  1  0
 20 41  1  0
 20 42  1  0
M  END

