
     RDKit          3D

 40 40  0  0  0  0  0  0  0  0999 V2000
    1.1528   -0.1081    0.5817 C   0  0  0  0  0  0  0  0  0  0  0  0
    2.5407    0.1360   -0.0163 C   0  0  0  0  0  0  0  0  0  0  0  0
    3.0301   -0.9991   -0.9235 C   0  0  1  0  0  0  0  0  0  0  0  0
    2.2965   -1.1111   -2.2571 C   0  0  0  0  0  0  0  0  0  0  0  0
    4.8631   -0.7043   -1.2132 S   0  0  0  0  0  0  0  0  0  0  0  0
    5.4803   -0.5549    0.1738 O   0  0  0  0  0  0  0  0  0  0  0  0
    5.3235   -2.3908   -1.8186 C   0  0  0  0  0  0  0  0  0  0  0  0
    6.8603   -2.5887   -1.7435 C   0  0  1  0  0  0  0  0  0  0  0  0
    7.3648   -2.7199   -0.3800 N   0  0  0  0  0  0  0  0  0  0  0  0
    6.9855   -3.9020    0.3707 C   0  0  0  0  0  0  0  0  0  0  0  0
    7.3169   -3.7499   -2.6549 C   0  0  1  0  0  0  0  0  0  0  0  0
    6.9763   -3.5380   -4.1560 C   0  0  0  0  0  0  0  0  0  0  0  0
    8.1442   -4.1750   -4.9223 C   0  0  0  0  0  0  0  0  0  0  0  0
    9.3588   -3.7972   -4.0653 C   0  0  0  0  0  0  0  0  0  0  0  0
    8.8619   -3.9782   -2.6170 C   0  0  0  0  0  0  0  0  0  0  0  0
    0.8724    0.7169    1.2553 H   0  0  0  0  0  0  0  0  0  0  0  0
    1.1304   -1.0394    1.1717 H   0  0  0  0  0  0  0  0  0  0  0  0
    0.3685   -0.1814   -0.1890 H   0  0  0  0  0  0  0  0  0  0  0  0
    3.2771    0.2541    0.7942 H   0  0  0  0  0  0  0  0  0  0  0  0
    2.5440    1.0833   -0.5862 H   0  0  0  0  0  0  0  0  0  0  0  0
    2.9926   -1.9504   -0.3651 H   0  0  0  0  0  0  0  0  0  0  0  0
    2.4408   -0.2032   -2.8660 H   0  0  0  0  0  0  0  0  0  0  0  0
    1.2144   -1.2295   -2.0898 H   0  0  0  0  0  0  0  0  0  0  0  0
    2.6274   -1.9784   -2.8484 H   0  0  0  0  0  0  0  0  0  0  0  0
    4.9520   -2.4455   -2.8526 H   0  0  0  0  0  0  0  0  0  0  0  0
    4.7942   -3.1388   -1.2075 H   0  0  0  0  0  0  0  0  0  0  0  0
    7.3274   -1.6720   -2.1525 H   0  0  0  0  0  0  0  0  0  0  0  0
    7.0850   -1.8842    0.1362 H   0  0  0  0  0  0  0  0  0  0  0  0
    7.4576   -4.8084   -0.0439 H   0  0  0  0  0  0  0  0  0  0  0  0
    5.8923   -4.1016    0.4370 H   0  0  0  0  0  0  0  0  0  0  0  0
    7.3520   -3.7957    1.4033 H   0  0  0  0  0  0  0  0  0  0  0  0
    6.8105   -4.6684   -2.3124 H   0  0  0  0  0  0  0  0  0  0  0  0
    6.9435   -2.4568   -4.3841 H   0  0  0  0  0  0  0  0  0  0  0  0
    5.9980   -3.9564   -4.4416 H   0  0  0  0  0  0  0  0  0  0  0  0
    8.2142   -3.8324   -5.9673 H   0  0  0  0  0  0  0  0  0  0  0  0
    8.0262   -5.2733   -4.9465 H   0  0  0  0  0  0  0  0  0  0  0  0
    9.6223   -2.7410   -4.2498 H   0  0  0  0  0  0  0  0  0  0  0  0
   10.2567   -4.3944   -4.2900 H   0  0  0  0  0  0  0  0  0  0  0  0
    9.3455   -3.2972   -1.9026 H   0  0  0  0  0  0  0  0  0  0  0  0
    9.0799   -5.0007   -2.2682 H   0  0  0  0  0  0  0  0  0  0  0  0
  1  2  1  0
  1 16  1  0
  1 17  1  0
  1 18  1  0
  2  3  1  0
  2 19  1  0
  2 20  1  0
  3  4  1  0
  3  5  1  0
  3 21  1  1
  4 22  1  0
  4 23  1  0
  4 24  1  0
  5  6  1  1
  5  7  1  0
  7  8  1  0
  7 25  1  0
  7 26  1  0
  8  9  1  0
  8 11  1  0
  8 27  1  6
  9 10  1  0
  9 28  1  0
 10 29  1  0
 10 30  1  0
 10 31  1  0
 11 12  1  0
 11 15  1  0
 11 32  1  1
 12 13  1  0
 12 33  1  0
 12 34  1  0
 13 14  1  0
 13 35  1  0
 13 36  1  0
 14 15  1  0
 14 37  1  0
 14 38  1  0
 15 39  1  0
 15 40  1  0
M  CHG  2   5   1   6  -1
M  END

