
     RDKit          3D

 68 72  0  0  0  0  0  0  0  0999 V2000
    3.7030   10.9829    7.4732 C   0  0  0  0  0  0  0  0  0  0  0  0
    4.9954   10.4314    6.8508 C   0  0  0  0  0  0  0  0  0  0  0  0
    4.9622    8.9338    6.6314 C   0  0  0  0  0  0  0  0  0  0  0  0
    4.4910    8.3851    5.4294 C   0  0  0  0  0  0  0  0  0  0  0  0
    4.4267    7.0016    5.2422 C   0  0  0  0  0  0  0  0  0  0  0  0
    4.8236    6.1158    6.2534 C   0  0  0  0  0  0  0  0  0  0  0  0
    4.7080    4.6156    6.0567 C   0  0  0  0  0  0  0  0  0  0  0  0
    5.8460    3.8715    6.5667 N   0  0  0  0  0  0  0  0  0  0  0  0
    5.6864    2.8070    7.4005 C   0  0  0  0  0  0  0  0  0  0  0  0
    4.5926    2.4290    7.7989 O   0  0  0  0  0  0  0  0  0  0  0  0
    6.9624    2.1047    7.9139 C   0  0  1  0  0  0  0  0  0  0  0  0
    7.0421    2.4470    8.9617 H   0  0  0  0  0  0  0  0  0  0  0  0
    6.7664    0.5772    7.9252 C   0  0  0  0  0  0  0  0  0  0  0  0
    6.9538   -0.0111    6.5240 C   0  0  0  0  0  0  0  0  0  0  0  0
    8.2934    0.3996    5.8981 C   0  0  0  0  0  0  0  0  0  0  0  0
    8.4351    1.8623    5.8939 N   0  0  0  0  0  0  0  0  0  0  0  0
    8.6027    2.6757    4.8053 C   0  0  0  0  0  0  0  0  0  0  0  0
    8.3412    3.9522    4.9248 N   0  0  0  0  0  0  0  0  0  0  0  0
    8.5693    4.8328    3.8956 C   0  0  0  0  0  0  0  0  0  0  0  0
    8.2744    6.2005    4.0755 C   0  0  0  0  0  0  0  0  0  0  0  0
    8.4758    7.1137    3.0488 C   0  0  0  0  0  0  0  0  0  0  0  0
    8.9760    6.6733    1.8146 C   0  0  0  0  0  0  0  0  0  0  0  0
    9.2750    5.3278    1.6110 C   0  0  0  0  0  0  0  0  0  0  0  0
    9.0807    4.3968    2.6472 C   0  0  0  0  0  0  0  0  0  0  0  0
    9.3719    3.0326    2.5129 N   0  0  0  0  0  0  0  0  0  0  0  0
   10.0033    2.5230    1.2835 C   0  0  0  0  0  0  0  0  0  0  0  0
    9.0504    2.2885    0.1250 C   0  0  0  0  0  0  0  0  0  0  0  0
    9.3374    2.8066   -1.1456 C   0  0  0  0  0  0  0  0  0  0  0  0
    8.4885    2.5595   -2.2294 C   0  0  0  0  0  0  0  0  0  0  0  0
    7.3354    1.7916   -2.0527 C   0  0  0  0  0  0  0  0  0  0  0  0
    7.0424    1.2659   -0.7896 C   0  0  0  0  0  0  0  0  0  0  0  0
    7.8950    1.5076    0.2896 C   0  0  0  0  0  0  0  0  0  0  0  0
    9.1533    2.1053    3.5214 C   0  0  0  0  0  0  0  0  0  0  0  0
    9.4190    0.9200    3.3551 O   0  0  0  0  0  0  0  0  0  0  0  0
    8.2951    2.4507    7.2305 C   0  0  0  0  0  0  0  0  0  0  0  0
    5.2985    6.6609    7.4562 C   0  0  0  0  0  0  0  0  0  0  0  0
    5.3668    8.0431    7.6395 C   0  0  0  0  0  0  0  0  0  0  0  0
    3.7660   12.0738    7.6180 H   0  0  0  0  0  0  0  0  0  0  0  0
    3.5059   10.5211    8.4539 H   0  0  0  0  0  0  0  0  0  0  0  0
    2.8327   10.7753    6.8301 H   0  0  0  0  0  0  0  0  0  0  0  0
    5.8487   10.6866    7.5020 H   0  0  0  0  0  0  0  0  0  0  0  0
    5.1787   10.9378    5.8879 H   0  0  0  0  0  0  0  0  0  0  0  0
    4.1783    9.0513    4.6194 H   0  0  0  0  0  0  0  0  0  0  0  0
    4.0670    6.6035    4.2887 H   0  0  0  0  0  0  0  0  0  0  0  0
    4.5582    4.4027    4.9829 H   0  0  0  0  0  0  0  0  0  0  0  0
    3.8247    4.2228    6.5851 H   0  0  0  0  0  0  0  0  0  0  0  0
    6.7582    4.0669    6.1422 H   0  0  0  0  0  0  0  0  0  0  0  0
    5.7668    0.3496    8.3207 H   0  0  0  0  0  0  0  0  0  0  0  0
    7.5066    0.1294    8.6118 H   0  0  0  0  0  0  0  0  0  0  0  0
    6.1308    0.3187    5.8660 H   0  0  0  0  0  0  0  0  0  0  0  0
    6.9064   -1.1124    6.5596 H   0  0  0  0  0  0  0  0  0  0  0  0
    8.4000    0.0184    4.8820 H   0  0  0  0  0  0  0  0  0  0  0  0
    9.1247   -0.0245    6.4939 H   0  0  0  0  0  0  0  0  0  0  0  0
    7.8797    6.5149    5.0435 H   0  0  0  0  0  0  0  0  0  0  0  0
    8.2386    8.1687    3.2028 H   0  0  0  0  0  0  0  0  0  0  0  0
    9.1286    7.3831    0.9983 H   0  0  0  0  0  0  0  0  0  0  0  0
    9.6379    5.0051    0.6373 H   0  0  0  0  0  0  0  0  0  0  0  0
   10.4737    1.5723    1.5664 H   0  0  0  0  0  0  0  0  0  0  0  0
   10.7978    3.2228    0.9897 H   0  0  0  0  0  0  0  0  0  0  0  0
   10.2389    3.4092   -1.2939 H   0  0  0  0  0  0  0  0  0  0  0  0
    8.7285    2.9729   -3.2124 H   0  0  0  0  0  0  0  0  0  0  0  0
    6.6672    1.6004   -2.8961 H   0  0  0  0  0  0  0  0  0  0  0  0
    6.1466    0.6564   -0.6454 H   0  0  0  0  0  0  0  0  0  0  0  0
    7.6728    1.0723    1.2664 H   0  0  0  0  0  0  0  0  0  0  0  0
    8.4621    3.5307    7.1636 H   0  0  0  0  0  0  0  0  0  0  0  0
    9.1053    2.0308    7.8563 H   0  0  0  0  0  0  0  0  0  0  0  0
    5.6256    5.9908    8.2553 H   0  0  0  0  0  0  0  0  0  0  0  0
    5.7451    8.4405    8.5866 H   0  0  0  0  0  0  0  0  0  0  0  0
  1  2  1  0
  1 38  1  0
  1 39  1  0
  1 40  1  0
  2  3  1  0
  2 41  1  0
  2 42  1  0
  3  4  2  0
  3 37  1  0
  4  5  1  0
  4 43  1  0
  5  6  2  0
  5 44  1  0
  6  7  1  0
  6 36  1  0
  7  8  1  0
  7 45  1  0
  7 46  1  0
  8  9  1  0
  8 47  1  0
  9 10  2  0
  9 11  1  0
 11 12  1  1
 11 13  1  0
 11 35  1  0
 13 14  1  0
 13 48  1  0
 13 49  1  0
 14 15  1  0
 14 50  1  0
 14 51  1  0
 15 16  1  0
 15 52  1  0
 15 53  1  0
 16 17  1  0
 16 35  1  0
 17 18  2  0
 17 33  1  0
 18 19  1  0
 19 20  2  0
 19 24  1  0
 20 21  1  0
 20 54  1  0
 21 22  2  0
 21 55  1  0
 22 23  1  0
 22 56  1  0
 23 24  2  0
 23 57  1  0
 24 25  1  0
 25 26  1  0
 25 33  1  0
 26 27  1  0
 26 58  1  0
 26 59  1  0
 27 28  2  0
 27 32  1  0
 28 29  1  0
 28 60  1  0
 29 30  2  0
 29 61  1  0
 30 31  1  0
 30 62  1  0
 31 32  2  0
 31 63  1  0
 32 64  1  0
 33 34  2  0
 35 65  1  0
 35 66  1  0
 36 37  2  0
 36 67  1  0
 37 68  1  0
M  END

