
     RDKit          3D

 43 44  0  0  0  0  0  0  0  0999 V2000
    5.4748   -8.0447    1.5740 C   0  0  0  0  0  0  0  0  0  0  0  0
    4.6275   -7.7049    0.3588 C   0  0  2  0  0  0  0  0  0  0  0  0
    4.7414   -8.5028   -0.4016 H   0  0  0  0  0  0  0  0  0  0  0  0
    5.0449   -6.3821   -0.2904 C   0  0  0  0  0  0  0  0  0  0  0  0
    4.0850   -6.0622   -1.3531 N   0  0  0  0  0  0  0  0  0  0  0  0
    4.5527   -4.9020   -2.4809 S   0  0  1  0  0  0  0  0  0  0  0  0
    3.9455   -3.5967   -2.2109 O   0  0  0  0  0  0  0  0  0  0  0  0
    6.0096   -5.0034   -2.6027 O   0  0  0  0  0  0  0  0  0  0  0  0
    3.7654   -5.5460   -3.8263 N   0  0  0  0  0  0  0  0  0  0  0  0
    3.7770   -4.7198   -5.0565 C   0  0  2  0  0  0  0  0  0  0  0  0
    4.7587   -4.2186   -5.1641 H   0  0  0  0  0  0  0  0  0  0  0  0
    2.6631   -3.6747   -5.0542 C   0  0  0  0  0  0  0  0  0  0  0  0
    3.6315   -5.6974   -6.2357 C   0  0  1  0  0  0  0  0  0  0  0  0
    2.6116   -6.1252   -6.1986 H   0  0  0  0  0  0  0  0  0  0  0  0
    3.9208   -5.0782   -7.6168 C   0  0  0  0  0  0  0  0  0  0  0  0
    4.6590   -6.2063   -8.3517 C   0  0  0  0  0  0  0  0  0  0  0  0
    5.4286   -6.8641   -7.2072 C   0  0  0  0  0  0  0  0  0  0  0  0
    4.5533   -6.7846   -6.0862 O   0  0  0  0  0  0  0  0  0  0  0  0
    2.7054   -5.9682   -0.8656 C   0  0  0  0  0  0  0  0  0  0  0  0
    2.3205   -7.3014   -0.2078 C   0  0  1  0  0  0  0  0  0  0  0  0
    1.3858   -7.1344    0.3523 H   0  0  0  0  0  0  0  0  0  0  0  0
    2.0885   -8.4300   -1.2150 C   0  0  0  0  0  0  0  0  0  0  0  0
    3.2740   -7.6447    0.7939 O   0  0  0  0  0  0  0  0  0  0  0  0
    5.3778   -7.2614    2.3420 H   0  0  0  0  0  0  0  0  0  0  0  0
    6.5363   -8.1413    1.2981 H   0  0  0  0  0  0  0  0  0  0  0  0
    5.1373   -8.9954    2.0124 H   0  0  0  0  0  0  0  0  0  0  0  0
    6.0470   -6.4663   -0.7299 H   0  0  0  0  0  0  0  0  0  0  0  0
    5.0659   -5.5868    0.4819 H   0  0  0  0  0  0  0  0  0  0  0  0
    4.2274   -6.4382   -4.0297 H   0  0  0  0  0  0  0  0  0  0  0  0
    2.7011   -3.0661   -5.9713 H   0  0  0  0  0  0  0  0  0  0  0  0
    2.7665   -3.0079   -4.1892 H   0  0  0  0  0  0  0  0  0  0  0  0
    1.6778   -4.1651   -4.9989 H   0  0  0  0  0  0  0  0  0  0  0  0
    4.5791   -4.1998   -7.5092 H   0  0  0  0  0  0  0  0  0  0  0  0
    3.0070   -4.7484   -8.1311 H   0  0  0  0  0  0  0  0  0  0  0  0
    5.3106   -5.8449   -9.1613 H   0  0  0  0  0  0  0  0  0  0  0  0
    3.9407   -6.9212   -8.7854 H   0  0  0  0  0  0  0  0  0  0  0  0
    6.3755   -6.3273   -7.0014 H   0  0  0  0  0  0  0  0  0  0  0  0
    5.6699   -7.9239   -7.3838 H   0  0  0  0  0  0  0  0  0  0  0  0
    2.0399   -5.7515   -1.7123 H   0  0  0  0  0  0  0  0  0  0  0  0
    2.6088   -5.1488   -0.1292 H   0  0  0  0  0  0  0  0  0  0  0  0
    2.9381   -8.5525   -1.9029 H   0  0  0  0  0  0  0  0  0  0  0  0
    1.1958   -8.2181   -1.8243 H   0  0  0  0  0  0  0  0  0  0  0  0
    1.9260   -9.3791   -0.6818 H   0  0  0  0  0  0  0  0  0  0  0  0
  1  2  1  0
  1 24  1  0
  1 25  1  0
  1 26  1  0
  2  3  1  6
  2  4  1  0
  2 23  1  0
  4  5  1  0
  4 27  1  0
  4 28  1  0
  5  6  1  0
  5 19  1  0
  6  7  2  0
  6  8  2  0
  6  9  1  6
  9 10  1  0
  9 29  1  0
 10 11  1  6
 10 12  1  0
 10 13  1  0
 12 30  1  0
 12 31  1  0
 12 32  1  0
 13 14  1  6
 13 15  1  0
 13 18  1  0
 15 16  1  0
 15 33  1  0
 15 34  1  0
 16 17  1  0
 16 35  1  0
 16 36  1  0
 17 18  1  0
 17 37  1  0
 17 38  1  0
 19 20  1  0
 19 39  1  0
 19 40  1  0
 20 21  1  1
 20 22  1  0
 20 23  1  0
 22 41  1  0
 22 42  1  0
 22 43  1  0
M  END

