
     RDKit          3D

 47 49  0  0  0  0  0  0  0  0999 V2000
    8.0836    3.5238   -2.4599 C   0  0  0  0  0  0  0  0  0  0  0  0
    8.1110    2.0232   -2.1457 C   0  0  1  0  0  0  0  0  0  0  0  0
    8.6998    1.7337   -0.7601 C   0  0  0  0  0  0  0  0  0  0  0  0
    6.7797    1.4410   -2.2761 N   0  0  0  0  0  0  0  0  0  0  0  0
    6.4619    0.4757   -3.1891 C   0  0  0  0  0  0  0  0  0  0  0  0
    7.2626   -0.0056   -3.9773 O   0  0  0  0  0  0  0  0  0  0  0  0
    4.9837    0.0795   -3.1671 C   0  0  2  0  0  0  0  0  0  0  0  0
    4.6188    0.1577   -2.1316 H   0  0  0  0  0  0  0  0  0  0  0  0
    4.7266   -1.3364   -3.6927 C   0  0  0  0  0  0  0  0  0  0  0  0
    3.2223   -1.6440   -3.6811 C   0  0  0  0  0  0  0  0  0  0  0  0
    2.4031   -0.5651   -4.4012 C   0  0  0  0  0  0  0  0  0  0  0  0
    2.7389    0.7695   -3.8975 N   0  0  0  0  0  0  0  0  0  0  0  0
    1.7485    1.5767   -3.4171 C   0  0  0  0  0  0  0  0  0  0  0  0
    0.5626    1.2742   -3.4738 O   0  0  0  0  0  0  0  0  0  0  0  0
    2.0955    2.9447   -2.8453 C   0  0  0  0  0  0  0  0  0  0  0  0
    1.2933    3.9824   -3.2226 C   0  0  0  0  0  0  0  0  0  0  0  0
    1.4454    5.3034   -2.6830 C   0  0  0  0  0  0  0  0  0  0  0  0
    0.6677    6.4158   -3.0716 C   0  0  0  0  0  0  0  0  0  0  0  0
    0.8852    7.6605   -2.4953 C   0  0  0  0  0  0  0  0  0  0  0  0
    1.8850    7.8164   -1.5177 C   0  0  0  0  0  0  0  0  0  0  0  0
    2.6648    6.7354   -1.1143 C   0  0  0  0  0  0  0  0  0  0  0  0
    2.4394    5.4856   -1.7005 C   0  0  0  0  0  0  0  0  0  0  0  0
    3.2011    4.4392   -1.2924 O   0  0  0  0  0  0  0  0  0  0  0  0
    3.0915    3.1518   -1.7850 C   0  0  0  0  0  0  0  0  0  0  0  0
    3.8216    2.3189   -1.2982 O   0  0  0  0  0  0  0  0  0  0  0  0
    4.1550    1.0886   -3.9904 C   0  0  0  0  0  0  0  0  0  0  0  0
    9.0939    3.9583   -2.3922 H   0  0  0  0  0  0  0  0  0  0  0  0
    7.4373    4.0663   -1.7483 H   0  0  0  0  0  0  0  0  0  0  0  0
    7.7005    3.7051   -3.4760 H   0  0  0  0  0  0  0  0  0  0  0  0
    8.7185    1.5095   -2.9059 H   0  0  0  0  0  0  0  0  0  0  0  0
    8.0905    2.1966    0.0353 H   0  0  0  0  0  0  0  0  0  0  0  0
    9.7219    2.1366   -0.6757 H   0  0  0  0  0  0  0  0  0  0  0  0
    8.7407    0.6502   -0.5709 H   0  0  0  0  0  0  0  0  0  0  0  0
    6.0388    1.7829   -1.6672 H   0  0  0  0  0  0  0  0  0  0  0  0
    5.2753   -2.0737   -3.0854 H   0  0  0  0  0  0  0  0  0  0  0  0
    5.1368   -1.4146   -4.7136 H   0  0  0  0  0  0  0  0  0  0  0  0
    2.8681   -1.7171   -2.6381 H   0  0  0  0  0  0  0  0  0  0  0  0
    3.0228   -2.6196   -4.1545 H   0  0  0  0  0  0  0  0  0  0  0  0
    1.3247   -0.7105   -4.2679 H   0  0  0  0  0  0  0  0  0  0  0  0
    2.6187   -0.5922   -5.4864 H   0  0  0  0  0  0  0  0  0  0  0  0
    0.5037    3.7921   -3.9543 H   0  0  0  0  0  0  0  0  0  0  0  0
   -0.1064    6.2796   -3.8309 H   0  0  0  0  0  0  0  0  0  0  0  0
    0.2813    8.5182   -2.7987 H   0  0  0  0  0  0  0  0  0  0  0  0
    2.0534    8.7969   -1.0657 H   0  0  0  0  0  0  0  0  0  0  0  0
    3.4428    6.8339   -0.3556 H   0  0  0  0  0  0  0  0  0  0  0  0
    4.3394    2.1151   -3.6627 H   0  0  0  0  0  0  0  0  0  0  0  0
    4.4652    1.0266   -5.0507 H   0  0  0  0  0  0  0  0  0  0  0  0
  1  2  1  0
  1 27  1  0
  1 28  1  0
  1 29  1  0
  2  3  1  0
  2  4  1  0
  2 30  1  6
  3 31  1  0
  3 32  1  0
  3 33  1  0
  4  5  1  0
  4 34  1  0
  5  6  2  0
  5  7  1  0
  7  8  1  1
  7  9  1  0
  7 26  1  0
  9 10  1  0
  9 35  1  0
  9 36  1  0
 10 11  1  0
 10 37  1  0
 10 38  1  0
 11 12  1  0
 11 39  1  0
 11 40  1  0
 12 13  1  0
 12 26  1  0
 13 14  2  0
 13 15  1  0
 15 16  2  0
 15 24  1  0
 16 17  1  0
 16 41  1  0
 17 18  2  0
 17 22  1  0
 18 19  1  0
 18 42  1  0
 19 20  2  0
 19 43  1  0
 20 21  1  0
 20 44  1  0
 21 22  2  0
 21 45  1  0
 22 23  1  0
 23 24  1  0
 24 25  2  0
 26 46  1  0
 26 47  1  0
M  END

