
     RDKit          3D

 35 35  0  0  0  0  0  0  0  0999 V2000
    0.8151   -1.7562   -1.1215 N   0  0  0  0  0  0  0  0  0  0  0  0
    0.6609   -2.1634    0.2709 C   0  0  0  0  0  0  0  0  0  0  0  0
    1.9383   -1.8734    1.0499 C   0  0  1  0  0  0  0  0  0  0  0  0
    2.3309   -0.4013    1.1871 C   0  0  0  0  0  0  0  0  0  0  0  0
    3.1706   -0.4106    2.4687 C   0  0  0  0  0  0  0  0  0  0  0  0
    2.4683   -1.4935    3.3141 C   0  0  2  0  0  0  0  0  0  0  0  0
    3.4409   -2.2864    4.1902 C   0  0  0  0  0  0  0  0  0  0  0  0
    4.1760   -1.7294    4.9923 O   0  0  0  0  0  0  0  0  0  0  0  0
    3.4062   -3.6307    4.0020 N   0  0  0  0  0  0  0  0  0  0  0  0
    4.3151   -4.5164    4.6859 C   0  0  1  0  0  0  0  0  0  0  0  0
    3.8568   -4.8620    6.1247 C   0  0  0  0  0  0  0  0  0  0  0  0
    2.5291   -5.6170    6.2055 C   0  0  0  0  0  0  0  0  0  0  0  0
    2.0691   -5.7545    7.5318 O   0  0  0  0  0  0  0  0  0  0  0  0
    4.5053   -5.7711    3.8271 C   0  0  0  0  0  0  0  0  0  0  0  0
    3.8554   -6.0151    2.8470 O   0  0  0  0  0  0  0  0  0  0  0  0
    5.4512   -6.6290    4.2603 O   0  0  0  0  0  0  0  0  0  0  0  0
    1.7673   -2.3340    2.3985 O   0  0  0  0  0  0  0  0  0  0  0  0
   -0.0825   -1.7851   -1.6031 H   0  0  0  0  0  0  0  0  0  0  0  0
    1.4229   -2.4088   -1.6185 H   0  0  0  0  0  0  0  0  0  0  0  0
    0.4020   -3.2325    0.4208 H   0  0  0  0  0  0  0  0  0  0  0  0
   -0.1557   -1.5780    0.7263 H   0  0  0  0  0  0  0  0  0  0  0  0
    2.7754   -2.4357    0.5833 H   0  0  0  0  0  0  0  0  0  0  0  0
    1.4228    0.2114    1.3166 H   0  0  0  0  0  0  0  0  0  0  0  0
    2.8665   -0.0231    0.3061 H   0  0  0  0  0  0  0  0  0  0  0  0
    3.2102    0.5569    2.9868 H   0  0  0  0  0  0  0  0  0  0  0  0
    4.2089   -0.7101    2.2541 H   0  0  0  0  0  0  0  0  0  0  0  0
    1.7365   -1.0332    4.0042 H   0  0  0  0  0  0  0  0  0  0  0  0
    2.8256   -4.0015    3.2524 H   0  0  0  0  0  0  0  0  0  0  0  0
    5.2897   -4.0012    4.7759 H   0  0  0  0  0  0  0  0  0  0  0  0
    3.7703   -3.9150    6.6785 H   0  0  0  0  0  0  0  0  0  0  0  0
    4.6471   -5.4471    6.6337 H   0  0  0  0  0  0  0  0  0  0  0  0
    2.6123   -6.6004    5.6981 H   0  0  0  0  0  0  0  0  0  0  0  0
    1.7557   -5.0483    5.6663 H   0  0  0  0  0  0  0  0  0  0  0  0
    2.6823   -6.3272    8.0106 H   0  0  0  0  0  0  0  0  0  0  0  0
    5.9070   -6.2737    5.0373 H   0  0  0  0  0  0  0  0  0  0  0  0
  1  2  1  0
  1 18  1  0
  1 19  1  0
  2  3  1  0
  2 20  1  0
  2 21  1  0
  3  4  1  0
  3 17  1  0
  3 22  1  6
  4  5  1  0
  4 23  1  0
  4 24  1  0
  5  6  1  0
  5 25  1  0
  5 26  1  0
  6  7  1  0
  6 17  1  0
  6 27  1  1
  7  8  2  0
  7  9  1  0
  9 10  1  0
  9 28  1  0
 10 11  1  0
 10 14  1  0
 10 29  1  1
 11 12  1  0
 11 30  1  0
 11 31  1  0
 12 13  1  0
 12 32  1  0
 12 33  1  0
 13 34  1  0
 14 15  2  0
 14 16  1  0
 16 35  1  0
M  END

