
     RDKit          3D

 31 33  0  0  0  0  0  0  0  0999 V2000
    0.5220    0.6549   -1.4045 C   0  0  0  0  0  0  0  0  0  0  0  0
    1.9414    0.8222   -1.6107 N   0  0  0  0  0  0  0  0  0  0  0  0
    2.6681    1.1873   -0.6327 C   0  0  0  0  0  0  0  0  0  0  0  0
    4.1392    1.4198   -0.6256 C   0  0  1  0  0  0  0  0  0  0  0  0
    5.2369    0.6570   -1.3699 C   0  0  1  0  0  0  0  0  0  0  0  0
    4.8870   -0.1326   -2.6304 C   0  0  0  0  0  0  0  0  0  0  0  0
    4.1133    0.7626   -3.4899 N   0  0  0  0  0  0  0  0  0  0  0  0
    4.4841    2.1282   -3.1391 C   0  0  0  0  0  0  0  0  0  0  0  0
    5.0054    2.1126   -1.6833 C   0  0  1  0  0  0  0  0  0  0  0  0
    5.9208    3.2221   -1.2617 C   0  0  0  0  0  0  0  0  0  0  0  0
    7.2515    3.2636   -1.7127 C   0  0  0  0  0  0  0  0  0  0  0  0
    8.0946    4.3160   -1.3621 C   0  0  0  0  0  0  0  0  0  0  0  0
    7.6295    5.3582   -0.5516 C   0  0  0  0  0  0  0  0  0  0  0  0
    8.7076    6.6563   -0.1251 Cl  0  0  0  0  0  0  0  0  0  0  0  0
    6.3016    5.3322   -0.0967 C   0  0  0  0  0  0  0  0  0  0  0  0
    5.6722    6.6042    0.9136 Cl  0  0  0  0  0  0  0  0  0  0  0  0
    5.4623    4.2720   -0.4554 C   0  0  0  0  0  0  0  0  0  0  0  0
    0.2290   -0.3776   -1.6600 H   0  0  0  0  0  0  0  0  0  0  0  0
   -0.0335    1.3151   -2.0921 H   0  0  0  0  0  0  0  0  0  0  0  0
    0.1943    0.8691   -0.3668 H   0  0  0  0  0  0  0  0  0  0  0  0
    2.1983    1.3670    0.3589 H   0  0  0  0  0  0  0  0  0  0  0  0
    4.4650    1.6865    0.3846 H   0  0  0  0  0  0  0  0  0  0  0  0
    6.0918    0.3376   -0.7655 H   0  0  0  0  0  0  0  0  0  0  0  0
    4.3153   -1.0534   -2.4297 H   0  0  0  0  0  0  0  0  0  0  0  0
    5.8344   -0.4403   -3.1139 H   0  0  0  0  0  0  0  0  0  0  0  0
    3.1318    0.6454   -3.2315 H   0  0  0  0  0  0  0  0  0  0  0  0
    3.6303    2.8099   -3.2842 H   0  0  0  0  0  0  0  0  0  0  0  0
    5.3081    2.5020   -3.7759 H   0  0  0  0  0  0  0  0  0  0  0  0
    7.6359    2.4572   -2.3421 H   0  0  0  0  0  0  0  0  0  0  0  0
    9.1291    4.3424   -1.7089 H   0  0  0  0  0  0  0  0  0  0  0  0
    4.4332    4.2771   -0.0924 H   0  0  0  0  0  0  0  0  0  0  0  0
  1  2  1  0
  1 18  1  0
  1 19  1  0
  1 20  1  0
  2  3  2  0
  3  4  1  0
  3 21  1  0
  4  5  1  0
  4  9  1  0
  4 22  1  1
  5  6  1  0
  5  9  1  0
  5 23  1  1
  6  7  1  0
  6 24  1  0
  6 25  1  0
  7  8  1  0
  7 26  1  0
  8  9  1  0
  8 27  1  0
  8 28  1  0
  9 10  1  1
 10 11  2  0
 10 17  1  0
 11 12  1  0
 11 29  1  0
 12 13  2  0
 12 30  1  0
 13 14  1  0
 13 15  1  0
 15 16  1  0
 15 17  2  0
 17 31  1  0
M  END

