
     RDKit          3D

 34 35  0  0  0  0  0  0  0  0999 V2000
    1.2912    0.4477    0.0922 C   0  0  0  0  0  0  0  0  0  0  0  0
    2.7019    0.3768    0.2780 O   0  0  0  0  0  0  0  0  0  0  0  0
    3.1952   -0.8086    0.6860 C   0  0  0  0  0  0  0  0  0  0  0  0
    2.4616   -1.7662    0.8831 O   0  0  0  0  0  0  0  0  0  0  0  0
    4.6627   -0.8013    0.8614 C   0  0  0  0  0  0  0  0  0  0  0  0
    5.3921    0.3793    0.6170 C   0  0  0  0  0  0  0  0  0  0  0  0
    6.7634    0.4099    0.7963 C   0  0  0  0  0  0  0  0  0  0  0  0
    7.4042    1.6239    0.5886 O   0  0  0  0  0  0  0  0  0  0  0  0
    8.7433    1.6766    0.3382 C   0  0  0  0  0  0  0  0  0  0  0  0
    9.5880    2.2489    1.2968 C   0  0  0  0  0  0  0  0  0  0  0  0
   10.9551    2.3969    1.0622 C   0  0  0  0  0  0  0  0  0  0  0  0
   11.4884    1.9553   -0.1517 C   0  0  0  0  0  0  0  0  0  0  0  0
   13.1998    2.1257   -0.4632 Cl  0  0  0  0  0  0  0  0  0  0  0  0
   10.6691    1.3837   -1.1282 C   0  0  0  0  0  0  0  0  0  0  0  0
    9.3001    1.2487   -0.8831 C   0  0  0  0  0  0  0  0  0  0  0  0
    8.2758    0.5743   -2.1192 Cl  0  0  0  0  0  0  0  0  0  0  0  0
    7.4363   -0.7440    1.2237 C   0  0  0  0  0  0  0  0  0  0  0  0
    6.7532   -1.9330    1.4634 C   0  0  0  0  0  0  0  0  0  0  0  0
    7.4895   -3.1708    1.9069 C   0  0  0  0  0  0  0  0  0  0  0  0
    5.3384   -1.9865    1.2840 C   0  0  0  0  0  0  0  0  0  0  0  0
    4.6679   -3.1555    1.4968 N   0  0  0  0  0  0  0  0  0  0  0  0
    1.0771    1.4760   -0.2251 H   0  0  0  0  0  0  0  0  0  0  0  0
    0.7581    0.2184    1.0275 H   0  0  0  0  0  0  0  0  0  0  0  0
    0.9589   -0.2653   -0.6779 H   0  0  0  0  0  0  0  0  0  0  0  0
    4.8731    1.2777    0.2872 H   0  0  0  0  0  0  0  0  0  0  0  0
    9.1411    2.5855    2.2344 H   0  0  0  0  0  0  0  0  0  0  0  0
   11.6054    2.8473    1.8132 H   0  0  0  0  0  0  0  0  0  0  0  0
   11.0850    1.0528   -2.0798 H   0  0  0  0  0  0  0  0  0  0  0  0
    8.5185   -0.7170    1.3699 H   0  0  0  0  0  0  0  0  0  0  0  0
    8.5700   -2.9869    1.9866 H   0  0  0  0  0  0  0  0  0  0  0  0
    7.3441   -4.0054    1.1977 H   0  0  0  0  0  0  0  0  0  0  0  0
    7.1419   -3.5240    2.8953 H   0  0  0  0  0  0  0  0  0  0  0  0
    5.1342   -3.9351    1.9341 H   0  0  0  0  0  0  0  0  0  0  0  0
    3.6537   -3.1336    1.4320 H   0  0  0  0  0  0  0  0  0  0  0  0
  1  2  1  0
  1 22  1  0
  1 23  1  0
  1 24  1  0
  2  3  1  0
  3  4  2  0
  3  5  1  0
  5  6  2  0
  5 20  1  0
  6  7  1  0
  6 25  1  0
  7  8  1  0
  7 17  2  0
  8  9  1  0
  9 10  2  0
  9 15  1  0
 10 11  1  0
 10 26  1  0
 11 12  2  0
 11 27  1  0
 12 13  1  0
 12 14  1  0
 14 15  2  0
 14 28  1  0
 15 16  1  0
 17 18  1  0
 17 29  1  0
 18 19  1  0
 18 20  2  0
 19 30  1  0
 19 31  1  0
 19 32  1  0
 20 21  1  0
 21 33  1  0
 21 34  1  0
M  END

