
     RDKit          3D

 61 65  0  0  0  0  0  0  0  0999 V2000
    2.0972    2.2209   -1.5413 C   0  0  0  0  0  0  0  0  0  0  0  0
    2.4772    1.1386   -0.7228 O   0  0  0  0  0  0  0  0  0  0  0  0
    3.1935    1.3773    0.4047 C   0  0  0  0  0  0  0  0  0  0  0  0
    3.6075    2.6472    0.8339 C   0  0  0  0  0  0  0  0  0  0  0  0
    4.3433    2.7762    2.0158 C   0  0  0  0  0  0  0  0  0  0  0  0
    4.6905    1.6653    2.8020 C   0  0  0  0  0  0  0  0  0  0  0  0
    5.4727    1.8148    4.0546 C   0  0  0  0  0  0  0  0  0  0  0  0
    5.3188    2.9385    4.8881 C   0  0  0  0  0  0  0  0  0  0  0  0
    6.0578    3.0626    6.0581 C   0  0  0  0  0  0  0  0  0  0  0  0
    6.9745    2.0712    6.4739 C   0  0  0  0  0  0  0  0  0  0  0  0
    7.1769    0.9485    5.6250 C   0  0  0  0  0  0  0  0  0  0  0  0
    6.4157    0.8473    4.4498 C   0  0  0  0  0  0  0  0  0  0  0  0
    8.5298   -0.3181    5.9917 Si  0  0  1  0  0  4  0  0  0  0  0  0
    8.4104   -1.7733    4.7907 C   0  0  0  0  0  0  0  0  0  0  0  0
   10.2304    0.4899    5.8022 C   0  0  0  0  0  0  0  0  0  0  0  0
    8.3028   -0.9144    7.7701 C   0  0  0  0  0  0  0  0  0  0  0  0
    8.3049   -2.2884    8.0596 C   0  0  0  0  0  0  0  0  0  0  0  0
    8.2379   -2.8022    9.3680 C   0  0  0  0  0  0  0  0  0  0  0  0
    8.2417   -4.2636    9.6280 C   0  0  0  0  0  0  0  0  0  0  0  0
    8.9832   -5.1553    8.8230 C   0  0  0  0  0  0  0  0  0  0  0  0
    8.9859   -6.5234    9.0641 C   0  0  0  0  0  0  0  0  0  0  0  0
    8.2397   -7.0604   10.1278 C   0  0  0  0  0  0  0  0  0  0  0  0
    8.3016   -8.4067   10.2859 O   0  0  0  0  0  0  0  0  0  0  0  0
    7.5849   -9.0119   11.3376 C   0  0  0  0  0  0  0  0  0  0  0  0
    7.4948   -6.1942   10.9420 C   0  0  0  0  0  0  0  0  0  0  0  0
    7.5045   -4.8195   10.6866 C   0  0  0  0  0  0  0  0  0  0  0  0
    8.1818   -1.8700   10.4214 C   0  0  0  0  0  0  0  0  0  0  0  0
    8.1732   -0.5051   10.1630 C   0  0  0  0  0  0  0  0  0  0  0  0
    8.2045    0.0086    8.8470 C   0  0  0  0  0  0  0  0  0  0  0  0
    8.1347    1.4697    8.7183 C   0  0  0  0  0  0  0  0  0  0  0  0
    7.6400    2.3004    7.7625 C   0  0  0  0  0  0  0  0  0  0  0  0
    4.2631    0.3982    2.3495 C   0  0  0  0  0  0  0  0  0  0  0  0
    3.5302    0.2525    1.1783 C   0  0  0  0  0  0  0  0  0  0  0  0
    1.5295    1.7958   -2.3800 H   0  0  0  0  0  0  0  0  0  0  0  0
    2.9733    2.7627   -1.9419 H   0  0  0  0  0  0  0  0  0  0  0  0
    1.4532    2.9395   -1.0021 H   0  0  0  0  0  0  0  0  0  0  0  0
    3.3736    3.5406    0.2543 H   0  0  0  0  0  0  0  0  0  0  0  0
    4.6755    3.7729    2.3155 H   0  0  0  0  0  0  0  0  0  0  0  0
    4.5917    3.7120    4.6299 H   0  0  0  0  0  0  0  0  0  0  0  0
    5.9043    3.9398    6.6932 H   0  0  0  0  0  0  0  0  0  0  0  0
    6.5833   -0.0025    3.7841 H   0  0  0  0  0  0  0  0  0  0  0  0
    8.5495   -1.4323    3.7519 H   0  0  0  0  0  0  0  0  0  0  0  0
    7.4395   -2.2905    4.8520 H   0  0  0  0  0  0  0  0  0  0  0  0
    9.2022   -2.5121    4.9955 H   0  0  0  0  0  0  0  0  0  0  0  0
   10.3716    0.8598    4.7731 H   0  0  0  0  0  0  0  0  0  0  0  0
   11.0318   -0.2359    6.0190 H   0  0  0  0  0  0  0  0  0  0  0  0
   10.3482    1.3416    6.4891 H   0  0  0  0  0  0  0  0  0  0  0  0
    8.3500   -3.0014    7.2330 H   0  0  0  0  0  0  0  0  0  0  0  0
    9.5921   -4.7636    8.0050 H   0  0  0  0  0  0  0  0  0  0  0  0
    9.5707   -7.2067    8.4447 H   0  0  0  0  0  0  0  0  0  0  0  0
    7.7854  -10.0899   11.2742 H   0  0  0  0  0  0  0  0  0  0  0  0
    6.4962   -8.8456   11.2441 H   0  0  0  0  0  0  0  0  0  0  0  0
    7.9152   -8.6447   12.3264 H   0  0  0  0  0  0  0  0  0  0  0  0
    6.8964   -6.5757   11.7697 H   0  0  0  0  0  0  0  0  0  0  0  0
    6.8965   -4.1683   11.3189 H   0  0  0  0  0  0  0  0  0  0  0  0
    8.1707   -2.2193   11.4565 H   0  0  0  0  0  0  0  0  0  0  0  0
    8.1323    0.1950   11.0024 H   0  0  0  0  0  0  0  0  0  0  0  0
    8.4679    1.9874    9.6254 H   0  0  0  0  0  0  0  0  0  0  0  0
    7.6515    3.3590    8.0470 H   0  0  0  0  0  0  0  0  0  0  0  0
    4.4890   -0.4901    2.9439 H   0  0  0  0  0  0  0  0  0  0  0  0
    3.1926   -0.7291    0.8396 H   0  0  0  0  0  0  0  0  0  0  0  0
  1  2  1  0
  1 34  1  0
  1 35  1  0
  1 36  1  0
  2  3  1  0
  3  4  2  0
  3 33  1  0
  4  5  1  0
  4 37  1  0
  5  6  2  0
  5 38  1  0
  6  7  1  0
  6 32  1  0
  7  8  2  0
  7 12  1  0
  8  9  1  0
  8 39  1  0
  9 10  2  0
  9 40  1  0
 10 11  1  0
 10 31  1  0
 11 12  2  0
 11 13  1  0
 12 41  1  0
 13 14  1  6
 13 15  1  0
 13 16  1  0
 14 42  1  0
 14 43  1  0
 14 44  1  0
 15 45  1  0
 15 46  1  0
 15 47  1  0
 16 17  1  0
 16 29  2  0
 17 18  2  0
 17 48  1  0
 18 19  1  0
 18 27  1  0
 19 20  2  0
 19 26  1  0
 20 21  1  0
 20 49  1  0
 21 22  2  0
 21 50  1  0
 22 23  1  0
 22 25  1  0
 23 24  1  0
 24 51  1  0
 24 52  1  0
 24 53  1  0
 25 26  2  0
 25 54  1  0
 26 55  1  0
 27 28  2  0
 27 56  1  0
 28 29  1  0
 28 57  1  0
 29 30  1  0
 30 31  2  0
 30 58  1  0
 31 59  1  0
 32 33  2  0
 32 60  1  0
 33 61  1  0
M  END

