
     RDKit          3D

 50 52  0  0  0  0  0  0  0  0999 V2000
    0.2149    0.4595    0.9251 C   0  0  0  0  0  0  0  0  0  0  0  0
    1.2083    1.1489    0.0056 C   0  0  0  0  0  0  0  0  0  0  0  0
    2.2384    1.8303    0.7501 O   0  0  0  0  0  0  0  0  0  0  0  0
    3.3126    1.1135    1.1326 C   0  0  0  0  0  0  0  0  0  0  0  0
    3.4597   -0.0557    0.8682 O   0  0  0  0  0  0  0  0  0  0  0  0
    4.2829    1.9470    1.9720 C   0  0  1  0  0  0  0  0  0  0  0  0
    5.6400    1.2397    2.1217 C   0  0  0  0  0  0  0  0  0  0  0  0
    6.4700    1.3258    0.8369 C   0  0  0  0  0  0  0  0  0  0  0  0
    6.6071    2.7121    0.3835 N   0  0  0  0  0  0  0  0  0  0  0  0
    7.8600    3.2121    0.1310 C   0  0  0  0  0  0  0  0  0  0  0  0
    8.8755    2.5652    0.3064 O   0  0  0  0  0  0  0  0  0  0  0  0
    7.9150    4.6668   -0.3818 C   0  0  0  0  0  0  0  0  0  0  0  0
    9.6043    5.2227   -0.7680 S   0  0  0  0  0  0  0  0  0  0  0  0
    9.7630    4.4191   -2.3105 C   0  0  0  0  0  0  0  0  0  0  0  0
    8.8687    3.7939   -3.0106 N   0  0  0  0  0  0  0  0  0  0  0  0
    9.5146    3.3697   -4.1657 N   0  0  0  0  0  0  0  0  0  0  0  0
   10.7398    3.7720   -4.0829 C   0  0  0  0  0  0  0  0  0  0  0  0
   11.8602    3.5609   -5.0421 C   0  0  0  0  0  0  0  0  0  0  0  0
   12.9211    2.5894   -4.5433 C   0  0  0  0  0  0  0  0  0  0  0  0
   12.5681    1.2803   -4.1793 C   0  0  0  0  0  0  0  0  0  0  0  0
   13.5394    0.3802   -3.7367 C   0  0  0  0  0  0  0  0  0  0  0  0
   14.8789    0.7757   -3.6516 C   0  0  0  0  0  0  0  0  0  0  0  0
   15.2387    2.0768   -4.0105 C   0  0  0  0  0  0  0  0  0  0  0  0
   14.2639    2.9776   -4.4519 C   0  0  0  0  0  0  0  0  0  0  0  0
   10.9729    4.4522   -2.9184 O   0  0  0  0  0  0  0  0  0  0  0  0
    5.3400    3.4039    0.1735 C   0  0  0  0  0  0  0  0  0  0  0  0
    4.4799    3.3812    1.4435 C   0  0  0  0  0  0  0  0  0  0  0  0
   -0.6004    0.0176    0.3303 H   0  0  0  0  0  0  0  0  0  0  0  0
   -0.2273    1.1749    1.6360 H   0  0  0  0  0  0  0  0  0  0  0  0
    0.7012   -0.3495    1.4901 H   0  0  0  0  0  0  0  0  0  0  0  0
    0.7243    1.9394   -0.5860 H   0  0  0  0  0  0  0  0  0  0  0  0
    1.6817    0.4270   -0.6758 H   0  0  0  0  0  0  0  0  0  0  0  0
    3.7955    2.0125    2.9622 H   0  0  0  0  0  0  0  0  0  0  0  0
    5.4866    0.1831    2.3842 H   0  0  0  0  0  0  0  0  0  0  0  0
    6.1972    1.7143    2.9462 H   0  0  0  0  0  0  0  0  0  0  0  0
    5.9841    0.7325    0.0410 H   0  0  0  0  0  0  0  0  0  0  0  0
    7.4804    0.9273    0.9844 H   0  0  0  0  0  0  0  0  0  0  0  0
    7.5523    5.3694    0.3842 H   0  0  0  0  0  0  0  0  0  0  0  0
    7.3034    4.7906   -1.2855 H   0  0  0  0  0  0  0  0  0  0  0  0
   12.3259    4.5320   -5.2732 H   0  0  0  0  0  0  0  0  0  0  0  0
   11.4003    3.1856   -5.9692 H   0  0  0  0  0  0  0  0  0  0  0  0
   11.5216    0.9679   -4.2398 H   0  0  0  0  0  0  0  0  0  0  0  0
   13.2490   -0.6352   -3.4552 H   0  0  0  0  0  0  0  0  0  0  0  0
   15.6387    0.0712   -3.3040 H   0  0  0  0  0  0  0  0  0  0  0  0
   16.2822    2.3958   -3.9447 H   0  0  0  0  0  0  0  0  0  0  0  0
   14.5521    3.9960   -4.7284 H   0  0  0  0  0  0  0  0  0  0  0  0
    4.7909    2.9152   -0.6556 H   0  0  0  0  0  0  0  0  0  0  0  0
    5.5144    4.4400   -0.1376 H   0  0  0  0  0  0  0  0  0  0  0  0
    3.5080    3.8541    1.2436 H   0  0  0  0  0  0  0  0  0  0  0  0
    4.9850    3.9737    2.2248 H   0  0  0  0  0  0  0  0  0  0  0  0
  1  2  1  0
  1 28  1  0
  1 29  1  0
  1 30  1  0
  2  3  1  0
  2 31  1  0
  2 32  1  0
  3  4  1  0
  4  5  2  0
  4  6  1  0
  6  7  1  0
  6 27  1  0
  6 33  1  1
  7  8  1  0
  7 34  1  0
  7 35  1  0
  8  9  1  0
  8 36  1  0
  8 37  1  0
  9 10  1  0
  9 26  1  0
 10 11  2  0
 10 12  1  0
 12 13  1  0
 12 38  1  0
 12 39  1  0
 13 14  1  0
 14 15  2  0
 14 25  1  0
 15 16  1  0
 16 17  2  0
 17 18  1  0
 17 25  1  0
 18 19  1  0
 18 40  1  0
 18 41  1  0
 19 20  2  0
 19 24  1  0
 20 21  1  0
 20 42  1  0
 21 22  2  0
 21 43  1  0
 22 23  1  0
 22 44  1  0
 23 24  2  0
 23 45  1  0
 24 46  1  0
 26 27  1  0
 26 47  1  0
 26 48  1  0
 27 49  1  0
 27 50  1  0
M  END

