
     RDKit          3D

 31 32  0  0  0  0  0  0  0  0999 V2000
    1.1437    1.9620   -0.0440 C   0  0  0  0  0  0  0  0  0  0  0  0
    2.5873    1.8798   -0.0121 N   0  0  0  0  0  0  0  0  0  0  0  0
    3.2156    0.9478    0.7443 C   0  0  0  0  0  0  0  0  0  0  0  0
    2.6202    0.1287    1.4332 O   0  0  0  0  0  0  0  0  0  0  0  0
    4.7268    0.9649    0.6931 C   0  0  0  0  0  0  0  0  0  0  0  0
    5.4032    0.0359    1.4430 C   0  0  0  0  0  0  0  0  0  0  0  0
    6.8270   -0.0469    1.4697 C   0  0  0  0  0  0  0  0  0  0  0  0
    7.5523    0.8589    0.7147 C   0  0  0  0  0  0  0  0  0  0  0  0
    6.8773    1.7777   -0.0206 N   0  0  0  0  0  0  0  0  0  0  0  0
    7.3913    2.4582   -0.5767 H   0  0  0  0  0  0  0  0  0  0  0  0
    5.4786    1.9227   -0.1124 C   0  0  0  0  0  0  0  0  0  0  0  0
    5.0350    2.8155   -0.8316 O   0  0  0  0  0  0  0  0  0  0  0  0
    9.0554    0.8600    0.6544 C   0  0  0  0  0  0  0  0  0  0  0  0
    9.6832    0.2255    1.9060 C   0  0  2  0  0  0  0  0  0  0  0  0
   11.2052    0.1274    1.7861 C   0  0  0  0  0  0  0  0  0  0  0  0
    9.0312   -1.1381    2.1757 C   0  0  0  0  0  0  0  0  0  0  0  0
    7.5114   -1.0846    2.2829 C   0  0  0  0  0  0  0  0  0  0  0  0
    6.8919   -1.8676    2.9759 O   0  0  0  0  0  0  0  0  0  0  0  0
    0.8437    2.7619   -0.7349 H   0  0  0  0  0  0  0  0  0  0  0  0
    0.7286    2.1792    0.9549 H   0  0  0  0  0  0  0  0  0  0  0  0
    0.6951    1.0122   -0.3800 H   0  0  0  0  0  0  0  0  0  0  0  0
    3.1712    2.5190   -0.5512 H   0  0  0  0  0  0  0  0  0  0  0  0
    4.8219   -0.6712    2.0402 H   0  0  0  0  0  0  0  0  0  0  0  0
    9.4231    1.8909    0.5127 H   0  0  0  0  0  0  0  0  0  0  0  0
    9.3717    0.2938   -0.2436 H   0  0  0  0  0  0  0  0  0  0  0  0
    9.4460    0.8848    2.7612 H   0  0  0  0  0  0  0  0  0  0  0  0
   11.4969   -0.5243    0.9452 H   0  0  0  0  0  0  0  0  0  0  0  0
   11.6460   -0.2939    2.7029 H   0  0  0  0  0  0  0  0  0  0  0  0
   11.6608    1.1169    1.6189 H   0  0  0  0  0  0  0  0  0  0  0  0
    9.4128   -1.6014    3.0979 H   0  0  0  0  0  0  0  0  0  0  0  0
    9.2749   -1.8348    1.3497 H   0  0  0  0  0  0  0  0  0  0  0  0
  1  2  1  0
  1 19  1  0
  1 20  1  0
  1 21  1  0
  2  3  1  0
  2 22  1  0
  3  4  2  0
  3  5  1  0
  5  6  2  0
  5 11  1  0
  6  7  1  0
  6 23  1  0
  7  8  2  0
  7 17  1  0
  8  9  1  0
  8 13  1  0
  9 10  1  0
  9 11  1  0
 11 12  2  0
 13 14  1  0
 13 24  1  0
 13 25  1  0
 14 15  1  0
 14 16  1  0
 14 26  1  1
 15 27  1  0
 15 28  1  0
 15 29  1  0
 16 17  1  0
 16 30  1  0
 16 31  1  0
 17 18  2  0
M  END

