
     RDKit          3D

 39 42  0  0  0  0  0  0  0  0999 V2000
    4.5403   -0.1636   -0.6132 C   0  0  0  0  0  0  0  0  0  0  0  0
    3.3092   -0.2059    0.3108 C   0  0  1  0  0  0  0  0  0  0  0  0
    2.0548    0.3176   -0.4055 C   0  0  0  0  0  0  0  0  0  0  0  0
    3.0844   -1.5996    0.8394 C   0  0  0  0  0  0  0  0  0  0  0  0
    2.6634   -2.6320    0.1410 N   0  0  0  0  0  0  0  0  0  0  0  0
    2.6397   -3.7088    1.0001 C   0  0  0  0  0  0  0  0  0  0  0  0
    3.0490   -3.3163    2.2619 C   0  0  0  0  0  0  0  0  0  0  0  0
    3.3379   -1.9692    2.1326 N   0  0  0  0  0  0  0  0  0  0  0  0
    3.6694   -1.3605    2.8713 H   0  0  0  0  0  0  0  0  0  0  0  0
    3.1578   -4.0628    3.5547 C   0  0  0  0  0  0  0  0  0  0  0  0
    2.4853   -5.4479    3.4889 C   0  0  0  0  0  0  0  0  0  0  0  0
    3.1516   -6.3991    2.5180 C   0  0  0  0  0  0  0  0  0  0  0  0
    3.9254   -7.4615    3.0066 C   0  0  0  0  0  0  0  0  0  0  0  0
    4.5858   -8.3419    2.1457 C   0  0  0  0  0  0  0  0  0  0  0  0
    4.4807   -8.1562    0.7673 C   0  0  0  0  0  0  0  0  0  0  0  0
    3.7117   -7.1015    0.2666 C   0  0  0  0  0  0  0  0  0  0  0  0
    3.0329   -6.2175    1.1179 C   0  0  0  0  0  0  0  0  0  0  0  0
    2.2063   -5.0779    0.5647 C   0  0  1  0  0  0  0  0  0  0  0  0
    0.7017   -5.2982    0.3779 C   0  0  0  0  0  0  0  0  0  0  0  0
    1.6036   -5.1789   -0.8150 C   0  0  0  0  0  0  0  0  0  0  0  0
    4.7177    0.8582   -0.9866 H   0  0  0  0  0  0  0  0  0  0  0  0
    4.3872   -0.8287   -1.4772 H   0  0  0  0  0  0  0  0  0  0  0  0
    5.4486   -0.4994   -0.0882 H   0  0  0  0  0  0  0  0  0  0  0  0
    3.5109    0.4461    1.1807 H   0  0  0  0  0  0  0  0  0  0  0  0
    1.7932   -0.3484   -1.2418 H   0  0  0  0  0  0  0  0  0  0  0  0
    2.2242    1.3308   -0.8042 H   0  0  0  0  0  0  0  0  0  0  0  0
    1.1897    0.3549    0.2750 H   0  0  0  0  0  0  0  0  0  0  0  0
    2.6829   -3.4746    4.3621 H   0  0  0  0  0  0  0  0  0  0  0  0
    4.2173   -4.1889    3.8495 H   0  0  0  0  0  0  0  0  0  0  0  0
    1.4260   -5.3100    3.2148 H   0  0  0  0  0  0  0  0  0  0  0  0
    2.4997   -5.8915    4.4962 H   0  0  0  0  0  0  0  0  0  0  0  0
    4.0077   -7.6021    4.0888 H   0  0  0  0  0  0  0  0  0  0  0  0
    5.1802   -9.1643    2.5521 H   0  0  0  0  0  0  0  0  0  0  0  0
    4.9984   -8.8276    0.0772 H   0  0  0  0  0  0  0  0  0  0  0  0
    3.6470   -6.9556   -0.8133 H   0  0  0  0  0  0  0  0  0  0  0  0
    0.0406   -4.4613    0.6201 H   0  0  0  0  0  0  0  0  0  0  0  0
    0.3056   -6.2870    0.6281 H   0  0  0  0  0  0  0  0  0  0  0  0
    1.5811   -4.2508   -1.3888 H   0  0  0  0  0  0  0  0  0  0  0  0
    1.7902   -6.0811   -1.4014 H   0  0  0  0  0  0  0  0  0  0  0  0
  1  2  1  0
  1 21  1  0
  1 22  1  0
  1 23  1  0
  2  3  1  0
  2  4  1  0
  2 24  1  1
  3 25  1  0
  3 26  1  0
  3 27  1  0
  4  5  2  0
  4  8  1  0
  5  6  1  0
  6  7  2  0
  6 18  1  0
  7  8  1  0
  7 10  1  0
  8  9  1  0
 10 11  1  0
 10 28  1  0
 10 29  1  0
 11 12  1  0
 11 30  1  0
 11 31  1  0
 12 13  1  0
 12 17  2  0
 13 14  2  0
 13 32  1  0
 14 15  1  0
 14 33  1  0
 15 16  2  0
 15 34  1  0
 16 17  1  0
 16 35  1  0
 17 18  1  0
 18 19  1  1
 18 20  1  0
 19 20  1  0
 19 36  1  0
 19 37  1  0
 20 38  1  0
 20 39  1  0
M  END

