
     RDKit          3D

 46 48  0  0  0  0  0  0  0  0999 V2000
    5.5603   -1.2384   -3.2218 C   0  0  0  0  0  0  0  0  0  0  0  0
    4.4069   -0.4541   -2.5802 C   0  0  1  0  0  0  0  0  0  0  0  0
    3.0320   -1.1426   -2.7755 C   0  0  0  0  0  0  0  0  0  0  0  0
    2.8547   -2.3683   -1.8664 C   0  0  0  0  0  0  0  0  0  0  0  0
    3.1622   -2.0116   -0.4054 C   0  0  0  0  0  0  0  0  0  0  0  0
    4.5387   -1.3347   -0.3012 C   0  0  0  0  0  0  0  0  0  0  0  0
    4.6827   -0.1558   -1.1631 N   0  0  0  0  0  0  0  0  0  0  0  0
    4.0362    1.0613   -0.6791 C   0  0  0  0  0  0  0  0  0  0  0  0
    4.5720    1.5611    0.6670 C   0  0  0  0  0  0  0  0  0  0  0  0
    6.0953    1.7284    0.6911 C   0  0  0  0  0  0  0  0  0  0  0  0
    6.6134    2.0373    2.0165 N   0  0  0  0  0  0  0  0  0  0  0  0
    6.7784    1.0707    2.9685 C   0  0  0  0  0  0  0  0  0  0  0  0
    6.4310   -0.0920    2.8803 O   0  0  0  0  0  0  0  0  0  0  0  0
    7.5189    1.7268    4.1313 C   0  0  0  0  0  0  0  0  0  0  0  0
    7.4057    3.1440    3.8288 N   0  0  0  0  0  0  0  0  0  0  0  0
    7.2456    3.3045    2.3841 C   0  0  2  0  0  0  0  0  0  0  0  0
    6.4277    4.5273    2.0375 C   0  0  0  0  0  0  0  0  0  0  0  0
    5.1889    4.8667    2.6755 C   0  0  0  0  0  0  0  0  0  0  0  0
    4.6385    6.0194    2.1824 C   0  0  0  0  0  0  0  0  0  0  0  0
    5.6205    6.7174    0.9353 S   0  0  0  0  0  0  0  0  0  0  0  0
    6.7829    5.4451    1.0772 C   0  0  0  0  0  0  0  0  0  0  0  0
    5.4021   -1.3348   -4.3081 H   0  0  0  0  0  0  0  0  0  0  0  0
    5.6634   -2.2560   -2.8151 H   0  0  0  0  0  0  0  0  0  0  0  0
    6.5124   -0.7131   -3.0525 H   0  0  0  0  0  0  0  0  0  0  0  0
    4.3666    0.5201   -3.0964 H   0  0  0  0  0  0  0  0  0  0  0  0
    2.8981   -1.4199   -3.8353 H   0  0  0  0  0  0  0  0  0  0  0  0
    2.2359   -0.4120   -2.5466 H   0  0  0  0  0  0  0  0  0  0  0  0
    3.5322   -3.1786   -2.1915 H   0  0  0  0  0  0  0  0  0  0  0  0
    1.8318   -2.7691   -1.9663 H   0  0  0  0  0  0  0  0  0  0  0  0
    3.1407   -2.9126    0.2312 H   0  0  0  0  0  0  0  0  0  0  0  0
    2.3792   -1.3371   -0.0140 H   0  0  0  0  0  0  0  0  0  0  0  0
    5.3141   -2.0655   -0.5901 H   0  0  0  0  0  0  0  0  0  0  0  0
    4.7756   -1.0590    0.7367 H   0  0  0  0  0  0  0  0  0  0  0  0
    2.9294    0.9742   -0.5914 H   0  0  0  0  0  0  0  0  0  0  0  0
    4.2127    1.8413   -1.4407 H   0  0  0  0  0  0  0  0  0  0  0  0
    4.2878    0.8706    1.4759 H   0  0  0  0  0  0  0  0  0  0  0  0
    4.0871    2.5241    0.8980 H   0  0  0  0  0  0  0  0  0  0  0  0
    6.4043    2.5328    0.0055 H   0  0  0  0  0  0  0  0  0  0  0  0
    6.5641    0.7978    0.3376 H   0  0  0  0  0  0  0  0  0  0  0  0
    8.5554    1.3255    4.1394 H   0  0  0  0  0  0  0  0  0  0  0  0
    7.0513    1.4533    5.0908 H   0  0  0  0  0  0  0  0  0  0  0  0
    8.1513    3.7235    4.2025 H   0  0  0  0  0  0  0  0  0  0  0  0
    8.2186    3.3892    1.8432 H   0  0  0  0  0  0  0  0  0  0  0  0
    4.7534    4.2725    3.4790 H   0  0  0  0  0  0  0  0  0  0  0  0
    3.7124    6.5074    2.4841 H   0  0  0  0  0  0  0  0  0  0  0  0
    7.6723    5.4390    0.4474 H   0  0  0  0  0  0  0  0  0  0  0  0
  1  2  1  0
  1 22  1  0
  1 23  1  0
  1 24  1  0
  2  3  1  0
  2  7  1  0
  2 25  1  6
  3  4  1  0
  3 26  1  0
  3 27  1  0
  4  5  1  0
  4 28  1  0
  4 29  1  0
  5  6  1  0
  5 30  1  0
  5 31  1  0
  6  7  1  0
  6 32  1  0
  6 33  1  0
  7  8  1  0
  8  9  1  0
  8 34  1  0
  8 35  1  0
  9 10  1  0
  9 36  1  0
  9 37  1  0
 10 11  1  0
 10 38  1  0
 10 39  1  0
 11 12  1  0
 11 16  1  0
 12 13  2  0
 12 14  1  0
 14 15  1  0
 14 40  1  0
 14 41  1  0
 15 16  1  0
 15 42  1  0
 16 17  1  0
 16 43  1  6
 17 18  1  0
 17 21  2  0
 18 19  2  0
 18 44  1  0
 19 20  1  0
 19 45  1  0
 20 21  1  0
 21 46  1  0
M  END

