
     RDKit          3D

 43 44  0  0  0  0  0  0  0  0999 V2000
    1.2267   -0.2686    0.8855 C   0  0  0  0  0  0  0  0  0  0  0  0
    2.6448   -0.1963    0.3716 C   0  0  0  0  0  0  0  0  0  0  0  0
    3.2893    1.0300    0.1738 C   0  0  0  0  0  0  0  0  0  0  0  0
    4.6023    1.0637   -0.3023 C   0  0  0  0  0  0  0  0  0  0  0  0
    5.3128   -0.1038   -0.5946 C   0  0  0  0  0  0  0  0  0  0  0  0
    6.7317   -0.0363   -1.1069 C   0  0  0  0  0  0  0  0  0  0  0  0
    4.6588   -1.3472   -0.3940 C   0  0  0  0  0  0  0  0  0  0  0  0
    5.3896   -2.5170   -0.6898 N   0  0  0  0  0  0  0  0  0  0  0  0
    4.9891   -3.8409   -0.5980 C   0  0  0  0  0  0  0  0  0  0  0  0
    3.8813   -4.2134   -0.2474 O   0  0  0  0  0  0  0  0  0  0  0  0
    5.9744   -4.7395   -0.9711 N   0  0  0  0  0  0  0  0  0  0  0  0
    5.7565   -6.1730   -0.8039 C   0  0  0  0  0  0  0  0  0  0  0  0
    4.8450   -6.7900   -1.8706 C   0  0  0  0  0  0  0  0  0  0  0  0
    5.3821   -6.6321   -3.2968 C   0  0  0  0  0  0  0  0  0  0  0  0
    4.4898   -7.1623   -4.3148 N   0  0  0  0  0  0  0  0  0  0  0  0
    4.4583   -8.4692   -4.7657 C   0  0  0  0  0  0  0  0  0  0  0  0
    3.4223   -8.5250   -5.6681 C   0  0  0  0  0  0  0  0  0  0  0  0
    2.8189   -7.2987   -5.7775 N   0  0  0  0  0  0  0  0  0  0  0  0
    3.4689   -6.4971   -4.9570 C   0  0  0  0  0  0  0  0  0  0  0  0
    3.1632   -5.0488   -4.7453 C   0  0  0  0  0  0  0  0  0  0  0  0
    3.3403   -1.3803    0.0834 C   0  0  0  0  0  0  0  0  0  0  0  0
    0.8027    0.7334    1.0475 H   0  0  0  0  0  0  0  0  0  0  0  0
    1.1760   -0.8159    1.8417 H   0  0  0  0  0  0  0  0  0  0  0  0
    0.5719   -0.8035    0.1777 H   0  0  0  0  0  0  0  0  0  0  0  0
    2.7661    1.9649    0.3910 H   0  0  0  0  0  0  0  0  0  0  0  0
    5.0948    2.0287   -0.4530 H   0  0  0  0  0  0  0  0  0  0  0  0
    7.0689    1.0064   -1.1903 H   0  0  0  0  0  0  0  0  0  0  0  0
    6.8375   -0.4885   -2.1106 H   0  0  0  0  0  0  0  0  0  0  0  0
    7.4438   -0.5525   -0.4369 H   0  0  0  0  0  0  0  0  0  0  0  0
    6.3137   -2.3542   -1.0665 H   0  0  0  0  0  0  0  0  0  0  0  0
    6.9331   -4.4192   -1.0260 H   0  0  0  0  0  0  0  0  0  0  0  0
    5.3173   -6.3683    0.1886 H   0  0  0  0  0  0  0  0  0  0  0  0
    6.7481   -6.6540   -0.8262 H   0  0  0  0  0  0  0  0  0  0  0  0
    3.8508   -6.3250   -1.7930 H   0  0  0  0  0  0  0  0  0  0  0  0
    4.7139   -7.8616   -1.6431 H   0  0  0  0  0  0  0  0  0  0  0  0
    6.3555   -7.1409   -3.3998 H   0  0  0  0  0  0  0  0  0  0  0  0
    5.5587   -5.5674   -3.5094 H   0  0  0  0  0  0  0  0  0  0  0  0
    5.1671   -9.2154   -4.4138 H   0  0  0  0  0  0  0  0  0  0  0  0
    3.0859   -9.3850   -6.2467 H   0  0  0  0  0  0  0  0  0  0  0  0
    2.2984   -4.7912   -5.3700 H   0  0  0  0  0  0  0  0  0  0  0  0
    4.0050   -4.3977   -5.0391 H   0  0  0  0  0  0  0  0  0  0  0  0
    2.9156   -4.8166   -3.6959 H   0  0  0  0  0  0  0  0  0  0  0  0
    2.8625   -2.3477    0.2244 H   0  0  0  0  0  0  0  0  0  0  0  0
  1  2  1  0
  1 22  1  0
  1 23  1  0
  1 24  1  0
  2  3  2  0
  2 21  1  0
  3  4  1  0
  3 25  1  0
  4  5  2  0
  4 26  1  0
  5  6  1  0
  5  7  1  0
  6 27  1  0
  6 28  1  0
  6 29  1  0
  7  8  1  0
  7 21  2  0
  8  9  1  0
  8 30  1  0
  9 10  2  0
  9 11  1  0
 11 12  1  0
 11 31  1  0
 12 13  1  0
 12 32  1  0
 12 33  1  0
 13 14  1  0
 13 34  1  0
 13 35  1  0
 14 15  1  0
 14 36  1  0
 14 37  1  0
 15 16  1  0
 15 19  1  0
 16 17  2  0
 16 38  1  0
 17 18  1  0
 17 39  1  0
 18 19  2  0
 19 20  1  0
 20 40  1  0
 20 41  1  0
 20 42  1  0
 21 43  1  0
M  END

