
     RDKit          3D

 28 28  0  0  0  0  0  0  0  0999 V2000
    0.9725    1.2705    0.9164 C   0  0  0  0  0  0  0  0  0  0  0  0
    2.4368    1.5371    1.1611 C   0  0  0  0  0  0  0  0  0  0  0  0
    2.8806    2.2395    2.0357 O   0  0  0  0  0  0  0  0  0  0  0  0
    3.2000    0.8851    0.2563 O   0  0  0  0  0  0  0  0  0  0  0  0
    4.6396    0.9747    0.3531 C   0  0  1  0  0  0  0  0  0  0  0  0
    5.1805   -0.2673    0.0715 O   0  0  0  0  0  0  0  0  0  0  0  0
    4.9718   -0.7397   -1.2625 C   0  0  0  0  0  0  0  0  0  0  0  0
    5.5111    0.2421   -2.2989 C   0  0  0  0  0  0  0  0  0  0  0  0
    4.9192    1.6397   -2.0720 C   0  0  0  0  0  0  0  0  0  0  0  0
    5.1488    2.0520   -0.6235 C   0  0  1  0  0  0  0  0  0  0  0  0
    6.2228    2.1778   -0.4179 H   0  0  0  0  0  0  0  0  0  0  0  0
    4.4787    3.2898   -0.3733 O   0  0  0  0  0  0  0  0  0  0  0  0
    5.0120    4.1139    0.5692 C   0  0  0  0  0  0  0  0  0  0  0  0
    4.0980    5.2773    0.8432 C   0  0  0  0  0  0  0  0  0  0  0  0
    6.0645    3.9005    1.1136 O   0  0  0  0  0  0  0  0  0  0  0  0
    0.3743    1.7501    1.7001 H   0  0  0  0  0  0  0  0  0  0  0  0
    0.7819    0.1869    0.8989 H   0  0  0  0  0  0  0  0  0  0  0  0
    0.6853    1.6690   -0.0693 H   0  0  0  0  0  0  0  0  0  0  0  0
    4.9054    1.2300    1.3870 H   0  0  0  0  0  0  0  0  0  0  0  0
    3.8940   -0.9204   -1.4245 H   0  0  0  0  0  0  0  0  0  0  0  0
    5.4911   -1.7072   -1.3142 H   0  0  0  0  0  0  0  0  0  0  0  0
    5.2757   -0.1227   -3.3123 H   0  0  0  0  0  0  0  0  0  0  0  0
    6.6111    0.2847   -2.2177 H   0  0  0  0  0  0  0  0  0  0  0  0
    3.8350    1.6345   -2.2730 H   0  0  0  0  0  0  0  0  0  0  0  0
    5.3739    2.3834   -2.7453 H   0  0  0  0  0  0  0  0  0  0  0  0
    3.3021    4.9211    1.5173 H   0  0  0  0  0  0  0  0  0  0  0  0
    3.6259    5.6395   -0.0806 H   0  0  0  0  0  0  0  0  0  0  0  0
    4.6580    6.0792    1.3397 H   0  0  0  0  0  0  0  0  0  0  0  0
  1  2  1  0
  1 16  1  0
  1 17  1  0
  1 18  1  0
  2  3  2  0
  2  4  1  0
  4  5  1  0
  5  6  1  0
  5 10  1  0
  5 19  1  1
  6  7  1  0
  7  8  1  0
  7 20  1  0
  7 21  1  0
  8  9  1  0
  8 22  1  0
  8 23  1  0
  9 10  1  0
  9 24  1  0
  9 25  1  0
 10 11  1  6
 10 12  1  0
 12 13  1  0
 13 14  1  0
 13 15  2  0
 14 26  1  0
 14 27  1  0
 14 28  1  0
M  END

