
     RDKit          3D

 38 40  0  0  0  0  0  0  0  0999 V2000
   -1.2322    1.9483   -1.4728 C   0  0  0  0  0  0  0  0  0  0  0  0
   -0.3439    2.2630   -2.6657 C   0  0  0  0  0  0  0  0  0  0  0  0
   -0.7709    2.1508   -3.8006 O   0  0  0  0  0  0  0  0  0  0  0  0
    1.0610    2.7120   -2.4137 C   0  0  0  0  0  0  0  0  0  0  0  0
    1.6140    2.8571   -1.1258 C   0  0  0  0  0  0  0  0  0  0  0  0
    2.9267    3.2772   -0.9542 C   0  0  0  0  0  0  0  0  0  0  0  0
    3.7349    3.5695   -2.0705 C   0  0  0  0  0  0  0  0  0  0  0  0
    4.9908    3.9843   -1.7893 O   0  0  0  0  0  0  0  0  0  0  0  0
    5.9285    4.3210   -2.8337 C   0  0  2  0  0  0  0  0  0  0  0  0
    6.5961    3.0585   -3.3852 C   0  0  0  0  0  0  0  0  0  0  0  0
    7.6004    2.4922   -2.3803 C   0  0  0  0  0  0  0  0  0  0  0  0
    8.7260    3.4985   -2.1340 C   0  0  0  0  0  0  0  0  0  0  0  0
    8.2216    4.9031   -1.8630 C   0  0  0  0  0  0  0  0  0  0  0  0
    9.0741    5.8524   -1.2730 C   0  0  0  0  0  0  0  0  0  0  0  0
    8.6516    7.1590   -1.0351 C   0  0  0  0  0  0  0  0  0  0  0  0
    7.3534    7.5458   -1.3878 C   0  0  0  0  0  0  0  0  0  0  0  0
    6.4987    6.6152   -1.9742 C   0  0  0  0  0  0  0  0  0  0  0  0
    6.9178    5.2975   -2.2196 C   0  0  0  0  0  0  0  0  0  0  0  0
    3.1959    3.4243   -3.3638 C   0  0  0  0  0  0  0  0  0  0  0  0
    1.8770    3.0036   -3.5184 C   0  0  0  0  0  0  0  0  0  0  0  0
   -2.2184    1.6388   -1.8414 H   0  0  0  0  0  0  0  0  0  0  0  0
   -1.3461    2.8287   -0.8196 H   0  0  0  0  0  0  0  0  0  0  0  0
   -0.8016    1.1403   -0.8593 H   0  0  0  0  0  0  0  0  0  0  0  0
    1.0144    2.6414   -0.2391 H   0  0  0  0  0  0  0  0  0  0  0  0
    3.3611    3.3961    0.0403 H   0  0  0  0  0  0  0  0  0  0  0  0
    5.3801    4.8442   -3.6346 H   0  0  0  0  0  0  0  0  0  0  0  0
    7.1108    3.3193   -4.3276 H   0  0  0  0  0  0  0  0  0  0  0  0
    5.8245    2.3161   -3.6409 H   0  0  0  0  0  0  0  0  0  0  0  0
    8.0148    1.5380   -2.7426 H   0  0  0  0  0  0  0  0  0  0  0  0
    7.0753    2.2755   -1.4348 H   0  0  0  0  0  0  0  0  0  0  0  0
    9.3845    3.5294   -3.0235 H   0  0  0  0  0  0  0  0  0  0  0  0
    9.3684    3.1707   -1.3001 H   0  0  0  0  0  0  0  0  0  0  0  0
   10.0882    5.5516   -0.9932 H   0  0  0  0  0  0  0  0  0  0  0  0
    9.3333    7.8776   -0.5724 H   0  0  0  0  0  0  0  0  0  0  0  0
    7.0118    8.5677   -1.2052 H   0  0  0  0  0  0  0  0  0  0  0  0
    5.4810    6.9085   -2.2480 H   0  0  0  0  0  0  0  0  0  0  0  0
    3.7942    3.6318   -4.2508 H   0  0  0  0  0  0  0  0  0  0  0  0
    1.4461    2.8870   -4.5150 H   0  0  0  0  0  0  0  0  0  0  0  0
  1  2  1  0
  1 21  1  0
  1 22  1  0
  1 23  1  0
  2  3  2  0
  2  4  1  0
  4  5  2  0
  4 20  1  0
  5  6  1  0
  5 24  1  0
  6  7  2  0
  6 25  1  0
  7  8  1  0
  7 19  1  0
  8  9  1  0
  9 10  1  0
  9 18  1  0
  9 26  1  6
 10 11  1  0
 10 27  1  0
 10 28  1  0
 11 12  1  0
 11 29  1  0
 11 30  1  0
 12 13  1  0
 12 31  1  0
 12 32  1  0
 13 14  2  0
 13 18  1  0
 14 15  1  0
 14 33  1  0
 15 16  2  0
 15 34  1  0
 16 17  1  0
 16 35  1  0
 17 18  2  0
 17 36  1  0
 19 20  2  0
 19 37  1  0
 20 38  1  0
M  END

