
     RDKit          3D

 34 35  0  0  0  0  0  0  0  0999 V2000
    0.3272   -0.3860    0.5069 C   0  0  0  0  0  0  0  0  0  0  0  0
    1.7892   -0.2356    0.1317 C   0  0  0  0  0  0  0  0  0  0  0  0
    2.5871   -0.6495    1.2279 O   0  0  0  0  0  0  0  0  0  0  0  0
    3.9781   -0.6172    0.9970 C   0  0  1  0  0  0  0  0  0  0  0  0
    4.5816    0.8012    0.8806 C   0  0  0  0  0  0  0  0  0  0  0  0
    5.4162    1.0031    0.0173 O   0  0  0  0  0  0  0  0  0  0  0  0
    4.2112    1.8917    1.8458 C   0  0  0  0  0  0  0  0  0  0  0  0
    3.2680    1.7589    2.8766 C   0  0  0  0  0  0  0  0  0  0  0  0
    2.9888    2.7528    3.7308 N   0  0  0  0  0  0  0  0  0  0  0  0
    3.6221    3.9087    3.5943 C   0  0  0  0  0  0  0  0  0  0  0  0
    4.5840    4.1560    2.5887 C   0  0  0  0  0  0  0  0  0  0  0  0
    5.1412    5.3873    2.5772 O   0  0  0  0  0  0  0  0  0  0  0  0
    6.1106    5.6871    1.5939 C   0  0  0  0  0  0  0  0  0  0  0  0
    4.8798    3.1225    1.7024 C   0  0  0  0  0  0  0  0  0  0  0  0
    4.6746   -1.3923    2.0980 C   0  0  1  0  0  0  0  0  0  0  0  0
    4.8488   -2.8830    1.9587 C   0  0  0  0  0  0  0  0  0  0  0  0
    6.0437   -1.9730    1.8466 C   0  0  0  0  0  0  0  0  0  0  0  0
   -0.3176   -0.1015   -0.3392 H   0  0  0  0  0  0  0  0  0  0  0  0
    0.0751    0.2554    1.3654 H   0  0  0  0  0  0  0  0  0  0  0  0
    0.1053   -1.4291    0.7806 H   0  0  0  0  0  0  0  0  0  0  0  0
    2.0119    0.8163   -0.1400 H   0  0  0  0  0  0  0  0  0  0  0  0
    2.0306   -0.8529   -0.7578 H   0  0  0  0  0  0  0  0  0  0  0  0
    4.2179   -1.0903    0.0245 H   0  0  0  0  0  0  0  0  0  0  0  0
    2.7131    0.8277    3.0054 H   0  0  0  0  0  0  0  0  0  0  0  0
    3.3867    4.7157    4.2987 H   0  0  0  0  0  0  0  0  0  0  0  0
    6.4227    6.7250    1.7690 H   0  0  0  0  0  0  0  0  0  0  0  0
    5.6967    5.6022    0.5733 H   0  0  0  0  0  0  0  0  0  0  0  0
    6.9923    5.0268    1.6752 H   0  0  0  0  0  0  0  0  0  0  0  0
    5.6112    3.2147    0.8992 H   0  0  0  0  0  0  0  0  0  0  0  0
    4.4751   -1.0118    3.1049 H   0  0  0  0  0  0  0  0  0  0  0  0
    4.4704   -3.3541    1.0467 H   0  0  0  0  0  0  0  0  0  0  0  0
    4.7391   -3.4958    2.8575 H   0  0  0  0  0  0  0  0  0  0  0  0
    6.4862   -1.8163    0.8585 H   0  0  0  0  0  0  0  0  0  0  0  0
    6.7658   -1.9523    2.6670 H   0  0  0  0  0  0  0  0  0  0  0  0
  1  2  1  0
  1 18  1  0
  1 19  1  0
  1 20  1  0
  2  3  1  0
  2 21  1  0
  2 22  1  0
  3  4  1  0
  4  5  1  0
  4 15  1  0
  4 23  1  6
  5  6  2  0
  5  7  1  0
  7  8  2  0
  7 14  1  0
  8  9  1  0
  8 24  1  0
  9 10  2  0
 10 11  1  0
 10 25  1  0
 11 12  1  0
 11 14  2  0
 12 13  1  0
 13 26  1  0
 13 27  1  0
 13 28  1  0
 14 29  1  0
 15 16  1  0
 15 17  1  0
 15 30  1  1
 16 17  1  0
 16 31  1  0
 16 32  1  0
 17 33  1  0
 17 34  1  0
M  END

