
     RDKit          3D

 46 47  0  0  0  0  0  0  0  0999 V2000
   10.7730   -0.5355   -4.2468 C   0  0  0  0  0  0  0  0  0  0  0  0
    9.5721    0.1915   -4.0897 O   0  0  0  0  0  0  0  0  0  0  0  0
    8.3856   -0.4374   -4.2280 C   0  0  0  0  0  0  0  0  0  0  0  0
    7.2370    0.3622   -4.0570 C   0  0  0  0  0  0  0  0  0  0  0  0
    5.9772   -0.1977   -4.1821 C   0  0  0  0  0  0  0  0  0  0  0  0
    5.8092   -1.5687   -4.4805 C   0  0  0  0  0  0  0  0  0  0  0  0
    4.4084   -2.0709   -4.6057 C   0  0  0  0  0  0  0  0  0  0  0  0
    3.4598   -1.3255   -4.4482 O   0  0  0  0  0  0  0  0  0  0  0  0
    4.1353   -3.5821   -4.9615 C   0  0  1  0  0  0  0  0  0  0  0  0
    4.8697   -4.4136   -4.0998 O   0  0  0  0  0  0  0  0  0  0  0  0
    4.5084   -4.3794   -2.7271 C   0  0  0  0  0  0  0  0  0  0  0  0
    2.7794   -3.8879   -4.7393 O   0  0  0  0  0  0  0  0  0  0  0  0
    1.7861   -3.4762   -5.6577 C   0  0  0  0  0  0  0  0  0  0  0  0
    4.5757   -3.9103   -6.3906 C   0  0  0  0  0  0  0  0  0  0  0  0
    4.5530   -2.9517   -7.4156 C   0  0  0  0  0  0  0  0  0  0  0  0
    4.8908   -3.2918   -8.7233 C   0  0  0  0  0  0  0  0  0  0  0  0
    5.2575   -4.6090   -9.0311 C   0  0  0  0  0  0  0  0  0  0  0  0
    5.5794   -4.8619  -10.3373 O   0  0  0  0  0  0  0  0  0  0  0  0
    5.9720   -6.1583  -10.7428 C   0  0  0  0  0  0  0  0  0  0  0  0
    6.2841   -6.1429  -12.2417 C   0  0  0  0  0  0  0  0  0  0  0  0
    6.6426   -7.1328  -12.8161 O   0  0  0  0  0  0  0  0  0  0  0  0
    6.1269   -4.9587  -12.8410 O   0  0  0  0  0  0  0  0  0  0  0  0
    5.2795   -5.5805   -8.0216 C   0  0  0  0  0  0  0  0  0  0  0  0
    4.9366   -5.2230   -6.7145 C   0  0  0  0  0  0  0  0  0  0  0  0
    6.9621   -2.3561   -4.6450 C   0  0  0  0  0  0  0  0  0  0  0  0
    8.2382   -1.8033   -4.5229 C   0  0  0  0  0  0  0  0  0  0  0  0
   11.5918    0.1796   -4.0933 H   0  0  0  0  0  0  0  0  0  0  0  0
   10.8594   -0.9684   -5.2591 H   0  0  0  0  0  0  0  0  0  0  0  0
   10.8605   -1.3465   -3.5024 H   0  0  0  0  0  0  0  0  0  0  0  0
    7.3727    1.4208   -3.8265 H   0  0  0  0  0  0  0  0  0  0  0  0
    5.0815    0.4128   -4.0529 H   0  0  0  0  0  0  0  0  0  0  0  0
    5.2048   -5.0531   -2.2088 H   0  0  0  0  0  0  0  0  0  0  0  0
    3.4754   -4.7252   -2.5750 H   0  0  0  0  0  0  0  0  0  0  0  0
    4.6116   -3.3661   -2.2981 H   0  0  0  0  0  0  0  0  0  0  0  0
    0.8251   -3.7902   -5.2249 H   0  0  0  0  0  0  0  0  0  0  0  0
    1.9032   -3.9668   -6.6404 H   0  0  0  0  0  0  0  0  0  0  0  0
    1.7702   -2.3839   -5.7905 H   0  0  0  0  0  0  0  0  0  0  0  0
    4.2680   -1.9195   -7.1991 H   0  0  0  0  0  0  0  0  0  0  0  0
    4.8772   -2.5449   -9.5196 H   0  0  0  0  0  0  0  0  0  0  0  0
    5.1753   -6.9027  -10.5678 H   0  0  0  0  0  0  0  0  0  0  0  0
    6.8773   -6.4987  -10.2096 H   0  0  0  0  0  0  0  0  0  0  0  0
    5.8312   -4.3183  -12.1678 H   0  0  0  0  0  0  0  0  0  0  0  0
    5.5589   -6.6123   -8.2368 H   0  0  0  0  0  0  0  0  0  0  0  0
    4.9548   -5.9743   -5.9242 H   0  0  0  0  0  0  0  0  0  0  0  0
    6.8676   -3.4197   -4.8584 H   0  0  0  0  0  0  0  0  0  0  0  0
    9.1089   -2.4451   -4.6572 H   0  0  0  0  0  0  0  0  0  0  0  0
  1  2  1  0
  1 27  1  0
  1 28  1  0
  1 29  1  0
  2  3  1  0
  3  4  2  0
  3 26  1  0
  4  5  1  0
  4 30  1  0
  5  6  2  0
  5 31  1  0
  6  7  1  0
  6 25  1  0
  7  8  2  0
  7  9  1  0
  9 10  1  1
  9 12  1  0
  9 14  1  0
 10 11  1  0
 11 32  1  0
 11 33  1  0
 11 34  1  0
 12 13  1  0
 13 35  1  0
 13 36  1  0
 13 37  1  0
 14 15  2  0
 14 24  1  0
 15 16  1  0
 15 38  1  0
 16 17  2  0
 16 39  1  0
 17 18  1  0
 17 23  1  0
 18 19  1  0
 19 20  1  0
 19 40  1  0
 19 41  1  0
 20 21  2  0
 20 22  1  0
 22 42  1  0
 23 24  2  0
 23 43  1  0
 24 44  1  0
 25 26  2  0
 25 45  1  0
 26 46  1  0
M  END

