
     RDKit          3D

 52 53  0  0  0  0  0  0  0  0999 V2000
    0.8225   -0.5225    0.0476 C   0  0  0  0  0  0  0  0  0  0  0  0
    2.3287   -0.2521   -0.0967 C   0  0  1  0  0  0  0  0  0  0  0  0
    3.1338   -1.5397   -0.3767 C   0  0  0  0  0  0  0  0  0  0  0  0
    3.0101   -2.0140   -1.8318 C   0  0  0  0  0  0  0  0  0  0  0  0
    3.4576   -0.9358   -2.8499 C   0  0  2  0  0  0  0  0  0  0  0  0
    4.9876   -0.6339   -2.8226 C   0  0  1  0  0  0  0  0  0  0  0  0
    5.8300   -1.9205   -2.7901 C   0  0  0  0  0  0  0  0  0  0  0  0
    5.4448    0.2299   -4.0107 C   0  0  0  0  0  0  0  0  0  0  0  0
    2.5199    0.2771   -2.5995 C   0  0  2  0  0  0  0  0  0  0  0  0
    2.7165    1.3797   -3.4927 O   0  0  0  0  0  0  0  0  0  0  0  0
    2.0731    1.2643   -4.7408 C   0  0  0  0  0  0  0  0  0  0  0  0
    0.5527    1.5059   -4.7051 C   0  0  0  0  0  0  0  0  0  0  0  0
   -0.2065    0.6798   -5.1852 O   0  0  0  0  0  0  0  0  0  0  0  0
    0.1011    2.6732   -4.1313 N   0  0  0  0  0  0  0  0  0  0  0  0
    0.9198    3.7652   -3.6185 C   0  0  0  0  0  0  0  0  0  0  0  0
    0.5486    5.0654   -4.3300 C   0  0  0  0  0  0  0  0  0  0  0  0
   -0.8474    5.3143   -4.2344 O   0  0  0  0  0  0  0  0  0  0  0  0
   -1.6469    4.2580   -4.7578 C   0  0  2  0  0  0  0  0  0  0  0  0
   -3.1204    4.6518   -4.5991 C   0  0  0  0  0  0  0  0  0  0  0  0
   -4.0154    3.8852   -4.8292 O   0  0  0  0  0  0  0  0  0  0  0  0
   -3.3132    5.9111   -4.1956 O   0  0  0  0  0  0  0  0  0  0  0  0
   -1.3328    2.9300   -4.0649 C   0  0  0  0  0  0  0  0  0  0  0  0
    2.6344    0.8154   -1.1711 C   0  0  0  0  0  0  0  0  0  0  0  0
    0.6301   -1.2395    0.8620 H   0  0  0  0  0  0  0  0  0  0  0  0
    0.3739   -0.9406   -0.8677 H   0  0  0  0  0  0  0  0  0  0  0  0
    0.2764    0.4048    0.2856 H   0  0  0  0  0  0  0  0  0  0  0  0
    2.6709    0.1533    0.8716 H   0  0  0  0  0  0  0  0  0  0  0  0
    2.8045   -2.3390    0.3088 H   0  0  0  0  0  0  0  0  0  0  0  0
    4.1966   -1.3579   -0.1411 H   0  0  0  0  0  0  0  0  0  0  0  0
    1.9598   -2.2779   -2.0444 H   0  0  0  0  0  0  0  0  0  0  0  0
    3.5777   -2.9441   -1.9781 H   0  0  0  0  0  0  0  0  0  0  0  0
    3.2348   -1.3305   -3.8588 H   0  0  0  0  0  0  0  0  0  0  0  0
    5.2191   -0.0709   -1.9008 H   0  0  0  0  0  0  0  0  0  0  0  0
    5.5825   -2.5797   -3.6405 H   0  0  0  0  0  0  0  0  0  0  0  0
    5.6949   -2.5015   -1.8660 H   0  0  0  0  0  0  0  0  0  0  0  0
    6.9017   -1.6764   -2.8664 H   0  0  0  0  0  0  0  0  0  0  0  0
    5.2151   -0.2694   -4.9686 H   0  0  0  0  0  0  0  0  0  0  0  0
    6.5357    0.3838   -3.9764 H   0  0  0  0  0  0  0  0  0  0  0  0
    4.9571    1.2117   -4.0155 H   0  0  0  0  0  0  0  0  0  0  0  0
    1.4887   -0.0955   -2.7464 H   0  0  0  0  0  0  0  0  0  0  0  0
    2.1972    0.2661   -5.1899 H   0  0  0  0  0  0  0  0  0  0  0  0
    2.5488    1.9946   -5.4175 H   0  0  0  0  0  0  0  0  0  0  0  0
    1.9861    3.5450   -3.7349 H   0  0  0  0  0  0  0  0  0  0  0  0
    0.7336    3.8838   -2.5344 H   0  0  0  0  0  0  0  0  0  0  0  0
    0.8462    5.0115   -5.3960 H   0  0  0  0  0  0  0  0  0  0  0  0
    1.0561    5.9244   -3.8667 H   0  0  0  0  0  0  0  0  0  0  0  0
   -1.4504    4.1459   -5.8437 H   0  0  0  0  0  0  0  0  0  0  0  0
   -2.4313    6.3052   -4.0478 H   0  0  0  0  0  0  0  0  0  0  0  0
   -1.8652    2.1073   -4.5549 H   0  0  0  0  0  0  0  0  0  0  0  0
   -1.6549    2.9861   -3.0089 H   0  0  0  0  0  0  0  0  0  0  0  0
    1.9465    1.6701   -1.0638 H   0  0  0  0  0  0  0  0  0  0  0  0
    3.6512    1.2166   -1.0254 H   0  0  0  0  0  0  0  0  0  0  0  0
  1  2  1  0
  1 24  1  0
  1 25  1  0
  1 26  1  0
  2  3  1  0
  2 23  1  0
  2 27  1  1
  3  4  1  0
  3 28  1  0
  3 29  1  0
  4  5  1  0
  4 30  1  0
  4 31  1  0
  5  6  1  0
  5  9  1  0
  5 32  1  6
  6  7  1  0
  6  8  1  0
  6 33  1  1
  7 34  1  0
  7 35  1  0
  7 36  1  0
  8 37  1  0
  8 38  1  0
  8 39  1  0
  9 10  1  0
  9 23  1  0
  9 40  1  1
 10 11  1  0
 11 12  1  0
 11 41  1  0
 11 42  1  0
 12 13  2  0
 12 14  1  0
 14 15  1  0
 14 22  1  0
 15 16  1  0
 15 43  1  0
 15 44  1  0
 16 17  1  0
 16 45  1  0
 16 46  1  0
 17 18  1  0
 18 19  1  0
 18 22  1  0
 18 47  1  6
 19 20  2  0
 19 21  1  0
 21 48  1  0
 22 49  1  0
 22 50  1  0
 23 51  1  0
 23 52  1  0
M  END

