
     RDKit          3D

 48 51  0  0  0  0  0  0  0  0999 V2000
    0.8156    0.6277    0.0105 O   0  0  0  0  0  0  0  0  0  0  0  0
    1.9259    0.1356   -0.1093 C   0  0  0  0  0  0  0  0  0  0  0  0
    2.4692   -0.7560    0.7737 N   0  0  0  0  0  0  0  0  0  0  0  0
    1.8910   -1.3143    1.9319 C   0  0  0  0  0  0  0  0  0  0  0  0
    2.6743   -2.2316    2.6582 C   0  0  0  0  0  0  0  0  0  0  0  0
    2.1766   -2.8293    3.8146 C   0  0  0  0  0  0  0  0  0  0  0  0
    0.8894   -2.5235    4.2679 C   0  0  0  0  0  0  0  0  0  0  0  0
    0.1126   -1.6128    3.5472 C   0  0  0  0  0  0  0  0  0  0  0  0
    0.5963   -1.0043    2.3860 C   0  0  0  0  0  0  0  0  0  0  0  0
    2.8073    0.5776   -1.2673 C   0  0  0  0  0  0  0  0  0  0  0  0
    2.4994    1.8529   -1.7643 C   0  0  0  0  0  0  0  0  0  0  0  0
    3.1891    2.4284   -2.8274 C   0  0  0  0  0  0  0  0  0  0  0  0
    2.7276    4.1088   -3.2496 S   0  0  1  0  0  0  0  0  0  0  0  0
    2.6871    4.2777   -4.7082 O   0  0  0  0  0  0  0  0  0  0  0  0
    1.5806    4.4799   -2.4210 O   0  0  0  0  0  0  0  0  0  0  0  0
    4.0671    5.0319   -2.7742 N   0  0  0  0  0  0  0  0  0  0  0  0
    4.2742    5.4038   -1.4512 C   0  0  0  0  0  0  0  0  0  0  0  0
    4.7290    4.6178   -0.5057 N   0  0  0  0  0  0  0  0  0  0  0  0
    4.7608    5.3358    0.6540 N   0  0  0  0  0  0  0  0  0  0  0  0
    4.3439    6.5464    0.3823 C   0  0  0  0  0  0  0  0  0  0  0  0
    3.9999    6.6619   -0.9412 N   0  0  0  0  0  0  0  0  0  0  0  0
    3.5026    7.8203   -1.6119 C   0  0  0  0  0  0  0  0  0  0  0  0
    4.2468    9.0078   -1.5775 C   0  0  0  0  0  0  0  0  0  0  0  0
    3.7612   10.1550   -2.2059 C   0  0  0  0  0  0  0  0  0  0  0  0
    2.5405   10.0908   -2.8765 C   0  0  0  0  0  0  0  0  0  0  0  0
    2.0762   11.1856   -3.4869 F   0  0  0  0  0  0  0  0  0  0  0  0
    1.7933    8.9149   -2.9272 C   0  0  0  0  0  0  0  0  0  0  0  0
    2.2721    7.7734   -2.2831 C   0  0  0  0  0  0  0  0  0  0  0  0
    4.2138    1.7206   -3.4981 C   0  0  0  0  0  0  0  0  0  0  0  0
    5.1862    2.2928   -4.8628 S   0  0  0  0  0  0  0  0  0  0  0  0
    4.5153    0.4382   -3.0185 C   0  0  0  0  0  0  0  0  0  0  0  0
    3.8423   -0.1136   -1.9274 C   0  0  0  0  0  0  0  0  0  0  0  0
    4.3354   -1.7406   -1.4831 Cl  0  0  0  0  0  0  0  0  0  0  0  0
    3.4012   -1.0925    0.5618 H   0  0  0  0  0  0  0  0  0  0  0  0
    3.6825   -2.4753    2.3099 H   0  0  0  0  0  0  0  0  0  0  0  0
    2.8010   -3.5385    4.3641 H   0  0  0  0  0  0  0  0  0  0  0  0
    0.4976   -2.9903    5.1747 H   0  0  0  0  0  0  0  0  0  0  0  0
   -0.8949   -1.3642    3.8911 H   0  0  0  0  0  0  0  0  0  0  0  0
   -0.0093   -0.2949    1.8279 H   0  0  0  0  0  0  0  0  0  0  0  0
    1.6895    2.4015   -1.2826 H   0  0  0  0  0  0  0  0  0  0  0  0
    4.4623    5.5735   -3.5391 H   0  0  0  0  0  0  0  0  0  0  0  0
    4.2590    7.3700    1.0899 H   0  0  0  0  0  0  0  0  0  0  0  0
    5.2098    9.0308   -1.0629 H   0  0  0  0  0  0  0  0  0  0  0  0
    4.3188   11.0931   -2.1916 H   0  0  0  0  0  0  0  0  0  0  0  0
    0.8399    8.9066   -3.4586 H   0  0  0  0  0  0  0  0  0  0  0  0
    1.6953    6.8467   -2.2975 H   0  0  0  0  0  0  0  0  0  0  0  0
    4.2921    3.2123   -5.3029 H   0  0  0  0  0  0  0  0  0  0  0  0
    5.2806   -0.1558   -3.5200 H   0  0  0  0  0  0  0  0  0  0  0  0
  1  2  2  0
  2  3  1  0
  2 10  1  0
  3  4  1  0
  3 34  1  0
  4  5  2  0
  4  9  1  0
  5  6  1  0
  5 35  1  0
  6  7  2  0
  6 36  1  0
  7  8  1  0
  7 37  1  0
  8  9  2  0
  8 38  1  0
  9 39  1  0
 10 11  2  0
 10 32  1  0
 11 12  1  0
 11 40  1  0
 12 13  1  0
 12 29  2  0
 13 14  2  0
 13 15  2  0
 13 16  1  1
 16 17  1  0
 16 41  1  0
 17 18  2  0
 17 21  1  0
 18 19  1  0
 19 20  2  0
 20 21  1  0
 20 42  1  0
 21 22  1  0
 22 23  2  0
 22 28  1  0
 23 24  1  0
 23 43  1  0
 24 25  2  0
 24 44  1  0
 25 26  1  0
 25 27  1  0
 27 28  2  0
 27 45  1  0
 28 46  1  0
 29 30  1  0
 29 31  1  0
 30 47  1  0
 31 32  2  0
 31 48  1  0
 32 33  1  0
M  END

