
     RDKit          3D

 43 46  0  0  0  0  0  0  0  0999 V2000
    3.0560   -1.1563   -0.9544 C   0  0  0  0  0  0  0  0  0  0  0  0
    4.5432   -1.0289   -0.8195 C   0  0  0  0  0  0  0  0  0  0  0  0
    5.1934    0.0264   -0.1858 C   0  0  0  0  0  0  0  0  0  0  0  0
    6.5876   -0.1984   -0.2589 C   0  0  0  0  0  0  0  0  0  0  0  0
    7.6857    0.6548    0.2844 C   0  0  0  0  0  0  0  0  0  0  0  0
    6.8112   -1.3527   -0.9126 N   0  0  0  0  0  0  0  0  0  0  0  0
    5.5836   -1.9101   -1.2825 C   0  0  0  0  0  0  0  0  0  0  0  0
    5.5373   -3.1300   -1.9838 C   0  0  0  0  0  0  0  0  0  0  0  0
    4.2128   -3.7079   -2.3697 C   0  0  0  0  0  0  0  0  0  0  0  0
    3.6236   -3.3836   -3.6007 C   0  0  0  0  0  0  0  0  0  0  0  0
    2.3864   -3.9204   -3.9688 C   0  0  0  0  0  0  0  0  0  0  0  0
    1.7289   -4.7923   -3.0956 C   0  0  0  0  0  0  0  0  0  0  0  0
   -0.1531   -5.6138   -3.6454 I   0  0  0  0  0  0  0  0  0  0  0  0
    2.2988   -5.1284   -1.8638 C   0  0  0  0  0  0  0  0  0  0  0  0
    3.5366   -4.5844   -1.5084 C   0  0  0  0  0  0  0  0  0  0  0  0
    6.7180   -3.8133   -2.3292 C   0  0  0  0  0  0  0  0  0  0  0  0
    6.9402   -5.0490   -3.0322 C   0  0  0  0  0  0  0  0  0  0  0  0
    5.9468   -6.0038   -3.6234 C   0  0  0  0  0  0  0  0  0  0  0  0
    8.3219   -5.2189   -3.0748 C   0  0  0  0  0  0  0  0  0  0  0  0
    8.9282   -4.1233   -2.4190 C   0  0  0  0  0  0  0  0  0  0  0  0
   10.3831   -3.8653   -2.2103 C   0  0  0  0  0  0  0  0  0  0  0  0
    7.9665   -3.2907   -1.9786 N   0  0  0  0  0  0  0  0  0  0  0  0
    8.2153   -1.9641   -1.2007 B   0  0  1  0  0  0  0  0  0  0  0  0
    8.9670   -1.0864   -1.9794 F   0  0  0  0  0  0  0  0  0  0  0  0
    8.8755   -2.2298   -0.0025 F   0  0  0  0  0  0  0  0  0  0  0  0
    2.6714   -2.0749   -0.4852 H   0  0  0  0  0  0  0  0  0  0  0  0
    2.7343   -1.1843   -2.0068 H   0  0  0  0  0  0  0  0  0  0  0  0
    2.5615   -0.2992   -0.4742 H   0  0  0  0  0  0  0  0  0  0  0  0
    4.7203    0.8845    0.2894 H   0  0  0  0  0  0  0  0  0  0  0  0
    8.3730    0.9585   -0.5204 H   0  0  0  0  0  0  0  0  0  0  0  0
    7.2755    1.5516    0.7679 H   0  0  0  0  0  0  0  0  0  0  0  0
    8.2888    0.0921    1.0144 H   0  0  0  0  0  0  0  0  0  0  0  0
    4.1383   -2.7021   -4.2826 H   0  0  0  0  0  0  0  0  0  0  0  0
    1.9428   -3.6575   -4.9307 H   0  0  0  0  0  0  0  0  0  0  0  0
    1.7866   -5.8090   -1.1814 H   0  0  0  0  0  0  0  0  0  0  0  0
    3.9825   -4.8466   -0.5458 H   0  0  0  0  0  0  0  0  0  0  0  0
    5.2521   -6.4028   -2.8686 H   0  0  0  0  0  0  0  0  0  0  0  0
    6.4723   -6.8545   -4.0814 H   0  0  0  0  0  0  0  0  0  0  0  0
    5.3273   -5.5311   -4.4011 H   0  0  0  0  0  0  0  0  0  0  0  0
    8.8561   -6.0500   -3.5328 H   0  0  0  0  0  0  0  0  0  0  0  0
   10.9867   -4.6707   -2.6496 H   0  0  0  0  0  0  0  0  0  0  0  0
   10.6102   -3.7849   -1.1356 H   0  0  0  0  0  0  0  0  0  0  0  0
   10.6736   -2.9040   -2.6623 H   0  0  0  0  0  0  0  0  0  0  0  0
  1  2  1  0
  1 26  1  0
  1 27  1  0
  1 28  1  0
  2  3  1  0
  2  7  2  0
  3  4  2  0
  3 29  1  0
  4  5  1  0
  4  6  1  0
  5 30  1  0
  5 31  1  0
  5 32  1  0
  6  7  1  0
  6 23  1  0
  7  8  1  0
  8  9  1  0
  8 16  2  0
  9 10  2  0
  9 15  1  0
 10 11  1  0
 10 33  1  0
 11 12  2  0
 11 34  1  0
 12 13  1  0
 12 14  1  0
 14 15  2  0
 14 35  1  0
 15 36  1  0
 16 17  1  0
 16 22  1  0
 17 18  1  0
 17 19  2  0
 18 37  1  0
 18 38  1  0
 18 39  1  0
 19 20  1  0
 19 40  1  0
 20 21  1  0
 20 22  2  0
 21 41  1  0
 21 42  1  0
 21 43  1  0
 22 23  1  0
 23 24  1  6
 23 25  1  0
M  CHG  2  22   1  23  -1
M  END

