
     RDKit          3D

 41 41  0  0  0  0  0  0  0  0999 V2000
    0.9278   -0.0741    0.3943 C   0  0  0  0  0  0  0  0  0  0  0  0
    2.4541    0.0464    0.3731 C   0  0  0  0  0  0  0  0  0  0  0  0
    3.1130   -0.8542    1.4163 C   0  0  0  0  0  0  0  0  0  0  0  0
    4.9519   -0.6894    1.3630 S   0  0  0  0  0  0  0  0  0  0  0  0
    5.4281   -2.1069    2.3495 C   0  0  0  0  0  0  0  0  0  0  0  0
    6.0362   -1.9313    3.5994 C   0  0  0  0  0  0  0  0  0  0  0  0
    6.4225   -3.0424    4.3530 C   0  0  0  0  0  0  0  0  0  0  0  0
    6.1804   -4.3444    3.8965 C   0  0  0  0  0  0  0  0  0  0  0  0
    6.4912   -5.4882    4.6564 N   0  0  0  0  0  0  0  0  0  0  0  0
    5.5291   -4.5172    2.6499 C   0  0  0  0  0  0  0  0  0  0  0  0
    5.1844   -5.8385    2.2873 N   0  0  0  0  0  0  0  0  0  0  0  0
    4.8846   -6.3121    1.0269 C   0  0  0  0  0  0  0  0  0  0  0  0
    5.1197   -5.7031    0.0037 O   0  0  0  0  0  0  0  0  0  0  0  0
    4.1755   -7.6688    1.0240 C   0  0  0  0  0  0  0  0  0  0  0  0
    2.7343   -7.5481    1.5182 C   0  0  0  0  0  0  0  0  0  0  0  0
    2.0995   -6.5335    0.7773 O   0  0  0  0  0  0  0  0  0  0  0  0
    0.8026   -6.2108    1.1864 C   0  0  0  0  0  0  0  0  0  0  0  0
    0.3567   -4.9875    0.4087 C   0  0  1  0  0  0  0  0  0  0  0  0
   -0.9632   -4.7708    0.6500 F   0  0  0  0  0  0  0  0  0  0  0  0
    1.0406   -3.8866    0.8230 F   0  0  0  0  0  0  0  0  0  0  0  0
    5.1987   -3.4049    1.8707 C   0  0  0  0  0  0  0  0  0  0  0  0
    0.4673    0.5469   -0.3906 H   0  0  0  0  0  0  0  0  0  0  0  0
    0.5123    0.2508    1.3628 H   0  0  0  0  0  0  0  0  0  0  0  0
    0.6109   -1.1174    0.2328 H   0  0  0  0  0  0  0  0  0  0  0  0
    2.7513    1.0960    0.5463 H   0  0  0  0  0  0  0  0  0  0  0  0
    2.8398   -0.2222   -0.6254 H   0  0  0  0  0  0  0  0  0  0  0  0
    2.8547   -1.9070    1.2269 H   0  0  0  0  0  0  0  0  0  0  0  0
    2.7650   -0.5993    2.4309 H   0  0  0  0  0  0  0  0  0  0  0  0
    6.2114   -0.9222    3.9777 H   0  0  0  0  0  0  0  0  0  0  0  0
    6.9190   -2.9005    5.3175 H   0  0  0  0  0  0  0  0  0  0  0  0
    6.9714   -5.2743    5.5258 H   0  0  0  0  0  0  0  0  0  0  0  0
    7.0262   -6.1814    4.1339 H   0  0  0  0  0  0  0  0  0  0  0  0
    5.0041   -6.4476    3.0810 H   0  0  0  0  0  0  0  0  0  0  0  0
    4.7092   -8.4023    1.6524 H   0  0  0  0  0  0  0  0  0  0  0  0
    4.1878   -8.0258   -0.0146 H   0  0  0  0  0  0  0  0  0  0  0  0
    2.7104   -7.3016    2.6005 H   0  0  0  0  0  0  0  0  0  0  0  0
    2.2069   -8.5171    1.3981 H   0  0  0  0  0  0  0  0  0  0  0  0
    0.7504   -5.9697    2.2676 H   0  0  0  0  0  0  0  0  0  0  0  0
    0.0839   -7.0312    0.9853 H   0  0  0  0  0  0  0  0  0  0  0  0
    0.5146   -5.1033   -0.6774 H   0  0  0  0  0  0  0  0  0  0  0  0
    4.7469   -3.5608    0.8928 H   0  0  0  0  0  0  0  0  0  0  0  0
  1  2  1  0
  1 22  1  0
  1 23  1  0
  1 24  1  0
  2  3  1  0
  2 25  1  0
  2 26  1  0
  3  4  1  0
  3 27  1  0
  3 28  1  0
  4  5  1  0
  5  6  2  0
  5 21  1  0
  6  7  1  0
  6 29  1  0
  7  8  2  0
  7 30  1  0
  8  9  1  0
  8 10  1  0
  9 31  1  0
  9 32  1  0
 10 11  1  0
 10 21  2  0
 11 12  1  0
 11 33  1  0
 12 13  2  0
 12 14  1  0
 14 15  1  0
 14 34  1  0
 14 35  1  0
 15 16  1  0
 15 36  1  0
 15 37  1  0
 16 17  1  0
 17 18  1  0
 17 38  1  0
 17 39  1  0
 18 19  1  0
 18 20  1  0
 18 40  1  6
 21 41  1  0
M  END

