
     RDKit          3D

 35 36  0  0  0  0  0  0  0  0999 V2000
    2.4747    0.4703    1.4358 C   0  0  0  0  0  0  0  0  0  0  0  0
    2.4481    0.2071   -0.0686 C   0  0  2  0  0  0  0  0  0  0  0  0
    1.3894    0.3066   -0.3726 H   0  0  0  0  0  0  0  0  0  0  0  0
    2.8123   -1.2675   -0.4126 C   0  0  2  0  0  0  0  0  0  0  0  0
    2.1297   -1.9111    0.1726 H   0  0  0  0  0  0  0  0  0  0  0  0
    4.2370   -1.6565   -0.0145 C   0  0  0  0  0  0  0  0  0  0  0  0
    5.1303   -0.8873    0.2201 O   0  0  0  0  0  0  0  0  0  0  0  0
    4.4714   -2.9888    0.0380 O   0  0  0  0  0  0  0  0  0  0  0  0
    2.5676   -1.5553   -1.9167 C   0  0  0  0  0  0  0  0  0  0  0  0
    3.2455   -0.5108   -2.8077 C   0  0  0  0  0  0  0  0  0  0  0  0
    2.8527    0.9013   -2.3676 C   0  0  0  0  0  0  0  0  0  0  0  0
    3.1746    1.1342   -0.9551 N   0  0  0  0  0  0  0  0  0  0  0  0
    4.3245    1.8631   -0.7169 C   0  0  0  0  0  0  0  0  0  0  0  0
    5.0559    2.2156   -1.6296 O   0  0  0  0  0  0  0  0  0  0  0  0
    4.6753    2.3452    0.6704 C   0  0  0  0  0  0  0  0  0  0  0  0
    5.9106    1.9977    1.2375 C   0  0  0  0  0  0  0  0  0  0  0  0
    6.3425    2.5584    2.4389 C   0  0  0  0  0  0  0  0  0  0  0  0
    5.5401    3.5116    3.0756 C   0  0  0  0  0  0  0  0  0  0  0  0
    6.0716    4.2322    4.5758 Cl  0  0  0  0  0  0  0  0  0  0  0  0
    4.3169    3.9012    2.5272 C   0  0  0  0  0  0  0  0  0  0  0  0
    3.9127    3.3085    1.3337 C   0  0  0  0  0  0  0  0  0  0  0  0
    2.7278    3.6814    0.8153 F   0  0  0  0  0  0  0  0  0  0  0  0
    3.4719    0.3526    1.8755 H   0  0  0  0  0  0  0  0  0  0  0  0
    1.7994   -0.2544    1.9185 H   0  0  0  0  0  0  0  0  0  0  0  0
    2.0962    1.4741    1.6638 H   0  0  0  0  0  0  0  0  0  0  0  0
    3.6644   -3.4878   -0.1525 H   0  0  0  0  0  0  0  0  0  0  0  0
    1.4774   -1.5336   -2.0901 H   0  0  0  0  0  0  0  0  0  0  0  0
    2.9026   -2.5731   -2.1790 H   0  0  0  0  0  0  0  0  0  0  0  0
    2.9583   -0.6694   -3.8603 H   0  0  0  0  0  0  0  0  0  0  0  0
    4.3428   -0.6055   -2.7552 H   0  0  0  0  0  0  0  0  0  0  0  0
    1.7642    1.0466   -2.4964 H   0  0  0  0  0  0  0  0  0  0  0  0
    3.3796    1.6542   -2.9631 H   0  0  0  0  0  0  0  0  0  0  0  0
    6.5258    1.2561    0.7273 H   0  0  0  0  0  0  0  0  0  0  0  0
    7.2970    2.2688    2.8799 H   0  0  0  0  0  0  0  0  0  0  0  0
    3.6850    4.6498    3.0053 H   0  0  0  0  0  0  0  0  0  0  0  0
  1  2  1  0
  1 23  1  0
  1 24  1  0
  1 25  1  0
  2  3  1  6
  2  4  1  0
  2 12  1  0
  4  5  1  1
  4  6  1  0
  4  9  1  0
  6  7  2  0
  6  8  1  0
  8 26  1  0
  9 10  1  0
  9 27  1  0
  9 28  1  0
 10 11  1  0
 10 29  1  0
 10 30  1  0
 11 12  1  0
 11 31  1  0
 11 32  1  0
 12 13  1  0
 13 14  2  0
 13 15  1  0
 15 16  2  0
 15 21  1  0
 16 17  1  0
 16 33  1  0
 17 18  2  0
 17 34  1  0
 18 19  1  0
 18 20  1  0
 20 21  2  0
 20 35  1  0
 21 22  1  0
M  END

