
     RDKit          3D

 46 52  0  0  0  0  0  0  0  0999 V2000
    3.2849    0.3437    1.1801 C   0  0  0  0  0  0  0  0  0  0  0  0
    2.6897    1.4077    0.5001 C   0  0  0  0  0  0  0  0  0  0  0  0
    1.3647    1.3150    0.0363 C   0  0  0  0  0  0  0  0  0  0  0  0
    0.7188    2.3931   -0.6647 C   0  0  0  0  0  0  0  0  0  0  0  0
   -0.5684    2.2832   -1.1024 C   0  0  0  0  0  0  0  0  0  0  0  0
   -1.3324    1.0833   -0.8843 C   0  0  0  0  0  0  0  0  0  0  0  0
   -2.6608    0.9493   -1.3263 C   0  0  0  0  0  0  0  0  0  0  0  0
   -3.3683   -0.2305   -1.1091 C   0  0  0  0  0  0  0  0  0  0  0  0
   -2.7797   -1.3097   -0.4381 C   0  0  0  0  0  0  0  0  0  0  0  0
   -3.5365   -2.5013   -0.2398 N   0  0  0  0  0  0  0  0  0  0  0  0
   -4.5658   -2.6647    0.6889 C   0  0  0  0  0  0  0  0  0  0  0  0
   -5.0355   -1.7678    1.6561 C   0  0  0  0  0  0  0  0  0  0  0  0
   -6.0830   -2.1884    2.4765 C   0  0  0  0  0  0  0  0  0  0  0  0
   -6.6505   -3.4703    2.3426 C   0  0  0  0  0  0  0  0  0  0  0  0
   -6.1764   -4.3606    1.3796 C   0  0  0  0  0  0  0  0  0  0  0  0
   -5.1251   -3.9637    0.5399 C   0  0  0  0  0  0  0  0  0  0  0  0
   -4.3996   -4.6075   -0.5389 C   0  0  0  0  0  0  0  0  0  0  0  0
   -4.4831   -5.8654   -1.1543 C   0  0  0  0  0  0  0  0  0  0  0  0
   -3.6158   -6.1679   -2.2035 C   0  0  0  0  0  0  0  0  0  0  0  0
   -2.6673   -5.2254   -2.6454 C   0  0  0  0  0  0  0  0  0  0  0  0
   -2.5615   -3.9671   -2.0514 C   0  0  0  0  0  0  0  0  0  0  0  0
   -3.4320   -3.6708   -0.9958 C   0  0  0  0  0  0  0  0  0  0  0  0
   -1.4502   -1.2188    0.0390 C   0  0  0  0  0  0  0  0  0  0  0  0
   -0.8060   -2.2889    0.7546 C   0  0  0  0  0  0  0  0  0  0  0  0
    0.4794   -2.1693    1.1960 C   0  0  0  0  0  0  0  0  0  0  0  0
    1.2465   -0.9741    0.9689 C   0  0  0  0  0  0  0  0  0  0  0  0
    2.5738   -0.8344    1.4140 C   0  0  0  0  0  0  0  0  0  0  0  0
    0.6293    0.1097    0.2690 C   0  0  0  0  0  0  0  0  0  0  0  0
   -0.7185   -0.0097   -0.1944 C   0  0  0  0  0  0  0  0  0  0  0  0
    4.3153    0.4344    1.5331 H   0  0  0  0  0  0  0  0  0  0  0  0
    3.2521    2.3282    0.3222 H   0  0  0  0  0  0  0  0  0  0  0  0
    1.2851    3.3118   -0.8401 H   0  0  0  0  0  0  0  0  0  0  0  0
   -1.0454    3.1123   -1.6318 H   0  0  0  0  0  0  0  0  0  0  0  0
   -3.1360    1.7802   -1.8539 H   0  0  0  0  0  0  0  0  0  0  0  0
   -4.3954   -0.3330   -1.4653 H   0  0  0  0  0  0  0  0  0  0  0  0
   -4.5963   -0.7743    1.7645 H   0  0  0  0  0  0  0  0  0  0  0  0
   -6.4687   -1.5074    3.2396 H   0  0  0  0  0  0  0  0  0  0  0  0
   -7.4695   -3.7680    3.0016 H   0  0  0  0  0  0  0  0  0  0  0  0
   -6.6181   -5.3554    1.2799 H   0  0  0  0  0  0  0  0  0  0  0  0
   -5.2206   -6.5981   -0.8167 H   0  0  0  0  0  0  0  0  0  0  0  0
   -3.6718   -7.1443   -2.6906 H   0  0  0  0  0  0  0  0  0  0  0  0
   -1.9992   -5.4825   -3.4715 H   0  0  0  0  0  0  0  0  0  0  0  0
   -1.8259   -3.2386   -2.3973 H   0  0  0  0  0  0  0  0  0  0  0  0
   -1.3689   -3.2042    0.9419 H   0  0  0  0  0  0  0  0  0  0  0  0
    0.9500   -2.9930    1.7395 H   0  0  0  0  0  0  0  0  0  0  0  0
    3.0451   -1.6632    1.9490 H   0  0  0  0  0  0  0  0  0  0  0  0
  1  2  2  0
  1 27  1  0
  1 30  1  0
  2  3  1  0
  2 31  1  0
  3  4  2  0
  3 28  1  0
  4  5  1  0
  4 32  1  0
  5  6  2  0
  5 33  1  0
  6  7  1  0
  6 29  1  0
  7  8  2  0
  7 34  1  0
  8  9  1  0
  8 35  1  0
  9 10  1  0
  9 23  2  0
 10 11  1  0
 10 22  1  0
 11 12  2  0
 11 16  1  0
 12 13  1  0
 12 36  1  0
 13 14  2  0
 13 37  1  0
 14 15  1  0
 14 38  1  0
 15 16  2  0
 15 39  1  0
 16 17  1  0
 17 18  1  0
 17 22  2  0
 18 19  2  0
 18 40  1  0
 19 20  1  0
 19 41  1  0
 20 21  2  0
 20 42  1  0
 21 22  1  0
 21 43  1  0
 23 24  1  0
 23 29  1  0
 24 25  2  0
 24 44  1  0
 25 26  1  0
 25 45  1  0
 26 27  2  0
 26 28  1  0
 27 46  1  0
 28 29  2  0
M  END

