
     RDKit          3D

 25 26  0  0  0  0  0  0  0  0999 V2000
    2.7688    2.3287   -0.5209 C   0  0  0  0  0  0  0  0  0  0  0  0
    3.0648    0.8694   -0.4163 C   0  0  0  0  0  0  0  0  0  0  0  0
    2.2110   -0.1913   -0.3677 C   0  0  0  0  0  0  0  0  0  0  0  0
    2.9638   -1.3401   -0.2715 O   0  0  0  0  0  0  0  0  0  0  0  0
    4.2283   -0.9030   -0.2700 C   0  0  0  0  0  0  0  0  0  0  0  0
    5.2849   -1.7882   -0.1717 N   0  0  0  0  0  0  0  0  0  0  0  0
    5.2399   -3.1674   -0.1579 C   0  0  0  0  0  0  0  0  0  0  0  0
    4.2029   -3.7964   -0.1890 O   0  0  0  0  0  0  0  0  0  0  0  0
    6.5684   -3.8959    0.0028 C   0  0  0  0  0  0  0  0  0  0  0  0
    6.4476   -5.1400    0.6458 C   0  0  0  0  0  0  0  0  0  0  0  0
    7.5526   -5.9523    0.8784 C   0  0  0  0  0  0  0  0  0  0  0  0
    8.8159   -5.5454    0.4515 C   0  0  0  0  0  0  0  0  0  0  0  0
    8.9647   -4.3249   -0.2119 C   0  0  0  0  0  0  0  0  0  0  0  0
   10.7062   -3.8379   -0.7992 Br  0  0  0  0  0  0  0  0  0  0  0  0
    7.8493   -3.4950   -0.4390 C   0  0  0  0  0  0  0  0  0  0  0  0
    8.0971   -1.9972   -1.3140 Cl  0  0  0  0  0  0  0  0  0  0  0  0
    4.3676    0.3865   -0.3516 N   0  0  0  0  0  0  0  0  0  0  0  0
    1.6861    2.5143   -0.5666 H   0  0  0  0  0  0  0  0  0  0  0  0
    3.2352    2.7567   -1.4231 H   0  0  0  0  0  0  0  0  0  0  0  0
    3.1803    2.8727    0.3449 H   0  0  0  0  0  0  0  0  0  0  0  0
    1.1332   -0.3159   -0.3891 H   0  0  0  0  0  0  0  0  0  0  0  0
    6.1876   -1.3230   -0.1992 H   0  0  0  0  0  0  0  0  0  0  0  0
    5.4468   -5.4481    0.9506 H   0  0  0  0  0  0  0  0  0  0  0  0
    7.4333   -6.9098    1.3901 H   0  0  0  0  0  0  0  0  0  0  0  0
    9.6940   -6.1705    0.6206 H   0  0  0  0  0  0  0  0  0  0  0  0
  1  2  1  0
  1 18  1  0
  1 19  1  0
  1 20  1  0
  2  3  2  0
  2 17  1  0
  3  4  1  0
  3 21  1  0
  4  5  1  0
  5  6  1  0
  5 17  2  0
  6  7  1  0
  6 22  1  0
  7  8  2  0
  7  9  1  0
  9 10  2  0
  9 15  1  0
 10 11  1  0
 10 23  1  0
 11 12  2  0
 11 24  1  0
 12 13  1  0
 12 25  1  0
 13 14  1  0
 13 15  2  0
 15 16  1  0
M  END

