
     RDKit          3D

 64 65  0  0  0  0  0  0  0  0999 V2000
    5.2603   -0.3647   -5.1214 C   0  0  0  0  0  0  0  0  0  0  0  0
    5.1589   -0.0991   -3.6188 C   0  0  0  0  0  0  0  0  0  0  0  0
    5.7329    1.2571   -3.1968 C   0  0  0  0  0  0  0  0  0  0  0  0
    5.6355    1.5311   -1.6930 C   0  0  0  0  0  0  0  0  0  0  0  0
    6.2144    2.8852   -1.2737 C   0  0  0  0  0  0  0  0  0  0  0  0
    6.1026    3.1400    0.2371 C   0  0  0  0  0  0  0  0  0  0  0  0
    6.6375    4.4260    0.6788 N   0  0  0  0  0  0  0  0  0  0  0  0
    5.7438    5.5851    0.6268 C   0  0  0  0  0  0  0  0  0  0  0  0
    4.3451    5.3701    1.2174 C   0  0  0  0  0  0  0  0  0  0  0  0
    4.3321    4.9583    2.6926 C   0  0  0  0  0  0  0  0  0  0  0  0
    2.9233    4.8114    3.2748 C   0  0  0  0  0  0  0  0  0  0  0  0
    2.9036    4.4071    4.7523 C   0  0  0  0  0  0  0  0  0  0  0  0
    1.4945    4.2596    5.3278 C   0  0  0  0  0  0  0  0  0  0  0  0
    8.0125    4.6117    0.7400 C   0  0  0  0  0  0  0  0  0  0  0  0
    8.9076    3.5082    0.8085 C   0  0  0  0  0  0  0  0  0  0  0  0
   10.2783    3.6855    0.9170 C   0  0  0  0  0  0  0  0  0  0  0  0
   10.8593    4.9729    0.9491 C   0  0  0  0  0  0  0  0  0  0  0  0
   12.2652    5.1508    1.0583 C   0  0  0  0  0  0  0  0  0  0  0  0
   13.4744    5.3030    1.1532 C   0  0  0  0  0  0  0  0  0  0  0  0
   14.8808    5.4798    1.2634 C   0  0  0  0  0  0  0  0  0  0  0  0
   15.7458    4.3618    1.3499 C   0  0  0  0  0  0  0  0  0  0  0  0
   17.1208    4.5319    1.4574 C   0  0  0  0  0  0  0  0  0  0  0  0
   17.6455    5.8272    1.4794 C   0  0  0  0  0  0  0  0  0  0  0  0
   19.1012    6.0101    1.5929 N   0  0  0  0  0  0  0  0  0  0  0  0
   19.7949    5.0064    1.6639 O   0  0  0  0  0  0  0  0  0  0  0  0
   19.5293    7.1548    1.6092 O   0  0  0  0  0  0  0  0  0  0  0  0
   16.8214    6.9531    1.3963 C   0  0  0  0  0  0  0  0  0  0  0  0
   15.4470    6.7777    1.2889 C   0  0  0  0  0  0  0  0  0  0  0  0
    9.9806    6.0730    0.8551 C   0  0  0  0  0  0  0  0  0  0  0  0
    8.6070    5.9028    0.7458 C   0  0  0  0  0  0  0  0  0  0  0  0
    4.8392   -1.3471   -5.3883 H   0  0  0  0  0  0  0  0  0  0  0  0
    6.3094   -0.3491   -5.4616 H   0  0  0  0  0  0  0  0  0  0  0  0
    4.7156    0.3991   -5.7016 H   0  0  0  0  0  0  0  0  0  0  0  0
    5.6811   -0.9014   -3.0661 H   0  0  0  0  0  0  0  0  0  0  0  0
    4.1010   -0.1591   -3.3038 H   0  0  0  0  0  0  0  0  0  0  0  0
    5.2112    2.0615   -3.7484 H   0  0  0  0  0  0  0  0  0  0  0  0
    6.7916    1.3188   -3.5102 H   0  0  0  0  0  0  0  0  0  0  0  0
    6.1553    0.7248   -1.1423 H   0  0  0  0  0  0  0  0  0  0  0  0
    4.5762    1.4703   -1.3798 H   0  0  0  0  0  0  0  0  0  0  0  0
    5.6939    3.6948   -1.8163 H   0  0  0  0  0  0  0  0  0  0  0  0
    7.2741    2.9466   -1.5760 H   0  0  0  0  0  0  0  0  0  0  0  0
    6.5935    2.3266    0.7928 H   0  0  0  0  0  0  0  0  0  0  0  0
    5.0472    3.0863    0.5357 H   0  0  0  0  0  0  0  0  0  0  0  0
    5.6468    5.9680   -0.4103 H   0  0  0  0  0  0  0  0  0  0  0  0
    6.2112    6.3893    1.2101 H   0  0  0  0  0  0  0  0  0  0  0  0
    3.7644    4.6485    0.6171 H   0  0  0  0  0  0  0  0  0  0  0  0
    3.8110    6.3298    1.1017 H   0  0  0  0  0  0  0  0  0  0  0  0
    4.8965    5.7062    3.2797 H   0  0  0  0  0  0  0  0  0  0  0  0
    4.8823    4.0094    2.8198 H   0  0  0  0  0  0  0  0  0  0  0  0
    2.3601    4.0632    2.6856 H   0  0  0  0  0  0  0  0  0  0  0  0
    2.3735    5.7632    3.1502 H   0  0  0  0  0  0  0  0  0  0  0  0
    3.4661    5.1554    5.3399 H   0  0  0  0  0  0  0  0  0  0  0  0
    3.4543    3.4566    4.8749 H   0  0  0  0  0  0  0  0  0  0  0  0
    0.9304    5.2048    5.2553 H   0  0  0  0  0  0  0  0  0  0  0  0
    1.5194    3.9687    6.3900 H   0  0  0  0  0  0  0  0  0  0  0  0
    0.9180    3.4909    4.7861 H   0  0  0  0  0  0  0  0  0  0  0  0
    8.5270    2.4886    0.7899 H   0  0  0  0  0  0  0  0  0  0  0  0
   10.9259    2.8081    0.9787 H   0  0  0  0  0  0  0  0  0  0  0  0
   15.3198    3.3572    1.3313 H   0  0  0  0  0  0  0  0  0  0  0  0
   17.7999    3.6824    1.5248 H   0  0  0  0  0  0  0  0  0  0  0  0
   17.2728    7.9446    1.4172 H   0  0  0  0  0  0  0  0  0  0  0  0
   14.7893    7.6462    1.2230 H   0  0  0  0  0  0  0  0  0  0  0  0
   10.3929    7.0846    0.8555 H   0  0  0  0  0  0  0  0  0  0  0  0
    7.9939    6.7964    0.6471 H   0  0  0  0  0  0  0  0  0  0  0  0
  1  2  1  0
  1 31  1  0
  1 32  1  0
  1 33  1  0
  2  3  1  0
  2 34  1  0
  2 35  1  0
  3  4  1  0
  3 36  1  0
  3 37  1  0
  4  5  1  0
  4 38  1  0
  4 39  1  0
  5  6  1  0
  5 40  1  0
  5 41  1  0
  6  7  1  0
  6 42  1  0
  6 43  1  0
  7  8  1  0
  7 14  1  0
  8  9  1  0
  8 44  1  0
  8 45  1  0
  9 10  1  0
  9 46  1  0
  9 47  1  0
 10 11  1  0
 10 48  1  0
 10 49  1  0
 11 12  1  0
 11 50  1  0
 11 51  1  0
 12 13  1  0
 12 52  1  0
 12 53  1  0
 13 54  1  0
 13 55  1  0
 13 56  1  0
 14 15  2  0
 14 30  1  0
 15 16  1  0
 15 57  1  0
 16 17  2  0
 16 58  1  0
 17 18  1  0
 17 29  1  0
 18 19  3  0
 19 20  1  0
 20 21  2  0
 20 28  1  0
 21 22  1  0
 21 59  1  0
 22 23  2  0
 22 60  1  0
 23 24  1  0
 23 27  1  0
 24 25  2  0
 24 26  1  0
 27 28  2  0
 27 61  1  0
 28 62  1  0
 29 30  2  0
 29 63  1  0
 30 64  1  0
M  CHG  2  24   1  26  -1
M  END

