
     RDKit          3D

 38 41  0  0  0  0  0  0  0  0999 V2000
    1.3028   -0.1999   -0.7744 C   0  0  0  0  0  0  0  0  0  0  0  0
    1.6766    0.0587    0.5610 O   0  0  0  0  0  0  0  0  0  0  0  0
    2.6061   -0.7163    1.1638 C   0  0  0  0  0  0  0  0  0  0  0  0
    2.9120   -0.4003    2.4975 C   0  0  0  0  0  0  0  0  0  0  0  0
    3.8567   -1.1540    3.1786 C   0  0  0  0  0  0  0  0  0  0  0  0
    4.5434   -2.2299    2.5809 C   0  0  0  0  0  0  0  0  0  0  0  0
    5.5522   -2.9730    3.3374 C   0  0  0  0  0  0  0  0  0  0  0  0
    5.7892   -4.3382    3.1529 N   0  0  0  0  0  0  0  0  0  0  0  0
    5.3932   -4.8812    2.3974 H   0  0  0  0  0  0  0  0  0  0  0  0
    6.7555   -4.8482    4.0190 C   0  0  0  0  0  0  0  0  0  0  0  0
    7.1778   -5.9762    4.0777 O   0  0  0  0  0  0  0  0  0  0  0  0
    7.0988   -3.7169    4.7843 N   0  0  0  0  0  0  0  0  0  0  0  0
    6.3852   -2.5779    4.3584 C   0  0  0  0  0  0  0  0  0  0  0  0
    6.8762   -1.4469    5.1300 C   0  0  0  0  0  0  0  0  0  0  0  0
    6.6019   -0.0716    5.1291 C   0  0  0  0  0  0  0  0  0  0  0  0
    7.3016    0.7514    6.0176 C   0  0  0  0  0  0  0  0  0  0  0  0
    8.2625    0.2339    6.9015 C   0  0  0  0  0  0  0  0  0  0  0  0
    8.5513   -1.1340    6.9013 C   0  0  0  0  0  0  0  0  0  0  0  0
    7.8596   -1.9561    6.0160 C   0  0  0  0  0  0  0  0  0  0  0  0
    8.0291   -3.4254    5.8152 C   0  0  0  0  0  0  0  0  0  0  0  0
    8.7677   -4.2014    6.3674 O   0  0  0  0  0  0  0  0  0  0  0  0
    4.2033   -2.5490    1.2413 C   0  0  0  0  0  0  0  0  0  0  0  0
    4.8471   -3.6107    0.6843 O   0  0  0  0  0  0  0  0  0  0  0  0
    4.6376   -3.9419   -0.6737 C   0  0  0  0  0  0  0  0  0  0  0  0
    3.2488   -1.7974    0.5396 C   0  0  0  0  0  0  0  0  0  0  0  0
    0.5443    0.5493   -1.0367 H   0  0  0  0  0  0  0  0  0  0  0  0
    0.8643   -1.2074   -0.8904 H   0  0  0  0  0  0  0  0  0  0  0  0
    2.1579   -0.0997   -1.4669 H   0  0  0  0  0  0  0  0  0  0  0  0
    2.3841    0.4251    2.9770 H   0  0  0  0  0  0  0  0  0  0  0  0
    4.0599   -0.9272    4.2260 H   0  0  0  0  0  0  0  0  0  0  0  0
    5.8698    0.3610    4.4463 H   0  0  0  0  0  0  0  0  0  0  0  0
    7.0944    1.8248    6.0208 H   0  0  0  0  0  0  0  0  0  0  0  0
    8.7879    0.9054    7.5846 H   0  0  0  0  0  0  0  0  0  0  0  0
    9.3021   -1.5649    7.5680 H   0  0  0  0  0  0  0  0  0  0  0  0
    5.2958   -4.7936   -0.8893 H   0  0  0  0  0  0  0  0  0  0  0  0
    4.9050   -3.1040   -1.3405 H   0  0  0  0  0  0  0  0  0  0  0  0
    3.5918   -4.2388   -0.8671 H   0  0  0  0  0  0  0  0  0  0  0  0
    3.0084   -2.0566   -0.4877 H   0  0  0  0  0  0  0  0  0  0  0  0
  1  2  1  0
  1 26  1  0
  1 27  1  0
  1 28  1  0
  2  3  1  0
  3  4  2  0
  3 25  1  0
  4  5  1  0
  4 29  1  0
  5  6  2  0
  5 30  1  0
  6  7  1  0
  6 22  1  0
  7  8  1  0
  7 13  2  0
  8  9  1  0
  8 10  1  0
 10 11  2  0
 10 12  1  0
 12 13  1  0
 12 20  1  0
 13 14  1  0
 14 15  2  0
 14 19  1  0
 15 16  1  0
 15 31  1  0
 16 17  2  0
 16 32  1  0
 17 18  1  0
 17 33  1  0
 18 19  2  0
 18 34  1  0
 19 20  1  0
 20 21  2  0
 22 23  1  0
 22 25  2  0
 23 24  1  0
 24 35  1  0
 24 36  1  0
 24 37  1  0
 25 38  1  0
M  END

