
     RDKit          3D

 67 70  0  0  0  0  0  0  0  0999 V2000
   -0.7203    0.2490    3.2775 C   0  0  0  0  0  0  0  0  0  0  0  0
   -1.0735    1.3226    4.2987 C   0  0  1  0  0  0  0  0  0  0  0  0
    0.0887    1.3796    5.7499 S   0  0  0  0  0  0  0  0  0  0  0  0
    1.6816    1.6895    4.9771 C   0  0  0  0  0  0  0  0  0  0  0  0
    2.6469    0.6723    4.9876 C   0  0  0  0  0  0  0  0  0  0  0  0
    3.9061    0.9172    4.4343 C   0  0  0  0  0  0  0  0  0  0  0  0
    4.2225    2.1488    3.8580 C   0  0  0  0  0  0  0  0  0  0  0  0
    3.2547    3.1698    3.8472 C   0  0  0  0  0  0  0  0  0  0  0  0
    3.4827    4.4490    3.2963 N   0  0  0  0  0  0  0  0  0  0  0  0
    4.6024    4.9195    2.6362 C   0  0  0  0  0  0  0  0  0  0  0  0
    5.6052    4.2652    2.4326 O   0  0  0  0  0  0  0  0  0  0  0  0
    4.4875    6.3782    2.2282 C   0  0  0  0  0  0  0  0  0  0  0  0
    4.8116    6.8431    0.9962 C   0  0  0  0  0  0  0  0  0  0  0  0
    5.1734    6.0807   -0.2045 C   0  0  0  0  0  0  0  0  0  0  0  0
    4.6896    4.7888   -0.5038 C   0  0  0  0  0  0  0  0  0  0  0  0
    5.0591    4.1352   -1.6741 C   0  0  0  0  0  0  0  0  0  0  0  0
    5.9174    4.7782   -2.5690 C   0  0  0  0  0  0  0  0  0  0  0  0
    6.3119    4.0875   -3.8098 N   0  0  0  0  0  0  0  0  0  0  0  0
    5.8701    2.9643   -3.9976 O   0  0  0  0  0  0  0  0  0  0  0  0
    7.0578    4.6799   -4.5746 O   0  0  0  0  0  0  0  0  0  0  0  0
    6.3974    6.0652   -2.3229 C   0  0  0  0  0  0  0  0  0  0  0  0
    6.0135    6.7087   -1.1507 C   0  0  0  0  0  0  0  0  0  0  0  0
    4.0767    7.2000    3.2954 N   0  0  0  0  0  0  0  0  0  0  0  0
    3.7114    8.5377    3.2664 C   0  0  0  0  0  0  0  0  0  0  0  0
    3.6368    9.1838    2.2368 O   0  0  0  0  0  0  0  0  0  0  0  0
    3.3829    9.1376    4.6071 C   0  0  0  0  0  0  0  0  0  0  0  0
    3.8627    8.6357    5.8290 C   0  0  0  0  0  0  0  0  0  0  0  0
    3.5269    9.2624    7.0316 C   0  0  0  0  0  0  0  0  0  0  0  0
    2.7089   10.3959    7.0257 C   0  0  0  0  0  0  0  0  0  0  0  0
    2.2382   10.9094    5.8120 C   0  0  0  0  0  0  0  0  0  0  0  0
    2.5797   10.2897    4.6103 C   0  0  0  0  0  0  0  0  0  0  0  0
    1.9931    2.9358    4.4211 C   0  0  0  0  0  0  0  0  0  0  0  0
   -1.3207    2.6945    3.6275 C   0  0  0  0  0  0  0  0  0  0  0  0
   -1.4601    2.7801    2.4213 O   0  0  0  0  0  0  0  0  0  0  0  0
   -1.4184    3.7490    4.5001 N   0  0  0  0  0  0  0  0  0  0  0  0
   -1.6787    5.1072    4.2313 C   0  0  0  0  0  0  0  0  0  0  0  0
   -1.9533    5.6025    2.9433 C   0  0  0  0  0  0  0  0  0  0  0  0
   -2.1975    6.9676    2.7695 C   0  0  0  0  0  0  0  0  0  0  0  0
   -2.1742    7.8525    3.8507 C   0  0  0  0  0  0  0  0  0  0  0  0
   -1.9017    7.3577    5.1300 C   0  0  0  0  0  0  0  0  0  0  0  0
   -1.6558    5.9987    5.3210 C   0  0  0  0  0  0  0  0  0  0  0  0
   -0.6654   -0.7361    3.7619 H   0  0  0  0  0  0  0  0  0  0  0  0
    0.2459    0.4611    2.7966 H   0  0  0  0  0  0  0  0  0  0  0  0
   -1.4825    0.2231    2.4860 H   0  0  0  0  0  0  0  0  0  0  0  0
   -2.0185    1.0536    4.8050 H   0  0  0  0  0  0  0  0  0  0  0  0
    2.4051   -0.2990    5.4227 H   0  0  0  0  0  0  0  0  0  0  0  0
    4.6607    0.1266    4.4404 H   0  0  0  0  0  0  0  0  0  0  0  0
    5.1987    2.3304    3.4154 H   0  0  0  0  0  0  0  0  0  0  0  0
    2.6748    5.0640    3.2942 H   0  0  0  0  0  0  0  0  0  0  0  0
    4.7874    7.9259    0.8725 H   0  0  0  0  0  0  0  0  0  0  0  0
    3.9935    4.2932    0.1733 H   0  0  0  0  0  0  0  0  0  0  0  0
    4.6883    3.1392   -1.9143 H   0  0  0  0  0  0  0  0  0  0  0  0
    7.0554    6.5389   -3.0508 H   0  0  0  0  0  0  0  0  0  0  0  0
    6.3780    7.7190   -0.9503 H   0  0  0  0  0  0  0  0  0  0  0  0
    4.0606    6.7568    4.2058 H   0  0  0  0  0  0  0  0  0  0  0  0
    4.5356    7.7740    5.8584 H   0  0  0  0  0  0  0  0  0  0  0  0
    3.9148    8.8695    7.9745 H   0  0  0  0  0  0  0  0  0  0  0  0
    2.4459   10.8848    7.9671 H   0  0  0  0  0  0  0  0  0  0  0  0
    1.6055   11.8003    5.8034 H   0  0  0  0  0  0  0  0  0  0  0  0
    2.2350   10.6830    3.6523 H   0  0  0  0  0  0  0  0  0  0  0  0
    1.2516    3.7372    4.4351 H   0  0  0  0  0  0  0  0  0  0  0  0
   -1.1950    3.5219    5.4662 H   0  0  0  0  0  0  0  0  0  0  0  0
   -1.9703    4.9155    2.1006 H   0  0  0  0  0  0  0  0  0  0  0  0
   -2.4103    7.3410    1.7643 H   0  0  0  0  0  0  0  0  0  0  0  0
   -2.3675    8.9170    3.6994 H   0  0  0  0  0  0  0  0  0  0  0  0
   -1.8804    8.0330    5.9892 H   0  0  0  0  0  0  0  0  0  0  0  0
   -1.4472    5.6179    6.3255 H   0  0  0  0  0  0  0  0  0  0  0  0
  1  2  1  0
  1 42  1  0
  1 43  1  0
  1 44  1  0
  2  3  1  0
  2 33  1  0
  2 45  1  1
  3  4  1  0
  4  5  2  0
  4 32  1  0
  5  6  1  0
  5 46  1  0
  6  7  2  0
  6 47  1  0
  7  8  1  0
  7 48  1  0
  8  9  1  0
  8 32  2  0
  9 10  1  0
  9 49  1  0
 10 11  2  0
 10 12  1  0
 12 13  2  0
 12 23  1  0
 13 14  1  0
 13 50  1  0
 14 15  2  0
 14 22  1  0
 15 16  1  0
 15 51  1  0
 16 17  2  0
 16 52  1  0
 17 18  1  0
 17 21  1  0
 18 19  2  0
 18 20  1  0
 21 22  2  0
 21 53  1  0
 22 54  1  0
 23 24  1  0
 23 55  1  0
 24 25  2  0
 24 26  1  0
 26 27  2  0
 26 31  1  0
 27 28  1  0
 27 56  1  0
 28 29  2  0
 28 57  1  0
 29 30  1  0
 29 58  1  0
 30 31  2  0
 30 59  1  0
 31 60  1  0
 32 61  1  0
 33 34  2  0
 33 35  1  0
 35 36  1  0
 35 62  1  0
 36 37  2  0
 36 41  1  0
 37 38  1  0
 37 63  1  0
 38 39  2  0
 38 64  1  0
 39 40  1  0
 39 65  1  0
 40 41  2  0
 40 66  1  0
 41 67  1  0
M  CHG  2  18   1  20  -1
M  END

