
     RDKit          3D

 20 20  0  0  0  0  0  0  0  0999 V2000
    0.8615   -0.3745    0.3974 C   0  0  0  0  0  0  0  0  0  0  0  0
    2.3517   -0.4391    0.6015 C   0  0  1  0  0  0  0  0  0  0  0  0
    2.6497   -1.3574    1.5765 F   0  0  0  0  0  0  0  0  0  0  0  0
    2.9610   -0.8837   -0.5446 F   0  0  0  0  0  0  0  0  0  0  0  0
    3.0059    0.9135    0.9992 C   0  0  0  0  0  0  0  0  0  0  0  0
    2.2942    1.8898    1.1114 O   0  0  0  0  0  0  0  0  0  0  0  0
    4.4801    0.9692    1.2294 C   0  0  0  0  0  0  0  0  0  0  0  0
    5.0257    2.2152    1.5891 C   0  0  0  0  0  0  0  0  0  0  0  0
    6.3902    2.3604    1.8235 C   0  0  0  0  0  0  0  0  0  0  0  0
    7.2265    1.2436    1.6973 C   0  0  0  0  0  0  0  0  0  0  0  0
    9.3086    1.4492    2.0519 I   0  0  0  0  0  0  0  0  0  0  0  0
    6.7066   -0.0050    1.3406 C   0  0  0  0  0  0  0  0  0  0  0  0
    5.3370   -0.1399    1.1078 C   0  0  0  0  0  0  0  0  0  0  0  0
    0.5036   -1.3766    0.1225 H   0  0  0  0  0  0  0  0  0  0  0  0
    0.6211    0.3385   -0.4018 H   0  0  0  0  0  0  0  0  0  0  0  0
    0.3685   -0.0437    1.3206 H   0  0  0  0  0  0  0  0  0  0  0  0
    4.3527    3.0700    1.6808 H   0  0  0  0  0  0  0  0  0  0  0  0
    6.7994    3.3330    2.1019 H   0  0  0  0  0  0  0  0  0  0  0  0
    7.3619   -0.8720    1.2435 H   0  0  0  0  0  0  0  0  0  0  0  0
    4.9433   -1.1166    0.8306 H   0  0  0  0  0  0  0  0  0  0  0  0
  1  2  1  0
  1 14  1  0
  1 15  1  0
  1 16  1  0
  2  3  1  1
  2  4  1  0
  2  5  1  0
  5  6  2  0
  5  7  1  0
  7  8  2  0
  7 13  1  0
  8  9  1  0
  8 17  1  0
  9 10  2  0
  9 18  1  0
 10 11  1  0
 10 12  1  0
 12 13  2  0
 12 19  1  0
 13 20  1  0
M  END

