
     RDKit          3D

 36 37  0  0  0  0  0  0  0  0999 V2000
    3.4202    0.9192    1.3091 C   0  0  0  0  0  0  0  0  0  0  0  0
    2.6243    0.1959    0.2121 C   0  0  0  0  0  0  0  0  0  0  0  0
    3.0624    0.5428   -1.1724 C   0  0  0  0  0  0  0  0  0  0  0  0
    2.9558    1.8750   -1.5034 O   0  0  0  0  0  0  0  0  0  0  0  0
    3.3980    2.0076   -2.7848 C   0  0  0  0  0  0  0  0  0  0  0  0
    3.4607    3.1885   -3.5202 C   0  0  0  0  0  0  0  0  0  0  0  0
    3.9504    3.0868   -4.8248 C   0  0  0  0  0  0  0  0  0  0  0  0
    4.3623    1.8477   -5.3559 C   0  0  0  0  0  0  0  0  0  0  0  0
    4.2949    0.6760   -4.6016 C   0  0  0  0  0  0  0  0  0  0  0  0
    3.7957    0.7547   -3.2899 C   0  0  0  0  0  0  0  0  0  0  0  0
    3.5622   -0.1923   -2.2143 C   0  0  0  0  0  0  0  0  0  0  0  0
    3.7909   -1.6744   -2.2757 C   0  0  0  0  0  0  0  0  0  0  0  0
    5.1345   -1.9893   -2.7463 N   0  0  0  0  0  0  0  0  0  0  0  0
    5.5085   -3.3978   -2.6982 C   0  0  1  0  0  0  0  0  0  0  0  0
    4.8152   -4.2189   -3.7874 C   0  0  0  0  0  0  0  0  0  0  0  0
    7.0259   -3.4907   -2.8395 C   0  0  0  0  0  0  0  0  0  0  0  0
    7.6181   -2.7525   -1.7852 O   0  0  0  0  0  0  0  0  0  0  0  0
    3.0366    0.6559    2.3072 H   0  0  0  0  0  0  0  0  0  0  0  0
    3.3457    2.0108    1.1914 H   0  0  0  0  0  0  0  0  0  0  0  0
    4.4870    0.6479    1.2695 H   0  0  0  0  0  0  0  0  0  0  0  0
    1.5525    0.4456    0.3166 H   0  0  0  0  0  0  0  0  0  0  0  0
    2.7018   -0.8944    0.3384 H   0  0  0  0  0  0  0  0  0  0  0  0
    3.1414    4.1402   -3.0913 H   0  0  0  0  0  0  0  0  0  0  0  0
    4.0187    3.9858   -5.4426 H   0  0  0  0  0  0  0  0  0  0  0  0
    4.7472    1.8089   -6.3783 H   0  0  0  0  0  0  0  0  0  0  0  0
    4.6372   -0.2811   -4.9981 H   0  0  0  0  0  0  0  0  0  0  0  0
    3.0594   -2.1175   -2.9761 H   0  0  0  0  0  0  0  0  0  0  0  0
    3.5686   -2.1278   -1.2837 H   0  0  0  0  0  0  0  0  0  0  0  0
    5.8148   -1.4713   -2.1896 H   0  0  0  0  0  0  0  0  0  0  0  0
    5.2517   -3.8468   -1.7094 H   0  0  0  0  0  0  0  0  0  0  0  0
    5.0555   -3.8189   -4.7859 H   0  0  0  0  0  0  0  0  0  0  0  0
    3.7211   -4.2008   -3.6729 H   0  0  0  0  0  0  0  0  0  0  0  0
    5.1304   -5.2738   -3.7439 H   0  0  0  0  0  0  0  0  0  0  0  0
    7.3138   -3.0829   -3.8285 H   0  0  0  0  0  0  0  0  0  0  0  0
    7.3288   -4.5560   -2.8077 H   0  0  0  0  0  0  0  0  0  0  0  0
    8.5509   -2.6126   -1.9868 H   0  0  0  0  0  0  0  0  0  0  0  0
  1  2  1  0
  1 18  1  0
  1 19  1  0
  1 20  1  0
  2  3  1  0
  2 21  1  0
  2 22  1  0
  3  4  1  0
  3 11  2  0
  4  5  1  0
  5  6  2  0
  5 10  1  0
  6  7  1  0
  6 23  1  0
  7  8  2  0
  7 24  1  0
  8  9  1  0
  8 25  1  0
  9 10  2  0
  9 26  1  0
 10 11  1  0
 11 12  1  0
 12 13  1  0
 12 27  1  0
 12 28  1  0
 13 14  1  0
 13 29  1  0
 14 15  1  0
 14 16  1  0
 14 30  1  1
 15 31  1  0
 15 32  1  0
 15 33  1  0
 16 17  1  0
 16 34  1  0
 16 35  1  0
 17 36  1  0
M  END

