
     RDKit          3D

 63 65  0  0  0  0  0  0  0  0999 V2000
   12.1274   -1.0993    9.3378 C   0  0  0  0  0  0  0  0  0  0  0  0
   11.6104   -1.7226    8.1821 O   0  0  0  0  0  0  0  0  0  0  0  0
   10.5287   -1.1794    7.5664 C   0  0  0  0  0  0  0  0  0  0  0  0
    9.8905    0.0019    7.9803 C   0  0  0  0  0  0  0  0  0  0  0  0
    8.7802    0.4732    7.2740 C   0  0  0  0  0  0  0  0  0  0  0  0
    8.2885   -0.1977    6.1450 C   0  0  0  0  0  0  0  0  0  0  0  0
    7.1024    0.3575    5.3790 C   0  0  0  0  0  0  0  0  0  0  0  0
    7.3643    1.6584    4.7714 N   0  0  0  0  0  0  0  0  0  0  0  0
    6.9627    2.8290    5.3496 C   0  0  0  0  0  0  0  0  0  0  0  0
    6.2693    2.8705    6.3541 O   0  0  0  0  0  0  0  0  0  0  0  0
    7.4439    4.1106    4.6691 C   0  0  0  0  0  0  0  0  0  0  0  0
    8.1642    5.0301    5.6653 C   0  0  0  0  0  0  0  0  0  0  0  0
    9.5214    4.4651    6.0934 C   0  0  0  0  0  0  0  0  0  0  0  0
   10.1807    5.2961    7.1092 N   0  0  0  0  0  0  0  0  0  0  0  0
   10.5287    6.6517    6.7924 C   0  0  0  0  0  0  0  0  0  0  0  0
   11.3651    6.9074    5.6947 C   0  0  0  0  0  0  0  0  0  0  0  0
   11.7010    8.2148    5.3481 C   0  0  0  0  0  0  0  0  0  0  0  0
   11.2108    9.2774    6.1071 C   0  0  0  0  0  0  0  0  0  0  0  0
   10.3799    9.0136    7.1982 C   0  0  0  0  0  0  0  0  0  0  0  0
    9.7921   10.3831    8.1245 Cl  0  0  0  0  0  0  0  0  0  0  0  0
   10.0007    7.7093    7.5714 C   0  0  0  0  0  0  0  0  0  0  0  0
    9.0844    7.4676    8.7382 C   0  0  0  0  0  0  0  0  0  0  0  0
   11.1019    4.5041    8.3009 S   0  0  1  0  0  0  0  0  0  0  0  0
   11.4684    5.5240    9.2826 O   0  0  0  0  0  0  0  0  0  0  0  0
   10.3469    3.3060    8.6777 O   0  0  0  0  0  0  0  0  0  0  0  0
   12.6158    3.9576    7.5027 C   0  0  0  0  0  0  0  0  0  0  0  0
   13.7404    4.7879    7.5285 C   0  0  0  0  0  0  0  0  0  0  0  0
   14.9092    4.3700    6.8890 C   0  0  0  0  0  0  0  0  0  0  0  0
   14.9771    3.1328    6.2276 C   0  0  0  0  0  0  0  0  0  0  0  0
   16.2520    2.6720    5.5662 C   0  0  0  0  0  0  0  0  0  0  0  0
   13.8325    2.3160    6.2250 C   0  0  0  0  0  0  0  0  0  0  0  0
   12.6555    2.7148    6.8595 C   0  0  0  0  0  0  0  0  0  0  0  0
    8.9400   -1.3749    5.7434 C   0  0  0  0  0  0  0  0  0  0  0  0
   10.0412   -1.8665    6.4418 C   0  0  0  0  0  0  0  0  0  0  0  0
   12.9771   -1.7115    9.6693 H   0  0  0  0  0  0  0  0  0  0  0  0
   11.3800   -1.0542   10.1501 H   0  0  0  0  0  0  0  0  0  0  0  0
   12.4833   -0.0742    9.1305 H   0  0  0  0  0  0  0  0  0  0  0  0
   10.2421    0.5746    8.8381 H   0  0  0  0  0  0  0  0  0  0  0  0
    8.2886    1.3857    7.6209 H   0  0  0  0  0  0  0  0  0  0  0  0
    6.2462    0.5104    6.0518 H   0  0  0  0  0  0  0  0  0  0  0  0
    6.7935   -0.3518    4.5942 H   0  0  0  0  0  0  0  0  0  0  0  0
    8.0306    1.7001    4.0095 H   0  0  0  0  0  0  0  0  0  0  0  0
    6.5454    4.6254    4.2916 H   0  0  0  0  0  0  0  0  0  0  0  0
    8.0819    3.8937    3.7950 H   0  0  0  0  0  0  0  0  0  0  0  0
    7.5235    5.1478    6.5528 H   0  0  0  0  0  0  0  0  0  0  0  0
    8.2964    6.0272    5.2161 H   0  0  0  0  0  0  0  0  0  0  0  0
   10.1694    4.3318    5.2038 H   0  0  0  0  0  0  0  0  0  0  0  0
    9.3771    3.4733    6.5430 H   0  0  0  0  0  0  0  0  0  0  0  0
   11.7569    6.0693    5.1152 H   0  0  0  0  0  0  0  0  0  0  0  0
   12.3521    8.4094    4.4927 H   0  0  0  0  0  0  0  0  0  0  0  0
   11.4644   10.3104    5.8641 H   0  0  0  0  0  0  0  0  0  0  0  0
    8.2314    8.1617    8.7121 H   0  0  0  0  0  0  0  0  0  0  0  0
    9.6177    7.6358    9.6872 H   0  0  0  0  0  0  0  0  0  0  0  0
    8.7181    6.4350    8.7431 H   0  0  0  0  0  0  0  0  0  0  0  0
   13.6969    5.7415    8.0569 H   0  0  0  0  0  0  0  0  0  0  0  0
   15.7898    5.0179    6.9105 H   0  0  0  0  0  0  0  0  0  0  0  0
   16.9264    3.5145    5.3529 H   0  0  0  0  0  0  0  0  0  0  0  0
   16.0488    2.1448    4.6212 H   0  0  0  0  0  0  0  0  0  0  0  0
   16.7993    1.9682    6.2173 H   0  0  0  0  0  0  0  0  0  0  0  0
   13.8646    1.3439    5.7249 H   0  0  0  0  0  0  0  0  0  0  0  0
   11.7815    2.0608    6.8723 H   0  0  0  0  0  0  0  0  0  0  0  0
    8.5770   -1.9227    4.8681 H   0  0  0  0  0  0  0  0  0  0  0  0
   10.5464   -2.7845    6.1343 H   0  0  0  0  0  0  0  0  0  0  0  0
  1  2  1  0
  1 35  1  0
  1 36  1  0
  1 37  1  0
  2  3  1  0
  3  4  2  0
  3 34  1  0
  4  5  1  0
  4 38  1  0
  5  6  2  0
  5 39  1  0
  6  7  1  0
  6 33  1  0
  7  8  1  0
  7 40  1  0
  7 41  1  0
  8  9  1  0
  8 42  1  0
  9 10  2  0
  9 11  1  0
 11 12  1  0
 11 43  1  0
 11 44  1  0
 12 13  1  0
 12 45  1  0
 12 46  1  0
 13 14  1  0
 13 47  1  0
 13 48  1  0
 14 15  1  0
 23 14  1  6
 15 16  2  0
 15 21  1  0
 16 17  1  0
 16 49  1  0
 17 18  2  0
 17 50  1  0
 18 19  1  0
 18 51  1  0
 19 20  1  0
 19 21  2  0
 21 22  1  0
 22 52  1  0
 22 53  1  0
 22 54  1  0
 23 24  2  0
 23 25  2  0
 23 26  1  0
 26 27  2  0
 26 32  1  0
 27 28  1  0
 27 55  1  0
 28 29  2  0
 28 56  1  0
 29 30  1  0
 29 31  1  0
 30 57  1  0
 30 58  1  0
 30 59  1  0
 31 32  2  0
 31 60  1  0
 32 61  1  0
 33 34  2  0
 33 62  1  0
 34 63  1  0
M  END

