
     RDKit          3D

 57 60  0  0  0  0  0  0  0  0999 V2000
    6.4318   -2.0239   -5.8523 C   0  0  0  0  0  0  0  0  0  0  0  0
    6.9695   -2.6722   -4.5676 C   0  0  0  0  0  0  0  0  0  0  0  0
    5.8979   -2.9061   -3.5399 C   0  0  0  0  0  0  0  0  0  0  0  0
    5.8397   -2.4003   -2.2974 C   0  0  0  0  0  0  0  0  0  0  0  0
    4.7039   -2.7004   -1.3226 C   0  0  0  0  0  0  0  0  0  0  0  0
    3.6439   -3.5538   -1.8174 N   0  0  0  0  0  0  0  0  0  0  0  0
    3.5729   -4.9218   -1.6412 C   0  0  0  0  0  0  0  0  0  0  0  0
    2.4405   -5.4371   -2.2404 C   0  0  0  0  0  0  0  0  0  0  0  0
    1.9997   -6.8708   -2.2626 C   0  0  0  0  0  0  0  0  0  0  0  0
    2.1762   -7.5939   -3.6076 C   0  0  0  0  0  0  0  0  0  0  0  0
    1.4982   -8.5222   -3.9518 O   0  0  0  0  0  0  0  0  0  0  0  0
    3.1929   -7.1437   -4.3689 O   0  0  0  0  0  0  0  0  0  0  0  0
    1.7621   -4.3105   -2.8381 C   0  0  0  0  0  0  0  0  0  0  0  0
    0.5687   -4.1613   -3.5698 C   0  0  0  0  0  0  0  0  0  0  0  0
    0.1900   -2.8946   -3.9944 C   0  0  0  0  0  0  0  0  0  0  0  0
    0.9781   -1.7431   -3.7220 C   0  0  0  0  0  0  0  0  0  0  0  0
    0.5457   -0.4062   -4.2099 C   0  0  0  0  0  0  0  0  0  0  0  0
   -0.8148   -0.0331   -4.2281 C   0  0  0  0  0  0  0  0  0  0  0  0
   -1.1500    1.2371   -4.6918 C   0  0  0  0  0  0  0  0  0  0  0  0
   -0.2666    2.1349   -5.1328 N   0  0  0  0  0  0  0  0  0  0  0  0
    1.0291    1.7938   -5.1199 C   0  0  0  0  0  0  0  0  0  0  0  0
    1.9208    2.7536   -5.5480 N   0  0  0  0  0  0  0  0  0  0  0  0
    1.4759    0.5325   -4.6664 C   0  0  0  0  0  0  0  0  0  0  0  0
    2.1686   -1.8780   -2.9962 C   0  0  0  0  0  0  0  0  0  0  0  0
    2.5423   -3.1541   -2.5586 C   0  0  0  0  0  0  0  0  0  0  0  0
    6.8972   -1.5098   -1.7170 C   0  0  0  0  0  0  0  0  0  0  0  0
    7.9949   -2.0779   -1.0525 C   0  0  0  0  0  0  0  0  0  0  0  0
    8.9665   -1.2711   -0.4572 C   0  0  0  0  0  0  0  0  0  0  0  0
   10.3215   -2.0088    0.3633 Cl  0  0  0  0  0  0  0  0  0  0  0  0
    8.8602    0.1206   -0.5140 C   0  0  0  0  0  0  0  0  0  0  0  0
    7.7785    0.6964   -1.1792 C   0  0  0  0  0  0  0  0  0  0  0  0
    6.7907   -0.1022   -1.7766 C   0  0  0  0  0  0  0  0  0  0  0  0
    5.4099    0.6045   -2.6635 S   0  0  0  0  0  0  0  0  0  0  0  0
    7.2309   -1.9183   -6.6028 H   0  0  0  0  0  0  0  0  0  0  0  0
    6.0231   -1.0220   -5.6465 H   0  0  0  0  0  0  0  0  0  0  0  0
    5.6275   -2.6286   -6.3026 H   0  0  0  0  0  0  0  0  0  0  0  0
    7.7797   -2.0573   -4.1457 H   0  0  0  0  0  0  0  0  0  0  0  0
    7.4222   -3.6479   -4.8258 H   0  0  0  0  0  0  0  0  0  0  0  0
    5.0670   -3.5460   -3.8617 H   0  0  0  0  0  0  0  0  0  0  0  0
    4.2633   -1.7486   -0.9808 H   0  0  0  0  0  0  0  0  0  0  0  0
    5.1268   -3.1721   -0.4194 H   0  0  0  0  0  0  0  0  0  0  0  0
    4.3403   -5.4377   -1.0643 H   0  0  0  0  0  0  0  0  0  0  0  0
    0.9408   -6.9841   -1.9857 H   0  0  0  0  0  0  0  0  0  0  0  0
    2.5755   -7.4557   -1.5243 H   0  0  0  0  0  0  0  0  0  0  0  0
    3.5706   -6.3541   -3.9438 H   0  0  0  0  0  0  0  0  0  0  0  0
   -0.0504   -5.0293   -3.8104 H   0  0  0  0  0  0  0  0  0  0  0  0
   -0.7240   -2.7798   -4.5801 H   0  0  0  0  0  0  0  0  0  0  0  0
   -1.5905   -0.7077   -3.8632 H   0  0  0  0  0  0  0  0  0  0  0  0
   -2.2016    1.5495   -4.7080 H   0  0  0  0  0  0  0  0  0  0  0  0
    1.5027    3.5282   -6.0510 H   0  0  0  0  0  0  0  0  0  0  0  0
    2.8286    2.4519   -5.8778 H   0  0  0  0  0  0  0  0  0  0  0  0
    2.5405    0.2899   -4.6966 H   0  0  0  0  0  0  0  0  0  0  0  0
    2.7779   -1.0037   -2.7637 H   0  0  0  0  0  0  0  0  0  0  0  0
    8.0899   -3.1641   -1.0000 H   0  0  0  0  0  0  0  0  0  0  0  0
    9.6220    0.7473   -0.0475 H   0  0  0  0  0  0  0  0  0  0  0  0
    7.7095    1.7853   -1.2360 H   0  0  0  0  0  0  0  0  0  0  0  0
    5.5320    1.8534   -2.1593 H   0  0  0  0  0  0  0  0  0  0  0  0
  1  2  1  0
  1 34  1  0
  1 35  1  0
  1 36  1  0
  2  3  1  0
  2 37  1  0
  2 38  1  0
  3  4  2  0
  3 39  1  0
  4  5  1  0
  4 26  1  0
  5  6  1  0
  5 40  1  0
  5 41  1  0
  6  7  1  0
  6 25  1  0
  7  8  2  0
  7 42  1  0
  8  9  1  0
  8 13  1  0
  9 10  1  0
  9 43  1  0
  9 44  1  0
 10 11  2  0
 10 12  1  0
 12 45  1  0
 13 14  1  0
 13 25  2  0
 14 15  2  0
 14 46  1  0
 15 16  1  0
 15 47  1  0
 16 17  1  0
 16 24  2  0
 17 18  2  0
 17 23  1  0
 18 19  1  0
 18 48  1  0
 19 20  2  0
 19 49  1  0
 20 21  1  0
 21 22  1  0
 21 23  2  0
 22 50  1  0
 22 51  1  0
 23 52  1  0
 24 25  1  0
 24 53  1  0
 26 27  2  0
 26 32  1  0
 27 28  1  0
 27 54  1  0
 28 29  1  0
 28 30  2  0
 30 31  1  0
 30 55  1  0
 31 32  2  0
 31 56  1  0
 32 33  1  0
 33 57  1  0
M  END

