
     RDKit          3D

 38 39  0  0  0  0  0  0  0  0999 V2000
    2.3409   -1.2301    1.2254 N   0  0  0  0  0  0  0  0  0  0  0  0
    2.3527   -0.3040    0.2303 C   0  0  0  0  0  0  0  0  0  0  0  0
    3.0775    0.8986    0.4328 C   0  0  0  0  0  0  0  0  0  0  0  0
    3.1323    1.8739   -0.5495 C   0  0  0  0  0  0  0  0  0  0  0  0
    4.0396    3.3333   -0.2446 Cl  0  0  0  0  0  0  0  0  0  0  0  0
    2.4758    1.7196   -1.7829 C   0  0  0  0  0  0  0  0  0  0  0  0
    1.7647    0.5515   -1.9911 C   0  0  0  0  0  0  0  0  0  0  0  0
    1.6805   -0.4745   -1.0226 C   0  0  0  0  0  0  0  0  0  0  0  0
    0.8839   -1.6487   -1.4188 C   0  0  0  0  0  0  0  0  0  0  0  0
    0.3228   -1.7781   -2.4907 O   0  0  0  0  0  0  0  0  0  0  0  0
    0.8035   -2.6281   -0.4697 O   0  0  0  0  0  0  0  0  0  0  0  0
    0.1671   -3.8612   -0.8350 C   0  0  0  0  0  0  0  0  0  0  0  0
   -1.3476   -3.8529   -0.5846 C   0  0  0  0  0  0  0  0  0  0  0  0
   -1.8315   -4.5784    0.2720 O   0  0  0  0  0  0  0  0  0  0  0  0
   -2.0607   -3.0092   -1.3905 N   0  0  0  0  0  0  0  0  0  0  0  0
   -3.4617   -2.7395   -1.3925 C   0  0  0  0  0  0  0  0  0  0  0  0
   -3.8997   -1.9096   -2.1660 O   0  0  0  0  0  0  0  0  0  0  0  0
   -4.1918   -3.4725   -0.5161 N   0  0  0  0  0  0  0  0  0  0  0  0
   -5.6172   -3.2304   -0.3448 C   0  0  0  0  0  0  0  0  0  0  0  0
   -5.9550   -2.3691    0.8302 C   0  0  0  0  0  0  0  0  0  0  0  0
   -6.2855   -1.0478    0.9625 C   0  0  0  0  0  0  0  0  0  0  0  0
   -6.4491   -0.8092    2.3682 C   0  0  0  0  0  0  0  0  0  0  0  0
   -6.2011   -2.0030    2.9824 C   0  0  0  0  0  0  0  0  0  0  0  0
   -5.9020   -2.9541    2.0615 O   0  0  0  0  0  0  0  0  0  0  0  0
    2.7674   -1.0123    2.1143 H   0  0  0  0  0  0  0  0  0  0  0  0
    1.7696   -2.0584    1.1337 H   0  0  0  0  0  0  0  0  0  0  0  0
    3.6001    1.0556    1.3780 H   0  0  0  0  0  0  0  0  0  0  0  0
    2.5297    2.5006   -2.5409 H   0  0  0  0  0  0  0  0  0  0  0  0
    1.2374    0.3899   -2.9327 H   0  0  0  0  0  0  0  0  0  0  0  0
    0.5932   -4.6301   -0.1809 H   0  0  0  0  0  0  0  0  0  0  0  0
    0.3807   -4.0869   -1.8907 H   0  0  0  0  0  0  0  0  0  0  0  0
   -1.5390   -2.4613   -2.0788 H   0  0  0  0  0  0  0  0  0  0  0  0
   -3.6842   -4.0946    0.1136 H   0  0  0  0  0  0  0  0  0  0  0  0
   -6.1292   -4.2018   -0.2465 H   0  0  0  0  0  0  0  0  0  0  0  0
   -5.9799   -2.7407   -1.2574 H   0  0  0  0  0  0  0  0  0  0  0  0
   -6.3909   -0.3325    0.1495 H   0  0  0  0  0  0  0  0  0  0  0  0
   -6.7173    0.1266    2.8543 H   0  0  0  0  0  0  0  0  0  0  0  0
   -6.2045   -2.3246    4.0208 H   0  0  0  0  0  0  0  0  0  0  0  0
  1  2  1  0
  1 25  1  0
  1 26  1  0
  2  3  2  0
  2  8  1  0
  3  4  1  0
  3 27  1  0
  4  5  1  0
  4  6  2  0
  6  7  1  0
  6 28  1  0
  7  8  2  0
  7 29  1  0
  8  9  1  0
  9 10  2  0
  9 11  1  0
 11 12  1  0
 12 13  1  0
 12 30  1  0
 12 31  1  0
 13 14  2  0
 13 15  1  0
 15 16  1  0
 15 32  1  0
 16 17  2  0
 16 18  1  0
 18 19  1  0
 18 33  1  0
 19 20  1  0
 19 34  1  0
 19 35  1  0
 20 21  2  0
 20 24  1  0
 21 22  1  0
 21 36  1  0
 22 23  2  0
 22 37  1  0
 23 24  1  0
 23 38  1  0
M  END

