
     RDKit          3D

 37 38  0  0  0  0  0  0  0  0999 V2000
    2.8983   -1.5451   -1.9649 C   0  0  0  0  0  0  0  0  0  0  0  0
    2.4097   -0.5452   -0.9165 C   0  0  0  0  0  0  0  0  0  0  0  0
    3.0156    0.8615   -1.0608 C   0  0  1  0  0  0  0  0  0  0  0  0
    2.3936    1.8727   -0.0892 C   0  0  0  0  0  0  0  0  0  0  0  0
    4.4879    0.8391   -0.9647 N   0  0  0  0  0  0  0  0  0  0  0  0
    5.0766    0.2423    0.2198 C   0  0  0  0  0  0  0  0  0  0  0  0
    5.1987    1.5402   -1.9264 C   0  0  0  0  0  0  0  0  0  0  0  0
    4.6185    2.2531   -2.7421 O   0  0  0  0  0  0  0  0  0  0  0  0
    6.6798    1.4217   -1.9882 C   0  0  0  0  0  0  0  0  0  0  0  0
    7.5133    0.3780   -1.6265 C   0  0  0  0  0  0  0  0  0  0  0  0
    8.8084    0.6713   -1.9882 N   0  0  0  0  0  0  0  0  0  0  0  0
    9.6008    0.0599   -1.8457 H   0  0  0  0  0  0  0  0  0  0  0  0
    8.8560    1.9117   -2.5938 C   0  0  0  0  0  0  0  0  0  0  0  0
    9.9518    2.6191   -3.1062 C   0  0  0  0  0  0  0  0  0  0  0  0
    9.7117    3.8707   -3.6882 C   0  0  0  0  0  0  0  0  0  0  0  0
   10.7462    4.6016   -4.2678 N   0  0  0  0  0  0  0  0  0  0  0  0
    8.3811    4.3751   -3.7383 C   0  0  0  0  0  0  0  0  0  0  0  0
    7.3054    3.6669   -3.2232 C   0  0  0  0  0  0  0  0  0  0  0  0
    7.5286    2.4111   -2.6266 C   0  0  0  0  0  0  0  0  0  0  0  0
    2.4260   -2.5311   -1.8288 H   0  0  0  0  0  0  0  0  0  0  0  0
    3.9897   -1.6854   -1.9135 H   0  0  0  0  0  0  0  0  0  0  0  0
    2.6640   -1.1977   -2.9843 H   0  0  0  0  0  0  0  0  0  0  0  0
    2.5958   -0.9387    0.0994 H   0  0  0  0  0  0  0  0  0  0  0  0
    1.3138   -0.4392   -0.9921 H   0  0  0  0  0  0  0  0  0  0  0  0
    2.8139    1.2216   -2.0786 H   0  0  0  0  0  0  0  0  0  0  0  0
    2.5631    1.6007    0.9663 H   0  0  0  0  0  0  0  0  0  0  0  0
    1.3038    1.9292   -0.2409 H   0  0  0  0  0  0  0  0  0  0  0  0
    2.8130    2.8751   -0.2621 H   0  0  0  0  0  0  0  0  0  0  0  0
    4.4125    0.3961    1.0843 H   0  0  0  0  0  0  0  0  0  0  0  0
    6.0368    0.7171    0.4561 H   0  0  0  0  0  0  0  0  0  0  0  0
    5.2420   -0.8475    0.1246 H   0  0  0  0  0  0  0  0  0  0  0  0
    7.2827   -0.5790   -1.1660 H   0  0  0  0  0  0  0  0  0  0  0  0
   10.9642    2.2076   -3.0647 H   0  0  0  0  0  0  0  0  0  0  0  0
   11.6811    4.3877   -3.9395 H   0  0  0  0  0  0  0  0  0  0  0  0
   10.5861    5.5990   -4.3520 H   0  0  0  0  0  0  0  0  0  0  0  0
    8.2104    5.3471   -4.2104 H   0  0  0  0  0  0  0  0  0  0  0  0
    6.2903    4.0598   -3.2852 H   0  0  0  0  0  0  0  0  0  0  0  0
  1  2  1  0
  1 20  1  0
  1 21  1  0
  1 22  1  0
  2  3  1  0
  2 23  1  0
  2 24  1  0
  3  4  1  0
  3  5  1  0
  3 25  1  6
  4 26  1  0
  4 27  1  0
  4 28  1  0
  5  6  1  0
  5  7  1  0
  6 29  1  0
  6 30  1  0
  6 31  1  0
  7  8  2  0
  7  9  1  0
  9 10  2  0
  9 19  1  0
 10 11  1  0
 10 32  1  0
 11 12  1  0
 11 13  1  0
 13 14  1  0
 13 19  2  0
 14 15  2  0
 14 33  1  0
 15 16  1  0
 15 17  1  0
 16 34  1  0
 16 35  1  0
 17 18  2  0
 17 36  1  0
 18 19  1  0
 18 37  1  0
M  END

