
     RDKit          3D

 22 23  0  0  0  0  0  0  0  0999 V2000
    0.7469   -0.3123    0.0983 O   0  0  0  0  0  0  0  0  0  0  0  0
    1.7560    0.1924   -0.3250 C   0  0  0  0  0  0  0  0  0  0  0  0
    2.0752    1.4581    0.0250 O   0  0  0  0  0  0  0  0  0  0  0  0
    2.7151   -0.4774   -1.2404 C   0  0  0  0  0  0  0  0  0  0  0  0
    3.8079    0.4894   -2.2589 S   0  0  0  0  0  0  0  0  0  0  0  0
    4.6879   -0.9917   -2.8153 C   0  0  0  0  0  0  0  0  0  0  0  0
    5.6076   -1.0388   -3.5865 O   0  0  0  0  0  0  0  0  0  0  0  0
    4.0574   -2.0618   -2.2044 N   0  0  0  0  0  0  0  0  0  0  0  0
    4.3513   -3.0014   -2.4542 H   0  0  0  0  0  0  0  0  0  0  0  0
    2.9910   -1.8188   -1.3497 C   0  0  0  0  0  0  0  0  0  0  0  0
    2.4000   -2.9904   -0.6674 C   0  0  0  0  0  0  0  0  0  0  0  0
    1.0109   -3.1480   -0.5112 C   0  0  0  0  0  0  0  0  0  0  0  0
    0.4894   -4.2890    0.0970 C   0  0  0  0  0  0  0  0  0  0  0  0
    1.3525   -5.2857    0.5613 C   0  0  0  0  0  0  0  0  0  0  0  0
    0.6998   -6.7117    1.3239 Cl  0  0  0  0  0  0  0  0  0  0  0  0
    2.7374   -5.1502    0.4210 C   0  0  0  0  0  0  0  0  0  0  0  0
    3.2511   -4.0102   -0.1938 C   0  0  0  0  0  0  0  0  0  0  0  0
    2.9690    1.6927   -0.2694 H   0  0  0  0  0  0  0  0  0  0  0  0
    0.3377   -2.3673   -0.8583 H   0  0  0  0  0  0  0  0  0  0  0  0
   -0.5890   -4.4078    0.2122 H   0  0  0  0  0  0  0  0  0  0  0  0
    3.4025   -5.9286    0.7977 H   0  0  0  0  0  0  0  0  0  0  0  0
    4.3356   -3.9038   -0.2778 H   0  0  0  0  0  0  0  0  0  0  0  0
  1  2  2  0
  2  3  1  0
  2  4  1  0
  3 18  1  0
  4  5  1  0
  4 10  2  0
  5  6  2  0
  6  7  1  0
  6  8  1  0
  8  9  1  0
  8 10  1  0
 10 11  1  0
 11 12  2  0
 11 17  1  0
 12 13  1  0
 12 19  1  0
 13 14  2  0
 13 20  1  0
 14 15  1  0
 14 16  1  0
 16 17  2  0
 16 21  1  0
 17 22  1  0
M  CHG  2   5   1   7  -1
M  END

