
     RDKit          3D

 49 52  0  0  0  0  0  0  0  0999 V2000
    3.4168    0.8549   -4.7119 C   0  0  0  0  0  0  0  0  0  0  0  0
    3.9209    0.5058   -3.4453 O   0  0  0  0  0  0  0  0  0  0  0  0
    3.6954    1.3327   -2.3947 C   0  0  0  0  0  0  0  0  0  0  0  0
    2.9739    2.5280   -2.4537 C   0  0  0  0  0  0  0  0  0  0  0  0
    2.7839    3.3307   -1.3128 C   0  0  0  0  0  0  0  0  0  0  0  0
    2.0416    4.6488   -1.4411 C   0  0  0  0  0  0  0  0  0  0  0  0
    1.2359    4.9566   -0.2739 N   0  0  0  0  0  0  0  0  0  0  0  0
    1.0827    6.1598    0.3293 C   0  0  0  0  0  0  0  0  0  0  0  0
    0.1783    6.2224    1.3281 N   0  0  0  0  0  0  0  0  0  0  0  0
   -0.0137    7.3702    1.9817 C   0  0  0  0  0  0  0  0  0  0  0  0
    0.5944    8.5414    1.7820 N   0  0  0  0  0  0  0  0  0  0  0  0
    1.4828    8.4726    0.7909 C   0  0  0  0  0  0  0  0  0  0  0  0
    1.7973    7.3471    0.0081 C   0  0  0  0  0  0  0  0  0  0  0  0
    2.7673    7.6689   -0.9257 N   0  0  0  0  0  0  0  0  0  0  0  0
    3.0328    8.9299   -0.7128 C   0  0  0  0  0  0  0  0  0  0  0  0
    2.2992    9.4851    0.3206 N   0  0  0  0  0  0  0  0  0  0  0  0
    2.2770   10.8566    0.7802 C   0  0  1  0  0  0  0  0  0  0  0  0
    3.6333   11.4207    1.2314 C   0  0  0  0  0  0  0  0  0  0  0  0
    3.4652   12.9141    0.9431 C   0  0  2  0  0  0  0  0  0  0  0  0
    2.7225   13.5022    1.9863 O   0  0  0  0  0  0  0  0  0  0  0  0
    2.7110   12.8483   -0.3982 C   0  0  2  0  0  0  0  0  0  0  0  0
    1.8599   14.0558   -0.7751 C   0  0  0  0  0  0  0  0  0  0  0  0
    0.8230   14.2714    0.1687 O   0  0  0  0  0  0  0  0  0  0  0  0
    1.8351   11.7202   -0.2722 O   0  0  0  0  0  0  0  0  0  0  0  0
    3.3241    2.9074   -0.0979 C   0  0  0  0  0  0  0  0  0  0  0  0
    4.0433    1.7071   -0.0255 C   0  0  0  0  0  0  0  0  0  0  0  0
    4.2405    0.9134   -1.1542 C   0  0  0  0  0  0  0  0  0  0  0  0
    4.9268   -0.2576   -1.1385 O   0  0  0  0  0  0  0  0  0  0  0  0
    3.7217    0.0559   -5.4013 H   0  0  0  0  0  0  0  0  0  0  0  0
    3.8315    1.8146   -5.0716 H   0  0  0  0  0  0  0  0  0  0  0  0
    2.3134    0.9250   -4.7132 H   0  0  0  0  0  0  0  0  0  0  0  0
    2.5435    2.8521   -3.4025 H   0  0  0  0  0  0  0  0  0  0  0  0
    1.4098    4.6187   -2.3498 H   0  0  0  0  0  0  0  0  0  0  0  0
    2.7470    5.4807   -1.5880 H   0  0  0  0  0  0  0  0  0  0  0  0
    0.6090    4.2397    0.0798 H   0  0  0  0  0  0  0  0  0  0  0  0
   -0.7651    7.3437    2.7803 H   0  0  0  0  0  0  0  0  0  0  0  0
    3.7465    9.5223   -1.2857 H   0  0  0  0  0  0  0  0  0  0  0  0
    1.5416   10.8740    1.5986 H   0  0  0  0  0  0  0  0  0  0  0  0
    4.4522   10.9931    0.6312 H   0  0  0  0  0  0  0  0  0  0  0  0
    3.8352   11.2272    2.2932 H   0  0  0  0  0  0  0  0  0  0  0  0
    4.4389   13.4274    0.8204 H   0  0  0  0  0  0  0  0  0  0  0  0
    1.9701   13.9907    1.6054 H   0  0  0  0  0  0  0  0  0  0  0  0
    3.4456   12.6732   -1.2101 H   0  0  0  0  0  0  0  0  0  0  0  0
    1.4475   13.9116   -1.7909 H   0  0  0  0  0  0  0  0  0  0  0  0
    2.4832   14.9638   -0.7936 H   0  0  0  0  0  0  0  0  0  0  0  0
    0.3136   13.4454    0.2010 H   0  0  0  0  0  0  0  0  0  0  0  0
    3.1868    3.5107    0.8018 H   0  0  0  0  0  0  0  0  0  0  0  0
    4.4630    1.3788    0.9313 H   0  0  0  0  0  0  0  0  0  0  0  0
    5.2384   -0.4252   -0.2396 H   0  0  0  0  0  0  0  0  0  0  0  0
  1  2  1  0
  1 29  1  0
  1 30  1  0
  1 31  1  0
  2  3  1  0
  3  4  2  0
  3 27  1  0
  4  5  1  0
  4 32  1  0
  5  6  1  0
  5 25  2  0
  6  7  1  0
  6 33  1  0
  6 34  1  0
  7  8  1  0
  7 35  1  0
  8  9  2  0
  8 13  1  0
  9 10  1  0
 10 11  2  0
 10 36  1  0
 11 12  1  0
 12 13  2  0
 12 16  1  0
 13 14  1  0
 14 15  2  0
 15 16  1  0
 15 37  1  0
 16 17  1  0
 17 18  1  0
 17 24  1  0
 17 38  1  1
 18 19  1  0
 18 39  1  0
 18 40  1  0
 19 20  1  0
 19 21  1  0
 19 41  1  6
 20 42  1  0
 21 22  1  0
 21 24  1  0
 21 43  1  6
 22 23  1  0
 22 44  1  0
 22 45  1  0
 23 46  1  0
 25 26  1  0
 25 47  1  0
 26 27  2  0
 26 48  1  0
 27 28  1  0
 28 49  1  0
M  END

