
     RDKit          3D

 47 49  0  0  0  0  0  0  0  0999 V2000
    3.0639    2.1509    2.1079 C   0  0  0  0  0  0  0  0  0  0  0  0
    3.3443    0.7039    1.9301 C   0  0  0  0  0  0  0  0  0  0  0  0
    2.6330   -0.4476    2.0907 C   0  0  0  0  0  0  0  0  0  0  0  0
    3.4342   -1.5335    1.7678 N   0  0  0  0  0  0  0  0  0  0  0  0
    4.5718   -1.0150    1.4343 C   0  0  0  0  0  0  0  0  0  0  0  0
    5.8029   -1.7298    0.9766 C   0  0  0  0  0  0  0  0  0  0  0  0
    5.6075   -3.1447    1.1166 N   0  0  0  0  0  0  0  0  0  0  0  0
    6.4976   -4.0890    0.6510 C   0  0  0  0  0  0  0  0  0  0  0  0
    7.7743   -3.7505    0.1481 C   0  0  0  0  0  0  0  0  0  0  0  0
    8.6589   -4.7421   -0.2925 C   0  0  0  0  0  0  0  0  0  0  0  0
    8.3177   -6.0973   -0.2553 C   0  0  0  0  0  0  0  0  0  0  0  0
    7.0531   -6.4319    0.2378 C   0  0  0  0  0  0  0  0  0  0  0  0
    6.1619   -5.4587    0.6776 C   0  0  0  0  0  0  0  0  0  0  0  0
    4.8981   -6.1120    1.1678 C   0  0  0  0  0  0  0  0  0  0  0  0
    5.0058   -7.4857    0.6626 N   0  0  0  0  0  0  0  0  0  0  0  0
    4.2234   -8.5075    1.3543 C   0  0  1  0  0  0  0  0  0  0  0  0
    2.7776   -8.0358    1.5548 C   0  0  0  0  0  0  0  0  0  0  0  0
    4.3082   -9.8690    0.6064 C   0  0  1  0  0  0  0  0  0  0  0  0
    3.6928  -11.0175    1.4168 C   0  0  0  0  0  0  0  0  0  0  0  0
    3.7335   -9.8082   -0.8145 C   0  0  0  0  0  0  0  0  0  0  0  0
    6.4215   -7.7875    0.4243 C   0  0  0  0  0  0  0  0  0  0  0  0
    4.5997    0.3351    1.5061 O   0  0  0  0  0  0  0  0  0  0  0  0
    2.0283    2.2907    2.4477 H   0  0  0  0  0  0  0  0  0  0  0  0
    3.1965    2.7058    1.1642 H   0  0  0  0  0  0  0  0  0  0  0  0
    3.7374    2.6028    2.8552 H   0  0  0  0  0  0  0  0  0  0  0  0
    1.6011   -0.5643    2.4166 H   0  0  0  0  0  0  0  0  0  0  0  0
    6.6663   -1.3675    1.5701 H   0  0  0  0  0  0  0  0  0  0  0  0
    6.0182   -1.4321   -0.0730 H   0  0  0  0  0  0  0  0  0  0  0  0
    4.6590   -3.4269    1.3376 H   0  0  0  0  0  0  0  0  0  0  0  0
    8.0849   -2.7055    0.1020 H   0  0  0  0  0  0  0  0  0  0  0  0
    9.6373   -4.4398   -0.6761 H   0  0  0  0  0  0  0  0  0  0  0  0
    9.0156   -6.8624   -0.6035 H   0  0  0  0  0  0  0  0  0  0  0  0
    3.9828   -5.6165    0.7936 H   0  0  0  0  0  0  0  0  0  0  0  0
    4.8457   -6.0641    2.2832 H   0  0  0  0  0  0  0  0  0  0  0  0
    4.6571   -8.6869    2.3707 H   0  0  0  0  0  0  0  0  0  0  0  0
    2.3173   -7.7489    0.5966 H   0  0  0  0  0  0  0  0  0  0  0  0
    2.7235   -7.1680    2.2279 H   0  0  0  0  0  0  0  0  0  0  0  0
    2.1670   -8.8298    2.0080 H   0  0  0  0  0  0  0  0  0  0  0  0
    5.3828  -10.1021    0.5172 H   0  0  0  0  0  0  0  0  0  0  0  0
    2.5963  -10.9330    1.4910 H   0  0  0  0  0  0  0  0  0  0  0  0
    4.0971  -11.0538    2.4420 H   0  0  0  0  0  0  0  0  0  0  0  0
    3.9099  -11.9865    0.9393 H   0  0  0  0  0  0  0  0  0  0  0  0
    2.6365   -9.6974   -0.8035 H   0  0  0  0  0  0  0  0  0  0  0  0
    3.9621  -10.7328   -1.3693 H   0  0  0  0  0  0  0  0  0  0  0  0
    4.1487   -8.9549   -1.3716 H   0  0  0  0  0  0  0  0  0  0  0  0
    6.5609   -8.4390   -0.4561 H   0  0  0  0  0  0  0  0  0  0  0  0
    6.8961   -8.3147    1.2873 H   0  0  0  0  0  0  0  0  0  0  0  0
  1  2  1  0
  1 23  1  0
  1 24  1  0
  1 25  1  0
  2  3  2  0
  2 22  1  0
  3  4  1  0
  3 26  1  0
  4  5  2  0
  5  6  1  0
  5 22  1  0
  6  7  1  0
  6 27  1  0
  6 28  1  0
  7  8  1  0
  7 29  1  0
  8  9  2  0
  8 13  1  0
  9 10  1  0
  9 30  1  0
 10 11  2  0
 10 31  1  0
 11 12  1  0
 11 32  1  0
 12 13  2  0
 12 21  1  0
 13 14  1  0
 14 15  1  0
 14 33  1  0
 14 34  1  0
 15 16  1  0
 15 21  1  0
 16 17  1  0
 16 18  1  0
 16 35  1  1
 17 36  1  0
 17 37  1  0
 17 38  1  0
 18 19  1  0
 18 20  1  0
 18 39  1  6
 19 40  1  0
 19 41  1  0
 19 42  1  0
 20 43  1  0
 20 44  1  0
 20 45  1  0
 21 46  1  0
 21 47  1  0
M  END

