
     RDKit          3D

 31 31  0  0  0  0  0  0  0  0999 V2000
    2.5817   -0.9717   -0.7061 C   0  0  0  0  0  0  0  0  0  0  0  0
    2.0672   -0.1659    0.3315 O   0  0  0  0  0  0  0  0  0  0  0  0
    2.9091    0.3432    1.2554 C   0  0  0  0  0  0  0  0  0  0  0  0
    4.2967    0.1282    1.2818 C   0  0  0  0  0  0  0  0  0  0  0  0
    5.0891    0.6988    2.2791 C   0  0  0  0  0  0  0  0  0  0  0  0
    4.5425    1.5017    3.2930 C   0  0  0  0  0  0  0  0  0  0  0  0
    5.4609    2.1338    4.3496 C   0  0  1  0  0  0  0  0  0  0  0  0
    6.4323    3.1234    3.6743 C   0  0  0  0  0  0  0  0  0  0  0  0
    4.6812    2.8833    5.4532 C   0  0  0  0  0  0  0  0  0  0  0  0
    6.3006    1.0508    5.0837 C   0  0  0  0  0  0  0  0  0  0  0  0
    7.4553    1.2344    5.4326 O   0  0  0  0  0  0  0  0  0  0  0  0
    5.6376   -0.1025    5.3913 N   0  0  0  0  0  0  0  0  0  0  0  0
    6.2468   -1.1492    6.0881 N   0  0  0  0  0  0  0  0  0  0  0  0
    3.1544    1.7108    3.2649 C   0  0  0  0  0  0  0  0  0  0  0  0
    2.3536    1.1471    2.2713 C   0  0  0  0  0  0  0  0  0  0  0  0
    0.6330    1.4393    2.2818 Cl  0  0  0  0  0  0  0  0  0  0  0  0
    1.7240   -1.2608   -1.3277 H   0  0  0  0  0  0  0  0  0  0  0  0
    3.0649   -1.8853   -0.3156 H   0  0  0  0  0  0  0  0  0  0  0  0
    3.3083   -0.4222   -1.3310 H   0  0  0  0  0  0  0  0  0  0  0  0
    4.7689   -0.4899    0.5180 H   0  0  0  0  0  0  0  0  0  0  0  0
    6.1643    0.5031    2.2618 H   0  0  0  0  0  0  0  0  0  0  0  0
    5.8664    3.9403    3.2011 H   0  0  0  0  0  0  0  0  0  0  0  0
    7.0396    2.6325    2.9004 H   0  0  0  0  0  0  0  0  0  0  0  0
    7.1239    3.5428    4.4177 H   0  0  0  0  0  0  0  0  0  0  0  0
    4.1289    3.7392    5.0354 H   0  0  0  0  0  0  0  0  0  0  0  0
    5.3875    3.2734    6.2009 H   0  0  0  0  0  0  0  0  0  0  0  0
    3.9660    2.2286    5.9734 H   0  0  0  0  0  0  0  0  0  0  0  0
    4.7189   -0.2954    5.0099 H   0  0  0  0  0  0  0  0  0  0  0  0
    6.5161   -0.8027    7.0124 H   0  0  0  0  0  0  0  0  0  0  0  0
    7.1328   -1.3678    5.6241 H   0  0  0  0  0  0  0  0  0  0  0  0
    2.6596    2.3233    4.0175 H   0  0  0  0  0  0  0  0  0  0  0  0
  1  2  1  0
  1 17  1  0
  1 18  1  0
  1 19  1  0
  2  3  1  0
  3  4  2  0
  3 15  1  0
  4  5  1  0
  4 20  1  0
  5  6  2  0
  5 21  1  0
  6  7  1  0
  6 14  1  0
  7  8  1  0
  7  9  1  0
  7 10  1  1
  8 22  1  0
  8 23  1  0
  8 24  1  0
  9 25  1  0
  9 26  1  0
  9 27  1  0
 10 11  2  0
 10 12  1  0
 12 13  1  0
 12 28  1  0
 13 29  1  0
 13 30  1  0
 14 15  2  0
 14 31  1  0
 15 16  1  0
M  END

