
     RDKit          3D

 51 53  0  0  0  0  0  0  0  0999 V2000
    0.3950   -0.3516   -0.3517 C   0  0  0  0  0  0  0  0  0  0  0  0
    1.9267   -0.4141   -0.3674 C   0  0  0  0  0  0  0  0  0  0  0  0
    2.5628   -1.7632   -0.7921 C   0  0  1  0  0  0  0  0  0  0  0  0
    2.2106   -2.8507    0.2484 C   0  0  0  0  0  0  0  0  0  0  0  0
    1.9749   -2.2070   -2.1618 C   0  0  0  0  0  0  0  0  0  0  0  0
    2.2599   -1.2630   -3.2143 N   0  0  0  0  0  0  0  0  0  0  0  0
    1.3076   -0.7131   -4.0109 C   0  0  0  0  0  0  0  0  0  0  0  0
    0.1150   -0.9703   -3.9658 O   0  0  0  0  0  0  0  0  0  0  0  0
    1.8824    0.2808   -4.9858 C   0  0  0  0  0  0  0  0  0  0  0  0
    3.1983    0.6021   -5.0115 N   0  0  0  0  0  0  0  0  0  0  0  0
    3.2857    1.4927   -5.9928 C   0  0  0  0  0  0  0  0  0  0  0  0
    4.3478    2.1572   -6.4688 N   0  0  0  0  0  0  0  0  0  0  0  0
    4.1433    2.9963   -7.4684 C   0  0  0  0  0  0  0  0  0  0  0  0
    5.3284    3.7480   -8.0126 C   0  0  0  0  0  0  0  0  0  0  0  0
    2.8475    3.2085   -8.0412 C   0  0  0  0  0  0  0  0  0  0  0  0
    1.7481    2.5324   -7.5610 C   0  0  0  0  0  0  0  0  0  0  0  0
    0.3420    2.6431   -8.0476 C   0  0  0  0  0  0  0  0  0  0  0  0
    2.0008    1.6735   -6.5266 N   0  0  0  0  0  0  0  0  0  0  0  0
    1.1112    0.8998   -5.8817 N   0  0  0  0  0  0  0  0  0  0  0  0
    4.0276   -1.5854   -0.9917 N   0  0  0  0  0  0  0  0  0  0  0  0
    4.8232   -0.5689   -0.3079 C   0  0  0  0  0  0  0  0  0  0  0  0
    5.5707   -1.1122    0.9129 C   0  0  0  0  0  0  0  0  0  0  0  0
    6.3818   -2.2165    0.5588 O   0  0  0  0  0  0  0  0  0  0  0  0
    5.6271   -3.2557   -0.0339 C   0  0  0  0  0  0  0  0  0  0  0  0
    4.8571   -2.7577   -1.2643 C   0  0  0  0  0  0  0  0  0  0  0  0
    0.0717    0.6323    0.0239 H   0  0  0  0  0  0  0  0  0  0  0  0
   -0.0495   -1.1095    0.3127 H   0  0  0  0  0  0  0  0  0  0  0  0
   -0.0427   -0.4774   -1.3532 H   0  0  0  0  0  0  0  0  0  0  0  0
    2.2939   -0.1604    0.6407 H   0  0  0  0  0  0  0  0  0  0  0  0
    2.3012    0.3709   -1.0439 H   0  0  0  0  0  0  0  0  0  0  0  0
    1.1214   -2.9881    0.3265 H   0  0  0  0  0  0  0  0  0  0  0  0
    2.5901   -2.5802    1.2456 H   0  0  0  0  0  0  0  0  0  0  0  0
    2.6371   -3.8279   -0.0238 H   0  0  0  0  0  0  0  0  0  0  0  0
    0.8853   -2.3236   -2.1051 H   0  0  0  0  0  0  0  0  0  0  0  0
    2.3794   -3.2010   -2.4241 H   0  0  0  0  0  0  0  0  0  0  0  0
    3.2150   -0.9248   -3.3062 H   0  0  0  0  0  0  0  0  0  0  0  0
    6.2320    3.4674   -7.4573 H   0  0  0  0  0  0  0  0  0  0  0  0
    5.1764    4.8369   -7.9280 H   0  0  0  0  0  0  0  0  0  0  0  0
    5.4785    3.5242   -9.0820 H   0  0  0  0  0  0  0  0  0  0  0  0
    2.7225    3.9110   -8.8663 H   0  0  0  0  0  0  0  0  0  0  0  0
    0.2716    3.3609   -8.8749 H   0  0  0  0  0  0  0  0  0  0  0  0
   -0.3225    2.9575   -7.2271 H   0  0  0  0  0  0  0  0  0  0  0  0
   -0.0259    1.6590   -8.3791 H   0  0  0  0  0  0  0  0  0  0  0  0
    4.2124    0.2951   -0.0229 H   0  0  0  0  0  0  0  0  0  0  0  0
    5.5858   -0.1950   -1.0193 H   0  0  0  0  0  0  0  0  0  0  0  0
    4.8505   -1.4023    1.7077 H   0  0  0  0  0  0  0  0  0  0  0  0
    6.2443   -0.3453    1.3287 H   0  0  0  0  0  0  0  0  0  0  0  0
    4.9269   -3.6878    0.7099 H   0  0  0  0  0  0  0  0  0  0  0  0
    6.3428   -4.0425   -0.3226 H   0  0  0  0  0  0  0  0  0  0  0  0
    4.2535   -3.5775   -1.6795 H   0  0  0  0  0  0  0  0  0  0  0  0
    5.6031   -2.4903   -2.0386 H   0  0  0  0  0  0  0  0  0  0  0  0
  1  2  1  0
  1 26  1  0
  1 27  1  0
  1 28  1  0
  3  2  1  1
  2 29  1  0
  2 30  1  0
  3  4  1  0
  3  5  1  0
  3 20  1  0
  4 31  1  0
  4 32  1  0
  4 33  1  0
  5  6  1  0
  5 34  1  0
  5 35  1  0
  6  7  1  0
  6 36  1  0
  7  8  2  0
  7  9  1  0
  9 10  1  0
  9 19  2  0
 10 11  2  0
 11 12  1  0
 11 18  1  0
 12 13  2  0
 13 14  1  0
 13 15  1  0
 14 37  1  0
 14 38  1  0
 14 39  1  0
 15 16  2  0
 15 40  1  0
 16 17  1  0
 16 18  1  0
 17 41  1  0
 17 42  1  0
 17 43  1  0
 18 19  1  0
 20 21  1  0
 20 25  1  0
 21 22  1  0
 21 44  1  0
 21 45  1  0
 22 23  1  0
 22 46  1  0
 22 47  1  0
 23 24  1  0
 24 25  1  0
 24 48  1  0
 24 49  1  0
 25 50  1  0
 25 51  1  0
M  END

