
     RDKit          3D

 47 49  0  0  0  0  0  0  0  0999 V2000
    1.8723   -1.7402   -1.1842 C   0  0  0  0  0  0  0  0  0  0  0  0
    2.5724   -0.7061   -0.7120 C   0  0  0  0  0  0  0  0  0  0  0  0
    3.2069   -0.6669    0.6538 C   0  0  0  0  0  0  0  0  0  0  0  0
    4.6790   -0.6045    0.5866 N   0  0  0  0  0  0  0  0  0  0  0  0
    5.2909    0.6754    0.4443 C   0  0  0  0  0  0  0  0  0  0  0  0
    4.6008    1.6717    0.4467 O   0  0  0  0  0  0  0  0  0  0  0  0
    6.6535    0.6886    0.2804 N   0  0  0  0  0  0  0  0  0  0  0  0
    7.3437   -0.4098    0.3174 C   0  0  0  0  0  0  0  0  0  0  0  0
    8.6946   -0.4091    0.1202 N   0  0  0  0  0  0  0  0  0  0  0  0
    9.5835    0.6694   -0.0835 C   0  0  0  0  0  0  0  0  0  0  0  0
    9.2383    2.0261    0.0437 C   0  0  0  0  0  0  0  0  0  0  0  0
   10.2199    3.0007   -0.1573 C   0  0  0  0  0  0  0  0  0  0  0  0
   11.5360    2.6679   -0.4849 C   0  0  0  0  0  0  0  0  0  0  0  0
   11.8510    1.3171   -0.6095 C   0  0  0  0  0  0  0  0  0  0  0  0
   13.1047    0.9590   -0.9259 F   0  0  0  0  0  0  0  0  0  0  0  0
   10.9057    0.3176   -0.4162 C   0  0  0  0  0  0  0  0  0  0  0  0
    6.7805   -1.6597    0.5600 N   0  0  0  0  0  0  0  0  0  0  0  0
    7.5785   -2.8715    0.8173 C   0  0  0  0  0  0  0  0  0  0  0  0
    8.2570   -3.4661   -0.4025 C   0  0  0  0  0  0  0  0  0  0  0  0
    9.6178   -3.8191   -0.3679 C   0  0  0  0  0  0  0  0  0  0  0  0
   10.2430   -4.3970   -1.4700 C   0  0  0  0  0  0  0  0  0  0  0  0
    9.5155   -4.6390   -2.6479 C   0  0  0  0  0  0  0  0  0  0  0  0
   10.2022   -5.1976   -3.6708 O   0  0  0  0  0  0  0  0  0  0  0  0
    9.5402   -5.4704   -4.8877 C   0  0  0  0  0  0  0  0  0  0  0  0
    8.1526   -4.2973   -2.6941 C   0  0  0  0  0  0  0  0  0  0  0  0
    7.5394   -3.7223   -1.5785 C   0  0  0  0  0  0  0  0  0  0  0  0
    5.3768   -1.7906    0.6471 C   0  0  0  0  0  0  0  0  0  0  0  0
    4.8521   -2.8790    0.7815 O   0  0  0  0  0  0  0  0  0  0  0  0
    1.4181   -1.7156   -2.1790 H   0  0  0  0  0  0  0  0  0  0  0  0
    1.7256   -2.6494   -0.5920 H   0  0  0  0  0  0  0  0  0  0  0  0
    2.7129    0.1931   -1.3233 H   0  0  0  0  0  0  0  0  0  0  0  0
    2.9399   -1.5581    1.2341 H   0  0  0  0  0  0  0  0  0  0  0  0
    2.8893    0.2380    1.1897 H   0  0  0  0  0  0  0  0  0  0  0  0
    9.1122   -1.3178   -0.0479 H   0  0  0  0  0  0  0  0  0  0  0  0
    8.2139    2.2989    0.2808 H   0  0  0  0  0  0  0  0  0  0  0  0
    9.9431    4.0531   -0.0571 H   0  0  0  0  0  0  0  0  0  0  0  0
   12.3074    3.4227   -0.6452 H   0  0  0  0  0  0  0  0  0  0  0  0
   11.2096   -0.7255   -0.5301 H   0  0  0  0  0  0  0  0  0  0  0  0
    6.8652   -3.5916    1.2392 H   0  0  0  0  0  0  0  0  0  0  0  0
    8.3232   -2.6405    1.5955 H   0  0  0  0  0  0  0  0  0  0  0  0
   10.2006   -3.6496    0.5435 H   0  0  0  0  0  0  0  0  0  0  0  0
   11.2990   -4.6725   -1.4451 H   0  0  0  0  0  0  0  0  0  0  0  0
   10.2897   -5.9120   -5.5576 H   0  0  0  0  0  0  0  0  0  0  0  0
    9.1418   -4.5511   -5.3529 H   0  0  0  0  0  0  0  0  0  0  0  0
    8.7130   -6.1899   -4.7524 H   0  0  0  0  0  0  0  0  0  0  0  0
    7.5591   -4.4798   -3.5900 H   0  0  0  0  0  0  0  0  0  0  0  0
    6.4748   -3.4791   -1.6246 H   0  0  0  0  0  0  0  0  0  0  0  0
  1  2  2  0
  1 29  1  0
  1 30  1  0
  2  3  1  0
  2 31  1  0
  3  4  1  0
  3 32  1  0
  3 33  1  0
  4  5  1  0
  4 27  1  0
  5  6  2  0
  5  7  1  0
  7  8  2  0
  8  9  1  0
  8 17  1  0
  9 10  1  0
  9 34  1  0
 10 11  2  0
 10 16  1  0
 11 12  1  0
 11 35  1  0
 12 13  2  0
 12 36  1  0
 13 14  1  0
 13 37  1  0
 14 15  1  0
 14 16  2  0
 16 38  1  0
 17 18  1  0
 17 27  1  0
 18 19  1  0
 18 39  1  0
 18 40  1  0
 19 20  2  0
 19 26  1  0
 20 21  1  0
 20 41  1  0
 21 22  2  0
 21 42  1  0
 22 23  1  0
 22 25  1  0
 23 24  1  0
 24 43  1  0
 24 44  1  0
 24 45  1  0
 25 26  2  0
 25 46  1  0
 26 47  1  0
 27 28  2  0
M  END

