
     RDKit          3D

 43 45  0  0  0  0  0  0  0  0999 V2000
    4.2514    1.5791   -3.1271 C   0  0  0  0  0  0  0  0  0  0  0  0
    5.9227    2.2854   -3.1839 S   0  0  0  0  0  0  0  0  0  0  0  0
    5.9549    3.4033   -1.8055 C   0  0  0  0  0  0  0  0  0  0  0  0
    4.8882    3.6148   -0.9179 C   0  0  0  0  0  0  0  0  0  0  0  0
    5.0202    4.5218    0.1373 C   0  0  0  0  0  0  0  0  0  0  0  0
    6.2034    5.2447    0.3375 C   0  0  0  0  0  0  0  0  0  0  0  0
    6.3381    6.2115    1.4811 C   0  0  0  0  0  0  0  0  0  0  0  0
    7.1325    5.3453    2.9161 S   0  0  0  0  0  0  0  0  0  0  0  0
    7.1146    6.6779    4.0677 C   0  0  0  0  0  0  0  0  0  0  0  0
    6.5743    7.8578    3.8692 N   0  0  0  0  0  0  0  0  0  0  0  0
    6.7992    8.6169    4.9926 N   0  0  0  0  0  0  0  0  0  0  0  0
    7.4705    7.8845    5.8341 C   0  0  0  0  0  0  0  0  0  0  0  0
    7.7103    6.6266    5.3141 N   0  0  0  0  0  0  0  0  0  0  0  0
    8.4316    5.5686    5.9386 C   0  0  0  0  0  0  0  0  0  0  0  0
    9.6633    5.8353    6.5499 C   0  0  0  0  0  0  0  0  0  0  0  0
   10.3415    4.7898    7.1785 C   0  0  0  0  0  0  0  0  0  0  0  0
    9.8335    3.4897    7.1940 C   0  0  0  0  0  0  0  0  0  0  0  0
    8.6009    3.2248    6.5682 C   0  0  0  0  0  0  0  0  0  0  0  0
    8.0123    1.9498    6.5278 N   0  0  0  0  0  0  0  0  0  0  0  0
    8.4753    0.7610    7.0616 C   0  0  0  0  0  0  0  0  0  0  0  0
    7.5918   -0.4405    6.7628 C   0  0  0  0  0  0  0  0  0  0  0  0
    9.5085    0.6592    7.6932 O   0  0  0  0  0  0  0  0  0  0  0  0
    7.8985    4.2774    5.9545 C   0  0  0  0  0  0  0  0  0  0  0  0
    7.2680    5.0236   -0.5540 C   0  0  0  0  0  0  0  0  0  0  0  0
    7.1500    4.1229   -1.6080 C   0  0  0  0  0  0  0  0  0  0  0  0
    4.1990    0.8825   -3.9758 H   0  0  0  0  0  0  0  0  0  0  0  0
    3.4774    2.3506   -3.2540 H   0  0  0  0  0  0  0  0  0  0  0  0
    4.0752    1.0177   -2.1974 H   0  0  0  0  0  0  0  0  0  0  0  0
    3.9451    3.0809   -1.0387 H   0  0  0  0  0  0  0  0  0  0  0  0
    4.1761    4.6726    0.8165 H   0  0  0  0  0  0  0  0  0  0  0  0
    5.3687    6.5956    1.8239 H   0  0  0  0  0  0  0  0  0  0  0  0
    6.9706    7.0739    1.2309 H   0  0  0  0  0  0  0  0  0  0  0  0
    7.7927    8.1774    6.8322 H   0  0  0  0  0  0  0  0  0  0  0  0
   10.0860    6.8407    6.5163 H   0  0  0  0  0  0  0  0  0  0  0  0
   11.3022    4.9876    7.6600 H   0  0  0  0  0  0  0  0  0  0  0  0
   10.3700    2.6771    7.6769 H   0  0  0  0  0  0  0  0  0  0  0  0
    7.1358    1.8997    6.0224 H   0  0  0  0  0  0  0  0  0  0  0  0
    6.5486   -0.1781    6.5312 H   0  0  0  0  0  0  0  0  0  0  0  0
    7.6173   -1.1138    7.6299 H   0  0  0  0  0  0  0  0  0  0  0  0
    8.0129   -0.9893    5.9044 H   0  0  0  0  0  0  0  0  0  0  0  0
    6.9289    4.0909    5.4876 H   0  0  0  0  0  0  0  0  0  0  0  0
    8.2054    5.5710   -0.4204 H   0  0  0  0  0  0  0  0  0  0  0  0
    7.9904    3.9740   -2.2913 H   0  0  0  0  0  0  0  0  0  0  0  0
  1  2  1  0
  1 26  1  0
  1 27  1  0
  1 28  1  0
  2  3  1  0
  3  4  2  0
  3 25  1  0
  4  5  1  0
  4 29  1  0
  5  6  2  0
  5 30  1  0
  6  7  1  0
  6 24  1  0
  7  8  1  0
  7 31  1  0
  7 32  1  0
  8  9  1  0
  9 10  2  0
  9 13  1  0
 10 11  1  0
 11 12  2  0
 12 13  1  0
 12 33  1  0
 13 14  1  0
 14 15  2  0
 14 23  1  0
 15 16  1  0
 15 34  1  0
 16 17  2  0
 16 35  1  0
 17 18  1  0
 17 36  1  0
 18 19  1  0
 18 23  2  0
 19 20  1  0
 19 37  1  0
 20 21  1  0
 20 22  2  0
 21 38  1  0
 21 39  1  0
 21 40  1  0
 23 41  1  0
 24 25  2  0
 24 42  1  0
 25 43  1  0
M  END

