
     RDKit          3D

 52 55  0  0  0  0  0  0  0  0999 V2000
    5.1197   -0.8351   -1.4332 C   0  0  0  0  0  0  0  0  0  0  0  0
    4.5076   -1.0289   -0.0559 C   0  0  0  0  0  0  0  0  0  0  0  0
    4.8595    0.0611    0.8193 O   0  0  0  0  0  0  0  0  0  0  0  0
    4.0538    1.1364    0.8174 C   0  0  0  0  0  0  0  0  0  0  0  0
    3.0253    1.2193    0.1864 O   0  0  0  0  0  0  0  0  0  0  0  0
    4.5858    2.2360    1.6530 C   0  0  0  0  0  0  0  0  0  0  0  0
    4.3661    3.6220    1.4175 C   0  0  0  0  0  0  0  0  0  0  0  0
    3.6148    4.2424    0.3088 C   0  0  0  0  0  0  0  0  0  0  0  0
    2.5898    5.1302    0.4696 C   0  0  0  0  0  0  0  0  0  0  0  0
    2.0327    5.5782    2.0568 Cl  0  0  0  0  0  0  0  0  0  0  0  0
    1.9008    5.7105   -0.6690 C   0  0  0  0  0  0  0  0  0  0  0  0
    0.8387    6.6351   -0.5882 C   0  0  0  0  0  0  0  0  0  0  0  0
    0.2364    7.1257   -1.7400 C   0  0  0  0  0  0  0  0  0  0  0  0
    0.6822    6.7015   -3.0026 C   0  0  0  0  0  0  0  0  0  0  0  0
    1.7278    5.7900   -3.1103 C   0  0  0  0  0  0  0  0  0  0  0  0
    2.3317    5.2987   -1.9476 C   0  0  0  0  0  0  0  0  0  0  0  0
    3.3480    4.4150   -2.1021 O   0  0  0  0  0  0  0  0  0  0  0  0
    4.0437    3.8566   -1.0524 C   0  0  0  0  0  0  0  0  0  0  0  0
    4.9483    3.1058   -1.3072 O   0  0  0  0  0  0  0  0  0  0  0  0
    4.9945    4.3584    2.3245 N   0  0  0  0  0  0  0  0  0  0  0  0
    5.6234    3.4998    3.1463 N   0  0  0  0  0  0  0  0  0  0  0  0
    6.2848    4.0476    4.2915 C   0  0  0  0  0  0  0  0  0  0  0  0
    5.6465    5.0856    4.9850 C   0  0  0  0  0  0  0  0  0  0  0  0
    6.2669    5.6754    6.0849 C   0  0  0  0  0  0  0  0  0  0  0  0
    7.5270    5.2216    6.4884 C   0  0  0  0  0  0  0  0  0  0  0  0
    8.3754    6.0198    7.9964 Br  0  0  0  0  0  0  0  0  0  0  0  0
    8.1717    4.1948    5.7952 C   0  0  0  0  0  0  0  0  0  0  0  0
    7.5540    3.6107    4.6866 C   0  0  0  0  0  0  0  0  0  0  0  0
    5.3966    2.1933    2.7825 C   0  0  0  0  0  0  0  0  0  0  0  0
    5.8995    0.9938    3.5161 C   0  0  0  0  0  0  0  0  0  0  0  0
    7.0492    0.8105    3.8427 O   0  0  0  0  0  0  0  0  0  0  0  0
    4.8991    0.1417    3.7541 O   0  0  0  0  0  0  0  0  0  0  0  0
    5.2309   -1.1307    4.3493 C   0  0  0  0  0  0  0  0  0  0  0  0
    5.2504   -1.0507    5.8659 C   0  0  0  0  0  0  0  0  0  0  0  0
    4.8659   -1.6903   -2.0802 H   0  0  0  0  0  0  0  0  0  0  0  0
    6.2162   -0.7614   -1.3689 H   0  0  0  0  0  0  0  0  0  0  0  0
    4.7388    0.0836   -1.9032 H   0  0  0  0  0  0  0  0  0  0  0  0
    4.9035   -1.9278    0.4391 H   0  0  0  0  0  0  0  0  0  0  0  0
    3.4120   -1.1006   -0.1131 H   0  0  0  0  0  0  0  0  0  0  0  0
    0.4986    6.9580    0.3961 H   0  0  0  0  0  0  0  0  0  0  0  0
   -0.5845    7.8415   -1.6609 H   0  0  0  0  0  0  0  0  0  0  0  0
    0.2081    7.0874   -3.9083 H   0  0  0  0  0  0  0  0  0  0  0  0
    2.0964    5.4412   -4.0763 H   0  0  0  0  0  0  0  0  0  0  0  0
    4.6687    5.4297    4.6468 H   0  0  0  0  0  0  0  0  0  0  0  0
    5.7718    6.4818    6.6278 H   0  0  0  0  0  0  0  0  0  0  0  0
    9.1605    3.8559    6.1079 H   0  0  0  0  0  0  0  0  0  0  0  0
    8.0529    2.8131    4.1390 H   0  0  0  0  0  0  0  0  0  0  0  0
    6.2028   -1.4623    3.9558 H   0  0  0  0  0  0  0  0  0  0  0  0
    4.4450   -1.8115    3.9927 H   0  0  0  0  0  0  0  0  0  0  0  0
    6.0565   -0.3882    6.2138 H   0  0  0  0  0  0  0  0  0  0  0  0
    5.4245   -2.0531    6.2886 H   0  0  0  0  0  0  0  0  0  0  0  0
    4.2901   -0.6765    6.2530 H   0  0  0  0  0  0  0  0  0  0  0  0
  1  2  1  0
  1 35  1  0
  1 36  1  0
  1 37  1  0
  2  3  1  0
  2 38  1  0
  2 39  1  0
  3  4  1  0
  4  5  2  0
  4  6  1  0
  6  7  1  0
  6 29  2  0
  7  8  1  0
  7 20  2  0
  8  9  2  0
  8 18  1  0
  9 10  1  0
  9 11  1  0
 11 12  2  0
 11 16  1  0
 12 13  1  0
 12 40  1  0
 13 14  2  0
 13 41  1  0
 14 15  1  0
 14 42  1  0
 15 16  2  0
 15 43  1  0
 16 17  1  0
 17 18  1  0
 18 19  2  0
 20 21  1  0
 21 22  1  0
 21 29  1  0
 22 23  2  0
 22 28  1  0
 23 24  1  0
 23 44  1  0
 24 25  2  0
 24 45  1  0
 25 26  1  0
 25 27  1  0
 27 28  2  0
 27 46  1  0
 28 47  1  0
 29 30  1  0
 30 31  2  0
 30 32  1  0
 32 33  1  0
 33 34  1  0
 33 48  1  0
 33 49  1  0
 34 50  1  0
 34 51  1  0
 34 52  1  0
M  END

