
     RDKit          3D

 41 42  0  0  0  0  0  0  0  0999 V2000
    3.2957    4.9185   -8.3638 C   0  0  0  0  0  0  0  0  0  0  0  0
    4.1897    5.9422   -7.1864 S   0  0  1  0  0  0  0  0  0  0  0  0
    5.0137    6.8786   -7.9539 O   0  0  0  0  0  0  0  0  0  0  0  0
    3.2201    6.3998   -6.1874 O   0  0  0  0  0  0  0  0  0  0  0  0
    5.2577    4.8488   -6.4661 N   0  0  0  0  0  0  0  0  0  0  0  0
    5.0590    4.4453   -5.0684 C   0  0  0  0  0  0  0  0  0  0  0  0
    5.6356    3.0590   -4.7818 C   0  0  0  0  0  0  0  0  0  0  0  0
    7.1570    2.9693   -4.8993 C   0  0  0  0  0  0  0  0  0  0  0  0
    7.6382    1.6468   -4.5340 N   0  0  0  0  0  0  0  0  0  0  0  0
    9.0770    1.4899   -4.5835 C   0  0  1  0  0  0  0  0  0  0  0  0
    9.8898    2.1074   -3.4169 C   0  0  0  0  0  0  0  0  0  0  0  0
   10.6932    0.7748   -3.2948 C   0  0  2  0  0  0  0  0  0  0  0  0
   12.1262    0.7884   -3.7939 C   0  0  0  0  0  0  0  0  0  0  0  0
   12.9857    1.8548   -3.4735 C   0  0  0  0  0  0  0  0  0  0  0  0
   14.3237    1.8466   -3.8756 C   0  0  0  0  0  0  0  0  0  0  0  0
   14.8426    0.7759   -4.6088 C   0  0  0  0  0  0  0  0  0  0  0  0
   13.9875   -0.2780   -4.9169 C   0  0  0  0  0  0  0  0  0  0  0  0
   14.4617   -1.3216   -5.6170 F   0  0  0  0  0  0  0  0  0  0  0  0
   12.6509   -0.2886   -4.5247 C   0  0  0  0  0  0  0  0  0  0  0  0
    9.6173    0.0956   -4.1948 C   0  0  0  0  0  0  0  0  0  0  0  0
    2.5837    5.5822   -8.8734 H   0  0  0  0  0  0  0  0  0  0  0  0
    2.7631    4.1294   -7.8178 H   0  0  0  0  0  0  0  0  0  0  0  0
    4.0150    4.4969   -9.0767 H   0  0  0  0  0  0  0  0  0  0  0  0
    6.2023    5.1442   -6.7086 H   0  0  0  0  0  0  0  0  0  0  0  0
    3.9766    4.4481   -4.8789 H   0  0  0  0  0  0  0  0  0  0  0  0
    5.4916    5.1889   -4.3726 H   0  0  0  0  0  0  0  0  0  0  0  0
    5.1686    2.3310   -5.4696 H   0  0  0  0  0  0  0  0  0  0  0  0
    5.3507    2.7613   -3.7589 H   0  0  0  0  0  0  0  0  0  0  0  0
    7.6163    3.7037   -4.2125 H   0  0  0  0  0  0  0  0  0  0  0  0
    7.4743    3.2698   -5.9256 H   0  0  0  0  0  0  0  0  0  0  0  0
    7.2001    0.9447   -5.1321 H   0  0  0  0  0  0  0  0  0  0  0  0
    9.5102    1.8152   -5.5556 H   0  0  0  0  0  0  0  0  0  0  0  0
    9.2452    2.2779   -2.5422 H   0  0  0  0  0  0  0  0  0  0  0  0
   10.4610    3.0220   -3.6325 H   0  0  0  0  0  0  0  0  0  0  0  0
   10.7063    0.3752   -2.2663 H   0  0  0  0  0  0  0  0  0  0  0  0
   12.6064    2.7008   -2.8961 H   0  0  0  0  0  0  0  0  0  0  0  0
   14.9737    2.6861   -3.6161 H   0  0  0  0  0  0  0  0  0  0  0  0
   15.8824    0.7450   -4.9391 H   0  0  0  0  0  0  0  0  0  0  0  0
   12.0400   -1.1513   -4.7954 H   0  0  0  0  0  0  0  0  0  0  0  0
    8.8767   -0.4531   -3.5945 H   0  0  0  0  0  0  0  0  0  0  0  0
    9.9645   -0.5504   -5.0143 H   0  0  0  0  0  0  0  0  0  0  0  0
  1  2  1  0
  1 21  1  0
  1 22  1  0
  1 23  1  0
  2  3  2  0
  2  4  2  0
  2  5  1  1
  5  6  1  0
  5 24  1  0
  6  7  1  0
  6 25  1  0
  6 26  1  0
  7  8  1  0
  7 27  1  0
  7 28  1  0
  8  9  1  0
  8 29  1  0
  8 30  1  0
  9 10  1  0
  9 31  1  0
 10 11  1  0
 10 20  1  0
 10 32  1  6
 11 12  1  0
 11 33  1  0
 11 34  1  0
 12 13  1  0
 12 20  1  0
 12 35  1  1
 13 14  2  0
 13 19  1  0
 14 15  1  0
 14 36  1  0
 15 16  2  0
 15 37  1  0
 16 17  1  0
 16 38  1  0
 17 18  1  0
 17 19  2  0
 19 39  1  0
 20 40  1  0
 20 41  1  0
M  END

