
     RDKit          3D

 59 63  0  0  0  0  0  0  0  0999 V2000
    0.8149    0.3245    0.0729 C   0  0  0  0  0  0  0  0  0  0  0  0
    2.3108    0.1578    0.0417 C   0  0  0  0  0  0  0  0  0  0  0  0
    3.0039   -1.0156    0.2282 C   0  0  0  0  0  0  0  0  0  0  0  0
    2.2486   -2.2328    0.6442 C   0  0  0  0  0  0  0  0  0  0  0  0
    1.0985   -2.1736    1.0629 O   0  0  0  0  0  0  0  0  0  0  0  0
    2.9249   -3.4398    0.5507 N   0  0  0  0  0  0  0  0  0  0  0  0
    2.4494   -4.7117    0.9509 C   0  0  0  0  0  0  0  0  0  0  0  0
    1.4707   -4.8556    1.9509 C   0  0  0  0  0  0  0  0  0  0  0  0
    1.0461   -6.1249    2.3439 C   0  0  0  0  0  0  0  0  0  0  0  0
    1.5853   -7.2678    1.7511 C   0  0  0  0  0  0  0  0  0  0  0  0
    2.5541   -7.1235    0.7565 C   0  0  0  0  0  0  0  0  0  0  0  0
    3.0001   -5.8637    0.3351 C   0  0  0  0  0  0  0  0  0  0  0  0
    4.0433   -5.7540   -0.7499 C   0  0  0  0  0  0  0  0  0  0  0  0
    4.5360   -1.0650    0.1131 C   0  0  1  0  0  0  0  0  0  0  0  0
    5.1083   -1.7303   -1.1506 C   0  0  0  0  0  0  0  0  0  0  0  0
    4.6835   -1.3431   -2.4323 C   0  0  0  0  0  0  0  0  0  0  0  0
    3.7456   -0.3895   -2.5351 F   0  0  0  0  0  0  0  0  0  0  0  0
    5.1985   -1.8751   -3.6089 C   0  0  0  0  0  0  0  0  0  0  0  0
    6.2112   -2.8317   -3.5236 C   0  0  0  0  0  0  0  0  0  0  0  0
    6.6928   -3.2352   -2.2787 C   0  0  0  0  0  0  0  0  0  0  0  0
    6.1463   -2.6815   -1.1162 C   0  0  0  0  0  0  0  0  0  0  0  0
    6.8043   -3.2294    0.4171 Cl  0  0  0  0  0  0  0  0  0  0  0  0
    5.0434    0.2962    0.2159 N   0  0  0  0  0  0  0  0  0  0  0  0
    6.3653    0.6128    0.3549 N   0  0  0  0  0  0  0  0  0  0  0  0
    6.3486    1.9316    0.2178 C   0  0  0  0  0  0  0  0  0  0  0  0
    7.7746    2.9542    0.3273 S   0  0  0  0  0  0  0  0  0  0  0  0
    9.0557    1.6526    0.6069 C   0  0  0  0  0  0  0  0  0  0  0  0
   10.4082    2.2996    0.7278 C   0  0  0  0  0  0  0  0  0  0  0  0
   10.8742    2.7286    1.9826 C   0  0  0  0  0  0  0  0  0  0  0  0
   12.1177    3.3423    2.1339 C   0  0  0  0  0  0  0  0  0  0  0  0
   12.9308    3.5447    1.0150 C   0  0  0  0  0  0  0  0  0  0  0  0
   12.4950    3.1341   -0.2455 C   0  0  0  0  0  0  0  0  0  0  0  0
   11.2444    2.5233   -0.3823 C   0  0  0  0  0  0  0  0  0  0  0  0
   10.7409    2.0283   -1.9872 Cl  0  0  0  0  0  0  0  0  0  0  0  0
    5.1188    2.4862   -0.0138 N   0  0  0  0  0  0  0  0  0  0  0  0
    4.3427    1.4220   -0.0147 C   0  0  0  0  0  0  0  0  0  0  0  0
    2.9862    1.3438   -0.1732 N   0  0  0  0  0  0  0  0  0  0  0  0
    0.3020   -0.5019   -0.4311 H   0  0  0  0  0  0  0  0  0  0  0  0
    0.5345    1.2770   -0.4045 H   0  0  0  0  0  0  0  0  0  0  0  0
    0.4466    0.3216    1.1094 H   0  0  0  0  0  0  0  0  0  0  0  0
    3.7955   -3.4474    0.0357 H   0  0  0  0  0  0  0  0  0  0  0  0
    1.0383   -3.9666    2.4021 H   0  0  0  0  0  0  0  0  0  0  0  0
    0.2845   -6.2143    3.1229 H   0  0  0  0  0  0  0  0  0  0  0  0
    1.2535   -8.2634    2.0552 H   0  0  0  0  0  0  0  0  0  0  0  0
    2.9783   -8.0127    0.2814 H   0  0  0  0  0  0  0  0  0  0  0  0
    4.2511   -6.7388   -1.1918 H   0  0  0  0  0  0  0  0  0  0  0  0
    5.0007   -5.3635   -0.3639 H   0  0  0  0  0  0  0  0  0  0  0  0
    3.7226   -5.0851   -1.5667 H   0  0  0  0  0  0  0  0  0  0  0  0
    4.9409   -1.6219    0.9700 H   0  0  0  0  0  0  0  0  0  0  0  0
    4.8090   -1.5219   -4.5649 H   0  0  0  0  0  0  0  0  0  0  0  0
    6.6354   -3.2599   -4.4345 H   0  0  0  0  0  0  0  0  0  0  0  0
    7.4937   -3.9705   -2.1958 H   0  0  0  0  0  0  0  0  0  0  0  0
    9.0118    0.9488   -0.2333 H   0  0  0  0  0  0  0  0  0  0  0  0
    8.7915    1.1109    1.5251 H   0  0  0  0  0  0  0  0  0  0  0  0
   10.2353    2.5714    2.8558 H   0  0  0  0  0  0  0  0  0  0  0  0
   12.4520    3.6615    3.1238 H   0  0  0  0  0  0  0  0  0  0  0  0
   13.9079    4.0226    1.1193 H   0  0  0  0  0  0  0  0  0  0  0  0
   13.1154    3.2827   -1.1307 H   0  0  0  0  0  0  0  0  0  0  0  0
    2.4775    2.2069   -0.3171 H   0  0  0  0  0  0  0  0  0  0  0  0
  1  2  1  0
  1 38  1  0
  1 39  1  0
  1 40  1  0
  2  3  2  0
  2 37  1  0
  3  4  1  0
  3 14  1  0
  4  5  2  0
  4  6  1  0
  6  7  1  0
  6 41  1  0
  7  8  2  0
  7 12  1  0
  8  9  1  0
  8 42  1  0
  9 10  2  0
  9 43  1  0
 10 11  1  0
 10 44  1  0
 11 12  2  0
 11 45  1  0
 12 13  1  0
 13 46  1  0
 13 47  1  0
 13 48  1  0
 14 15  1  0
 14 23  1  0
 14 49  1  1
 15 16  2  0
 15 21  1  0
 16 17  1  0
 16 18  1  0
 18 19  2  0
 18 50  1  0
 19 20  1  0
 19 51  1  0
 20 21  2  0
 20 52  1  0
 21 22  1  0
 23 24  1  0
 23 36  1  0
 24 25  2  0
 25 26  1  0
 25 35  1  0
 26 27  1  0
 27 28  1  0
 27 53  1  0
 27 54  1  0
 28 29  2  0
 28 33  1  0
 29 30  1  0
 29 55  1  0
 30 31  2  0
 30 56  1  0
 31 32  1  0
 31 57  1  0
 32 33  2  0
 32 58  1  0
 33 34  1  0
 35 36  2  0
 36 37  1  0
 37 59  1  0
M  END

