
     RDKit          3D

 50 52  0  0  0  0  0  0  0  0999 V2000
    1.0747   -0.3762   -0.1752 C   0  0  0  0  0  0  0  0  0  0  0  0
    2.5572   -0.1896   -0.1423 C   0  0  0  0  0  0  0  0  0  0  0  0
    3.1500    0.9672   -0.2694 N   0  0  0  0  0  0  0  0  0  0  0  0
    4.5010    0.6969   -0.1828 C   0  0  0  0  0  0  0  0  0  0  0  0
    5.6135    1.5377   -0.2488 C   0  0  0  0  0  0  0  0  0  0  0  0
    6.8548    1.0679   -0.1417 N   0  0  0  0  0  0  0  0  0  0  0  0
    7.0572   -0.2476    0.0361 C   0  0  0  0  0  0  0  0  0  0  0  0
    8.3657   -0.7175    0.1440 N   0  0  0  0  0  0  0  0  0  0  0  0
    9.5924   -0.0833    0.1107 C   0  0  0  0  0  0  0  0  0  0  0  0
    9.7990    1.3024   -0.0634 C   0  0  0  0  0  0  0  0  0  0  0  0
   11.1257    1.7155   -0.0638 C   0  0  0  0  0  0  0  0  0  0  0  0
   12.1656    0.8885    0.0873 N   0  0  0  0  0  0  0  0  0  0  0  0
   11.8662   -0.4111    0.2455 C   0  0  0  0  0  0  0  0  0  0  0  0
   13.0123   -1.3244    0.4112 C   0  0  0  0  0  0  0  0  0  0  0  0
   12.9156   -2.6500    0.5893 C   0  0  0  0  0  0  0  0  0  0  0  0
   14.0917   -3.5905    0.7662 C   0  0  1  0  0  0  0  0  0  0  0  0
   13.8616   -4.4761    2.0068 C   0  0  0  0  0  0  0  0  0  0  0  0
   14.2550   -4.4583   -0.4905 C   0  0  0  0  0  0  0  0  0  0  0  0
   15.3200   -2.8856    0.9010 O   0  0  0  0  0  0  0  0  0  0  0  0
   10.6276   -0.9206    0.2629 N   0  0  0  0  0  0  0  0  0  0  0  0
    6.0151   -1.1960    0.1198 C   0  0  0  0  0  0  0  0  0  0  0  0
    4.7179   -0.6937    0.0055 C   0  0  0  0  0  0  0  0  0  0  0  0
    3.4537   -1.2533    0.0300 N   0  0  0  0  0  0  0  0  0  0  0  0
    3.0982   -2.6699    0.1962 C   0  0  1  0  0  0  0  0  0  0  0  0
    3.6157   -3.5255   -0.9669 C   0  0  0  0  0  0  0  0  0  0  0  0
    3.5200   -3.2041    1.5707 C   0  0  0  0  0  0  0  0  0  0  0  0
    0.6154    0.6098   -0.3171 H   0  0  0  0  0  0  0  0  0  0  0  0
    0.6888   -0.8090    0.7628 H   0  0  0  0  0  0  0  0  0  0  0  0
    0.7562   -1.0316   -1.0030 H   0  0  0  0  0  0  0  0  0  0  0  0
    5.4895    2.6166   -0.3923 H   0  0  0  0  0  0  0  0  0  0  0  0
    8.4748   -1.7173    0.2775 H   0  0  0  0  0  0  0  0  0  0  0  0
    8.9605    1.9814   -0.1872 H   0  0  0  0  0  0  0  0  0  0  0  0
   11.3626    2.7786   -0.1940 H   0  0  0  0  0  0  0  0  0  0  0  0
   13.9886   -0.8361    0.3679 H   0  0  0  0  0  0  0  0  0  0  0  0
   11.9177   -3.1016    0.6058 H   0  0  0  0  0  0  0  0  0  0  0  0
   12.9429   -5.0768    1.9132 H   0  0  0  0  0  0  0  0  0  0  0  0
   13.7653   -3.8565    2.9141 H   0  0  0  0  0  0  0  0  0  0  0  0
   14.7160   -5.1573    2.1409 H   0  0  0  0  0  0  0  0  0  0  0  0
   13.3435   -5.0406   -0.6931 H   0  0  0  0  0  0  0  0  0  0  0  0
   15.0982   -5.1538   -0.3558 H   0  0  0  0  0  0  0  0  0  0  0  0
   14.4661   -3.8188   -1.3599 H   0  0  0  0  0  0  0  0  0  0  0  0
   15.2467   -2.3072    1.6728 H   0  0  0  0  0  0  0  0  0  0  0  0
    6.2376   -2.2534    0.2656 H   0  0  0  0  0  0  0  0  0  0  0  0
    1.9999   -2.6953    0.1583 H   0  0  0  0  0  0  0  0  0  0  0  0
    4.7151   -3.5600   -0.9948 H   0  0  0  0  0  0  0  0  0  0  0  0
    3.2654   -3.1292   -1.9321 H   0  0  0  0  0  0  0  0  0  0  0  0
    3.2496   -4.5590   -0.8663 H   0  0  0  0  0  0  0  0  0  0  0  0
    4.6138   -3.2202    1.6881 H   0  0  0  0  0  0  0  0  0  0  0  0
    3.1528   -4.2336    1.7033 H   0  0  0  0  0  0  0  0  0  0  0  0
    3.1025   -2.5837    2.3782 H   0  0  0  0  0  0  0  0  0  0  0  0
  1  2  1  0
  1 27  1  0
  1 28  1  0
  1 29  1  0
  2  3  2  0
  2 23  1  0
  3  4  1  0
  4  5  2  0
  4 22  1  0
  5  6  1  0
  5 30  1  0
  6  7  2  0
  7  8  1  0
  7 21  1  0
  8  9  1  0
  8 31  1  0
  9 10  2  0
  9 20  1  0
 10 11  1  0
 10 32  1  0
 11 12  2  0
 11 33  1  0
 12 13  1  0
 13 14  1  0
 13 20  2  0
 14 15  2  0
 14 34  1  0
 15 16  1  0
 15 35  1  0
 16 17  1  0
 16 18  1  0
 16 19  1  1
 17 36  1  0
 17 37  1  0
 17 38  1  0
 18 39  1  0
 18 40  1  0
 18 41  1  0
 19 42  1  0
 21 22  2  0
 21 43  1  0
 22 23  1  0
 23 24  1  0
 24 25  1  0
 24 26  1  0
 24 44  1  1
 25 45  1  0
 25 46  1  0
 25 47  1  0
 26 48  1  0
 26 49  1  0
 26 50  1  0
M  END

