
     RDKit          3D

 48 48  0  0  0  0  0  0  0  0999 V2000
    3.6447    0.3342    3.0107 C   0  0  0  0  0  0  0  0  0  0  0  0
    3.5838   -0.0611    1.5340 C   0  0  0  0  0  0  0  0  0  0  0  0
    4.1347    1.0231    0.5970 C   0  0  0  0  0  0  0  0  0  0  0  0
    4.1612    0.6260   -0.8879 C   0  0  1  0  0  0  0  0  0  0  0  0
    2.7847    0.5345   -1.3895 N   0  0  0  0  0  0  0  0  0  0  0  0
    4.9366    1.6016   -1.8364 C   0  0  1  0  0  0  0  0  0  0  0  0
    4.5697    3.0760   -1.5992 C   0  0  0  0  0  0  0  0  0  0  0  0
    5.0458    4.0304   -2.6942 C   0  0  0  0  0  0  0  0  0  0  0  0
    6.3875    1.3735   -1.9462 N   0  0  0  0  0  0  0  0  0  0  0  0
    7.2251    1.6431   -0.7816 C   0  0  0  0  0  0  0  0  0  0  0  0
    8.6229    2.1527   -1.1420 C   0  0  0  0  0  0  0  0  0  0  0  0
    6.7387    0.1587   -2.6667 C   0  0  0  0  0  0  0  0  0  0  0  0
    6.4454    0.2004   -4.1586 C   0  0  0  0  0  0  0  0  0  0  0  0
    6.7656    1.3269   -4.9341 C   0  0  0  0  0  0  0  0  0  0  0  0
    6.5210    1.2807   -6.3041 C   0  0  0  0  0  0  0  0  0  0  0  0
    5.9668    0.1231   -6.8574 C   0  0  0  0  0  0  0  0  0  0  0  0
    5.6722   -0.9559   -6.0123 C   0  0  0  0  0  0  0  0  0  0  0  0
    5.0706   -2.2365   -6.5342 C   0  0  0  0  0  0  0  0  0  0  0  0
    5.9091   -0.9016   -4.6920 N   0  0  0  0  0  0  0  0  0  0  0  0
    3.2423   -0.4594    3.6605 H   0  0  0  0  0  0  0  0  0  0  0  0
    3.0620    1.2504    3.2039 H   0  0  0  0  0  0  0  0  0  0  0  0
    4.6820    0.5317    3.3295 H   0  0  0  0  0  0  0  0  0  0  0  0
    2.5356   -0.2932    1.2734 H   0  0  0  0  0  0  0  0  0  0  0  0
    4.1497   -0.9980    1.3790 H   0  0  0  0  0  0  0  0  0  0  0  0
    5.1562    1.2698    0.9263 H   0  0  0  0  0  0  0  0  0  0  0  0
    3.5344    1.9411    0.7157 H   0  0  0  0  0  0  0  0  0  0  0  0
    4.6884   -0.3505   -0.9445 H   0  0  0  0  0  0  0  0  0  0  0  0
    2.7787    0.1085   -2.3171 H   0  0  0  0  0  0  0  0  0  0  0  0
    2.2250   -0.0784   -0.7980 H   0  0  0  0  0  0  0  0  0  0  0  0
    4.5507    1.3621   -2.8432 H   0  0  0  0  0  0  0  0  0  0  0  0
    4.9516    3.4200   -0.6229 H   0  0  0  0  0  0  0  0  0  0  0  0
    3.4712    3.1116   -1.5233 H   0  0  0  0  0  0  0  0  0  0  0  0
    6.1439    4.0443   -2.7688 H   0  0  0  0  0  0  0  0  0  0  0  0
    4.7070    5.0602   -2.4958 H   0  0  0  0  0  0  0  0  0  0  0  0
    4.6533    3.7343   -3.6812 H   0  0  0  0  0  0  0  0  0  0  0  0
    7.3231    0.7529   -0.1205 H   0  0  0  0  0  0  0  0  0  0  0  0
    6.7299    2.4140   -0.1746 H   0  0  0  0  0  0  0  0  0  0  0  0
    9.1910    1.4240   -1.7421 H   0  0  0  0  0  0  0  0  0  0  0  0
    9.2081    2.3487   -0.2286 H   0  0  0  0  0  0  0  0  0  0  0  0
    8.5601    3.0873   -1.7212 H   0  0  0  0  0  0  0  0  0  0  0  0
    6.2493   -0.7548   -2.2724 H   0  0  0  0  0  0  0  0  0  0  0  0
    7.8223   -0.0098   -2.5500 H   0  0  0  0  0  0  0  0  0  0  0  0
    7.1872    2.2109   -4.4538 H   0  0  0  0  0  0  0  0  0  0  0  0
    6.7590    2.1378   -6.9402 H   0  0  0  0  0  0  0  0  0  0  0  0
    5.7616    0.0566   -7.9285 H   0  0  0  0  0  0  0  0  0  0  0  0
    4.8853   -2.1960   -7.6171 H   0  0  0  0  0  0  0  0  0  0  0  0
    4.1195   -2.4487   -6.0196 H   0  0  0  0  0  0  0  0  0  0  0  0
    5.7402   -3.0859   -6.3223 H   0  0  0  0  0  0  0  0  0  0  0  0
  1  2  1  0
  1 20  1  0
  1 21  1  0
  1 22  1  0
  2  3  1  0
  2 23  1  0
  2 24  1  0
  3  4  1  0
  3 25  1  0
  3 26  1  0
  4  5  1  0
  4  6  1  0
  4 27  1  1
  5 28  1  0
  5 29  1  0
  6  7  1  0
  6  9  1  0
  6 30  1  6
  7  8  1  0
  7 31  1  0
  7 32  1  0
  8 33  1  0
  8 34  1  0
  8 35  1  0
  9 10  1  0
  9 12  1  0
 10 11  1  0
 10 36  1  0
 10 37  1  0
 11 38  1  0
 11 39  1  0
 11 40  1  0
 12 13  1  0
 12 41  1  0
 12 42  1  0
 13 14  2  0
 13 19  1  0
 14 15  1  0
 14 43  1  0
 15 16  2  0
 15 44  1  0
 16 17  1  0
 16 45  1  0
 17 18  1  0
 17 19  2  0
 18 46  1  0
 18 47  1  0
 18 48  1  0
M  END

