
     RDKit          3D

 47 50  0  0  0  0  0  0  0  0999 V2000
    2.3517    0.6394    1.2787 C   0  0  0  0  0  0  0  0  0  0  0  0
    3.6491    0.1155    1.0769 O   0  0  0  0  0  0  0  0  0  0  0  0
    3.7858   -1.1277    0.5646 C   0  0  0  0  0  0  0  0  0  0  0  0
    5.1012   -1.5892    0.3792 C   0  0  0  0  0  0  0  0  0  0  0  0
    5.3272   -2.8495   -0.1521 C   0  0  0  0  0  0  0  0  0  0  0  0
    4.2625   -3.6960   -0.5222 C   0  0  0  0  0  0  0  0  0  0  0  0
    2.9418   -3.2540   -0.3013 C   0  0  0  0  0  0  0  0  0  0  0  0
    2.7239   -1.9690    0.2248 C   0  0  0  0  0  0  0  0  0  0  0  0
    1.6750   -4.0239   -0.5946 C   0  0  0  0  0  0  0  0  0  0  0  0
    0.6121   -3.4557   -0.8073 O   0  0  0  0  0  0  0  0  0  0  0  0
    1.7686   -5.3734   -0.5561 N   0  0  0  0  0  0  0  0  0  0  0  0
    0.7174   -6.3754   -0.6895 C   0  0  0  0  0  0  0  0  0  0  0  0
    1.7900   -7.4648   -0.4235 C   0  0  0  0  0  0  0  0  0  0  0  0
    2.8136   -6.3245   -0.1377 C   0  0  1  0  0  0  0  0  0  0  0  0
    3.0482   -6.2240    0.9404 H   0  0  0  0  0  0  0  0  0  0  0  0
    4.0654   -6.1960   -0.9466 C   0  0  0  0  0  0  0  0  0  0  0  0
    4.8912   -7.0635   -1.6565 C   0  0  0  0  0  0  0  0  0  0  0  0
    4.8307   -8.5457   -1.6721 C   0  0  0  0  0  0  0  0  0  0  0  0
    4.1007   -9.1924   -0.9433 O   0  0  0  0  0  0  0  0  0  0  0  0
    5.6791   -9.0611   -2.5637 O   0  0  0  0  0  0  0  0  0  0  0  0
    5.8707  -10.5048   -2.7379 C   0  0  1  0  0  0  0  0  0  0  0  0
    4.5665  -11.1554   -3.2122 C   0  0  0  0  0  0  0  0  0  0  0  0
    6.9391  -10.5726   -3.8309 C   0  0  0  0  0  0  0  0  0  0  0  0
    6.3857  -11.1271   -1.4355 C   0  0  0  0  0  0  0  0  0  0  0  0
    5.8806   -6.3580   -2.3043 N   0  0  0  0  0  0  0  0  0  0  0  0
    5.6914   -5.1104   -1.9882 C   0  0  0  0  0  0  0  0  0  0  0  0
    4.6055   -4.9358   -1.1469 N   0  0  0  0  0  0  0  0  0  0  0  0
    2.4848    1.6484    1.6904 H   0  0  0  0  0  0  0  0  0  0  0  0
    1.7726    0.0311    1.9958 H   0  0  0  0  0  0  0  0  0  0  0  0
    1.7869    0.7072    0.3324 H   0  0  0  0  0  0  0  0  0  0  0  0
    5.9318   -0.9418    0.6664 H   0  0  0  0  0  0  0  0  0  0  0  0
    6.3535   -3.1980   -0.2756 H   0  0  0  0  0  0  0  0  0  0  0  0
    1.6837   -1.6659    0.3362 H   0  0  0  0  0  0  0  0  0  0  0  0
    0.2354   -6.3879   -1.6801 H   0  0  0  0  0  0  0  0  0  0  0  0
   -0.0680   -6.2777    0.0796 H   0  0  0  0  0  0  0  0  0  0  0  0
    2.0431   -8.0668   -1.2996 H   0  0  0  0  0  0  0  0  0  0  0  0
    1.6084   -8.1363    0.4237 H   0  0  0  0  0  0  0  0  0  0  0  0
    4.1935  -10.6491   -4.1163 H   0  0  0  0  0  0  0  0  0  0  0  0
    3.7932  -11.1097   -2.4351 H   0  0  0  0  0  0  0  0  0  0  0  0
    4.7515  -12.2112   -3.4652 H   0  0  0  0  0  0  0  0  0  0  0  0
    6.5820  -10.0841   -4.7498 H   0  0  0  0  0  0  0  0  0  0  0  0
    7.1848  -11.6205   -4.0614 H   0  0  0  0  0  0  0  0  0  0  0  0
    7.8555  -10.0581   -3.5054 H   0  0  0  0  0  0  0  0  0  0  0  0
    5.6304  -11.0728   -0.6413 H   0  0  0  0  0  0  0  0  0  0  0  0
    7.2956  -10.6073   -1.0972 H   0  0  0  0  0  0  0  0  0  0  0  0
    6.6411  -12.1844   -1.6077 H   0  0  0  0  0  0  0  0  0  0  0  0
    6.2768   -4.2629   -2.3427 H   0  0  0  0  0  0  0  0  0  0  0  0
  1  2  1  0
  1 28  1  0
  1 29  1  0
  1 30  1  0
  2  3  1  0
  3  4  2  0
  3  8  1  0
  4  5  1  0
  4 31  1  0
  5  6  2  0
  5 32  1  0
  6  7  1  0
  6 27  1  0
  7  8  2  0
  7  9  1  0
  8 33  1  0
  9 10  2  0
  9 11  1  0
 11 12  1  0
 11 14  1  0
 12 13  1  0
 12 34  1  0
 12 35  1  0
 13 14  1  0
 13 36  1  0
 13 37  1  0
 14 15  1  1
 14 16  1  0
 16 17  2  0
 16 27  1  0
 17 18  1  0
 17 25  1  0
 18 19  2  0
 18 20  1  0
 21 20  1  1
 21 22  1  0
 21 23  1  0
 21 24  1  0
 22 38  1  0
 22 39  1  0
 22 40  1  0
 23 41  1  0
 23 42  1  0
 23 43  1  0
 24 44  1  0
 24 45  1  0
 24 46  1  0
 25 26  2  0
 26 27  1  0
 26 47  1  0
M  END

