
     RDKit          3D

 54 57  0  0  0  0  0  0  0  0999 V2000
    3.0122    1.3398    1.4824 C   0  0  0  0  0  0  0  0  0  0  0  0
    3.1574    0.4259    0.4150 O   0  0  0  0  0  0  0  0  0  0  0  0
    3.4710    0.8864   -0.8191 C   0  0  0  0  0  0  0  0  0  0  0  0
    3.6521    2.2407   -1.1416 C   0  0  0  0  0  0  0  0  0  0  0  0
    4.0125    2.6265   -2.4314 C   0  0  0  0  0  0  0  0  0  0  0  0
    4.2044    1.6737   -3.4461 C   0  0  0  0  0  0  0  0  0  0  0  0
    4.5689    2.0989   -4.8169 C   0  0  0  0  0  0  0  0  0  0  0  0
    4.4400    3.3472   -5.1133 N   0  0  0  0  0  0  0  0  0  0  0  0
    4.7985    3.8332   -6.3443 N   0  0  0  0  0  0  0  0  0  0  0  0
    4.2799    5.1945   -6.6199 C   0  0  0  0  0  0  0  0  0  0  0  0
    3.0190    5.2237   -7.4598 C   0  0  0  0  0  0  0  0  0  0  0  0
    1.7889    5.0113   -6.8182 C   0  0  0  0  0  0  0  0  0  0  0  0
    0.5812    5.0719   -7.5110 C   0  0  0  0  0  0  0  0  0  0  0  0
    0.6008    5.3606   -8.8787 C   0  0  0  0  0  0  0  0  0  0  0  0
    1.8063    5.5677   -9.5455 C   0  0  0  0  0  0  0  0  0  0  0  0
    3.0327    5.4881   -8.8540 C   0  0  0  0  0  0  0  0  0  0  0  0
    4.2623    5.6534   -9.5187 N   0  0  0  0  0  0  0  0  0  0  0  0
    4.4827    6.3331  -10.6976 C   0  0  0  0  0  0  0  0  0  0  0  0
    3.6119    6.9329  -11.3226 O   0  0  0  0  0  0  0  0  0  0  0  0
    5.8716    6.3228  -11.1958 C   0  0  0  0  0  0  0  0  0  0  0  0
    7.0758    5.7398  -10.7994 C   0  0  0  0  0  0  0  0  0  0  0  0
    8.0582    6.1325  -11.7436 C   0  0  0  0  0  0  0  0  0  0  0  0
    7.4302    6.9403  -12.6852 C   0  0  0  0  0  0  0  0  0  0  0  0
    6.1190    7.0419  -12.3406 N   0  0  0  0  0  0  0  0  0  0  0  0
    5.3787    7.5503  -12.8126 H   0  0  0  0  0  0  0  0  0  0  0  0
    5.7866    3.3414   -7.1683 C   0  0  0  0  0  0  0  0  0  0  0  0
    6.2286    3.9761   -8.1141 O   0  0  0  0  0  0  0  0  0  0  0  0
    6.4665    1.7420   -6.7632 S   0  0  0  0  0  0  0  0  0  0  0  0
    5.0284    1.0912   -5.8412 C   0  0  0  0  0  0  0  0  0  0  0  0
    4.0092    0.3179   -3.1177 C   0  0  0  0  0  0  0  0  0  0  0  0
    3.6443   -0.0871   -1.8351 C   0  0  0  0  0  0  0  0  0  0  0  0
    3.5328   -1.4228   -1.5860 O   0  0  0  0  0  0  0  0  0  0  0  0
    2.2630   -1.9224   -1.1878 C   0  0  0  0  0  0  0  0  0  0  0  0
    2.7765    0.7424    2.3729 H   0  0  0  0  0  0  0  0  0  0  0  0
    2.1901    2.0549    1.3015 H   0  0  0  0  0  0  0  0  0  0  0  0
    3.9438    1.9037    1.6647 H   0  0  0  0  0  0  0  0  0  0  0  0
    3.5295    3.0069   -0.3759 H   0  0  0  0  0  0  0  0  0  0  0  0
    4.1605    3.6814   -2.6633 H   0  0  0  0  0  0  0  0  0  0  0  0
    5.0856    5.7756   -7.0842 H   0  0  0  0  0  0  0  0  0  0  0  0
    4.0734    5.6191   -5.6301 H   0  0  0  0  0  0  0  0  0  0  0  0
    1.7906    4.8060   -5.7440 H   0  0  0  0  0  0  0  0  0  0  0  0
   -0.3643    4.9092   -6.9882 H   0  0  0  0  0  0  0  0  0  0  0  0
   -0.3351    5.4254   -9.4401 H   0  0  0  0  0  0  0  0  0  0  0  0
    1.8191    5.8055  -10.6062 H   0  0  0  0  0  0  0  0  0  0  0  0
    5.0677    5.1836   -9.1014 H   0  0  0  0  0  0  0  0  0  0  0  0
    7.2225    5.0945   -9.9361 H   0  0  0  0  0  0  0  0  0  0  0  0
    9.1109    5.8561  -11.7417 H   0  0  0  0  0  0  0  0  0  0  0  0
    7.8277    7.4413  -13.5656 H   0  0  0  0  0  0  0  0  0  0  0  0
    5.3619    0.1499   -5.3903 H   0  0  0  0  0  0  0  0  0  0  0  0
    4.2137    0.8635   -6.5497 H   0  0  0  0  0  0  0  0  0  0  0  0
    4.1277   -0.4794   -3.8528 H   0  0  0  0  0  0  0  0  0  0  0  0
    2.3647   -3.0146   -1.1214 H   0  0  0  0  0  0  0  0  0  0  0  0
    1.4884   -1.6817   -1.9387 H   0  0  0  0  0  0  0  0  0  0  0  0
    1.9540   -1.5265   -0.2084 H   0  0  0  0  0  0  0  0  0  0  0  0
  1  2  1  0
  1 34  1  0
  1 35  1  0
  1 36  1  0
  2  3  1  0
  3  4  2  0
  3 31  1  0
  4  5  1  0
  4 37  1  0
  5  6  2  0
  5 38  1  0
  6  7  1  0
  6 30  1  0
  7  8  2  0
  7 29  1  0
  8  9  1  0
  9 10  1  0
  9 26  1  0
 10 11  1  0
 10 39  1  0
 10 40  1  0
 11 12  2  0
 11 16  1  0
 12 13  1  0
 12 41  1  0
 13 14  2  0
 13 42  1  0
 14 15  1  0
 14 43  1  0
 15 16  2  0
 15 44  1  0
 16 17  1  0
 17 18  1  0
 17 45  1  0
 18 19  2  0
 18 20  1  0
 20 21  2  0
 20 24  1  0
 21 22  1  0
 21 46  1  0
 22 23  2  0
 22 47  1  0
 23 24  1  0
 23 48  1  0
 24 25  1  0
 26 27  2  0
 26 28  1  0
 28 29  1  0
 29 49  1  0
 29 50  1  0
 30 31  2  0
 30 51  1  0
 31 32  1  0
 32 33  1  0
 33 52  1  0
 33 53  1  0
 33 54  1  0
M  END

