
     RDKit          3D

 36 39  0  0  0  0  0  0  0  0999 V2000
    0.8762    0.0975    0.1780 O   0  0  0  0  0  0  0  0  0  0  0  0
    2.0955    0.0354    0.1634 C   0  0  0  0  0  0  0  0  0  0  0  0
    2.8254    1.2409    0.2888 N   0  0  0  0  0  0  0  0  0  0  0  0
    2.2474    2.0718    0.3779 H   0  0  0  0  0  0  0  0  0  0  0  0
    4.1786    1.3106    0.2823 C   0  0  0  0  0  0  0  0  0  0  0  0
    5.1052    2.7786    0.3706 S   0  0  0  0  0  0  0  0  0  0  0  0
    6.5889    1.8683    0.2527 C   0  0  0  0  0  0  0  0  0  0  0  0
    6.3877    0.5153    0.1632 C   0  0  0  0  0  0  0  0  0  0  0  0
    7.5248   -0.4435    0.1118 C   0  0  0  0  0  0  0  0  0  0  0  0
    7.6854   -1.4390    1.0970 C   0  0  0  0  0  0  0  0  0  0  0  0
    8.7751   -2.3117    1.0708 C   0  0  0  0  0  0  0  0  0  0  0  0
    9.7300   -2.1903    0.0569 C   0  0  0  0  0  0  0  0  0  0  0  0
   11.0954   -3.2760    0.0196 Cl  0  0  0  0  0  0  0  0  0  0  0  0
    9.5995   -1.2057   -0.9276 C   0  0  0  0  0  0  0  0  0  0  0  0
    8.5028   -0.3438   -0.8959 C   0  0  0  0  0  0  0  0  0  0  0  0
    4.9750    0.1752    0.1628 C   0  0  0  0  0  0  0  0  0  0  0  0
    4.2949   -1.0906   -0.0116 C   0  0  0  0  0  0  0  0  0  0  0  0
    5.0125   -2.2131   -0.2196 O   0  0  0  0  0  0  0  0  0  0  0  0
    2.9105   -1.1765    0.0102 C   0  0  0  0  0  0  0  0  0  0  0  0
    2.1971   -2.4742   -0.1406 C   0  0  0  0  0  0  0  0  0  0  0  0
    2.6099   -3.6210    0.5640 C   0  0  0  0  0  0  0  0  0  0  0  0
    1.9344   -4.8346    0.4237 C   0  0  0  0  0  0  0  0  0  0  0  0
    0.8297   -4.9319   -0.4269 C   0  0  0  0  0  0  0  0  0  0  0  0
    0.4052   -3.8009   -1.1303 C   0  0  0  0  0  0  0  0  0  0  0  0
    1.0761   -2.5854   -0.9857 C   0  0  0  0  0  0  0  0  0  0  0  0
    7.5418    2.3909    0.3123 H   0  0  0  0  0  0  0  0  0  0  0  0
    6.9568   -1.5225    1.9069 H   0  0  0  0  0  0  0  0  0  0  0  0
    8.8931   -3.0769    1.8397 H   0  0  0  0  0  0  0  0  0  0  0  0
   10.3499   -1.1239   -1.7156 H   0  0  0  0  0  0  0  0  0  0  0  0
    8.3934    0.4164   -1.6726 H   0  0  0  0  0  0  0  0  0  0  0  0
    5.9578   -2.0118   -0.2880 H   0  0  0  0  0  0  0  0  0  0  0  0
    3.4696   -3.5602    1.2327 H   0  0  0  0  0  0  0  0  0  0  0  0
    2.2730   -5.7092    0.9858 H   0  0  0  0  0  0  0  0  0  0  0  0
    0.3007   -5.8821   -0.5380 H   0  0  0  0  0  0  0  0  0  0  0  0
   -0.4599   -3.8625   -1.7958 H   0  0  0  0  0  0  0  0  0  0  0  0
    0.7232   -1.7070   -1.5257 H   0  0  0  0  0  0  0  0  0  0  0  0
  1  2  2  0
  2  3  1  0
  2 19  1  0
  3  4  1  0
  3  5  1  0
  5  6  1  0
  5 16  2  0
  6  7  1  0
  7  8  2  0
  7 26  1  0
  8  9  1  0
  8 16  1  0
  9 10  2  0
  9 15  1  0
 10 11  1  0
 10 27  1  0
 11 12  2  0
 11 28  1  0
 12 13  1  0
 12 14  1  0
 14 15  2  0
 14 29  1  0
 15 30  1  0
 16 17  1  0
 17 18  1  0
 17 19  2  0
 18 31  1  0
 19 20  1  0
 20 21  2  0
 20 25  1  0
 21 22  1  0
 21 32  1  0
 22 23  2  0
 22 33  1  0
 23 24  1  0
 23 34  1  0
 24 25  2  0
 24 35  1  0
 25 36  1  0
M  END

