
     RDKit          3D

 30 32  0  0  0  0  0  0  0  0999 V2000
    1.6085    0.6169   -0.8889 O   0  0  0  0  0  0  0  0  0  0  0  0
    2.8506    0.3541   -0.2593 C   0  0  2  0  0  0  0  0  0  0  0  0
    2.7530   -0.8517    0.6924 C   0  0  0  0  0  0  0  0  0  0  0  0
    3.9310   -0.9398    1.6679 C   0  0  0  0  0  0  0  0  0  0  0  0
    3.9812    0.2907    2.5897 C   0  0  0  0  0  0  0  0  0  0  0  0
    3.7906    1.5390    1.7756 C   0  0  0  0  0  0  0  0  0  0  0  0
    4.2235    3.1454    2.2893 S   0  0  0  0  0  0  0  0  0  0  0  0
    3.6783    3.7443    0.7286 C   0  0  0  0  0  0  0  0  0  0  0  0
    3.6992    5.2185    0.4345 C   0  0  1  0  0  0  0  0  0  0  0  0
    2.3242    5.9099    0.5204 C   0  0  0  0  0  0  0  0  0  0  0  0
    2.7241    7.3408    0.8934 C   0  0  0  0  0  0  0  0  0  0  0  0
    3.9108    7.0959    1.8315 C   0  0  0  0  0  0  0  0  0  0  0  0
    4.5233    5.8858    1.3858 O   0  0  0  0  0  0  0  0  0  0  0  0
    3.2405    2.8326   -0.0811 N   0  0  0  0  0  0  0  0  0  0  0  0
    3.2841    1.5867    0.4975 C   0  0  0  0  0  0  0  0  0  0  0  0
    1.4384   -0.0994   -1.5137 H   0  0  0  0  0  0  0  0  0  0  0  0
    3.6243    0.1485   -1.0305 H   0  0  0  0  0  0  0  0  0  0  0  0
    2.6684   -1.7795    0.1009 H   0  0  0  0  0  0  0  0  0  0  0  0
    1.8079   -0.7424    1.2525 H   0  0  0  0  0  0  0  0  0  0  0  0
    4.8767   -1.0091    1.1012 H   0  0  0  0  0  0  0  0  0  0  0  0
    3.8600   -1.8582    2.2729 H   0  0  0  0  0  0  0  0  0  0  0  0
    4.9363    0.3233    3.1402 H   0  0  0  0  0  0  0  0  0  0  0  0
    3.1887    0.2148    3.3579 H   0  0  0  0  0  0  0  0  0  0  0  0
    4.1162    5.3469   -0.5838 H   0  0  0  0  0  0  0  0  0  0  0  0
    1.7270    5.4502    1.3245 H   0  0  0  0  0  0  0  0  0  0  0  0
    1.7564    5.8232   -0.4163 H   0  0  0  0  0  0  0  0  0  0  0  0
    1.9136    7.9131    1.3691 H   0  0  0  0  0  0  0  0  0  0  0  0
    3.0494    7.8952   -0.0023 H   0  0  0  0  0  0  0  0  0  0  0  0
    3.5762    6.9759    2.8796 H   0  0  0  0  0  0  0  0  0  0  0  0
    4.6584    7.9059    1.8073 H   0  0  0  0  0  0  0  0  0  0  0  0
  1  2  1  0
  1 16  1  0
  2  3  1  0
  2 15  1  0
  2 17  1  6
  3  4  1  0
  3 18  1  0
  3 19  1  0
  4  5  1  0
  4 20  1  0
  4 21  1  0
  5  6  1  0
  5 22  1  0
  5 23  1  0
  6  7  1  0
  6 15  2  0
  7  8  1  0
  8  9  1  0
  8 14  2  0
  9 10  1  0
  9 13  1  0
  9 24  1  6
 10 11  1  0
 10 25  1  0
 10 26  1  0
 11 12  1  0
 11 27  1  0
 11 28  1  0
 12 13  1  0
 12 29  1  0
 12 30  1  0
 14 15  1  0
M  END

