
     RDKit          3D

 37 39  0  0  0  0  0  0  0  0999 V2000
    2.4403   -0.6676   -0.6164 O   0  0  0  0  0  0  0  0  0  0  0  0
    2.0158    0.3643   -0.1143 C   0  0  0  0  0  0  0  0  0  0  0  0
    0.7648    0.8563   -0.3967 N   0  0  0  0  0  0  0  0  0  0  0  0
   -0.1610    0.2054   -1.2998 C   0  0  1  0  0  0  0  0  0  0  0  0
   -1.5045   -0.1688   -0.6512 C   0  0  0  0  0  0  0  0  0  0  0  0
   -2.4084   -0.6768   -1.7712 C   0  0  0  0  0  0  0  0  0  0  0  0
   -2.0413    0.3715   -3.2583 S   0  0  0  0  0  0  0  0  0  0  0  0
   -0.4986    1.0670   -2.5322 C   0  0  0  0  0  0  0  0  0  0  0  0
    2.8064    1.1997    0.8483 C   0  0  1  0  0  0  0  0  0  0  0  0
    3.9792    0.5633    1.5652 C   0  0  0  0  0  0  0  0  0  0  0  0
    4.2562    1.6186    0.5451 C   0  0  2  0  0  0  0  0  0  0  0  0
    4.6609    3.0099    1.0240 C   0  0  0  0  0  0  0  0  0  0  0  0
    4.4018    4.0816   -0.0443 C   0  0  0  0  0  0  0  0  0  0  0  0
    5.0699    3.7182   -1.3770 C   0  0  0  0  0  0  0  0  0  0  0  0
    4.6449    2.3236   -1.8549 C   0  0  0  0  0  0  0  0  0  0  0  0
    4.9001    1.2496   -0.7869 C   0  0  0  0  0  0  0  0  0  0  0  0
    0.4723    1.7185    0.0488 H   0  0  0  0  0  0  0  0  0  0  0  0
    0.3484   -0.7115   -1.6316 H   0  0  0  0  0  0  0  0  0  0  0  0
   -1.9476    0.7284   -0.1829 H   0  0  0  0  0  0  0  0  0  0  0  0
   -1.3680   -0.9246    0.1387 H   0  0  0  0  0  0  0  0  0  0  0  0
   -3.4775   -0.5916   -1.5297 H   0  0  0  0  0  0  0  0  0  0  0  0
   -2.1922   -1.7288   -2.0136 H   0  0  0  0  0  0  0  0  0  0  0  0
   -0.6667    2.1162   -2.2363 H   0  0  0  0  0  0  0  0  0  0  0  0
    0.3091    1.0453   -3.2781 H   0  0  0  0  0  0  0  0  0  0  0  0
    2.2215    1.9355    1.4106 H   0  0  0  0  0  0  0  0  0  0  0  0
    4.1817   -0.4743    1.2856 H   0  0  0  0  0  0  0  0  0  0  0  0
    4.1160    0.8019    2.6242 H   0  0  0  0  0  0  0  0  0  0  0  0
    5.7402    2.9906    1.2660 H   0  0  0  0  0  0  0  0  0  0  0  0
    4.1380    3.2615    1.9623 H   0  0  0  0  0  0  0  0  0  0  0  0
    4.7566    5.0640    0.3104 H   0  0  0  0  0  0  0  0  0  0  0  0
    3.3116    4.1814   -0.1999 H   0  0  0  0  0  0  0  0  0  0  0  0
    6.1683    3.7389   -1.2480 H   0  0  0  0  0  0  0  0  0  0  0  0
    4.8344    4.4771   -2.1422 H   0  0  0  0  0  0  0  0  0  0  0  0
    5.1729    2.0604   -2.7868 H   0  0  0  0  0  0  0  0  0  0  0  0
    3.5677    2.3367   -2.1030 H   0  0  0  0  0  0  0  0  0  0  0  0
    5.9893    1.1537   -0.6186 H   0  0  0  0  0  0  0  0  0  0  0  0
    4.5379    0.2700   -1.1268 H   0  0  0  0  0  0  0  0  0  0  0  0
  1  2  2  0
  2  3  1  0
  2  9  1  0
  3  4  1  0
  3 17  1  0
  4  5  1  0
  4  8  1  0
  4 18  1  6
  5  6  1  0
  5 19  1  0
  5 20  1  0
  6  7  1  0
  6 21  1  0
  6 22  1  0
  7  8  1  0
  8 23  1  0
  8 24  1  0
  9 10  1  0
  9 11  1  0
  9 25  1  1
 11 10  1  1
 10 26  1  0
 10 27  1  0
 11 12  1  0
 11 16  1  0
 12 13  1  0
 12 28  1  0
 12 29  1  0
 13 14  1  0
 13 30  1  0
 13 31  1  0
 14 15  1  0
 14 32  1  0
 14 33  1  0
 15 16  1  0
 15 34  1  0
 15 35  1  0
 16 36  1  0
 16 37  1  0
M  END

