
     RDKit          3D

 54 56  0  0  0  0  0  0  0  0999 V2000
    6.8831    0.2704    0.4657 C   0  0  0  0  0  0  0  0  0  0  0  0
    6.8608    0.7754    1.9059 C   0  0  0  0  0  0  0  0  0  0  0  0
    6.5848   -0.2774    2.8750 N   0  0  0  0  0  0  0  0  0  0  0  0
    7.4564   -0.8648    3.7394 C   0  0  0  0  0  0  0  0  0  0  0  0
    6.7305   -1.8288    4.4188 C   0  0  0  0  0  0  0  0  0  0  0  0
    7.3076   -2.8822    5.6596 Cl  0  0  0  0  0  0  0  0  0  0  0  0
    5.4120   -1.7507    3.8960 C   0  0  0  0  0  0  0  0  0  0  0  0
    4.2025   -2.5613    4.2623 C   0  0  0  0  0  0  0  0  0  0  0  0
    4.2714   -3.9482    3.7974 N   0  0  0  0  0  0  0  0  0  0  0  0
    4.2815   -4.1744    2.3617 C   0  0  0  0  0  0  0  0  0  0  0  0
    4.1502   -4.9596    4.7264 C   0  0  0  0  0  0  0  0  0  0  0  0
    4.0296   -4.7364    5.9214 O   0  0  0  0  0  0  0  0  0  0  0  0
    4.1765   -6.3901    4.1869 C   0  0  0  0  0  0  0  0  0  0  0  0
    3.9958   -7.4362    5.2850 C   0  0  0  0  0  0  0  0  0  0  0  0
    4.0273   -8.8728    4.7569 C   0  0  0  0  0  0  0  0  0  0  0  0
    3.8440   -9.9234    5.8552 C   0  0  0  0  0  0  0  0  0  0  0  0
    3.8764  -11.3556    5.3107 C   0  0  0  0  0  0  0  0  0  0  0  0
    3.7015  -12.3691    6.3393 N   0  0  0  0  0  0  0  0  0  0  0  0
    4.7619  -12.9438    7.0572 C   0  0  0  0  0  0  0  0  0  0  0  0
    5.9333  -12.6895    6.8988 O   0  0  0  0  0  0  0  0  0  0  0  0
    4.1265  -13.9057    8.0131 C   0  0  0  0  0  0  0  0  0  0  0  0
    4.7018  -14.7445    8.9599 C   0  0  0  0  0  0  0  0  0  0  0  0
    3.8392  -15.5476    9.7220 C   0  0  0  0  0  0  0  0  0  0  0  0
    2.4504  -15.5024    9.5301 C   0  0  0  0  0  0  0  0  0  0  0  0
    1.8796  -14.6528    8.5699 C   0  0  0  0  0  0  0  0  0  0  0  0
    2.7421  -13.8607    7.8218 C   0  0  0  0  0  0  0  0  0  0  0  0
    2.4520  -12.8688    6.7380 C   0  0  0  0  0  0  0  0  0  0  0  0
    1.3859  -12.5416    6.2706 O   0  0  0  0  0  0  0  0  0  0  0  0
    5.3562   -0.8064    2.9538 N   0  0  0  0  0  0  0  0  0  0  0  0
    7.0714    1.1061   -0.2265 H   0  0  0  0  0  0  0  0  0  0  0  0
    5.9161   -0.1844    0.2050 H   0  0  0  0  0  0  0  0  0  0  0  0
    7.6728   -0.4834    0.3202 H   0  0  0  0  0  0  0  0  0  0  0  0
    6.0878    1.5496    2.0314 H   0  0  0  0  0  0  0  0  0  0  0  0
    7.8264    1.2243    2.1834 H   0  0  0  0  0  0  0  0  0  0  0  0
    8.4977   -0.5631    3.8231 H   0  0  0  0  0  0  0  0  0  0  0  0
    3.3173   -2.0583    3.8369 H   0  0  0  0  0  0  0  0  0  0  0  0
    4.0853   -2.6128    5.3526 H   0  0  0  0  0  0  0  0  0  0  0  0
    4.6214   -3.2572    1.8613 H   0  0  0  0  0  0  0  0  0  0  0  0
    3.2796   -4.4249    1.9649 H   0  0  0  0  0  0  0  0  0  0  0  0
    4.9742   -4.9798    2.0776 H   0  0  0  0  0  0  0  0  0  0  0  0
    5.1332   -6.5528    3.6577 H   0  0  0  0  0  0  0  0  0  0  0  0
    3.3933   -6.5035    3.4160 H   0  0  0  0  0  0  0  0  0  0  0  0
    3.0443   -7.2472    5.8091 H   0  0  0  0  0  0  0  0  0  0  0  0
    4.7791   -7.2950    6.0474 H   0  0  0  0  0  0  0  0  0  0  0  0
    4.9856   -9.0540    4.2345 H   0  0  0  0  0  0  0  0  0  0  0  0
    3.2390   -9.0035    3.9917 H   0  0  0  0  0  0  0  0  0  0  0  0
    2.8822   -9.7584    6.3707 H   0  0  0  0  0  0  0  0  0  0  0  0
    4.6372   -9.8106    6.6140 H   0  0  0  0  0  0  0  0  0  0  0  0
    4.8414  -11.5550    4.8202 H   0  0  0  0  0  0  0  0  0  0  0  0
    3.0725  -11.5006    4.5729 H   0  0  0  0  0  0  0  0  0  0  0  0
    5.7847  -14.7714    9.0996 H   0  0  0  0  0  0  0  0  0  0  0  0
    4.2537  -16.2195   10.4777 H   0  0  0  0  0  0  0  0  0  0  0  0
    1.8048  -16.1399   10.1393 H   0  0  0  0  0  0  0  0  0  0  0  0
    0.7999  -14.6094    8.4108 H   0  0  0  0  0  0  0  0  0  0  0  0
  1  2  1  0
  1 30  1  0
  1 31  1  0
  1 32  1  0
  2  3  1  0
  2 33  1  0
  2 34  1  0
  3  4  1  0
  3 29  1  0
  4  5  2  0
  4 35  1  0
  5  6  1  0
  5  7  1  0
  7  8  1  0
  7 29  2  0
  8  9  1  0
  8 36  1  0
  8 37  1  0
  9 10  1  0
  9 11  1  0
 10 38  1  0
 10 39  1  0
 10 40  1  0
 11 12  2  0
 11 13  1  0
 13 14  1  0
 13 41  1  0
 13 42  1  0
 14 15  1  0
 14 43  1  0
 14 44  1  0
 15 16  1  0
 15 45  1  0
 15 46  1  0
 16 17  1  0
 16 47  1  0
 16 48  1  0
 17 18  1  0
 17 49  1  0
 17 50  1  0
 18 19  1  0
 18 27  1  0
 19 20  2  0
 19 21  1  0
 21 22  1  0
 21 26  2  0
 22 23  2  0
 22 51  1  0
 23 24  1  0
 23 52  1  0
 24 25  2  0
 24 53  1  0
 25 26  1  0
 25 54  1  0
 26 27  1  0
 27 28  2  0
M  END

