
     RDKit          3D

 42 43  0  0  0  0  0  0  0  0999 V2000
    2.7877    0.9450   -2.2198 C   0  0  0  0  0  0  0  0  0  0  0  0
    3.9561    0.5673   -1.3063 C   0  0  0  0  0  0  0  0  0  0  0  0
    4.3570    1.7202   -0.3863 C   0  0  0  0  0  0  0  0  0  0  0  0
    5.7613    1.2188    0.6772 S   0  0  0  0  0  0  0  0  0  0  0  0
    5.9186    2.6699    1.7008 C   0  0  0  0  0  0  0  0  0  0  0  0
    5.1947    3.7006    1.5479 N   0  0  0  0  0  0  0  0  0  0  0  0
    5.3273    4.8322    2.4720 C   0  0  1  0  0  0  0  0  0  0  0  0
    4.0380    4.9584    3.2934 C   0  0  0  0  0  0  0  0  0  0  0  0
    3.8187    4.1759    4.4432 C   0  0  0  0  0  0  0  0  0  0  0  0
    2.6272    4.2564    5.1522 C   0  0  0  0  0  0  0  0  0  0  0  0
    1.6068    5.1307    4.7313 C   0  0  0  0  0  0  0  0  0  0  0  0
    0.4833    5.1438    5.4880 O   0  0  0  0  0  0  0  0  0  0  0  0
   -0.5801    6.0003    5.1347 C   0  0  0  0  0  0  0  0  0  0  0  0
    1.8075    5.9193    3.5887 C   0  0  0  0  0  0  0  0  0  0  0  0
    3.0139    5.8211    2.8846 C   0  0  0  0  0  0  0  0  0  0  0  0
    6.5945    4.7859    3.3333 C   0  0  0  0  0  0  0  0  0  0  0  0
    7.0392    6.0109    4.0465 C   0  0  0  0  0  0  0  0  0  0  0  0
    8.1532    6.1959    4.4829 O   0  0  0  0  0  0  0  0  0  0  0  0
    6.1061    6.9850    4.1847 O   0  0  0  0  0  0  0  0  0  0  0  0
    7.3341    3.6416    3.3962 C   0  0  0  0  0  0  0  0  0  0  0  0
    8.5969    3.4281    4.1833 C   0  0  0  0  0  0  0  0  0  0  0  0
    6.9258    2.5443    2.6522 N   0  0  0  0  0  0  0  0  0  0  0  0
    2.5102    0.1046   -2.8752 H   0  0  0  0  0  0  0  0  0  0  0  0
    3.0427    1.8020   -2.8648 H   0  0  0  0  0  0  0  0  0  0  0  0
    1.8950    1.2227   -1.6355 H   0  0  0  0  0  0  0  0  0  0  0  0
    4.8231    0.2633   -1.9183 H   0  0  0  0  0  0  0  0  0  0  0  0
    3.6845   -0.3122   -0.6970 H   0  0  0  0  0  0  0  0  0  0  0  0
    3.5330    2.0272    0.2742 H   0  0  0  0  0  0  0  0  0  0  0  0
    4.6650    2.6095   -0.9557 H   0  0  0  0  0  0  0  0  0  0  0  0
    5.3726    5.7391    1.8408 H   0  0  0  0  0  0  0  0  0  0  0  0
    4.6023    3.4968    4.7890 H   0  0  0  0  0  0  0  0  0  0  0  0
    2.4547    3.6539    6.0464 H   0  0  0  0  0  0  0  0  0  0  0  0
   -1.3699    5.8427    5.8813 H   0  0  0  0  0  0  0  0  0  0  0  0
   -0.9828    5.7643    4.1331 H   0  0  0  0  0  0  0  0  0  0  0  0
   -0.2763    7.0624    5.1543 H   0  0  0  0  0  0  0  0  0  0  0  0
    1.0394    6.6085    3.2376 H   0  0  0  0  0  0  0  0  0  0  0  0
    3.1547    6.4334    1.9887 H   0  0  0  0  0  0  0  0  0  0  0  0
    5.2161    6.6514    3.9818 H   0  0  0  0  0  0  0  0  0  0  0  0
    8.5809    3.9798    5.1293 H   0  0  0  0  0  0  0  0  0  0  0  0
    9.4659    3.8084    3.6225 H   0  0  0  0  0  0  0  0  0  0  0  0
    8.7493    2.3544    4.3792 H   0  0  0  0  0  0  0  0  0  0  0  0
    7.4924    1.7050    2.6653 H   0  0  0  0  0  0  0  0  0  0  0  0
  1  2  1  0
  1 23  1  0
  1 24  1  0
  1 25  1  0
  2  3  1  0
  2 26  1  0
  2 27  1  0
  3  4  1  0
  3 28  1  0
  3 29  1  0
  4  5  1  0
  5  6  2  0
  5 22  1  0
  6  7  1  0
  7  8  1  0
  7 16  1  0
  7 30  1  6
  8  9  2  0
  8 15  1  0
  9 10  1  0
  9 31  1  0
 10 11  2  0
 10 32  1  0
 11 12  1  0
 11 14  1  0
 12 13  1  0
 13 33  1  0
 13 34  1  0
 13 35  1  0
 14 15  2  0
 14 36  1  0
 15 37  1  0
 16 17  1  0
 16 20  2  0
 17 18  2  0
 17 19  1  0
 19 38  1  0
 20 21  1  0
 20 22  1  0
 21 39  1  0
 21 40  1  0
 21 41  1  0
 22 42  1  0
M  END

