
     RDKit          3D

 41 43  0  0  0  0  0  0  0  0999 V2000
    2.2175    0.9086    0.9416 O   0  0  0  0  0  0  0  0  0  0  0  0
    2.5827    0.1239    0.0902 C   0  0  0  0  0  0  0  0  0  0  0  0
    2.3911    0.4112   -1.3627 C   0  0  0  0  0  0  0  0  0  0  0  0
    1.5976    1.5266   -1.6917 C   0  0  0  0  0  0  0  0  0  0  0  0
    1.3700    1.8807   -3.0183 C   0  0  0  0  0  0  0  0  0  0  0  0
    1.9534    1.1152   -4.0350 C   0  0  0  0  0  0  0  0  0  0  0  0
    1.6528    1.5890   -5.8542 Br  0  0  0  0  0  0  0  0  0  0  0  0
    2.7548    0.0101   -3.7344 C   0  0  0  0  0  0  0  0  0  0  0  0
    2.9681   -0.3405   -2.4007 C   0  0  0  0  0  0  0  0  0  0  0  0
    3.2237   -1.1938    0.6027 C   0  0  1  0  0  0  0  0  0  0  0  0
    2.7646   -2.3734   -0.1333 N   0  0  0  0  0  0  0  0  0  0  0  0
    2.1667   -3.1942    0.5881 N   0  0  0  0  0  0  0  0  0  0  0  0
    1.6804   -4.3607   -0.0561 C   0  0  0  0  0  0  0  0  0  0  0  0
    0.9947   -5.2676    0.7654 C   0  0  0  0  0  0  0  0  0  0  0  0
    0.4720   -6.4483    0.2376 C   0  0  0  0  0  0  0  0  0  0  0  0
    0.6413   -6.7156   -1.1241 C   0  0  0  0  0  0  0  0  0  0  0  0
   -0.0635   -8.3213   -1.8603 Br  0  0  0  0  0  0  0  0  0  0  0  0
    1.3236   -5.8177   -1.9592 C   0  0  0  0  0  0  0  0  0  0  0  0
    1.8417   -4.6425   -1.4254 C   0  0  0  0  0  0  0  0  0  0  0  0
    4.7726   -1.1272    0.5232 C   0  0  0  0  0  0  0  0  0  0  0  0
    5.3135   -0.4540   -0.3294 O   0  0  0  0  0  0  0  0  0  0  0  0
    5.5663   -1.9154    1.5153 C   0  0  0  0  0  0  0  0  0  0  0  0
    6.9682   -1.7940    1.4676 C   0  0  0  0  0  0  0  0  0  0  0  0
    7.7784   -2.4949    2.3551 C   0  0  0  0  0  0  0  0  0  0  0  0
    7.1823   -3.3370    3.3029 C   0  0  0  0  0  0  0  0  0  0  0  0
    8.2798   -4.3003    4.5209 Br  0  0  0  0  0  0  0  0  0  0  0  0
    5.7932   -3.4806    3.3654 C   0  0  0  0  0  0  0  0  0  0  0  0
    4.9898   -2.7676    2.4742 C   0  0  0  0  0  0  0  0  0  0  0  0
    1.1629    2.1114   -0.8790 H   0  0  0  0  0  0  0  0  0  0  0  0
    0.7489    2.7429   -3.2664 H   0  0  0  0  0  0  0  0  0  0  0  0
    3.2119   -0.5699   -4.5375 H   0  0  0  0  0  0  0  0  0  0  0  0
    3.5974   -1.1971   -2.1712 H   0  0  0  0  0  0  0  0  0  0  0  0
    2.9093   -1.2557    1.6547 H   0  0  0  0  0  0  0  0  0  0  0  0
    0.8784   -5.0250    1.8237 H   0  0  0  0  0  0  0  0  0  0  0  0
   -0.0622   -7.1545    0.8748 H   0  0  0  0  0  0  0  0  0  0  0  0
    1.4442   -6.0446   -3.0199 H   0  0  0  0  0  0  0  0  0  0  0  0
    2.3742   -3.9299   -2.0560 H   0  0  0  0  0  0  0  0  0  0  0  0
    7.4062   -1.1331    0.7172 H   0  0  0  0  0  0  0  0  0  0  0  0
    8.8641   -2.3930    2.3174 H   0  0  0  0  0  0  0  0  0  0  0  0
    5.3428   -4.1441    4.1052 H   0  0  0  0  0  0  0  0  0  0  0  0
    3.9082   -2.9006    2.5233 H   0  0  0  0  0  0  0  0  0  0  0  0
  1  2  2  0
  2  3  1  0
  2 10  1  0
  3  4  2  0
  3  9  1  0
  4  5  1  0
  4 29  1  0
  5  6  2  0
  5 30  1  0
  6  7  1  0
  6  8  1  0
  8  9  2  0
  8 31  1  0
  9 32  1  0
 10 11  1  0
 10 20  1  0
 10 33  1  1
 11 12  2  0
 12 13  1  0
 13 14  2  0
 13 19  1  0
 14 15  1  0
 14 34  1  0
 15 16  2  0
 15 35  1  0
 16 17  1  0
 16 18  1  0
 18 19  2  0
 18 36  1  0
 19 37  1  0
 20 21  2  0
 20 22  1  0
 22 23  2  0
 22 28  1  0
 23 24  1  0
 23 38  1  0
 24 25  2  0
 24 39  1  0
 25 26  1  0
 25 27  1  0
 27 28  2  0
 27 40  1  0
 28 41  1  0
M  END

