
     RDKit          3D

 63 66  0  0  0  0  0  0  0  0999 V2000
    1.3295   -0.8496    0.6491 O   0  0  0  0  0  0  0  0  0  0  0  0
    2.4167   -0.6445    0.1301 C   0  0  0  0  0  0  0  0  0  0  0  0
    2.5375   -0.3177   -1.3680 C   0  0  0  0  0  0  0  0  0  0  0  0
    3.8712   -0.5397   -1.9105 N   0  0  0  0  0  0  0  0  0  0  0  0
    4.1399   -1.9398   -2.2771 C   0  0  0  0  0  0  0  0  0  0  0  0
    3.5692   -2.3082   -3.6585 C   0  0  0  0  0  0  0  0  0  0  0  0
    4.0184   -1.4139   -4.7286 N   0  0  0  0  0  0  0  0  0  0  0  0
    5.3668   -1.6509   -5.2472 C   0  0  1  0  0  0  0  0  0  0  0  0
    5.6026   -3.0905   -5.7402 C   0  0  0  0  0  0  0  0  0  0  0  0
    6.8699   -2.9723   -6.5957 C   0  0  0  0  0  0  0  0  0  0  0  0
    6.7275   -1.6134   -7.3227 C   0  0  0  0  0  0  0  0  0  0  0  0
    5.6803   -0.8073   -6.5074 C   0  0  0  0  0  0  0  0  0  0  0  0
    3.7160   -0.0282   -4.3598 C   0  0  0  0  0  0  0  0  0  0  0  0
    4.2875    0.3679   -2.9865 C   0  0  0  0  0  0  0  0  0  0  0  0
    3.5988   -0.6313    0.7967 N   0  0  0  0  0  0  0  0  0  0  0  0
    3.7074   -0.9086    2.2187 C   0  0  0  0  0  0  0  0  0  0  0  0
    4.0541   -2.3517    2.5405 C   0  0  0  0  0  0  0  0  0  0  0  0
    5.3167   -2.7055    3.0366 C   0  0  0  0  0  0  0  0  0  0  0  0
    5.6262   -4.0354    3.3264 C   0  0  0  0  0  0  0  0  0  0  0  0
    4.6884   -5.0520    3.0943 C   0  0  0  0  0  0  0  0  0  0  0  0
    5.0590   -6.4562    3.5028 C   0  0  0  0  0  0  0  0  0  0  0  0
    5.6386   -6.6514    4.5638 O   0  0  0  0  0  0  0  0  0  0  0  0
    4.7291   -7.4871    2.6579 N   0  0  0  0  0  0  0  0  0  0  0  0
    5.1296   -8.8572    3.0166 C   0  0  0  0  0  0  0  0  0  0  0  0
    5.4299   -9.5177    1.6685 C   0  0  0  0  0  0  0  0  0  0  0  0
    4.4397   -8.8260    0.7230 C   0  0  0  0  0  0  0  0  0  0  0  0
    4.4196   -7.3724    1.2206 C   0  0  0  0  0  0  0  0  0  0  0  0
    3.4175   -4.6985    2.6116 C   0  0  0  0  0  0  0  0  0  0  0  0
    3.1018   -3.3659    2.3442 C   0  0  0  0  0  0  0  0  0  0  0  0
    2.2785    0.7496   -1.4690 H   0  0  0  0  0  0  0  0  0  0  0  0
    1.7240   -0.8769   -1.8680 H   0  0  0  0  0  0  0  0  0  0  0  0
    3.7298   -2.6008   -1.4965 H   0  0  0  0  0  0  0  0  0  0  0  0
    5.2341   -2.0923   -2.2748 H   0  0  0  0  0  0  0  0  0  0  0  0
    2.4659   -2.2563   -3.6203 H   0  0  0  0  0  0  0  0  0  0  0  0
    3.8181   -3.3498   -3.9071 H   0  0  0  0  0  0  0  0  0  0  0  0
    6.1580   -1.4358   -4.4914 H   0  0  0  0  0  0  0  0  0  0  0  0
    4.7370   -3.3935   -6.3557 H   0  0  0  0  0  0  0  0  0  0  0  0
    5.7117   -3.8272   -4.9293 H   0  0  0  0  0  0  0  0  0  0  0  0
    6.9983   -3.8200   -7.2862 H   0  0  0  0  0  0  0  0  0  0  0  0
    7.7564   -2.9614   -5.9391 H   0  0  0  0  0  0  0  0  0  0  0  0
    6.3778   -1.7564   -8.3570 H   0  0  0  0  0  0  0  0  0  0  0  0
    7.6932   -1.0896   -7.3925 H   0  0  0  0  0  0  0  0  0  0  0  0
    4.7439   -0.6966   -7.0779 H   0  0  0  0  0  0  0  0  0  0  0  0
    6.0356    0.2049   -6.2621 H   0  0  0  0  0  0  0  0  0  0  0  0
    2.6162    0.0853   -4.3385 H   0  0  0  0  0  0  0  0  0  0  0  0
    4.0839    0.6571   -5.1375 H   0  0  0  0  0  0  0  0  0  0  0  0
    3.9904    1.3964   -2.7240 H   0  0  0  0  0  0  0  0  0  0  0  0
    5.3916    0.3596   -3.0305 H   0  0  0  0  0  0  0  0  0  0  0  0
    4.4240   -0.5168    0.2119 H   0  0  0  0  0  0  0  0  0  0  0  0
    2.7319   -0.6559    2.6607 H   0  0  0  0  0  0  0  0  0  0  0  0
    4.4628   -0.2367    2.6561 H   0  0  0  0  0  0  0  0  0  0  0  0
    6.0650   -1.9271    3.2143 H   0  0  0  0  0  0  0  0  0  0  0  0
    6.5976   -4.3018    3.7482 H   0  0  0  0  0  0  0  0  0  0  0  0
    4.3045   -9.3723    3.5426 H   0  0  0  0  0  0  0  0  0  0  0  0
    5.9836   -8.8209    3.7062 H   0  0  0  0  0  0  0  0  0  0  0  0
    5.3161  -10.6117    1.6946 H   0  0  0  0  0  0  0  0  0  0  0  0
    6.4665   -9.2965    1.3626 H   0  0  0  0  0  0  0  0  0  0  0  0
    3.4380   -9.2739    0.8346 H   0  0  0  0  0  0  0  0  0  0  0  0
    4.7163   -8.8978   -0.3396 H   0  0  0  0  0  0  0  0  0  0  0  0
    3.4465   -6.8957    1.0375 H   0  0  0  0  0  0  0  0  0  0  0  0
    5.1833   -6.7604    0.7077 H   0  0  0  0  0  0  0  0  0  0  0  0
    2.6517   -5.4658    2.4786 H   0  0  0  0  0  0  0  0  0  0  0  0
    2.1045   -3.0962    1.9866 H   0  0  0  0  0  0  0  0  0  0  0  0
  1  2  2  0
  2  3  1  0
  2 15  1  0
  3  4  1  0
  3 30  1  0
  3 31  1  0
  4  5  1  0
  4 14  1  0
  5  6  1  0
  5 32  1  0
  5 33  1  0
  6  7  1  0
  6 34  1  0
  6 35  1  0
  7  8  1  0
  7 13  1  0
  8  9  1  0
  8 12  1  0
  8 36  1  1
  9 10  1  0
  9 37  1  0
  9 38  1  0
 10 11  1  0
 10 39  1  0
 10 40  1  0
 11 12  1  0
 11 41  1  0
 11 42  1  0
 12 43  1  0
 12 44  1  0
 13 14  1  0
 13 45  1  0
 13 46  1  0
 14 47  1  0
 14 48  1  0
 15 16  1  0
 15 49  1  0
 16 17  1  0
 16 50  1  0
 16 51  1  0
 17 18  2  0
 17 29  1  0
 18 19  1  0
 18 52  1  0
 19 20  2  0
 19 53  1  0
 20 21  1  0
 20 28  1  0
 21 22  2  0
 21 23  1  0
 23 24  1  0
 23 27  1  0
 24 25  1  0
 24 54  1  0
 24 55  1  0
 25 26  1  0
 25 56  1  0
 25 57  1  0
 26 27  1  0
 26 58  1  0
 26 59  1  0
 27 60  1  0
 27 61  1  0
 28 29  2  0
 28 62  1  0
 29 63  1  0
M  END

