
     RDKit          3D

 29 30  0  0  0  0  0  0  0  0999 V2000
    1.0034    0.1158    0.1962 C   0  0  0  0  0  0  0  0  0  0  0  0
    2.5008    0.0210    0.0382 C   0  0  0  0  0  0  0  0  0  0  0  0
    3.3036    1.1654    0.2152 C   0  0  0  0  0  0  0  0  0  0  0  0
    2.5451    2.7126    0.5617 Cl  0  0  0  0  0  0  0  0  0  0  0  0
    4.6966    1.1352    0.1314 C   0  0  0  0  0  0  0  0  0  0  0  0
    5.3331   -0.0759   -0.1363 C   0  0  0  0  0  0  0  0  0  0  0  0
    4.5726   -1.2281   -0.3260 C   0  0  0  0  0  0  0  0  0  0  0  0
    3.1682   -1.1955   -0.2554 C   0  0  0  0  0  0  0  0  0  0  0  0
    2.4321   -2.4706   -0.5059 C   0  0  0  0  0  0  0  0  0  0  0  0
    2.7334   -3.6315    0.2244 C   0  0  0  0  0  0  0  0  0  0  0  0
    2.0528   -4.8144   -0.0753 C   0  0  0  0  0  0  0  0  0  0  0  0
    1.1242   -4.9128   -1.0265 N   0  0  0  0  0  0  0  0  0  0  0  0
    0.8341   -3.8154   -1.7391 C   0  0  0  0  0  0  0  0  0  0  0  0
   -0.1944   -3.9927   -2.8420 C   0  0  0  0  0  0  0  0  0  0  0  0
   -0.7800   -2.7342   -3.2829 N   0  0  0  0  0  0  0  0  0  0  0  0
    1.4581   -2.5820   -1.5105 C   0  0  0  0  0  0  0  0  0  0  0  0
    0.7478    0.7214    1.0782 H   0  0  0  0  0  0  0  0  0  0  0  0
    0.5409   -0.8724    0.3031 H   0  0  0  0  0  0  0  0  0  0  0  0
    0.5401    0.6166   -0.6710 H   0  0  0  0  0  0  0  0  0  0  0  0
    5.2643    2.0553    0.2782 H   0  0  0  0  0  0  0  0  0  0  0  0
    6.4228   -0.1164   -0.2050 H   0  0  0  0  0  0  0  0  0  0  0  0
    5.0671   -2.1741   -0.5568 H   0  0  0  0  0  0  0  0  0  0  0  0
    3.4751   -3.6104    1.0260 H   0  0  0  0  0  0  0  0  0  0  0  0
    2.2697   -5.7276    0.4928 H   0  0  0  0  0  0  0  0  0  0  0  0
   -0.9144   -4.7579   -2.4880 H   0  0  0  0  0  0  0  0  0  0  0  0
    0.3230   -4.4514   -3.7043 H   0  0  0  0  0  0  0  0  0  0  0  0
   -1.4463   -2.3867   -2.5922 H   0  0  0  0  0  0  0  0  0  0  0  0
   -1.3007   -2.8647   -4.1485 H   0  0  0  0  0  0  0  0  0  0  0  0
    1.1808   -1.7334   -2.1369 H   0  0  0  0  0  0  0  0  0  0  0  0
  1  2  1  0
  1 17  1  0
  1 18  1  0
  1 19  1  0
  2  3  2  0
  2  8  1  0
  3  4  1  0
  3  5  1  0
  5  6  2  0
  5 20  1  0
  6  7  1  0
  6 21  1  0
  7  8  2  0
  7 22  1  0
  8  9  1  0
  9 10  2  0
  9 16  1  0
 10 11  1  0
 10 23  1  0
 11 12  2  0
 11 24  1  0
 12 13  1  0
 13 14  1  0
 13 16  2  0
 14 15  1  0
 14 25  1  0
 14 26  1  0
 15 27  1  0
 15 28  1  0
 16 29  1  0
M  END

