
     RDKit          3D

 86 88  0  0  0  0  0  0  0  0999 V2000
    0.2435   -2.4341    0.0534 C   0  0  0  0  0  0  0  0  0  0  0  0
    1.5526   -1.6447    0.0976 C   0  0  0  0  0  0  0  0  0  0  0  0
    2.2571   -1.5481   -1.2593 C   0  0  0  0  0  0  0  0  0  0  0  0
    3.5691   -0.7591   -1.2237 C   0  0  0  0  0  0  0  0  0  0  0  0
    4.2732   -0.6633   -2.5805 C   0  0  0  0  0  0  0  0  0  0  0  0
    5.5852    0.1260   -2.5436 C   0  0  0  0  0  0  0  0  0  0  0  0
    6.2878    0.2188   -3.9009 C   0  0  0  0  0  0  0  0  0  0  0  0
    7.6063    1.0135   -3.8555 C   0  0  0  0  0  0  0  0  0  0  0  0
    8.3016    1.1030   -5.1948 C   0  0  0  0  0  0  0  0  0  0  0  0
    8.0324    2.1539   -6.0860 C   0  0  0  0  0  0  0  0  0  0  0  0
    8.6454    2.2192   -7.3371 C   0  0  0  0  0  0  0  0  0  0  0  0
    9.5542    1.2286   -7.7541 C   0  0  0  0  0  0  0  0  0  0  0  0
   10.2093    1.2956   -9.0851 C   0  0  0  0  0  0  0  0  0  0  0  0
   10.5740    2.5322   -9.6565 C   0  0  0  0  0  0  0  0  0  0  0  0
   11.1892    2.5950  -10.9026 C   0  0  0  0  0  0  0  0  0  0  0  0
   11.4607    1.4200  -11.6230 C   0  0  0  0  0  0  0  0  0  0  0  0
   12.1250    1.5544  -12.9466 C   0  0  0  0  0  0  0  0  0  0  0  0
   12.4670    2.5963  -13.4453 O   0  0  0  0  0  0  0  0  0  0  0  0
   12.2980    0.3334  -13.5441 O   0  0  0  0  0  0  0  0  0  0  0  0
   12.9145    0.1582  -14.7658 C   0  0  0  0  0  0  0  0  0  0  0  0
   12.4269   -0.9078  -15.5340 C   0  0  0  0  0  0  0  0  0  0  0  0
   13.0225   -1.2096  -16.7533 C   0  0  0  0  0  0  0  0  0  0  0  0
   14.1090   -0.4501  -17.2181 C   0  0  0  0  0  0  0  0  0  0  0  0
   14.7108   -0.8194  -18.5269 C   0  0  0  0  0  0  0  0  0  0  0  0
   14.3499   -1.7451  -19.2132 O   0  0  0  0  0  0  0  0  0  0  0  0
   15.7210    0.0219  -18.8804 O   0  0  0  0  0  0  0  0  0  0  0  0
   16.4395   -0.2520  -20.0848 C   0  0  1  0  0  0  0  0  0  0  0  0
   15.9647   -1.1030  -20.5935 H   0  0  0  0  0  0  0  0  0  0  0  0
   16.4226    1.0128  -20.9471 C   0  0  0  0  0  0  0  0  0  0  0  0
   17.1025    0.9326  -22.3219 C   0  0  0  0  0  0  0  0  0  0  0  0
   16.5437   -0.1391  -23.2646 C   0  0  0  0  0  0  0  0  0  0  0  0
   17.1475   -0.0831  -24.6711 C   0  0  0  0  0  0  0  0  0  0  0  0
   16.6093   -1.1590  -25.6193 C   0  0  0  0  0  0  0  0  0  0  0  0
   17.2171   -1.0983  -27.0212 C   0  0  0  0  0  0  0  0  0  0  0  0
   17.8361   -0.7134  -19.6605 C   0  0  1  0  0  0  0  0  0  0  0  0
   17.7632   -1.6919  -18.7478 F   0  0  0  0  0  0  0  0  0  0  0  0
   18.5176   -1.1962  -20.7171 F   0  0  0  0  0  0  0  0  0  0  0  0
   18.5628    0.2836  -19.1318 F   0  0  0  0  0  0  0  0  0  0  0  0
   14.5890    0.6126  -16.4366 C   0  0  0  0  0  0  0  0  0  0  0  0
   14.0000    0.9241  -15.2114 C   0  0  0  0  0  0  0  0  0  0  0  0
   11.1020    0.1811  -11.0668 C   0  0  0  0  0  0  0  0  0  0  0  0
   10.4874    0.1245   -9.8184 C   0  0  0  0  0  0  0  0  0  0  0  0
    9.8232    0.1744   -6.8609 C   0  0  0  0  0  0  0  0  0  0  0  0
    9.2109    0.1166   -5.6092 C   0  0  0  0  0  0  0  0  0  0  0  0
   -0.2346   -2.4830    1.0449 H   0  0  0  0  0  0  0  0  0  0  0  0
    0.4111   -3.4702   -0.2862 H   0  0  0  0  0  0  0  0  0  0  0  0
   -0.4791   -1.9741   -0.6417 H   0  0  0  0  0  0  0  0  0  0  0  0
    2.2386   -2.1086    0.8298 H   0  0  0  0  0  0  0  0  0  0  0  0
    1.3562   -0.6254    0.4773 H   0  0  0  0  0  0  0  0  0  0  0  0
    1.5716   -1.0837   -1.9931 H   0  0  0  0  0  0  0  0  0  0  0  0
    2.4545   -2.5677   -1.6404 H   0  0  0  0  0  0  0  0  0  0  0  0
    4.2540   -1.2234   -0.4897 H   0  0  0  0  0  0  0  0  0  0  0  0
    3.3712    0.2604   -0.8429 H   0  0  0  0  0  0  0  0  0  0  0  0
    3.5890   -0.1988   -3.3149 H   0  0  0  0  0  0  0  0  0  0  0  0
    4.4717   -1.6824   -2.9615 H   0  0  0  0  0  0  0  0  0  0  0  0
    6.2700   -0.3375   -1.8091 H   0  0  0  0  0  0  0  0  0  0  0  0
    5.3876    1.1460   -2.1642 H   0  0  0  0  0  0  0  0  0  0  0  0
    5.6107    0.6854   -4.6387 H   0  0  0  0  0  0  0  0  0  0  0  0
    6.4922   -0.7973   -4.2834 H   0  0  0  0  0  0  0  0  0  0  0  0
    8.2829    0.5432   -3.1213 H   0  0  0  0  0  0  0  0  0  0  0  0
    7.3995    2.0303   -3.4798 H   0  0  0  0  0  0  0  0  0  0  0  0
    7.3262    2.9373   -5.7952 H   0  0  0  0  0  0  0  0  0  0  0  0
    8.3958    3.0422   -8.0108 H   0  0  0  0  0  0  0  0  0  0  0  0
   10.3954    3.4556   -9.1019 H   0  0  0  0  0  0  0  0  0  0  0  0
   11.4792    3.5538  -11.3365 H   0  0  0  0  0  0  0  0  0  0  0  0
   11.5828   -1.4871  -15.1556 H   0  0  0  0  0  0  0  0  0  0  0  0
   12.6585   -2.0366  -17.3656 H   0  0  0  0  0  0  0  0  0  0  0  0
   16.8685    1.8285  -20.3556 H   0  0  0  0  0  0  0  0  0  0  0  0
   15.3582    1.2685  -21.0794 H   0  0  0  0  0  0  0  0  0  0  0  0
   18.1884    0.7848  -22.2012 H   0  0  0  0  0  0  0  0  0  0  0  0
   16.9877    1.9226  -22.7969 H   0  0  0  0  0  0  0  0  0  0  0  0
   15.4449   -0.0316  -23.3335 H   0  0  0  0  0  0  0  0  0  0  0  0
   16.7262   -1.1422  -22.8409 H   0  0  0  0  0  0  0  0  0  0  0  0
   18.2471   -0.1782  -24.5987 H   0  0  0  0  0  0  0  0  0  0  0  0
   16.9620    0.9155  -25.1094 H   0  0  0  0  0  0  0  0  0  0  0  0
   15.5102   -1.0641  -25.6889 H   0  0  0  0  0  0  0  0  0  0  0  0
   16.7955   -2.1555  -25.1788 H   0  0  0  0  0  0  0  0  0  0  0  0
   17.0158   -0.1272  -27.5043 H   0  0  0  0  0  0  0  0  0  0  0  0
   16.8080   -1.8853  -27.6747 H   0  0  0  0  0  0  0  0  0  0  0  0
   18.3120   -1.2283  -26.9896 H   0  0  0  0  0  0  0  0  0  0  0  0
   15.4369    1.1985  -16.7924 H   0  0  0  0  0  0  0  0  0  0  0  0
   14.3713    1.7544  -14.6154 H   0  0  0  0  0  0  0  0  0  0  0  0
   11.3007   -0.7365  -11.6211 H   0  0  0  0  0  0  0  0  0  0  0  0
   10.1936   -0.8461   -9.4135 H   0  0  0  0  0  0  0  0  0  0  0  0
   10.5465   -0.5965   -7.1366 H   0  0  0  0  0  0  0  0  0  0  0  0
    9.4548   -0.7077   -4.9324 H   0  0  0  0  0  0  0  0  0  0  0  0
  1  2  1  0
  1 45  1  0
  1 46  1  0
  1 47  1  0
  2  3  1  0
  2 48  1  0
  2 49  1  0
  3  4  1  0
  3 50  1  0
  3 51  1  0
  4  5  1  0
  4 52  1  0
  4 53  1  0
  5  6  1  0
  5 54  1  0
  5 55  1  0
  6  7  1  0
  6 56  1  0
  6 57  1  0
  7  8  1  0
  7 58  1  0
  7 59  1  0
  8  9  1  0
  8 60  1  0
  8 61  1  0
  9 10  2  0
  9 44  1  0
 10 11  1  0
 10 62  1  0
 11 12  2  0
 11 63  1  0
 12 13  1  0
 12 43  1  0
 13 14  2  0
 13 42  1  0
 14 15  1  0
 14 64  1  0
 15 16  2  0
 15 65  1  0
 16 17  1  0
 16 41  1  0
 17 18  2  0
 17 19  1  0
 19 20  1  0
 20 21  2  0
 20 40  1  0
 21 22  1  0
 21 66  1  0
 22 23  2  0
 22 67  1  0
 23 24  1  0
 23 39  1  0
 24 25  2  0
 24 26  1  0
 26 27  1  0
 27 28  1  6
 27 29  1  0
 27 35  1  0
 29 30  1  0
 29 68  1  0
 29 69  1  0
 30 31  1  0
 30 70  1  0
 30 71  1  0
 31 32  1  0
 31 72  1  0
 31 73  1  0
 32 33  1  0
 32 74  1  0
 32 75  1  0
 33 34  1  0
 33 76  1  0
 33 77  1  0
 34 78  1  0
 34 79  1  0
 34 80  1  0
 35 36  1  1
 35 37  1  0
 35 38  1  0
 39 40  2  0
 39 81  1  0
 40 82  1  0
 41 42  2  0
 41 83  1  0
 42 84  1  0
 43 44  2  0
 43 85  1  0
 44 86  1  0
M  END

