
     RDKit          3D

 46 48  0  0  0  0  0  0  0  0999 V2000
    1.1943   -0.4480   -1.0270 C   0  0  0  0  0  0  0  0  0  0  0  0
    2.6481   -0.3430   -0.5577 C   0  0  0  0  0  0  0  0  0  0  0  0
    2.8586    0.3873    0.7883 C   0  0  1  0  0  0  0  0  0  0  0  0
    2.2574   -0.3677    2.0039 C   0  0  0  0  0  0  0  0  0  0  0  0
    2.9328   -1.6795    2.3502 C   0  0  0  0  0  0  0  0  0  0  0  0
    4.0703   -1.7082    3.1775 C   0  0  0  0  0  0  0  0  0  0  0  0
    4.7096   -2.9136    3.4843 C   0  0  0  0  0  0  0  0  0  0  0  0
    4.2219   -4.1198    2.9722 C   0  0  0  0  0  0  0  0  0  0  0  0
    3.0864   -4.1100    2.1566 C   0  0  0  0  0  0  0  0  0  0  0  0
    2.4511   -2.9022    1.8510 C   0  0  0  0  0  0  0  0  0  0  0  0
    4.2591    0.7190    1.0471 N   0  0  0  0  0  0  0  0  0  0  0  0
    4.8460    1.8307    0.3219 C   0  0  1  0  0  0  0  0  0  0  0  0
    4.6793    3.2376    0.9720 C   0  0  1  0  0  0  0  0  0  0  0  0
    5.2485    3.2108    2.4061 C   0  0  0  0  0  0  0  0  0  0  0  0
    6.7932    3.1823    2.1719 C   0  0  0  0  0  0  0  0  0  0  0  0
    6.9140    3.1112    0.6345 C   0  0  2  0  0  0  0  0  0  0  0  0
    5.7511    4.0279    0.1957 C   0  0  0  0  0  0  0  0  0  0  0  0
    6.4107    1.7212    0.1839 C   0  0  2  0  0  0  0  0  0  0  0  0
    6.8332    1.3386   -1.2296 C   0  0  0  0  0  0  0  0  0  0  0  0
    7.5449    1.9940   -1.9393 O   0  0  0  0  0  0  0  0  0  0  0  0
    6.3459    0.1502   -1.6705 O   0  0  0  0  0  0  0  0  0  0  0  0
    1.1305   -0.9489   -2.0061 H   0  0  0  0  0  0  0  0  0  0  0  0
    0.7375    0.5502   -1.1363 H   0  0  0  0  0  0  0  0  0  0  0  0
    0.5669   -1.0224   -0.3265 H   0  0  0  0  0  0  0  0  0  0  0  0
    3.2246    0.1957   -1.3303 H   0  0  0  0  0  0  0  0  0  0  0  0
    3.0950   -1.3515   -0.4875 H   0  0  0  0  0  0  0  0  0  0  0  0
    2.3187    1.3487    0.7310 H   0  0  0  0  0  0  0  0  0  0  0  0
    1.1879   -0.5470    1.8105 H   0  0  0  0  0  0  0  0  0  0  0  0
    2.3139    0.3111    2.8693 H   0  0  0  0  0  0  0  0  0  0  0  0
    4.4485   -0.7718    3.5952 H   0  0  0  0  0  0  0  0  0  0  0  0
    5.5879   -2.9116    4.1360 H   0  0  0  0  0  0  0  0  0  0  0  0
    4.7191   -5.0630    3.2142 H   0  0  0  0  0  0  0  0  0  0  0  0
    2.6884   -5.0482    1.7601 H   0  0  0  0  0  0  0  0  0  0  0  0
    1.5547   -2.9108    1.2240 H   0  0  0  0  0  0  0  0  0  0  0  0
    4.8445   -0.1114    1.0736 H   0  0  0  0  0  0  0  0  0  0  0  0
    4.4135    1.9075   -0.6972 H   0  0  0  0  0  0  0  0  0  0  0  0
    3.6487    3.6177    0.9018 H   0  0  0  0  0  0  0  0  0  0  0  0
    4.8842    2.3278    2.9511 H   0  0  0  0  0  0  0  0  0  0  0  0
    4.9389    4.1033    2.9714 H   0  0  0  0  0  0  0  0  0  0  0  0
    7.2887    2.3351    2.6730 H   0  0  0  0  0  0  0  0  0  0  0  0
    7.2721    4.1021    2.5439 H   0  0  0  0  0  0  0  0  0  0  0  0
    7.9060    3.3547    0.2332 H   0  0  0  0  0  0  0  0  0  0  0  0
    5.5966    4.0383   -0.8946 H   0  0  0  0  0  0  0  0  0  0  0  0
    5.8673    5.0668    0.5432 H   0  0  0  0  0  0  0  0  0  0  0  0
    6.7874    0.9353    0.8643 H   0  0  0  0  0  0  0  0  0  0  0  0
    5.7864   -0.2602   -0.9953 H   0  0  0  0  0  0  0  0  0  0  0  0
  1  2  1  0
  1 22  1  0
  1 23  1  0
  1 24  1  0
  2  3  1  0
  2 25  1  0
  2 26  1  0
  3  4  1  0
  3 11  1  0
  3 27  1  6
  4  5  1  0
  4 28  1  0
  4 29  1  0
  5  6  2  0
  5 10  1  0
  6  7  1  0
  6 30  1  0
  7  8  2  0
  7 31  1  0
  8  9  1  0
  8 32  1  0
  9 10  2  0
  9 33  1  0
 10 34  1  0
 11 12  1  0
 11 35  1  0
 12 13  1  0
 12 18  1  0
 12 36  1  6
 13 14  1  0
 13 17  1  0
 13 37  1  1
 14 15  1  0
 14 38  1  0
 14 39  1  0
 15 16  1  0
 15 40  1  0
 15 41  1  0
 16 17  1  0
 16 18  1  0
 16 42  1  1
 17 43  1  0
 17 44  1  0
 18 19  1  0
 18 45  1  1
 19 20  2  0
 19 21  1  0
 21 46  1  0
M  END

