
     RDKit          3D

 28 29  0  0  0  0  0  0  0  0999 V2000
    0.9773    0.3728   -0.1964 C   0  0  0  0  0  0  0  0  0  0  0  0
    2.4744    0.2334   -0.2591 C   0  0  0  0  0  0  0  0  0  0  0  0
    3.3039    1.3538   -0.1074 C   0  0  0  0  0  0  0  0  0  0  0  0
    4.6953    1.2514   -0.1590 C   0  0  0  0  0  0  0  0  0  0  0  0
    5.7031    2.8635    0.0575 Br  0  0  0  0  0  0  0  0  0  0  0  0
    5.3326    0.0151   -0.3629 C   0  0  0  0  0  0  0  0  0  0  0  0
    6.8447   -0.0795   -0.4533 C   0  0  1  0  0  0  0  0  0  0  0  0
    7.4533   -1.7275    0.0861 Cl  0  0  0  0  0  0  0  0  0  0  0  0
    7.4265    0.2264   -1.8196 C   0  0  0  0  0  0  0  0  0  0  0  0
    8.6610    0.8847   -1.9147 C   0  0  0  0  0  0  0  0  0  0  0  0
    9.2339    1.1445   -3.1581 C   0  0  0  0  0  0  0  0  0  0  0  0
    8.5862    0.7522   -4.3364 C   0  0  0  0  0  0  0  0  0  0  0  0
    9.5099    1.1831   -6.1941 I   0  0  0  0  0  0  0  0  0  0  0  0
    7.3494    0.0928   -4.2489 C   0  0  0  0  0  0  0  0  0  0  0  0
    6.4757   -0.4252   -5.6641 Cl  0  0  0  0  0  0  0  0  0  0  0  0
    6.7794   -0.1631   -2.9964 C   0  0  0  0  0  0  0  0  0  0  0  0
    4.5073   -1.1086   -0.5104 C   0  0  0  0  0  0  0  0  0  0  0  0
    3.1181   -1.0000   -0.4627 C   0  0  0  0  0  0  0  0  0  0  0  0
    2.0890   -2.5952   -0.6766 Br  0  0  0  0  0  0  0  0  0  0  0  0
    0.6848    1.4189   -0.0297 H   0  0  0  0  0  0  0  0  0  0  0  0
    0.5556   -0.2407    0.6162 H   0  0  0  0  0  0  0  0  0  0  0  0
    0.5072    0.0240   -1.1301 H   0  0  0  0  0  0  0  0  0  0  0  0
    2.8498    2.3324    0.0581 H   0  0  0  0  0  0  0  0  0  0  0  0
    7.2837    0.6102    0.2766 H   0  0  0  0  0  0  0  0  0  0  0  0
    9.1840    1.1976   -1.0077 H   0  0  0  0  0  0  0  0  0  0  0  0
   10.1937    1.6604   -3.2168 H   0  0  0  0  0  0  0  0  0  0  0  0
    5.8155   -0.6718   -2.9602 H   0  0  0  0  0  0  0  0  0  0  0  0
    4.9695   -2.0863   -0.6454 H   0  0  0  0  0  0  0  0  0  0  0  0
  1  2  1  0
  1 20  1  0
  1 21  1  0
  1 22  1  0
  2  3  2  0
  2 18  1  0
  3  4  1  0
  3 23  1  0
  4  5  1  0
  4  6  2  0
  6  7  1  0
  6 17  1  0
  7  8  1  0
  7  9  1  0
  7 24  1  1
  9 10  2  0
  9 16  1  0
 10 11  1  0
 10 25  1  0
 11 12  2  0
 11 26  1  0
 12 13  1  0
 12 14  1  0
 14 15  1  0
 14 16  2  0
 16 27  1  0
 17 18  2  0
 17 28  1  0
 18 19  1  0
M  END

