
     RDKit          3D

 59 61  0  0  0  0  0  0  0  0999 V2000
    5.1339    2.6049   -0.4035 C   0  0  0  0  0  0  0  0  0  0  0  0
    4.8112    1.2863   -1.0577 C   0  0  0  0  0  0  0  0  0  0  0  0
    4.2385    1.2192   -2.3366 C   0  0  0  0  0  0  0  0  0  0  0  0
    3.9568   -0.0325   -2.9049 C   0  0  0  0  0  0  0  0  0  0  0  0
    3.3500   -0.1430   -4.2517 C   0  0  0  0  0  0  0  0  0  0  0  0
    3.6797    0.7296   -5.3025 C   0  0  0  0  0  0  0  0  0  0  0  0
    3.1370    0.6346   -6.5159 N   0  0  0  0  0  0  0  0  0  0  0  0
    2.2568   -0.3436   -6.6942 C   0  0  0  0  0  0  0  0  0  0  0  0
    1.6363   -0.5017   -8.0818 C   0  0  1  0  0  0  0  0  0  0  0  0
    1.9642    0.5044   -8.8918 F   0  0  0  0  0  0  0  0  0  0  0  0
    2.0566   -1.6452   -8.6481 F   0  0  0  0  0  0  0  0  0  0  0  0
    0.3003   -0.5538   -8.0002 F   0  0  0  0  0  0  0  0  0  0  0  0
    1.8631   -1.2350   -5.7880 N   0  0  0  0  0  0  0  0  0  0  0  0
    2.4021   -1.1320   -4.5767 C   0  0  0  0  0  0  0  0  0  0  0  0
    4.2698   -1.1754   -2.1525 C   0  0  0  0  0  0  0  0  0  0  0  0
    4.8289   -1.0182   -0.8775 C   0  0  0  0  0  0  0  0  0  0  0  0
    5.1995   -2.1990   -0.0020 C   0  0  0  0  0  0  0  0  0  0  0  0
    4.5204   -3.4277   -0.3476 N   0  0  0  0  0  0  0  0  0  0  0  0
    5.1317   -4.6424   -0.2757 C   0  0  0  0  0  0  0  0  0  0  0  0
    6.3152   -4.8045   -0.0420 O   0  0  0  0  0  0  0  0  0  0  0  0
    4.2085   -5.8582   -0.4725 C   0  0  1  0  0  0  0  0  0  0  0  0
    3.6490   -6.3621    0.8739 C   0  0  1  0  0  0  0  0  0  0  0  0
    3.4056   -5.2750    1.7130 F   0  0  0  0  0  0  0  0  0  0  0  0
    2.3127   -6.9941    0.5052 C   0  0  0  0  0  0  0  0  0  0  0  0
    1.7771   -6.0532   -0.5801 C   0  0  0  0  0  0  0  0  0  0  0  0
    3.0024   -5.6279   -1.2751 N   0  0  0  0  0  0  0  0  0  0  0  0
    3.0188   -5.5499   -2.6521 C   0  0  0  0  0  0  0  0  0  0  0  0
    2.0151   -5.5531   -3.3359 O   0  0  0  0  0  0  0  0  0  0  0  0
    4.2862   -5.4660   -3.0993 O   0  0  0  0  0  0  0  0  0  0  0  0
    4.6233   -5.5453   -4.5306 C   0  0  1  0  0  0  0  0  0  0  0  0
    4.0490   -4.3383   -5.2755 C   0  0  0  0  0  0  0  0  0  0  0  0
    6.1518   -5.5041   -4.5204 C   0  0  0  0  0  0  0  0  0  0  0  0
    4.1162   -6.8701   -5.1084 C   0  0  0  0  0  0  0  0  0  0  0  0
    5.0867    0.1831   -0.3511 N   0  0  0  0  0  0  0  0  0  0  0  0
    4.8690    3.4609   -1.0400 H   0  0  0  0  0  0  0  0  0  0  0  0
    6.2092    2.6562   -0.1691 H   0  0  0  0  0  0  0  0  0  0  0  0
    4.5971    2.6940    0.5544 H   0  0  0  0  0  0  0  0  0  0  0  0
    3.9901    2.1402   -2.8678 H   0  0  0  0  0  0  0  0  0  0  0  0
    4.4259    1.5191   -5.1580 H   0  0  0  0  0  0  0  0  0  0  0  0
    2.0659   -1.8556   -3.8258 H   0  0  0  0  0  0  0  0  0  0  0  0
    4.1087   -2.1776   -2.5516 H   0  0  0  0  0  0  0  0  0  0  0  0
    5.0139   -1.9058    1.0465 H   0  0  0  0  0  0  0  0  0  0  0  0
    6.2806   -2.4003   -0.0765 H   0  0  0  0  0  0  0  0  0  0  0  0
    3.5094   -3.4246   -0.4229 H   0  0  0  0  0  0  0  0  0  0  0  0
    4.8486   -6.6338   -0.9203 H   0  0  0  0  0  0  0  0  0  0  0  0
    4.3542   -7.0273    1.3933 H   0  0  0  0  0  0  0  0  0  0  0  0
    1.6556   -7.0837    1.3819 H   0  0  0  0  0  0  0  0  0  0  0  0
    2.4864   -8.0012    0.0930 H   0  0  0  0  0  0  0  0  0  0  0  0
    1.2523   -5.1914   -0.1326 H   0  0  0  0  0  0  0  0  0  0  0  0
    1.0914   -6.5278   -1.2939 H   0  0  0  0  0  0  0  0  0  0  0  0
    4.4263   -3.4021   -4.8356 H   0  0  0  0  0  0  0  0  0  0  0  0
    2.9522   -4.3332   -5.2473 H   0  0  0  0  0  0  0  0  0  0  0  0
    4.3703   -4.3653   -6.3283 H   0  0  0  0  0  0  0  0  0  0  0  0
    6.5128   -4.5783   -4.0482 H   0  0  0  0  0  0  0  0  0  0  0  0
    6.5384   -5.5462   -5.5499 H   0  0  0  0  0  0  0  0  0  0  0  0
    6.5617   -6.3562   -3.9578 H   0  0  0  0  0  0  0  0  0  0  0  0
    3.0195   -6.9127   -5.1038 H   0  0  0  0  0  0  0  0  0  0  0  0
    4.5107   -7.7191   -4.5280 H   0  0  0  0  0  0  0  0  0  0  0  0
    4.4671   -6.9772   -6.1464 H   0  0  0  0  0  0  0  0  0  0  0  0
  1  2  1  0
  1 35  1  0
  1 36  1  0
  1 37  1  0
  2  3  2  0
  2 34  1  0
  3  4  1  0
  3 38  1  0
  4  5  1  0
  4 15  2  0
  5  6  2  0
  5 14  1  0
  6  7  1  0
  6 39  1  0
  7  8  2  0
  8  9  1  0
  8 13  1  0
  9 10  1  6
  9 11  1  0
  9 12  1  0
 13 14  2  0
 14 40  1  0
 15 16  1  0
 15 41  1  0
 16 17  1  0
 16 34  2  0
 17 18  1  0
 17 42  1  0
 17 43  1  0
 18 19  1  0
 18 44  1  0
 19 20  2  0
 19 21  1  0
 21 22  1  0
 21 26  1  0
 21 45  1  6
 22 23  1  0
 22 24  1  0
 22 46  1  1
 24 25  1  0
 24 47  1  0
 24 48  1  0
 25 26  1  0
 25 49  1  0
 25 50  1  0
 26 27  1  0
 27 28  2  0
 27 29  1  0
 30 29  1  1
 30 31  1  0
 30 32  1  0
 30 33  1  0
 31 51  1  0
 31 52  1  0
 31 53  1  0
 32 54  1  0
 32 55  1  0
 32 56  1  0
 33 57  1  0
 33 58  1  0
 33 59  1  0
M  END

