
     RDKit          3D

 51 54  0  0  0  0  0  0  0  0999 V2000
    2.1025   -1.2979   -2.1023 C   0  0  0  0  0  0  0  0  0  0  0  0
    2.9698   -0.3234   -1.3657 C   0  0  0  0  0  0  0  0  0  0  0  0
    4.3082    0.0468   -1.6265 C   0  0  0  0  0  0  0  0  0  0  0  0
    4.6271    0.9857   -0.6543 C   0  0  0  0  0  0  0  0  0  0  0  0
    5.9576    1.6373   -0.5003 C   0  0  0  0  0  0  0  0  0  0  0  0
    6.9703    1.0891   -0.9133 O   0  0  0  0  0  0  0  0  0  0  0  0
    6.0014    2.8715    0.0925 N   0  0  0  0  0  0  0  0  0  0  0  0
    7.2714    3.4593    0.4634 C   0  0  1  0  0  0  0  0  0  0  0  0
    7.8845    4.2437   -0.6928 C   0  0  0  0  0  0  0  0  0  0  0  0
    9.2153    4.6245   -0.3890 O   0  0  0  0  0  0  0  0  0  0  0  0
    9.3477    5.8234    0.2454 C   0  0  0  0  0  0  0  0  0  0  0  0
   10.1500    6.7841   -0.3804 C   0  0  0  0  0  0  0  0  0  0  0  0
   10.3362    8.0473    0.1763 C   0  0  0  0  0  0  0  0  0  0  0  0
    9.6792    8.3620    1.3667 C   0  0  0  0  0  0  0  0  0  0  0  0
    8.8824    7.4081    1.9991 C   0  0  0  0  0  0  0  0  0  0  0  0
    8.7135    6.1080    1.4774 C   0  0  0  0  0  0  0  0  0  0  0  0
    7.9765    5.1543    2.2508 N   0  0  0  0  0  0  0  0  0  0  0  0
    7.9185    5.3968    3.7003 C   0  0  0  0  0  0  0  0  0  0  0  0
    7.1216    4.1466    1.8279 C   0  0  0  0  0  0  0  0  0  0  0  0
    6.2895    3.6943    2.6039 O   0  0  0  0  0  0  0  0  0  0  0  0
    3.5068    1.1213    0.1310 N   0  0  0  0  0  0  0  0  0  0  0  0
    3.2846    1.9168    1.3350 C   0  0  0  0  0  0  0  0  0  0  0  0
    2.6830    3.2920    1.0790 C   0  0  0  0  0  0  0  0  0  0  0  0
    3.1121    4.3948    1.8346 C   0  0  0  0  0  0  0  0  0  0  0  0
    2.5325    5.6545    1.6426 C   0  0  0  0  0  0  0  0  0  0  0  0
    1.5230    5.8264    0.6930 C   0  0  0  0  0  0  0  0  0  0  0  0
    1.0922    4.7310   -0.0641 C   0  0  0  0  0  0  0  0  0  0  0  0
    1.6649    3.4720    0.1280 C   0  0  0  0  0  0  0  0  0  0  0  0
    2.5094    0.3302   -0.2957 N   0  0  0  0  0  0  0  0  0  0  0  0
    2.5754   -2.2916   -2.1609 H   0  0  0  0  0  0  0  0  0  0  0  0
    1.9102   -0.9660   -3.1361 H   0  0  0  0  0  0  0  0  0  0  0  0
    1.1370   -1.4021   -1.5880 H   0  0  0  0  0  0  0  0  0  0  0  0
    4.9788   -0.3100   -2.4040 H   0  0  0  0  0  0  0  0  0  0  0  0
    5.1531    3.3315    0.4015 H   0  0  0  0  0  0  0  0  0  0  0  0
    7.9722    2.6242    0.6461 H   0  0  0  0  0  0  0  0  0  0  0  0
    7.2740    5.1233   -0.9643 H   0  0  0  0  0  0  0  0  0  0  0  0
    7.9352    3.5669   -1.5565 H   0  0  0  0  0  0  0  0  0  0  0  0
   10.6218    6.4964   -1.3221 H   0  0  0  0  0  0  0  0  0  0  0  0
   10.9720    8.7813   -0.3238 H   0  0  0  0  0  0  0  0  0  0  0  0
    9.7832    9.3530    1.8142 H   0  0  0  0  0  0  0  0  0  0  0  0
    8.3797    7.6850    2.9244 H   0  0  0  0  0  0  0  0  0  0  0  0
    8.8879    5.7849    4.0367 H   0  0  0  0  0  0  0  0  0  0  0  0
    7.6994    4.4510    4.2063 H   0  0  0  0  0  0  0  0  0  0  0  0
    7.1244    6.1101    3.9761 H   0  0  0  0  0  0  0  0  0  0  0  0
    4.2327    2.0125    1.8822 H   0  0  0  0  0  0  0  0  0  0  0  0
    2.6008    1.3196    1.9573 H   0  0  0  0  0  0  0  0  0  0  0  0
    3.9115    4.2682    2.5694 H   0  0  0  0  0  0  0  0  0  0  0  0
    2.8763    6.5046    2.2378 H   0  0  0  0  0  0  0  0  0  0  0  0
    1.0720    6.8104    0.5412 H   0  0  0  0  0  0  0  0  0  0  0  0
    0.3006    4.8574   -0.8073 H   0  0  0  0  0  0  0  0  0  0  0  0
    1.3202    2.6145   -0.4542 H   0  0  0  0  0  0  0  0  0  0  0  0
  1  2  1  0
  1 30  1  0
  1 31  1  0
  1 32  1  0
  2  3  1  0
  2 29  2  0
  3  4  2  0
  3 33  1  0
  4  5  1  0
  4 21  1  0
  5  6  2  0
  5  7  1  0
  7  8  1  0
  7 34  1  0
  8  9  1  0
  8 19  1  0
  8 35  1  1
  9 10  1  0
  9 36  1  0
  9 37  1  0
 10 11  1  0
 11 12  1  0
 11 16  2  0
 12 13  2  0
 12 38  1  0
 13 14  1  0
 13 39  1  0
 14 15  2  0
 14 40  1  0
 15 16  1  0
 15 41  1  0
 16 17  1  0
 17 18  1  0
 17 19  1  0
 18 42  1  0
 18 43  1  0
 18 44  1  0
 19 20  2  0
 21 22  1  0
 21 29  1  0
 22 23  1  0
 22 45  1  0
 22 46  1  0
 23 24  2  0
 23 28  1  0
 24 25  1  0
 24 47  1  0
 25 26  2  0
 25 48  1  0
 26 27  1  0
 26 49  1  0
 27 28  2  0
 27 50  1  0
 28 51  1  0
M  END

