
     RDKit          3D

 73 78  0  0  0  0  0  0  0  0999 V2000
    5.7141    2.2094    3.0565 C   0  0  0  0  0  0  0  0  0  0  0  0
    6.2868    0.8327    2.7551 C   0  0  0  0  0  0  0  0  0  0  0  0
    5.9676    0.3553    1.4473 O   0  0  0  0  0  0  0  0  0  0  0  0
    6.6995    0.7072    0.3565 C   0  0  0  0  0  0  0  0  0  0  0  0
    7.7962    1.5782    0.4066 C   0  0  0  0  0  0  0  0  0  0  0  0
    8.5835    1.7873   -0.7288 C   0  0  0  0  0  0  0  0  0  0  0  0
    8.2879    1.1140   -1.9101 C   0  0  0  0  0  0  0  0  0  0  0  0
    7.1735    0.2676   -1.9664 C   0  0  0  0  0  0  0  0  0  0  0  0
    6.3226    0.0871   -0.8658 C   0  0  0  0  0  0  0  0  0  0  0  0
    5.2152   -0.9905   -0.8074 C   0  0  1  0  0  0  0  0  0  0  0  0
    3.8636   -0.7598   -0.1049 C   0  0  1  0  0  0  0  0  0  0  0  0
    2.4983   -1.1529   -0.5322 C   0  0  0  0  0  0  0  0  0  0  0  0
    1.3402   -1.2648   -0.5180 N   0  0  0  0  0  0  0  0  0  0  0  0
    4.1357   -2.0619    0.8658 C   0  0  0  0  0  0  0  0  0  0  0  0
    4.3778   -3.1825   -0.1599 N   0  0  0  0  0  0  0  0  0  0  0  0
    3.8373   -4.4553    0.2020 C   0  0  0  0  0  0  0  0  0  0  0  0
    2.9821   -5.1690   -0.6538 C   0  0  0  0  0  0  0  0  0  0  0  0
    2.4782   -6.4135   -0.2699 C   0  0  0  0  0  0  0  0  0  0  0  0
    2.7770   -6.9785    0.9790 C   0  0  0  0  0  0  0  0  0  0  0  0
    2.2032   -8.3086    1.4029 C   0  0  0  0  0  0  0  0  0  0  0  0
    3.6208   -6.2519    1.8341 C   0  0  0  0  0  0  0  0  0  0  0  0
    4.1533   -5.0209    1.4507 C   0  0  0  0  0  0  0  0  0  0  0  0
    5.2297   -3.1552   -1.4237 C   0  0  0  0  0  0  0  0  0  0  0  0
    4.7622   -1.6917   -2.0870 C   0  0  1  0  0  0  0  0  0  0  0  0
    3.4144   -2.1730   -2.4772 C   0  0  0  0  0  0  0  0  0  0  0  0
    2.5839   -2.6923   -3.1049 N   0  0  0  0  0  0  0  0  0  0  0  0
    4.6096   -0.3505   -2.9361 C   0  0  0  0  0  0  0  0  0  0  0  0
    4.8586   -0.1733   -4.1510 N   0  0  0  0  0  0  0  0  0  0  0  0
    4.4292    1.0190   -4.8612 C   0  0  0  0  0  0  0  0  0  0  0  0
    3.3754    1.7373   -4.1785 N   0  0  0  0  0  0  0  0  0  0  0  0
    2.0228    1.5430   -4.5782 C   0  0  0  0  0  0  0  0  0  0  0  0
    1.0162    1.1422   -3.6868 C   0  0  0  0  0  0  0  0  0  0  0  0
   -0.3042    1.0050   -4.1257 C   0  0  0  0  0  0  0  0  0  0  0  0
   -0.6690    1.2388   -5.4572 C   0  0  0  0  0  0  0  0  0  0  0  0
   -2.0952    1.0878   -5.9281 C   0  0  0  0  0  0  0  0  0  0  0  0
    0.3482    1.6306   -6.3443 C   0  0  0  0  0  0  0  0  0  0  0  0
    1.6635    1.7935   -5.9163 C   0  0  0  0  0  0  0  0  0  0  0  0
    3.6954    1.9505   -2.8056 C   0  0  0  0  0  0  0  0  0  0  0  0
    3.9194    0.6726   -2.0558 N   0  0  0  0  0  0  0  0  0  0  0  0
    3.7121    0.7352   -0.6368 C   0  0  0  0  0  0  0  0  0  0  0  0
    3.2815    2.0861    0.1763 S   0  0  0  0  0  0  0  0  0  0  0  0
    5.9340    2.4778    4.1025 H   0  0  0  0  0  0  0  0  0  0  0  0
    4.6243    2.2092    2.9118 H   0  0  0  0  0  0  0  0  0  0  0  0
    6.1405    2.9881    2.4066 H   0  0  0  0  0  0  0  0  0  0  0  0
    5.8446    0.0866    3.4330 H   0  0  0  0  0  0  0  0  0  0  0  0
    7.3801    0.8013    2.9065 H   0  0  0  0  0  0  0  0  0  0  0  0
    8.0523    2.0859    1.3357 H   0  0  0  0  0  0  0  0  0  0  0  0
    9.4386    2.4654   -0.6730 H   0  0  0  0  0  0  0  0  0  0  0  0
    8.9180    1.2350   -2.7939 H   0  0  0  0  0  0  0  0  0  0  0  0
    6.9821   -0.2627   -2.8972 H   0  0  0  0  0  0  0  0  0  0  0  0
    5.7922   -1.6675   -0.1908 H   0  0  0  0  0  0  0  0  0  0  0  0
    3.2564   -2.3700    1.4433 H   0  0  0  0  0  0  0  0  0  0  0  0
    4.9856   -1.8624    1.5309 H   0  0  0  0  0  0  0  0  0  0  0  0
    2.6905   -4.7389   -1.6133 H   0  0  0  0  0  0  0  0  0  0  0  0
    1.8144   -6.9475   -0.9558 H   0  0  0  0  0  0  0  0  0  0  0  0
    1.6991   -8.8161    0.5673 H   0  0  0  0  0  0  0  0  0  0  0  0
    1.4625   -8.1850    2.2118 H   0  0  0  0  0  0  0  0  0  0  0  0
    2.9869   -8.9829    1.7858 H   0  0  0  0  0  0  0  0  0  0  0  0
    3.8808   -6.6638    2.8140 H   0  0  0  0  0  0  0  0  0  0  0  0
    4.8323   -4.4918    2.1239 H   0  0  0  0  0  0  0  0  0  0  0  0
    4.9471   -4.0278   -2.0227 H   0  0  0  0  0  0  0  0  0  0  0  0
    6.3154   -3.1626   -1.2397 H   0  0  0  0  0  0  0  0  0  0  0  0
    4.0892    0.7145   -5.8601 H   0  0  0  0  0  0  0  0  0  0  0  0
    5.3211    1.6602   -4.9997 H   0  0  0  0  0  0  0  0  0  0  0  0
    1.2487    0.8992   -2.6495 H   0  0  0  0  0  0  0  0  0  0  0  0
   -1.0617    0.6808   -3.4067 H   0  0  0  0  0  0  0  0  0  0  0  0
   -2.7313    0.6429   -5.1486 H   0  0  0  0  0  0  0  0  0  0  0  0
   -2.1596    0.4461   -6.8223 H   0  0  0  0  0  0  0  0  0  0  0  0
   -2.5354    2.0630   -6.2000 H   0  0  0  0  0  0  0  0  0  0  0  0
    0.1028    1.8311   -7.3918 H   0  0  0  0  0  0  0  0  0  0  0  0
    2.4225    2.1397   -6.6222 H   0  0  0  0  0  0  0  0  0  0  0  0
    2.8989    2.5004   -2.2950 H   0  0  0  0  0  0  0  0  0  0  0  0
    4.6220    2.5472   -2.7250 H   0  0  0  0  0  0  0  0  0  0  0  0
  1  2  1  0
  1 42  1  0
  1 43  1  0
  1 44  1  0
  2  3  1  0
  2 45  1  0
  2 46  1  0
  3  4  1  0
  4  5  2  0
  4  9  1  0
  5  6  1  0
  5 47  1  0
  6  7  2  0
  6 48  1  0
  7  8  1  0
  7 49  1  0
  8  9  2  0
  8 50  1  0
  9 10  1  0
 10 11  1  0
 10 24  1  0
 10 51  1  1
 11 12  1  6
 11 14  1  0
 11 40  1  0
 12 13  3  0
 14 15  1  0
 14 52  1  0
 14 53  1  0
 15 16  1  0
 15 23  1  0
 16 17  2  0
 16 22  1  0
 17 18  1  0
 17 54  1  0
 18 19  2  0
 18 55  1  0
 19 20  1  0
 19 21  1  0
 20 56  1  0
 20 57  1  0
 20 58  1  0
 21 22  2  0
 21 59  1  0
 22 60  1  0
 23 24  1  0
 23 61  1  0
 23 62  1  0
 24 25  1  1
 24 27  1  0
 25 26  3  0
 27 28  2  0
 27 39  1  0
 28 29  1  0
 29 30  1  0
 29 63  1  0
 29 64  1  0
 30 31  1  0
 30 38  1  0
 31 32  2  0
 31 37  1  0
 32 33  1  0
 32 65  1  0
 33 34  2  0
 33 66  1  0
 34 35  1  0
 34 36  1  0
 35 67  1  0
 35 68  1  0
 35 69  1  0
 36 37  2  0
 36 70  1  0
 37 71  1  0
 38 39  1  0
 38 72  1  0
 38 73  1  0
 39 40  1  0
 40 41  2  0
M  END

