
     RDKit          3D

 53 56  0  0  0  0  0  0  0  0999 V2000
    1.4588   -0.0215   -2.0397 C   0  0  0  0  0  0  0  0  0  0  0  0
    2.5322   -0.0577   -0.9820 C   0  0  0  0  0  0  0  0  0  0  0  0
    3.1063    1.1339   -0.5209 C   0  0  0  0  0  0  0  0  0  0  0  0
    4.1157    1.1412    0.4517 C   0  0  0  0  0  0  0  0  0  0  0  0
    4.6731    2.3603    0.9082 N   0  0  0  0  0  0  0  0  0  0  0  0
    4.1706    3.6288    0.7725 C   0  0  0  0  0  0  0  0  0  0  0  0
    5.0632    4.4801    1.3891 C   0  0  0  0  0  0  0  0  0  0  0  0
    6.0844    3.6241    1.8778 C   0  0  0  0  0  0  0  0  0  0  0  0
    5.8411    2.3557    1.5863 N   0  0  0  0  0  0  0  0  0  0  0  0
    4.5839   -0.0696    0.9775 C   0  0  0  0  0  0  0  0  0  0  0  0
    4.0218   -1.2624    0.5338 C   0  0  0  0  0  0  0  0  0  0  0  0
    3.0095   -1.2643   -0.4320 C   0  0  0  0  0  0  0  0  0  0  0  0
    2.4699   -2.5272   -0.8633 N   0  0  0  0  0  0  0  0  0  0  0  0
    3.2777   -3.5295   -1.3187 C   0  0  0  0  0  0  0  0  0  0  0  0
    2.7601   -4.7363   -1.6903 C   0  0  0  0  0  0  0  0  0  0  0  0
    1.3330   -4.9571   -1.6342 C   0  0  0  0  0  0  0  0  0  0  0  0
    0.7633   -5.9760   -2.0501 O   0  0  0  0  0  0  0  0  0  0  0  0
    0.5921   -3.8168   -1.0548 C   0  0  0  0  0  0  0  0  0  0  0  0
   -0.8786   -3.9293   -0.6975 C   0  0  0  0  0  0  0  0  0  0  0  0
   -1.9293   -3.7468   -1.6906 C   0  0  0  0  0  0  0  0  0  0  0  0
   -1.9128   -3.9730   -3.0386 C   0  0  0  0  0  0  0  0  0  0  0  0
   -0.9489   -4.5665   -3.7871 N   0  0  0  0  0  0  0  0  0  0  0  0
   -1.0662   -4.0325    0.5741 N   0  0  0  0  0  0  0  0  0  0  0  0
   -2.3222   -4.2026    1.1546 C   0  0  0  0  0  0  0  0  0  0  0  0
   -3.1387   -5.3177    0.8716 C   0  0  0  0  0  0  0  0  0  0  0  0
   -4.3435   -5.5028    1.5500 C   0  0  0  0  0  0  0  0  0  0  0  0
   -4.7727   -4.5822    2.5092 C   0  0  0  0  0  0  0  0  0  0  0  0
   -3.9670   -3.4723    2.7940 C   0  0  0  0  0  0  0  0  0  0  0  0
   -4.4367   -2.4391    3.7867 C   0  0  1  0  0  0  0  0  0  0  0  0
   -5.2378   -2.9708    4.7285 F   0  0  0  0  0  0  0  0  0  0  0  0
   -3.4119   -1.8419    4.4219 F   0  0  0  0  0  0  0  0  0  0  0  0
   -5.1439   -1.4580    3.1868 F   0  0  0  0  0  0  0  0  0  0  0  0
   -2.7466   -3.2904    2.1393 C   0  0  0  0  0  0  0  0  0  0  0  0
    1.1463   -2.6867   -0.7150 N   0  0  0  0  0  0  0  0  0  0  0  0
    1.4078    0.9711   -2.5095 H   0  0  0  0  0  0  0  0  0  0  0  0
    0.4733   -0.2579   -1.6100 H   0  0  0  0  0  0  0  0  0  0  0  0
    1.6423   -0.7669   -2.8291 H   0  0  0  0  0  0  0  0  0  0  0  0
    2.7663    2.0721   -0.9614 H   0  0  0  0  0  0  0  0  0  0  0  0
    3.2226    3.8260    0.2805 H   0  0  0  0  0  0  0  0  0  0  0  0
    4.9856    5.5606    1.4825 H   0  0  0  0  0  0  0  0  0  0  0  0
    6.9864    3.8902    2.4289 H   0  0  0  0  0  0  0  0  0  0  0  0
    5.3698   -0.0544    1.7311 H   0  0  0  0  0  0  0  0  0  0  0  0
    4.3580   -2.2091    0.9624 H   0  0  0  0  0  0  0  0  0  0  0  0
    4.3399   -3.2877   -1.3806 H   0  0  0  0  0  0  0  0  0  0  0  0
    3.4048   -5.5312   -2.0677 H   0  0  0  0  0  0  0  0  0  0  0  0
   -2.8724   -3.3710   -1.2876 H   0  0  0  0  0  0  0  0  0  0  0  0
   -2.7926   -3.6439   -3.6046 H   0  0  0  0  0  0  0  0  0  0  0  0
   -0.3130   -5.2242   -3.3206 H   0  0  0  0  0  0  0  0  0  0  0  0
   -1.1653   -4.7657   -4.7549 H   0  0  0  0  0  0  0  0  0  0  0  0
   -2.8032   -6.0435    0.1280 H   0  0  0  0  0  0  0  0  0  0  0  0
   -4.9573   -6.3799    1.3285 H   0  0  0  0  0  0  0  0  0  0  0  0
   -5.7137   -4.7281    3.0414 H   0  0  0  0  0  0  0  0  0  0  0  0
   -2.1028   -2.4445    2.3836 H   0  0  0  0  0  0  0  0  0  0  0  0
  1  2  1  0
  1 35  1  0
  1 36  1  0
  1 37  1  0
  2  3  2  0
  2 12  1  0
  3  4  1  0
  3 38  1  0
  4  5  1  0
  4 10  2  0
  5  6  1  0
  5  9  1  0
  6  7  2  0
  6 39  1  0
  7  8  1  0
  7 40  1  0
  8  9  2  0
  8 41  1  0
 10 11  1  0
 10 42  1  0
 11 12  2  0
 11 43  1  0
 12 13  1  0
 13 14  1  0
 13 34  1  0
 14 15  2  0
 14 44  1  0
 15 16  1  0
 15 45  1  0
 16 17  2  0
 16 18  1  0
 18 19  1  0
 18 34  2  0
 19 20  1  0
 19 23  2  0
 20 21  2  0
 20 46  1  0
 21 22  1  0
 21 47  1  0
 22 48  1  0
 22 49  1  0
 23 24  1  0
 24 25  2  0
 24 33  1  0
 25 26  1  0
 25 50  1  0
 26 27  2  0
 26 51  1  0
 27 28  1  0
 27 52  1  0
 28 29  1  0
 28 33  2  0
 29 30  1  1
 29 31  1  0
 29 32  1  0
 33 53  1  0
M  END

