
     RDKit          3D

 44 45  0  0  0  0  0  0  0  0999 V2000
    0.7931    0.7585   -0.4019 C   0  0  0  0  0  0  0  0  0  0  0  0
    2.2131    0.1794   -0.2834 C   0  0  1  0  0  0  0  0  0  0  0  0
    2.2326   -1.2011   -0.9562 C   0  0  0  0  0  0  0  0  0  0  0  0
    3.2896    1.1928   -0.7835 C   0  0  1  0  0  0  0  0  0  0  0  0
    3.2399    2.5107    0.0463 C   0  0  0  0  0  0  0  0  0  0  0  0
    3.0095    2.4206    1.4972 N   0  0  0  0  0  0  0  0  0  0  0  0
    2.0987    3.1634    2.2381 C   0  0  0  0  0  0  0  0  0  0  0  0
    1.1221    4.1563    1.6727 C   0  0  0  0  0  0  0  0  0  0  0  0
    1.5435    5.6078    1.8939 C   0  0  0  0  0  0  0  0  0  0  0  0
    3.0226    6.0486    0.9453 Cl  0  0  0  0  0  0  0  0  0  0  0  0
    2.1795    2.9645    3.5360 N   0  0  0  0  0  0  0  0  0  0  0  0
    3.1944    2.0562    3.6980 C   0  0  0  0  0  0  0  0  0  0  0  0
    3.7402    1.4623    4.8419 C   0  0  0  0  0  0  0  0  0  0  0  0
    4.7877    0.5678    4.6263 C   0  0  0  0  0  0  0  0  0  0  0  0
    5.6213   -0.3077    6.1013 Br  0  0  0  0  0  0  0  0  0  0  0  0
    5.2527    0.2905    3.3226 C   0  0  0  0  0  0  0  0  0  0  0  0
    4.7331    0.8502    2.2297 N   0  0  0  0  0  0  0  0  0  0  0  0
    3.7383    1.7026    2.4353 C   0  0  0  0  0  0  0  0  0  0  0  0
    4.7201    0.5829   -1.0033 C   0  0  1  0  0  0  0  0  0  0  0  0
    4.8517   -0.0104   -2.4191 C   0  0  0  0  0  0  0  0  0  0  0  0
    5.8843    1.5646   -0.8011 C   0  0  0  0  0  0  0  0  0  0  0  0
    0.0474    0.0398   -0.0264 H   0  0  0  0  0  0  0  0  0  0  0  0
    0.5429    0.9712   -1.4560 H   0  0  0  0  0  0  0  0  0  0  0  0
    0.6548    1.6874    0.1688 H   0  0  0  0  0  0  0  0  0  0  0  0
    2.4185    0.0021    0.7862 H   0  0  0  0  0  0  0  0  0  0  0  0
    1.9943   -1.1387   -2.0310 H   0  0  0  0  0  0  0  0  0  0  0  0
    1.4685   -1.8452   -0.4917 H   0  0  0  0  0  0  0  0  0  0  0  0
    3.1980   -1.7144   -0.8469 H   0  0  0  0  0  0  0  0  0  0  0  0
    2.9652    1.5326   -1.7863 H   0  0  0  0  0  0  0  0  0  0  0  0
    2.4242    3.1304   -0.3387 H   0  0  0  0  0  0  0  0  0  0  0  0
    4.1510    3.0996   -0.1169 H   0  0  0  0  0  0  0  0  0  0  0  0
    0.1751    4.0121    2.2183 H   0  0  0  0  0  0  0  0  0  0  0  0
    0.9145    3.9855    0.6080 H   0  0  0  0  0  0  0  0  0  0  0  0
    1.7809    5.7815    2.9514 H   0  0  0  0  0  0  0  0  0  0  0  0
    0.7506    6.2991    1.5785 H   0  0  0  0  0  0  0  0  0  0  0  0
    3.3648    1.6917    5.8402 H   0  0  0  0  0  0  0  0  0  0  0  0
    6.0770   -0.4146    3.1806 H   0  0  0  0  0  0  0  0  0  0  0  0
    4.8578   -0.2204   -0.2614 H   0  0  0  0  0  0  0  0  0  0  0  0
    4.8226    0.7929   -3.1763 H   0  0  0  0  0  0  0  0  0  0  0  0
    4.0585   -0.7253   -2.6701 H   0  0  0  0  0  0  0  0  0  0  0  0
    5.8157   -0.5322   -2.5340 H   0  0  0  0  0  0  0  0  0  0  0  0
    5.8084    2.4376   -1.4732 H   0  0  0  0  0  0  0  0  0  0  0  0
    6.8353    1.0611   -1.0392 H   0  0  0  0  0  0  0  0  0  0  0  0
    5.9578    1.9184    0.2352 H   0  0  0  0  0  0  0  0  0  0  0  0
  1  2  1  0
  1 22  1  0
  1 23  1  0
  1 24  1  0
  2  3  1  0
  2  4  1  0
  2 25  1  1
  3 26  1  0
  3 27  1  0
  3 28  1  0
  4  5  1  0
  4 19  1  0
  4 29  1  6
  5  6  1  0
  5 30  1  0
  5 31  1  0
  6  7  1  0
  6 18  1  0
  7  8  1  0
  7 11  2  0
  8  9  1  0
  8 32  1  0
  8 33  1  0
  9 10  1  0
  9 34  1  0
  9 35  1  0
 11 12  1  0
 12 13  1  0
 12 18  2  0
 13 14  2  0
 13 36  1  0
 14 15  1  0
 14 16  1  0
 16 17  2  0
 16 37  1  0
 17 18  1  0
 19 20  1  0
 19 21  1  0
 19 38  1  1
 20 39  1  0
 20 40  1  0
 20 41  1  0
 21 42  1  0
 21 43  1  0
 21 44  1  0
M  END

