
     RDKit          3D

 38 40  0  0  0  0  0  0  0  0999 V2000
    3.1053   -0.8322    2.3118 C   0  0  0  0  0  0  0  0  0  0  0  0
    2.5234    0.0204    1.1843 C   0  0  0  0  0  0  0  0  0  0  0  0
    3.4263    1.1682    0.7507 C   0  0  1  0  0  0  0  0  0  0  0  0
    2.8742    2.0682   -0.3602 C   0  0  0  0  0  0  0  0  0  0  0  0
    3.5823    3.3985   -0.0928 C   0  0  0  0  0  0  0  0  0  0  0  0
    3.6400    3.4255    1.4457 C   0  0  2  0  0  0  0  0  0  0  0  0
    4.8475    4.2166    1.9735 C   0  0  0  0  0  0  0  0  0  0  0  0
    4.9286    5.4079    1.7872 O   0  0  0  0  0  0  0  0  0  0  0  0
    5.7523    3.4131    2.6400 N   0  0  0  0  0  0  0  0  0  0  0  0
    6.9684    3.7547    3.2371 C   0  0  0  0  0  0  0  0  0  0  0  0
    7.4740    2.9471    4.2790 C   0  0  0  0  0  0  0  0  0  0  0  0
    8.6865    3.3086    4.8290 C   0  0  0  0  0  0  0  0  0  0  0  0
    9.3262    4.4593    4.3242 C   0  0  0  0  0  0  0  0  0  0  0  0
   10.6292    4.9324    4.8650 C   0  0  1  0  0  0  0  0  0  0  0  0
   11.6407    5.5839    3.9390 C   0  0  0  0  0  0  0  0  0  0  0  0
   10.9174    6.4208    4.9446 C   0  0  0  0  0  0  0  0  0  0  0  0
    8.7791    5.1669    3.3306 N   0  0  0  0  0  0  0  0  0  0  0  0
    7.6281    4.8216    2.7847 N   0  0  0  0  0  0  0  0  0  0  0  0
    3.6511    2.0585    1.8639 O   0  0  0  0  0  0  0  0  0  0  0  0
    2.4206   -1.6491    2.5883 H   0  0  0  0  0  0  0  0  0  0  0  0
    3.2832   -0.2205    3.2094 H   0  0  0  0  0  0  0  0  0  0  0  0
    4.0657   -1.2877    2.0168 H   0  0  0  0  0  0  0  0  0  0  0  0
    1.5517    0.4435    1.4938 H   0  0  0  0  0  0  0  0  0  0  0  0
    2.3268   -0.6071    0.2968 H   0  0  0  0  0  0  0  0  0  0  0  0
    4.4080    0.7562    0.4378 H   0  0  0  0  0  0  0  0  0  0  0  0
    1.7825    2.1780   -0.2443 H   0  0  0  0  0  0  0  0  0  0  0  0
    3.0696    1.6636   -1.3645 H   0  0  0  0  0  0  0  0  0  0  0  0
    3.0671    4.2777   -0.5020 H   0  0  0  0  0  0  0  0  0  0  0  0
    4.6026    3.3859   -0.5095 H   0  0  0  0  0  0  0  0  0  0  0  0
    2.7434    3.9241    1.8575 H   0  0  0  0  0  0  0  0  0  0  0  0
    5.4078    2.4656    2.7796 H   0  0  0  0  0  0  0  0  0  0  0  0
    6.9174    2.0761    4.6349 H   0  0  0  0  0  0  0  0  0  0  0  0
    9.1379    2.7288    5.6377 H   0  0  0  0  0  0  0  0  0  0  0  0
   11.0291    4.3101    5.6709 H   0  0  0  0  0  0  0  0  0  0  0  0
   11.3354    5.6824    2.8941 H   0  0  0  0  0  0  0  0  0  0  0  0
   12.6972    5.3527    4.1026 H   0  0  0  0  0  0  0  0  0  0  0  0
   10.1280    7.0792    4.5726 H   0  0  0  0  0  0  0  0  0  0  0  0
   11.4604    6.7840    5.8219 H   0  0  0  0  0  0  0  0  0  0  0  0
  1  2  1  0
  1 20  1  0
  1 21  1  0
  1 22  1  0
  2  3  1  0
  2 23  1  0
  2 24  1  0
  3  4  1  0
  3 19  1  0
  3 25  1  6
  4  5  1  0
  4 26  1  0
  4 27  1  0
  5  6  1  0
  5 28  1  0
  5 29  1  0
  6  7  1  0
  6 19  1  0
  6 30  1  1
  7  8  2  0
  7  9  1  0
  9 10  1  0
  9 31  1  0
 10 11  2  0
 10 18  1  0
 11 12  1  0
 11 32  1  0
 12 13  2  0
 12 33  1  0
 13 14  1  0
 13 17  1  0
 14 15  1  0
 14 16  1  0
 14 34  1  1
 15 16  1  0
 15 35  1  0
 15 36  1  0
 16 37  1  0
 16 38  1  0
 17 18  2  0
M  END

