
     RDKit          3D

 69 71  0  0  0  0  0  0  0  0999 V2000
    6.1080    3.9505   -6.1456 C   0  0  0  0  0  0  0  0  0  0  0  0
    5.2070    4.2151   -4.9373 C   0  0  0  0  0  0  0  0  0  0  0  0
    5.8524    3.9010   -3.5818 C   0  0  0  0  0  0  0  0  0  0  0  0
    6.2448    2.5080   -3.4222 N   0  0  0  0  0  0  0  0  0  0  0  0
    5.6274    1.6511   -2.5626 C   0  0  0  0  0  0  0  0  0  0  0  0
    4.6906    1.9642   -1.8476 O   0  0  0  0  0  0  0  0  0  0  0  0
    6.2367    0.2230   -2.4688 C   0  0  1  0  0  0  0  0  0  0  0  0
    5.1367   -0.8120   -2.2163 C   0  0  0  0  0  0  0  0  0  0  0  0
    7.1312   -0.1129   -3.5862 N   0  0  0  0  0  0  0  0  0  0  0  0
    6.5305   -0.5039   -4.8743 C   0  0  0  0  0  0  0  0  0  0  0  0
    6.2526   -1.9861   -5.0618 C   0  0  0  0  0  0  0  0  0  0  0  0
    4.9929   -2.4167   -5.5024 C   0  0  0  0  0  0  0  0  0  0  0  0
    4.7323   -3.7733   -5.7197 C   0  0  0  0  0  0  0  0  0  0  0  0
    5.7326   -4.7218   -5.4937 C   0  0  0  0  0  0  0  0  0  0  0  0
    6.9948   -4.3028   -5.0597 C   0  0  0  0  0  0  0  0  0  0  0  0
    7.2557   -2.9463   -4.8511 C   0  0  0  0  0  0  0  0  0  0  0  0
    8.4989    0.0143   -3.5404 C   0  0  0  0  0  0  0  0  0  0  0  0
    9.2040   -0.2557   -4.5037 O   0  0  0  0  0  0  0  0  0  0  0  0
    9.1481    0.5128   -2.2320 C   0  0  0  0  0  0  0  0  0  0  0  0
   10.4841    1.0480   -2.4192 N   0  0  0  0  0  0  0  0  0  0  0  0
   10.6336    2.4015   -2.8739 C   0  0  0  0  0  0  0  0  0  0  0  0
   10.5403    2.6685   -4.2484 C   0  0  0  0  0  0  0  0  0  0  0  0
   10.6107    3.9867   -4.7018 C   0  0  0  0  0  0  0  0  0  0  0  0
   10.4511    4.3239   -6.4143 Cl  0  0  0  0  0  0  0  0  0  0  0  0
   10.7938    5.0375   -3.8022 C   0  0  0  0  0  0  0  0  0  0  0  0
   10.8908    4.7547   -2.4379 C   0  0  0  0  0  0  0  0  0  0  0  0
   10.8070    3.4468   -1.9374 C   0  0  0  0  0  0  0  0  0  0  0  0
   10.8963    3.1760   -0.4581 C   0  0  0  0  0  0  0  0  0  0  0  0
   11.8466    0.0627   -2.1970 S   0  0  1  0  0  0  0  0  0  0  0  0
   12.8748    0.9021   -1.5764 O   0  0  0  0  0  0  0  0  0  0  0  0
   11.3400   -1.1480   -1.5430 O   0  0  0  0  0  0  0  0  0  0  0  0
   12.4834   -0.3954   -3.8117 C   0  0  0  0  0  0  0  0  0  0  0  0
   13.4576    0.4110   -4.4090 C   0  0  0  0  0  0  0  0  0  0  0  0
   13.9657    0.0428   -5.6574 C   0  0  0  0  0  0  0  0  0  0  0  0
   13.5105   -1.1212   -6.2849 C   0  0  0  0  0  0  0  0  0  0  0  0
   12.5473   -1.9257   -5.6659 C   0  0  0  0  0  0  0  0  0  0  0  0
   12.0252   -1.5658   -4.4226 C   0  0  0  0  0  0  0  0  0  0  0  0
    5.6140    4.2517   -7.0827 H   0  0  0  0  0  0  0  0  0  0  0  0
    6.3557    2.8803   -6.2451 H   0  0  0  0  0  0  0  0  0  0  0  0
    7.0600    4.5036   -6.0792 H   0  0  0  0  0  0  0  0  0  0  0  0
    4.2719    3.6356   -5.0292 H   0  0  0  0  0  0  0  0  0  0  0  0
    4.9105    5.2785   -4.9233 H   0  0  0  0  0  0  0  0  0  0  0  0
    5.1492    4.1186   -2.7658 H   0  0  0  0  0  0  0  0  0  0  0  0
    6.7438    4.5377   -3.4381 H   0  0  0  0  0  0  0  0  0  0  0  0
    7.0035    2.1523   -3.9899 H   0  0  0  0  0  0  0  0  0  0  0  0
    6.8450    0.2473   -1.5544 H   0  0  0  0  0  0  0  0  0  0  0  0
    4.4356   -0.8898   -3.0583 H   0  0  0  0  0  0  0  0  0  0  0  0
    4.5626   -0.4945   -1.3363 H   0  0  0  0  0  0  0  0  0  0  0  0
    5.5722   -1.8044   -2.0340 H   0  0  0  0  0  0  0  0  0  0  0  0
    7.2313   -0.1727   -5.6550 H   0  0  0  0  0  0  0  0  0  0  0  0
    5.5967    0.0643   -4.9995 H   0  0  0  0  0  0  0  0  0  0  0  0
    4.2010   -1.6817   -5.6766 H   0  0  0  0  0  0  0  0  0  0  0  0
    3.7428   -4.0884   -6.0608 H   0  0  0  0  0  0  0  0  0  0  0  0
    5.5313   -5.7836   -5.6570 H   0  0  0  0  0  0  0  0  0  0  0  0
    7.7856   -5.0380   -4.8888 H   0  0  0  0  0  0  0  0  0  0  0  0
    8.2506   -2.6232   -4.5395 H   0  0  0  0  0  0  0  0  0  0  0  0
    9.2014   -0.3323   -1.5275 H   0  0  0  0  0  0  0  0  0  0  0  0
    8.5438    1.2991   -1.7580 H   0  0  0  0  0  0  0  0  0  0  0  0
   10.3964    1.8401   -4.9419 H   0  0  0  0  0  0  0  0  0  0  0  0
   10.8539    6.0645   -4.1663 H   0  0  0  0  0  0  0  0  0  0  0  0
   11.0303    5.5812   -1.7362 H   0  0  0  0  0  0  0  0  0  0  0  0
   10.9990    4.1130    0.1074 H   0  0  0  0  0  0  0  0  0  0  0  0
   11.7571    2.5281   -0.2372 H   0  0  0  0  0  0  0  0  0  0  0  0
    9.9979    2.6546   -0.0880 H   0  0  0  0  0  0  0  0  0  0  0  0
   13.8194    1.2998   -3.8906 H   0  0  0  0  0  0  0  0  0  0  0  0
   14.7267    0.6638   -6.1361 H   0  0  0  0  0  0  0  0  0  0  0  0
   13.9138   -1.4075   -7.2595 H   0  0  0  0  0  0  0  0  0  0  0  0
   12.2003   -2.8395   -6.1539 H   0  0  0  0  0  0  0  0  0  0  0  0
   11.2797   -2.1826   -3.9217 H   0  0  0  0  0  0  0  0  0  0  0  0
  1  2  1  0
  1 38  1  0
  1 39  1  0
  1 40  1  0
  2  3  1  0
  2 41  1  0
  2 42  1  0
  3  4  1  0
  3 43  1  0
  3 44  1  0
  4  5  1  0
  4 45  1  0
  5  6  2  0
  5  7  1  0
  7  8  1  0
  7  9  1  0
  7 46  1  1
  8 47  1  0
  8 48  1  0
  8 49  1  0
  9 10  1  0
  9 17  1  0
 10 11  1  0
 10 50  1  0
 10 51  1  0
 11 12  2  0
 11 16  1  0
 12 13  1  0
 12 52  1  0
 13 14  2  0
 13 53  1  0
 14 15  1  0
 14 54  1  0
 15 16  2  0
 15 55  1  0
 16 56  1  0
 17 18  2  0
 17 19  1  0
 19 20  1  0
 19 57  1  0
 19 58  1  0
 20 21  1  0
 29 20  1  6
 21 22  2  0
 21 27  1  0
 22 23  1  0
 22 59  1  0
 23 24  1  0
 23 25  2  0
 25 26  1  0
 25 60  1  0
 26 27  2  0
 26 61  1  0
 27 28  1  0
 28 62  1  0
 28 63  1  0
 28 64  1  0
 29 30  2  0
 29 31  2  0
 29 32  1  0
 32 33  2  0
 32 37  1  0
 33 34  1  0
 33 65  1  0
 34 35  2  0
 34 66  1  0
 35 36  1  0
 35 67  1  0
 36 37  2  0
 36 68  1  0
 37 69  1  0
M  END

