
     RDKit          3D

 49 52  0  0  0  0  0  0  0  0999 V2000
    1.2625    0.3396   -0.4574 C   0  0  0  0  0  0  0  0  0  0  0  0
    2.6575    0.3063   -0.0831 N   0  0  0  0  0  0  0  0  0  0  0  0
    3.3769   -0.8293   -0.1729 N   0  0  0  0  0  0  0  0  0  0  0  0
    4.6090   -0.5489    0.2380 C   0  0  0  0  0  0  0  0  0  0  0  0
    5.6858   -1.5758    0.2730 C   0  0  0  0  0  0  0  0  0  0  0  0
    6.8155   -1.2979    0.6514 O   0  0  0  0  0  0  0  0  0  0  0  0
    5.2675   -2.8120   -0.1532 N   0  0  0  0  0  0  0  0  0  0  0  0
    5.9894   -4.0096   -0.2578 C   0  0  0  0  0  0  0  0  0  0  0  0
    7.3509   -4.1223    0.0827 C   0  0  0  0  0  0  0  0  0  0  0  0
    7.9943   -5.3548   -0.0520 C   0  0  0  0  0  0  0  0  0  0  0  0
    7.3136   -6.4828   -0.5190 C   0  0  0  0  0  0  0  0  0  0  0  0
    5.9612   -6.3691   -0.8567 C   0  0  0  0  0  0  0  0  0  0  0  0
    5.3039   -5.1466   -0.7284 C   0  0  0  0  0  0  0  0  0  0  0  0
    4.7139    0.8223    0.6174 C   0  0  0  0  0  0  0  0  0  0  0  0
    5.6822    1.7236    1.1045 C   0  0  0  0  0  0  0  0  0  0  0  0
    5.2919    3.0291    1.3262 C   0  0  0  0  0  0  0  0  0  0  0  0
    3.9334    3.4463    1.0708 C   0  0  0  0  0  0  0  0  0  0  0  0
    3.5328    4.7380    1.3231 N   0  0  0  0  0  0  0  0  0  0  0  0
    2.1749    5.1750    1.0041 C   0  0  0  0  0  0  0  0  0  0  0  0
    2.0368    5.8285   -0.3769 C   0  0  0  0  0  0  0  0  0  0  0  0
    2.9976    6.9951   -0.6619 C   0  0  0  0  0  0  0  0  0  0  0  0
    4.4810    6.5902   -0.7615 C   0  0  0  0  0  0  0  0  0  0  0  0
    5.2509    6.4424    0.5650 C   0  0  0  0  0  0  0  0  0  0  0  0
    4.4579    5.7911    1.7172 C   0  0  0  0  0  0  0  0  0  0  0  0
    3.0123    2.5975    0.5935 N   0  0  0  0  0  0  0  0  0  0  0  0
    3.4197    1.3460    0.3934 C   0  0  0  0  0  0  0  0  0  0  0  0
    1.1392    0.0576   -1.5146 H   0  0  0  0  0  0  0  0  0  0  0  0
    0.9000    1.3643   -0.3067 H   0  0  0  0  0  0  0  0  0  0  0  0
    0.6770   -0.3534    0.1667 H   0  0  0  0  0  0  0  0  0  0  0  0
    4.2887   -2.8435   -0.4279 H   0  0  0  0  0  0  0  0  0  0  0  0
    7.8803   -3.2446    0.4462 H   0  0  0  0  0  0  0  0  0  0  0  0
    9.0518   -5.4293    0.2158 H   0  0  0  0  0  0  0  0  0  0  0  0
    7.8301   -7.4404   -0.6190 H   0  0  0  0  0  0  0  0  0  0  0  0
    5.4101   -7.2389   -1.2238 H   0  0  0  0  0  0  0  0  0  0  0  0
    4.2457   -5.0645   -0.9942 H   0  0  0  0  0  0  0  0  0  0  0  0
    6.7038    1.3906    1.2934 H   0  0  0  0  0  0  0  0  0  0  0  0
    6.0224    3.7461    1.6950 H   0  0  0  0  0  0  0  0  0  0  0  0
    1.8686    5.8919    1.7863 H   0  0  0  0  0  0  0  0  0  0  0  0
    1.5104    4.3052    1.0695 H   0  0  0  0  0  0  0  0  0  0  0  0
    0.9940    6.1779   -0.4801 H   0  0  0  0  0  0  0  0  0  0  0  0
    2.1812    5.0516   -1.1479 H   0  0  0  0  0  0  0  0  0  0  0  0
    2.8667    7.7930    0.0937 H   0  0  0  0  0  0  0  0  0  0  0  0
    2.6985    7.4481   -1.6221 H   0  0  0  0  0  0  0  0  0  0  0  0
    5.0191    7.3288   -1.3788 H   0  0  0  0  0  0  0  0  0  0  0  0
    4.5392    5.6409   -1.3221 H   0  0  0  0  0  0  0  0  0  0  0  0
    5.5847    7.4333    0.9202 H   0  0  0  0  0  0  0  0  0  0  0  0
    6.1715    5.8683    0.3676 H   0  0  0  0  0  0  0  0  0  0  0  0
    3.8486    6.5617    2.2134 H   0  0  0  0  0  0  0  0  0  0  0  0
    5.1494    5.4215    2.4907 H   0  0  0  0  0  0  0  0  0  0  0  0
  1  2  1  0
  1 27  1  0
  1 28  1  0
  1 29  1  0
  2  3  1  0
  2 26  1  0
  3  4  2  0
  4  5  1  0
  4 14  1  0
  5  6  2  0
  5  7  1  0
  7  8  1  0
  7 30  1  0
  8  9  2  0
  8 13  1  0
  9 10  1  0
  9 31  1  0
 10 11  2  0
 10 32  1  0
 11 12  1  0
 11 33  1  0
 12 13  2  0
 12 34  1  0
 13 35  1  0
 14 15  1  0
 14 26  2  0
 15 16  2  0
 15 36  1  0
 16 17  1  0
 16 37  1  0
 17 18  1  0
 17 25  2  0
 18 19  1  0
 18 24  1  0
 19 20  1  0
 19 38  1  0
 19 39  1  0
 20 21  1  0
 20 40  1  0
 20 41  1  0
 21 22  1  0
 21 42  1  0
 21 43  1  0
 22 23  1  0
 22 44  1  0
 22 45  1  0
 23 24  1  0
 23 46  1  0
 23 47  1  0
 24 48  1  0
 24 49  1  0
 25 26  1  0
M  END

