
     RDKit          3D

 34 35  0  0  0  0  0  0  0  0999 V2000
    0.4398    2.6927    4.2190 C   0  0  0  0  0  0  0  0  0  0  0  0
    1.9670    2.7304    4.2941 C   0  0  0  0  0  0  0  0  0  0  0  0
    2.6445    1.5659    3.5644 C   0  0  0  0  0  0  0  0  0  0  0  0
    4.1742    1.5974    3.6374 C   0  0  0  0  0  0  0  0  0  0  0  0
    4.8403    0.4289    2.9055 C   0  0  0  0  0  0  0  0  0  0  0  0
    6.3837    0.4480    2.9277 C   0  0  0  0  0  0  0  0  0  0  0  0
    6.9953    0.3614    4.2891 C   0  0  0  0  0  0  0  0  0  0  0  0
    7.6788    1.2823    5.0563 C   0  0  0  0  0  0  0  0  0  0  0  0
    8.1159    3.0498    4.6146 Br  0  0  0  0  0  0  0  0  0  0  0  0
    8.0315    0.7321    6.2564 N   0  0  0  0  0  0  0  0  0  0  0  0
    7.6017   -0.4694    6.3181 N   0  0  0  0  0  0  0  0  0  0  0  0
    6.9450   -0.7302    5.1338 N   0  0  0  0  0  0  0  0  0  0  0  0
    6.5104   -2.0368    4.8318 C   0  0  0  0  0  0  0  0  0  0  0  0
    6.5602   -2.5119    3.7294 O   0  0  0  0  0  0  0  0  0  0  0  0
    6.0137   -2.7551    5.9371 N   0  0  0  0  0  0  0  0  0  0  0  0
    5.9036   -4.1198    6.0249 C   0  0  0  0  0  0  0  0  0  0  0  0
    5.2515   -4.3184    7.2118 C   0  0  0  0  0  0  0  0  0  0  0  0
    4.9688   -3.0919    7.7677 N   0  0  0  0  0  0  0  0  0  0  0  0
    5.4162   -2.1562    7.0206 N   0  0  0  0  0  0  0  0  0  0  0  0
   -0.0126    3.5432    4.7535 H   0  0  0  0  0  0  0  0  0  0  0  0
    0.0390    1.7678    4.6671 H   0  0  0  0  0  0  0  0  0  0  0  0
    0.0878    2.7314    3.1742 H   0  0  0  0  0  0  0  0  0  0  0  0
    2.2851    2.7279    5.3524 H   0  0  0  0  0  0  0  0  0  0  0  0
    2.3343    3.6842    3.8731 H   0  0  0  0  0  0  0  0  0  0  0  0
    2.3281    1.5663    2.5043 H   0  0  0  0  0  0  0  0  0  0  0  0
    2.2790    0.6107    3.9858 H   0  0  0  0  0  0  0  0  0  0  0  0
    4.4855    1.5983    4.6977 H   0  0  0  0  0  0  0  0  0  0  0  0
    4.5430    2.5502    3.2155 H   0  0  0  0  0  0  0  0  0  0  0  0
    4.5268    0.4289    1.8473 H   0  0  0  0  0  0  0  0  0  0  0  0
    4.4757   -0.5278    3.3197 H   0  0  0  0  0  0  0  0  0  0  0  0
    6.7478    1.3837    2.4764 H   0  0  0  0  0  0  0  0  0  0  0  0
    6.7647   -0.3826    2.3141 H   0  0  0  0  0  0  0  0  0  0  0  0
    6.2958   -4.7820    5.2590 H   0  0  0  0  0  0  0  0  0  0  0  0
    4.9647   -5.2467    7.7005 H   0  0  0  0  0  0  0  0  0  0  0  0
  1  2  1  0
  1 20  1  0
  1 21  1  0
  1 22  1  0
  2  3  1  0
  2 23  1  0
  2 24  1  0
  3  4  1  0
  3 25  1  0
  3 26  1  0
  4  5  1  0
  4 27  1  0
  4 28  1  0
  5  6  1  0
  5 29  1  0
  5 30  1  0
  6  7  1  0
  6 31  1  0
  6 32  1  0
  7  8  2  0
  7 12  1  0
  8  9  1  0
  8 10  1  0
 10 11  2  0
 11 12  1  0
 12 13  1  0
 13 14  2  0
 13 15  1  0
 15 16  1  0
 15 19  1  0
 16 17  2  0
 16 33  1  0
 17 18  1  0
 17 34  1  0
 18 19  2  0
M  END

