
     RDKit          3D

 38 40  0  0  0  0  0  0  0  0999 V2000
    1.4492    1.9779    0.8473 C   0  0  0  0  0  0  0  0  0  0  0  0
    2.4352    0.6830    0.0330 S   0  0  0  0  0  0  0  0  0  0  0  0
    3.1463    1.6152   -1.2738 C   0  0  0  0  0  0  0  0  0  0  0  0
    2.9227    2.9032   -1.4590 N   0  0  0  0  0  0  0  0  0  0  0  0
    3.6697    3.2599   -2.5432 N   0  0  0  0  0  0  0  0  0  0  0  0
    3.6114    4.6001   -3.0199 C   0  0  0  0  0  0  0  0  0  0  0  0
    4.7712    5.2633   -3.4481 C   0  0  0  0  0  0  0  0  0  0  0  0
    4.6812    6.5782   -3.9135 C   0  0  0  0  0  0  0  0  0  0  0  0
    3.4506    7.2400   -3.9324 C   0  0  0  0  0  0  0  0  0  0  0  0
    2.3025    6.5804   -3.4799 C   0  0  0  0  0  0  0  0  0  0  0  0
    2.3754    5.2628   -3.0276 C   0  0  0  0  0  0  0  0  0  0  0  0
    4.3390    2.1894   -3.0723 C   0  0  0  0  0  0  0  0  0  0  0  0
    5.0860    2.2909   -4.2357 N   0  0  0  0  0  0  0  0  0  0  0  0
    6.3132    1.6602   -4.4403 C   0  0  0  0  0  0  0  0  0  0  0  0
    6.8495    0.9939   -3.5772 O   0  0  0  0  0  0  0  0  0  0  0  0
    6.8895    1.8837   -5.7828 C   0  0  0  0  0  0  0  0  0  0  0  0
    6.4006    2.5490   -6.9107 C   0  0  0  0  0  0  0  0  0  0  0  0
    7.4188    2.4134   -7.8693 C   0  0  0  0  0  0  0  0  0  0  0  0
    8.4505    1.7218   -7.3813 N   0  0  0  0  0  0  0  0  0  0  0  0
    8.1274    1.4057   -6.1292 N   0  0  0  0  0  0  0  0  0  0  0  0
    9.0628    0.6245   -5.3290 C   0  0  0  0  0  0  0  0  0  0  0  0
    4.0361    1.0866   -2.2694 C   0  0  0  0  0  0  0  0  0  0  0  0
    4.4117   -0.2699   -2.4454 C   0  0  0  0  0  0  0  0  0  0  0  0
    4.6650   -1.3968   -2.5718 N   0  0  0  0  0  0  0  0  0  0  0  0
    0.9749    1.4913    1.7106 H   0  0  0  0  0  0  0  0  0  0  0  0
    0.6793    2.3693    0.1687 H   0  0  0  0  0  0  0  0  0  0  0  0
    2.0922    2.8014    1.1856 H   0  0  0  0  0  0  0  0  0  0  0  0
    5.7406    4.7664   -3.3942 H   0  0  0  0  0  0  0  0  0  0  0  0
    5.5868    7.0922   -4.2446 H   0  0  0  0  0  0  0  0  0  0  0  0
    3.3873    8.2703   -4.2900 H   0  0  0  0  0  0  0  0  0  0  0  0
    1.3383    7.0945   -3.4830 H   0  0  0  0  0  0  0  0  0  0  0  0
    1.4909    4.7364   -2.6680 H   0  0  0  0  0  0  0  0  0  0  0  0
    4.7643    2.9563   -4.9304 H   0  0  0  0  0  0  0  0  0  0  0  0
    5.4407    3.0462   -7.0349 H   0  0  0  0  0  0  0  0  0  0  0  0
    7.4457    2.7839   -8.8933 H   0  0  0  0  0  0  0  0  0  0  0  0
    9.9347    0.4406   -5.9670 H   0  0  0  0  0  0  0  0  0  0  0  0
    8.6048   -0.3220   -5.0141 H   0  0  0  0  0  0  0  0  0  0  0  0
    9.3556    1.1763   -4.4259 H   0  0  0  0  0  0  0  0  0  0  0  0
  1  2  1  0
  1 25  1  0
  1 26  1  0
  1 27  1  0
  2  3  1  0
  3  4  2  0
  3 22  1  0
  4  5  1  0
  5  6  1  0
  5 12  1  0
  6  7  2  0
  6 11  1  0
  7  8  1  0
  7 28  1  0
  8  9  2  0
  8 29  1  0
  9 10  1  0
  9 30  1  0
 10 11  2  0
 10 31  1  0
 11 32  1  0
 12 13  1  0
 12 22  2  0
 13 14  1  0
 13 33  1  0
 14 15  2  0
 14 16  1  0
 16 17  2  0
 16 20  1  0
 17 18  1  0
 17 34  1  0
 18 19  2  0
 18 35  1  0
 19 20  1  0
 20 21  1  0
 21 36  1  0
 21 37  1  0
 21 38  1  0
 22 23  1  0
 23 24  3  0
M  END

