
     RDKit          3D

 30 31  0  0  0  0  0  0  0  0999 V2000
    3.0305    1.4927    0.3392 C   0  0  0  0  0  0  0  0  0  0  0  0
    2.6313    0.3428    1.2620 C   0  0  1  0  0  0  0  0  0  0  0  0
    1.2274    0.1360    1.2521 O   0  0  0  0  0  0  0  0  0  0  0  0
    3.3704   -0.9732    0.9455 C   0  0  0  0  0  0  0  0  0  0  0  0
    4.8468   -0.9162    1.1806 C   0  0  0  0  0  0  0  0  0  0  0  0
    5.3940   -0.6099    2.3964 N   0  0  0  0  0  0  0  0  0  0  0  0
    6.6934   -0.6592    2.1659 C   0  0  0  0  0  0  0  0  0  0  0  0
    6.9166   -0.9907    0.8705 N   0  0  0  0  0  0  0  0  0  0  0  0
    5.7403   -1.1442    0.2240 N   0  0  0  0  0  0  0  0  0  0  0  0
    8.2121   -1.0918    0.2204 C   0  0  0  0  0  0  0  0  0  0  0  0
    9.2990   -1.1522    1.3142 C   0  0  0  0  0  0  0  0  0  0  0  0
    9.1002   -0.1968    2.3952 N   0  0  0  0  0  0  0  0  0  0  0  0
    9.2901    1.1947    2.0209 C   0  0  0  0  0  0  0  0  0  0  0  0
    7.8537   -0.4625    3.1071 C   0  0  0  0  0  0  0  0  0  0  0  0
    2.4719    2.4028    0.6057 H   0  0  0  0  0  0  0  0  0  0  0  0
    2.8038    1.2459   -0.7135 H   0  0  0  0  0  0  0  0  0  0  0  0
    4.1076    1.7109    0.4040 H   0  0  0  0  0  0  0  0  0  0  0  0
    2.8746    0.6161    2.3016 H   0  0  0  0  0  0  0  0  0  0  0  0
    0.9671   -0.0787    0.3455 H   0  0  0  0  0  0  0  0  0  0  0  0
    3.1953   -1.2622   -0.1040 H   0  0  0  0  0  0  0  0  0  0  0  0
    2.9255   -1.7522    1.5860 H   0  0  0  0  0  0  0  0  0  0  0  0
    8.3514   -0.2222   -0.4444 H   0  0  0  0  0  0  0  0  0  0  0  0
    8.2277   -1.9945   -0.4093 H   0  0  0  0  0  0  0  0  0  0  0  0
   10.2858   -0.9900    0.8523 H   0  0  0  0  0  0  0  0  0  0  0  0
    9.3115   -2.1655    1.7519 H   0  0  0  0  0  0  0  0  0  0  0  0
   10.2746    1.3165    1.5415 H   0  0  0  0  0  0  0  0  0  0  0  0
    9.2816    1.8256    2.9235 H   0  0  0  0  0  0  0  0  0  0  0  0
    8.5232    1.6019    1.3259 H   0  0  0  0  0  0  0  0  0  0  0  0
    7.6284    0.3567    3.8055 H   0  0  0  0  0  0  0  0  0  0  0  0
    7.9705   -1.3741    3.7229 H   0  0  0  0  0  0  0  0  0  0  0  0
  1  2  1  0
  1 15  1  0
  1 16  1  0
  1 17  1  0
  2  3  1  0
  2  4  1  0
  2 18  1  1
  3 19  1  0
  4  5  1  0
  4 20  1  0
  4 21  1  0
  5  6  1  0
  5  9  2  0
  6  7  2  0
  7  8  1  0
  7 14  1  0
  8  9  1  0
  8 10  1  0
 10 11  1  0
 10 22  1  0
 10 23  1  0
 11 12  1  0
 11 24  1  0
 11 25  1  0
 12 13  1  0
 12 14  1  0
 13 26  1  0
 13 27  1  0
 13 28  1  0
 14 29  1  0
 14 30  1  0
M  END

