
     RDKit          3D

 45 45  0  0  0  0  0  0  0  0999 V2000
    6.9762   -8.6943    0.1192 C   0  0  0  0  0  0  0  0  0  0  0  0
    7.4713   -7.2762   -0.1143 C   0  0  0  0  0  0  0  0  0  0  0  0
    6.6988   -6.3136    0.6221 O   0  0  0  0  0  0  0  0  0  0  0  0
    5.5675   -5.8485    0.0497 C   0  0  0  0  0  0  0  0  0  0  0  0
    5.1892   -6.2043   -1.0501 O   0  0  0  0  0  0  0  0  0  0  0  0
    4.8892   -4.8791    0.9186 C   0  0  0  0  0  0  0  0  0  0  0  0
    5.3185   -4.3886    2.1815 C   0  0  0  0  0  0  0  0  0  0  0  0
    4.4543   -3.5222    2.6815 N   0  0  0  0  0  0  0  0  0  0  0  0
    3.4629   -3.4378    1.7684 N   0  0  0  0  0  0  0  0  0  0  0  0
    2.3079   -2.6066    2.0511 C   0  0  0  0  0  0  0  0  0  0  0  0
    3.6657   -4.2335    0.6859 C   0  0  0  0  0  0  0  0  0  0  0  0
    2.6893   -4.3466   -0.4504 C   0  0  0  0  0  0  0  0  0  0  0  0
    2.5526   -3.1069   -1.2328 N   0  0  0  0  0  0  0  0  0  0  0  0
    3.7609   -2.7083   -1.9659 C   0  0  0  0  0  0  0  0  0  0  0  0
    4.1960   -3.6029   -3.1340 C   0  0  0  0  0  0  0  0  0  0  0  0
    1.3400   -3.1120   -2.0491 C   0  0  0  0  0  0  0  0  0  0  0  0
    0.0672   -2.9598   -1.2019 C   0  0  0  0  0  0  0  0  0  0  0  0
   -0.6177   -3.9418   -0.9476 O   0  0  0  0  0  0  0  0  0  0  0  0
   -0.2486   -1.7050   -0.7356 N   0  0  0  0  0  0  0  0  0  0  0  0
   -1.4942   -1.5185   -0.0098 C   0  0  0  0  0  0  0  0  0  0  0  0
    0.5058   -0.5023   -1.0409 C   0  0  0  0  0  0  0  0  0  0  0  0
    7.6382   -9.4120   -0.3917 H   0  0  0  0  0  0  0  0  0  0  0  0
    5.9594   -8.8226   -0.2802 H   0  0  0  0  0  0  0  0  0  0  0  0
    6.9687   -8.9369    1.1934 H   0  0  0  0  0  0  0  0  0  0  0  0
    7.4376   -7.0210   -1.1838 H   0  0  0  0  0  0  0  0  0  0  0  0
    8.5001   -7.1483    0.2534 H   0  0  0  0  0  0  0  0  0  0  0  0
    6.2294   -4.6424    2.7210 H   0  0  0  0  0  0  0  0  0  0  0  0
    2.6316   -1.7968    2.7167 H   0  0  0  0  0  0  0  0  0  0  0  0
    1.5175   -3.1883    2.5530 H   0  0  0  0  0  0  0  0  0  0  0  0
    1.9178   -2.1946    1.1128 H   0  0  0  0  0  0  0  0  0  0  0  0
    1.6945   -4.5930   -0.0462 H   0  0  0  0  0  0  0  0  0  0  0  0
    2.9984   -5.2059   -1.0704 H   0  0  0  0  0  0  0  0  0  0  0  0
    4.5829   -2.6401   -1.2347 H   0  0  0  0  0  0  0  0  0  0  0  0
    3.5950   -1.6791   -2.3318 H   0  0  0  0  0  0  0  0  0  0  0  0
    4.4583   -4.6159   -2.7947 H   0  0  0  0  0  0  0  0  0  0  0  0
    5.0900   -3.1732   -3.6149 H   0  0  0  0  0  0  0  0  0  0  0  0
    3.4146   -3.6814   -3.9075 H   0  0  0  0  0  0  0  0  0  0  0  0
    1.1985   -4.0540   -2.6127 H   0  0  0  0  0  0  0  0  0  0  0  0
    1.4129   -2.2984   -2.7865 H   0  0  0  0  0  0  0  0  0  0  0  0
   -1.9669   -2.4975    0.1293 H   0  0  0  0  0  0  0  0  0  0  0  0
   -2.1833   -0.8605   -0.5697 H   0  0  0  0  0  0  0  0  0  0  0  0
   -1.3080   -1.0574    0.9759 H   0  0  0  0  0  0  0  0  0  0  0  0
    1.5638   -0.7339   -1.2077 H   0  0  0  0  0  0  0  0  0  0  0  0
    0.4541    0.1855   -0.1814 H   0  0  0  0  0  0  0  0  0  0  0  0
    0.1042    0.0352   -1.9212 H   0  0  0  0  0  0  0  0  0  0  0  0
  1  2  1  0
  1 22  1  0
  1 23  1  0
  1 24  1  0
  2  3  1  0
  2 25  1  0
  2 26  1  0
  3  4  1  0
  4  5  2  0
  4  6  1  0
  6  7  1  0
  6 11  2  0
  7  8  2  0
  7 27  1  0
  8  9  1  0
  9 10  1  0
  9 11  1  0
 10 28  1  0
 10 29  1  0
 10 30  1  0
 11 12  1  0
 12 13  1  0
 12 31  1  0
 12 32  1  0
 13 14  1  0
 13 16  1  0
 14 15  1  0
 14 33  1  0
 14 34  1  0
 15 35  1  0
 15 36  1  0
 15 37  1  0
 16 17  1  0
 16 38  1  0
 16 39  1  0
 17 18  2  0
 17 19  1  0
 19 20  1  0
 19 21  1  0
 20 40  1  0
 20 41  1  0
 20 42  1  0
 21 43  1  0
 21 44  1  0
 21 45  1  0
M  END

