
     RDKit          3D

 40 40  0  0  0  0  0  0  0  0999 V2000
    3.8994    1.6545   -2.5251 C   0  0  0  0  0  0  0  0  0  0  0  0
    4.0629    0.8258   -1.2735 C   0  0  0  0  0  0  0  0  0  0  0  0
    3.7326    1.3254   -0.0091 C   0  0  0  0  0  0  0  0  0  0  0  0
    3.8970    0.5380    1.1335 C   0  0  0  0  0  0  0  0  0  0  0  0
    4.3882   -0.7719    1.0656 C   0  0  0  0  0  0  0  0  0  0  0  0
    4.5467   -1.5898    2.3243 C   0  0  0  0  0  0  0  0  0  0  0  0
    4.7245   -1.2896   -0.2073 C   0  0  0  0  0  0  0  0  0  0  0  0
    5.2547   -2.6933   -0.3832 C   0  0  0  0  0  0  0  0  0  0  0  0
    4.2195   -3.8189   -0.3167 C   0  0  0  0  0  0  0  0  0  0  0  0
    3.1272   -3.6657    0.1888 O   0  0  0  0  0  0  0  0  0  0  0  0
    4.6457   -5.2082   -0.8357 C   0  0  1  0  0  0  0  0  0  0  0  0
    4.2696   -6.2565    0.1107 N   0  0  0  0  0  0  0  0  0  0  0  0
    4.0758   -5.5160   -2.2702 C   0  0  1  0  0  0  0  0  0  0  0  0
    4.3868   -4.3606   -3.2392 C   0  0  0  0  0  0  0  0  0  0  0  0
    4.7581   -6.7992   -2.7784 C   0  0  0  0  0  0  0  0  0  0  0  0
    2.5522   -5.7348   -2.2141 C   0  0  0  0  0  0  0  0  0  0  0  0
    4.5602   -0.4848   -1.3417 C   0  0  0  0  0  0  0  0  0  0  0  0
    3.5019    2.6547   -2.2975 H   0  0  0  0  0  0  0  0  0  0  0  0
    3.2089    1.1738   -3.2385 H   0  0  0  0  0  0  0  0  0  0  0  0
    4.8609    1.7870   -3.0494 H   0  0  0  0  0  0  0  0  0  0  0  0
    3.3445    2.3435    0.0880 H   0  0  0  0  0  0  0  0  0  0  0  0
    3.6343    0.9543    2.1104 H   0  0  0  0  0  0  0  0  0  0  0  0
    4.2844   -0.9994    3.2144 H   0  0  0  0  0  0  0  0  0  0  0  0
    5.5843   -1.9427    2.4585 H   0  0  0  0  0  0  0  0  0  0  0  0
    3.8966   -2.4781    2.3009 H   0  0  0  0  0  0  0  0  0  0  0  0
    5.9948   -2.9443    0.4013 H   0  0  0  0  0  0  0  0  0  0  0  0
    5.8075   -2.7833   -1.3309 H   0  0  0  0  0  0  0  0  0  0  0  0
    5.7453   -5.2136   -0.9302 H   0  0  0  0  0  0  0  0  0  0  0  0
    3.3281   -6.0599    0.4561 H   0  0  0  0  0  0  0  0  0  0  0  0
    4.8783   -6.2251    0.9284 H   0  0  0  0  0  0  0  0  0  0  0  0
    5.4685   -4.1511   -3.2927 H   0  0  0  0  0  0  0  0  0  0  0  0
    3.8679   -3.4294   -2.9590 H   0  0  0  0  0  0  0  0  0  0  0  0
    4.0548   -4.6223   -4.2567 H   0  0  0  0  0  0  0  0  0  0  0  0
    5.8422   -6.6473   -2.9145 H   0  0  0  0  0  0  0  0  0  0  0  0
    4.3375   -7.1031   -3.7510 H   0  0  0  0  0  0  0  0  0  0  0  0
    4.6162   -7.6192   -2.0605 H   0  0  0  0  0  0  0  0  0  0  0  0
    2.0244   -4.8557   -1.8152 H   0  0  0  0  0  0  0  0  0  0  0  0
    2.3010   -6.6012   -1.5838 H   0  0  0  0  0  0  0  0  0  0  0  0
    2.1643   -5.9381   -3.2255 H   0  0  0  0  0  0  0  0  0  0  0  0
    4.8336   -0.8943   -2.3200 H   0  0  0  0  0  0  0  0  0  0  0  0
  1  2  1  0
  1 18  1  0
  1 19  1  0
  1 20  1  0
  2  3  2  0
  2 17  1  0
  3  4  1  0
  3 21  1  0
  4  5  2  0
  4 22  1  0
  5  6  1  0
  5  7  1  0
  6 23  1  0
  6 24  1  0
  6 25  1  0
  7  8  1  0
  7 17  2  0
  8  9  1  0
  8 26  1  0
  8 27  1  0
  9 10  2  0
  9 11  1  0
 11 12  1  0
 11 13  1  0
 11 28  1  6
 12 29  1  0
 12 30  1  0
 13 14  1  6
 13 15  1  0
 13 16  1  0
 14 31  1  0
 14 32  1  0
 14 33  1  0
 15 34  1  0
 15 35  1  0
 15 36  1  0
 16 37  1  0
 16 38  1  0
 16 39  1  0
 17 40  1  0
M  END

