
     RDKit          3D

 58 60  0  0  0  0  0  0  0  0999 V2000
    1.9622   -0.7494   -0.4334 C   0  0  0  0  0  0  0  0  0  0  0  0
    2.9843    0.0765   -0.6793 C   0  0  0  0  0  0  0  0  0  0  0  0
    4.2673    0.1051    0.1039 C   0  0  0  0  0  0  0  0  0  0  0  0
    4.6478    1.4434    0.7940 C   0  0  2  0  0  0  0  0  0  0  0  0
    5.5419    1.2127    1.3954 H   0  0  0  0  0  0  0  0  0  0  0  0
    3.6096    1.9545    1.8101 C   0  0  0  0  0  0  0  0  0  0  0  0
    3.5158    1.0734    3.0590 C   0  0  0  0  0  0  0  0  0  0  0  0
    5.1469    2.4683   -0.1617 N   0  0  0  0  0  0  0  0  0  0  0  0
    4.3855    3.4401   -0.7487 C   0  0  0  0  0  0  0  0  0  0  0  0
    4.8172    4.4495   -1.2812 O   0  0  0  0  0  0  0  0  0  0  0  0
    3.0596    3.1642   -0.6845 O   0  0  0  0  0  0  0  0  0  0  0  0
    2.1475    4.1575   -1.1933 C   0  0  0  0  0  0  0  0  0  0  0  0
    1.7537    3.8920   -2.6276 C   0  0  0  0  0  0  0  0  0  0  0  0
    0.5517    3.2320   -2.9236 C   0  0  0  0  0  0  0  0  0  0  0  0
    0.1850    2.9750   -4.2481 C   0  0  0  0  0  0  0  0  0  0  0  0
    1.0214    3.3753   -5.2939 C   0  0  0  0  0  0  0  0  0  0  0  0
    2.2229    4.0333   -5.0091 C   0  0  0  0  0  0  0  0  0  0  0  0
    2.5876    4.2916   -3.6858 C   0  0  0  0  0  0  0  0  0  0  0  0
    6.6118    2.4143   -0.3907 C   0  0  1  0  0  0  0  0  0  0  0  0
    6.8398    1.3467   -0.2698 H   0  0  0  0  0  0  0  0  0  0  0  0
    7.0540    2.7657   -1.8201 C   0  0  0  0  0  0  0  0  0  0  0  0
    7.4210    3.1717    0.6674 C   0  0  0  0  0  0  0  0  0  0  0  0
    6.9894    4.4059    1.1247 C   0  0  0  0  0  0  0  0  0  0  0  0
    7.7209    5.1398    2.0885 C   0  0  0  0  0  0  0  0  0  0  0  0
    8.8968    4.6386    2.5986 C   0  0  0  0  0  0  0  0  0  0  0  0
    9.3948    3.3829    2.1557 C   0  0  0  0  0  0  0  0  0  0  0  0
   10.6145    2.8566    2.6679 C   0  0  0  0  0  0  0  0  0  0  0  0
   11.1083    1.6454    2.2353 C   0  0  0  0  0  0  0  0  0  0  0  0
   10.3938    0.9051    1.2627 C   0  0  0  0  0  0  0  0  0  0  0  0
    9.2068    1.3852    0.7482 C   0  0  0  0  0  0  0  0  0  0  0  0
    8.6570    2.6330    1.1717 C   0  0  0  0  0  0  0  0  0  0  0  0
    1.0586   -0.7391   -1.0496 H   0  0  0  0  0  0  0  0  0  0  0  0
    1.9903   -1.4726    0.3895 H   0  0  0  0  0  0  0  0  0  0  0  0
    2.9061    0.7833   -1.5111 H   0  0  0  0  0  0  0  0  0  0  0  0
    5.1031   -0.1620   -0.5692 H   0  0  0  0  0  0  0  0  0  0  0  0
    4.2388   -0.6812    0.8763 H   0  0  0  0  0  0  0  0  0  0  0  0
    2.6207    2.0354    1.3400 H   0  0  0  0  0  0  0  0  0  0  0  0
    3.9045    2.9742    2.1089 H   0  0  0  0  0  0  0  0  0  0  0  0
    3.1535    0.0599    2.8244 H   0  0  0  0  0  0  0  0  0  0  0  0
    2.8112    1.5078    3.7856 H   0  0  0  0  0  0  0  0  0  0  0  0
    4.4914    0.9725    3.5637 H   0  0  0  0  0  0  0  0  0  0  0  0
    2.6135    5.1469   -1.0918 H   0  0  0  0  0  0  0  0  0  0  0  0
    1.2685    4.0958   -0.5365 H   0  0  0  0  0  0  0  0  0  0  0  0
   -0.1062    2.9187   -2.1075 H   0  0  0  0  0  0  0  0  0  0  0  0
   -0.7563    2.4626   -4.4634 H   0  0  0  0  0  0  0  0  0  0  0  0
    0.7365    3.1770   -6.3305 H   0  0  0  0  0  0  0  0  0  0  0  0
    2.8787    4.3506   -5.8243 H   0  0  0  0  0  0  0  0  0  0  0  0
    3.5278    4.7978   -3.4557 H   0  0  0  0  0  0  0  0  0  0  0  0
    6.4661    2.1957   -2.5572 H   0  0  0  0  0  0  0  0  0  0  0  0
    8.1134    2.4915   -1.9387 H   0  0  0  0  0  0  0  0  0  0  0  0
    6.9391    3.8337   -2.0325 H   0  0  0  0  0  0  0  0  0  0  0  0
    6.0740    4.8333    0.7143 H   0  0  0  0  0  0  0  0  0  0  0  0
    7.3436    6.1100    2.4216 H   0  0  0  0  0  0  0  0  0  0  0  0
    9.4668    5.1984    3.3450 H   0  0  0  0  0  0  0  0  0  0  0  0
   11.1581    3.4396    3.4166 H   0  0  0  0  0  0  0  0  0  0  0  0
   12.0471    1.2558    2.6368 H   0  0  0  0  0  0  0  0  0  0  0  0
   10.7863   -0.0541    0.9151 H   0  0  0  0  0  0  0  0  0  0  0  0
    8.6898    0.7896   -0.0052 H   0  0  0  0  0  0  0  0  0  0  0  0
  1  2  2  0
  1 32  1  0
  1 33  1  0
  2  3  1  0
  2 34  1  0
  3  4  1  0
  3 35  1  0
  3 36  1  0
  4  5  1  1
  4  6  1  0
  4  8  1  0
  6  7  1  0
  6 37  1  0
  6 38  1  0
  7 39  1  0
  7 40  1  0
  7 41  1  0
  8  9  1  0
  8 19  1  0
  9 10  2  0
  9 11  1  0
 11 12  1  0
 12 13  1  0
 12 42  1  0
 12 43  1  0
 13 14  2  0
 13 18  1  0
 14 15  1  0
 14 44  1  0
 15 16  2  0
 15 45  1  0
 16 17  1  0
 16 46  1  0
 17 18  2  0
 17 47  1  0
 18 48  1  0
 19 20  1  1
 19 21  1  0
 19 22  1  0
 21 49  1  0
 21 50  1  0
 21 51  1  0
 22 23  2  0
 22 31  1  0
 23 24  1  0
 23 52  1  0
 24 25  2  0
 24 53  1  0
 25 26  1  0
 25 54  1  0
 26 27  1  0
 26 31  2  0
 27 28  2  0
 27 55  1  0
 28 29  1  0
 28 56  1  0
 29 30  2  0
 29 57  1  0
 30 31  1  0
 30 58  1  0
M  END

