
     RDKit          3D

 51 54  0  0  0  0  0  0  0  0999 V2000
    1.4894   -0.4099    0.1118 O   0  0  0  0  0  0  0  0  0  0  0  0
    2.7002   -0.4544   -0.0723 C   0  0  0  0  0  0  0  0  0  0  0  0
    3.2959    0.0909   -1.3330 C   0  0  0  0  0  0  0  0  0  0  0  0
    2.4766    0.4987   -2.3204 C   0  0  0  0  0  0  0  0  0  0  0  0
    2.9018    1.0936   -3.5987 C   0  0  0  0  0  0  0  0  0  0  0  0
    4.1287    1.7778   -3.7022 C   0  0  0  0  0  0  0  0  0  0  0  0
    4.5528    2.3462   -4.9020 C   0  0  0  0  0  0  0  0  0  0  0  0
    3.7514    2.2503   -6.0417 C   0  0  0  0  0  0  0  0  0  0  0  0
    2.5263    1.5853   -5.9662 C   0  0  0  0  0  0  0  0  0  0  0  0
    2.0963    1.0147   -4.7640 C   0  0  0  0  0  0  0  0  0  0  0  0
    0.7659    0.2908   -4.7394 C   0  0  1  0  0  0  0  0  0  0  0  0
   -0.1100    0.8780   -3.8992 F   0  0  0  0  0  0  0  0  0  0  0  0
    0.1842    0.2652   -5.9510 F   0  0  0  0  0  0  0  0  0  0  0  0
    0.8985   -0.9865   -4.3387 F   0  0  0  0  0  0  0  0  0  0  0  0
    3.5500   -0.9918    0.8743 N   0  0  0  0  0  0  0  0  0  0  0  0
    4.9834   -1.2263    0.7541 C   0  0  0  0  0  0  0  0  0  0  0  0
    5.7454   -0.5762    1.9162 C   0  0  0  0  0  0  0  0  0  0  0  0
    5.2389   -1.0688    3.2925 C   0  0  1  0  0  0  0  0  0  0  0  0
    3.6947   -0.8908    3.3406 C   0  0  0  0  0  0  0  0  0  0  0  0
    2.9801   -1.4889    2.1236 C   0  0  0  0  0  0  0  0  0  0  0  0
    5.6526   -2.5556    3.5319 C   0  0  0  0  0  0  0  0  0  0  0  0
    5.9317   -2.7137    5.0375 C   0  0  1  0  0  0  0  0  0  0  0  0
    6.8700   -3.7107    5.3765 O   0  0  0  0  0  0  0  0  0  0  0  0
    6.3085   -1.3079    5.4553 C   0  0  0  0  0  0  0  0  0  0  0  0
    6.9511   -0.9485    6.6381 C   0  0  0  0  0  0  0  0  0  0  0  0
    7.1793    0.4058    6.8930 C   0  0  0  0  0  0  0  0  0  0  0  0
    6.7403    1.3711    5.9834 C   0  0  0  0  0  0  0  0  0  0  0  0
    6.0922    0.9892    4.8005 C   0  0  0  0  0  0  0  0  0  0  0  0
    5.4718    2.4259    3.6850 Br  0  0  0  0  0  0  0  0  0  0  0  0
    5.8942   -0.3657    4.4952 C   0  0  0  0  0  0  0  0  0  0  0  0
    4.3773    0.1549   -1.4540 H   0  0  0  0  0  0  0  0  0  0  0  0
    1.4070    0.3670   -2.1406 H   0  0  0  0  0  0  0  0  0  0  0  0
    4.7482    1.8878   -2.8101 H   0  0  0  0  0  0  0  0  0  0  0  0
    5.5080    2.8757   -4.9435 H   0  0  0  0  0  0  0  0  0  0  0  0
    4.0728    2.6959   -6.9858 H   0  0  0  0  0  0  0  0  0  0  0  0
    1.8938    1.5043   -6.8505 H   0  0  0  0  0  0  0  0  0  0  0  0
    5.3611   -0.8371   -0.1968 H   0  0  0  0  0  0  0  0  0  0  0  0
    5.1693   -2.3179    0.7361 H   0  0  0  0  0  0  0  0  0  0  0  0
    5.6220    0.5125    1.8375 H   0  0  0  0  0  0  0  0  0  0  0  0
    6.8227   -0.7904    1.8171 H   0  0  0  0  0  0  0  0  0  0  0  0
    3.4644    0.1850    3.3924 H   0  0  0  0  0  0  0  0  0  0  0  0
    3.2909   -1.3483    4.2591 H   0  0  0  0  0  0  0  0  0  0  0  0
    1.9149   -1.2294    2.1257 H   0  0  0  0  0  0  0  0  0  0  0  0
    3.0487   -2.5937    2.1376 H   0  0  0  0  0  0  0  0  0  0  0  0
    6.5980   -2.7603    2.9990 H   0  0  0  0  0  0  0  0  0  0  0  0
    4.9156   -3.2833    3.1651 H   0  0  0  0  0  0  0  0  0  0  0  0
    5.0106   -3.0110    5.5699 H   0  0  0  0  0  0  0  0  0  0  0  0
    7.7245   -3.4567    4.9994 H   0  0  0  0  0  0  0  0  0  0  0  0
    7.2657   -1.7227    7.3419 H   0  0  0  0  0  0  0  0  0  0  0  0
    7.6871    0.7218    7.8077 H   0  0  0  0  0  0  0  0  0  0  0  0
    6.8940    2.4317    6.1889 H   0  0  0  0  0  0  0  0  0  0  0  0
  1  2  2  0
  2  3  1  0
  2 15  1  0
  3  4  2  0
  3 31  1  0
  4  5  1  0
  4 32  1  0
  5  6  2  0
  5 10  1  0
  6  7  1  0
  6 33  1  0
  7  8  2  0
  7 34  1  0
  8  9  1  0
  8 35  1  0
  9 10  2  0
  9 36  1  0
 10 11  1  0
 11 12  1  1
 11 13  1  0
 11 14  1  0
 15 16  1  0
 15 20  1  0
 16 17  1  0
 16 37  1  0
 16 38  1  0
 18 17  1  6
 17 39  1  0
 17 40  1  0
 18 19  1  0
 18 21  1  0
 18 30  1  0
 19 20  1  0
 19 41  1  0
 19 42  1  0
 20 43  1  0
 20 44  1  0
 21 22  1  0
 21 45  1  0
 21 46  1  0
 22 23  1  0
 22 24  1  0
 22 47  1  1
 23 48  1  0
 24 25  1  0
 24 30  2  0
 25 26  2  0
 25 49  1  0
 26 27  1  0
 26 50  1  0
 27 28  2  0
 27 51  1  0
 28 29  1  0
 28 30  1  0
M  END

