
     RDKit          3D

 54 59  0  0  0  0  0  0  0  0999 V2000
    2.3087    0.6530    0.2382 C   0  0  0  0  0  0  0  0  0  0  0  0
    2.8051   -0.1872   -0.7794 O   0  0  0  0  0  0  0  0  0  0  0  0
    3.2808    0.3572   -1.9275 C   0  0  0  0  0  0  0  0  0  0  0  0
    3.3105    1.7364   -2.1824 C   0  0  0  0  0  0  0  0  0  0  0  0
    3.7604    2.2116   -3.4184 C   0  0  0  0  0  0  0  0  0  0  0  0
    4.1739    1.3243   -4.4121 C   0  0  0  0  0  0  0  0  0  0  0  0
    4.1522   -0.0484   -4.1526 C   0  0  0  0  0  0  0  0  0  0  0  0
    3.7339   -0.5520   -2.9134 C   0  0  0  0  0  0  0  0  0  0  0  0
    3.6992   -2.0191   -2.7162 C   0  0  0  0  0  0  0  0  0  0  0  0
    3.0430   -2.8421   -3.5020 N   0  0  0  0  0  0  0  0  0  0  0  0
    3.3026   -4.0995   -3.0254 C   0  0  0  0  0  0  0  0  0  0  0  0
    2.7905   -5.3393   -3.5406 C   0  0  0  0  0  0  0  0  0  0  0  0
    1.9058   -5.3692   -4.6409 C   0  0  0  0  0  0  0  0  0  0  0  0
    1.4143   -6.5742   -5.1137 C   0  0  0  0  0  0  0  0  0  0  0  0
    1.8006   -7.7762   -4.4902 C   0  0  0  0  0  0  0  0  0  0  0  0
    2.6710   -7.7588   -3.4105 C   0  0  0  0  0  0  0  0  0  0  0  0
    3.1973   -6.5461   -2.9002 C   0  0  0  0  0  0  0  0  0  0  0  0
    4.1350   -6.4982   -1.7687 C   0  0  0  0  0  0  0  0  0  0  0  0
    4.5876   -7.6823   -1.1399 C   0  0  0  0  0  0  0  0  0  0  0  0
    5.4911   -7.6637   -0.0887 C   0  0  0  0  0  0  0  0  0  0  0  0
    5.9913   -6.4376    0.3790 C   0  0  0  0  0  0  0  0  0  0  0  0
    5.5707   -5.2531   -0.2040 C   0  0  0  0  0  0  0  0  0  0  0  0
    4.6377   -5.2456   -1.2704 C   0  0  0  0  0  0  0  0  0  0  0  0
    4.1589   -4.0535   -1.9259 C   0  0  0  0  0  0  0  0  0  0  0  0
    4.4076   -2.6944   -1.7255 N   0  0  0  0  0  0  0  0  0  0  0  0
    5.2722   -2.0830   -0.7629 C   0  0  0  0  0  0  0  0  0  0  0  0
    6.5087   -1.5681   -1.1611 C   0  0  0  0  0  0  0  0  0  0  0  0
    7.3547   -0.9731   -0.2205 C   0  0  0  0  0  0  0  0  0  0  0  0
    6.9919   -0.8850    1.1308 C   0  0  0  0  0  0  0  0  0  0  0  0
    7.8975   -0.2340    2.1475 C   0  0  0  0  0  0  0  0  0  0  0  0
    5.7441   -1.4105    1.5133 C   0  0  0  0  0  0  0  0  0  0  0  0
    4.8880   -1.9943    0.5816 C   0  0  0  0  0  0  0  0  0  0  0  0
    1.9690   -0.0058    1.0485 H   0  0  0  0  0  0  0  0  0  0  0  0
    1.4536    1.2577   -0.1124 H   0  0  0  0  0  0  0  0  0  0  0  0
    3.0895    1.3286    0.6305 H   0  0  0  0  0  0  0  0  0  0  0  0
    2.9698    2.4458   -1.4285 H   0  0  0  0  0  0  0  0  0  0  0  0
    3.7747    3.2893   -3.6016 H   0  0  0  0  0  0  0  0  0  0  0  0
    4.5109    1.6947   -5.3826 H   0  0  0  0  0  0  0  0  0  0  0  0
    4.4629   -0.7614   -4.9192 H   0  0  0  0  0  0  0  0  0  0  0  0
    1.6238   -4.4186   -5.0975 H   0  0  0  0  0  0  0  0  0  0  0  0
    0.7284   -6.5938   -5.9647 H   0  0  0  0  0  0  0  0  0  0  0  0
    1.4142   -8.7309   -4.8564 H   0  0  0  0  0  0  0  0  0  0  0  0
    2.9469   -8.7097   -2.9540 H   0  0  0  0  0  0  0  0  0  0  0  0
    4.2243   -8.6479   -1.4913 H   0  0  0  0  0  0  0  0  0  0  0  0
    5.8159   -8.6024    0.3669 H   0  0  0  0  0  0  0  0  0  0  0  0
    6.7133   -6.4128    1.1991 H   0  0  0  0  0  0  0  0  0  0  0  0
    5.9734   -4.3123    0.1643 H   0  0  0  0  0  0  0  0  0  0  0  0
    6.8089   -1.6407   -2.2082 H   0  0  0  0  0  0  0  0  0  0  0  0
    8.3200   -0.5766   -0.5467 H   0  0  0  0  0  0  0  0  0  0  0  0
    8.9061   -0.0651    1.7426 H   0  0  0  0  0  0  0  0  0  0  0  0
    7.9934   -0.8515    3.0550 H   0  0  0  0  0  0  0  0  0  0  0  0
    7.4990    0.7450    2.4654 H   0  0  0  0  0  0  0  0  0  0  0  0
    5.4371   -1.3580    2.5621 H   0  0  0  0  0  0  0  0  0  0  0  0
    3.9194   -2.3938    0.8862 H   0  0  0  0  0  0  0  0  0  0  0  0
  1  2  1  0
  1 33  1  0
  1 34  1  0
  1 35  1  0
  2  3  1  0
  3  4  2  0
  3  8  1  0
  4  5  1  0
  4 36  1  0
  5  6  2  0
  5 37  1  0
  6  7  1  0
  6 38  1  0
  7  8  2  0
  7 39  1  0
  8  9  1  0
  9 10  2  0
  9 25  1  0
 10 11  1  0
 11 12  2  0
 11 24  1  0
 12 13  1  0
 12 17  1  0
 13 14  2  0
 13 40  1  0
 14 15  1  0
 14 41  1  0
 15 16  2  0
 15 42  1  0
 16 17  1  0
 16 43  1  0
 17 18  2  0
 18 19  1  0
 18 23  1  0
 19 20  2  0
 19 44  1  0
 20 21  1  0
 20 45  1  0
 21 22  2  0
 21 46  1  0
 22 23  1  0
 22 47  1  0
 23 24  2  0
 24 25  1  0
 25 26  1  0
 26 27  2  0
 26 32  1  0
 27 28  1  0
 27 48  1  0
 28 29  2  0
 28 49  1  0
 29 30  1  0
 29 31  1  0
 30 50  1  0
 30 51  1  0
 30 52  1  0
 31 32  2  0
 31 53  1  0
 32 54  1  0
M  END

