
     RDKit          3D

 38 40  0  0  0  0  0  0  0  0999 V2000
    1.2741   -0.9349    0.0683 O   0  0  0  0  0  0  0  0  0  0  0  0
    2.1952   -0.1332    0.0573 C   0  0  0  0  0  0  0  0  0  0  0  0
    2.7427    0.3658    1.2053 N   0  0  0  0  0  0  0  0  0  0  0  0
    2.3002   -0.0720    2.5176 C   0  0  0  0  0  0  0  0  0  0  0  0
    2.9746   -1.3767    2.9923 C   0  0  0  0  0  0  0  0  0  0  0  0
    2.4466   -1.8461    4.3258 C   0  0  0  0  0  0  0  0  0  0  0  0
    1.2313   -2.5385    4.4339 C   0  0  0  0  0  0  0  0  0  0  0  0
    0.7692   -2.9179    5.6942 C   0  0  0  0  0  0  0  0  0  0  0  0
    1.5396   -2.5896    6.8147 C   0  0  0  0  0  0  0  0  0  0  0  0
    2.6987   -1.9330    6.7340 N   0  0  0  0  0  0  0  0  0  0  0  0
    3.1302   -1.5763    5.5232 C   0  0  0  0  0  0  0  0  0  0  0  0
    2.8363    0.3688   -1.2412 C   0  0  2  0  0  0  0  0  0  0  0  0
    1.9105    0.1290   -2.4404 C   0  0  0  0  0  0  0  0  0  0  0  0
    2.4896    0.7251   -3.7232 C   0  0  0  0  0  0  0  0  0  0  0  0
    3.8990    0.3778   -3.8673 N   0  0  0  0  0  0  0  0  0  0  0  0
    4.6904    0.5215   -4.9893 C   0  0  0  0  0  0  0  0  0  0  0  0
    5.9605    0.1688   -4.5896 C   0  0  0  0  0  0  0  0  0  0  0  0
    5.9682   -0.1780   -3.2624 N   0  0  0  0  0  0  0  0  0  0  0  0
    4.7237   -0.0414   -2.8538 C   0  0  0  0  0  0  0  0  0  0  0  0
    4.1911   -0.3353   -1.4837 C   0  0  0  0  0  0  0  0  0  0  0  0
    3.5341    0.9944    1.1394 H   0  0  0  0  0  0  0  0  0  0  0  0
    1.2123   -0.2271    2.4665 H   0  0  0  0  0  0  0  0  0  0  0  0
    2.4876    0.7372    3.2409 H   0  0  0  0  0  0  0  0  0  0  0  0
    4.0646   -1.2208    3.0522 H   0  0  0  0  0  0  0  0  0  0  0  0
    2.7959   -2.1467    2.2251 H   0  0  0  0  0  0  0  0  0  0  0  0
    0.6577   -2.7823    3.5343 H   0  0  0  0  0  0  0  0  0  0  0  0
   -0.1709   -3.4627    5.8099 H   0  0  0  0  0  0  0  0  0  0  0  0
    1.2042   -2.8734    7.8196 H   0  0  0  0  0  0  0  0  0  0  0  0
    4.0907   -1.0448    5.4870 H   0  0  0  0  0  0  0  0  0  0  0  0
    3.0203    1.4548   -1.1404 H   0  0  0  0  0  0  0  0  0  0  0  0
    0.9175    0.5649   -2.2555 H   0  0  0  0  0  0  0  0  0  0  0  0
    1.7535   -0.9555   -2.5517 H   0  0  0  0  0  0  0  0  0  0  0  0
    2.3898    1.8258   -3.7134 H   0  0  0  0  0  0  0  0  0  0  0  0
    1.9386    0.3577   -4.6034 H   0  0  0  0  0  0  0  0  0  0  0  0
    4.2859    0.8558   -5.9419 H   0  0  0  0  0  0  0  0  0  0  0  0
    6.8671    0.1468   -5.1938 H   0  0  0  0  0  0  0  0  0  0  0  0
    4.9490   -0.0416   -0.7417 H   0  0  0  0  0  0  0  0  0  0  0  0
    4.0505   -1.4259   -1.3677 H   0  0  0  0  0  0  0  0  0  0  0  0
  1  2  2  0
  2  3  1  0
  2 12  1  0
  3  4  1  0
  3 21  1  0
  4  5  1  0
  4 22  1  0
  4 23  1  0
  5  6  1  0
  5 24  1  0
  5 25  1  0
  6  7  2  0
  6 11  1  0
  7  8  1  0
  7 26  1  0
  8  9  2  0
  8 27  1  0
  9 10  1  0
  9 28  1  0
 10 11  2  0
 11 29  1  0
 12 13  1  0
 12 20  1  0
 12 30  1  1
 13 14  1  0
 13 31  1  0
 13 32  1  0
 14 15  1  0
 14 33  1  0
 14 34  1  0
 15 16  1  0
 15 19  1  0
 16 17  2  0
 16 35  1  0
 17 18  1  0
 17 36  1  0
 18 19  2  0
 19 20  1  0
 20 37  1  0
 20 38  1  0
M  END

