
     RDKit          3D

 56 62  0  0  0  0  0  0  0  0999 V2000
    1.1316   -0.0454    0.1031 C   0  0  0  0  0  0  0  0  0  0  0  0
    2.6333    0.0090    0.0082 C   0  0  0  0  0  0  0  0  0  0  0  0
    3.2995    1.1850   -0.3369 C   0  0  0  0  0  0  0  0  0  0  0  0
    4.7002    1.2759   -0.4193 C   0  0  0  0  0  0  0  0  0  0  0  0
    5.2766    2.5185   -0.7684 N   0  0  0  0  0  0  0  0  0  0  0  0
    4.9639    3.2520   -1.9236 C   0  0  0  0  0  0  0  0  0  0  0  0
    4.1485    2.9047   -3.0078 C   0  0  0  0  0  0  0  0  0  0  0  0
    4.0315    3.8195   -4.0567 C   0  0  0  0  0  0  0  0  0  0  0  0
    4.7118    5.0503   -4.0338 C   0  0  0  0  0  0  0  0  0  0  0  0
    5.5295    5.3876   -2.9555 C   0  0  0  0  0  0  0  0  0  0  0  0
    5.6619    4.4875   -1.8891 C   0  0  0  0  0  0  0  0  0  0  0  0
    6.4102    4.5132   -0.6468 C   0  0  0  0  0  0  0  0  0  0  0  0
    7.2449    5.4656   -0.0454 C   0  0  0  0  0  0  0  0  0  0  0  0
    7.7893    5.1948    1.2091 C   0  0  0  0  0  0  0  0  0  0  0  0
    7.4969    3.9873    1.8689 C   0  0  0  0  0  0  0  0  0  0  0  0
    6.6701    3.0230    1.2902 C   0  0  0  0  0  0  0  0  0  0  0  0
    6.1441    3.2899    0.0223 C   0  0  0  0  0  0  0  0  0  0  0  0
    5.4820    0.1234   -0.1570 C   0  0  0  0  0  0  0  0  0  0  0  0
    6.8949    0.1212   -0.2412 N   0  0  0  0  0  0  0  0  0  0  0  0
    7.6611    0.3501   -1.3945 C   0  0  0  0  0  0  0  0  0  0  0  0
    7.2473    0.6757   -2.6901 C   0  0  0  0  0  0  0  0  0  0  0  0
    8.2304    0.8283   -3.6692 C   0  0  0  0  0  0  0  0  0  0  0  0
    9.5945    0.6551   -3.3723 C   0  0  0  0  0  0  0  0  0  0  0  0
   10.0007    0.3119   -2.0836 C   0  0  0  0  0  0  0  0  0  0  0  0
    9.0319    0.1508   -1.0829 C   0  0  0  0  0  0  0  0  0  0  0  0
    9.0961   -0.2317    0.3147 C   0  0  0  0  0  0  0  0  0  0  0  0
   10.1500   -0.5508    1.1823 C   0  0  0  0  0  0  0  0  0  0  0  0
    9.8648   -0.8865    2.5056 C   0  0  0  0  0  0  0  0  0  0  0  0
    8.5368   -0.9019    2.9687 C   0  0  0  0  0  0  0  0  0  0  0  0
    7.4693   -0.5858    2.1253 C   0  0  0  0  0  0  0  0  0  0  0  0
    7.7608   -0.2544    0.7964 C   0  0  0  0  0  0  0  0  0  0  0  0
    4.8253   -1.0635    0.1923 C   0  0  0  0  0  0  0  0  0  0  0  0
    3.4284   -1.1313    0.2831 C   0  0  0  0  0  0  0  0  0  0  0  0
    2.8053   -2.3737    0.6446 C   0  0  0  0  0  0  0  0  0  0  0  0
    2.2905   -3.3728    0.9377 N   0  0  0  0  0  0  0  0  0  0  0  0
    0.6816    0.9300   -0.1277 H   0  0  0  0  0  0  0  0  0  0  0  0
    0.8064   -0.3463    1.1122 H   0  0  0  0  0  0  0  0  0  0  0  0
    0.7163   -0.7912   -0.5942 H   0  0  0  0  0  0  0  0  0  0  0  0
    2.7190    2.0890   -0.5304 H   0  0  0  0  0  0  0  0  0  0  0  0
    3.6187    1.9512   -3.0412 H   0  0  0  0  0  0  0  0  0  0  0  0
    3.3984    3.5696   -4.9118 H   0  0  0  0  0  0  0  0  0  0  0  0
    4.5994    5.7446   -4.8697 H   0  0  0  0  0  0  0  0  0  0  0  0
    6.0631    6.3412   -2.9418 H   0  0  0  0  0  0  0  0  0  0  0  0
    7.4590    6.4103   -0.5514 H   0  0  0  0  0  0  0  0  0  0  0  0
    8.4425    5.9274    1.6888 H   0  0  0  0  0  0  0  0  0  0  0  0
    7.9242    3.7950    2.8561 H   0  0  0  0  0  0  0  0  0  0  0  0
    6.4485    2.0968    1.8194 H   0  0  0  0  0  0  0  0  0  0  0  0
    6.1945    0.8073   -2.9388 H   0  0  0  0  0  0  0  0  0  0  0  0
    7.9289    1.0886   -4.6868 H   0  0  0  0  0  0  0  0  0  0  0  0
   10.3391    0.7847   -4.1613 H   0  0  0  0  0  0  0  0  0  0  0  0
   11.0592    0.1632   -1.8564 H   0  0  0  0  0  0  0  0  0  0  0  0
   11.1826   -0.5358    0.8247 H   0  0  0  0  0  0  0  0  0  0  0  0
   10.6777   -1.1397    3.1901 H   0  0  0  0  0  0  0  0  0  0  0  0
    8.3319   -1.1667    4.0090 H   0  0  0  0  0  0  0  0  0  0  0  0
    6.4437   -0.6004    2.4987 H   0  0  0  0  0  0  0  0  0  0  0  0
    5.4214   -1.9575    0.3792 H   0  0  0  0  0  0  0  0  0  0  0  0
  1  2  1  0
  1 36  1  0
  1 37  1  0
  1 38  1  0
  2  3  2  0
  2 33  1  0
  3  4  1  0
  3 39  1  0
  4  5  1  0
  4 18  2  0
  5  6  1  0
  5 17  1  0
  6  7  2  0
  6 11  1  0
  7  8  1  0
  7 40  1  0
  8  9  2  0
  8 41  1  0
  9 10  1  0
  9 42  1  0
 10 11  2  0
 10 43  1  0
 11 12  1  0
 12 13  1  0
 12 17  2  0
 13 14  2  0
 13 44  1  0
 14 15  1  0
 14 45  1  0
 15 16  2  0
 15 46  1  0
 16 17  1  0
 16 47  1  0
 18 19  1  0
 18 32  1  0
 19 20  1  0
 19 31  1  0
 20 21  2  0
 20 25  1  0
 21 22  1  0
 21 48  1  0
 22 23  2  0
 22 49  1  0
 23 24  1  0
 23 50  1  0
 24 25  2  0
 24 51  1  0
 25 26  1  0
 26 27  1  0
 26 31  2  0
 27 28  2  0
 27 52  1  0
 28 29  1  0
 28 53  1  0
 29 30  2  0
 29 54  1  0
 30 31  1  0
 30 55  1  0
 32 33  2  0
 32 56  1  0
 33 34  1  0
 34 35  3  0
M  END

