
     RDKit          3D

 41 43  0  0  0  0  0  0  0  0999 V2000
    2.7637   -1.6370    1.6288 C   0  0  0  0  0  0  0  0  0  0  0  0
    3.1249   -1.6030    0.1508 C   0  0  1  0  0  0  0  0  0  0  0  0
    1.9179   -1.7281   -0.7720 C   0  0  0  0  0  0  0  0  0  0  0  0
    3.7838   -0.3331   -0.0678 O   0  0  0  0  0  0  0  0  0  0  0  0
    4.6763   -0.2010   -1.0593 C   0  0  0  0  0  0  0  0  0  0  0  0
    5.2895    1.0493   -1.2047 C   0  0  0  0  0  0  0  0  0  0  0  0
    6.2278    1.1796   -2.2505 C   0  0  0  0  0  0  0  0  0  0  0  0
    6.8752    2.3572   -2.5212 N   0  0  0  0  0  0  0  0  0  0  0  0
    7.9988    2.4068   -3.4531 C   0  0  0  0  0  0  0  0  0  0  0  0
    7.8677    3.6140   -4.3766 C   0  0  0  0  0  0  0  0  0  0  0  0
    7.7067    4.8845   -3.5750 C   0  0  0  0  0  0  0  0  0  0  0  0
    8.1248    6.1344   -4.0582 C   0  0  0  0  0  0  0  0  0  0  0  0
    7.9846    7.2970   -3.3081 C   0  0  0  0  0  0  0  0  0  0  0  0
    7.4163    7.2476   -2.0179 C   0  0  0  0  0  0  0  0  0  0  0  0
    7.3229    8.3916   -1.2351 N   0  0  0  0  0  0  0  0  0  0  0  0
    7.0012    5.9975   -1.5301 C   0  0  0  0  0  0  0  0  0  0  0  0
    7.1372    4.8300   -2.2926 C   0  0  0  0  0  0  0  0  0  0  0  0
    6.6240    3.5301   -1.6995 C   0  0  0  0  0  0  0  0  0  0  0  0
    6.5172    0.1125   -3.0358 N   0  0  0  0  0  0  0  0  0  0  0  0
    5.8733   -1.0146   -2.7903 C   0  0  0  0  0  0  0  0  0  0  0  0
    4.9548   -1.2417   -1.8482 N   0  0  0  0  0  0  0  0  0  0  0  0
    2.2719   -2.5896    1.8797 H   0  0  0  0  0  0  0  0  0  0  0  0
    2.0754   -0.8146    1.8817 H   0  0  0  0  0  0  0  0  0  0  0  0
    3.6642   -1.5359    2.2532 H   0  0  0  0  0  0  0  0  0  0  0  0
    3.8444   -2.4008   -0.0874 H   0  0  0  0  0  0  0  0  0  0  0  0
    1.2083   -0.9029   -0.5982 H   0  0  0  0  0  0  0  0  0  0  0  0
    1.3944   -2.6799   -0.5877 H   0  0  0  0  0  0  0  0  0  0  0  0
    2.2345   -1.7108   -1.8246 H   0  0  0  0  0  0  0  0  0  0  0  0
    5.0312    1.8473   -0.5133 H   0  0  0  0  0  0  0  0  0  0  0  0
    8.0012    1.4646   -4.0106 H   0  0  0  0  0  0  0  0  0  0  0  0
    8.9511    2.4719   -2.8897 H   0  0  0  0  0  0  0  0  0  0  0  0
    6.9999    3.4600   -5.0446 H   0  0  0  0  0  0  0  0  0  0  0  0
    8.7564    3.6818   -5.0256 H   0  0  0  0  0  0  0  0  0  0  0  0
    8.5766    6.1951   -5.0531 H   0  0  0  0  0  0  0  0  0  0  0  0
    8.3264    8.2543   -3.7117 H   0  0  0  0  0  0  0  0  0  0  0  0
    7.3275    9.2756   -1.7307 H   0  0  0  0  0  0  0  0  0  0  0  0
    6.6466    8.3676   -0.4807 H   0  0  0  0  0  0  0  0  0  0  0  0
    6.5635    5.9359   -0.5279 H   0  0  0  0  0  0  0  0  0  0  0  0
    5.5346    3.6314   -1.5558 H   0  0  0  0  0  0  0  0  0  0  0  0
    7.0526    3.4000   -0.6833 H   0  0  0  0  0  0  0  0  0  0  0  0
    6.1197   -1.8660   -3.4387 H   0  0  0  0  0  0  0  0  0  0  0  0
  1  2  1  0
  1 22  1  0
  1 23  1  0
  1 24  1  0
  2  3  1  0
  2  4  1  0
  2 25  1  1
  3 26  1  0
  3 27  1  0
  3 28  1  0
  4  5  1  0
  5  6  2  0
  5 21  1  0
  6  7  1  0
  6 29  1  0
  7  8  1  0
  7 19  2  0
  8  9  1  0
  8 18  1  0
  9 10  1  0
  9 30  1  0
  9 31  1  0
 10 11  1  0
 10 32  1  0
 10 33  1  0
 11 12  2  0
 11 17  1  0
 12 13  1  0
 12 34  1  0
 13 14  2  0
 13 35  1  0
 14 15  1  0
 14 16  1  0
 15 36  1  0
 15 37  1  0
 16 17  2  0
 16 38  1  0
 17 18  1  0
 18 39  1  0
 18 40  1  0
 19 20  1  0
 20 21  2  0
 20 41  1  0
M  END

