
     RDKit          3D

 43 45  0  0  0  0  0  0  0  0999 V2000
    6.6844   -1.9298   -0.0552 C   0  0  0  0  0  0  0  0  0  0  0  0
    5.4660   -1.0842    0.2970 C   0  0  0  0  0  0  0  0  0  0  0  0
    5.7835    0.3347    0.2889 N   0  0  0  0  0  0  0  0  0  0  0  0
    4.6715    1.2099    0.6123 C   0  0  0  0  0  0  0  0  0  0  0  0
    5.0765    2.6679    0.6595 C   0  0  0  0  0  0  0  0  0  0  0  0
    4.2164    3.6889    0.2408 C   0  0  0  0  0  0  0  0  0  0  0  0
    4.6177    5.0224    0.3392 C   0  0  0  0  0  0  0  0  0  0  0  0
    5.8887    5.2962    0.8553 C   0  0  0  0  0  0  0  0  0  0  0  0
    6.4279    6.7007    1.0056 C   0  0  0  0  0  0  0  0  0  0  0  0
    5.4711    7.6399    0.5716 O   0  0  0  0  0  0  0  0  0  0  0  0
    5.7604    8.9705    0.6208 C   0  0  0  0  0  0  0  0  0  0  0  0
    6.9766    9.4950    1.0883 C   0  0  0  0  0  0  0  0  0  0  0  0
    7.1794   10.8833    1.1052 C   0  0  0  0  0  0  0  0  0  0  0  0
    6.1768   11.7422    0.6638 C   0  0  0  0  0  0  0  0  0  0  0  0
    4.9604   11.2089    0.1970 C   0  0  0  0  0  0  0  0  0  0  0  0
    4.7457    9.8356    0.1704 C   0  0  0  0  0  0  0  0  0  0  0  0
    4.0381   12.3245   -0.2482 C   0  0  0  0  0  0  0  0  0  0  0  0
    4.6565   13.5782    0.4157 C   0  0  0  0  0  0  0  0  0  0  0  0
    6.1624   13.2535    0.5669 C   0  0  0  0  0  0  0  0  0  0  0  0
    6.7265    4.3311    1.2515 N   0  0  0  0  0  0  0  0  0  0  0  0
    6.3311    3.0623    1.1559 C   0  0  0  0  0  0  0  0  0  0  0  0
    6.4464   -3.0039   -0.0092 H   0  0  0  0  0  0  0  0  0  0  0  0
    7.5140   -1.7235    0.6387 H   0  0  0  0  0  0  0  0  0  0  0  0
    7.0382   -1.7131   -1.0778 H   0  0  0  0  0  0  0  0  0  0  0  0
    5.1134   -1.3470    1.3109 H   0  0  0  0  0  0  0  0  0  0  0  0
    4.6247   -1.3395   -0.3891 H   0  0  0  0  0  0  0  0  0  0  0  0
    6.1837    0.6014   -0.6113 H   0  0  0  0  0  0  0  0  0  0  0  0
    4.2906    0.9096    1.6076 H   0  0  0  0  0  0  0  0  0  0  0  0
    3.8033    1.0997   -0.0779 H   0  0  0  0  0  0  0  0  0  0  0  0
    3.2305    3.4420   -0.1658 H   0  0  0  0  0  0  0  0  0  0  0  0
    3.9719    5.8405    0.0212 H   0  0  0  0  0  0  0  0  0  0  0  0
    7.3644    6.7862    0.4218 H   0  0  0  0  0  0  0  0  0  0  0  0
    6.6973    6.8653    2.0664 H   0  0  0  0  0  0  0  0  0  0  0  0
    7.7681    8.8367    1.4460 H   0  0  0  0  0  0  0  0  0  0  0  0
    8.1307   11.2781    1.4738 H   0  0  0  0  0  0  0  0  0  0  0  0
    3.8079    9.4019   -0.1846 H   0  0  0  0  0  0  0  0  0  0  0  0
    2.9861   12.1593    0.0349 H   0  0  0  0  0  0  0  0  0  0  0  0
    4.0582   12.4108   -1.3511 H   0  0  0  0  0  0  0  0  0  0  0  0
    4.2133   13.7121    1.4167 H   0  0  0  0  0  0  0  0  0  0  0  0
    4.4685   14.5030   -0.1507 H   0  0  0  0  0  0  0  0  0  0  0  0
    6.6233   13.7521    1.4349 H   0  0  0  0  0  0  0  0  0  0  0  0
    6.7278   13.5863   -0.3243 H   0  0  0  0  0  0  0  0  0  0  0  0
    7.0408    2.2929    1.4779 H   0  0  0  0  0  0  0  0  0  0  0  0
  1  2  1  0
  1 22  1  0
  1 23  1  0
  1 24  1  0
  2  3  1  0
  2 25  1  0
  2 26  1  0
  3  4  1  0
  3 27  1  0
  4  5  1  0
  4 28  1  0
  4 29  1  0
  5  6  2  0
  5 21  1  0
  6  7  1  0
  6 30  1  0
  7  8  2  0
  7 31  1  0
  8  9  1  0
  8 20  1  0
  9 10  1  0
  9 32  1  0
  9 33  1  0
 10 11  1  0
 11 12  2  0
 11 16  1  0
 12 13  1  0
 12 34  1  0
 13 14  2  0
 13 35  1  0
 14 15  1  0
 14 19  1  0
 15 16  2  0
 15 17  1  0
 16 36  1  0
 17 18  1  0
 17 37  1  0
 17 38  1  0
 18 19  1  0
 18 39  1  0
 18 40  1  0
 19 41  1  0
 19 42  1  0
 20 21  2  0
 21 43  1  0
M  END

