
     RDKit          3D

 61 68  0  0  0  0  0  0  0  0999 V2000
    1.4426    0.7422    0.7151 C   0  0  0  0  0  0  0  0  0  0  0  0
    1.7494    0.4076    1.9865 C   0  0  0  0  0  0  0  0  0  0  0  0
    0.4914   -0.3320    2.9971 S   0  0  0  0  0  0  0  0  0  0  0  0
   -0.9063    0.4529    2.3580 N   0  0  0  0  0  0  0  0  0  0  0  0
   -1.0051    0.5315    0.9590 C   0  0  0  0  0  0  0  0  0  0  0  0
   -2.4020    0.5708    0.3196 C   0  0  1  0  0  0  0  0  0  0  0  0
   -3.4153   -0.3351    0.9841 C   0  0  0  0  0  0  0  0  0  0  0  0
   -3.5623   -1.6710    0.4262 C   0  0  0  0  0  0  0  0  0  0  0  0
   -3.8737   -2.9229    0.9130 C   0  0  0  0  0  0  0  0  0  0  0  0
   -3.7709   -3.8324   -0.1850 C   0  0  0  0  0  0  0  0  0  0  0  0
   -3.3909   -3.0858   -1.2637 C   0  0  0  0  0  0  0  0  0  0  0  0
   -3.2571   -1.7866   -0.9115 O   0  0  0  0  0  0  0  0  0  0  0  0
   -4.1196    0.2439    1.9951 C   0  0  0  0  0  0  0  0  0  0  0  0
   -5.2719   -0.3639    2.6858 C   0  0  0  0  0  0  0  0  0  0  0  0
   -6.4425    0.3169    2.8781 N   0  0  0  0  0  0  0  0  0  0  0  0
   -7.2523   -0.4891    3.4902 N   0  0  0  0  0  0  0  0  0  0  0  0
   -6.5782   -1.6164    3.6584 N   0  0  0  0  0  0  0  0  0  0  0  0
   -6.9801   -2.4271    4.1203 H   0  0  0  0  0  0  0  0  0  0  0  0
   -5.3447   -1.5950    3.1851 N   0  0  0  0  0  0  0  0  0  0  0  0
   -3.8183    1.5713    2.3785 N   0  0  0  0  0  0  0  0  0  0  0  0
   -4.0321    1.9263    3.7219 C   0  0  0  0  0  0  0  0  0  0  0  0
   -4.6432    3.0613    4.3132 C   0  0  0  0  0  0  0  0  0  0  0  0
   -4.6187    2.9046    5.6338 N   0  0  0  0  0  0  0  0  0  0  0  0
   -4.0447    1.7269    5.7979 N   0  0  0  0  0  0  0  0  0  0  0  0
   -3.8971    1.3256    6.7166 H   0  0  0  0  0  0  0  0  0  0  0  0
   -3.6625    1.0960    4.6984 N   0  0  0  0  0  0  0  0  0  0  0  0
   -3.4964    2.6253    1.3805 C   0  0  2  0  0  0  0  0  0  0  0  0
   -2.3862    3.5233    1.9350 C   0  0  0  0  0  0  0  0  0  0  0  0
   -1.6333    3.2863    2.9928 N   0  0  0  0  0  0  0  0  0  0  0  0
   -0.7086    4.2983    3.0289 C   0  0  0  0  0  0  0  0  0  0  0  0
   -0.9018    5.1511    1.9635 C   0  0  0  0  0  0  0  0  0  0  0  0
   -1.9804    4.6475    1.2806 N   0  0  0  0  0  0  0  0  0  0  0  0
   -2.3150    4.8590    0.3301 H   0  0  0  0  0  0  0  0  0  0  0  0
   -4.7792    3.3916    1.0194 C   0  0  0  0  0  0  0  0  0  0  0  0
   -5.9100    2.8270    0.4781 C   0  0  0  0  0  0  0  0  0  0  0  0
   -6.9829    3.7509    0.3165 C   0  0  0  0  0  0  0  0  0  0  0  0
   -6.6591    5.0129    0.7446 C   0  0  0  0  0  0  0  0  0  0  0  0
   -5.0399    5.0889    1.3410 S   0  0  0  0  0  0  0  0  0  0  0  0
   -2.9891    1.9230    0.1681 N   0  0  0  0  0  0  0  0  0  0  0  0
   -2.9093    2.5716   -1.0391 C   0  0  0  0  0  0  0  0  0  0  0  0
   -2.9357    3.8706   -1.2153 N   0  0  0  0  0  0  0  0  0  0  0  0
   -2.9335    4.2119   -2.5463 C   0  0  0  0  0  0  0  0  0  0  0  0
   -2.8703    3.1786   -3.4310 C   0  0  0  0  0  0  0  0  0  0  0  0
   -2.8555    1.6656   -2.5702 S   0  0  0  0  0  0  0  0  0  0  0  0
    0.1009    0.5820    0.1671 C   0  0  0  0  0  0  0  0  0  0  0  0
    2.2109    1.1843    0.0731 H   0  0  0  0  0  0  0  0  0  0  0  0
    2.7404    0.5595    2.4250 H   0  0  0  0  0  0  0  0  0  0  0  0
   -1.1961    1.3000    2.8694 H   0  0  0  0  0  0  0  0  0  0  0  0
   -2.2527    0.2022   -0.6989 H   0  0  0  0  0  0  0  0  0  0  0  0
   -4.1198   -3.1494    1.9439 H   0  0  0  0  0  0  0  0  0  0  0  0
   -3.9413   -4.9069   -0.1681 H   0  0  0  0  0  0  0  0  0  0  0  0
   -3.1774   -3.3253   -2.3023 H   0  0  0  0  0  0  0  0  0  0  0  0
   -5.0697    3.9470    3.8551 H   0  0  0  0  0  0  0  0  0  0  0  0
    0.0430    4.3583    3.8141 H   0  0  0  0  0  0  0  0  0  0  0  0
   -0.3800    6.0498    1.6450 H   0  0  0  0  0  0  0  0  0  0  0  0
   -5.9765    1.7718    0.2140 H   0  0  0  0  0  0  0  0  0  0  0  0
   -7.9580    3.4845   -0.0938 H   0  0  0  0  0  0  0  0  0  0  0  0
   -7.2802    5.9077    0.7454 H   0  0  0  0  0  0  0  0  0  0  0  0
   -2.9533    5.2671   -2.8244 H   0  0  0  0  0  0  0  0  0  0  0  0
   -2.8051    3.2100   -4.5165 H   0  0  0  0  0  0  0  0  0  0  0  0
   -0.0206    0.5779   -0.9187 H   0  0  0  0  0  0  0  0  0  0  0  0
  1  2  2  0
  1 45  1  0
  1 46  1  0
  2  3  1  0
  2 47  1  0
  3  4  1  0
  4  5  1  0
  4 48  1  0
  5  6  1  0
  5 45  2  0
  6  7  1  0
  6 39  1  0
  6 49  1  6
  7  8  1  0
  7 13  2  0
  8  9  2  0
  8 12  1  0
  9 10  1  0
  9 50  1  0
 10 11  2  0
 10 51  1  0
 11 12  1  0
 11 52  1  0
 13 14  1  0
 13 20  1  0
 14 15  1  0
 14 19  2  0
 15 16  2  0
 16 17  1  0
 17 18  1  0
 17 19  1  0
 20 21  1  0
 20 27  1  0
 21 22  1  0
 21 26  2  0
 22 23  2  0
 22 53  1  0
 23 24  1  0
 24 25  1  0
 24 26  1  0
 27 28  1  1
 27 34  1  0
 27 39  1  0
 28 29  2  0
 28 32  1  0
 29 30  1  0
 30 31  2  0
 30 54  1  0
 31 32  1  0
 31 55  1  0
 32 33  1  0
 34 35  2  0
 34 38  1  0
 35 36  1  0
 35 56  1  0
 36 37  2  0
 36 57  1  0
 37 38  1  0
 37 58  1  0
 39 40  1  0
 40 41  2  0
 40 44  1  0
 41 42  1  0
 42 43  2  0
 42 59  1  0
 43 44  1  0
 43 60  1  0
 45 61  1  0
M  END

