
     RDKit          3D

 28 30  0  0  0  0  0  0  0  0999 V2000
   -1.2656    0.0510    0.6681 C   0  0  0  0  0  0  0  0  0  0  0  0
   -0.4554    1.1719    0.8958 C   0  0  0  0  0  0  0  0  0  0  0  0
    0.9157    1.1140    0.6614 C   0  0  0  0  0  0  0  0  0  0  0  0
    1.4994   -0.0753    0.1919 C   0  0  0  0  0  0  0  0  0  0  0  0
    2.8456   -0.0365   -0.0128 O   0  0  0  0  0  0  0  0  0  0  0  0
    3.5136   -1.2069   -0.4404 C   0  0  0  0  0  0  0  0  0  0  0  0
    4.9851   -0.8864   -0.5008 C   0  0  0  0  0  0  0  0  0  0  0  0
    5.6214   -0.8466    0.7164 N   0  0  0  0  0  0  0  0  0  0  0  0
    6.8747   -0.5427    0.7768 N   0  0  0  0  0  0  0  0  0  0  0  0
    7.5395   -0.2724   -0.3863 C   0  0  0  0  0  0  0  0  0  0  0  0
    8.9145    0.0698   -0.3799 C   0  0  0  0  0  0  0  0  0  0  0  0
    9.5224    0.3141   -1.5932 C   0  0  0  0  0  0  0  0  0  0  0  0
    8.8805    0.2441   -2.7928 N   0  0  0  0  0  0  0  0  0  0  0  0
    7.6076   -0.0710   -2.8178 C   0  0  0  0  0  0  0  0  0  0  0  0
    6.8613   -0.3439   -1.6309 C   0  0  0  0  0  0  0  0  0  0  0  0
    5.5466   -0.6591   -1.6677 N   0  0  0  0  0  0  0  0  0  0  0  0
    0.6962   -1.2013   -0.0401 C   0  0  0  0  0  0  0  0  0  0  0  0
   -0.6819   -1.1267    0.2018 C   0  0  0  0  0  0  0  0  0  0  0  0
   -2.3409    0.0993    0.8537 H   0  0  0  0  0  0  0  0  0  0  0  0
   -0.8980    2.1021    1.2619 H   0  0  0  0  0  0  0  0  0  0  0  0
    1.5631    1.9759    0.8351 H   0  0  0  0  0  0  0  0  0  0  0  0
    3.1742   -1.5184   -1.4426 H   0  0  0  0  0  0  0  0  0  0  0  0
    3.3529   -2.0316    0.2767 H   0  0  0  0  0  0  0  0  0  0  0  0
    9.4499    0.1291    0.5696 H   0  0  0  0  0  0  0  0  0  0  0  0
   10.5829    0.5824   -1.6385 H   0  0  0  0  0  0  0  0  0  0  0  0
    7.0919   -0.1253   -3.7842 H   0  0  0  0  0  0  0  0  0  0  0  0
    1.1248   -2.1340   -0.4075 H   0  0  0  0  0  0  0  0  0  0  0  0
   -1.3007   -2.0091    0.0186 H   0  0  0  0  0  0  0  0  0  0  0  0
  1  2  2  0
  1 18  1  0
  1 19  1  0
  2  3  1  0
  2 20  1  0
  3  4  2  0
  3 21  1  0
  4  5  1  0
  4 17  1  0
  5  6  1  0
  6  7  1  0
  6 22  1  0
  6 23  1  0
  7  8  2  0
  7 16  1  0
  8  9  1  0
  9 10  2  0
 10 11  1  0
 10 15  1  0
 11 12  2  0
 11 24  1  0
 12 13  1  0
 12 25  1  0
 13 14  2  0
 14 15  1  0
 14 26  1  0
 15 16  2  0
 17 18  2  0
 17 27  1  0
 18 28  1  0
M  END

