
     RDKit          3D

 52 58  0  0  0  0  0  0  0  0999 V2000
    2.3558    1.5759    2.4906 C   0  0  0  0  0  0  0  0  0  0  0  0
    3.2582    0.9951    1.4315 C   0  0  0  0  0  0  0  0  0  0  0  0
    3.2415    1.5088    0.1195 C   0  0  0  0  0  0  0  0  0  0  0  0
    4.0660    0.9818   -0.8673 C   0  0  0  0  0  0  0  0  0  0  0  0
    4.9416   -0.0813   -0.5754 C   0  0  0  0  0  0  0  0  0  0  0  0
    5.8097   -0.6142   -1.6726 C   0  0  0  0  0  0  0  0  0  0  0  0
    5.7557   -0.1582   -2.8000 O   0  0  0  0  0  0  0  0  0  0  0  0
    6.7627   -1.7538   -1.3563 C   0  0  0  0  0  0  0  0  0  0  0  0
    8.0561   -1.4818   -0.9296 C   0  0  0  0  0  0  0  0  0  0  0  0
    8.5325   -0.0599   -0.7362 C   0  0  0  0  0  0  0  0  0  0  0  0
    8.9528   -2.5702   -0.6697 C   0  0  0  0  0  0  0  0  0  0  0  0
   10.2984   -2.3402   -0.2233 C   0  0  0  0  0  0  0  0  0  0  0  0
   11.1528   -3.3745    0.0301 C   0  0  0  0  0  0  0  0  0  0  0  0
   10.7450   -4.7372   -0.1399 C   0  0  0  0  0  0  0  0  0  0  0  0
   11.6258   -5.8065    0.1215 C   0  0  0  0  0  0  0  0  0  0  0  0
   11.2049   -7.1171   -0.0531 C   0  0  0  0  0  0  0  0  0  0  0  0
    9.9034   -7.3895   -0.4907 C   0  0  0  0  0  0  0  0  0  0  0  0
    8.9877   -6.3632   -0.7651 C   0  0  0  0  0  0  0  0  0  0  0  0
    7.6184   -6.6315   -1.2276 C   0  0  0  0  0  0  0  0  0  0  0  0
    7.1301   -7.9311   -1.4269 C   0  0  0  0  0  0  0  0  0  0  0  0
    5.8231   -8.1648   -1.8702 C   0  0  0  0  0  0  0  0  0  0  0  0
    4.9682   -7.1019   -2.1266 C   0  0  0  0  0  0  0  0  0  0  0  0
    5.4084   -5.7756   -1.9417 C   0  0  0  0  0  0  0  0  0  0  0  0
    4.5481   -4.6585   -2.2014 C   0  0  0  0  0  0  0  0  0  0  0  0
    4.9763   -3.3754   -2.0204 C   0  0  0  0  0  0  0  0  0  0  0  0
    6.3075   -3.0928   -1.5602 C   0  0  0  0  0  0  0  0  0  0  0  0
    7.1872   -4.1774   -1.2993 C   0  0  0  0  0  0  0  0  0  0  0  0
    6.7437   -5.5304   -1.4877 C   0  0  0  0  0  0  0  0  0  0  0  0
    8.5193   -3.9134   -0.8505 C   0  0  0  0  0  0  0  0  0  0  0  0
    9.4123   -5.0083   -0.5865 C   0  0  0  0  0  0  0  0  0  0  0  0
    4.9639   -0.5988    0.7288 C   0  0  0  0  0  0  0  0  0  0  0  0
    4.1317   -0.0650    1.7156 C   0  0  0  0  0  0  0  0  0  0  0  0
    2.5468    2.6533    2.6284 H   0  0  0  0  0  0  0  0  0  0  0  0
    2.4953    1.0799    3.4620 H   0  0  0  0  0  0  0  0  0  0  0  0
    1.2946    1.4740    2.2072 H   0  0  0  0  0  0  0  0  0  0  0  0
    2.5676    2.3358   -0.1238 H   0  0  0  0  0  0  0  0  0  0  0  0
    4.0556    1.3763   -1.8855 H   0  0  0  0  0  0  0  0  0  0  0  0
    7.7542    0.6755   -0.9744 H   0  0  0  0  0  0  0  0  0  0  0  0
    9.3952    0.1617   -1.3855 H   0  0  0  0  0  0  0  0  0  0  0  0
    8.8551    0.1214    0.3024 H   0  0  0  0  0  0  0  0  0  0  0  0
   10.6473   -1.3170   -0.0833 H   0  0  0  0  0  0  0  0  0  0  0  0
   12.1729   -3.1752    0.3695 H   0  0  0  0  0  0  0  0  0  0  0  0
   12.6415   -5.5886    0.4619 H   0  0  0  0  0  0  0  0  0  0  0  0
   11.8886   -7.9451    0.1496 H   0  0  0  0  0  0  0  0  0  0  0  0
    9.6088   -8.4313   -0.6175 H   0  0  0  0  0  0  0  0  0  0  0  0
    7.7725   -8.7911   -1.2369 H   0  0  0  0  0  0  0  0  0  0  0  0
    5.4797   -9.1923   -2.0143 H   0  0  0  0  0  0  0  0  0  0  0  0
    3.9474   -7.2804   -2.4744 H   0  0  0  0  0  0  0  0  0  0  0  0
    3.5325   -4.8548   -2.5549 H   0  0  0  0  0  0  0  0  0  0  0  0
    4.3007   -2.5466   -2.2385 H   0  0  0  0  0  0  0  0  0  0  0  0
    5.6344   -1.4250    0.9746 H   0  0  0  0  0  0  0  0  0  0  0  0
    4.1610   -0.4810    2.7265 H   0  0  0  0  0  0  0  0  0  0  0  0
  1  2  1  0
  1 33  1  0
  1 34  1  0
  1 35  1  0
  2  3  2  0
  2 32  1  0
  3  4  1  0
  3 36  1  0
  4  5  2  0
  4 37  1  0
  5  6  1  0
  5 31  1  0
  6  7  2  0
  6  8  1  0
  8  9  2  0
  8 26  1  0
  9 10  1  0
  9 11  1  0
 10 38  1  0
 10 39  1  0
 10 40  1  0
 11 12  2  0
 11 29  1  0
 12 13  1  0
 12 41  1  0
 13 14  2  0
 13 42  1  0
 14 15  1  0
 14 30  1  0
 15 16  2  0
 15 43  1  0
 16 17  1  0
 16 44  1  0
 17 18  2  0
 17 45  1  0
 18 19  1  0
 18 30  1  0
 19 20  2  0
 19 28  1  0
 20 21  1  0
 20 46  1  0
 21 22  2  0
 21 47  1  0
 22 23  1  0
 22 48  1  0
 23 24  2  0
 23 28  1  0
 24 25  1  0
 24 49  1  0
 25 26  2  0
 25 50  1  0
 26 27  1  0
 27 28  2  0
 27 29  1  0
 29 30  2  0
 31 32  2  0
 31 51  1  0
 32 52  1  0
M  END

