
     RDKit          3D

 45 46  0  0  0  0  0  0  0  0999 V2000
    4.4811    3.1558    0.8323 C   0  0  0  0  0  0  0  0  0  0  0  0
    3.5137    2.6414    1.9129 C   0  0  1  0  0  0  0  0  0  0  0  0
    2.0763    3.1205    1.6435 C   0  0  0  0  0  0  0  0  0  0  0  0
    3.5850    1.1394    2.0610 C   0  0  0  0  0  0  0  0  0  0  0  0
    3.2872    0.1337    1.1042 C   0  0  0  0  0  0  0  0  0  0  0  0
    3.4658   -1.0907    1.5959 N   0  0  0  0  0  0  0  0  0  0  0  0
    3.8787   -0.9130    2.8601 N   0  0  0  0  0  0  0  0  0  0  0  0
    4.1641   -2.0419    3.7528 C   0  0  1  0  0  0  0  0  0  0  0  0
    2.8999   -2.8509    4.1146 C   0  0  0  0  0  0  0  0  0  0  0  0
    2.4815   -3.8513    3.0223 C   0  0  0  0  0  0  0  0  0  0  0  0
    3.5801   -4.7356    2.6050 N   0  0  0  0  0  0  0  0  0  0  0  0
    3.8732   -5.8314    3.5102 C   0  0  0  0  0  0  0  0  0  0  0  0
    2.5852   -7.1654    3.4136 P   0  0  1  0  0  0  0  0  0  0  0  0
    2.6479   -7.7320    1.6771 C   0  0  0  0  0  0  0  0  0  0  0  0
    3.2814   -8.5323    4.4169 C   0  0  0  0  0  0  0  0  0  0  0  0
    1.2153   -6.7340    3.8687 O   0  0  0  0  0  0  0  0  0  0  0  0
    4.7367   -3.9641    2.1485 C   0  0  0  0  0  0  0  0  0  0  0  0
    5.2657   -2.9710    3.2001 C   0  0  0  0  0  0  0  0  0  0  0  0
    3.9621    0.4098    3.1801 C   0  0  0  0  0  0  0  0  0  0  0  0
    4.4540    4.2562    0.7691 H   0  0  0  0  0  0  0  0  0  0  0  0
    4.2135    2.7581   -0.1608 H   0  0  0  0  0  0  0  0  0  0  0  0
    5.5174    2.8499    1.0448 H   0  0  0  0  0  0  0  0  0  0  0  0
    3.8327    3.0755    2.8774 H   0  0  0  0  0  0  0  0  0  0  0  0
    1.6979    2.7200    0.6882 H   0  0  0  0  0  0  0  0  0  0  0  0
    2.0305    4.2206    1.5858 H   0  0  0  0  0  0  0  0  0  0  0  0
    1.3892    2.7898    2.4378 H   0  0  0  0  0  0  0  0  0  0  0  0
    2.9495    0.2540    0.0743 H   0  0  0  0  0  0  0  0  0  0  0  0
    4.5434   -1.5620    4.6681 H   0  0  0  0  0  0  0  0  0  0  0  0
    2.0692   -2.1619    4.3371 H   0  0  0  0  0  0  0  0  0  0  0  0
    3.1119   -3.3940    5.0522 H   0  0  0  0  0  0  0  0  0  0  0  0
    2.1430   -3.2961    2.1344 H   0  0  0  0  0  0  0  0  0  0  0  0
    1.6450   -4.4705    3.3756 H   0  0  0  0  0  0  0  0  0  0  0  0
    3.9594   -5.5545    4.5859 H   0  0  0  0  0  0  0  0  0  0  0  0
    4.8370   -6.2875    3.2269 H   0  0  0  0  0  0  0  0  0  0  0  0
    2.4689   -6.8570    1.0358 H   0  0  0  0  0  0  0  0  0  0  0  0
    1.8467   -8.4688    1.5173 H   0  0  0  0  0  0  0  0  0  0  0  0
    3.6210   -8.1774    1.4190 H   0  0  0  0  0  0  0  0  0  0  0  0
    4.2746   -8.8528    4.0662 H   0  0  0  0  0  0  0  0  0  0  0  0
    2.5861   -9.3843    4.3730 H   0  0  0  0  0  0  0  0  0  0  0  0
    3.3496   -8.2031    5.4650 H   0  0  0  0  0  0  0  0  0  0  0  0
    4.4362   -3.4027    1.2514 H   0  0  0  0  0  0  0  0  0  0  0  0
    5.5393   -4.6592    1.8513 H   0  0  0  0  0  0  0  0  0  0  0  0
    6.0873   -2.3672    2.7813 H   0  0  0  0  0  0  0  0  0  0  0  0
    5.6856   -3.5299    4.0551 H   0  0  0  0  0  0  0  0  0  0  0  0
    4.2805    0.7373    4.1685 H   0  0  0  0  0  0  0  0  0  0  0  0
  1  2  1  0
  1 20  1  0
  1 21  1  0
  1 22  1  0
  2  3  1  0
  2  4  1  0
  2 23  1  1
  3 24  1  0
  3 25  1  0
  3 26  1  0
  4  5  1  0
  4 19  2  0
  5  6  2  0
  5 27  1  0
  6  7  1  0
  7  8  1  0
  7 19  1  0
  8  9  1  0
  8 18  1  0
  8 28  1  1
  9 10  1  0
  9 29  1  0
  9 30  1  0
 10 11  1  0
 10 31  1  0
 10 32  1  0
 11 12  1  0
 11 17  1  0
 13 12  1  6
 12 33  1  0
 12 34  1  0
 13 14  1  0
 13 15  1  0
 13 16  2  0
 14 35  1  0
 14 36  1  0
 14 37  1  0
 15 38  1  0
 15 39  1  0
 15 40  1  0
 17 18  1  0
 17 41  1  0
 17 42  1  0
 18 43  1  0
 18 44  1  0
 19 45  1  0
M  END

