
     RDKit          3D

 60 63  0  0  0  0  0  0  0  0999 V2000
    0.9056   -0.7756   -0.8078 C   0  0  0  0  0  0  0  0  0  0  0  0
   -0.0211   -2.2143   -0.3538 S   0  0  0  0  0  0  0  0  0  0  0  0
   -1.6562   -1.7447   -0.7967 C   0  0  0  0  0  0  0  0  0  0  0  0
   -2.7513   -2.3990   -0.3564 C   0  0  0  0  0  0  0  0  0  0  0  0
   -4.1438   -2.1273   -0.7232 C   0  0  0  0  0  0  0  0  0  0  0  0
   -5.1740   -2.8556   -0.0942 C   0  0  0  0  0  0  0  0  0  0  0  0
   -6.5155   -2.6309   -0.3932 C   0  0  0  0  0  0  0  0  0  0  0  0
   -6.9019   -1.6654   -1.3422 C   0  0  0  0  0  0  0  0  0  0  0  0
   -8.3287   -1.4243   -1.6650 C   0  0  0  0  0  0  0  0  0  0  0  0
   -9.3362   -1.5597   -0.6862 C   0  0  0  0  0  0  0  0  0  0  0  0
  -10.6754   -1.3319   -0.9819 C   0  0  0  0  0  0  0  0  0  0  0  0
  -11.0877   -0.9628   -2.2803 C   0  0  0  0  0  0  0  0  0  0  0  0
  -12.4843   -0.7278   -2.6567 C   0  0  0  0  0  0  0  0  0  0  0  0
  -13.5730   -0.9188   -1.8824 C   0  0  0  0  0  0  0  0  0  0  0  0
  -15.2003   -0.5083   -2.4064 S   0  0  0  0  0  0  0  0  0  0  0  0
  -16.1909   -1.4374   -1.2690 C   0  0  0  0  0  0  0  0  0  0  0  0
  -17.4830   -1.1603   -1.0353 C   0  0  0  0  0  0  0  0  0  0  0  0
  -18.2785   -0.0216   -1.6488 C   0  0  0  0  0  0  0  0  0  0  0  0
  -19.5927    0.0094   -0.8446 C   0  0  0  0  0  0  0  0  0  0  0  0
  -19.8087   -1.4604   -0.4474 C   0  0  0  0  0  0  0  0  0  0  0  0
  -18.3901   -1.9531   -0.1031 C   0  0  0  0  0  0  0  0  0  0  0  0
  -10.0798   -0.8219   -3.2558 C   0  0  0  0  0  0  0  0  0  0  0  0
   -8.7380   -1.0463   -2.9580 C   0  0  0  0  0  0  0  0  0  0  0  0
   -5.8712   -0.9396   -1.9763 C   0  0  0  0  0  0  0  0  0  0  0  0
   -4.5318   -1.1640   -1.6788 C   0  0  0  0  0  0  0  0  0  0  0  0
    2.2367   -0.7963   -0.9742 C   0  0  0  0  0  0  0  0  0  0  0  0
    3.0908    0.4093   -1.3239 C   0  0  0  0  0  0  0  0  0  0  0  0
    4.3385   -0.2114   -1.9775 C   0  0  0  0  0  0  0  0  0  0  0  0
    4.5552   -1.5015   -1.1677 C   0  0  0  0  0  0  0  0  0  0  0  0
    3.1278   -2.0264   -0.8964 C   0  0  0  0  0  0  0  0  0  0  0  0
    0.3299    0.1504   -0.9035 H   0  0  0  0  0  0  0  0  0  0  0  0
   -1.7269   -0.9019   -1.4908 H   0  0  0  0  0  0  0  0  0  0  0  0
   -2.6095   -3.2223    0.3533 H   0  0  0  0  0  0  0  0  0  0  0  0
   -4.9107   -3.6200    0.6423 H   0  0  0  0  0  0  0  0  0  0  0  0
   -7.2777   -3.2371    0.1016 H   0  0  0  0  0  0  0  0  0  0  0  0
   -9.0583   -1.8179    0.3382 H   0  0  0  0  0  0  0  0  0  0  0  0
  -11.4127   -1.4261   -0.1813 H   0  0  0  0  0  0  0  0  0  0  0  0
  -12.6363   -0.3627   -3.6790 H   0  0  0  0  0  0  0  0  0  0  0  0
  -13.4950   -1.3035   -0.8610 H   0  0  0  0  0  0  0  0  0  0  0  0
  -15.6953   -2.2938   -0.8010 H   0  0  0  0  0  0  0  0  0  0  0  0
  -18.4862   -0.2413   -2.7132 H   0  0  0  0  0  0  0  0  0  0  0  0
  -17.7215    0.9305   -1.6345 H   0  0  0  0  0  0  0  0  0  0  0  0
  -20.4349    0.4375   -1.4095 H   0  0  0  0  0  0  0  0  0  0  0  0
  -19.4622    0.6245    0.0628 H   0  0  0  0  0  0  0  0  0  0  0  0
  -20.2019   -2.0250   -1.3109 H   0  0  0  0  0  0  0  0  0  0  0  0
  -20.5234   -1.5893    0.3801 H   0  0  0  0  0  0  0  0  0  0  0  0
  -18.2662   -3.0427   -0.2043 H   0  0  0  0  0  0  0  0  0  0  0  0
  -18.1517   -1.7015    0.9474 H   0  0  0  0  0  0  0  0  0  0  0  0
  -10.3622   -0.5415   -4.2746 H   0  0  0  0  0  0  0  0  0  0  0  0
   -7.9956   -0.9520   -3.7537 H   0  0  0  0  0  0  0  0  0  0  0  0
   -6.1279   -0.1662   -2.7038 H   0  0  0  0  0  0  0  0  0  0  0  0
   -3.7734   -0.5747   -2.1995 H   0  0  0  0  0  0  0  0  0  0  0  0
    3.3866    0.9403   -0.3987 H   0  0  0  0  0  0  0  0  0  0  0  0
    2.5666    1.1405   -1.9589 H   0  0  0  0  0  0  0  0  0  0  0  0
    5.2119    0.4591   -1.9699 H   0  0  0  0  0  0  0  0  0  0  0  0
    4.1224   -0.4600   -3.0313 H   0  0  0  0  0  0  0  0  0  0  0  0
    5.0518   -1.2573   -0.2128 H   0  0  0  0  0  0  0  0  0  0  0  0
    5.1920   -2.2368   -1.6829 H   0  0  0  0  0  0  0  0  0  0  0  0
    3.0452   -2.5489    0.0716 H   0  0  0  0  0  0  0  0  0  0  0  0
    2.8105   -2.7567   -1.6639 H   0  0  0  0  0  0  0  0  0  0  0  0
  1  2  1  0
  1 26  2  0
  1 31  1  0
  2  3  1  0
  3  4  2  0
  3 32  1  0
  4  5  1  0
  4 33  1  0
  5  6  2  0
  5 25  1  0
  6  7  1  0
  6 34  1  0
  7  8  2  0
  7 35  1  0
  8  9  1  0
  8 24  1  0
  9 10  2  0
  9 23  1  0
 10 11  1  0
 10 36  1  0
 11 12  2  0
 11 37  1  0
 12 13  1  0
 12 22  1  0
 13 14  2  0
 13 38  1  0
 14 15  1  0
 14 39  1  0
 15 16  1  0
 16 17  2  0
 16 40  1  0
 17 18  1  0
 17 21  1  0
 18 19  1  0
 18 41  1  0
 18 42  1  0
 19 20  1  0
 19 43  1  0
 19 44  1  0
 20 21  1  0
 20 45  1  0
 20 46  1  0
 21 47  1  0
 21 48  1  0
 22 23  2  0
 22 49  1  0
 23 50  1  0
 24 25  2  0
 24 51  1  0
 25 52  1  0
 26 27  1  0
 26 30  1  0
 27 28  1  0
 27 53  1  0
 27 54  1  0
 28 29  1  0
 28 55  1  0
 28 56  1  0
 29 30  1  0
 29 57  1  0
 29 58  1  0
 30 59  1  0
 30 60  1  0
M  END

