
     RDKit          3D

 40 40  0  0  0  0  0  0  0  0999 V2000
   -0.0836   -2.5650   -0.4799 C   0  0  0  0  0  0  0  0  0  0  0  0
    1.3486   -2.9745   -0.8618 C   0  0  0  0  0  0  0  0  0  0  0  0
    2.3793   -2.6322    0.1800 C   0  0  0  0  0  0  0  0  0  0  0  0
    2.7636   -3.7870    1.4253 S   0  0  0  0  0  0  0  0  0  0  0  0
    3.8826   -2.6905    2.1907 C   0  0  0  0  0  0  0  0  0  0  0  0
    4.6737   -2.9914    3.4099 C   0  0  0  0  0  0  0  0  0  0  0  0
    5.5492   -2.2323    3.8039 O   0  0  0  0  0  0  0  0  0  0  0  0
    4.3742   -4.1703    4.0533 N   0  0  0  0  0  0  0  0  0  0  0  0
    4.9641   -4.4894    5.3344 C   0  0  1  0  0  0  0  0  0  0  0  0
    3.8439   -4.9376    6.2805 C   0  0  0  0  0  0  0  0  0  0  0  0
    2.7290   -5.1986    5.9132 O   0  0  0  0  0  0  0  0  0  0  0  0
    4.1892   -5.0667    7.5760 O   0  0  0  0  0  0  0  0  0  0  0  0
    6.0965   -5.5621    5.2602 C   0  0  1  0  0  0  0  0  0  0  0  0
    5.5634   -6.9078    4.7541 C   0  0  0  0  0  0  0  0  0  0  0  0
    7.2878   -5.0411    4.4333 C   0  0  0  0  0  0  0  0  0  0  0  0
    8.5619   -5.8788    4.5622 C   0  0  0  0  0  0  0  0  0  0  0  0
    3.9465   -1.5074    1.4918 C   0  0  0  0  0  0  0  0  0  0  0  0
    3.0919   -1.4560    0.3492 C   0  0  0  0  0  0  0  0  0  0  0  0
    2.9853   -0.2457   -0.5407 C   0  0  0  0  0  0  0  0  0  0  0  0
   -0.7948   -2.8425   -1.2744 H   0  0  0  0  0  0  0  0  0  0  0  0
   -0.1579   -1.4777   -0.3205 H   0  0  0  0  0  0  0  0  0  0  0  0
   -0.4008   -3.0605    0.4510 H   0  0  0  0  0  0  0  0  0  0  0  0
    1.6307   -2.4848   -1.8089 H   0  0  0  0  0  0  0  0  0  0  0  0
    1.3769   -4.0583   -1.0634 H   0  0  0  0  0  0  0  0  0  0  0  0
    3.4735   -4.6120    3.8819 H   0  0  0  0  0  0  0  0  0  0  0  0
    5.4091   -3.5574    5.7258 H   0  0  0  0  0  0  0  0  0  0  0  0
    5.1076   -4.7924    7.7138 H   0  0  0  0  0  0  0  0  0  0  0  0
    6.4594   -5.7047    6.2976 H   0  0  0  0  0  0  0  0  0  0  0  0
    5.1573   -6.8014    3.7352 H   0  0  0  0  0  0  0  0  0  0  0  0
    4.7618   -7.3051    5.3967 H   0  0  0  0  0  0  0  0  0  0  0  0
    6.3599   -7.6654    4.7200 H   0  0  0  0  0  0  0  0  0  0  0  0
    7.5013   -4.0019    4.7311 H   0  0  0  0  0  0  0  0  0  0  0  0
    6.9851   -4.9846    3.3737 H   0  0  0  0  0  0  0  0  0  0  0  0
    8.8961   -5.9462    5.6117 H   0  0  0  0  0  0  0  0  0  0  0  0
    9.3837   -5.4281    3.9837 H   0  0  0  0  0  0  0  0  0  0  0  0
    8.4291   -6.9072    4.1905 H   0  0  0  0  0  0  0  0  0  0  0  0
    4.6059   -0.6981    1.8094 H   0  0  0  0  0  0  0  0  0  0  0  0
    3.9733    0.2139   -0.7003 H   0  0  0  0  0  0  0  0  0  0  0  0
    2.3376    0.5276   -0.0924 H   0  0  0  0  0  0  0  0  0  0  0  0
    2.5660   -0.4915   -1.5272 H   0  0  0  0  0  0  0  0  0  0  0  0
  1  2  1  0
  1 20  1  0
  1 21  1  0
  1 22  1  0
  2  3  1  0
  2 23  1  0
  2 24  1  0
  3  4  2  0
  3 18  1  0
  4  5  1  0
  5  6  2  0
  5 17  1  0
  6  7  1  0
  6  8  1  0
  8  9  1  0
  8 25  1  0
  9 10  1  0
  9 13  1  0
  9 26  1  1
 10 11  2  0
 10 12  1  0
 12 27  1  0
 13 14  1  0
 13 15  1  0
 13 28  1  1
 14 29  1  0
 14 30  1  0
 14 31  1  0
 15 16  1  0
 15 32  1  0
 15 33  1  0
 16 34  1  0
 16 35  1  0
 16 36  1  0
 17 18  2  0
 17 37  1  0
 18 19  1  0
 19 38  1  0
 19 39  1  0
 19 40  1  0
M  CHG  2   4   1   7  -1
M  END

