
     RDKit          3D

 71 73  0  0  0  0  0  0  0  0999 V2000
    6.2258    1.9509   -0.5159 C   0  0  0  0  0  0  0  0  0  0  0  0
    5.6099    2.3121    0.8345 C   0  0  0  0  0  0  0  0  0  0  0  0
    6.5307    2.0472    2.0402 C   0  0  1  0  0  0  0  0  0  0  0  0
    5.9507    2.6209    3.3409 C   0  0  0  0  0  0  0  0  0  0  0  0
    6.8884    0.6277    2.1783 N   0  0  0  0  0  0  0  0  0  0  0  0
    6.0129   -0.3535    2.5017 C   0  0  0  0  0  0  0  0  0  0  0  0
    4.8020   -0.2026    2.6072 O   0  0  0  0  0  0  0  0  0  0  0  0
    6.6201   -1.7665    2.7390 C   0  0  1  0  0  0  0  0  0  0  0  0
    7.2707   -2.4211    1.4977 C   0  0  0  0  0  0  0  0  0  0  0  0
    6.3194   -2.6255    0.3352 C   0  0  0  0  0  0  0  0  0  0  0  0
    6.6024   -2.0668   -0.9203 C   0  0  0  0  0  0  0  0  0  0  0  0
    5.7517   -2.2727   -2.0114 C   0  0  0  0  0  0  0  0  0  0  0  0
    4.5965   -3.0434   -1.8627 C   0  0  0  0  0  0  0  0  0  0  0  0
    4.3019   -3.6077   -0.6171 C   0  0  0  0  0  0  0  0  0  0  0  0
    5.1552   -3.4014    0.4686 C   0  0  0  0  0  0  0  0  0  0  0  0
    7.4910   -1.8513    3.9401 N   0  0  0  0  0  0  0  0  0  0  0  0
    6.9071   -2.5216    5.1129 C   0  0  0  0  0  0  0  0  0  0  0  0
    5.5902   -1.9160    5.5670 C   0  0  0  0  0  0  0  0  0  0  0  0
    5.5307   -0.6635    6.2083 C   0  0  0  0  0  0  0  0  0  0  0  0
    7.0091    0.2340    6.5181 Cl  0  0  0  0  0  0  0  0  0  0  0  0
    4.3348   -0.0851    6.6333 C   0  0  0  0  0  0  0  0  0  0  0  0
    3.1373   -0.7679    6.4235 C   0  0  0  0  0  0  0  0  0  0  0  0
    3.1423   -2.0159    5.8046 C   0  0  0  0  0  0  0  0  0  0  0  0
    4.3548   -2.5701    5.3893 C   0  0  0  0  0  0  0  0  0  0  0  0
    4.2819   -4.1500    4.6191 Cl  0  0  0  0  0  0  0  0  0  0  0  0
    8.7790   -1.4046    3.8982 C   0  0  0  0  0  0  0  0  0  0  0  0
    9.2180   -0.7200    2.9749 O   0  0  0  0  0  0  0  0  0  0  0  0
    9.7377   -1.7709    5.0344 C   0  0  0  0  0  0  0  0  0  0  0  0
    9.7668   -3.1732    5.2046 O   0  0  0  0  0  0  0  0  0  0  0  0
   10.6379   -3.7185    6.1110 C   0  0  0  0  0  0  0  0  0  0  0  0
   11.4790   -2.9672    6.9356 C   0  0  0  0  0  0  0  0  0  0  0  0
   12.3339   -3.6163    7.8368 C   0  0  0  0  0  0  0  0  0  0  0  0
   12.3683   -5.0093    7.9298 C   0  0  0  0  0  0  0  0  0  0  0  0
   13.2827   -5.7204    8.8982 C   0  0  0  0  0  0  0  0  0  0  0  0
   11.5133   -5.7398    7.0832 C   0  0  0  0  0  0  0  0  0  0  0  0
   10.6477   -5.1311    6.1734 C   0  0  0  0  0  0  0  0  0  0  0  0
    9.7434   -5.9298    5.2716 C   0  0  0  0  0  0  0  0  0  0  0  0
    5.5305    2.1736   -1.3410 H   0  0  0  0  0  0  0  0  0  0  0  0
    6.4685    0.8790   -0.5697 H   0  0  0  0  0  0  0  0  0  0  0  0
    7.1550    2.5170   -0.7019 H   0  0  0  0  0  0  0  0  0  0  0  0
    4.6714    1.7567    0.9881 H   0  0  0  0  0  0  0  0  0  0  0  0
    5.3496    3.3851    0.8468 H   0  0  0  0  0  0  0  0  0  0  0  0
    7.4911    2.5549    1.8428 H   0  0  0  0  0  0  0  0  0  0  0  0
    4.9775    2.1604    3.5628 H   0  0  0  0  0  0  0  0  0  0  0  0
    5.8121    3.7102    3.2508 H   0  0  0  0  0  0  0  0  0  0  0  0
    6.6255    2.4272    4.1889 H   0  0  0  0  0  0  0  0  0  0  0  0
    7.8765    0.3749    2.2358 H   0  0  0  0  0  0  0  0  0  0  0  0
    5.7331   -2.3573    2.9866 H   0  0  0  0  0  0  0  0  0  0  0  0
    7.6587   -3.4014    1.8275 H   0  0  0  0  0  0  0  0  0  0  0  0
    8.1393   -1.8373    1.1701 H   0  0  0  0  0  0  0  0  0  0  0  0
    7.5080   -1.4670   -1.0464 H   0  0  0  0  0  0  0  0  0  0  0  0
    5.9941   -1.8273   -2.9798 H   0  0  0  0  0  0  0  0  0  0  0  0
    3.9281   -3.2048   -2.7124 H   0  0  0  0  0  0  0  0  0  0  0  0
    3.4009   -4.2137   -0.4902 H   0  0  0  0  0  0  0  0  0  0  0  0
    4.9091   -3.8528    1.4337 H   0  0  0  0  0  0  0  0  0  0  0  0
    7.6194   -2.4722    5.9410 H   0  0  0  0  0  0  0  0  0  0  0  0
    6.7536   -3.5858    4.8891 H   0  0  0  0  0  0  0  0  0  0  0  0
    4.3522    0.8902    7.1208 H   0  0  0  0  0  0  0  0  0  0  0  0
    2.1931   -0.3234    6.7457 H   0  0  0  0  0  0  0  0  0  0  0  0
    2.2157   -2.5642    5.6326 H   0  0  0  0  0  0  0  0  0  0  0  0
    9.4418   -1.2572    5.9682 H   0  0  0  0  0  0  0  0  0  0  0  0
   10.7212   -1.3852    4.7238 H   0  0  0  0  0  0  0  0  0  0  0  0
   11.4835   -1.8780    6.8897 H   0  0  0  0  0  0  0  0  0  0  0  0
   12.9858   -3.0131    8.4749 H   0  0  0  0  0  0  0  0  0  0  0  0
   13.9127   -5.0099    9.4538 H   0  0  0  0  0  0  0  0  0  0  0  0
   13.9521   -6.4260    8.3779 H   0  0  0  0  0  0  0  0  0  0  0  0
   12.7107   -6.3076    9.6368 H   0  0  0  0  0  0  0  0  0  0  0  0
   11.5247   -6.8335    7.1331 H   0  0  0  0  0  0  0  0  0  0  0  0
    9.9059   -7.0091    5.4038 H   0  0  0  0  0  0  0  0  0  0  0  0
    9.9127   -5.6786    4.2119 H   0  0  0  0  0  0  0  0  0  0  0  0
    8.6806   -5.7159    5.4754 H   0  0  0  0  0  0  0  0  0  0  0  0
  1  2  1  0
  1 38  1  0
  1 39  1  0
  1 40  1  0
  2  3  1  0
  2 41  1  0
  2 42  1  0
  3  4  1  0
  3  5  1  0
  3 43  1  6
  4 44  1  0
  4 45  1  0
  4 46  1  0
  5  6  1  0
  5 47  1  0
  6  7  2  0
  6  8  1  0
  8  9  1  0
  8 16  1  0
  8 48  1  1
  9 10  1  0
  9 49  1  0
  9 50  1  0
 10 11  2  0
 10 15  1  0
 11 12  1  0
 11 51  1  0
 12 13  2  0
 12 52  1  0
 13 14  1  0
 13 53  1  0
 14 15  2  0
 14 54  1  0
 15 55  1  0
 16 17  1  0
 16 26  1  0
 17 18  1  0
 17 56  1  0
 17 57  1  0
 18 19  2  0
 18 24  1  0
 19 20  1  0
 19 21  1  0
 21 22  2  0
 21 58  1  0
 22 23  1  0
 22 59  1  0
 23 24  2  0
 23 60  1  0
 24 25  1  0
 26 27  2  0
 26 28  1  0
 28 29  1  0
 28 61  1  0
 28 62  1  0
 29 30  1  0
 30 31  2  0
 30 36  1  0
 31 32  1  0
 31 63  1  0
 32 33  2  0
 32 64  1  0
 33 34  1  0
 33 35  1  0
 34 65  1  0
 34 66  1  0
 34 67  1  0
 35 36  2  0
 35 68  1  0
 36 37  1  0
 37 69  1  0
 37 70  1  0
 37 71  1  0
M  END

