
     RDKit          3D

 37 36  0  0  0  0  0  0  0  0999 V2000
    3.8748    1.0297    3.6388 C   0  0  0  0  0  0  0  0  0  0  0  0
    4.6555    0.8127    2.7389 C   0  0  0  0  0  0  0  0  0  0  0  0
    5.6219    0.5598    1.6646 C   0  0  0  0  0  0  0  0  0  0  0  0
    5.8849   -0.8526    1.4511 N   0  0  0  0  0  0  0  0  0  0  0  0
    5.7726   -1.4271    0.2218 C   0  0  0  0  0  0  0  0  0  0  0  0
    5.4187   -0.8274   -0.7813 O   0  0  0  0  0  0  0  0  0  0  0  0
    6.1586   -2.9298    0.2015 C   0  0  1  0  0  0  0  0  0  0  0  0
    5.7127   -3.4022    1.0921 H   0  0  0  0  0  0  0  0  0  0  0  0
    5.6598   -3.6298   -1.0644 C   0  0  0  0  0  0  0  0  0  0  0  0
    4.1376   -3.7463   -1.1441 C   0  0  0  0  0  0  0  0  0  0  0  0
    7.6056   -3.0834    0.3304 N   0  0  0  0  0  0  0  0  0  0  0  0
    8.2421   -3.0669    1.5331 C   0  0  0  0  0  0  0  0  0  0  0  0
    7.6715   -2.8830    2.6000 O   0  0  0  0  0  0  0  0  0  0  0  0
    9.5585   -3.2827    1.3703 O   0  0  0  0  0  0  0  0  0  0  0  0
   10.4963   -3.3067    2.5001 C   0  0  1  0  0  0  0  0  0  0  0  0
   10.1370   -4.4528    3.4507 C   0  0  0  0  0  0  0  0  0  0  0  0
   11.8402   -3.5671    1.8173 C   0  0  0  0  0  0  0  0  0  0  0  0
   10.5009   -1.9480    3.2076 C   0  0  0  0  0  0  0  0  0  0  0  0
    3.1767    1.2207    4.4320 H   0  0  0  0  0  0  0  0  0  0  0  0
    6.5592    1.1035    1.8881 H   0  0  0  0  0  0  0  0  0  0  0  0
    5.2446    0.9547    0.7078 H   0  0  0  0  0  0  0  0  0  0  0  0
    6.2722   -1.4145    2.2102 H   0  0  0  0  0  0  0  0  0  0  0  0
    6.1170   -4.6333   -1.0919 H   0  0  0  0  0  0  0  0  0  0  0  0
    6.0306   -3.0699   -1.9393 H   0  0  0  0  0  0  0  0  0  0  0  0
    3.7308   -4.3052   -0.2847 H   0  0  0  0  0  0  0  0  0  0  0  0
    3.8368   -4.2795   -2.0594 H   0  0  0  0  0  0  0  0  0  0  0  0
    3.6674   -2.7525   -1.1663 H   0  0  0  0  0  0  0  0  0  0  0  0
    8.1724   -3.1587   -0.5066 H   0  0  0  0  0  0  0  0  0  0  0  0
   10.1053   -5.4084    2.9042 H   0  0  0  0  0  0  0  0  0  0  0  0
    9.1615   -4.2824    3.9238 H   0  0  0  0  0  0  0  0  0  0  0  0
   10.9026   -4.5357    4.2378 H   0  0  0  0  0  0  0  0  0  0  0  0
   11.8179   -4.5211    1.2692 H   0  0  0  0  0  0  0  0  0  0  0  0
   12.6450   -3.6136    2.5664 H   0  0  0  0  0  0  0  0  0  0  0  0
   12.0745   -2.7638    1.1025 H   0  0  0  0  0  0  0  0  0  0  0  0
    9.5367   -1.7501    3.6925 H   0  0  0  0  0  0  0  0  0  0  0  0
   10.7110   -1.1413    2.4879 H   0  0  0  0  0  0  0  0  0  0  0  0
   11.2904   -1.9332    3.9751 H   0  0  0  0  0  0  0  0  0  0  0  0
  1  2  3  0
  1 19  1  0
  2  3  1  0
  3  4  1  0
  3 20  1  0
  3 21  1  0
  4  5  1  0
  4 22  1  0
  5  6  2  0
  5  7  1  0
  7  8  1  1
  7  9  1  0
  7 11  1  0
  9 10  1  0
  9 23  1  0
  9 24  1  0
 10 25  1  0
 10 26  1  0
 10 27  1  0
 11 12  1  0
 11 28  1  0
 12 13  2  0
 12 14  1  0
 15 14  1  6
 15 16  1  0
 15 17  1  0
 15 18  1  0
 16 29  1  0
 16 30  1  0
 16 31  1  0
 17 32  1  0
 17 33  1  0
 17 34  1  0
 18 35  1  0
 18 36  1  0
 18 37  1  0
M  END

