
     RDKit          3D

 49 50  0  0  0  0  0  0  0  0999 V2000
    3.1986    0.4545    5.0172 C   0  0  0  0  0  0  0  0  0  0  0  0
    4.1720    0.2092    3.9049 C   0  0  0  0  0  0  0  0  0  0  0  0
    4.9064    1.1139    3.1912 C   0  0  0  0  0  0  0  0  0  0  0  0
    5.7494    0.5305    2.1749 C   0  0  0  0  0  0  0  0  0  0  0  0
    6.6304    1.3337    1.2811 C   0  0  0  0  0  0  0  0  0  0  0  0
    7.2885    0.8411    0.3777 O   0  0  0  0  0  0  0  0  0  0  0  0
    6.6829    2.8372    1.5327 C   0  0  0  0  0  0  0  0  0  0  0  0
    7.6571    3.5661    0.6170 C   0  0  0  0  0  0  0  0  0  0  0  0
    7.4213    5.0740    0.6122 C   0  0  0  0  0  0  0  0  0  0  0  0
    6.3268    5.5670    0.8358 O   0  0  0  0  0  0  0  0  0  0  0  0
    8.5229    5.8264    0.3037 N   0  0  0  0  0  0  0  0  0  0  0  0
    8.5005    7.2713    0.2266 C   0  0  0  0  0  0  0  0  0  0  0  0
    8.5414    7.8236   -1.2292 C   0  0  1  0  0  0  0  0  0  0  0  0
    7.2378    7.4461   -1.9656 C   0  0  0  0  0  0  0  0  0  0  0  0
    8.5594    9.3679   -1.1384 C   0  0  0  0  0  0  0  0  0  0  0  0
    8.2583    9.9839   -0.1523 O   0  0  0  0  0  0  0  0  0  0  0  0
    8.8859   10.0154   -2.2769 O   0  0  0  0  0  0  0  0  0  0  0  0
    9.8084    7.3254   -1.9416 C   0  0  0  0  0  0  0  0  0  0  0  0
    9.7770    6.3685   -2.9692 C   0  0  0  0  0  0  0  0  0  0  0  0
   10.9590    5.9061   -3.5608 C   0  0  0  0  0  0  0  0  0  0  0  0
   12.1971    6.3916   -3.1372 C   0  0  0  0  0  0  0  0  0  0  0  0
   12.2470    7.3456   -2.1150 C   0  0  0  0  0  0  0  0  0  0  0  0
   11.0678    7.8023   -1.5247 C   0  0  0  0  0  0  0  0  0  0  0  0
    5.6376   -0.8547    2.1320 C   0  0  0  0  0  0  0  0  0  0  0  0
    6.3193   -1.8567    1.2489 C   0  0  0  0  0  0  0  0  0  0  0  0
    4.5106   -1.4088    3.3339 S   0  0  0  0  0  0  0  0  0  0  0  0
    3.1296    1.5329    5.2229 H   0  0  0  0  0  0  0  0  0  0  0  0
    3.5034   -0.0486    5.9502 H   0  0  0  0  0  0  0  0  0  0  0  0
    2.1870    0.0935    4.7665 H   0  0  0  0  0  0  0  0  0  0  0  0
    4.8402    2.1851    3.3829 H   0  0  0  0  0  0  0  0  0  0  0  0
    6.9286    3.0169    2.5934 H   0  0  0  0  0  0  0  0  0  0  0  0
    5.6757    3.2660    1.3953 H   0  0  0  0  0  0  0  0  0  0  0  0
    7.5226    3.1981   -0.4146 H   0  0  0  0  0  0  0  0  0  0  0  0
    8.7014    3.3300    0.8782 H   0  0  0  0  0  0  0  0  0  0  0  0
    9.3967    5.3477    0.1209 H   0  0  0  0  0  0  0  0  0  0  0  0
    9.3470    7.6868    0.7944 H   0  0  0  0  0  0  0  0  0  0  0  0
    7.5804    7.6155    0.7142 H   0  0  0  0  0  0  0  0  0  0  0  0
    6.3746    7.8841   -1.4451 H   0  0  0  0  0  0  0  0  0  0  0  0
    7.0930    6.3569   -1.9760 H   0  0  0  0  0  0  0  0  0  0  0  0
    7.2353    7.8051   -3.0062 H   0  0  0  0  0  0  0  0  0  0  0  0
    9.1904    9.3812   -2.9448 H   0  0  0  0  0  0  0  0  0  0  0  0
    8.8241    5.9700   -3.3193 H   0  0  0  0  0  0  0  0  0  0  0  0
   10.9059    5.1604   -4.3581 H   0  0  0  0  0  0  0  0  0  0  0  0
   13.1188    6.0320   -3.6011 H   0  0  0  0  0  0  0  0  0  0  0  0
   13.2092    7.7375   -1.7758 H   0  0  0  0  0  0  0  0  0  0  0  0
   11.1276    8.5507   -0.7290 H   0  0  0  0  0  0  0  0  0  0  0  0
    6.9937   -1.3388    0.5589 H   0  0  0  0  0  0  0  0  0  0  0  0
    5.5839   -2.4314    0.6609 H   0  0  0  0  0  0  0  0  0  0  0  0
    6.8977   -2.5832    1.8441 H   0  0  0  0  0  0  0  0  0  0  0  0
  1  2  1  0
  1 27  1  0
  1 28  1  0
  1 29  1  0
  2  3  2  0
  2 26  1  0
  3  4  1  0
  3 30  1  0
  4  5  1  0
  4 24  2  0
  5  6  2  0
  5  7  1  0
  7  8  1  0
  7 31  1  0
  7 32  1  0
  8  9  1  0
  8 33  1  0
  8 34  1  0
  9 10  2  0
  9 11  1  0
 11 12  1  0
 11 35  1  0
 12 13  1  0
 12 36  1  0
 12 37  1  0
 13 14  1  0
 13 15  1  1
 13 18  1  0
 14 38  1  0
 14 39  1  0
 14 40  1  0
 15 16  2  0
 15 17  1  0
 17 41  1  0
 18 19  2  0
 18 23  1  0
 19 20  1  0
 19 42  1  0
 20 21  2  0
 20 43  1  0
 21 22  1  0
 21 44  1  0
 22 23  2  0
 22 45  1  0
 23 46  1  0
 24 25  1  0
 24 26  1  0
 25 47  1  0
 25 48  1  0
 25 49  1  0
M  END

