
     RDKit          3D

 51 51  0  0  0  0  0  0  0  0999 V2000
    6.9384    0.0341   -0.0764 C   0  0  0  0  0  0  0  0  0  0  0  0
    5.7005    0.8244   -0.4648 C   0  0  0  0  0  0  0  0  0  0  0  0
    5.6371    1.0556   -1.8858 O   0  0  0  0  0  0  0  0  0  0  0  0
    5.0704    0.1025   -2.6521 C   0  0  0  0  0  0  0  0  0  0  0  0
    4.6515   -0.9444   -2.2254 O   0  0  0  0  0  0  0  0  0  0  0  0
    5.0992    0.5035   -4.1245 C   0  0  1  0  0  0  0  0  0  0  0  0
    4.7417    1.9947   -4.2898 C   0  0  0  0  0  0  0  0  0  0  0  0
    5.5364    2.7920   -4.7300 O   0  0  0  0  0  0  0  0  0  0  0  0
    3.2855    2.3847   -3.9766 C   0  0  1  0  0  0  0  0  0  0  0  0
    2.7601    1.4140   -3.0898 O   0  0  0  0  0  0  0  0  0  0  0  0
    1.4882    0.8747   -3.4059 C   0  0  0  0  0  0  0  0  0  0  0  0
    1.0959   -0.1135   -2.3237 C   0  0  0  0  0  0  0  0  0  0  0  0
    2.9568    3.8057   -3.4412 C   0  0  1  0  0  0  0  0  0  0  0  0
    3.6107    4.1443   -2.0815 C   0  0  0  0  0  0  0  0  0  0  0  0
    4.9830    4.8263   -2.1782 C   0  0  0  0  0  0  0  0  0  0  0  0
    4.9290    6.0594   -3.0890 C   0  0  0  0  0  0  0  0  0  0  0  0
    4.4342    5.6925   -4.4937 C   0  0  0  0  0  0  0  0  0  0  0  0
    3.0755    4.9773   -4.4473 C   0  0  0  0  0  0  0  0  0  0  0  0
    6.4529    0.1571   -4.8058 C   0  0  1  0  0  0  0  0  0  0  0  0
    7.0103   -1.2025   -4.3634 C   0  0  0  0  0  0  0  0  0  0  0  0
    6.3076    0.2048   -6.3334 C   0  0  0  0  0  0  0  0  0  0  0  0
    6.9972   -0.0527    1.0205 H   0  0  0  0  0  0  0  0  0  0  0  0
    7.8531    0.5343   -0.4309 H   0  0  0  0  0  0  0  0  0  0  0  0
    6.9015   -0.9816   -0.4971 H   0  0  0  0  0  0  0  0  0  0  0  0
    5.7131    1.8304   -0.0216 H   0  0  0  0  0  0  0  0  0  0  0  0
    4.7838    0.3040   -0.1514 H   0  0  0  0  0  0  0  0  0  0  0  0
    4.2980   -0.0966   -4.5855 H   0  0  0  0  0  0  0  0  0  0  0  0
    2.7894    2.2894   -4.9677 H   0  0  0  0  0  0  0  0  0  0  0  0
    1.5293    0.3723   -4.3943 H   0  0  0  0  0  0  0  0  0  0  0  0
    0.7360    1.6849   -3.4867 H   0  0  0  0  0  0  0  0  0  0  0  0
    1.8539   -0.9062   -2.2370 H   0  0  0  0  0  0  0  0  0  0  0  0
    0.1230   -0.5726   -2.5594 H   0  0  0  0  0  0  0  0  0  0  0  0
    1.0141    0.3924   -1.3491 H   0  0  0  0  0  0  0  0  0  0  0  0
    1.8762    3.7018   -3.2413 H   0  0  0  0  0  0  0  0  0  0  0  0
    3.6626    3.2305   -1.4691 H   0  0  0  0  0  0  0  0  0  0  0  0
    2.9265    4.8294   -1.5485 H   0  0  0  0  0  0  0  0  0  0  0  0
    5.7344    4.1186   -2.5618 H   0  0  0  0  0  0  0  0  0  0  0  0
    5.3136    5.1160   -1.1655 H   0  0  0  0  0  0  0  0  0  0  0  0
    5.9225    6.5350   -3.1494 H   0  0  0  0  0  0  0  0  0  0  0  0
    4.2516    6.8120   -2.6410 H   0  0  0  0  0  0  0  0  0  0  0  0
    5.1764    5.0432   -4.9778 H   0  0  0  0  0  0  0  0  0  0  0  0
    4.3395    6.6009   -5.1132 H   0  0  0  0  0  0  0  0  0  0  0  0
    2.7877    4.6374   -5.4579 H   0  0  0  0  0  0  0  0  0  0  0  0
    2.3116    5.7206   -4.1545 H   0  0  0  0  0  0  0  0  0  0  0  0
    7.1643    0.9440   -4.5073 H   0  0  0  0  0  0  0  0  0  0  0  0
    6.2890   -2.0159   -4.5458 H   0  0  0  0  0  0  0  0  0  0  0  0
    7.2652   -1.2234   -3.2933 H   0  0  0  0  0  0  0  0  0  0  0  0
    7.9294   -1.4332   -4.9252 H   0  0  0  0  0  0  0  0  0  0  0  0
    5.6107   -0.5749   -6.6871 H   0  0  0  0  0  0  0  0  0  0  0  0
    7.2797    0.0238   -6.8193 H   0  0  0  0  0  0  0  0  0  0  0  0
    5.9424    1.1821   -6.6792 H   0  0  0  0  0  0  0  0  0  0  0  0
  1  2  1  0
  1 22  1  0
  1 23  1  0
  1 24  1  0
  2  3  1  0
  2 25  1  0
  2 26  1  0
  3  4  1  0
  4  5  2  0
  4  6  1  0
  6  7  1  0
  6 19  1  0
  6 27  1  6
  7  8  2  0
  7  9  1  0
  9 10  1  0
  9 13  1  0
  9 28  1  6
 10 11  1  0
 11 12  1  0
 11 29  1  0
 11 30  1  0
 12 31  1  0
 12 32  1  0
 12 33  1  0
 13 14  1  0
 13 18  1  0
 13 34  1  1
 14 15  1  0
 14 35  1  0
 14 36  1  0
 15 16  1  0
 15 37  1  0
 15 38  1  0
 16 17  1  0
 16 39  1  0
 16 40  1  0
 17 18  1  0
 17 41  1  0
 17 42  1  0
 18 43  1  0
 18 44  1  0
 19 20  1  0
 19 21  1  0
 19 45  1  1
 20 46  1  0
 20 47  1  0
 20 48  1  0
 21 49  1  0
 21 50  1  0
 21 51  1  0
M  END

