
     RDKit          3D

 52 57  0  0  0  0  0  0  0  0999 V2000
    0.8812    0.0380    0.4891 C   0  0  0  0  0  0  0  0  0  0  0  0
    2.3678    0.0394    0.2289 C   0  0  0  0  0  0  0  0  0  0  0  0
    3.2619   -0.6233    1.0823 C   0  0  0  0  0  0  0  0  0  0  0  0
    4.6389   -0.6017    0.8487 C   0  0  0  0  0  0  0  0  0  0  0  0
    5.1791    0.0910   -0.2484 C   0  0  0  0  0  0  0  0  0  0  0  0
    6.6461    0.0656   -0.5136 C   0  0  0  0  0  0  0  0  0  0  0  0
    7.2838   -1.1821   -0.6261 C   0  0  0  0  0  0  0  0  0  0  0  0
    8.6415   -1.2895   -0.9074 C   0  0  0  0  0  0  0  0  0  0  0  0
    9.4295   -0.1412   -1.0940 C   0  0  0  0  0  0  0  0  0  0  0  0
   10.8314   -0.2178   -1.3913 C   0  0  0  0  0  0  0  0  0  0  0  0
   11.5846    0.9041   -1.5759 C   0  0  0  0  0  0  0  0  0  0  0  0
   11.0097    2.2217   -1.4792 C   0  0  0  0  0  0  0  0  0  0  0  0
   11.7724    3.4079   -1.6656 C   0  0  0  0  0  0  0  0  0  0  0  0
   13.2068    3.3867   -2.0710 C   0  0  0  0  0  0  0  0  0  0  0  0
   13.6302    2.7466   -3.2513 C   0  0  0  0  0  0  0  0  0  0  0  0
   14.9677    2.7734   -3.6446 C   0  0  0  0  0  0  0  0  0  0  0  0
   15.9158    3.4448   -2.8636 C   0  0  0  0  0  0  0  0  0  0  0  0
   17.3523    3.5184   -3.3147 C   0  0  1  0  0  0  0  0  0  0  0  0
   17.7117    2.4321   -4.0223 F   0  0  0  0  0  0  0  0  0  0  0  0
   17.5712    4.5880   -4.1056 F   0  0  0  0  0  0  0  0  0  0  0  0
   18.2000    3.6231   -2.2755 F   0  0  0  0  0  0  0  0  0  0  0  0
   15.5130    4.0883   -1.6883 C   0  0  0  0  0  0  0  0  0  0  0  0
   14.1733    4.0600   -1.3010 C   0  0  0  0  0  0  0  0  0  0  0  0
   11.1565    4.6554   -1.4673 C   0  0  0  0  0  0  0  0  0  0  0  0
    9.8126    4.7616   -1.1265 C   0  0  0  0  0  0  0  0  0  0  0  0
    9.0191    3.6127   -0.9679 C   0  0  0  0  0  0  0  0  0  0  0  0
    7.6286    3.6886   -0.6195 C   0  0  0  0  0  0  0  0  0  0  0  0
    6.8676    2.5664   -0.4736 C   0  0  0  0  0  0  0  0  0  0  0  0
    7.4215    1.2496   -0.6597 C   0  0  0  0  0  0  0  0  0  0  0  0
    8.8203    1.1458   -0.9676 C   0  0  0  0  0  0  0  0  0  0  0  0
    9.6175    2.3257   -1.1415 C   0  0  0  0  0  0  0  0  0  0  0  0
    4.2811    0.7498   -1.1099 C   0  0  0  0  0  0  0  0  0  0  0  0
    2.9067    0.7219   -0.8745 C   0  0  0  0  0  0  0  0  0  0  0  0
    0.5971   -0.7405    1.2127 H   0  0  0  0  0  0  0  0  0  0  0  0
    0.3096   -0.1325   -0.4372 H   0  0  0  0  0  0  0  0  0  0  0  0
    0.5476    1.0075    0.8989 H   0  0  0  0  0  0  0  0  0  0  0  0
    2.8750   -1.1664    1.9495 H   0  0  0  0  0  0  0  0  0  0  0  0
    5.3103   -1.1213    1.5371 H   0  0  0  0  0  0  0  0  0  0  0  0
    6.6848   -2.0887   -0.5131 H   0  0  0  0  0  0  0  0  0  0  0  0
    9.1047   -2.2755   -0.9989 H   0  0  0  0  0  0  0  0  0  0  0  0
   11.2941   -1.2061   -1.4600 H   0  0  0  0  0  0  0  0  0  0  0  0
   12.6504    0.8075   -1.7834 H   0  0  0  0  0  0  0  0  0  0  0  0
   12.8965    2.2347   -3.8778 H   0  0  0  0  0  0  0  0  0  0  0  0
   15.2772    2.2717   -4.5635 H   0  0  0  0  0  0  0  0  0  0  0  0
   16.2508    4.6026   -1.0696 H   0  0  0  0  0  0  0  0  0  0  0  0
   13.8701    4.5537   -0.3748 H   0  0  0  0  0  0  0  0  0  0  0  0
   11.7476    5.5630   -1.6119 H   0  0  0  0  0  0  0  0  0  0  0  0
    9.3593    5.7470   -0.9906 H   0  0  0  0  0  0  0  0  0  0  0  0
    7.1864    4.6762   -0.4624 H   0  0  0  0  0  0  0  0  0  0  0  0
    5.8184    2.6592   -0.1929 H   0  0  0  0  0  0  0  0  0  0  0  0
    4.6657    1.2717   -1.9895 H   0  0  0  0  0  0  0  0  0  0  0  0
    2.2353    1.2347   -1.5699 H   0  0  0  0  0  0  0  0  0  0  0  0
  1  2  1  0
  1 34  1  0
  1 35  1  0
  1 36  1  0
  2  3  2  0
  2 33  1  0
  3  4  1  0
  3 37  1  0
  4  5  2  0
  4 38  1  0
  5  6  1  0
  5 32  1  0
  6  7  2  0
  6 29  1  0
  7  8  1  0
  7 39  1  0
  8  9  2  0
  8 40  1  0
  9 10  1  0
  9 30  1  0
 10 11  2  0
 10 41  1  0
 11 12  1  0
 11 42  1  0
 12 13  2  0
 12 31  1  0
 13 14  1  0
 13 24  1  0
 14 15  2  0
 14 23  1  0
 15 16  1  0
 15 43  1  0
 16 17  2  0
 16 44  1  0
 17 18  1  0
 17 22  1  0
 18 19  1  6
 18 20  1  0
 18 21  1  0
 22 23  2  0
 22 45  1  0
 23 46  1  0
 24 25  2  0
 24 47  1  0
 25 26  1  0
 25 48  1  0
 26 27  2  0
 26 31  1  0
 27 28  1  0
 27 49  1  0
 28 29  2  0
 28 50  1  0
 29 30  1  0
 30 31  2  0
 32 33  2  0
 32 51  1  0
 33 52  1  0
M  END

