
     RDKit          3D

 32 34  0  0  0  0  0  0  0  0999 V2000
    1.0235   -0.6308   -3.3642 O   0  0  0  0  0  0  0  0  0  0  0  0
    1.2077   -0.7818   -2.1697 N   0  0  0  0  0  0  0  0  0  0  0  0
    0.4523   -0.3777   -1.2942 O   0  0  0  0  0  0  0  0  0  0  0  0
    2.4426   -1.4728   -1.7480 C   0  0  0  0  0  0  0  0  0  0  0  0
    3.5479   -1.3250   -2.5927 C   0  0  0  0  0  0  0  0  0  0  0  0
    4.7633   -1.9038   -2.2389 C   0  0  0  0  0  0  0  0  0  0  0  0
    4.8534   -2.6419   -1.0544 C   0  0  0  0  0  0  0  0  0  0  0  0
    3.7308   -2.8012   -0.2407 C   0  0  0  0  0  0  0  0  0  0  0  0
    2.4901   -2.2253   -0.5595 C   0  0  0  0  0  0  0  0  0  0  0  0
    1.3099   -2.4715    0.3671 C   0  0  0  0  0  0  0  0  0  0  0  0
    1.1917   -1.4197    1.3565 N   0  0  0  0  0  0  0  0  0  0  0  0
    0.4158   -1.5537    2.5088 C   0  0  0  0  0  0  0  0  0  0  0  0
   -0.0224   -2.8152    2.9931 C   0  0  0  0  0  0  0  0  0  0  0  0
   -0.7500   -2.9256    4.1750 C   0  0  0  0  0  0  0  0  0  0  0  0
   -1.0670   -1.7714    4.8968 C   0  0  0  0  0  0  0  0  0  0  0  0
   -1.9710   -1.6450    6.3973 S   0  0  0  0  0  0  0  0  0  0  0  0
   -1.7910    0.0913    6.3887 C   0  0  0  0  0  0  0  0  0  0  0  0
   -1.0902    0.5582    5.3174 C   0  0  0  0  0  0  0  0  0  0  0  0
   -0.6541   -0.4945    4.4308 C   0  0  0  0  0  0  0  0  0  0  0  0
    0.0840   -0.4014    3.2398 C   0  0  0  0  0  0  0  0  0  0  0  0
    3.4324   -0.7503   -3.5116 H   0  0  0  0  0  0  0  0  0  0  0  0
    5.6350   -1.7801   -2.8851 H   0  0  0  0  0  0  0  0  0  0  0  0
    5.8011   -3.1027   -0.7656 H   0  0  0  0  0  0  0  0  0  0  0  0
    3.8075   -3.3940    0.6741 H   0  0  0  0  0  0  0  0  0  0  0  0
    1.5115   -3.4204    0.8834 H   0  0  0  0  0  0  0  0  0  0  0  0
    0.3817   -2.6172   -0.2189 H   0  0  0  0  0  0  0  0  0  0  0  0
    1.1102   -0.5063    0.9212 H   0  0  0  0  0  0  0  0  0  0  0  0
    0.2023   -3.7260    2.4376 H   0  0  0  0  0  0  0  0  0  0  0  0
   -1.0732   -3.9102    4.5214 H   0  0  0  0  0  0  0  0  0  0  0  0
   -2.2273    0.6752    7.1989 H   0  0  0  0  0  0  0  0  0  0  0  0
   -0.8818    1.6161    5.1492 H   0  0  0  0  0  0  0  0  0  0  0  0
    0.4115    0.5784    2.8806 H   0  0  0  0  0  0  0  0  0  0  0  0
  1  2  2  0
  2  3  1  0
  2  4  1  0
  4  5  2  0
  4  9  1  0
  5  6  1  0
  5 21  1  0
  6  7  2  0
  6 22  1  0
  7  8  1  0
  7 23  1  0
  8  9  2  0
  8 24  1  0
  9 10  1  0
 10 11  1  0
 10 25  1  0
 10 26  1  0
 11 12  1  0
 11 27  1  0
 12 13  2  0
 12 20  1  0
 13 14  1  0
 13 28  1  0
 14 15  2  0
 14 29  1  0
 15 16  1  0
 15 19  1  0
 16 17  1  0
 17 18  2  0
 17 30  1  0
 18 19  1  0
 18 31  1  0
 19 20  2  0
 20 32  1  0
M  CHG  2   2   1   3  -1
M  END

