
     RDKit          3D

 34 35  0  0  0  0  0  0  0  0999 V2000
    1.0623    0.3218   -0.4955 O   0  0  0  0  0  0  0  0  0  0  0  0
    2.2429    0.2118   -0.2303 C   0  0  0  0  0  0  0  0  0  0  0  0
    3.0429   -0.8018   -0.7308 N   0  0  0  0  0  0  0  0  0  0  0  0
    2.4576   -1.9729   -1.3857 C   0  0  1  0  0  0  0  0  0  0  0  0
    3.1367   -2.2582   -2.7438 C   0  0  0  0  0  0  0  0  0  0  0  0
    3.0779   -3.3193   -3.2995 O   0  0  0  0  0  0  0  0  0  0  0  0
    3.7508   -1.1959   -3.2865 O   0  0  0  0  0  0  0  0  0  0  0  0
    2.3861   -3.1772   -0.4603 C   0  0  0  0  0  0  0  0  0  0  0  0
    1.2557   -3.3483    0.3532 C   0  0  0  0  0  0  0  0  0  0  0  0
    1.1980   -4.3994    1.2718 C   0  0  0  0  0  0  0  0  0  0  0  0
    2.2647   -5.2921    1.3967 C   0  0  0  0  0  0  0  0  0  0  0  0
    3.3887   -5.1174    0.5841 C   0  0  0  0  0  0  0  0  0  0  0  0
    4.7313   -6.2298    0.7218 Cl  0  0  0  0  0  0  0  0  0  0  0  0
    3.4578   -4.0735   -0.3414 C   0  0  0  0  0  0  0  0  0  0  0  0
    3.0064    1.2015    0.6435 C   0  0  1  0  0  0  0  0  0  0  0  0
    2.1465    2.0877    1.5710 C   0  0  0  0  0  0  0  0  0  0  0  0
    3.0916    2.3850    2.7678 C   0  0  0  0  0  0  0  0  0  0  0  0
    4.3828    1.5763    2.4550 C   0  0  0  0  0  0  0  0  0  0  0  0
    3.9993    0.5300    1.4972 N   0  0  0  0  0  0  0  0  0  0  0  0
    3.9345   -0.9132   -0.2463 H   0  0  0  0  0  0  0  0  0  0  0  0
    1.4290   -1.6665   -1.6392 H   0  0  0  0  0  0  0  0  0  0  0  0
    3.7058   -0.4670   -2.6410 H   0  0  0  0  0  0  0  0  0  0  0  0
    0.4177   -2.6526    0.2638 H   0  0  0  0  0  0  0  0  0  0  0  0
    0.3105   -4.5300    1.8959 H   0  0  0  0  0  0  0  0  0  0  0  0
    2.2304   -6.1195    2.1072 H   0  0  0  0  0  0  0  0  0  0  0  0
    4.3382   -3.9867   -0.9792 H   0  0  0  0  0  0  0  0  0  0  0  0
    3.5711    1.8552   -0.0500 H   0  0  0  0  0  0  0  0  0  0  0  0
    1.2478    1.5359    1.8844 H   0  0  0  0  0  0  0  0  0  0  0  0
    1.7980    2.9967    1.0605 H   0  0  0  0  0  0  0  0  0  0  0  0
    2.6404    2.0493    3.7146 H   0  0  0  0  0  0  0  0  0  0  0  0
    3.3040    3.4591    2.8798 H   0  0  0  0  0  0  0  0  0  0  0  0
    4.8555    1.1324    3.3434 H   0  0  0  0  0  0  0  0  0  0  0  0
    5.1339    2.2258    1.9744 H   0  0  0  0  0  0  0  0  0  0  0  0
    3.5182   -0.2092    2.0180 H   0  0  0  0  0  0  0  0  0  0  0  0
  1  2  2  0
  2  3  1  0
  2 15  1  0
  3  4  1  0
  3 20  1  0
  4  5  1  0
  4  8  1  0
  4 21  1  6
  5  6  2  0
  5  7  1  0
  7 22  1  0
  8  9  2  0
  8 14  1  0
  9 10  1  0
  9 23  1  0
 10 11  2  0
 10 24  1  0
 11 12  1  0
 11 25  1  0
 12 13  1  0
 12 14  2  0
 14 26  1  0
 15 16  1  0
 15 19  1  0
 15 27  1  6
 16 17  1  0
 16 28  1  0
 16 29  1  0
 17 18  1  0
 17 30  1  0
 17 31  1  0
 18 19  1  0
 18 32  1  0
 18 33  1  0
 19 34  1  0
M  END

