
     RDKit          3D

 43 45  0  0  0  0  0  0  0  0999 V2000
    5.5488    0.4652   -6.7017 C   0  0  0  0  0  0  0  0  0  0  0  0
    5.9424   -0.7965   -7.0029 C   0  0  0  0  0  0  0  0  0  0  0  0
    6.9765   -1.0128   -8.0622 C   0  0  0  0  0  0  0  0  0  0  0  0
    8.1348   -0.2197   -8.1184 C   0  0  0  0  0  0  0  0  0  0  0  0
    9.0763   -0.3823   -9.1367 C   0  0  0  0  0  0  0  0  0  0  0  0
    8.8646   -1.3556  -10.1164 C   0  0  0  0  0  0  0  0  0  0  0  0
   10.0407   -1.5713  -11.3941 Cl  0  0  0  0  0  0  0  0  0  0  0  0
    7.7236   -2.1637  -10.0819 C   0  0  0  0  0  0  0  0  0  0  0  0
    6.7929   -1.9898   -9.0579 C   0  0  0  0  0  0  0  0  0  0  0  0
    5.3722   -1.9607   -6.4732 N   0  0  0  0  0  0  0  0  0  0  0  0
    6.2231   -3.0638   -6.0209 C   0  0  0  0  0  0  0  0  0  0  0  0
    6.5044   -2.9743   -4.5167 C   0  0  0  0  0  0  0  0  0  0  0  0
    5.2515   -2.9451   -3.7689 N   0  0  0  0  0  0  0  0  0  0  0  0
    5.3488   -3.1364   -2.3248 C   0  0  2  0  0  0  0  0  0  0  0  0
    4.3438   -2.9319   -1.9245 H   0  0  0  0  0  0  0  0  0  0  0  0
    6.4077   -2.2833   -1.5685 C   0  0  0  0  0  0  0  0  0  0  0  0
    7.5122   -3.2183   -1.3902 N   0  0  0  0  0  0  0  0  0  0  0  0
    6.9005   -4.4643   -0.9668 C   0  0  0  0  0  0  0  0  0  0  0  0
    5.7089   -4.6093   -1.9346 C   0  0  1  0  0  0  0  0  0  0  0  0
    6.0216   -5.1410   -2.8444 H   0  0  0  0  0  0  0  0  0  0  0  0
    4.6368   -5.3653   -1.4206 O   0  0  0  0  0  0  0  0  0  0  0  0
    4.4160   -1.8232   -4.1786 C   0  0  0  0  0  0  0  0  0  0  0  0
    4.1477   -1.8989   -5.6871 C   0  0  0  0  0  0  0  0  0  0  0  0
    5.9221    1.3067   -7.2855 H   0  0  0  0  0  0  0  0  0  0  0  0
    4.8240    0.6870   -5.9178 H   0  0  0  0  0  0  0  0  0  0  0  0
    8.3058    0.5293   -7.3421 H   0  0  0  0  0  0  0  0  0  0  0  0
    9.9760    0.2345   -9.1697 H   0  0  0  0  0  0  0  0  0  0  0  0
    7.5685   -2.9164  -10.8568 H   0  0  0  0  0  0  0  0  0  0  0  0
    5.8958   -2.6123   -9.0305 H   0  0  0  0  0  0  0  0  0  0  0  0
    7.1685   -3.0603   -6.5784 H   0  0  0  0  0  0  0  0  0  0  0  0
    5.7062   -4.0175   -6.2295 H   0  0  0  0  0  0  0  0  0  0  0  0
    7.1277   -2.0715   -4.3277 H   0  0  0  0  0  0  0  0  0  0  0  0
    7.1063   -3.8382   -4.1988 H   0  0  0  0  0  0  0  0  0  0  0  0
    5.9755   -1.9343   -0.6028 H   0  0  0  0  0  0  0  0  0  0  0  0
    6.7197   -1.3870   -2.1275 H   0  0  0  0  0  0  0  0  0  0  0  0
    8.2413   -2.8828   -0.7644 H   0  0  0  0  0  0  0  0  0  0  0  0
    6.4970   -4.4336    0.0758 H   0  0  0  0  0  0  0  0  0  0  0  0
    7.6047   -5.3095   -1.0207 H   0  0  0  0  0  0  0  0  0  0  0  0
    4.3771   -4.9844   -0.5704 H   0  0  0  0  0  0  0  0  0  0  0  0
    4.8784   -0.8398   -3.9316 H   0  0  0  0  0  0  0  0  0  0  0  0
    3.4563   -1.8763   -3.6380 H   0  0  0  0  0  0  0  0  0  0  0  0
    3.5363   -1.0505   -6.0234 H   0  0  0  0  0  0  0  0  0  0  0  0
    3.5778   -2.8262   -5.8788 H   0  0  0  0  0  0  0  0  0  0  0  0
  1  2  2  0
  1 24  1  0
  1 25  1  0
  2  3  1  0
  2 10  1  0
  3  4  2  0
  3  9  1  0
  4  5  1  0
  4 26  1  0
  5  6  2  0
  5 27  1  0
  6  7  1  0
  6  8  1  0
  8  9  2  0
  8 28  1  0
  9 29  1  0
 10 11  1  0
 10 23  1  0
 11 12  1  0
 11 30  1  0
 11 31  1  0
 12 13  1  0
 12 32  1  0
 12 33  1  0
 13 14  1  0
 13 22  1  0
 14 15  1  1
 14 16  1  0
 14 19  1  0
 16 17  1  0
 16 34  1  0
 16 35  1  0
 17 18  1  0
 17 36  1  0
 18 19  1  0
 18 37  1  0
 18 38  1  0
 19 20  1  6
 19 21  1  0
 21 39  1  0
 22 23  1  0
 22 40  1  0
 22 41  1  0
 23 42  1  0
 23 43  1  0
M  END

