
     RDKit          3D

 47 50  0  0  0  0  0  0  0  0999 V2000
    2.6708   -2.8624    3.9600 O   0  0  0  0  0  0  0  0  0  0  0  0
    2.2570   -2.8506    2.8241 C   0  0  0  0  0  0  0  0  0  0  0  0
    2.9797   -3.2799    1.7635 O   0  0  0  0  0  0  0  0  0  0  0  0
    4.3421   -3.5695    2.0082 C   0  0  0  0  0  0  0  0  0  0  0  0
    5.1585   -2.2633    2.0357 C   0  0  0  0  0  0  0  0  0  0  0  0
    4.6058   -1.1923    1.8673 O   0  0  0  0  0  0  0  0  0  0  0  0
    6.5061   -2.3872    2.2561 N   0  0  0  0  0  0  0  0  0  0  0  0
    7.2385   -3.6362    2.4452 C   0  0  0  0  0  0  0  0  0  0  0  0
    8.2776   -3.8420    1.3361 C   0  0  0  0  0  0  0  0  0  0  0  0
    9.1818   -2.6113    1.1849 C   0  0  0  0  0  0  0  0  0  0  0  0
    8.3869   -1.2903    1.0602 C   0  0  1  0  0  0  0  0  0  0  0  0
    9.0871   -0.4512    1.2046 H   0  0  0  0  0  0  0  0  0  0  0  0
    7.7411   -1.1005   -0.2901 C   0  0  0  0  0  0  0  0  0  0  0  0
    7.1237   -2.0096   -0.9719 N   0  0  0  0  0  0  0  0  0  0  0  0
    6.6017   -1.5102   -2.1510 C   0  0  0  0  0  0  0  0  0  0  0  0
    5.8830   -2.2501   -3.1055 C   0  0  0  0  0  0  0  0  0  0  0  0
    5.4177   -1.6091   -4.2494 C   0  0  0  0  0  0  0  0  0  0  0  0
    5.6591   -0.2374   -4.4581 C   0  0  0  0  0  0  0  0  0  0  0  0
    6.3705    0.5166   -3.5258 C   0  0  0  0  0  0  0  0  0  0  0  0
    6.8381   -0.1277   -2.3742 C   0  0  0  0  0  0  0  0  0  0  0  0
    7.7552    0.5156   -1.0333 S   0  0  0  0  0  0  0  0  0  0  0  0
    7.3433   -1.2001    2.2043 C   0  0  0  0  0  0  0  0  0  0  0  0
    0.8966   -2.4111    2.4302 C   0  0  0  0  0  0  0  0  0  0  0  0
   -0.0158   -2.0366    3.4294 C   0  0  0  0  0  0  0  0  0  0  0  0
   -1.2888   -1.6187    3.1012 C   0  0  0  0  0  0  0  0  0  0  0  0
   -1.7064   -1.5514    1.7870 N   0  0  0  0  0  0  0  0  0  0  0  0
   -2.8689   -1.1712    1.4999 O   0  0  0  0  0  0  0  0  0  0  0  0
   -0.8146   -1.9098    0.7968 C   0  0  0  0  0  0  0  0  0  0  0  0
    0.4650   -2.3335    1.0963 C   0  0  0  0  0  0  0  0  0  0  0  0
    4.6720   -4.2098    1.1776 H   0  0  0  0  0  0  0  0  0  0  0  0
    4.4507   -4.1125    2.9593 H   0  0  0  0  0  0  0  0  0  0  0  0
    6.5447   -4.4842    2.4858 H   0  0  0  0  0  0  0  0  0  0  0  0
    7.7436   -3.5973    3.4304 H   0  0  0  0  0  0  0  0  0  0  0  0
    7.7583   -4.0286    0.3851 H   0  0  0  0  0  0  0  0  0  0  0  0
    8.8877   -4.7302    1.5709 H   0  0  0  0  0  0  0  0  0  0  0  0
    9.8528   -2.7322    0.3201 H   0  0  0  0  0  0  0  0  0  0  0  0
    9.8280   -2.5228    2.0769 H   0  0  0  0  0  0  0  0  0  0  0  0
    5.7030   -3.3127   -2.9311 H   0  0  0  0  0  0  0  0  0  0  0  0
    4.8570   -2.1754   -4.9970 H   0  0  0  0  0  0  0  0  0  0  0  0
    5.2832    0.2454   -5.3635 H   0  0  0  0  0  0  0  0  0  0  0  0
    6.5545    1.5801   -3.6914 H   0  0  0  0  0  0  0  0  0  0  0  0
    6.6871   -0.3298    2.0841 H   0  0  0  0  0  0  0  0  0  0  0  0
    7.8883   -1.0974    3.1613 H   0  0  0  0  0  0  0  0  0  0  0  0
    0.2887   -2.0763    4.4767 H   0  0  0  0  0  0  0  0  0  0  0  0
   -2.0523   -1.3140    3.8157 H   0  0  0  0  0  0  0  0  0  0  0  0
   -1.2235   -1.8191   -0.2087 H   0  0  0  0  0  0  0  0  0  0  0  0
    1.1412   -2.5999    0.2837 H   0  0  0  0  0  0  0  0  0  0  0  0
  1  2  2  0
  2  3  1  0
  2 23  1  0
  3  4  1  0
  4  5  1  0
  4 30  1  0
  4 31  1  0
  5  6  2  0
  5  7  1  0
  7  8  1  0
  7 22  1  0
  8  9  1  0
  8 32  1  0
  8 33  1  0
  9 10  1  0
  9 34  1  0
  9 35  1  0
 10 11  1  0
 10 36  1  0
 10 37  1  0
 11 12  1  1
 11 13  1  0
 11 22  1  0
 13 14  2  0
 13 21  1  0
 14 15  1  0
 15 16  2  0
 15 20  1  0
 16 17  1  0
 16 38  1  0
 17 18  2  0
 17 39  1  0
 18 19  1  0
 18 40  1  0
 19 20  2  0
 19 41  1  0
 20 21  1  0
 22 42  1  0
 22 43  1  0
 23 24  2  0
 23 29  1  0
 24 25  1  0
 24 44  1  0
 25 26  2  0
 25 45  1  0
 26 27  1  0
 26 28  1  0
 28 29  2  0
 28 46  1  0
 29 47  1  0
M  CHG  2  26   1  27  -1
M  END

