
     RDKit          3D

 42 43  0  0  0  0  0  0  0  0999 V2000
    0.5526    0.1308   -0.8648 C   0  0  0  0  0  0  0  0  0  0  0  0
    2.0055   -0.0613   -0.4246 C   0  0  1  0  0  0  0  0  0  0  0  0
    2.1152   -0.3992    0.9971 N   0  0  0  0  0  0  0  0  0  0  0  0
    1.8327   -1.6485    1.4934 C   0  0  0  0  0  0  0  0  0  0  0  0
    1.6166   -2.6069    0.7651 O   0  0  0  0  0  0  0  0  0  0  0  0
    1.8314   -1.7904    2.9739 C   0  0  0  0  0  0  0  0  0  0  0  0
    1.3965   -2.9135    3.6447 C   0  0  0  0  0  0  0  0  0  0  0  0
    1.4947   -2.7923    5.0586 C   0  0  0  0  0  0  0  0  0  0  0  0
    2.0091   -1.5793    5.4507 C   0  0  0  0  0  0  0  0  0  0  0  0
    2.3834   -0.5735    4.0991 S   0  0  0  0  0  0  0  0  0  0  0  0
    2.7156   -1.0781   -1.3625 C   0  0  0  0  0  0  0  0  0  0  0  0
    2.0945   -1.5796   -2.2798 O   0  0  0  0  0  0  0  0  0  0  0  0
    4.0596   -1.3374   -1.1608 N   0  0  0  0  0  0  0  0  0  0  0  0
    4.9296   -0.5952   -0.2664 C   0  0  0  0  0  0  0  0  0  0  0  0
    5.6439    0.5887   -0.9690 C   0  0  0  0  0  0  0  0  0  0  0  0
    6.4957    1.3432   -0.0488 C   0  0  0  0  0  0  0  0  0  0  0  0
    7.1508    1.9262    0.7085 N   0  0  0  0  0  0  0  0  0  0  0  0
    4.6954   -2.3445   -2.0161 C   0  0  0  0  0  0  0  0  0  0  0  0
    5.1811   -3.5659   -1.2629 C   0  0  0  0  0  0  0  0  0  0  0  0
    4.3501   -4.2677   -0.3755 C   0  0  0  0  0  0  0  0  0  0  0  0
    4.8515   -5.4082    0.2514 C   0  0  0  0  0  0  0  0  0  0  0  0
    6.1628   -5.8112   -0.0267 C   0  0  0  0  0  0  0  0  0  0  0  0
    6.9661   -5.1511   -0.8623 N   0  0  0  0  0  0  0  0  0  0  0  0
    6.4800   -4.0592   -1.4564 C   0  0  0  0  0  0  0  0  0  0  0  0
    0.0639    0.8828   -0.2260 H   0  0  0  0  0  0  0  0  0  0  0  0
    0.0086   -0.8203   -0.7925 H   0  0  0  0  0  0  0  0  0  0  0  0
    0.5053    0.4656   -1.9099 H   0  0  0  0  0  0  0  0  0  0  0  0
    2.5380    0.8990   -0.5378 H   0  0  0  0  0  0  0  0  0  0  0  0
    2.0833    0.3832    1.6422 H   0  0  0  0  0  0  0  0  0  0  0  0
    1.0178   -3.7853    3.1108 H   0  0  0  0  0  0  0  0  0  0  0  0
    1.1999   -3.5719    5.7624 H   0  0  0  0  0  0  0  0  0  0  0  0
    2.2019   -1.2229    6.4619 H   0  0  0  0  0  0  0  0  0  0  0  0
    5.6882   -1.2847    0.1366 H   0  0  0  0  0  0  0  0  0  0  0  0
    4.3630   -0.2270    0.5956 H   0  0  0  0  0  0  0  0  0  0  0  0
    4.9011    1.2784   -1.4030 H   0  0  0  0  0  0  0  0  0  0  0  0
    6.2641    0.2271   -1.8052 H   0  0  0  0  0  0  0  0  0  0  0  0
    5.5400   -1.8945   -2.5667 H   0  0  0  0  0  0  0  0  0  0  0  0
    3.9399   -2.6292   -2.7614 H   0  0  0  0  0  0  0  0  0  0  0  0
    3.3328   -3.9204   -0.1725 H   0  0  0  0  0  0  0  0  0  0  0  0
    4.2340   -5.9812    0.9473 H   0  0  0  0  0  0  0  0  0  0  0  0
    6.5803   -6.7053    0.4521 H   0  0  0  0  0  0  0  0  0  0  0  0
    7.1627   -3.5335   -2.1381 H   0  0  0  0  0  0  0  0  0  0  0  0
  1  2  1  0
  1 25  1  0
  1 26  1  0
  1 27  1  0
  2  3  1  0
  2 11  1  0
  2 28  1  1
  3  4  1  0
  3 29  1  0
  4  5  2  0
  4  6  1  0
  6  7  2  0
  6 10  1  0
  7  8  1  0
  7 30  1  0
  8  9  2  0
  8 31  1  0
  9 10  1  0
  9 32  1  0
 11 12  2  0
 11 13  1  0
 13 14  1  0
 13 18  1  0
 14 15  1  0
 14 33  1  0
 14 34  1  0
 15 16  1  0
 15 35  1  0
 15 36  1  0
 16 17  3  0
 18 19  1  0
 18 37  1  0
 18 38  1  0
 19 20  2  0
 19 24  1  0
 20 21  1  0
 20 39  1  0
 21 22  2  0
 21 40  1  0
 22 23  1  0
 22 41  1  0
 23 24  2  0
 24 42  1  0
M  END

