
     RDKit          3D

 91 92  0  0  0  0  0  0  0  0999 V2000
    4.7548   -4.1180   -6.2544 C   0  0  0  0  0  0  0  0  0  0  0  0
    5.3736   -2.8751   -6.8665 C   0  0  0  0  0  0  0  0  0  0  0  0
    6.2009   -2.9628   -7.7720 O   0  0  0  0  0  0  0  0  0  0  0  0
    4.9500   -1.6937   -6.3568 N   0  0  0  0  0  0  0  0  0  0  0  0
    5.5305   -0.4108   -6.6967 C   0  0  1  0  0  0  0  0  0  0  0  0
    6.4814   -0.5975   -7.2180 H   0  0  0  0  0  0  0  0  0  0  0  0
    4.6143    0.4429   -7.6157 C   0  0  0  0  0  0  0  0  0  0  0  0
    4.3773   -0.1473   -8.9857 C   0  0  0  0  0  0  0  0  0  0  0  0
    3.2356   -0.9068   -9.2725 C   0  0  0  0  0  0  0  0  0  0  0  0
    3.0288   -1.4609  -10.5392 C   0  0  0  0  0  0  0  0  0  0  0  0
    3.9707   -1.2600  -11.5561 C   0  0  0  0  0  0  0  0  0  0  0  0
    3.8236   -1.7658  -12.8088 O   0  0  0  0  0  0  0  0  0  0  0  0
    5.1182   -0.4981  -11.2872 C   0  0  0  0  0  0  0  0  0  0  0  0
    5.3124    0.0438  -10.0185 C   0  0  0  0  0  0  0  0  0  0  0  0
    5.8061    0.3344   -5.3716 C   0  0  0  0  0  0  0  0  0  0  0  0
    5.2146    0.0348   -4.3414 O   0  0  0  0  0  0  0  0  0  0  0  0
    6.7180    1.3267   -5.4770 N   0  0  0  0  0  0  0  0  0  0  0  0
    7.2645    2.0586   -4.3316 C   0  0  2  0  0  0  0  0  0  0  0  0
    7.1926    1.3844   -3.4595 H   0  0  0  0  0  0  0  0  0  0  0  0
    6.5382    3.3650   -3.9836 C   0  0  0  0  0  0  0  0  0  0  0  0
    6.3425    4.3704   -5.1486 C   0  0  1  0  0  0  0  0  0  0  0  0
    4.9214    4.3030   -5.7249 C   0  0  0  0  0  0  0  0  0  0  0  0
    6.6898    5.7980   -4.7084 C   0  0  0  0  0  0  0  0  0  0  0  0
    8.7588    2.2883   -4.6572 C   0  0  0  0  0  0  0  0  0  0  0  0
    9.2701    3.3932   -4.7062 O   0  0  0  0  0  0  0  0  0  0  0  0
    9.4377    1.1360   -4.9515 N   0  0  0  0  0  0  0  0  0  0  0  0
   10.5312    1.1407   -5.8917 C   0  0  1  0  0  0  0  0  0  0  0  0
   11.0933    2.0764   -5.7371 H   0  0  0  0  0  0  0  0  0  0  0  0
   11.4749   -0.0503   -5.6462 C   0  0  0  0  0  0  0  0  0  0  0  0
   10.7880   -1.4084   -5.8039 C   0  0  0  0  0  0  0  0  0  0  0  0
    9.6913   -1.6354   -5.2947 O   0  0  0  0  0  0  0  0  0  0  0  0
   11.4776   -2.3345   -6.5081 N   0  0  0  0  0  0  0  0  0  0  0  0
   11.0089   -3.7005   -6.7097 C   0  0  0  0  0  0  0  0  0  0  0  0
    9.6862   -3.8357   -7.4791 C   0  0  0  0  0  0  0  0  0  0  0  0
    9.6707   -3.1882   -8.8302 C   0  0  0  0  0  0  0  0  0  0  0  0
   10.6513   -2.9009   -9.7625 C   0  0  0  0  0  0  0  0  0  0  0  0
   10.1080   -2.2750  -10.8602 N   0  0  0  0  0  0  0  0  0  0  0  0
    8.8154   -2.1917  -10.6054 C   0  0  0  0  0  0  0  0  0  0  0  0
    8.5038   -2.7239   -9.3937 N   0  0  0  0  0  0  0  0  0  0  0  0
    7.5820   -2.7607   -8.9402 H   0  0  0  0  0  0  0  0  0  0  0  0
    9.9635    1.2162   -7.3438 C   0  0  0  0  0  0  0  0  0  0  0  0
    8.7723    1.4406   -7.5529 O   0  0  0  0  0  0  0  0  0  0  0  0
   10.8534    1.0878   -8.3535 N   0  0  0  0  0  0  0  0  0  0  0  0
   10.4660    1.2088   -9.7534 C   0  0  0  0  0  0  0  0  0  0  0  0
   11.6014    1.7853  -10.5892 C   0  0  0  0  0  0  0  0  0  0  0  0
   12.7380    0.9395  -10.6348 O   0  0  0  0  0  0  0  0  0  0  0  0
   12.7341   -0.0255  -11.6743 C   0  0  0  0  0  0  0  0  0  0  0  0
   14.0375   -0.8016  -11.5908 C   0  0  0  0  0  0  0  0  0  0  0  0
   14.1382   -1.6858  -10.4211 N   0  0  0  0  0  0  0  0  0  0  0  0
   14.0235   -1.2567   -9.2895 N   0  0  0  0  0  0  0  0  0  0  0  0
   13.9425   -1.0196   -8.1741 N   0  0  0  0  0  0  0  0  0  0  0  0
    5.5517   -4.7121   -5.7810 H   0  0  0  0  0  0  0  0  0  0  0  0
    4.3281   -4.7306   -7.0623 H   0  0  0  0  0  0  0  0  0  0  0  0
    3.9758   -3.9008   -5.5101 H   0  0  0  0  0  0  0  0  0  0  0  0
    4.4210   -1.6843   -5.4866 H   0  0  0  0  0  0  0  0  0  0  0  0
    5.0796    1.4354   -7.7195 H   0  0  0  0  0  0  0  0  0  0  0  0
    3.6562    0.5959   -7.0923 H   0  0  0  0  0  0  0  0  0  0  0  0
    2.4851   -1.0674   -8.4936 H   0  0  0  0  0  0  0  0  0  0  0  0
    2.1264   -2.0475  -10.7408 H   0  0  0  0  0  0  0  0  0  0  0  0
    2.9986   -2.2659  -12.8593 H   0  0  0  0  0  0  0  0  0  0  0  0
    5.8381   -0.3349  -12.0923 H   0  0  0  0  0  0  0  0  0  0  0  0
    6.2130    0.6338   -9.8223 H   0  0  0  0  0  0  0  0  0  0  0  0
    7.2518    1.4036   -6.3485 H   0  0  0  0  0  0  0  0  0  0  0  0
    7.1209    3.8360   -3.1763 H   0  0  0  0  0  0  0  0  0  0  0  0
    5.5611    3.0978   -3.5487 H   0  0  0  0  0  0  0  0  0  0  0  0
    7.0487    4.1034   -5.9527 H   0  0  0  0  0  0  0  0  0  0  0  0
    4.1754    4.6068   -4.9698 H   0  0  0  0  0  0  0  0  0  0  0  0
    4.6624    3.2845   -6.0526 H   0  0  0  0  0  0  0  0  0  0  0  0
    4.8085    4.9749   -6.5920 H   0  0  0  0  0  0  0  0  0  0  0  0
    6.0500    6.1230   -3.8689 H   0  0  0  0  0  0  0  0  0  0  0  0
    6.5462    6.5177   -5.5315 H   0  0  0  0  0  0  0  0  0  0  0  0
    7.7398    5.8547   -4.3834 H   0  0  0  0  0  0  0  0  0  0  0  0
    8.9507    0.2422   -4.9017 H   0  0  0  0  0  0  0  0  0  0  0  0
   11.8186    0.0146   -4.6009 H   0  0  0  0  0  0  0  0  0  0  0  0
   12.3741    0.0180   -6.2752 H   0  0  0  0  0  0  0  0  0  0  0  0
   12.3386   -2.0442   -6.9604 H   0  0  0  0  0  0  0  0  0  0  0  0
   10.8832   -4.1863   -5.7274 H   0  0  0  0  0  0  0  0  0  0  0  0
   11.8146   -4.2370   -7.2335 H   0  0  0  0  0  0  0  0  0  0  0  0
    8.8782   -3.4077   -6.8692 H   0  0  0  0  0  0  0  0  0  0  0  0
    9.4703   -4.9170   -7.5659 H   0  0  0  0  0  0  0  0  0  0  0  0
   11.7188   -3.1122   -9.7054 H   0  0  0  0  0  0  0  0  0  0  0  0
    8.0598   -1.7553  -11.2582 H   0  0  0  0  0  0  0  0  0  0  0  0
   11.8082    0.8042   -8.1613 H   0  0  0  0  0  0  0  0  0  0  0  0
    9.5915    1.8742   -9.7985 H   0  0  0  0  0  0  0  0  0  0  0  0
   10.1576    0.2303  -10.1588 H   0  0  0  0  0  0  0  0  0  0  0  0
   11.9381    2.7406  -10.1532 H   0  0  0  0  0  0  0  0  0  0  0  0
   11.2313    1.9930  -11.6107 H   0  0  0  0  0  0  0  0  0  0  0  0
   12.6957    0.4774  -12.6624 H   0  0  0  0  0  0  0  0  0  0  0  0
   11.8695   -0.7134  -11.6047 H   0  0  0  0  0  0  0  0  0  0  0  0
   14.8886   -0.0972  -11.5971 H   0  0  0  0  0  0  0  0  0  0  0  0
   14.1314   -1.4586  -12.4655 H   0  0  0  0  0  0  0  0  0  0  0  0
  1  2  1  0
  1 52  1  0
  1 53  1  0
  1 54  1  0
  2  3  1  0
  2  4  2  0
  4  5  1  0
  4 55  1  0
  5  6  1  6
  5  7  1  0
  5 15  1  0
  7  8  1  0
  7 56  1  0
  7 57  1  0
  8  9  1  0
  8 14  1  0
  9 10  2  0
  9 58  1  0
 10 11  1  0
 10 59  1  0
 11 12  2  0
 11 13  1  0
 12 60  1  0
 13 14  2  0
 13 61  1  0
 14 62  1  0
 15 16  1  0
 15 17  2  0
 17 18  1  0
 17 63  1  0
 18 19  1  1
 18 20  1  0
 18 24  1  0
 20 21  1  0
 20 64  1  0
 20 65  1  0
 21 22  1  0
 21 23  1  0
 21 66  1  6
 22 67  1  0
 22 68  1  0
 22 69  1  0
 23 70  1  0
 23 71  1  0
 23 72  1  0
 24 25  1  0
 24 26  2  0
 26 27  1  0
 26 73  1  0
 27 28  1  1
 27 29  1  0
 27 41  1  0
 29 30  1  0
 29 74  1  0
 29 75  1  0
 30 31  1  0
 30 32  2  0
 32 33  1  0
 32 76  1  0
 33 34  1  0
 33 77  1  0
 33 78  1  0
 34 35  1  0
 34 79  1  0
 34 80  1  0
 35 36  1  0
 35 39  2  0
 36 37  2  0
 36 81  1  0
 37 38  2  0
 38 39  1  0
 38 82  1  0
 39 40  1  0
 41 42  1  0
 41 43  2  0
 43 44  1  0
 43 83  1  0
 44 45  1  0
 44 84  1  0
 44 85  1  0
 45 46  1  0
 45 86  1  0
 45 87  1  0
 46 47  1  0
 47 48  1  0
 47 88  1  0
 47 89  1  0
 48 49  1  0
 48 90  1  0
 48 91  1  0
 49 50  1  0
 50 51  2  0
M  CHG  8   3  -1   4   1   8  -1  12   1  16  -1  17   1  25  -1  26   1
M  CHG  8  31  -1  32   1  37   1  39   1  42  -1  43   1  49  -1  51  -1
M  END

