
     RDKit          3D

 43 44  0  0  0  0  0  0  0  0999 V2000
    1.0749   -0.8636    2.8164 C   0  0  0  0  0  0  0  0  0  0  0  0
    2.2972   -0.4974    2.2189 O   0  0  0  0  0  0  0  0  0  0  0  0
    2.4283   -0.8479    0.8525 C   0  0  1  0  0  0  0  0  0  0  0  0
    1.6854    0.1124   -0.0671 C   0  0  0  0  0  0  0  0  0  0  0  0
    1.4123    1.4272    0.3451 C   0  0  0  0  0  0  0  0  0  0  0  0
    0.7517    2.3339   -0.4852 C   0  0  0  0  0  0  0  0  0  0  0  0
    0.3456    1.9406   -1.7634 C   0  0  0  0  0  0  0  0  0  0  0  0
    0.6008    0.6402   -2.2015 C   0  0  0  0  0  0  0  0  0  0  0  0
    1.2623   -0.2549   -1.3559 C   0  0  0  0  0  0  0  0  0  0  0  0
    1.5514   -1.8859   -1.9576 Cl  0  0  0  0  0  0  0  0  0  0  0  0
    3.9563   -0.9444    0.5593 C   0  0  1  0  0  0  0  0  0  0  0  0
    4.6863    0.3778    0.8055 C   0  0  0  0  0  0  0  0  0  0  0  0
    4.5846   -2.0047    1.3444 N   0  0  0  0  0  0  0  0  0  0  0  0
    4.3656   -3.3711    0.9044 C   0  0  0  0  0  0  0  0  0  0  0  0
    5.2301   -3.7629   -0.2837 C   0  0  0  0  0  0  0  0  0  0  0  0
    6.5615   -3.3237   -0.3763 C   0  0  0  0  0  0  0  0  0  0  0  0
    7.3718   -3.7221   -1.4358 C   0  0  0  0  0  0  0  0  0  0  0  0
    6.8668   -4.5549   -2.4481 C   0  0  0  0  0  0  0  0  0  0  0  0
    7.7938   -4.9526   -3.5612 C   0  0  0  0  0  0  0  0  0  0  0  0
    8.9914   -4.8659   -3.4882 O   0  0  0  0  0  0  0  0  0  0  0  0
    7.2131   -5.4231   -4.6911 O   0  0  0  0  0  0  0  0  0  0  0  0
    5.5391   -4.9999   -2.3559 C   0  0  0  0  0  0  0  0  0  0  0  0
    4.7316   -4.6040   -1.2875 C   0  0  0  0  0  0  0  0  0  0  0  0
    1.1222   -0.5671    3.8745 H   0  0  0  0  0  0  0  0  0  0  0  0
    0.9064   -1.9570    2.7612 H   0  0  0  0  0  0  0  0  0  0  0  0
    0.2103   -0.3584    2.3470 H   0  0  0  0  0  0  0  0  0  0  0  0
    2.0026   -1.8559    0.6923 H   0  0  0  0  0  0  0  0  0  0  0  0
    1.7300    1.7241    1.3465 H   0  0  0  0  0  0  0  0  0  0  0  0
    0.5543    3.3494   -0.1336 H   0  0  0  0  0  0  0  0  0  0  0  0
   -0.1725    2.6414   -2.4224 H   0  0  0  0  0  0  0  0  0  0  0  0
    0.2902    0.3086   -3.1937 H   0  0  0  0  0  0  0  0  0  0  0  0
    4.0581   -1.2155   -0.5040 H   0  0  0  0  0  0  0  0  0  0  0  0
    4.6098    0.6702    1.8642 H   0  0  0  0  0  0  0  0  0  0  0  0
    4.2708    1.1936    0.1957 H   0  0  0  0  0  0  0  0  0  0  0  0
    5.7508    0.2616    0.5570 H   0  0  0  0  0  0  0  0  0  0  0  0
    4.3344   -1.8874    2.3242 H   0  0  0  0  0  0  0  0  0  0  0  0
    3.3080   -3.6058    0.6570 H   0  0  0  0  0  0  0  0  0  0  0  0
    4.6268   -4.0344    1.7485 H   0  0  0  0  0  0  0  0  0  0  0  0
    6.9453   -2.6574    0.3991 H   0  0  0  0  0  0  0  0  0  0  0  0
    8.4116   -3.3965   -1.5052 H   0  0  0  0  0  0  0  0  0  0  0  0
    6.2544   -5.3017   -4.6509 H   0  0  0  0  0  0  0  0  0  0  0  0
    5.1212   -5.6825   -3.1025 H   0  0  0  0  0  0  0  0  0  0  0  0
    3.6980   -4.9572   -1.2330 H   0  0  0  0  0  0  0  0  0  0  0  0
  1  2  1  0
  1 24  1  0
  1 25  1  0
  1 26  1  0
  2  3  1  0
  3  4  1  0
  3 11  1  0
  3 27  1  1
  4  5  2  0
  4  9  1  0
  5  6  1  0
  5 28  1  0
  6  7  2  0
  6 29  1  0
  7  8  1  0
  7 30  1  0
  8  9  2  0
  8 31  1  0
  9 10  1  0
 11 12  1  0
 11 13  1  0
 11 32  1  6
 12 33  1  0
 12 34  1  0
 12 35  1  0
 13 14  1  0
 13 36  1  0
 14 15  1  0
 14 37  1  0
 14 38  1  0
 15 16  2  0
 15 23  1  0
 16 17  1  0
 16 39  1  0
 17 18  2  0
 17 40  1  0
 18 19  1  0
 18 22  1  0
 19 20  2  0
 19 21  1  0
 21 41  1  0
 22 23  2  0
 22 42  1  0
 23 43  1  0
M  END

