
     RDKit          3D

 42 44  0  0  0  0  0  0  0  0999 V2000
    5.0086    1.1062   -1.5439 O   0  0  0  0  0  0  0  0  0  0  0  0
    5.0010   -0.1723   -2.2516 S   0  0  1  0  0  0  0  0  0  0  0  0
    6.1366   -1.0914   -2.2339 O   0  0  0  0  0  0  0  0  0  0  0  0
    3.6694   -0.9851   -1.5880 N   0  0  0  0  0  0  0  0  0  0  0  0
    3.2028   -2.2632   -1.9705 C   0  0  0  0  0  0  0  0  0  0  0  0
    4.0827   -3.3538   -2.1010 C   0  0  0  0  0  0  0  0  0  0  0  0
    3.5640   -4.5978   -2.4503 C   0  0  0  0  0  0  0  0  0  0  0  0
    2.1966   -4.7767   -2.6533 C   0  0  0  0  0  0  0  0  0  0  0  0
    1.7409   -6.0182   -3.1187 O   0  0  0  0  0  0  0  0  0  0  0  0
    0.9345   -7.0144   -2.0535 S   0  0  1  0  0  0  0  0  0  0  0  0
    1.7232   -7.1830   -0.8425 O   0  0  0  0  0  0  0  0  0  0  0  0
   -0.4387   -6.4879   -1.9818 O   0  0  0  0  0  0  0  0  0  0  0  0
    0.9466   -8.5027   -3.0258 C   0  0  0  0  0  0  0  0  0  0  0  0
    1.9496   -9.4471   -2.7888 C   0  0  0  0  0  0  0  0  0  0  0  0
    1.9604  -10.6142   -3.5553 C   0  0  0  0  0  0  0  0  0  0  0  0
    0.9825  -10.8199   -4.5347 C   0  0  0  0  0  0  0  0  0  0  0  0
   -0.0170   -9.8649   -4.7525 C   0  0  0  0  0  0  0  0  0  0  0  0
   -0.0441   -8.6933   -3.9935 C   0  0  0  0  0  0  0  0  0  0  0  0
    1.2949   -3.7042   -2.4830 C   0  0  0  0  0  0  0  0  0  0  0  0
   -0.0348   -3.8059   -2.6503 O   0  0  0  0  0  0  0  0  0  0  0  0
    1.8276   -2.4462   -2.1662 C   0  0  0  0  0  0  0  0  0  0  0  0
    4.5861    0.1476   -3.9710 C   0  0  0  0  0  0  0  0  0  0  0  0
    3.9041    1.3264   -4.2923 C   0  0  0  0  0  0  0  0  0  0  0  0
    3.5608    1.5663   -5.6244 C   0  0  0  0  0  0  0  0  0  0  0  0
    3.9000    0.6382   -6.6155 C   0  0  0  0  0  0  0  0  0  0  0  0
    4.5919   -0.5302   -6.2806 C   0  0  0  0  0  0  0  0  0  0  0  0
    4.9443   -0.7824   -4.9521 C   0  0  0  0  0  0  0  0  0  0  0  0
    2.9583   -0.3133   -1.3097 H   0  0  0  0  0  0  0  0  0  0  0  0
    5.1473   -3.2177   -1.9201 H   0  0  0  0  0  0  0  0  0  0  0  0
    4.2205   -5.4613   -2.5723 H   0  0  0  0  0  0  0  0  0  0  0  0
    2.6948   -9.2675   -2.0121 H   0  0  0  0  0  0  0  0  0  0  0  0
    2.7333  -11.3669   -3.3843 H   0  0  0  0  0  0  0  0  0  0  0  0
    0.9962  -11.7358   -5.1306 H   0  0  0  0  0  0  0  0  0  0  0  0
   -0.7822  -10.0345   -5.5134 H   0  0  0  0  0  0  0  0  0  0  0  0
   -0.8222   -7.9419   -4.1361 H   0  0  0  0  0  0  0  0  0  0  0  0
   -0.3289   -4.7355   -2.5728 H   0  0  0  0  0  0  0  0  0  0  0  0
    1.1276   -1.6138   -2.0655 H   0  0  0  0  0  0  0  0  0  0  0  0
    3.6685    2.0471   -3.5071 H   0  0  0  0  0  0  0  0  0  0  0  0
    3.0334    2.4855   -5.8908 H   0  0  0  0  0  0  0  0  0  0  0  0
    3.6299    0.8313   -7.6567 H   0  0  0  0  0  0  0  0  0  0  0  0
    4.8658   -1.2474   -7.0581 H   0  0  0  0  0  0  0  0  0  0  0  0
    5.5026   -1.6775   -4.6745 H   0  0  0  0  0  0  0  0  0  0  0  0
  1  2  2  0
  2  3  2  0
  2  4  1  1
  2 22  1  0
  4  5  1  0
  4 28  1  0
  5  6  2  0
  5 21  1  0
  6  7  1  0
  6 29  1  0
  7  8  2  0
  7 30  1  0
  8  9  1  0
  8 19  1  0
 10  9  1  6
 10 11  2  0
 10 12  2  0
 10 13  1  0
 13 14  2  0
 13 18  1  0
 14 15  1  0
 14 31  1  0
 15 16  2  0
 15 32  1  0
 16 17  1  0
 16 33  1  0
 17 18  2  0
 17 34  1  0
 18 35  1  0
 19 20  1  0
 19 21  2  0
 20 36  1  0
 21 37  1  0
 22 23  2  0
 22 27  1  0
 23 24  1  0
 23 38  1  0
 24 25  2  0
 24 39  1  0
 25 26  1  0
 25 40  1  0
 26 27  2  0
 26 41  1  0
 27 42  1  0
M  END

