
     RDKit          3D

 39 41  0  0  0  0  0  0  0  0999 V2000
    1.0963   -0.2619    0.2149 C   0  0  0  0  0  0  0  0  0  0  0  0
    2.5734   -0.0732    0.1095 C   0  0  0  0  0  0  0  0  0  0  0  0
    3.2162    1.0629   -0.0768 N   0  0  0  0  0  0  0  0  0  0  0  0
    4.5361    0.6995   -0.1007 C   0  0  0  0  0  0  0  0  0  0  0  0
    5.6333    1.6611   -0.2885 C   0  0  0  0  0  0  0  0  0  0  0  0
    5.3534    3.0287   -0.4525 C   0  0  0  0  0  0  0  0  0  0  0  0
    6.3880    3.9440   -0.6275 C   0  0  0  0  0  0  0  0  0  0  0  0
    7.7254    3.5195   -0.6600 C   0  0  0  0  0  0  0  0  0  0  0  0
    8.7828    4.5748   -0.8526 C   0  0  0  0  0  0  0  0  0  0  0  0
    8.5503    5.7599   -0.6605 O   0  0  0  0  0  0  0  0  0  0  0  0
   10.0117    4.1368   -1.2708 N   0  0  0  0  0  0  0  0  0  0  0  0
   11.1159    5.0543   -1.5007 C   0  0  0  0  0  0  0  0  0  0  0  0
   11.9596    5.3073   -0.2436 C   0  0  1  0  0  0  0  0  0  0  0  0
   12.6568    4.0647    0.3277 C   0  0  0  0  0  0  0  0  0  0  0  0
   13.8526    4.5454    1.1536 C   0  0  0  0  0  0  0  0  0  0  0  0
   14.6101    5.5472    0.2777 C   0  0  0  0  0  0  0  0  0  0  0  0
   13.3209    6.5232   -0.6144 S   0  0  0  0  0  0  0  0  0  0  0  0
    8.0029    2.1530   -0.4818 C   0  0  0  0  0  0  0  0  0  0  0  0
    6.9722    1.2338   -0.2988 C   0  0  0  0  0  0  0  0  0  0  0  0
    4.7367   -0.6046    0.0615 N   0  0  0  0  0  0  0  0  0  0  0  0
    3.4848   -1.0792    0.1934 N   0  0  0  0  0  0  0  0  0  0  0  0
    3.3292   -2.0711    0.3342 H   0  0  0  0  0  0  0  0  0  0  0  0
    0.6096    0.7170    0.1223 H   0  0  0  0  0  0  0  0  0  0  0  0
    0.8113   -0.7044    1.1834 H   0  0  0  0  0  0  0  0  0  0  0  0
    0.7132   -0.9196   -0.5826 H   0  0  0  0  0  0  0  0  0  0  0  0
    4.3128    3.3569   -0.4362 H   0  0  0  0  0  0  0  0  0  0  0  0
    6.1847    5.0103   -0.7422 H   0  0  0  0  0  0  0  0  0  0  0  0
   10.1327    3.1619   -1.5088 H   0  0  0  0  0  0  0  0  0  0  0  0
   10.6918    6.0061   -1.8529 H   0  0  0  0  0  0  0  0  0  0  0  0
   11.7587    4.6498   -2.2987 H   0  0  0  0  0  0  0  0  0  0  0  0
   11.3082    5.7611    0.5197 H   0  0  0  0  0  0  0  0  0  0  0  0
   13.0158    3.4307   -0.5040 H   0  0  0  0  0  0  0  0  0  0  0  0
   11.9548    3.4598    0.9242 H   0  0  0  0  0  0  0  0  0  0  0  0
   14.5044    3.7129    1.4674 H   0  0  0  0  0  0  0  0  0  0  0  0
   13.4944    5.0473    2.0680 H   0  0  0  0  0  0  0  0  0  0  0  0
   15.2545    5.0336   -0.4538 H   0  0  0  0  0  0  0  0  0  0  0  0
   15.2376    6.2366    0.8616 H   0  0  0  0  0  0  0  0  0  0  0  0
    9.0346    1.7919   -0.4544 H   0  0  0  0  0  0  0  0  0  0  0  0
    7.1931    0.1748   -0.1539 H   0  0  0  0  0  0  0  0  0  0  0  0
  1  2  1  0
  1 23  1  0
  1 24  1  0
  1 25  1  0
  2  3  2  0
  2 21  1  0
  3  4  1  0
  4  5  1  0
  4 20  2  0
  5  6  2  0
  5 19  1  0
  6  7  1  0
  6 26  1  0
  7  8  2  0
  7 27  1  0
  8  9  1  0
  8 18  1  0
  9 10  2  0
  9 11  1  0
 11 12  1  0
 11 28  1  0
 12 13  1  0
 12 29  1  0
 12 30  1  0
 13 14  1  0
 13 17  1  0
 13 31  1  1
 14 15  1  0
 14 32  1  0
 14 33  1  0
 15 16  1  0
 15 34  1  0
 15 35  1  0
 16 17  1  0
 16 36  1  0
 16 37  1  0
 18 19  2  0
 18 38  1  0
 19 39  1  0
 20 21  1  0
 21 22  1  0
M  END

