
     RDKit          3D

 28 29  0  0  0  0  0  0  0  0999 V2000
    5.1453   -1.2738   -1.3472 C   0  0  0  0  0  0  0  0  0  0  0  0
    4.1114   -0.2783   -0.9054 C   0  0  0  0  0  0  0  0  0  0  0  0
    4.3102    1.4096   -1.3082 S   0  0  0  0  0  0  0  0  0  0  0  0
    2.8538    1.8460   -0.4788 C   0  0  0  0  0  0  0  0  0  0  0  0
    2.2533    0.7515    0.0791 C   0  0  0  0  0  0  0  0  0  0  0  0
    2.9684   -0.4721   -0.1558 C   0  0  0  0  0  0  0  0  0  0  0  0
    2.5013   -1.7975    0.4013 C   0  0  0  0  0  0  0  0  0  0  0  0
    1.0911   -2.0559    0.1409 N   0  0  0  0  0  0  0  0  0  0  0  0
    0.6968   -2.3038   -1.2307 C   0  0  0  0  0  0  0  0  0  0  0  0
    0.3166   -2.6056    1.1396 C   0  0  0  0  0  0  0  0  0  0  0  0
   -0.8349   -3.2182    0.8986 N   0  0  0  0  0  0  0  0  0  0  0  0
   -1.2615   -3.5195    2.1730 N   0  0  0  0  0  0  0  0  0  0  0  0
   -2.0957   -4.0747    2.3099 H   0  0  0  0  0  0  0  0  0  0  0  0
   -0.3470   -3.1049    3.0779 C   0  0  0  0  0  0  0  0  0  0  0  0
   -0.4409   -3.3294    4.4337 N   0  0  0  0  0  0  0  0  0  0  0  0
    0.6613   -2.5134    2.4655 N   0  0  0  0  0  0  0  0  0  0  0  0
    5.5962   -0.9868   -2.3098 H   0  0  0  0  0  0  0  0  0  0  0  0
    4.7016   -2.2731   -1.4729 H   0  0  0  0  0  0  0  0  0  0  0  0
    5.9674   -1.3693   -0.6162 H   0  0  0  0  0  0  0  0  0  0  0  0
    2.5242    2.8838   -0.4554 H   0  0  0  0  0  0  0  0  0  0  0  0
    1.3186    0.7907    0.6406 H   0  0  0  0  0  0  0  0  0  0  0  0
    2.6281   -1.8060    1.4934 H   0  0  0  0  0  0  0  0  0  0  0  0
    3.1299   -2.6189    0.0032 H   0  0  0  0  0  0  0  0  0  0  0  0
    1.2047   -1.5844   -1.8896 H   0  0  0  0  0  0  0  0  0  0  0  0
   -0.3895   -2.1793   -1.3346 H   0  0  0  0  0  0  0  0  0  0  0  0
    0.9491   -3.3309   -1.5661 H   0  0  0  0  0  0  0  0  0  0  0  0
   -1.3731   -3.2911    4.8326 H   0  0  0  0  0  0  0  0  0  0  0  0
    0.2358   -2.7915    4.9653 H   0  0  0  0  0  0  0  0  0  0  0  0
  1  2  1  0
  1 17  1  0
  1 18  1  0
  1 19  1  0
  2  3  1  0
  2  6  2  0
  3  4  1  0
  4  5  2  0
  4 20  1  0
  5  6  1  0
  5 21  1  0
  6  7  1  0
  7  8  1  0
  7 22  1  0
  7 23  1  0
  8  9  1  0
  8 10  1  0
  9 24  1  0
  9 25  1  0
  9 26  1  0
 10 11  2  0
 10 16  1  0
 11 12  1  0
 12 13  1  0
 12 14  1  0
 14 15  1  0
 14 16  2  0
 15 27  1  0
 15 28  1  0
M  END

