
     RDKit          3D

 40 42  0  0  0  0  0  0  0  0999 V2000
    1.1442   -1.5049    0.3552 C   0  0  0  0  0  0  0  0  0  0  0  0
    2.5983   -1.4167    0.4336 N   0  0  0  0  0  0  0  0  0  0  0  0
    3.1848   -1.5856    1.7716 C   0  0  0  0  0  0  0  0  0  0  0  0
    3.3390   -0.3134    2.5421 C   0  0  0  0  0  0  0  0  0  0  0  0
    4.4337    0.3800    2.9846 C   0  0  0  0  0  0  0  0  0  0  0  0
    3.9338    1.5426    3.6621 C   0  0  0  0  0  0  0  0  0  0  0  0
    2.5739    1.4699    3.5765 C   0  0  0  0  0  0  0  0  0  0  0  0
    2.2026    0.3499    2.9040 O   0  0  0  0  0  0  0  0  0  0  0  0
    3.2750   -0.9638   -0.6663 C   0  0  0  0  0  0  0  0  0  0  0  0
    2.7126   -0.6427   -1.7076 O   0  0  0  0  0  0  0  0  0  0  0  0
    4.7880   -0.8476   -0.6509 C   0  0  0  0  0  0  0  0  0  0  0  0
    5.4918   -1.7630   -0.0928 N   0  0  0  0  0  0  0  0  0  0  0  0
    6.8658   -1.7158   -0.1565 N   0  0  0  0  0  0  0  0  0  0  0  0
    7.5288   -2.6956    0.6608 C   0  0  0  0  0  0  0  0  0  0  0  0
    8.7404   -2.3969    1.2998 C   0  0  0  0  0  0  0  0  0  0  0  0
    9.3582   -3.3647    2.0961 C   0  0  0  0  0  0  0  0  0  0  0  0
    8.7781   -4.6240    2.2686 C   0  0  0  0  0  0  0  0  0  0  0  0
    7.5673   -4.9148    1.6331 C   0  0  0  0  0  0  0  0  0  0  0  0
    6.9435   -3.9589    0.8296 C   0  0  0  0  0  0  0  0  0  0  0  0
    7.5696   -0.9598   -1.1153 C   0  0  0  0  0  0  0  0  0  0  0  0
    8.7784   -0.9716   -1.1872 O   0  0  0  0  0  0  0  0  0  0  0  0
    6.6850   -0.1900   -2.0769 C   0  0  0  0  0  0  0  0  0  0  0  0
    5.3973    0.2924   -1.4200 C   0  0  0  0  0  0  0  0  0  0  0  0
    0.8077   -2.4967    0.7008 H   0  0  0  0  0  0  0  0  0  0  0  0
    0.8364   -1.3553   -0.6852 H   0  0  0  0  0  0  0  0  0  0  0  0
    0.6697   -0.7363    0.9875 H   0  0  0  0  0  0  0  0  0  0  0  0
    4.1634   -2.0668    1.6904 H   0  0  0  0  0  0  0  0  0  0  0  0
    2.5227   -2.2746    2.3204 H   0  0  0  0  0  0  0  0  0  0  0  0
    5.4731    0.0893    2.8462 H   0  0  0  0  0  0  0  0  0  0  0  0
    4.5119    2.3258    4.1480 H   0  0  0  0  0  0  0  0  0  0  0  0
    1.7671    2.1069    3.9296 H   0  0  0  0  0  0  0  0  0  0  0  0
    9.2020   -1.4206    1.1659 H   0  0  0  0  0  0  0  0  0  0  0  0
   10.3035   -3.1244    2.5892 H   0  0  0  0  0  0  0  0  0  0  0  0
    9.2665   -5.3750    2.8944 H   0  0  0  0  0  0  0  0  0  0  0  0
    7.1036   -5.8968    1.7570 H   0  0  0  0  0  0  0  0  0  0  0  0
    5.9991   -4.1801    0.3320 H   0  0  0  0  0  0  0  0  0  0  0  0
    6.4482   -0.8766   -2.9103 H   0  0  0  0  0  0  0  0  0  0  0  0
    7.2882    0.6273   -2.4939 H   0  0  0  0  0  0  0  0  0  0  0  0
    4.6740    0.6669   -2.1548 H   0  0  0  0  0  0  0  0  0  0  0  0
    5.6053    1.1156   -0.7097 H   0  0  0  0  0  0  0  0  0  0  0  0
  1  2  1  0
  1 24  1  0
  1 25  1  0
  1 26  1  0
  2  3  1  0
  2  9  1  0
  3  4  1  0
  3 27  1  0
  3 28  1  0
  4  5  2  0
  4  8  1  0
  5  6  1  0
  5 29  1  0
  6  7  2  0
  6 30  1  0
  7  8  1  0
  7 31  1  0
  9 10  2  0
  9 11  1  0
 11 12  2  0
 11 23  1  0
 12 13  1  0
 13 14  1  0
 13 20  1  0
 14 15  2  0
 14 19  1  0
 15 16  1  0
 15 32  1  0
 16 17  2  0
 16 33  1  0
 17 18  1  0
 17 34  1  0
 18 19  2  0
 18 35  1  0
 19 36  1  0
 20 21  2  0
 20 22  1  0
 22 23  1  0
 22 37  1  0
 22 38  1  0
 23 39  1  0
 23 40  1  0
M  END

