
     RDKit          3D

 61 66  0  0  0  0  0  0  0  0999 V2000
   -0.7164   -0.7114   -1.9036 F   0  0  0  0  0  0  0  0  0  0  0  0
   -0.6096   -1.5131   -0.8297 C   0  0  1  0  0  0  0  0  0  0  0  0
   -0.3005   -0.7315    0.2231 F   0  0  0  0  0  0  0  0  0  0  0  0
   -1.8338   -2.0195   -0.5858 F   0  0  0  0  0  0  0  0  0  0  0  0
    0.4114   -2.6042   -1.0277 C   0  0  0  0  0  0  0  0  0  0  0  0
    1.1365   -2.7101   -2.2173 C   0  0  0  0  0  0  0  0  0  0  0  0
    2.0766   -3.7296   -2.3742 C   0  0  0  0  0  0  0  0  0  0  0  0
    2.3117   -4.6624   -1.3501 C   0  0  0  0  0  0  0  0  0  0  0  0
    3.3087   -5.7678   -1.4764 C   0  0  0  0  0  0  0  0  0  0  0  0
    4.0739   -5.9688   -2.6378 C   0  0  0  0  0  0  0  0  0  0  0  0
    4.9980   -7.0253   -2.7068 C   0  0  0  0  0  0  0  0  0  0  0  0
    5.8217   -7.2587   -3.9182 C   0  0  0  0  0  0  0  0  0  0  0  0
    6.2526   -6.1930   -4.7309 C   0  0  0  0  0  0  0  0  0  0  0  0
    7.0225   -6.4080   -5.8704 C   0  0  0  0  0  0  0  0  0  0  0  0
    7.4046   -7.7110   -6.2470 C   0  0  0  0  0  0  0  0  0  0  0  0
    8.1879   -7.9350   -7.3992 N   0  0  0  0  0  0  0  0  0  0  0  0
    9.1932   -7.0018   -7.7800 C   0  0  0  0  0  0  0  0  0  0  0  0
   10.0843   -6.4787   -6.8259 C   0  0  0  0  0  0  0  0  0  0  0  0
   11.0668   -5.5631   -7.2064 C   0  0  0  0  0  0  0  0  0  0  0  0
   11.1903   -5.1679   -8.5424 C   0  0  0  0  0  0  0  0  0  0  0  0
   10.3131   -5.6943   -9.4959 C   0  0  0  0  0  0  0  0  0  0  0  0
    9.3169   -6.5975   -9.1209 C   0  0  0  0  0  0  0  0  0  0  0  0
    7.9832   -9.0963   -8.1963 C   0  0  0  0  0  0  0  0  0  0  0  0
    6.6844   -9.5072   -8.5456 C   0  0  0  0  0  0  0  0  0  0  0  0
    6.4920  -10.6481   -9.3265 C   0  0  0  0  0  0  0  0  0  0  0  0
    7.5867  -11.3869   -9.7871 C   0  0  0  0  0  0  0  0  0  0  0  0
    8.8803  -10.9751   -9.4510 C   0  0  0  0  0  0  0  0  0  0  0  0
    9.0809   -9.8450   -8.6565 C   0  0  0  0  0  0  0  0  0  0  0  0
    6.9813   -8.7835   -5.4365 C   0  0  0  0  0  0  0  0  0  0  0  0
    6.2069   -8.5572   -4.3027 C   0  0  0  0  0  0  0  0  0  0  0  0
    5.1052   -7.8506   -1.5762 C   0  0  0  0  0  0  0  0  0  0  0  0
    4.3005   -7.5833   -0.4603 C   0  0  0  0  0  0  0  0  0  0  0  0
    4.3966   -8.4356    0.7421 C   0  0  0  0  0  0  0  0  0  0  0  0
    3.6717   -8.2568    1.8832 N   0  0  0  0  0  0  0  0  0  0  0  0
    4.0319   -9.1955    2.7044 N   0  0  0  0  0  0  0  0  0  0  0  0
    4.9465   -9.9086    2.0618 N   0  0  0  0  0  0  0  0  0  0  0  0
    5.4009  -10.7148    2.4819 H   0  0  0  0  0  0  0  0  0  0  0  0
    5.2133   -9.4852    0.8419 N   0  0  0  0  0  0  0  0  0  0  0  0
    3.4328   -6.5735   -0.4137 N   0  0  0  0  0  0  0  0  0  0  0  0
    1.5726   -4.5419   -0.1565 C   0  0  0  0  0  0  0  0  0  0  0  0
    0.6349   -3.5270    0.0039 C   0  0  0  0  0  0  0  0  0  0  0  0
    0.9665   -1.9945   -3.0228 H   0  0  0  0  0  0  0  0  0  0  0  0
    2.6265   -3.7835   -3.3148 H   0  0  0  0  0  0  0  0  0  0  0  0
    3.9391   -5.3229   -3.5043 H   0  0  0  0  0  0  0  0  0  0  0  0
    5.9941   -5.1664   -4.4616 H   0  0  0  0  0  0  0  0  0  0  0  0
    7.3374   -5.5576   -6.4769 H   0  0  0  0  0  0  0  0  0  0  0  0
   10.0025   -6.7953   -5.7842 H   0  0  0  0  0  0  0  0  0  0  0  0
   11.7512   -5.1662   -6.4521 H   0  0  0  0  0  0  0  0  0  0  0  0
   11.9649   -4.4564   -8.8381 H   0  0  0  0  0  0  0  0  0  0  0  0
   10.3953   -5.3904  -10.5427 H   0  0  0  0  0  0  0  0  0  0  0  0
    8.6272   -6.9968   -9.8670 H   0  0  0  0  0  0  0  0  0  0  0  0
    5.8264   -8.9260   -8.2021 H   0  0  0  0  0  0  0  0  0  0  0  0
    5.4756  -10.9534   -9.5888 H   0  0  0  0  0  0  0  0  0  0  0  0
    7.4328  -12.2753  -10.4040 H   0  0  0  0  0  0  0  0  0  0  0  0
    9.7448  -11.5457   -9.8003 H   0  0  0  0  0  0  0  0  0  0  0  0
   10.0923   -9.5344   -8.3874 H   0  0  0  0  0  0  0  0  0  0  0  0
    7.2619   -9.8036   -5.7032 H   0  0  0  0  0  0  0  0  0  0  0  0
    5.8845   -9.4157   -3.7094 H   0  0  0  0  0  0  0  0  0  0  0  0
    5.8143   -8.6777   -1.5402 H   0  0  0  0  0  0  0  0  0  0  0  0
    1.7570   -5.2666    0.6373 H   0  0  0  0  0  0  0  0  0  0  0  0
    0.0714   -3.4502    0.9366 H   0  0  0  0  0  0  0  0  0  0  0  0
  2  1  1  6
  2  3  1  0
  2  4  1  0
  2  5  1  0
  5  6  2  0
  5 41  1  0
  6  7  1  0
  6 42  1  0
  7  8  2  0
  7 43  1  0
  8  9  1  0
  8 40  1  0
  9 10  2  0
  9 39  1  0
 10 11  1  0
 10 44  1  0
 11 12  1  0
 11 31  2  0
 12 13  2  0
 12 30  1  0
 13 14  1  0
 13 45  1  0
 14 15  2  0
 14 46  1  0
 15 16  1  0
 15 29  1  0
 16 17  1  0
 16 23  1  0
 17 18  2  0
 17 22  1  0
 18 19  1  0
 18 47  1  0
 19 20  2  0
 19 48  1  0
 20 21  1  0
 20 49  1  0
 21 22  2  0
 21 50  1  0
 22 51  1  0
 23 24  2  0
 23 28  1  0
 24 25  1  0
 24 52  1  0
 25 26  2  0
 25 53  1  0
 26 27  1  0
 26 54  1  0
 27 28  2  0
 27 55  1  0
 28 56  1  0
 29 30  2  0
 29 57  1  0
 30 58  1  0
 31 32  1  0
 31 59  1  0
 32 33  1  0
 32 39  2  0
 33 34  1  0
 33 38  2  0
 34 35  2  0
 35 36  1  0
 36 37  1  0
 36 38  1  0
 40 41  2  0
 40 60  1  0
 41 61  1  0
M  END

