
     RDKit          3D

 51 55  0  0  0  0  0  0  0  0999 V2000
    0.4734    0.0649   -0.6031 O   0  0  0  0  0  0  0  0  0  0  0  0
   -0.0733    1.1921   -0.7468 C   0  0  0  0  0  0  0  0  0  0  0  0
    0.6141    2.2377   -1.5045 C   0  0  0  0  0  0  0  0  0  0  0  0
    1.8403    2.0054   -2.0395 C   0  0  0  0  0  0  0  0  0  0  0  0
    2.6294    2.9609   -2.7827 C   0  0  0  0  0  0  0  0  0  0  0  0
    2.3975    4.3286   -2.9176 C   0  0  0  0  0  0  0  0  0  0  0  0
    3.4322    4.8485   -3.6241 N   0  0  0  0  0  0  0  0  0  0  0  0
    3.6372    6.2024   -4.0093 C   0  0  0  0  0  0  0  0  0  0  0  0
    2.5807    7.1235   -3.9641 C   0  0  0  0  0  0  0  0  0  0  0  0
    2.8070    8.4522   -4.3282 C   0  0  0  0  0  0  0  0  0  0  0  0
    4.0735    8.8675   -4.7490 C   0  0  0  0  0  0  0  0  0  0  0  0
    5.1180    7.9392   -4.8048 C   0  0  0  0  0  0  0  0  0  0  0  0
    4.9090    6.6098   -4.4364 C   0  0  0  0  0  0  0  0  0  0  0  0
    4.3357    3.9028   -3.9656 N   0  0  0  0  0  0  0  0  0  0  0  0
    3.8774    2.7555   -3.4772 C   0  0  0  0  0  0  0  0  0  0  0  0
    4.6419    1.5088   -3.6797 C   0  0  0  0  0  0  0  0  0  0  0  0
    6.0493    1.5492   -3.6954 C   0  0  0  0  0  0  0  0  0  0  0  0
    6.7920    0.3862   -3.8970 C   0  0  0  0  0  0  0  0  0  0  0  0
    6.1448   -0.8397   -4.0883 C   0  0  0  0  0  0  0  0  0  0  0  0
    4.7484   -0.8907   -4.0857 C   0  0  0  0  0  0  0  0  0  0  0  0
    4.0015    0.2732   -3.8866 C   0  0  0  0  0  0  0  0  0  0  0  0
   -1.3979    1.4108   -0.1428 C   0  0  0  0  0  0  0  0  0  0  0  0
   -1.9682    0.3288    0.5609 C   0  0  0  0  0  0  0  0  0  0  0  0
   -1.3610   -0.8153    0.6781 O   0  0  0  0  0  0  0  0  0  0  0  0
   -3.2716    0.4675    1.1833 C   0  0  0  0  0  0  0  0  0  0  0  0
   -3.8935   -0.5762    1.8973 C   0  0  0  0  0  0  0  0  0  0  0  0
   -5.1433   -0.3809    2.4699 C   0  0  0  0  0  0  0  0  0  0  0  0
   -5.7869    0.8629    2.3348 C   0  0  0  0  0  0  0  0  0  0  0  0
   -5.1884    1.9053    1.6336 C   0  0  0  0  0  0  0  0  0  0  0  0
   -3.9270    1.7041    1.0573 C   0  0  0  0  0  0  0  0  0  0  0  0
   -3.3692    2.7344    0.3822 O   0  0  0  0  0  0  0  0  0  0  0  0
   -2.1230    2.6795   -0.2420 C   0  0  0  0  0  0  0  0  0  0  0  0
   -1.7763    3.6919   -0.7989 O   0  0  0  0  0  0  0  0  0  0  0  0
    0.0986    3.1891   -1.6174 H   0  0  0  0  0  0  0  0  0  0  0  0
    2.2736    1.0139   -1.8827 H   0  0  0  0  0  0  0  0  0  0  0  0
    1.5984    4.9457   -2.5173 H   0  0  0  0  0  0  0  0  0  0  0  0
    1.5797    6.8108   -3.6641 H   0  0  0  0  0  0  0  0  0  0  0  0
    1.9792    9.1645   -4.2909 H   0  0  0  0  0  0  0  0  0  0  0  0
    4.2439    9.9074   -5.0367 H   0  0  0  0  0  0  0  0  0  0  0  0
    6.1113    8.2518   -5.1364 H   0  0  0  0  0  0  0  0  0  0  0  0
    5.7117    5.8748   -4.4760 H   0  0  0  0  0  0  0  0  0  0  0  0
    6.5505    2.5065   -3.5416 H   0  0  0  0  0  0  0  0  0  0  0  0
    7.8840    0.4348   -3.9011 H   0  0  0  0  0  0  0  0  0  0  0  0
    6.7277   -1.7511   -4.2432 H   0  0  0  0  0  0  0  0  0  0  0  0
    4.2338   -1.8410   -4.2487 H   0  0  0  0  0  0  0  0  0  0  0  0
    2.9118    0.2228   -3.9234 H   0  0  0  0  0  0  0  0  0  0  0  0
   -0.4533   -0.6806    0.1581 H   0  0  0  0  0  0  0  0  0  0  0  0
   -3.3690   -1.5289    1.9845 H   0  0  0  0  0  0  0  0  0  0  0  0
   -5.6262   -1.1889    3.0234 H   0  0  0  0  0  0  0  0  0  0  0  0
   -6.7707    1.0166    2.7854 H   0  0  0  0  0  0  0  0  0  0  0  0
   -5.6706    2.8772    1.5174 H   0  0  0  0  0  0  0  0  0  0  0  0
  1  2  2  0
  2  3  1  0
  2 22  1  0
  3  4  2  0
  3 34  1  0
  4  5  1  0
  4 35  1  0
  5  6  2  0
  5 15  1  0
  6  7  1  0
  6 36  1  0
  7  8  1  0
  7 14  1  0
  8  9  2  0
  8 13  1  0
  9 10  1  0
  9 37  1  0
 10 11  2  0
 10 38  1  0
 11 12  1  0
 11 39  1  0
 12 13  2  0
 12 40  1  0
 13 41  1  0
 14 15  2  0
 15 16  1  0
 16 17  2  0
 16 21  1  0
 17 18  1  0
 17 42  1  0
 18 19  2  0
 18 43  1  0
 19 20  1  0
 19 44  1  0
 20 21  2  0
 20 45  1  0
 21 46  1  0
 22 23  2  0
 22 32  1  0
 23 24  1  0
 23 25  1  0
 24 47  1  0
 25 26  2  0
 25 30  1  0
 26 27  1  0
 26 48  1  0
 27 28  2  0
 27 49  1  0
 28 29  1  0
 28 50  1  0
 29 30  2  0
 29 51  1  0
 30 31  1  0
 31 32  1  0
 32 33  2  0
M  END

