
     RDKit          3D

 38 41  0  0  0  0  0  0  0  0999 V2000
    1.1363    0.2585    0.8995 O   0  0  0  0  0  0  0  0  0  0  0  0
    2.1208    0.0396    0.2084 C   0  0  0  0  0  0  0  0  0  0  0  0
    2.5260    0.8564   -0.8441 N   0  0  0  0  0  0  0  0  0  0  0  0
    1.9034    2.0182   -1.3314 C   0  0  0  0  0  0  0  0  0  0  0  0
    0.7173    2.5491   -0.7860 C   0  0  0  0  0  0  0  0  0  0  0  0
    0.1325    3.7151   -1.3108 C   0  0  0  0  0  0  0  0  0  0  0  0
    0.7632    4.3207   -2.3788 C   0  0  0  0  0  0  0  0  0  0  0  0
    1.9321    3.8004   -2.9177 C   0  0  0  0  0  0  0  0  0  0  0  0
    2.5326    2.6588   -2.4295 C   0  0  0  0  0  0  0  0  0  0  0  0
    2.3291    4.6046   -3.9617 O   0  0  0  0  0  0  0  0  0  0  0  0
    1.3935    5.6273   -4.0611 C   0  0  1  0  0  0  0  0  0  0  0  0
    1.9965    6.8142   -3.9175 F   0  0  0  0  0  0  0  0  0  0  0  0
    0.8376    5.6214   -5.2791 F   0  0  0  0  0  0  0  0  0  0  0  0
    0.4255    5.4584   -3.0892 O   0  0  0  0  0  0  0  0  0  0  0  0
    2.9201   -1.0593    0.4209 N   0  0  0  0  0  0  0  0  0  0  0  0
    2.6626   -1.9022    1.5899 C   0  0  0  0  0  0  0  0  0  0  0  0
    3.7341   -3.0182    1.5397 C   0  0  1  0  0  0  0  0  0  0  0  0
    3.1450   -4.4384    1.5121 C   0  0  0  0  0  0  0  0  0  0  0  0
    2.6887   -4.6101    0.0561 C   0  0  0  0  0  0  0  0  0  0  0  0
    3.8124   -3.9446   -0.7635 C   0  0  0  0  0  0  0  0  0  0  0  0
    4.4392   -2.8510    0.1557 C   0  0  1  0  0  0  0  0  0  0  0  0
    4.1663   -1.3965   -0.2540 C   0  0  0  0  0  0  0  0  0  0  0  0
    3.3767    0.5992   -1.3256 H   0  0  0  0  0  0  0  0  0  0  0  0
    0.2606    2.0359    0.0562 H   0  0  0  0  0  0  0  0  0  0  0  0
   -0.7858    4.1217   -0.8849 H   0  0  0  0  0  0  0  0  0  0  0  0
    3.4510    2.2730   -2.8760 H   0  0  0  0  0  0  0  0  0  0  0  0
    1.6345   -2.2966    1.5456 H   0  0  0  0  0  0  0  0  0  0  0  0
    2.7248   -1.3107    2.5193 H   0  0  0  0  0  0  0  0  0  0  0  0
    4.4432   -2.8884    2.3711 H   0  0  0  0  0  0  0  0  0  0  0  0
    2.3369   -4.5829    2.2470 H   0  0  0  0  0  0  0  0  0  0  0  0
    3.9350   -5.1717    1.7502 H   0  0  0  0  0  0  0  0  0  0  0  0
    1.7346   -4.0800   -0.1028 H   0  0  0  0  0  0  0  0  0  0  0  0
    2.5188   -5.6615   -0.2232 H   0  0  0  0  0  0  0  0  0  0  0  0
    3.4468   -3.5307   -1.7166 H   0  0  0  0  0  0  0  0  0  0  0  0
    4.5827   -4.6894   -1.0202 H   0  0  0  0  0  0  0  0  0  0  0  0
    5.5242   -3.0110    0.2380 H   0  0  0  0  0  0  0  0  0  0  0  0
    4.0697   -1.3038   -1.3497 H   0  0  0  0  0  0  0  0  0  0  0  0
    4.9974   -0.7344    0.0648 H   0  0  0  0  0  0  0  0  0  0  0  0
  1  2  2  0
  2  3  1  0
  2 15  1  0
  3  4  1  0
  3 23  1  0
  4  5  2  0
  4  9  1  0
  5  6  1  0
  5 24  1  0
  6  7  2  0
  6 25  1  0
  7  8  1  0
  7 14  1  0
  8  9  2  0
  8 10  1  0
  9 26  1  0
 10 11  1  0
 11 12  1  1
 11 13  1  0
 11 14  1  0
 15 16  1  0
 15 22  1  0
 16 17  1  0
 16 27  1  0
 16 28  1  0
 17 18  1  0
 17 21  1  0
 17 29  1  1
 18 19  1  0
 18 30  1  0
 18 31  1  0
 19 20  1  0
 19 32  1  0
 19 33  1  0
 20 21  1  0
 20 34  1  0
 20 35  1  0
 21 22  1  0
 21 36  1  1
 22 37  1  0
 22 38  1  0
M  END

