
     RDKit          3D

 35 36  0  0  0  0  0  0  0  0999 V2000
    1.4637    0.6161    1.1683 C   0  0  0  0  0  0  0  0  0  0  0  0
    2.3491   -0.0278    0.2741 O   0  0  0  0  0  0  0  0  0  0  0  0
    2.9332    0.6787   -0.7091 C   0  0  0  0  0  0  0  0  0  0  0  0
    2.7312    2.0498   -0.9318 C   0  0  0  0  0  0  0  0  0  0  0  0
    3.4024    2.6912   -1.9697 C   0  0  0  0  0  0  0  0  0  0  0  0
    4.2595    2.0044   -2.8433 C   0  0  0  0  0  0  0  0  0  0  0  0
    4.9118    2.7191   -3.9822 C   0  0  0  0  0  0  0  0  0  0  0  0
    5.2054    2.1618   -5.0232 O   0  0  0  0  0  0  0  0  0  0  0  0
    5.2056    4.2223   -3.8374 C   0  0  0  0  0  0  0  0  0  0  0  0
    4.1646    5.1064   -4.5059 C   0  0  0  0  0  0  0  0  0  0  0  0
    3.8003    4.9025   -5.8474 C   0  0  0  0  0  0  0  0  0  0  0  0
    2.8536    5.7287   -6.4552 C   0  0  0  0  0  0  0  0  0  0  0  0
    2.2505    6.7728   -5.7459 C   0  0  0  0  0  0  0  0  0  0  0  0
    2.6166    6.9727   -4.4142 C   0  0  0  0  0  0  0  0  0  0  0  0
    1.8133    8.3911   -3.4182 Br  0  0  0  0  0  0  0  0  0  0  0  0
    3.5625    6.1532   -3.7915 C   0  0  0  0  0  0  0  0  0  0  0  0
    4.4752    0.6157   -2.6244 C   0  0  0  0  0  0  0  0  0  0  0  0
    5.3775   -0.0774   -3.3548 O   0  0  0  0  0  0  0  0  0  0  0  0
    4.8989   -0.8285   -4.4693 C   0  0  0  0  0  0  0  0  0  0  0  0
    3.8154   -0.0232   -1.5622 C   0  0  0  0  0  0  0  0  0  0  0  0
    4.1134   -1.7107   -1.2568 Cl  0  0  0  0  0  0  0  0  0  0  0  0
    1.1212   -0.1552    1.8701 H   0  0  0  0  0  0  0  0  0  0  0  0
    0.5895    1.0388    0.6430 H   0  0  0  0  0  0  0  0  0  0  0  0
    1.9679    1.4193    1.7335 H   0  0  0  0  0  0  0  0  0  0  0  0
    2.0571    2.6212   -0.2948 H   0  0  0  0  0  0  0  0  0  0  0  0
    3.2205    3.7559   -2.1222 H   0  0  0  0  0  0  0  0  0  0  0  0
    6.1762    4.3686   -4.3386 H   0  0  0  0  0  0  0  0  0  0  0  0
    5.3280    4.5110   -2.7849 H   0  0  0  0  0  0  0  0  0  0  0  0
    4.2644    4.0879   -6.4070 H   0  0  0  0  0  0  0  0  0  0  0  0
    2.5780    5.5618   -7.4997 H   0  0  0  0  0  0  0  0  0  0  0  0
    1.5108    7.4200   -6.2195 H   0  0  0  0  0  0  0  0  0  0  0  0
    3.8359    6.3385   -2.7505 H   0  0  0  0  0  0  0  0  0  0  0  0
    5.7686   -1.3612   -4.8769 H   0  0  0  0  0  0  0  0  0  0  0  0
    4.4927   -0.1547   -5.2380 H   0  0  0  0  0  0  0  0  0  0  0  0
    4.1407   -1.5651   -4.1558 H   0  0  0  0  0  0  0  0  0  0  0  0
  1  2  1  0
  1 22  1  0
  1 23  1  0
  1 24  1  0
  2  3  1  0
  3  4  2  0
  3 20  1  0
  4  5  1  0
  4 25  1  0
  5  6  2  0
  5 26  1  0
  6  7  1  0
  6 17  1  0
  7  8  2  0
  7  9  1  0
  9 10  1  0
  9 27  1  0
  9 28  1  0
 10 11  2  0
 10 16  1  0
 11 12  1  0
 11 29  1  0
 12 13  2  0
 12 30  1  0
 13 14  1  0
 13 31  1  0
 14 15  1  0
 14 16  2  0
 16 32  1  0
 17 18  1  0
 17 20  2  0
 18 19  1  0
 19 33  1  0
 19 34  1  0
 19 35  1  0
 20 21  1  0
M  END

