
     RDKit          3D

 36 37  0  0  0  0  0  0  0  0999 V2000
    2.9695   -1.0344    0.1879 C   0  0  0  0  0  0  0  0  0  0  0  0
    2.4655    0.3581   -0.1900 C   0  0  0  0  0  0  0  0  0  0  0  0
    2.8617    0.7833   -1.5424 N   0  0  0  0  0  0  0  0  0  0  0  0
    1.7835    0.9221   -2.5215 C   0  0  0  0  0  0  0  0  0  0  0  0
    1.1358   -0.4003   -2.9003 C   0  0  0  0  0  0  0  0  0  0  0  0
    1.8279   -1.3492   -3.6720 C   0  0  0  0  0  0  0  0  0  0  0  0
    1.1939   -2.5503   -3.9852 C   0  0  0  0  0  0  0  0  0  0  0  0
   -0.1061   -2.7688   -3.5186 C   0  0  0  0  0  0  0  0  0  0  0  0
   -0.7100   -1.7650   -2.7584 C   0  0  0  0  0  0  0  0  0  0  0  0
   -0.1088   -0.6105   -2.4544 N   0  0  0  0  0  0  0  0  0  0  0  0
    4.1540    1.2162   -1.6885 C   0  0  0  0  0  0  0  0  0  0  0  0
    4.9113    1.2912   -0.7238 O   0  0  0  0  0  0  0  0  0  0  0  0
    4.7038    1.6108   -3.0392 C   0  0  0  0  0  0  0  0  0  0  0  0
    5.7851    2.5149   -3.0590 C   0  0  0  0  0  0  0  0  0  0  0  0
    6.3936    2.8760   -4.1799 N   0  0  0  0  0  0  0  0  0  0  0  0
    5.9604    2.3241   -5.3258 C   0  0  0  0  0  0  0  0  0  0  0  0
    6.6043    2.7044   -6.4669 N   0  0  0  0  0  0  0  0  0  0  0  0
    6.3251    2.2418   -7.7403 N   0  0  0  0  0  0  0  0  0  0  0  0
    4.8869    1.3969   -5.3167 C   0  0  0  0  0  0  0  0  0  0  0  0
    4.2797    1.0632   -4.1862 N   0  0  0  0  0  0  0  0  0  0  0  0
    2.6325   -1.2934    1.2048 H   0  0  0  0  0  0  0  0  0  0  0  0
    4.0687   -1.0605    0.1772 H   0  0  0  0  0  0  0  0  0  0  0  0
    2.5890   -1.8016   -0.5042 H   0  0  0  0  0  0  0  0  0  0  0  0
    2.8529    1.0958    0.5298 H   0  0  0  0  0  0  0  0  0  0  0  0
    1.3667    0.3854   -0.1535 H   0  0  0  0  0  0  0  0  0  0  0  0
    2.1781    1.4069   -3.4192 H   0  0  0  0  0  0  0  0  0  0  0  0
    0.9900    1.5595   -2.0977 H   0  0  0  0  0  0  0  0  0  0  0  0
    2.8395   -1.1221   -4.0142 H   0  0  0  0  0  0  0  0  0  0  0  0
    1.7044   -3.3074   -4.5868 H   0  0  0  0  0  0  0  0  0  0  0  0
   -0.6417   -3.6954   -3.7379 H   0  0  0  0  0  0  0  0  0  0  0  0
   -1.7285   -1.8994   -2.3746 H   0  0  0  0  0  0  0  0  0  0  0  0
    6.1475    2.9396   -2.1188 H   0  0  0  0  0  0  0  0  0  0  0  0
    7.3685    3.3646   -6.3644 H   0  0  0  0  0  0  0  0  0  0  0  0
    5.3724    2.4773   -8.0239 H   0  0  0  0  0  0  0  0  0  0  0  0
    6.4487    1.2299   -7.8081 H   0  0  0  0  0  0  0  0  0  0  0  0
    4.5316    0.9309   -6.2403 H   0  0  0  0  0  0  0  0  0  0  0  0
  1  2  1  0
  1 21  1  0
  1 22  1  0
  1 23  1  0
  2  3  1  0
  2 24  1  0
  2 25  1  0
  3  4  1  0
  3 11  1  0
  4  5  1  0
  4 26  1  0
  4 27  1  0
  5  6  2  0
  5 10  1  0
  6  7  1  0
  6 28  1  0
  7  8  2  0
  7 29  1  0
  8  9  1  0
  8 30  1  0
  9 10  2  0
  9 31  1  0
 11 12  2  0
 11 13  1  0
 13 14  2  0
 13 20  1  0
 14 15  1  0
 14 32  1  0
 15 16  2  0
 16 17  1  0
 16 19  1  0
 17 18  1  0
 17 33  1  0
 18 34  1  0
 18 35  1  0
 19 20  2  0
 19 36  1  0
M  END

