
     RDKit          3D

 57 59  0  0  0  0  0  0  0  0999 V2000
    2.8141   -6.0414    0.9731 C   0  0  0  0  0  0  0  0  0  0  0  0
    4.0451   -5.2044    0.6870 C   0  0  0  0  0  0  0  0  0  0  0  0
    5.1623   -5.6598    0.8024 O   0  0  0  0  0  0  0  0  0  0  0  0
    3.8288   -3.7569    0.2293 C   0  0  1  0  0  0  0  0  0  0  0  0
    3.1766   -3.7976   -0.6644 H   0  0  0  0  0  0  0  0  0  0  0  0
    3.0530   -2.8862    1.2699 C   0  0  0  0  0  0  0  0  0  0  0  0
    3.8272   -2.5515    2.5245 C   0  0  0  0  0  0  0  0  0  0  0  0
    4.6167   -1.3900    2.5765 C   0  0  0  0  0  0  0  0  0  0  0  0
    5.3575   -1.0740    3.7184 C   0  0  0  0  0  0  0  0  0  0  0  0
    5.3218   -1.9150    4.8348 C   0  0  0  0  0  0  0  0  0  0  0  0
    4.5339   -3.0688    4.8019 C   0  0  0  0  0  0  0  0  0  0  0  0
    3.7939   -3.3803    3.6576 C   0  0  0  0  0  0  0  0  0  0  0  0
    5.1034   -3.2032   -0.1453 N   0  0  0  0  0  0  0  0  0  0  0  0
    5.2413   -2.0864   -0.8970 C   0  0  0  0  0  0  0  0  0  0  0  0
    4.3056   -1.4023   -1.2899 O   0  0  0  0  0  0  0  0  0  0  0  0
    6.6984   -1.6934   -1.1890 C   0  0  0  0  0  0  0  0  0  0  0  0
    7.6453   -2.7839   -1.0218 N   0  0  0  0  0  0  0  0  0  0  0  0
    7.7408   -3.6899   -2.1736 C   0  0  0  0  0  0  0  0  0  0  0  0
    8.6696   -3.1431   -3.2723 C   0  0  0  0  0  0  0  0  0  0  0  0
    9.9984   -2.7864   -2.7760 N   0  0  0  0  0  0  0  0  0  0  0  0
   10.9365   -3.8881   -2.6198 C   0  0  0  0  0  0  0  0  0  0  0  0
   12.3927   -3.4496   -2.6690 C   0  0  0  0  0  0  0  0  0  0  0  0
   13.3605   -4.0873   -1.8805 C   0  0  0  0  0  0  0  0  0  0  0  0
   14.7068   -3.7211   -1.9720 C   0  0  0  0  0  0  0  0  0  0  0  0
   15.1091   -2.7081   -2.8447 C   0  0  0  0  0  0  0  0  0  0  0  0
   14.1385   -2.0694   -3.6235 C   0  0  0  0  0  0  0  0  0  0  0  0
   14.6233   -0.7915   -4.7202 Cl  0  0  0  0  0  0  0  0  0  0  0  0
   12.7926   -2.4292   -3.5442 C   0  0  0  0  0  0  0  0  0  0  0  0
    9.9029   -1.8824   -1.6262 C   0  0  0  0  0  0  0  0  0  0  0  0
    8.9766   -2.4254   -0.5240 C   0  0  0  0  0  0  0  0  0  0  0  0
    3.0777   -7.1044    0.8920 H   0  0  0  0  0  0  0  0  0  0  0  0
    1.9794   -5.8003    0.2978 H   0  0  0  0  0  0  0  0  0  0  0  0
    2.4698   -5.8550    2.0036 H   0  0  0  0  0  0  0  0  0  0  0  0
    2.1094   -3.3967    1.5208 H   0  0  0  0  0  0  0  0  0  0  0  0
    2.7876   -1.9610    0.7392 H   0  0  0  0  0  0  0  0  0  0  0  0
    4.6333   -0.7195    1.7129 H   0  0  0  0  0  0  0  0  0  0  0  0
    5.9604   -0.1621    3.7392 H   0  0  0  0  0  0  0  0  0  0  0  0
    5.8986   -1.6678    5.7297 H   0  0  0  0  0  0  0  0  0  0  0  0
    4.4896   -3.7277    5.6730 H   0  0  0  0  0  0  0  0  0  0  0  0
    3.1708   -4.2792    3.6543 H   0  0  0  0  0  0  0  0  0  0  0  0
    5.9476   -3.7163    0.1089 H   0  0  0  0  0  0  0  0  0  0  0  0
    6.9442   -0.8908   -0.4737 H   0  0  0  0  0  0  0  0  0  0  0  0
    6.6903   -1.2166   -2.1884 H   0  0  0  0  0  0  0  0  0  0  0  0
    6.7306   -3.8748   -2.5733 H   0  0  0  0  0  0  0  0  0  0  0  0
    8.1198   -4.6643   -1.8157 H   0  0  0  0  0  0  0  0  0  0  0  0
    8.2168   -2.2367   -3.7145 H   0  0  0  0  0  0  0  0  0  0  0  0
    8.7710   -3.8756   -4.0898 H   0  0  0  0  0  0  0  0  0  0  0  0
   10.7609   -4.5863   -3.4576 H   0  0  0  0  0  0  0  0  0  0  0  0
   10.7864   -4.4895   -1.6970 H   0  0  0  0  0  0  0  0  0  0  0  0
   13.0581   -4.8774   -1.1874 H   0  0  0  0  0  0  0  0  0  0  0  0
   15.4529   -4.2247   -1.3519 H   0  0  0  0  0  0  0  0  0  0  0  0
   16.1554   -2.4086   -2.9221 H   0  0  0  0  0  0  0  0  0  0  0  0
   12.0430   -1.9166   -4.1484 H   0  0  0  0  0  0  0  0  0  0  0  0
    9.5167   -0.9098   -1.9829 H   0  0  0  0  0  0  0  0  0  0  0  0
   10.9125   -1.6947   -1.2274 H   0  0  0  0  0  0  0  0  0  0  0  0
    8.8722   -1.6920    0.2917 H   0  0  0  0  0  0  0  0  0  0  0  0
    9.4254   -3.3305   -0.0761 H   0  0  0  0  0  0  0  0  0  0  0  0
  1  2  1  0
  1 31  1  0
  1 32  1  0
  1 33  1  0
  2  3  2  0
  2  4  1  0
  4  5  1  6
  4  6  1  0
  4 13  1  0
  6  7  1  0
  6 34  1  0
  6 35  1  0
  7  8  2  0
  7 12  1  0
  8  9  1  0
  8 36  1  0
  9 10  2  0
  9 37  1  0
 10 11  1  0
 10 38  1  0
 11 12  2  0
 11 39  1  0
 12 40  1  0
 13 14  1  0
 13 41  1  0
 14 15  2  0
 14 16  1  0
 16 17  1  0
 16 42  1  0
 16 43  1  0
 17 18  1  0
 17 30  1  0
 18 19  1  0
 18 44  1  0
 18 45  1  0
 19 20  1  0
 19 46  1  0
 19 47  1  0
 20 21  1  0
 20 29  1  0
 21 22  1  0
 21 48  1  0
 21 49  1  0
 22 23  2  0
 22 28  1  0
 23 24  1  0
 23 50  1  0
 24 25  2  0
 24 51  1  0
 25 26  1  0
 25 52  1  0
 26 27  1  0
 26 28  2  0
 28 53  1  0
 29 30  1  0
 29 54  1  0
 29 55  1  0
 30 56  1  0
 30 57  1  0
M  END

