
     RDKit          3D

 36 37  0  0  0  0  0  0  0  0999 V2000
    0.8194    0.0475   -0.1833 C   0  0  0  0  0  0  0  0  0  0  0  0
    2.2669   -0.1097   -0.2436 N   0  0  0  0  0  0  0  0  0  0  0  0
    2.6026   -1.4728   -0.6499 C   0  0  0  0  0  0  0  0  0  0  0  0
    2.2730   -2.5356    0.3846 C   0  0  0  0  0  0  0  0  0  0  0  0
    1.7812   -3.7868   -0.0149 C   0  0  0  0  0  0  0  0  0  0  0  0
    1.5359   -4.7958    0.9221 C   0  0  0  0  0  0  0  0  0  0  0  0
    1.7722   -4.5639    2.2795 C   0  0  0  0  0  0  0  0  0  0  0  0
    2.2541   -3.3165    2.6908 C   0  0  0  0  0  0  0  0  0  0  0  0
    2.5028   -2.3129    1.7516 C   0  0  0  0  0  0  0  0  0  0  0  0
    2.9528    0.9184   -1.0546 C   0  0  1  0  0  0  0  0  0  0  0  0
    2.4705    2.3484   -0.7331 C   0  0  0  0  0  0  0  0  0  0  0  0
    2.8453    2.7952    0.6850 C   0  0  0  0  0  0  0  0  0  0  0  0
    4.3402    2.6802    0.9686 C   0  0  2  0  0  0  0  0  0  0  0  0
    5.4674    4.3395   -0.0409 I   0  0  0  0  0  0  0  0  0  0  0  0
    4.9001    1.3215    0.5597 C   0  0  0  0  0  0  0  0  0  0  0  0
    4.4850    0.8972   -0.8536 C   0  0  0  0  0  0  0  0  0  0  0  0
    0.3849   -0.8022    0.3619 H   0  0  0  0  0  0  0  0  0  0  0  0
    0.3448    0.0774   -1.1907 H   0  0  0  0  0  0  0  0  0  0  0  0
    0.5291    0.9587    0.3574 H   0  0  0  0  0  0  0  0  0  0  0  0
    3.6837   -1.5260   -0.8453 H   0  0  0  0  0  0  0  0  0  0  0  0
    2.1115   -1.7422   -1.6133 H   0  0  0  0  0  0  0  0  0  0  0  0
    1.5861   -3.9740   -1.0752 H   0  0  0  0  0  0  0  0  0  0  0  0
    1.1525   -5.7641    0.5895 H   0  0  0  0  0  0  0  0  0  0  0  0
    1.5774   -5.3490    3.0147 H   0  0  0  0  0  0  0  0  0  0  0  0
    2.4375   -3.1244    3.7515 H   0  0  0  0  0  0  0  0  0  0  0  0
    2.8682   -1.3348    2.0721 H   0  0  0  0  0  0  0  0  0  0  0  0
    2.7448    0.7352   -2.1346 H   0  0  0  0  0  0  0  0  0  0  0  0
    1.3877    2.4541   -0.8899 H   0  0  0  0  0  0  0  0  0  0  0  0
    2.9449    3.0264   -1.4609 H   0  0  0  0  0  0  0  0  0  0  0  0
    2.3449    2.1357    1.4185 H   0  0  0  0  0  0  0  0  0  0  0  0
    2.4866    3.8167    0.8818 H   0  0  0  0  0  0  0  0  0  0  0  0
    4.5669    2.9067    2.0174 H   0  0  0  0  0  0  0  0  0  0  0  0
    4.4925    0.5923    1.2839 H   0  0  0  0  0  0  0  0  0  0  0  0
    5.9947    1.2996    0.6698 H   0  0  0  0  0  0  0  0  0  0  0  0
    4.9141   -0.0895   -1.0813 H   0  0  0  0  0  0  0  0  0  0  0  0
    4.9282    1.5891   -1.5886 H   0  0  0  0  0  0  0  0  0  0  0  0
  1  2  1  0
  1 17  1  0
  1 18  1  0
  1 19  1  0
  2  3  1  0
  2 10  1  0
  3  4  1  0
  3 20  1  0
  3 21  1  0
  4  5  2  0
  4  9  1  0
  5  6  1  0
  5 22  1  0
  6  7  2  0
  6 23  1  0
  7  8  1  0
  7 24  1  0
  8  9  2  0
  8 25  1  0
  9 26  1  0
 10 11  1  0
 10 16  1  0
 10 27  1  6
 11 12  1  0
 11 28  1  0
 11 29  1  0
 12 13  1  0
 12 30  1  0
 12 31  1  0
 13 14  1  0
 13 15  1  0
 13 32  1  1
 15 16  1  0
 15 33  1  0
 15 34  1  0
 16 35  1  0
 16 36  1  0
M  END

