
     RDKit          3D

 40 41  0  0  0  0  0  0  0  0999 V2000
    1.0165    1.1521   -1.1187 C   0  0  0  0  0  0  0  0  0  0  0  0
    2.5236    1.0745   -1.1085 C   0  0  0  0  0  0  0  0  0  0  0  0
    3.3206    2.0400   -1.7378 C   0  0  0  0  0  0  0  0  0  0  0  0
    4.7148    1.9752   -1.7217 C   0  0  0  0  0  0  0  0  0  0  0  0
    5.3743    0.9218   -1.0654 C   0  0  0  0  0  0  0  0  0  0  0  0
    6.7697    0.7874   -1.0108 N   0  0  0  0  0  0  0  0  0  0  0  0
    7.7384    1.5948   -1.5565 C   0  0  0  0  0  0  0  0  0  0  0  0
    7.5121    2.6180   -2.1780 O   0  0  0  0  0  0  0  0  0  0  0  0
    9.1643    1.0787   -1.3523 C   0  0  0  0  0  0  0  0  0  0  0  0
   10.1822    2.2170   -1.3158 C   0  0  0  0  0  0  0  0  0  0  0  0
   10.0228    3.0497   -0.1304 N   0  0  0  0  0  0  0  0  0  0  0  0
   10.0794    4.7155   -0.1864 S   0  0  1  0  0  0  0  0  0  0  0  0
   10.6817    5.1476    1.0718 O   0  0  0  0  0  0  0  0  0  0  0  0
   10.6245    5.1213   -1.4841 O   0  0  0  0  0  0  0  0  0  0  0  0
    8.3472    5.2408   -0.1847 C   0  0  0  0  0  0  0  0  0  0  0  0
    7.9276    6.0084   -1.2732 C   0  0  0  0  0  0  0  0  0  0  0  0
    6.6202    6.4821   -1.3041 C   0  0  0  0  0  0  0  0  0  0  0  0
    6.2172    7.2172   -2.3464 F   0  0  0  0  0  0  0  0  0  0  0  0
    5.7221    6.2095   -0.2754 C   0  0  0  0  0  0  0  0  0  0  0  0
    6.1463    5.4387    0.8076 C   0  0  0  0  0  0  0  0  0  0  0  0
    7.4570    4.9544    0.8626 C   0  0  0  0  0  0  0  0  0  0  0  0
    7.9162    3.9818    2.2374 Cl  0  0  0  0  0  0  0  0  0  0  0  0
    4.5683   -0.0504   -0.4319 C   0  0  0  0  0  0  0  0  0  0  0  0
    5.3329   -1.3985    0.4067 Cl  0  0  0  0  0  0  0  0  0  0  0  0
    3.1786    0.0217   -0.4516 C   0  0  0  0  0  0  0  0  0  0  0  0
    0.6617    1.9701   -1.7626 H   0  0  0  0  0  0  0  0  0  0  0  0
    0.6161    1.3267   -0.1055 H   0  0  0  0  0  0  0  0  0  0  0  0
    0.5667    0.2148   -1.4852 H   0  0  0  0  0  0  0  0  0  0  0  0
    2.8426    2.8723   -2.2615 H   0  0  0  0  0  0  0  0  0  0  0  0
    5.3173    2.7338   -2.2157 H   0  0  0  0  0  0  0  0  0  0  0  0
    7.0885   -0.0308   -0.5019 H   0  0  0  0  0  0  0  0  0  0  0  0
    9.4026    0.4158   -2.2040 H   0  0  0  0  0  0  0  0  0  0  0  0
    9.2342    0.4588   -0.4424 H   0  0  0  0  0  0  0  0  0  0  0  0
   10.0367    2.8601   -2.1936 H   0  0  0  0  0  0  0  0  0  0  0  0
   11.2059    1.8084   -1.3757 H   0  0  0  0  0  0  0  0  0  0  0  0
   10.3653    2.7095    0.7643 H   0  0  0  0  0  0  0  0  0  0  0  0
    8.6191    6.2222   -2.0883 H   0  0  0  0  0  0  0  0  0  0  0  0
    4.7032    6.5969   -0.3309 H   0  0  0  0  0  0  0  0  0  0  0  0
    5.4600    5.2059    1.6231 H   0  0  0  0  0  0  0  0  0  0  0  0
    2.6064   -0.7593    0.0537 H   0  0  0  0  0  0  0  0  0  0  0  0
  1  2  1  0
  1 26  1  0
  1 27  1  0
  1 28  1  0
  2  3  2  0
  2 25  1  0
  3  4  1  0
  3 29  1  0
  4  5  2  0
  4 30  1  0
  5  6  1  0
  5 23  1  0
  6  7  1  0
  6 31  1  0
  7  8  2  0
  7  9  1  0
  9 10  1  0
  9 32  1  0
  9 33  1  0
 10 11  1  0
 10 34  1  0
 10 35  1  0
 12 11  1  6
 11 36  1  0
 12 13  2  0
 12 14  2  0
 12 15  1  0
 15 16  2  0
 15 21  1  0
 16 17  1  0
 16 37  1  0
 17 18  1  0
 17 19  2  0
 19 20  1  0
 19 38  1  0
 20 21  2  0
 20 39  1  0
 21 22  1  0
 23 24  1  0
 23 25  2  0
 25 40  1  0
M  END

