
     RDKit          3D

 62 65  0  0  0  0  0  0  0  0999 V2000
    0.3325   -0.1515    0.0587 C   0  0  0  0  0  0  0  0  0  0  0  0
    1.7770   -0.6231    0.1884 C   0  0  1  0  0  0  0  0  0  0  0  0
    2.4954   -0.3561    1.8708 S   0  0  0  0  0  0  0  0  0  0  0  0
    1.6462   -1.6030    2.8373 C   0  0  0  0  0  0  0  0  0  0  0  0
    0.8957   -2.4521    2.2299 N   0  0  0  0  0  0  0  0  0  0  0  0
    0.2323   -3.4144    2.9623 C   0  0  0  0  0  0  0  0  0  0  0  0
   -0.5856   -4.3539    2.2994 C   0  0  0  0  0  0  0  0  0  0  0  0
   -1.2601   -5.3197    3.0339 C   0  0  0  0  0  0  0  0  0  0  0  0
   -1.1389   -5.3763    4.4371 C   0  0  0  0  0  0  0  0  0  0  0  0
   -0.3340   -4.4605    5.1012 C   0  0  0  0  0  0  0  0  0  0  0  0
    0.3557   -3.4760    4.3695 C   0  0  0  0  0  0  0  0  0  0  0  0
    1.2182   -2.5114    5.0591 C   0  0  0  0  0  0  0  0  0  0  0  0
    1.4080   -2.4772    6.2633 O   0  0  0  0  0  0  0  0  0  0  0  0
    1.8594   -1.5718    4.2057 N   0  0  0  0  0  0  0  0  0  0  0  0
    2.7290   -0.5734    4.8607 C   0  0  0  0  0  0  0  0  0  0  0  0
    4.1977   -0.9509    4.9157 C   0  0  0  0  0  0  0  0  0  0  0  0
    5.1715   -0.2193    4.2255 C   0  0  0  0  0  0  0  0  0  0  0  0
    6.5116   -0.5983    4.3274 C   0  0  0  0  0  0  0  0  0  0  0  0
    6.8298   -1.7051    5.1184 C   0  0  0  0  0  0  0  0  0  0  0  0
    5.9159   -2.4090    5.7916 N   0  0  0  0  0  0  0  0  0  0  0  0
    4.6389   -2.0368    5.6959 C   0  0  0  0  0  0  0  0  0  0  0  0
    1.9948   -2.0359   -0.4151 C   0  0  0  0  0  0  0  0  0  0  0  0
    1.1807   -2.4875   -1.1979 O   0  0  0  0  0  0  0  0  0  0  0  0
    3.1859   -2.6252   -0.0935 N   0  0  0  0  0  0  0  0  0  0  0  0
    3.7012   -3.8654   -0.5187 C   0  0  0  0  0  0  0  0  0  0  0  0
    3.0821   -4.6828   -1.4754 C   0  0  0  0  0  0  0  0  0  0  0  0
    3.6733   -5.8967   -1.8416 C   0  0  0  0  0  0  0  0  0  0  0  0
    4.8807   -6.3476   -1.2880 C   0  0  0  0  0  0  0  0  0  0  0  0
    5.5456   -7.6816   -1.6782 C   0  0  1  0  0  0  0  0  0  0  0  0
    4.7329   -8.4470   -2.7380 C   0  0  0  0  0  0  0  0  0  0  0  0
    6.9534   -7.4066   -2.2559 C   0  0  0  0  0  0  0  0  0  0  0  0
    5.6723   -8.5799   -0.4258 C   0  0  0  0  0  0  0  0  0  0  0  0
    5.4829   -5.5101   -0.3298 C   0  0  0  0  0  0  0  0  0  0  0  0
    4.9125   -4.2992    0.0495 C   0  0  0  0  0  0  0  0  0  0  0  0
    0.2428    0.9013    0.3624 H   0  0  0  0  0  0  0  0  0  0  0  0
   -0.3356   -0.7683    0.6732 H   0  0  0  0  0  0  0  0  0  0  0  0
    0.0159   -0.2542   -0.9887 H   0  0  0  0  0  0  0  0  0  0  0  0
    2.4302    0.0515   -0.3953 H   0  0  0  0  0  0  0  0  0  0  0  0
   -0.6613   -4.2952    1.2120 H   0  0  0  0  0  0  0  0  0  0  0  0
   -1.8922   -6.0464    2.5169 H   0  0  0  0  0  0  0  0  0  0  0  0
   -1.6764   -6.1430    4.9997 H   0  0  0  0  0  0  0  0  0  0  0  0
   -0.2147   -4.4797    6.1861 H   0  0  0  0  0  0  0  0  0  0  0  0
    2.3351   -0.4732    5.8805 H   0  0  0  0  0  0  0  0  0  0  0  0
    2.5984    0.3871    4.3436 H   0  0  0  0  0  0  0  0  0  0  0  0
    4.8853    0.6412    3.6149 H   0  0  0  0  0  0  0  0  0  0  0  0
    7.2956   -0.0463    3.8037 H   0  0  0  0  0  0  0  0  0  0  0  0
    7.8717   -2.0333    5.2166 H   0  0  0  0  0  0  0  0  0  0  0  0
    3.9099   -2.6165    6.2732 H   0  0  0  0  0  0  0  0  0  0  0  0
    3.7316   -2.1476    0.6174 H   0  0  0  0  0  0  0  0  0  0  0  0
    2.1436   -4.3651   -1.9232 H   0  0  0  0  0  0  0  0  0  0  0  0
    3.1552   -6.4984   -2.5889 H   0  0  0  0  0  0  0  0  0  0  0  0
    4.6284   -7.8711   -3.6709 H   0  0  0  0  0  0  0  0  0  0  0  0
    3.7236   -8.7005   -2.3777 H   0  0  0  0  0  0  0  0  0  0  0  0
    5.2414   -9.3916   -2.9879 H   0  0  0  0  0  0  0  0  0  0  0  0
    6.8941   -6.7730   -3.1551 H   0  0  0  0  0  0  0  0  0  0  0  0
    7.4475   -8.3516   -2.5366 H   0  0  0  0  0  0  0  0  0  0  0  0
    7.6031   -6.8953   -1.5290 H   0  0  0  0  0  0  0  0  0  0  0  0
    4.6821   -8.7980    0.0049 H   0  0  0  0  0  0  0  0  0  0  0  0
    6.2810   -8.1066    0.3598 H   0  0  0  0  0  0  0  0  0  0  0  0
    6.1505   -9.5392   -0.6847 H   0  0  0  0  0  0  0  0  0  0  0  0
    6.4238   -5.8046    0.1410 H   0  0  0  0  0  0  0  0  0  0  0  0
    5.4118   -3.6791    0.8006 H   0  0  0  0  0  0  0  0  0  0  0  0
  1  2  1  0
  1 35  1  0
  1 36  1  0
  1 37  1  0
  2  3  1  0
  2 22  1  0
  2 38  1  6
  3  4  2  0
  4  5  1  0
  4 14  1  0
  5  6  2  0
  6  7  1  0
  6 11  1  0
  7  8  2  0
  7 39  1  0
  8  9  1  0
  8 40  1  0
  9 10  2  0
  9 41  1  0
 10 11  1  0
 10 42  1  0
 11 12  2  0
 12 13  1  0
 12 14  1  0
 14 15  1  0
 15 16  1  0
 15 43  1  0
 15 44  1  0
 16 17  2  0
 16 21  1  0
 17 18  1  0
 17 45  1  0
 18 19  2  0
 18 46  1  0
 19 20  1  0
 19 47  1  0
 20 21  2  0
 21 48  1  0
 22 23  2  0
 22 24  1  0
 24 25  1  0
 24 49  1  0
 25 26  2  0
 25 34  1  0
 26 27  1  0
 26 50  1  0
 27 28  2  0
 27 51  1  0
 28 29  1  0
 28 33  1  0
 29 30  1  6
 29 31  1  0
 29 32  1  0
 30 52  1  0
 30 53  1  0
 30 54  1  0
 31 55  1  0
 31 56  1  0
 31 57  1  0
 32 58  1  0
 32 59  1  0
 32 60  1  0
 33 34  2  0
 33 61  1  0
 34 62  1  0
M  CHG  2   3   1  13  -1
M  END

