
     RDKit          3D

 43 45  0  0  0  0  0  0  0  0999 V2000
    0.9893   -0.4246   -0.0794 C   0  0  0  0  0  0  0  0  0  0  0  0
    2.3754   -0.0997    0.4592 C   0  0  0  0  0  0  0  0  0  0  0  0
    2.8327    1.0306    0.3693 O   0  0  0  0  0  0  0  0  0  0  0  0
    3.0899   -1.1247    1.0411 N   0  0  0  0  0  0  0  0  0  0  0  0
    2.5907   -2.4677    1.3083 C   0  0  0  0  0  0  0  0  0  0  0  0
    3.6344   -3.5006    0.8853 C   0  0  0  0  0  0  0  0  0  0  0  0
    4.8920   -3.2316    1.4702 O   0  0  0  0  0  0  0  0  0  0  0  0
    5.4075   -1.9303    1.2049 C   0  0  1  0  0  0  0  0  0  0  0  0
    6.3076   -1.8563    1.8330 H   0  0  0  0  0  0  0  0  0  0  0  0
    5.8425   -1.7534   -0.2499 C   0  0  0  0  0  0  0  0  0  0  0  0
    6.7607   -2.7946   -0.5568 O   0  0  0  0  0  0  0  0  0  0  0  0
    7.2641   -2.8546   -1.8047 C   0  0  0  0  0  0  0  0  0  0  0  0
    8.1693   -3.9012   -2.0819 C   0  0  0  0  0  0  0  0  0  0  0  0
    8.6974   -3.9742   -3.3628 C   0  0  0  0  0  0  0  0  0  0  0  0
    8.3173   -3.0205   -4.3214 C   0  0  0  0  0  0  0  0  0  0  0  0
    7.4158   -2.0334   -3.9344 C   0  0  0  0  0  0  0  0  0  0  0  0
    6.8979   -1.9489   -2.7008 N   0  0  0  0  0  0  0  0  0  0  0  0
    4.4149   -0.8241    1.6225 C   0  0  2  0  0  0  0  0  0  0  0  0
    4.7227    0.1170    1.1485 H   0  0  0  0  0  0  0  0  0  0  0  0
    4.3278   -0.5695    3.1277 C   0  0  0  0  0  0  0  0  0  0  0  0
    4.6319   -1.5474    4.0892 C   0  0  0  0  0  0  0  0  0  0  0  0
    4.5247   -1.2600    5.4546 C   0  0  0  0  0  0  0  0  0  0  0  0
    4.1106    0.0045    5.8798 C   0  0  0  0  0  0  0  0  0  0  0  0
    3.8026    0.9841    4.9300 C   0  0  0  0  0  0  0  0  0  0  0  0
    3.9105    0.7000    3.5670 C   0  0  0  0  0  0  0  0  0  0  0  0
    0.5923    0.4922   -0.5310 H   0  0  0  0  0  0  0  0  0  0  0  0
    0.3094   -0.7502    0.7241 H   0  0  0  0  0  0  0  0  0  0  0  0
    1.0158   -1.2179   -0.8427 H   0  0  0  0  0  0  0  0  0  0  0  0
    1.6553   -2.6440    0.7637 H   0  0  0  0  0  0  0  0  0  0  0  0
    2.3762   -2.5829    2.3874 H   0  0  0  0  0  0  0  0  0  0  0  0
    3.7068   -3.5309   -0.2193 H   0  0  0  0  0  0  0  0  0  0  0  0
    3.3396   -4.5040    1.2287 H   0  0  0  0  0  0  0  0  0  0  0  0
    4.9920   -1.7753   -0.9489 H   0  0  0  0  0  0  0  0  0  0  0  0
    6.3225   -0.7688   -0.3764 H   0  0  0  0  0  0  0  0  0  0  0  0
    8.4264   -4.6130   -1.2961 H   0  0  0  0  0  0  0  0  0  0  0  0
    9.4029   -4.7689   -3.6196 H   0  0  0  0  0  0  0  0  0  0  0  0
    8.7124   -3.0458   -5.3387 H   0  0  0  0  0  0  0  0  0  0  0  0
    7.0898   -1.2672   -4.6476 H   0  0  0  0  0  0  0  0  0  0  0  0
    4.9489   -2.5409    3.7675 H   0  0  0  0  0  0  0  0  0  0  0  0
    4.7676   -2.0326    6.1891 H   0  0  0  0  0  0  0  0  0  0  0  0
    4.0297    0.2274    6.9470 H   0  0  0  0  0  0  0  0  0  0  0  0
    3.4822    1.9785    5.2524 H   0  0  0  0  0  0  0  0  0  0  0  0
    3.6673    1.4641    2.8245 H   0  0  0  0  0  0  0  0  0  0  0  0
  1  2  1  0
  1 26  1  0
  1 27  1  0
  1 28  1  0
  2  3  2  0
  2  4  1  0
  4  5  1  0
  4 18  1  0
  5  6  1  0
  5 29  1  0
  5 30  1  0
  6  7  1  0
  6 31  1  0
  6 32  1  0
  7  8  1  0
  8  9  1  1
  8 10  1  0
  8 18  1  0
 10 11  1  0
 10 33  1  0
 10 34  1  0
 11 12  1  0
 12 13  2  0
 12 17  1  0
 13 14  1  0
 13 35  1  0
 14 15  2  0
 14 36  1  0
 15 16  1  0
 15 37  1  0
 16 17  2  0
 16 38  1  0
 18 19  1  6
 18 20  1  0
 20 21  2  0
 20 25  1  0
 21 22  1  0
 21 39  1  0
 22 23  2  0
 22 40  1  0
 23 24  1  0
 23 41  1  0
 24 25  2  0
 24 42  1  0
 25 43  1  0
M  END

