
     RDKit          3D

 65 68  0  0  0  0  0  0  0  0999 V2000
    3.0192   -0.7758   -2.5344 C   0  0  0  0  0  0  0  0  0  0  0  0
    4.5166   -1.0079   -2.3163 C   0  0  0  0  0  0  0  0  0  0  0  0
    5.0409   -0.6135   -0.9256 C   0  0  0  0  0  0  0  0  0  0  0  0
    4.4279   -1.3486    0.2979 C   0  0  2  0  0  0  0  0  0  0  0  0
    3.3338   -1.2891    0.1892 H   0  0  0  0  0  0  0  0  0  0  0  0
    4.7708   -0.5695    1.5645 C   0  0  0  0  0  0  0  0  0  0  0  0
    6.0962   -0.3549    1.9865 C   0  0  0  0  0  0  0  0  0  0  0  0
    6.3794    0.4250    3.1069 C   0  0  0  0  0  0  0  0  0  0  0  0
    5.3505    1.0188    3.8519 C   0  0  0  0  0  0  0  0  0  0  0  0
    5.7424    1.8515    5.0452 C   0  0  0  0  0  0  0  0  0  0  0  0
    6.8863    2.2612    5.1915 O   0  0  0  0  0  0  0  0  0  0  0  0
    4.7487    2.1017    5.9500 N   0  0  0  0  0  0  0  0  0  0  0  0
    4.9427    2.9367    7.1137 C   0  0  0  0  0  0  0  0  0  0  0  0
    4.1755    4.2612    7.0296 C   0  0  0  0  0  0  0  0  0  0  0  0
    2.6705    4.0690    6.8920 C   0  0  0  0  0  0  0  0  0  0  0  0
    2.1380    3.0051    6.7028 O   0  0  0  0  0  0  0  0  0  0  0  0
    1.9259    5.1904    6.9749 O   0  0  0  0  0  0  0  0  0  0  0  0
    4.0275    0.8422    3.4203 C   0  0  0  0  0  0  0  0  0  0  0  0
    3.7498    0.0649    2.2942 C   0  0  0  0  0  0  0  0  0  0  0  0
    4.7499   -2.8942    0.2686 C   0  0  1  0  0  0  0  0  0  0  0  0
    6.1811   -3.2752    0.6526 C   0  0  0  0  0  0  0  0  0  0  0  0
    6.5385   -3.5962    1.9722 C   0  0  0  0  0  0  0  0  0  0  0  0
    7.8511   -3.9285    2.3108 C   0  0  0  0  0  0  0  0  0  0  0  0
    8.8351   -3.9456    1.3184 C   0  0  0  0  0  0  0  0  0  0  0  0
   10.4812   -4.3625    1.7330 Cl  0  0  0  0  0  0  0  0  0  0  0  0
    8.5089   -3.6417   -0.0054 C   0  0  0  0  0  0  0  0  0  0  0  0
    7.1888   -3.3151   -0.3257 C   0  0  0  0  0  0  0  0  0  0  0  0
    3.7279   -3.7802    0.9780 C   0  0  0  0  0  0  0  0  0  0  0  0
    3.0067   -3.3711    2.0851 C   0  0  0  0  0  0  0  0  0  0  0  0
    2.0675   -4.2413    2.6946 C   0  0  0  0  0  0  0  0  0  0  0  0
    1.8109   -5.4581    2.2758 N   0  0  0  0  0  0  0  0  0  0  0  0
    2.5017   -5.9097    1.1947 C   0  0  0  0  0  0  0  0  0  0  0  0
    2.2223   -7.2320    0.7455 C   0  0  0  0  0  0  0  0  0  0  0  0
    2.8904   -7.7523   -0.3320 C   0  0  0  0  0  0  0  0  0  0  0  0
    2.6488   -8.9878   -0.7724 F   0  0  0  0  0  0  0  0  0  0  0  0
    3.8676   -6.9788   -1.0085 C   0  0  0  0  0  0  0  0  0  0  0  0
    4.4993   -7.5294   -2.0478 F   0  0  0  0  0  0  0  0  0  0  0  0
    4.1594   -5.6996   -0.6049 C   0  0  0  0  0  0  0  0  0  0  0  0
    3.4838   -5.1168    0.5056 C   0  0  0  0  0  0  0  0  0  0  0  0
    2.7346   -0.9853   -3.5776 H   0  0  0  0  0  0  0  0  0  0  0  0
    2.7417    0.2697   -2.3180 H   0  0  0  0  0  0  0  0  0  0  0  0
    2.3974   -1.4224   -1.8943 H   0  0  0  0  0  0  0  0  0  0  0  0
    5.0820   -0.4184   -3.0586 H   0  0  0  0  0  0  0  0  0  0  0  0
    4.7600   -2.0612   -2.5437 H   0  0  0  0  0  0  0  0  0  0  0  0
    4.8555    0.4648   -0.7830 H   0  0  0  0  0  0  0  0  0  0  0  0
    6.1376   -0.7278   -0.9058 H   0  0  0  0  0  0  0  0  0  0  0  0
    6.9253   -0.7913    1.4289 H   0  0  0  0  0  0  0  0  0  0  0  0
    7.4093    0.5963    3.4256 H   0  0  0  0  0  0  0  0  0  0  0  0
    3.8190    1.7220    5.8208 H   0  0  0  0  0  0  0  0  0  0  0  0
    6.0198    3.1365    7.1920 H   0  0  0  0  0  0  0  0  0  0  0  0
    4.6270    2.3926    8.0198 H   0  0  0  0  0  0  0  0  0  0  0  0
    4.5257    4.8486    6.1615 H   0  0  0  0  0  0  0  0  0  0  0  0
    4.3800    4.8740    7.9262 H   0  0  0  0  0  0  0  0  0  0  0  0
    2.4867    5.9636    7.1336 H   0  0  0  0  0  0  0  0  0  0  0  0
    3.1975    1.3332    3.9352 H   0  0  0  0  0  0  0  0  0  0  0  0
    2.7113   -0.0397    1.9669 H   0  0  0  0  0  0  0  0  0  0  0  0
    4.6560   -3.1473   -0.7961 H   0  0  0  0  0  0  0  0  0  0  0  0
    5.7797   -3.5892    2.7569 H   0  0  0  0  0  0  0  0  0  0  0  0
    8.1146   -4.1753    3.3406 H   0  0  0  0  0  0  0  0  0  0  0  0
    9.2804   -3.6702   -0.7767 H   0  0  0  0  0  0  0  0  0  0  0  0
    6.9429   -3.0942   -1.3679 H   0  0  0  0  0  0  0  0  0  0  0  0
    3.1477   -2.3789    2.5101 H   0  0  0  0  0  0  0  0  0  0  0  0
    1.5083   -3.8913    3.5716 H   0  0  0  0  0  0  0  0  0  0  0  0
    1.4722   -7.8203    1.2747 H   0  0  0  0  0  0  0  0  0  0  0  0
    4.9342   -5.1650   -1.1527 H   0  0  0  0  0  0  0  0  0  0  0  0
  1  2  1  0
  1 40  1  0
  1 41  1  0
  1 42  1  0
  2  3  1  0
  2 43  1  0
  2 44  1  0
  3  4  1  0
  3 45  1  0
  3 46  1  0
  4  5  1  6
  4  6  1  0
  4 20  1  0
  6  7  2  0
  6 19  1  0
  7  8  1  0
  7 47  1  0
  8  9  2  0
  8 48  1  0
  9 10  1  0
  9 18  1  0
 10 11  2  0
 10 12  1  0
 12 13  1  0
 12 49  1  0
 13 14  1  0
 13 50  1  0
 13 51  1  0
 14 15  1  0
 14 52  1  0
 14 53  1  0
 15 16  2  0
 15 17  1  0
 17 54  1  0
 18 19  2  0
 18 55  1  0
 19 56  1  0
 20 21  1  0
 20 28  1  0
 20 57  1  6
 21 22  2  0
 21 27  1  0
 22 23  1  0
 22 58  1  0
 23 24  2  0
 23 59  1  0
 24 25  1  0
 24 26  1  0
 26 27  2  0
 26 60  1  0
 27 61  1  0
 28 29  2  0
 28 39  1  0
 29 30  1  0
 29 62  1  0
 30 31  2  0
 30 63  1  0
 31 32  1  0
 32 33  1  0
 32 39  2  0
 33 34  2  0
 33 64  1  0
 34 35  1  0
 34 36  1  0
 36 37  1  0
 36 38  2  0
 38 39  1  0
 38 65  1  0
M  END

