
     RDKit          3D

 59 59  0  0  0  0  0  0  0  0999 V2000
    0.5240    0.1404   -0.1316 C   0  0  0  0  0  0  0  0  0  0  0  0
    2.0527    0.1700   -0.1641 C   0  0  0  0  0  0  0  0  0  0  0  0
    2.6681    1.1806    0.8089 C   0  0  0  0  0  0  0  0  0  0  0  0
    4.1989    1.2170    0.7824 C   0  0  0  0  0  0  0  0  0  0  0  0
    4.8138    2.2275    1.7553 C   0  0  0  0  0  0  0  0  0  0  0  0
    6.3447    2.2642    1.7277 C   0  0  0  0  0  0  0  0  0  0  0  0
    6.9595    3.2747    2.7005 C   0  0  0  0  0  0  0  0  0  0  0  0
    8.4903    3.3125    2.6718 C   0  0  0  0  0  0  0  0  0  0  0  0
    9.1050    4.3232    3.6447 C   0  0  0  0  0  0  0  0  0  0  0  0
   10.6357    4.3621    3.6144 C   0  0  0  0  0  0  0  0  0  0  0  0
   11.2499    5.3731    4.5870 C   0  0  0  0  0  0  0  0  0  0  0  0
   12.7807    5.4079    4.5561 C   0  0  0  0  0  0  0  0  0  0  0  0
   13.3880    6.4208    5.5303 C   0  0  0  0  0  0  0  0  0  0  0  0
   14.9125    6.4762    5.5169 C   0  0  1  0  0  0  0  0  0  0  0  0
   15.4954    7.5568    6.4194 C   0  0  0  0  0  0  0  0  0  0  0  0
   15.3856    5.1748    5.9613 O   0  0  0  0  0  0  0  0  0  0  0  0
   16.5698    4.7378    5.5062 C   0  0  0  0  0  0  0  0  0  0  0  0
   17.2744    5.3531    4.7396 O   0  0  0  0  0  0  0  0  0  0  0  0
   16.9259    3.3871    6.0551 C   0  0  0  0  0  0  0  0  0  0  0  0
   16.1246    2.7006    6.9759 C   0  0  0  0  0  0  0  0  0  0  0  0
   16.5534    1.4475    7.4244 C   0  0  0  0  0  0  0  0  0  0  0  0
   17.6871    0.8675    7.0223 N   0  0  0  0  0  0  0  0  0  0  0  0
   18.4477    1.5282    6.1444 C   0  0  0  0  0  0  0  0  0  0  0  0
   18.1168    2.7847    5.6316 C   0  0  0  0  0  0  0  0  0  0  0  0
    0.1168   -0.5964   -0.8425 H   0  0  0  0  0  0  0  0  0  0  0  0
    0.0982    1.1241   -0.3921 H   0  0  0  0  0  0  0  0  0  0  0  0
    0.1492   -0.1237    0.8717 H   0  0  0  0  0  0  0  0  0  0  0  0
    2.3956    0.3993   -1.1897 H   0  0  0  0  0  0  0  0  0  0  0  0
    2.4461   -0.8377    0.0633 H   0  0  0  0  0  0  0  0  0  0  0  0
    2.3260    0.9518    1.8357 H   0  0  0  0  0  0  0  0  0  0  0  0
    2.2750    2.1896    0.5823 H   0  0  0  0  0  0  0  0  0  0  0  0
    4.5403    1.4456   -0.2445 H   0  0  0  0  0  0  0  0  0  0  0  0
    4.5914    0.2079    1.0088 H   0  0  0  0  0  0  0  0  0  0  0  0
    4.4731    1.9986    2.7824 H   0  0  0  0  0  0  0  0  0  0  0  0
    4.4210    3.2365    1.5295 H   0  0  0  0  0  0  0  0  0  0  0  0
    6.6854    2.4932    0.7007 H   0  0  0  0  0  0  0  0  0  0  0  0
    6.7377    1.2553    1.9535 H   0  0  0  0  0  0  0  0  0  0  0  0
    6.6197    3.0452    3.7278 H   0  0  0  0  0  0  0  0  0  0  0  0
    6.5658    4.2835    2.4754 H   0  0  0  0  0  0  0  0  0  0  0  0
    8.8302    3.5423    1.6447 H   0  0  0  0  0  0  0  0  0  0  0  0
    8.8844    2.3039    2.8970 H   0  0  0  0  0  0  0  0  0  0  0  0
    8.7662    4.0928    4.6721 H   0  0  0  0  0  0  0  0  0  0  0  0
    8.7102    5.3318    3.4202 H   0  0  0  0  0  0  0  0  0  0  0  0
   10.9746    4.5924    2.5872 H   0  0  0  0  0  0  0  0  0  0  0  0
   11.0314    3.3542    3.8394 H   0  0  0  0  0  0  0  0  0  0  0  0
   10.9113    5.1430    5.6145 H   0  0  0  0  0  0  0  0  0  0  0  0
   10.8553    6.3818    4.3622 H   0  0  0  0  0  0  0  0  0  0  0  0
   13.1214    5.6409    3.5303 H   0  0  0  0  0  0  0  0  0  0  0  0
   13.1756    4.4034    4.7859 H   0  0  0  0  0  0  0  0  0  0  0  0
   13.0513    6.2045    6.5603 H   0  0  0  0  0  0  0  0  0  0  0  0
   13.0177    7.4332    5.2917 H   0  0  0  0  0  0  0  0  0  0  0  0
   15.2811    6.6203    4.4892 H   0  0  0  0  0  0  0  0  0  0  0  0
   15.1831    7.4040    7.4647 H   0  0  0  0  0  0  0  0  0  0  0  0
   15.1459    8.5495    6.0954 H   0  0  0  0  0  0  0  0  0  0  0  0
   16.5939    7.5518    6.3715 H   0  0  0  0  0  0  0  0  0  0  0  0
   15.1915    3.1362    7.3340 H   0  0  0  0  0  0  0  0  0  0  0  0
   15.9467    0.8877    8.1460 H   0  0  0  0  0  0  0  0  0  0  0  0
   19.3734    1.0328    5.8288 H   0  0  0  0  0  0  0  0  0  0  0  0
   18.7599    3.3000    4.9162 H   0  0  0  0  0  0  0  0  0  0  0  0
  1  2  1  0
  1 25  1  0
  1 26  1  0
  1 27  1  0
  2  3  1  0
  2 28  1  0
  2 29  1  0
  3  4  1  0
  3 30  1  0
  3 31  1  0
  4  5  1  0
  4 32  1  0
  4 33  1  0
  5  6  1  0
  5 34  1  0
  5 35  1  0
  6  7  1  0
  6 36  1  0
  6 37  1  0
  7  8  1  0
  7 38  1  0
  7 39  1  0
  8  9  1  0
  8 40  1  0
  8 41  1  0
  9 10  1  0
  9 42  1  0
  9 43  1  0
 10 11  1  0
 10 44  1  0
 10 45  1  0
 11 12  1  0
 11 46  1  0
 11 47  1  0
 12 13  1  0
 12 48  1  0
 12 49  1  0
 13 14  1  0
 13 50  1  0
 13 51  1  0
 14 15  1  0
 14 16  1  0
 14 52  1  6
 15 53  1  0
 15 54  1  0
 15 55  1  0
 16 17  1  0
 17 18  2  0
 17 19  1  0
 19 20  2  0
 19 24  1  0
 20 21  1  0
 20 56  1  0
 21 22  2  0
 21 57  1  0
 22 23  1  0
 23 24  2  0
 23 58  1  0
 24 59  1  0
M  END

