
     RDKit          3D

 35 36  0  0  0  0  0  0  0  0999 V2000
    1.0932   -0.6616    0.0217 C   0  0  0  0  0  0  0  0  0  0  0  0
    2.5501   -0.6766    0.0399 N   0  0  0  0  0  0  0  0  0  0  0  0
    3.2205   -0.9544   -1.2169 C   0  0  0  0  0  0  0  0  0  0  0  0
    3.3686   -2.4693   -1.5076 C   0  0  0  0  0  0  0  0  0  0  0  0
    3.9358   -2.7216   -2.8328 C   0  0  0  0  0  0  0  0  0  0  0  0
    4.3821   -2.8826   -3.8897 N   0  0  0  0  0  0  0  0  0  0  0  0
    3.2022   -0.4444    1.2324 C   0  0  0  0  0  0  0  0  0  0  0  0
    2.5980   -0.2205    2.2703 O   0  0  0  0  0  0  0  0  0  0  0  0
    4.7299   -0.4621    1.2182 C   0  0  0  0  0  0  0  0  0  0  0  0
    5.2841   -0.4802    2.6458 C   0  0  0  0  0  0  0  0  0  0  0  0
    6.7377   -0.4505    2.6726 N   0  0  0  0  0  0  0  0  0  0  0  0
    7.5035   -1.5373    2.2820 C   0  0  0  0  0  0  0  0  0  0  0  0
    7.1260   -2.6046    1.8791 O   0  0  0  0  0  0  0  0  0  0  0  0
    8.8308   -1.1808    2.4260 O   0  0  0  0  0  0  0  0  0  0  0  0
    8.8827    0.1087    2.8903 C   0  0  0  0  0  0  0  0  0  0  0  0
   10.0036    0.8679    3.1774 C   0  0  0  0  0  0  0  0  0  0  0  0
    9.7788    2.1739    3.6448 C   0  0  0  0  0  0  0  0  0  0  0  0
    8.4798    2.6708    3.8093 C   0  0  0  0  0  0  0  0  0  0  0  0
    7.3507    1.8892    3.5151 C   0  0  0  0  0  0  0  0  0  0  0  0
    7.5767    0.5960    3.0514 C   0  0  0  0  0  0  0  0  0  0  0  0
    0.7192    0.1253   -0.6556 H   0  0  0  0  0  0  0  0  0  0  0  0
    0.7376   -0.4627    1.0389 H   0  0  0  0  0  0  0  0  0  0  0  0
    0.6848   -1.6299   -0.3152 H   0  0  0  0  0  0  0  0  0  0  0  0
    4.2107   -0.4816   -1.2417 H   0  0  0  0  0  0  0  0  0  0  0  0
    2.6387   -0.4905   -2.0298 H   0  0  0  0  0  0  0  0  0  0  0  0
    2.3861   -2.9651   -1.4478 H   0  0  0  0  0  0  0  0  0  0  0  0
    4.0120   -2.9438   -0.7486 H   0  0  0  0  0  0  0  0  0  0  0  0
    5.0980    0.4317    0.6834 H   0  0  0  0  0  0  0  0  0  0  0  0
    5.1190   -1.3381    0.6781 H   0  0  0  0  0  0  0  0  0  0  0  0
    4.9404   -1.3880    3.1633 H   0  0  0  0  0  0  0  0  0  0  0  0
    4.9036    0.3744    3.2183 H   0  0  0  0  0  0  0  0  0  0  0  0
   11.0077    0.4626    3.0438 H   0  0  0  0  0  0  0  0  0  0  0  0
   10.6339    2.8099    3.8837 H   0  0  0  0  0  0  0  0  0  0  0  0
    8.3375    3.6902    4.1753 H   0  0  0  0  0  0  0  0  0  0  0  0
    6.3418    2.2837    3.6478 H   0  0  0  0  0  0  0  0  0  0  0  0
  1  2  1  0
  1 21  1  0
  1 22  1  0
  1 23  1  0
  2  3  1  0
  2  7  1  0
  3  4  1  0
  3 24  1  0
  3 25  1  0
  4  5  1  0
  4 26  1  0
  4 27  1  0
  5  6  3  0
  7  8  2  0
  7  9  1  0
  9 10  1  0
  9 28  1  0
  9 29  1  0
 10 11  1  0
 10 30  1  0
 10 31  1  0
 11 12  1  0
 11 20  1  0
 12 13  2  0
 12 14  1  0
 14 15  1  0
 15 16  1  0
 15 20  2  0
 16 17  2  0
 16 32  1  0
 17 18  1  0
 17 33  1  0
 18 19  2  0
 18 34  1  0
 19 20  1  0
 19 35  1  0
M  END

