
     RDKit          3D

 47 50  0  0  0  0  0  0  0  0999 V2000
   -1.4816   -0.3205   -0.2247 C   0  0  0  0  0  0  0  0  0  0  0  0
   -0.8026   -0.3658    0.9963 C   0  0  0  0  0  0  0  0  0  0  0  0
    0.5833   -0.1881    1.0346 C   0  0  0  0  0  0  0  0  0  0  0  0
    1.3214    0.0338   -0.1401 C   0  0  0  0  0  0  0  0  0  0  0  0
    2.8366    0.2115   -0.0959 C   0  0  0  0  0  0  0  0  0  0  0  0
    3.6647   -1.0026   -0.2351 N   0  0  0  0  0  0  0  0  0  0  0  0
    3.4444   -1.9055    0.8956 C   0  0  0  0  0  0  0  0  0  0  0  0
    4.4990   -3.0009    1.1249 C   0  0  0  0  0  0  0  0  0  0  0  0
    4.2973   -4.2247    0.2676 C   0  0  0  0  0  0  0  0  0  0  0  0
    4.0180   -5.4774    0.8294 C   0  0  0  0  0  0  0  0  0  0  0  0
    3.7858   -6.5947    0.0215 C   0  0  0  0  0  0  0  0  0  0  0  0
    3.8284   -6.4629   -1.3678 C   0  0  0  0  0  0  0  0  0  0  0  0
    4.1093   -5.2167   -1.9358 C   0  0  0  0  0  0  0  0  0  0  0  0
    4.3471   -4.0915   -1.1339 C   0  0  0  0  0  0  0  0  0  0  0  0
    4.6912   -2.7585   -1.7534 C   0  0  0  0  0  0  0  0  0  0  0  0
    3.6776   -1.5861   -1.5863 C   0  0  2  0  0  0  0  0  0  0  0  0
    4.0679   -0.5418   -2.6319 C   0  0  0  0  0  0  0  0  0  0  0  0
    3.3922   -0.4746   -3.8588 C   0  0  0  0  0  0  0  0  0  0  0  0
    3.7997    0.4170   -4.8571 C   0  0  0  0  0  0  0  0  0  0  0  0
    4.8949    1.2574   -4.6416 C   0  0  0  0  0  0  0  0  0  0  0  0
    5.5791    1.1967   -3.4226 C   0  0  0  0  0  0  0  0  0  0  0  0
    5.1711    0.3035   -2.4292 C   0  0  0  0  0  0  0  0  0  0  0  0
    0.6213    0.0906   -1.3571 C   0  0  0  0  0  0  0  0  0  0  0  0
   -0.7647   -0.0869   -1.4017 C   0  0  0  0  0  0  0  0  0  0  0  0
   -2.5657   -0.4570   -0.2574 H   0  0  0  0  0  0  0  0  0  0  0  0
   -1.3551   -0.5340    1.9246 H   0  0  0  0  0  0  0  0  0  0  0  0
    1.0998   -0.2094    1.9985 H   0  0  0  0  0  0  0  0  0  0  0  0
    3.1080    0.6707    0.8692 H   0  0  0  0  0  0  0  0  0  0  0  0
    3.1336    0.9229   -0.8775 H   0  0  0  0  0  0  0  0  0  0  0  0
    2.4454   -2.3909    0.8610 H   0  0  0  0  0  0  0  0  0  0  0  0
    3.4394   -1.2637    1.7918 H   0  0  0  0  0  0  0  0  0  0  0  0
    4.4484   -3.2943    2.1853 H   0  0  0  0  0  0  0  0  0  0  0  0
    5.5012   -2.5648    0.9665 H   0  0  0  0  0  0  0  0  0  0  0  0
    3.9802   -5.5782    1.9182 H   0  0  0  0  0  0  0  0  0  0  0  0
    3.5697   -7.5642    0.4779 H   0  0  0  0  0  0  0  0  0  0  0  0
    3.6464   -7.3281   -2.0106 H   0  0  0  0  0  0  0  0  0  0  0  0
    4.1522   -5.1153   -3.0243 H   0  0  0  0  0  0  0  0  0  0  0  0
    4.8167   -2.9067   -2.8354 H   0  0  0  0  0  0  0  0  0  0  0  0
    5.6677   -2.4069   -1.3770 H   0  0  0  0  0  0  0  0  0  0  0  0
    2.6781   -1.9860   -1.8629 H   0  0  0  0  0  0  0  0  0  0  0  0
    2.5356   -1.1318   -4.0367 H   0  0  0  0  0  0  0  0  0  0  0  0
    3.2568    0.4556   -5.8053 H   0  0  0  0  0  0  0  0  0  0  0  0
    5.2137    1.9571   -5.4184 H   0  0  0  0  0  0  0  0  0  0  0  0
    6.4375    1.8503   -3.2449 H   0  0  0  0  0  0  0  0  0  0  0  0
    5.6980    0.2624   -1.4729 H   0  0  0  0  0  0  0  0  0  0  0  0
    1.1687    0.2927   -2.2811 H   0  0  0  0  0  0  0  0  0  0  0  0
   -1.2882   -0.0344   -2.3602 H   0  0  0  0  0  0  0  0  0  0  0  0
  1  2  2  0
  1 24  1  0
  1 25  1  0
  2  3  1  0
  2 26  1  0
  3  4  2  0
  3 27  1  0
  4  5  1  0
  4 23  1  0
  5  6  1  0
  5 28  1  0
  5 29  1  0
  6  7  1  0
  6 16  1  0
  7  8  1  0
  7 30  1  0
  7 31  1  0
  8  9  1  0
  8 32  1  0
  8 33  1  0
  9 10  1  0
  9 14  2  0
 10 11  2  0
 10 34  1  0
 11 12  1  0
 11 35  1  0
 12 13  2  0
 12 36  1  0
 13 14  1  0
 13 37  1  0
 14 15  1  0
 15 16  1  0
 15 38  1  0
 15 39  1  0
 16 17  1  0
 16 40  1  6
 17 18  2  0
 17 22  1  0
 18 19  1  0
 18 41  1  0
 19 20  2  0
 19 42  1  0
 20 21  1  0
 20 43  1  0
 21 22  2  0
 21 44  1  0
 22 45  1  0
 23 24  2  0
 23 46  1  0
 24 47  1  0
M  END

