
     RDKit          3D

 38 39  0  0  0  0  0  0  0  0999 V2000
    1.8387    0.0914    0.0080 N   0  0  0  0  0  0  0  0  0  0  0  0
    3.1834   -0.2596   -0.0285 C   0  0  0  0  0  0  0  0  0  0  0  0
    4.1053    0.7444   -0.0071 N   0  0  0  0  0  0  0  0  0  0  0  0
    5.3292    0.2543   -0.0369 C   0  0  0  0  0  0  0  0  0  0  0  0
    6.4362    1.0275   -0.0305 N   0  0  0  0  0  0  0  0  0  0  0  0
    7.8025    0.5047   -0.0692 C   0  0  0  0  0  0  0  0  0  0  0  0
    8.6652    1.7519    0.1431 C   0  0  0  0  0  0  0  0  0  0  0  0
    7.8177    2.8960   -0.4399 C   0  0  2  0  0  0  0  0  0  0  0  0
    8.2808    4.2070   -0.0327 N   0  0  0  0  0  0  0  0  0  0  0  0
    6.3821    2.4846   -0.0351 C   0  0  0  0  0  0  0  0  0  0  0  0
    5.4391   -1.4992   -0.1168 S   0  0  0  0  0  0  0  0  0  0  0  0
    3.6776   -1.5585   -0.0542 C   0  0  0  0  0  0  0  0  0  0  0  0
    3.0340   -2.8734   -0.0073 C   0  0  0  0  0  0  0  0  0  0  0  0
    3.6514   -3.9098   -0.2272 O   0  0  0  0  0  0  0  0  0  0  0  0
    1.6808   -2.8640    0.2968 N   0  0  0  0  0  0  0  0  0  0  0  0
    0.9444   -4.1016    0.4944 C   0  0  0  0  0  0  0  0  0  0  0  0
   -0.4292   -4.0920   -0.1836 C   0  0  0  0  0  0  0  0  0  0  0  0
   -0.3714   -4.0343   -1.7099 C   0  0  0  0  0  0  0  0  0  0  0  0
   -1.6462   -3.8986   -2.3047 O   0  0  0  0  0  0  0  0  0  0  0  0
    1.7038    1.0909   -0.1154 H   0  0  0  0  0  0  0  0  0  0  0  0
    1.2412   -0.4556   -0.6064 H   0  0  0  0  0  0  0  0  0  0  0  0
    8.0074    0.0225   -1.0447 H   0  0  0  0  0  0  0  0  0  0  0  0
    7.9533   -0.2624    0.7101 H   0  0  0  0  0  0  0  0  0  0  0  0
    9.6564    1.6787   -0.3255 H   0  0  0  0  0  0  0  0  0  0  0  0
    8.8190    1.9316    1.2215 H   0  0  0  0  0  0  0  0  0  0  0  0
    7.8867    2.8482   -1.5416 H   0  0  0  0  0  0  0  0  0  0  0  0
    8.1559    4.3406    0.9721 H   0  0  0  0  0  0  0  0  0  0  0  0
    7.7526    4.9455   -0.4964 H   0  0  0  0  0  0  0  0  0  0  0  0
    5.6039    2.8432   -0.7265 H   0  0  0  0  0  0  0  0  0  0  0  0
    6.1349    2.8810    0.9700 H   0  0  0  0  0  0  0  0  0  0  0  0
    1.3227   -2.0311    0.7559 H   0  0  0  0  0  0  0  0  0  0  0  0
    0.8185   -4.3097    1.5737 H   0  0  0  0  0  0  0  0  0  0  0  0
    1.5786   -4.9052    0.0923 H   0  0  0  0  0  0  0  0  0  0  0  0
   -1.0307   -3.2371    0.1753 H   0  0  0  0  0  0  0  0  0  0  0  0
   -0.9749   -5.0025    0.1273 H   0  0  0  0  0  0  0  0  0  0  0  0
    0.1721   -4.9219   -2.0953 H   0  0  0  0  0  0  0  0  0  0  0  0
    0.2110   -3.1539   -2.0241 H   0  0  0  0  0  0  0  0  0  0  0  0
   -2.1614   -4.6875   -2.0914 H   0  0  0  0  0  0  0  0  0  0  0  0
  1  2  1  0
  1 20  1  0
  1 21  1  0
  2  3  2  0
  2 12  1  0
  3  4  1  0
  4  5  1  0
  4 11  2  0
  5  6  1  0
  5 10  1  0
  6  7  1  0
  6 22  1  0
  6 23  1  0
  7  8  1  0
  7 24  1  0
  7 25  1  0
  8  9  1  0
  8 10  1  0
  8 26  1  6
  9 27  1  0
  9 28  1  0
 10 29  1  0
 10 30  1  0
 11 12  1  0
 12 13  2  0
 13 14  1  0
 13 15  1  0
 15 16  1  0
 15 31  1  0
 16 17  1  0
 16 32  1  0
 16 33  1  0
 17 18  1  0
 17 34  1  0
 17 35  1  0
 18 19  1  0
 18 36  1  0
 18 37  1  0
 19 38  1  0
M  CHG  2  11   1  14  -1
M  END

