
     RDKit          3D

 35 36  0  0  0  0  0  0  0  0999 V2000
    2.2970    2.3373   -2.6675 C   0  0  0  0  0  0  0  0  0  0  0  0
    2.3655    1.5127   -1.3741 C   0  0  1  0  0  0  0  0  0  0  0  0
    2.7207    2.3626   -0.1454 C   0  0  0  0  0  0  0  0  0  0  0  0
    1.0181    0.8179   -1.1407 C   0  0  0  0  0  0  0  0  0  0  0  0
    3.2744    0.3914   -1.5146 O   0  0  0  0  0  0  0  0  0  0  0  0
    4.6083    0.4280   -1.7531 C   0  0  0  0  0  0  0  0  0  0  0  0
    5.3995    1.5594   -1.8921 C   0  0  0  0  0  0  0  0  0  0  0  0
    6.7908    1.4383   -2.1382 C   0  0  0  0  0  0  0  0  0  0  0  0
    7.3976    0.2084   -2.2469 C   0  0  0  0  0  0  0  0  0  0  0  0
    6.6219   -0.9777   -2.1109 C   0  0  0  0  0  0  0  0  0  0  0  0
    7.2062   -2.2712   -2.2116 C   0  0  0  0  0  0  0  0  0  0  0  0
    6.4524   -3.4222   -2.0834 C   0  0  0  0  0  0  0  0  0  0  0  0
    7.0946   -4.7940   -2.1693 C   0  0  0  0  0  0  0  0  0  0  0  0
    8.3480   -4.8109   -2.8126 O   0  0  0  0  0  0  0  0  0  0  0  0
    5.0569   -3.3057   -1.8406 C   0  0  0  0  0  0  0  0  0  0  0  0
    4.4564   -2.0696   -1.7289 C   0  0  0  0  0  0  0  0  0  0  0  0
    5.2153   -0.8747   -1.8607 C   0  0  0  0  0  0  0  0  0  0  0  0
    1.4881    3.0803   -2.5899 H   0  0  0  0  0  0  0  0  0  0  0  0
    2.0779    1.6806   -3.5231 H   0  0  0  0  0  0  0  0  0  0  0  0
    3.2275    2.8781   -2.8834 H   0  0  0  0  0  0  0  0  0  0  0  0
    1.9278    3.1055    0.0327 H   0  0  0  0  0  0  0  0  0  0  0  0
    3.6681    2.9057   -0.2570 H   0  0  0  0  0  0  0  0  0  0  0  0
    2.7976    1.7229    0.7470 H   0  0  0  0  0  0  0  0  0  0  0  0
    0.2159    1.5597   -1.0106 H   0  0  0  0  0  0  0  0  0  0  0  0
    1.0642    0.1883   -0.2395 H   0  0  0  0  0  0  0  0  0  0  0  0
    0.7664    0.1746   -1.9972 H   0  0  0  0  0  0  0  0  0  0  0  0
    4.9735    2.5562   -1.8147 H   0  0  0  0  0  0  0  0  0  0  0  0
    7.3822    2.3520   -2.2410 H   0  0  0  0  0  0  0  0  0  0  0  0
    8.4708    0.1259   -2.4353 H   0  0  0  0  0  0  0  0  0  0  0  0
    8.2805   -2.3542   -2.3926 H   0  0  0  0  0  0  0  0  0  0  0  0
    6.3792   -5.5004   -2.6393 H   0  0  0  0  0  0  0  0  0  0  0  0
    7.2748   -5.1778   -1.1493 H   0  0  0  0  0  0  0  0  0  0  0  0
    8.2254   -4.4634   -3.7068 H   0  0  0  0  0  0  0  0  0  0  0  0
    4.4512   -4.2124   -1.7457 H   0  0  0  0  0  0  0  0  0  0  0  0
    3.3852   -1.9887   -1.5443 H   0  0  0  0  0  0  0  0  0  0  0  0
  1  2  1  0
  1 18  1  0
  1 19  1  0
  1 20  1  0
  2  3  1  0
  2  4  1  0
  2  5  1  6
  3 21  1  0
  3 22  1  0
  3 23  1  0
  4 24  1  0
  4 25  1  0
  4 26  1  0
  5  6  1  0
  6  7  2  0
  6 17  1  0
  7  8  1  0
  7 27  1  0
  8  9  2  0
  8 28  1  0
  9 10  1  0
  9 29  1  0
 10 11  1  0
 10 17  2  0
 11 12  2  0
 11 30  1  0
 12 13  1  0
 12 15  1  0
 13 14  1  0
 13 31  1  0
 13 32  1  0
 14 33  1  0
 15 16  2  0
 15 34  1  0
 16 17  1  0
 16 35  1  0
M  END

