
     RDKit          3D

 35 37  0  0  0  0  0  0  0  0999 V2000
    2.2757    0.5960    1.7940 C   0  0  0  0  0  0  0  0  0  0  0  0
    2.3796   -0.3525    0.7056 N   0  0  0  0  0  0  0  0  0  0  0  0
    1.3192   -0.6116   -0.0949 N   0  0  0  0  0  0  0  0  0  0  0  0
    1.7219   -1.5124   -0.9787 C   0  0  0  0  0  0  0  0  0  0  0  0
    3.0820   -1.8557   -0.7623 C   0  0  0  0  0  0  0  0  0  0  0  0
    4.0359   -2.7512   -1.3649 C   0  0  0  0  0  0  0  0  0  0  0  0
    3.8967   -3.5213   -2.2960 O   0  0  0  0  0  0  0  0  0  0  0  0
    5.3158   -2.6505   -0.7079 N   0  0  0  0  0  0  0  0  0  0  0  0
    6.3463   -3.5374   -1.2058 C   0  0  0  0  0  0  0  0  0  0  0  0
    6.1903   -4.9502   -0.6521 C   0  0  0  0  0  0  0  0  0  0  0  0
    5.5147   -5.2527    0.2891 O   0  0  0  0  0  0  0  0  0  0  0  0
    6.9722   -5.7903   -1.3778 O   0  0  0  0  0  0  0  0  0  0  0  0
    7.1139   -7.1461   -1.1448 C   0  0  0  0  0  0  0  0  0  0  0  0
    8.2821   -7.7057   -1.6811 C   0  0  0  0  0  0  0  0  0  0  0  0
    8.5233   -9.0689   -1.5496 C   0  0  0  0  0  0  0  0  0  0  0  0
    7.5833   -9.8546   -0.8794 C   0  0  0  0  0  0  0  0  0  0  0  0
    7.8322  -11.3025   -0.7332 N   0  0  0  0  0  0  0  0  0  0  0  0
    8.8610  -11.7480   -1.2161 O   0  0  0  0  0  0  0  0  0  0  0  0
    6.9950  -11.9618   -0.1390 O   0  0  0  0  0  0  0  0  0  0  0  0
    6.4159   -9.3080   -0.3476 C   0  0  0  0  0  0  0  0  0  0  0  0
    6.1711   -7.9406   -0.4775 C   0  0  0  0  0  0  0  0  0  0  0  0
    5.5481   -1.8548    0.3872 C   0  0  0  0  0  0  0  0  0  0  0  0
    4.6882   -1.0587    0.9398 N   0  0  0  0  0  0  0  0  0  0  0  0
    3.4664   -1.0789    0.3419 C   0  0  0  0  0  0  0  0  0  0  0  0
    1.4969    0.2761    2.5021 H   0  0  0  0  0  0  0  0  0  0  0  0
    2.0172    1.5928    1.4063 H   0  0  0  0  0  0  0  0  0  0  0  0
    3.2470    0.6356    2.3030 H   0  0  0  0  0  0  0  0  0  0  0  0
    1.0376   -1.8872   -1.7385 H   0  0  0  0  0  0  0  0  0  0  0  0
    7.3411   -3.1589   -0.9244 H   0  0  0  0  0  0  0  0  0  0  0  0
    6.2923   -3.5863   -2.3012 H   0  0  0  0  0  0  0  0  0  0  0  0
    8.9872   -7.0551   -2.2013 H   0  0  0  0  0  0  0  0  0  0  0  0
    9.4212   -9.5347   -1.9541 H   0  0  0  0  0  0  0  0  0  0  0  0
    5.7080   -9.9600    0.1636 H   0  0  0  0  0  0  0  0  0  0  0  0
    5.2696   -7.4993   -0.0608 H   0  0  0  0  0  0  0  0  0  0  0  0
    6.5621   -1.9142    0.7990 H   0  0  0  0  0  0  0  0  0  0  0  0
  1  2  1  0
  1 25  1  0
  1 26  1  0
  1 27  1  0
  2  3  1  0
  2 24  1  0
  3  4  2  0
  4  5  1  0
  4 28  1  0
  5  6  1  0
  5 24  2  0
  6  7  2  0
  6  8  1  0
  8  9  1  0
  8 22  1  0
  9 10  1  0
  9 29  1  0
  9 30  1  0
 10 11  2  0
 10 12  1  0
 12 13  1  0
 13 14  2  0
 13 21  1  0
 14 15  1  0
 14 31  1  0
 15 16  2  0
 15 32  1  0
 16 17  1  0
 16 20  1  0
 17 18  2  0
 17 19  1  0
 20 21  2  0
 20 33  1  0
 21 34  1  0
 22 23  2  0
 22 35  1  0
 23 24  1  0
M  CHG  2  17   1  19  -1
M  END

