
     RDKit          3D

 49 52  0  0  0  0  0  0  0  0999 V2000
    5.1338    3.0934   14.9671 C   0  0  0  0  0  0  0  0  0  0  0  0
    6.1828    3.5232   13.9295 C   0  0  0  0  0  0  0  0  0  0  0  0
    6.1382    2.7080   12.6550 C   0  0  0  0  0  0  0  0  0  0  0  0
    5.3105    3.0740   11.5826 C   0  0  0  0  0  0  0  0  0  0  0  0
    5.2244    2.3151   10.4139 C   0  0  0  0  0  0  0  0  0  0  0  0
    5.9860    1.1396   10.2921 C   0  0  0  0  0  0  0  0  0  0  0  0
    5.9588    0.3169    9.1514 N   0  0  0  0  0  0  0  0  0  0  0  0
    5.2602    0.4713    7.9852 C   0  0  0  0  0  0  0  0  0  0  0  0
    4.4972    1.3844    7.7260 O   0  0  0  0  0  0  0  0  0  0  0  0
    5.5643   -0.6189    6.9443 C   0  0  0  0  0  0  0  0  0  0  0  0
    5.9724   -1.8946    7.5016 N   0  0  0  0  0  0  0  0  0  0  0  0
    4.9105   -2.6910    8.1221 C   0  0  0  0  0  0  0  0  0  0  0  0
    5.5805   -4.0442    8.3408 C   0  0  0  0  0  0  0  0  0  0  0  0
    6.3977   -4.2190    7.0510 C   0  0  0  0  0  0  0  0  0  0  0  0
    6.7626   -2.7652    6.6138 C   0  0  2  0  0  0  0  0  0  0  0  0
    8.2372   -2.4634    6.7059 C   0  0  0  0  0  0  0  0  0  0  0  0
    9.0803   -2.6146    5.7421 N   0  0  0  0  0  0  0  0  0  0  0  0
   10.3749   -2.3394    6.1462 C   0  0  0  0  0  0  0  0  0  0  0  0
   11.5164   -2.4086    5.3296 C   0  0  0  0  0  0  0  0  0  0  0  0
   12.7579   -2.0960    5.8751 C   0  0  0  0  0  0  0  0  0  0  0  0
   12.8785   -1.7123    7.2247 C   0  0  0  0  0  0  0  0  0  0  0  0
   11.7592   -1.6348    8.0529 C   0  0  0  0  0  0  0  0  0  0  0  0
   10.5103   -1.9534    7.5065 C   0  0  0  0  0  0  0  0  0  0  0  0
    8.9306   -1.9448    8.2616 S   0  0  0  0  0  0  0  0  0  0  0  0
    6.8233    0.7606   11.3565 C   0  0  0  0  0  0  0  0  0  0  0  0
    6.8939    1.5334   12.5140 C   0  0  0  0  0  0  0  0  0  0  0  0
    5.1987    3.7109   15.8779 H   0  0  0  0  0  0  0  0  0  0  0  0
    5.2734    2.0403   15.2603 H   0  0  0  0  0  0  0  0  0  0  0  0
    4.1132    3.1905   14.5632 H   0  0  0  0  0  0  0  0  0  0  0  0
    7.1882    3.4463   14.3775 H   0  0  0  0  0  0  0  0  0  0  0  0
    6.0351    4.5890   13.6857 H   0  0  0  0  0  0  0  0  0  0  0  0
    4.7133    3.9882   11.6561 H   0  0  0  0  0  0  0  0  0  0  0  0
    4.5814    2.6191    9.5909 H   0  0  0  0  0  0  0  0  0  0  0  0
    6.5490   -0.5120    9.1664 H   0  0  0  0  0  0  0  0  0  0  0  0
    6.3792   -0.2251    6.3130 H   0  0  0  0  0  0  0  0  0  0  0  0
    4.6654   -0.6903    6.2991 H   0  0  0  0  0  0  0  0  0  0  0  0
    4.0304   -2.7919    7.4491 H   0  0  0  0  0  0  0  0  0  0  0  0
    4.5580   -2.2162    9.0515 H   0  0  0  0  0  0  0  0  0  0  0  0
    4.8600   -4.8588    8.5057 H   0  0  0  0  0  0  0  0  0  0  0  0
    6.2439   -3.9961    9.2192 H   0  0  0  0  0  0  0  0  0  0  0  0
    5.7812   -4.6830    6.2660 H   0  0  0  0  0  0  0  0  0  0  0  0
    7.2885   -4.8495    7.1795 H   0  0  0  0  0  0  0  0  0  0  0  0
    6.4962   -2.6281    5.5492 H   0  0  0  0  0  0  0  0  0  0  0  0
   11.4057   -2.7062    4.2850 H   0  0  0  0  0  0  0  0  0  0  0  0
   13.6523   -2.1474    5.2495 H   0  0  0  0  0  0  0  0  0  0  0  0
   13.8636   -1.4702    7.6310 H   0  0  0  0  0  0  0  0  0  0  0  0
   11.8583   -1.3343    9.0982 H   0  0  0  0  0  0  0  0  0  0  0  0
    7.4300   -0.1457   11.2688 H   0  0  0  0  0  0  0  0  0  0  0  0
    7.5578    1.2173   13.3244 H   0  0  0  0  0  0  0  0  0  0  0  0
  1  2  1  0
  1 27  1  0
  1 28  1  0
  1 29  1  0
  2  3  1  0
  2 30  1  0
  2 31  1  0
  3  4  2  0
  3 26  1  0
  4  5  1  0
  4 32  1  0
  5  6  2  0
  5 33  1  0
  6  7  1  0
  6 25  1  0
  7  8  1  0
  7 34  1  0
  8  9  2  0
  8 10  1  0
 10 11  1  0
 10 35  1  0
 10 36  1  0
 11 12  1  0
 11 15  1  0
 12 13  1  0
 12 37  1  0
 12 38  1  0
 13 14  1  0
 13 39  1  0
 13 40  1  0
 14 15  1  0
 14 41  1  0
 14 42  1  0
 15 16  1  0
 15 43  1  6
 16 17  2  0
 16 24  1  0
 17 18  1  0
 18 19  2  0
 18 23  1  0
 19 20  1  0
 19 44  1  0
 20 21  2  0
 20 45  1  0
 21 22  1  0
 21 46  1  0
 22 23  2  0
 22 47  1  0
 23 24  1  0
 25 26  2  0
 25 48  1  0
 26 49  1  0
M  END

