
     RDKit          3D

 65 68  0  0  0  0  0  0  0  0999 V2000
    1.7550   -1.0487   -0.6915 C   0  0  0  0  0  0  0  0  0  0  0  0
    3.2503   -1.2675   -0.8235 C   0  0  0  0  0  0  0  0  0  0  0  0
    3.9046   -0.3899    0.0769 O   0  0  0  0  0  0  0  0  0  0  0  0
    5.2611   -0.4023    0.1636 C   0  0  0  0  0  0  0  0  0  0  0  0
    5.8339    0.4845    1.0900 C   0  0  0  0  0  0  0  0  0  0  0  0
    7.2147    0.5307    1.2548 C   0  0  0  0  0  0  0  0  0  0  0  0
    8.0653   -0.2900    0.4927 C   0  0  0  0  0  0  0  0  0  0  0  0
    9.4657   -0.1329    0.6590 N   0  0  0  0  0  0  0  0  0  0  0  0
   10.4327   -1.0952    0.7638 C   0  0  0  0  0  0  0  0  0  0  0  0
   10.0690   -2.7476    0.7184 S   0  0  0  0  0  0  0  0  0  0  0  0
   11.7102   -0.6143    0.9163 N   0  0  0  0  0  0  0  0  0  0  0  0
   12.0304    0.8250    0.9616 C   0  0  0  0  0  0  0  0  0  0  0  0
   12.0156    1.5333   -0.3868 C   0  0  0  0  0  0  0  0  0  0  0  0
   12.9862    1.2419   -1.3529 C   0  0  0  0  0  0  0  0  0  0  0  0
   13.0112    1.8888   -2.5915 C   0  0  0  0  0  0  0  0  0  0  0  0
   12.0506    2.8594   -2.8750 C   0  0  0  0  0  0  0  0  0  0  0  0
   11.0704    3.1792   -1.9310 C   0  0  0  0  0  0  0  0  0  0  0  0
   11.0516    2.5195   -0.6944 C   0  0  0  0  0  0  0  0  0  0  0  0
   10.1142    2.7698    0.2731 O   0  0  0  0  0  0  0  0  0  0  0  0
    9.1331    3.7655    0.0585 C   0  0  0  0  0  0  0  0  0  0  0  0
   12.8386   -1.5438    1.0772 C   0  0  0  0  0  0  0  0  0  0  0  0
   13.2211   -1.8325    2.5148 C   0  0  0  0  0  0  0  0  0  0  0  0
   12.6966   -2.8729    3.2268 C   0  0  0  0  0  0  0  0  0  0  0  0
   13.0798   -3.1500    4.5845 C   0  0  0  0  0  0  0  0  0  0  0  0
   12.5510   -4.2109    5.3437 C   0  0  0  0  0  0  0  0  0  0  0  0
   12.9538   -4.4470    6.6522 C   0  0  0  0  0  0  0  0  0  0  0  0
   13.9209   -3.6026    7.2425 C   0  0  0  0  0  0  0  0  0  0  0  0
   14.3810   -3.7458    8.5071 O   0  0  0  0  0  0  0  0  0  0  0  0
   13.8870   -4.7905    9.3181 C   0  0  0  0  0  0  0  0  0  0  0  0
   14.4650   -2.5392    6.5132 C   0  0  0  0  0  0  0  0  0  0  0  0
   14.0512   -2.3105    5.1958 C   0  0  0  0  0  0  0  0  0  0  0  0
   14.5627   -1.2715    4.4466 N   0  0  0  0  0  0  0  0  0  0  0  0
   15.2527   -0.6514    4.8617 H   0  0  0  0  0  0  0  0  0  0  0  0
   14.2129   -0.9443    3.1407 C   0  0  0  0  0  0  0  0  0  0  0  0
   14.7296    0.0290    2.5956 O   0  0  0  0  0  0  0  0  0  0  0  0
    7.4910   -1.1633   -0.4387 C   0  0  0  0  0  0  0  0  0  0  0  0
    6.1034   -1.2265   -0.5986 C   0  0  0  0  0  0  0  0  0  0  0  0
    1.2096   -1.7143   -1.3784 H   0  0  0  0  0  0  0  0  0  0  0  0
    1.4918   -0.0073   -0.9323 H   0  0  0  0  0  0  0  0  0  0  0  0
    1.4211   -1.2582    0.3362 H   0  0  0  0  0  0  0  0  0  0  0  0
    3.5844   -1.0678   -1.8598 H   0  0  0  0  0  0  0  0  0  0  0  0
    3.5144   -2.3168   -0.5906 H   0  0  0  0  0  0  0  0  0  0  0  0
    5.1717    1.1181    1.6836 H   0  0  0  0  0  0  0  0  0  0  0  0
    7.6477    1.2058    1.9980 H   0  0  0  0  0  0  0  0  0  0  0  0
    9.7407    0.8412    0.7605 H   0  0  0  0  0  0  0  0  0  0  0  0
   13.0381    0.8998    1.3917 H   0  0  0  0  0  0  0  0  0  0  0  0
   11.3623    1.3395    1.6668 H   0  0  0  0  0  0  0  0  0  0  0  0
   13.7484    0.4931   -1.1241 H   0  0  0  0  0  0  0  0  0  0  0  0
   13.7816    1.6402   -3.3246 H   0  0  0  0  0  0  0  0  0  0  0  0
   12.0568    3.3787   -3.8367 H   0  0  0  0  0  0  0  0  0  0  0  0
   10.3246    3.9375   -2.1684 H   0  0  0  0  0  0  0  0  0  0  0  0
    8.5144    3.7940    0.9648 H   0  0  0  0  0  0  0  0  0  0  0  0
    8.4895    3.5259   -0.8053 H   0  0  0  0  0  0  0  0  0  0  0  0
    9.5941    4.7564   -0.0953 H   0  0  0  0  0  0  0  0  0  0  0  0
   13.7085   -1.1031    0.5722 H   0  0  0  0  0  0  0  0  0  0  0  0
   12.5631   -2.4777    0.5733 H   0  0  0  0  0  0  0  0  0  0  0  0
   11.9464   -3.5099    2.7497 H   0  0  0  0  0  0  0  0  0  0  0  0
   11.8022   -4.8607    4.8835 H   0  0  0  0  0  0  0  0  0  0  0  0
   12.5205   -5.2779    7.2074 H   0  0  0  0  0  0  0  0  0  0  0  0
   14.4008   -4.7024   10.2846 H   0  0  0  0  0  0  0  0  0  0  0  0
   14.1049   -5.7836    8.8868 H   0  0  0  0  0  0  0  0  0  0  0  0
   12.7984   -4.7032    9.4827 H   0  0  0  0  0  0  0  0  0  0  0  0
   15.2103   -1.9013    6.9924 H   0  0  0  0  0  0  0  0  0  0  0  0
    8.1341   -1.8057   -1.0377 H   0  0  0  0  0  0  0  0  0  0  0  0
    5.6938   -1.9229   -1.3305 H   0  0  0  0  0  0  0  0  0  0  0  0
  1  2  1  0
  1 38  1  0
  1 39  1  0
  1 40  1  0
  2  3  1  0
  2 41  1  0
  2 42  1  0
  3  4  1  0
  4  5  2  0
  4 37  1  0
  5  6  1  0
  5 43  1  0
  6  7  2  0
  6 44  1  0
  7  8  1  0
  7 36  1  0
  8  9  1  0
  8 45  1  0
  9 10  2  0
  9 11  1  0
 11 12  1  0
 11 21  1  0
 12 13  1  0
 12 46  1  0
 12 47  1  0
 13 14  2  0
 13 18  1  0
 14 15  1  0
 14 48  1  0
 15 16  2  0
 15 49  1  0
 16 17  1  0
 16 50  1  0
 17 18  2  0
 17 51  1  0
 18 19  1  0
 19 20  1  0
 20 52  1  0
 20 53  1  0
 20 54  1  0
 21 22  1  0
 21 55  1  0
 21 56  1  0
 22 23  2  0
 22 34  1  0
 23 24  1  0
 23 57  1  0
 24 25  2  0
 24 31  1  0
 25 26  1  0
 25 58  1  0
 26 27  2  0
 26 59  1  0
 27 28  1  0
 27 30  1  0
 28 29  1  0
 29 60  1  0
 29 61  1  0
 29 62  1  0
 30 31  2  0
 30 63  1  0
 31 32  1  0
 32 33  1  0
 32 34  1  0
 34 35  2  0
 36 37  2  0
 36 64  1  0
 37 65  1  0
M  END

