
     RDKit          3D

 32 32  0  0  0  0  0  0  0  0999 V2000
    9.6770    2.3522    1.1069 C   0  0  0  0  0  0  0  0  0  0  0  0
    8.5901    2.0621    2.1272 C   0  0  0  0  0  0  0  0  0  0  0  0
    8.5809    0.6703    2.5131 O   0  0  0  0  0  0  0  0  0  0  0  0
    7.8753   -0.1794    1.7526 C   0  0  0  0  0  0  0  0  0  0  0  0
    7.2449    0.1320    0.7737 O   0  0  0  0  0  0  0  0  0  0  0  0
    7.9855   -1.5849    2.3123 C   0  0  0  0  0  0  0  0  0  0  0  0
    7.0322   -2.7265    1.2581 S   0  0  0  0  0  0  0  0  0  0  0  0
    7.3341   -4.2444    2.1164 C   0  0  0  0  0  0  0  0  0  0  0  0
    8.0906   -4.2539    3.2083 N   0  0  0  0  0  0  0  0  0  0  0  0
    8.3363   -5.3868    3.8794 C   0  0  0  0  0  0  0  0  0  0  0  0
    9.2099   -5.2515    5.1012 C   0  0  0  0  0  0  0  0  0  0  0  0
    7.8109   -6.6341    3.4720 C   0  0  0  0  0  0  0  0  0  0  0  0
    8.0721   -7.9208    4.2119 C   0  0  0  0  0  0  0  0  0  0  0  0
    7.0063   -6.6325    2.3136 C   0  0  0  0  0  0  0  0  0  0  0  0
    6.4430   -7.8710    1.8501 C   0  0  0  0  0  0  0  0  0  0  0  0
    6.0072   -8.8907    1.5088 N   0  0  0  0  0  0  0  0  0  0  0  0
    6.7503   -5.4357    1.6099 C   0  0  0  0  0  0  0  0  0  0  0  0
    5.9358   -5.4224    0.4341 C   0  0  0  0  0  0  0  0  0  0  0  0
    5.2767   -5.3969   -0.5217 N   0  0  0  0  0  0  0  0  0  0  0  0
    9.7111    3.4331    0.8963 H   0  0  0  0  0  0  0  0  0  0  0  0
    9.4774    1.8272    0.1610 H   0  0  0  0  0  0  0  0  0  0  0  0
   10.6648    2.0444    1.4840 H   0  0  0  0  0  0  0  0  0  0  0  0
    7.5974    2.3265    1.7344 H   0  0  0  0  0  0  0  0  0  0  0  0
    8.7637    2.6071    3.0661 H   0  0  0  0  0  0  0  0  0  0  0  0
    7.6114   -1.6070    3.3462 H   0  0  0  0  0  0  0  0  0  0  0  0
    9.0413   -1.8889    2.3579 H   0  0  0  0  0  0  0  0  0  0  0  0
    9.5032   -4.2011    5.2189 H   0  0  0  0  0  0  0  0  0  0  0  0
   10.1215   -5.8653    5.0181 H   0  0  0  0  0  0  0  0  0  0  0  0
    8.6820   -5.5742    6.0135 H   0  0  0  0  0  0  0  0  0  0  0  0
    8.7256   -7.7750    5.0795 H   0  0  0  0  0  0  0  0  0  0  0  0
    8.5441   -8.6679    3.5534 H   0  0  0  0  0  0  0  0  0  0  0  0
    7.1309   -8.3702    4.5688 H   0  0  0  0  0  0  0  0  0  0  0  0
  1  2  1  0
  1 20  1  0
  1 21  1  0
  1 22  1  0
  2  3  1  0
  2 23  1  0
  2 24  1  0
  3  4  1  0
  4  5  2  0
  4  6  1  0
  6  7  1  0
  6 25  1  0
  6 26  1  0
  7  8  1  0
  8  9  2  0
  8 17  1  0
  9 10  1  0
 10 11  1  0
 10 12  2  0
 11 27  1  0
 11 28  1  0
 11 29  1  0
 12 13  1  0
 12 14  1  0
 13 30  1  0
 13 31  1  0
 13 32  1  0
 14 15  1  0
 14 17  2  0
 15 16  3  0
 17 18  1  0
 18 19  3  0
M  END

