
     RDKit          3D

 60 64  0  0  0  0  0  0  0  0999 V2000
    4.7665    3.2049    0.5450 C   0  0  0  0  0  0  0  0  0  0  0  0
    4.5394    1.9361    1.1228 O   0  0  0  0  0  0  0  0  0  0  0  0
    3.3856    1.6974    1.7986 C   0  0  0  0  0  0  0  0  0  0  0  0
    2.3894    2.6681    1.9976 C   0  0  0  0  0  0  0  0  0  0  0  0
    1.2300    2.3449    2.7065 C   0  0  0  0  0  0  0  0  0  0  0  0
    1.0493    1.0618    3.2270 C   0  0  0  0  0  0  0  0  0  0  0  0
    2.0434    0.1015    3.0305 C   0  0  0  0  0  0  0  0  0  0  0  0
    3.2198    0.3926    2.3261 C   0  0  0  0  0  0  0  0  0  0  0  0
    4.2730   -0.6906    2.0686 C   0  0  1  0  0  0  0  0  0  0  0  0
    4.5874   -1.5896    3.2622 C   0  0  0  0  0  0  0  0  0  0  0  0
    5.0388   -1.0750    4.4552 C   0  0  0  0  0  0  0  0  0  0  0  0
    5.0683    0.2591    4.6481 O   0  0  0  0  0  0  0  0  0  0  0  0
    5.5263   -1.8109    5.6400 C   0  0  0  0  0  0  0  0  0  0  0  0
    6.2111   -3.0586    5.5358 C   0  0  0  0  0  0  0  0  0  0  0  0
    6.6893   -3.6881    6.6609 C   0  0  0  0  0  0  0  0  0  0  0  0
    6.5108   -3.1287    7.9577 C   0  0  0  0  0  0  0  0  0  0  0  0
    6.9827   -3.7632    9.1394 C   0  0  0  0  0  0  0  0  0  0  0  0
    6.7913   -3.1826   10.3766 C   0  0  0  0  0  0  0  0  0  0  0  0
    6.1193   -1.9382   10.4907 C   0  0  0  0  0  0  0  0  0  0  0  0
    5.6506   -1.2973    9.3637 C   0  0  0  0  0  0  0  0  0  0  0  0
    5.8308   -1.8704    8.0720 C   0  0  0  0  0  0  0  0  0  0  0  0
    5.3628   -1.2337    6.8947 C   0  0  0  0  0  0  0  0  0  0  0  0
    4.2355   -2.9702    2.9217 C   0  0  0  0  0  0  0  0  0  0  0  0
    4.2930   -3.9963    3.5683 O   0  0  0  0  0  0  0  0  0  0  0  0
    3.7074   -2.9419    1.4703 C   0  0  0  0  0  0  0  0  0  0  0  0
    3.2948   -3.8876    0.8413 O   0  0  0  0  0  0  0  0  0  0  0  0
    3.8381   -1.6408    1.0294 N   0  0  0  0  0  0  0  0  0  0  0  0
    3.4683   -1.2198   -0.2852 C   0  0  0  0  0  0  0  0  0  0  0  0
    2.1106   -1.2278   -0.6324 C   0  0  0  0  0  0  0  0  0  0  0  0
    1.7144   -0.8127   -1.9005 C   0  0  0  0  0  0  0  0  0  0  0  0
    2.6759   -0.3800   -2.8158 C   0  0  0  0  0  0  0  0  0  0  0  0
    4.0392   -0.3774   -2.4924 C   0  0  0  0  0  0  0  0  0  0  0  0
    5.0551    0.0773   -3.5133 C   0  0  0  0  0  0  0  0  0  0  0  0
    4.4528   -0.8193   -1.2126 C   0  0  0  0  0  0  0  0  0  0  0  0
    5.9206   -0.8730   -0.8681 C   0  0  0  0  0  0  0  0  0  0  0  0
    5.7457    3.1502    0.0515 H   0  0  0  0  0  0  0  0  0  0  0  0
    4.7944    4.0032    1.3075 H   0  0  0  0  0  0  0  0  0  0  0  0
    3.9980    3.4519   -0.2080 H   0  0  0  0  0  0  0  0  0  0  0  0
    2.5088    3.6743    1.5967 H   0  0  0  0  0  0  0  0  0  0  0  0
    0.4631    3.1101    2.8512 H   0  0  0  0  0  0  0  0  0  0  0  0
    0.1428    0.8098    3.7812 H   0  0  0  0  0  0  0  0  0  0  0  0
    1.9118   -0.9052    3.4362 H   0  0  0  0  0  0  0  0  0  0  0  0
    5.1898   -0.1816    1.7324 H   0  0  0  0  0  0  0  0  0  0  0  0
    4.5236    0.7078    3.9768 H   0  0  0  0  0  0  0  0  0  0  0  0
    6.3586   -3.5133    4.5594 H   0  0  0  0  0  0  0  0  0  0  0  0
    7.2183   -4.6399    6.5661 H   0  0  0  0  0  0  0  0  0  0  0  0
    7.5002   -4.7223    9.0521 H   0  0  0  0  0  0  0  0  0  0  0  0
    7.1580   -3.6818   11.2772 H   0  0  0  0  0  0  0  0  0  0  0  0
    5.9749   -1.4903   11.4771 H   0  0  0  0  0  0  0  0  0  0  0  0
    5.1322   -0.3380    9.4462 H   0  0  0  0  0  0  0  0  0  0  0  0
    4.8587   -0.2700    6.9814 H   0  0  0  0  0  0  0  0  0  0  0  0
    1.3775   -1.5639    0.1022 H   0  0  0  0  0  0  0  0  0  0  0  0
    0.6568   -0.8201   -2.1749 H   0  0  0  0  0  0  0  0  0  0  0  0
    2.3652   -0.0441   -3.8092 H   0  0  0  0  0  0  0  0  0  0  0  0
    4.5632    0.4444   -4.4257 H   0  0  0  0  0  0  0  0  0  0  0  0
    5.7325   -0.7426   -3.8082 H   0  0  0  0  0  0  0  0  0  0  0  0
    5.6952    0.8877   -3.1259 H   0  0  0  0  0  0  0  0  0  0  0  0
    6.5089   -1.2994   -1.6948 H   0  0  0  0  0  0  0  0  0  0  0  0
    6.1053   -1.4897    0.0208 H   0  0  0  0  0  0  0  0  0  0  0  0
    6.3280    0.1340   -0.6710 H   0  0  0  0  0  0  0  0  0  0  0  0
  1  2  1  0
  1 36  1  0
  1 37  1  0
  1 38  1  0
  2  3  1  0
  3  4  2  0
  3  8  1  0
  4  5  1  0
  4 39  1  0
  5  6  2  0
  5 40  1  0
  6  7  1  0
  6 41  1  0
  7  8  2  0
  7 42  1  0
  8  9  1  0
  9 10  1  0
  9 27  1  0
  9 43  1  6
 10 11  2  0
 10 23  1  0
 11 12  1  0
 11 13  1  0
 12 44  1  0
 13 14  2  0
 13 22  1  0
 14 15  1  0
 14 45  1  0
 15 16  2  0
 15 46  1  0
 16 17  1  0
 16 21  1  0
 17 18  2  0
 17 47  1  0
 18 19  1  0
 18 48  1  0
 19 20  2  0
 19 49  1  0
 20 21  1  0
 20 50  1  0
 21 22  2  0
 22 51  1  0
 23 24  2  0
 23 25  1  0
 25 26  2  0
 25 27  1  0
 27 28  1  0
 28 29  2  0
 28 34  1  0
 29 30  1  0
 29 52  1  0
 30 31  2  0
 30 53  1  0
 31 32  1  0
 31 54  1  0
 32 33  1  0
 32 34  2  0
 33 55  1  0
 33 56  1  0
 33 57  1  0
 34 35  1  0
 35 58  1  0
 35 59  1  0
 35 60  1  0
M  END

