
     RDKit          3D

 40 42  0  0  0  0  0  0  0  0999 V2000
    0.9846    0.1611   -0.0560 C   0  0  0  0  0  0  0  0  0  0  0  0
    2.5230    0.1277    0.1258 C   0  0  1  0  0  0  0  0  0  0  0  0
    3.1619    0.1558   -1.3109 C   0  0  0  0  0  0  0  0  0  0  0  0
    4.6721    0.1378   -1.3757 C   0  0  0  0  0  0  0  0  0  0  0  0
    5.3810   -1.0746   -1.4088 C   0  0  0  0  0  0  0  0  0  0  0  0
    6.7776   -1.0936   -1.4575 C   0  0  0  0  0  0  0  0  0  0  0  0
    7.4960    0.1055   -1.4764 C   0  0  0  0  0  0  0  0  0  0  0  0
    6.8056    1.3207   -1.4496 C   0  0  0  0  0  0  0  0  0  0  0  0
    5.4090    1.3335   -1.3997 C   0  0  0  0  0  0  0  0  0  0  0  0
    2.9548    1.3391    0.9184 C   0  0  0  0  0  0  0  0  0  0  0  0
    3.6611    1.2803    2.0507 C   0  0  0  0  0  0  0  0  0  0  0  0
    4.1280   -0.0024    2.6753 C   0  0  0  0  0  0  0  0  0  0  0  0
    3.5936   -1.2425    1.9912 C   0  0  0  0  0  0  0  0  0  0  0  0
    3.8717   -2.5588    2.6291 C   0  0  0  0  0  0  0  0  0  0  0  0
    2.9875   -3.6481    2.4894 C   0  0  0  0  0  0  0  0  0  0  0  0
    3.2648   -4.8807    3.0795 C   0  0  0  0  0  0  0  0  0  0  0  0
    4.4248   -5.0686    3.8370 C   0  0  0  0  0  0  0  0  0  0  0  0
    5.2958   -3.9889    3.9920 C   0  0  0  0  0  0  0  0  0  0  0  0
    6.7558   -4.1881    4.9405 Cl  0  0  0  0  0  0  0  0  0  0  0  0
    5.0297   -2.7491    3.4072 C   0  0  0  0  0  0  0  0  0  0  0  0
    2.8987   -1.1499    0.8411 C   0  0  0  0  0  0  0  0  0  0  0  0
    0.6724    1.0745   -0.5887 H   0  0  0  0  0  0  0  0  0  0  0  0
    0.4761    0.1428    0.9198 H   0  0  0  0  0  0  0  0  0  0  0  0
    0.6366   -0.7053   -0.6425 H   0  0  0  0  0  0  0  0  0  0  0  0
    2.7839    1.0574   -1.8218 H   0  0  0  0  0  0  0  0  0  0  0  0
    2.7606   -0.7077   -1.8683 H   0  0  0  0  0  0  0  0  0  0  0  0
    4.8307   -2.0192   -1.4023 H   0  0  0  0  0  0  0  0  0  0  0  0
    7.3065   -2.0501   -1.4851 H   0  0  0  0  0  0  0  0  0  0  0  0
    8.5883    0.0928   -1.5181 H   0  0  0  0  0  0  0  0  0  0  0  0
    7.3567    2.2648   -1.4718 H   0  0  0  0  0  0  0  0  0  0  0  0
    4.8797    2.2901   -1.3851 H   0  0  0  0  0  0  0  0  0  0  0  0
    2.6538    2.3139    0.5177 H   0  0  0  0  0  0  0  0  0  0  0  0
    3.9363    2.2065    2.5664 H   0  0  0  0  0  0  0  0  0  0  0  0
    3.8550   -0.0224    3.7476 H   0  0  0  0  0  0  0  0  0  0  0  0
    5.2356   -0.0179    2.6719 H   0  0  0  0  0  0  0  0  0  0  0  0
    2.0581   -3.5189    1.9321 H   0  0  0  0  0  0  0  0  0  0  0  0
    2.5612   -5.7088    2.9613 H   0  0  0  0  0  0  0  0  0  0  0  0
    4.6487   -6.0269    4.3078 H   0  0  0  0  0  0  0  0  0  0  0  0
    5.7469   -1.9413    3.5507 H   0  0  0  0  0  0  0  0  0  0  0  0
    2.5619   -2.0692    0.3498 H   0  0  0  0  0  0  0  0  0  0  0  0
  2  1  1  6
  1 22  1  0
  1 23  1  0
  1 24  1  0
  2  3  1  0
  2 10  1  0
  2 21  1  0
  3  4  1  0
  3 25  1  0
  3 26  1  0
  4  5  2  0
  4  9  1  0
  5  6  1  0
  5 27  1  0
  6  7  2  0
  6 28  1  0
  7  8  1  0
  7 29  1  0
  8  9  2  0
  8 30  1  0
  9 31  1  0
 10 11  2  0
 10 32  1  0
 11 12  1  0
 11 33  1  0
 12 13  1  0
 12 34  1  0
 12 35  1  0
 13 14  1  0
 13 21  2  0
 14 15  2  0
 14 20  1  0
 15 16  1  0
 15 36  1  0
 16 17  2  0
 16 37  1  0
 17 18  1  0
 17 38  1  0
 18 19  1  0
 18 20  2  0
 20 39  1  0
 21 40  1  0
M  END

