
     RDKit          3D

109112  0  0  0  0  0  0  0  0999 V2000
    9.5061   -4.7375    2.6125 C   0  0  0  0  0  0  0  0  0  0  0  0
    8.7588   -3.4473    2.2657 C   0  0  0  0  0  0  0  0  0  0  0  0
    9.4505   -2.1572    2.7341 C   0  0  0  0  0  0  0  0  0  0  0  0
   10.8441   -1.8835    2.1426 C   0  0  0  0  0  0  0  0  0  0  0  0
   10.9211   -1.7648    0.6121 C   0  0  0  0  0  0  0  0  0  0  0  0
   10.1301   -0.5930    0.0208 C   0  0  0  0  0  0  0  0  0  0  0  0
   10.2945   -0.4148   -1.5036 C   0  0  0  0  0  0  0  0  0  0  0  0
    9.7562   -1.5463   -2.3621 C   0  0  0  0  0  0  0  0  0  0  0  0
   10.6610   -2.5072   -2.8525 C   0  0  0  0  0  0  0  0  0  0  0  0
   10.2714   -3.5859   -3.6526 C   0  0  0  0  0  0  0  0  0  0  0  0
   11.2821   -4.6110   -4.1405 C   0  0  0  0  0  0  0  0  0  0  0  0
   11.3281   -4.7992   -5.6467 C   0  0  0  0  0  0  0  0  0  0  0  0
   11.6485   -3.7323   -6.5030 C   0  0  0  0  0  0  0  0  0  0  0  0
   11.7081   -3.8958   -7.8845 C   0  0  0  0  0  0  0  0  0  0  0  0
   11.4433   -5.1482   -8.4766 C   0  0  0  0  0  0  0  0  0  0  0  0
   11.5508   -5.3265   -9.8512 N   0  0  0  0  0  0  0  0  0  0  0  0
   11.1183   -6.2201   -7.6252 C   0  0  0  0  0  0  0  0  0  0  0  0
   11.0647   -6.0407   -6.2414 C   0  0  0  0  0  0  0  0  0  0  0  0
    8.9123   -3.6912   -3.9849 C   0  0  0  0  0  0  0  0  0  0  0  0
    8.0012   -2.7494   -3.5160 C   0  0  0  0  0  0  0  0  0  0  0  0
    8.3889   -1.6713   -2.6988 C   0  0  0  0  0  0  0  0  0  0  0  0
    7.3153   -0.7086   -2.2260 C   0  0  0  0  0  0  0  0  0  0  0  0
    6.4042   -1.2853   -1.1244 C   0  0  0  0  0  0  0  0  0  0  0  0
    5.3493   -0.3044   -0.5897 C   0  0  0  0  0  0  0  0  0  0  0  0
    4.2922    0.1851   -1.5919 C   0  0  0  0  0  0  0  0  0  0  0  0
    3.3805   -0.9241   -2.1533 C   0  0  0  0  0  0  0  0  0  0  0  0
    2.2731   -0.3968   -3.0463 C   0  0  0  0  0  0  0  0  0  0  0  0
    1.0601   -0.0013   -2.4561 C   0  0  0  0  0  0  0  0  0  0  0  0
    0.0177    0.5453   -3.2008 C   0  0  0  0  0  0  0  0  0  0  0  0
    0.1538    0.7198   -4.5857 C   0  0  0  0  0  0  0  0  0  0  0  0
   -0.9774    1.2981   -5.4205 C   0  0  0  0  0  0  0  0  0  0  0  0
   -1.4872    2.6522   -4.9600 C   0  0  0  0  0  0  0  0  0  0  0  0
   -0.6377    3.7704   -4.9109 C   0  0  0  0  0  0  0  0  0  0  0  0
   -1.0970    5.0204   -4.5043 C   0  0  0  0  0  0  0  0  0  0  0  0
   -2.4415    5.2075   -4.1214 C   0  0  0  0  0  0  0  0  0  0  0  0
   -2.9147    6.4645   -3.7626 N   0  0  0  0  0  0  0  0  0  0  0  0
   -3.2967    4.0912   -4.1649 C   0  0  0  0  0  0  0  0  0  0  0  0
   -2.8216    2.8444   -4.5770 C   0  0  0  0  0  0  0  0  0  0  0  0
    1.3616    0.3275   -5.1742 C   0  0  0  0  0  0  0  0  0  0  0  0
    2.4249   -0.2304   -4.4416 C   0  0  0  0  0  0  0  0  0  0  0  0
    3.6833   -0.6557   -5.1766 C   0  0  0  0  0  0  0  0  0  0  0  0
    3.7402   -2.1539   -5.5567 C   0  0  0  0  0  0  0  0  0  0  0  0
    2.7028   -2.6328   -6.5822 C   0  0  0  0  0  0  0  0  0  0  0  0
    2.8914   -2.0838   -8.0010 C   0  0  0  0  0  0  0  0  0  0  0  0
    1.8734   -2.6272   -9.0082 C   0  0  0  0  0  0  0  0  0  0  0  0
    2.0569   -2.0900  -10.4310 C   0  0  0  0  0  0  0  0  0  0  0  0
    1.0364   -2.6382  -11.4296 C   0  0  0  0  0  0  0  0  0  0  0  0
    8.9275   -5.6259    2.3123 H   0  0  0  0  0  0  0  0  0  0  0  0
    9.6914   -4.8132    3.6978 H   0  0  0  0  0  0  0  0  0  0  0  0
   10.4832   -4.7996    2.1067 H   0  0  0  0  0  0  0  0  0  0  0  0
    7.7531   -3.4826    2.7204 H   0  0  0  0  0  0  0  0  0  0  0  0
    8.5867   -3.4062    1.1754 H   0  0  0  0  0  0  0  0  0  0  0  0
    9.5440   -2.1857    3.8352 H   0  0  0  0  0  0  0  0  0  0  0  0
    8.7852   -1.3026    2.5192 H   0  0  0  0  0  0  0  0  0  0  0  0
   11.5391   -2.6774    2.4671 H   0  0  0  0  0  0  0  0  0  0  0  0
   11.2331   -0.9517    2.5923 H   0  0  0  0  0  0  0  0  0  0  0  0
   10.5900   -2.7074    0.1433 H   0  0  0  0  0  0  0  0  0  0  0  0
   11.9832   -1.6524    0.3274 H   0  0  0  0  0  0  0  0  0  0  0  0
   10.4540    0.3423    0.5132 H   0  0  0  0  0  0  0  0  0  0  0  0
    9.0594   -0.7032    0.2594 H   0  0  0  0  0  0  0  0  0  0  0  0
   11.3681   -0.2909   -1.7249 H   0  0  0  0  0  0  0  0  0  0  0  0
    9.8180    0.5351   -1.7960 H   0  0  0  0  0  0  0  0  0  0  0  0
   11.7203   -2.3990   -2.5980 H   0  0  0  0  0  0  0  0  0  0  0  0
   11.0599   -5.5859   -3.6731 H   0  0  0  0  0  0  0  0  0  0  0  0
   12.2808   -4.3206   -3.7716 H   0  0  0  0  0  0  0  0  0  0  0  0
   11.8515   -2.7449   -6.0779 H   0  0  0  0  0  0  0  0  0  0  0  0
   11.9657   -3.0446   -8.5219 H   0  0  0  0  0  0  0  0  0  0  0  0
   11.4582   -4.4918  -10.4187 H   0  0  0  0  0  0  0  0  0  0  0  0
   11.0539   -6.1201  -10.2393 H   0  0  0  0  0  0  0  0  0  0  0  0
   10.9091   -7.2047   -8.0538 H   0  0  0  0  0  0  0  0  0  0  0  0
   10.8111   -6.8964   -5.6079 H   0  0  0  0  0  0  0  0  0  0  0  0
    8.5708   -4.5079   -4.6269 H   0  0  0  0  0  0  0  0  0  0  0  0
    6.9480   -2.8440   -3.7989 H   0  0  0  0  0  0  0  0  0  0  0  0
    6.6955   -0.4281   -3.0948 H   0  0  0  0  0  0  0  0  0  0  0  0
    7.7628    0.2290   -1.8622 H   0  0  0  0  0  0  0  0  0  0  0  0
    7.0337   -1.6171   -0.2816 H   0  0  0  0  0  0  0  0  0  0  0  0
    5.9179   -2.2022   -1.4999 H   0  0  0  0  0  0  0  0  0  0  0  0
    5.8667    0.5773   -0.1697 H   0  0  0  0  0  0  0  0  0  0  0  0
    4.8317   -0.7811    0.2626 H   0  0  0  0  0  0  0  0  0  0  0  0
    4.7736    0.7224   -2.4275 H   0  0  0  0  0  0  0  0  0  0  0  0
    3.6566    0.9361   -1.0923 H   0  0  0  0  0  0  0  0  0  0  0  0
    2.9255   -1.4625   -1.3037 H   0  0  0  0  0  0  0  0  0  0  0  0
    3.9871   -1.6691   -2.6888 H   0  0  0  0  0  0  0  0  0  0  0  0
    0.9342   -0.1282   -1.3761 H   0  0  0  0  0  0  0  0  0  0  0  0
   -0.9081    0.8466   -2.7030 H   0  0  0  0  0  0  0  0  0  0  0  0
   -1.8228    0.5884   -5.4221 H   0  0  0  0  0  0  0  0  0  0  0  0
   -0.6392    1.3653   -6.4689 H   0  0  0  0  0  0  0  0  0  0  0  0
    0.4134    3.6590   -5.1931 H   0  0  0  0  0  0  0  0  0  0  0  0
   -0.4094    5.8713   -4.4824 H   0  0  0  0  0  0  0  0  0  0  0  0
   -2.2203    7.1269   -3.4364 H   0  0  0  0  0  0  0  0  0  0  0  0
   -3.7619    6.4812   -3.2065 H   0  0  0  0  0  0  0  0  0  0  0  0
   -4.3457    4.2041   -3.8754 H   0  0  0  0  0  0  0  0  0  0  0  0
   -3.5143    1.9975   -4.6011 H   0  0  0  0  0  0  0  0  0  0  0  0
    1.4878    0.4645   -6.2530 H   0  0  0  0  0  0  0  0  0  0  0  0
    4.5713   -0.4237   -4.5682 H   0  0  0  0  0  0  0  0  0  0  0  0
    3.7859   -0.0458   -6.0889 H   0  0  0  0  0  0  0  0  0  0  0  0
    3.6295   -2.7563   -4.6390 H   0  0  0  0  0  0  0  0  0  0  0  0
    4.7528   -2.3722   -5.9431 H   0  0  0  0  0  0  0  0  0  0  0  0
    1.6872   -2.3872   -6.2240 H   0  0  0  0  0  0  0  0  0  0  0  0
    2.7446   -3.7360   -6.6255 H   0  0  0  0  0  0  0  0  0  0  0  0
    3.9136   -2.3226   -8.3504 H   0  0  0  0  0  0  0  0  0  0  0  0
    2.8304   -0.9805   -7.9929 H   0  0  0  0  0  0  0  0  0  0  0  0
    0.8515   -2.3889   -8.6579 H   0  0  0  0  0  0  0  0  0  0  0  0
    1.9314   -3.7318   -9.0260 H   0  0  0  0  0  0  0  0  0  0  0  0
    3.0787   -2.3280  -10.7794 H   0  0  0  0  0  0  0  0  0  0  0  0
    1.9981   -0.9862  -10.4124 H   0  0  0  0  0  0  0  0  0  0  0  0
    1.0955   -3.7374  -11.5006 H   0  0  0  0  0  0  0  0  0  0  0  0
    1.1980   -2.2309  -12.4406 H   0  0  0  0  0  0  0  0  0  0  0  0
    0.0057   -2.3842  -11.1297 H   0  0  0  0  0  0  0  0  0  0  0  0
  1  2  1  0
  1 48  1  0
  1 49  1  0
  1 50  1  0
  2  3  1  0
  2 51  1  0
  2 52  1  0
  3  4  1  0
  3 53  1  0
  3 54  1  0
  4  5  1  0
  4 55  1  0
  4 56  1  0
  5  6  1  0
  5 57  1  0
  5 58  1  0
  6  7  1  0
  6 59  1  0
  6 60  1  0
  7  8  1  0
  7 61  1  0
  7 62  1  0
  8  9  2  0
  8 21  1  0
  9 10  1  0
  9 63  1  0
 10 11  1  0
 10 19  2  0
 11 12  1  0
 11 64  1  0
 11 65  1  0
 12 13  2  0
 12 18  1  0
 13 14  1  0
 13 66  1  0
 14 15  2  0
 14 67  1  0
 15 16  1  0
 15 17  1  0
 16 68  1  0
 16 69  1  0
 17 18  2  0
 17 70  1  0
 18 71  1  0
 19 20  1  0
 19 72  1  0
 20 21  2  0
 20 73  1  0
 21 22  1  0
 22 23  1  0
 22 74  1  0
 22 75  1  0
 23 24  1  0
 23 76  1  0
 23 77  1  0
 24 25  1  0
 24 78  1  0
 24 79  1  0
 25 26  1  0
 25 80  1  0
 25 81  1  0
 26 27  1  0
 26 82  1  0
 26 83  1  0
 27 28  2  0
 27 40  1  0
 28 29  1  0
 28 84  1  0
 29 30  2  0
 29 85  1  0
 30 31  1  0
 30 39  1  0
 31 32  1  0
 31 86  1  0
 31 87  1  0
 32 33  2  0
 32 38  1  0
 33 34  1  0
 33 88  1  0
 34 35  2  0
 34 89  1  0
 35 36  1  0
 35 37  1  0
 36 90  1  0
 36 91  1  0
 37 38  2  0
 37 92  1  0
 38 93  1  0
 39 40  2  0
 39 94  1  0
 40 41  1  0
 41 42  1  0
 41 95  1  0
 41 96  1  0
 42 43  1  0
 42 97  1  0
 42 98  1  0
 43 44  1  0
 43 99  1  0
 43100  1  0
 44 45  1  0
 44101  1  0
 44102  1  0
 45 46  1  0
 45103  1  0
 45104  1  0
 46 47  1  0
 46105  1  0
 46106  1  0
 47107  1  0
 47108  1  0
 47109  1  0
M  END

