
     RDKit          3D

 38 38  0  0  0  0  0  0  0  0999 V2000
    0.9834   -0.2606    0.2828 C   0  0  0  0  0  0  0  0  0  0  0  0
    2.4963   -0.2156    0.0416 C   0  0  1  0  0  0  0  0  0  0  0  0
    2.9905   -1.6444   -0.2883 C   0  0  0  0  0  0  0  0  0  0  0  0
    2.2729   -2.6291   -0.1876 O   0  0  0  0  0  0  0  0  0  0  0  0
    4.2930   -1.7412   -0.6768 N   0  0  0  0  0  0  0  0  0  0  0  0
    4.8558   -2.9614   -1.0714 N   0  0  0  0  0  0  0  0  0  0  0  0
    2.9274    0.8373   -1.0274 C   0  0  1  0  0  0  0  0  0  0  0  0
    2.1153    2.1429   -0.9566 C   0  0  0  0  0  0  0  0  0  0  0  0
    4.3959    1.0654   -1.0106 N   0  0  0  0  0  0  0  0  0  0  0  0
    4.9308    1.4778   -2.3025 C   0  0  0  0  0  0  0  0  0  0  0  0
    4.8742    1.9153    0.0833 C   0  0  0  0  0  0  0  0  0  0  0  0
    6.3572    1.7610    0.3741 C   0  0  0  0  0  0  0  0  0  0  0  0
    6.8964    0.5147    0.7363 C   0  0  0  0  0  0  0  0  0  0  0  0
    8.2561    0.3880    1.0281 C   0  0  0  0  0  0  0  0  0  0  0  0
    9.1065    1.4970    0.9683 C   0  0  0  0  0  0  0  0  0  0  0  0
    8.5610    2.7259    0.6106 C   0  0  0  0  0  0  0  0  0  0  0  0
    9.3583    3.8034    0.5446 F   0  0  0  0  0  0  0  0  0  0  0  0
    7.2070    2.8732    0.3123 C   0  0  0  0  0  0  0  0  0  0  0  0
    0.7403   -1.0933    0.9550 H   0  0  0  0  0  0  0  0  0  0  0  0
    0.4337   -0.4384   -0.6555 H   0  0  0  0  0  0  0  0  0  0  0  0
    0.6150    0.6725    0.7311 H   0  0  0  0  0  0  0  0  0  0  0  0
    2.9800    0.0609    0.9971 H   0  0  0  0  0  0  0  0  0  0  0  0
    4.8024   -0.8771   -0.8788 H   0  0  0  0  0  0  0  0  0  0  0  0
    4.1966   -3.4218   -1.7060 H   0  0  0  0  0  0  0  0  0  0  0  0
    4.8854   -3.5748   -0.2527 H   0  0  0  0  0  0  0  0  0  0  0  0
    2.7216    0.3847   -2.0126 H   0  0  0  0  0  0  0  0  0  0  0  0
    2.1331    2.5901    0.0497 H   0  0  0  0  0  0  0  0  0  0  0  0
    1.0636    1.9735   -1.2256 H   0  0  0  0  0  0  0  0  0  0  0  0
    2.5152    2.8863   -1.6638 H   0  0  0  0  0  0  0  0  0  0  0  0
    4.6574    0.7424   -3.0748 H   0  0  0  0  0  0  0  0  0  0  0  0
    6.0288    1.5228   -2.2536 H   0  0  0  0  0  0  0  0  0  0  0  0
    4.5704    2.4752   -2.6337 H   0  0  0  0  0  0  0  0  0  0  0  0
    4.3142    1.6484    0.9940 H   0  0  0  0  0  0  0  0  0  0  0  0
    4.6620    2.9878   -0.1071 H   0  0  0  0  0  0  0  0  0  0  0  0
    6.2463   -0.3609    0.7905 H   0  0  0  0  0  0  0  0  0  0  0  0
    8.6627   -0.5867    1.3091 H   0  0  0  0  0  0  0  0  0  0  0  0
   10.1724    1.4239    1.1919 H   0  0  0  0  0  0  0  0  0  0  0  0
    6.8321    3.8609    0.0342 H   0  0  0  0  0  0  0  0  0  0  0  0
  1  2  1  0
  1 19  1  0
  1 20  1  0
  1 21  1  0
  2  3  1  0
  2  7  1  0
  2 22  1  1
  3  4  2  0
  3  5  1  0
  5  6  1  0
  5 23  1  0
  6 24  1  0
  6 25  1  0
  7  8  1  0
  7  9  1  0
  7 26  1  6
  8 27  1  0
  8 28  1  0
  8 29  1  0
  9 10  1  0
  9 11  1  0
 10 30  1  0
 10 31  1  0
 10 32  1  0
 11 12  1  0
 11 33  1  0
 11 34  1  0
 12 13  2  0
 12 18  1  0
 13 14  1  0
 13 35  1  0
 14 15  2  0
 14 36  1  0
 15 16  1  0
 15 37  1  0
 16 17  1  0
 16 18  2  0
 18 38  1  0
M  END

