
     RDKit          3D

 46 47  0  0  0  0  0  0  0  0999 V2000
    1.4354    0.2514    0.4506 C   0  0  0  0  0  0  0  0  0  0  0  0
    2.7779   -0.3679    0.0133 C   0  0  1  0  0  0  0  0  0  0  0  0
    3.5609   -0.7691    1.2745 C   0  0  0  0  0  0  0  0  0  0  0  0
    2.5444   -1.6268   -0.8604 C   0  0  0  0  0  0  0  0  0  0  0  0
    1.9669   -1.3199   -2.2492 C   0  0  0  0  0  0  0  0  0  0  0  0
    2.8031   -0.2990   -3.0375 C   0  0  2  0  0  0  0  0  0  0  0  0
    4.0852   -0.9394   -3.4176 N   0  0  0  0  0  0  0  0  0  0  0  0
    4.9939   -0.3038   -4.6970 S   0  0  1  0  0  0  0  0  0  0  0  0
    5.3867   -1.4452   -5.5328 O   0  0  0  0  0  0  0  0  0  0  0  0
    4.2694    0.8424   -5.2669 O   0  0  0  0  0  0  0  0  0  0  0  0
    6.4963    0.3006   -3.8758 C   0  0  0  0  0  0  0  0  0  0  0  0
    7.6160    0.6638   -4.8674 C   0  0  1  0  0  0  0  0  0  0  0  0
    7.3143    1.8986   -5.7456 C   0  0  0  0  0  0  0  0  0  0  0  0
    7.4530    3.2037   -4.9613 C   0  0  0  0  0  0  0  0  0  0  0  0
    8.7218    3.3204   -4.3425 O   0  0  0  0  0  0  0  0  0  0  0  0
    8.9852    2.2715   -3.4357 C   0  0  0  0  0  0  0  0  0  0  0  0
    8.9482    0.9033   -4.1217 C   0  0  0  0  0  0  0  0  0  0  0  0
    3.0365    0.9617   -2.1903 C   0  0  0  0  0  0  0  0  0  0  0  0
    3.6146    0.6490   -0.8048 C   0  0  0  0  0  0  0  0  0  0  0  0
    0.8472   -0.4693    1.0423 H   0  0  0  0  0  0  0  0  0  0  0  0
    0.8101    0.5666   -0.3983 H   0  0  0  0  0  0  0  0  0  0  0  0
    1.6036    1.1402    1.0809 H   0  0  0  0  0  0  0  0  0  0  0  0
    3.0000   -1.5047    1.8748 H   0  0  0  0  0  0  0  0  0  0  0  0
    3.7566    0.1063    1.9159 H   0  0  0  0  0  0  0  0  0  0  0  0
    4.5333   -1.2191    1.0153 H   0  0  0  0  0  0  0  0  0  0  0  0
    1.8786   -2.3288   -0.3292 H   0  0  0  0  0  0  0  0  0  0  0  0
    3.5096   -2.1486   -0.9805 H   0  0  0  0  0  0  0  0  0  0  0  0
    0.9472   -0.9116   -2.1571 H   0  0  0  0  0  0  0  0  0  0  0  0
    1.8633   -2.2506   -2.8350 H   0  0  0  0  0  0  0  0  0  0  0  0
    2.2535   -0.0127   -3.9497 H   0  0  0  0  0  0  0  0  0  0  0  0
    4.0057   -1.9404   -3.5979 H   0  0  0  0  0  0  0  0  0  0  0  0
    6.8031   -0.5354   -3.2304 H   0  0  0  0  0  0  0  0  0  0  0  0
    6.1755    1.1343   -3.2349 H   0  0  0  0  0  0  0  0  0  0  0  0
    7.7364   -0.2140   -5.5222 H   0  0  0  0  0  0  0  0  0  0  0  0
    6.3101    1.8337   -6.1896 H   0  0  0  0  0  0  0  0  0  0  0  0
    8.0420    1.9143   -6.5743 H   0  0  0  0  0  0  0  0  0  0  0  0
    6.6491    3.2875   -4.1989 H   0  0  0  0  0  0  0  0  0  0  0  0
    7.3512    4.0707   -5.6313 H   0  0  0  0  0  0  0  0  0  0  0  0
    8.2610    2.3033   -2.5923 H   0  0  0  0  0  0  0  0  0  0  0  0
    9.9825    2.4641   -3.0104 H   0  0  0  0  0  0  0  0  0  0  0  0
    9.1406    0.1051   -3.3842 H   0  0  0  0  0  0  0  0  0  0  0  0
    9.7680    0.8649   -4.8585 H   0  0  0  0  0  0  0  0  0  0  0  0
    2.0687    1.4823   -2.0960 H   0  0  0  0  0  0  0  0  0  0  0  0
    3.6898    1.6563   -2.7412 H   0  0  0  0  0  0  0  0  0  0  0  0
    3.7268    1.5832   -0.2276 H   0  0  0  0  0  0  0  0  0  0  0  0
    4.6306    0.2367   -0.9297 H   0  0  0  0  0  0  0  0  0  0  0  0
  2  1  1  1
  1 20  1  0
  1 21  1  0
  1 22  1  0
  2  3  1  0
  2  4  1  0
  2 19  1  0
  3 23  1  0
  3 24  1  0
  3 25  1  0
  4  5  1  0
  4 26  1  0
  4 27  1  0
  5  6  1  0
  5 28  1  0
  5 29  1  0
  6  7  1  0
  6 18  1  0
  6 30  1  6
  8  7  1  1
  7 31  1  0
  8  9  2  0
  8 10  2  0
  8 11  1  0
 11 12  1  0
 11 32  1  0
 11 33  1  0
 12 13  1  0
 12 17  1  0
 12 34  1  6
 13 14  1  0
 13 35  1  0
 13 36  1  0
 14 15  1  0
 14 37  1  0
 14 38  1  0
 15 16  1  0
 16 17  1  0
 16 39  1  0
 16 40  1  0
 17 41  1  0
 17 42  1  0
 18 19  1  0
 18 43  1  0
 18 44  1  0
 19 45  1  0
 19 46  1  0
M  END

