
     RDKit          3D

 25 26  0  0  0  0  0  0  0  0999 V2000
    0.8521    0.0592    0.1687 O   0  0  0  0  0  0  0  0  0  0  0  0
    2.2595   -0.0106    0.0655 C   0  0  1  0  0  0  0  0  0  0  0  0
    2.8591    1.3567   -0.2390 C   0  0  0  0  0  0  0  0  0  0  0  0
    3.7706    1.5441   -1.2864 C   0  0  0  0  0  0  0  0  0  0  0  0
    4.3181    2.7246   -1.5907 N   0  0  0  0  0  0  0  0  0  0  0  0
    3.9761    3.7870   -0.8676 C   0  0  0  0  0  0  0  0  0  0  0  0
    3.0621    3.6972    0.1885 C   0  0  0  0  0  0  0  0  0  0  0  0
    2.7445    4.7983    0.8765 F   0  0  0  0  0  0  0  0  0  0  0  0
    2.4896    2.4774    0.5184 C   0  0  0  0  0  0  0  0  0  0  0  0
    2.8029   -0.6056    1.3628 C   0  0  0  0  0  0  0  0  0  0  0  0
    1.9308   -0.9780    2.3900 C   0  0  0  0  0  0  0  0  0  0  0  0
    2.4596   -1.5345    3.5534 C   0  0  0  0  0  0  0  0  0  0  0  0
    1.6232   -1.8884    4.5380 F   0  0  0  0  0  0  0  0  0  0  0  0
    3.8242   -1.7406    3.7325 C   0  0  0  0  0  0  0  0  0  0  0  0
    4.6767   -1.3650    2.6902 C   0  0  0  0  0  0  0  0  0  0  0  0
    6.5538   -1.6315    2.8888 Br  0  0  0  0  0  0  0  0  0  0  0  0
    4.1853   -0.8008    1.5129 C   0  0  0  0  0  0  0  0  0  0  0  0
    0.5058    0.4463   -0.6457 H   0  0  0  0  0  0  0  0  0  0  0  0
    2.5565   -0.6956   -0.7543 H   0  0  0  0  0  0  0  0  0  0  0  0
    4.0680    0.6926   -1.9110 H   0  0  0  0  0  0  0  0  0  0  0  0
    4.4231    4.7564   -1.1153 H   0  0  0  0  0  0  0  0  0  0  0  0
    1.7728    2.4025    1.3388 H   0  0  0  0  0  0  0  0  0  0  0  0
    0.8553   -0.8428    2.2870 H   0  0  0  0  0  0  0  0  0  0  0  0
    4.1962   -2.1803    4.6578 H   0  0  0  0  0  0  0  0  0  0  0  0
    4.8770   -0.5124    0.7201 H   0  0  0  0  0  0  0  0  0  0  0  0
  1  2  1  0
  1 18  1  0
  2  3  1  0
  2 10  1  0
  2 19  1  6
  3  4  2  0
  3  9  1  0
  4  5  1  0
  4 20  1  0
  5  6  2  0
  6  7  1  0
  6 21  1  0
  7  8  1  0
  7  9  2  0
  9 22  1  0
 10 11  2  0
 10 17  1  0
 11 12  1  0
 11 23  1  0
 12 13  1  0
 12 14  2  0
 14 15  1  0
 14 24  1  0
 15 16  1  0
 15 17  2  0
 17 25  1  0
M  END

