
     RDKit          3D

 45 46  0  0  0  0  0  0  0  0999 V2000
    3.8253   -1.2751    1.7540 O   0  0  0  0  0  0  0  0  0  0  0  0
    4.9996   -1.0843    1.9125 C   0  0  0  0  0  0  0  0  0  0  0  0
    5.7287   -1.9283    2.6847 O   0  0  0  0  0  0  0  0  0  0  0  0
    5.7858    0.0609    1.2932 C   0  0  0  0  0  0  0  0  0  0  0  0
    4.9218    1.0332    0.4939 C   0  0  0  0  0  0  0  0  0  0  0  0
    5.7325    2.0989   -0.2451 C   0  0  0  0  0  0  0  0  0  0  0  0
    6.6352    1.5084   -1.2234 N   0  0  0  0  0  0  0  0  0  0  0  0
    7.4355    2.4555   -2.0062 C   0  0  1  0  0  0  0  0  0  0  0  0
    8.6061    3.0263   -1.1832 C   0  0  0  0  0  0  0  0  0  0  0  0
    9.6709    1.9711   -0.8543 C   0  0  0  0  0  0  0  0  0  0  0  0
   10.2497    1.2475   -2.0998 C   0  0  1  0  0  0  0  0  0  0  0  0
   11.1252    2.1928   -2.9673 C   0  0  0  0  0  0  0  0  0  0  0  0
   12.4515    2.5998   -2.3084 C   0  0  0  0  0  0  0  0  0  0  0  0
   13.2734    1.3770   -1.8852 C   0  0  0  0  0  0  0  0  0  0  0  0
   12.4512    0.4380   -0.9949 C   0  0  0  0  0  0  0  0  0  0  0  0
   11.1276    0.0467   -1.6658 C   0  0  0  0  0  0  0  0  0  0  0  0
    9.0580    0.7049   -2.9271 C   0  0  0  0  0  0  0  0  0  0  0  0
    7.9929    1.7590   -3.2582 C   0  0  0  0  0  0  0  0  0  0  0  0
    6.6546   -1.6474    2.7081 H   0  0  0  0  0  0  0  0  0  0  0  0
    6.5692   -0.3624    0.6400 H   0  0  0  0  0  0  0  0  0  0  0  0
    6.3255    0.5917    2.1001 H   0  0  0  0  0  0  0  0  0  0  0  0
    4.1980    1.5240    1.1643 H   0  0  0  0  0  0  0  0  0  0  0  0
    4.3119    0.4587   -0.2245 H   0  0  0  0  0  0  0  0  0  0  0  0
    6.3280    2.6734    0.4856 H   0  0  0  0  0  0  0  0  0  0  0  0
    5.0301    2.8312   -0.7041 H   0  0  0  0  0  0  0  0  0  0  0  0
    6.0898    0.9305   -1.8636 H   0  0  0  0  0  0  0  0  0  0  0  0
    6.8038    3.3100   -2.3393 H   0  0  0  0  0  0  0  0  0  0  0  0
    8.2325    3.4785   -0.2496 H   0  0  0  0  0  0  0  0  0  0  0  0
    9.0509    3.8586   -1.7549 H   0  0  0  0  0  0  0  0  0  0  0  0
    9.2133    1.2085   -0.2020 H   0  0  0  0  0  0  0  0  0  0  0  0
   10.4748    2.4394   -0.2646 H   0  0  0  0  0  0  0  0  0  0  0  0
   10.5632    3.0966   -3.2523 H   0  0  0  0  0  0  0  0  0  0  0  0
   11.3515    1.6688   -3.9145 H   0  0  0  0  0  0  0  0  0  0  0  0
   12.2561    3.2338   -1.4251 H   0  0  0  0  0  0  0  0  0  0  0  0
   13.0317    3.2270   -3.0065 H   0  0  0  0  0  0  0  0  0  0  0  0
   14.1966    1.6909   -1.3691 H   0  0  0  0  0  0  0  0  0  0  0  0
   13.5947    0.8274   -2.7897 H   0  0  0  0  0  0  0  0  0  0  0  0
   12.2530    0.9304   -0.0262 H   0  0  0  0  0  0  0  0  0  0  0  0
   13.0306   -0.4710   -0.7594 H   0  0  0  0  0  0  0  0  0  0  0  0
   10.5414   -0.6099   -0.9992 H   0  0  0  0  0  0  0  0  0  0  0  0
   11.3547   -0.5556   -2.5654 H   0  0  0  0  0  0  0  0  0  0  0  0
    8.5837   -0.1100   -2.3545 H   0  0  0  0  0  0  0  0  0  0  0  0
    9.4357    0.2519   -3.8604 H   0  0  0  0  0  0  0  0  0  0  0  0
    7.1651    1.2937   -3.8235 H   0  0  0  0  0  0  0  0  0  0  0  0
    8.4131    2.5297   -3.9253 H   0  0  0  0  0  0  0  0  0  0  0  0
  1  2  2  0
  2  3  1  0
  2  4  1  0
  3 19  1  0
  4  5  1  0
  4 20  1  0
  4 21  1  0
  5  6  1  0
  5 22  1  0
  5 23  1  0
  6  7  1  0
  6 24  1  0
  6 25  1  0
  7  8  1  0
  7 26  1  0
  8  9  1  0
  8 18  1  0
  8 27  1  6
  9 10  1  0
  9 28  1  0
  9 29  1  0
 11 10  1  1
 10 30  1  0
 10 31  1  0
 11 12  1  0
 11 16  1  0
 11 17  1  0
 12 13  1  0
 12 32  1  0
 12 33  1  0
 13 14  1  0
 13 34  1  0
 13 35  1  0
 14 15  1  0
 14 36  1  0
 14 37  1  0
 15 16  1  0
 15 38  1  0
 15 39  1  0
 16 40  1  0
 16 41  1  0
 17 18  1  0
 17 42  1  0
 17 43  1  0
 18 44  1  0
 18 45  1  0
M  END

