
     RDKit          3D

 42 42  0  0  0  0  0  0  0  0999 V2000
    8.3088   -1.8333    1.7835 C   0  0  0  0  0  0  0  0  0  0  0  0
    7.3423   -0.9393    1.3039 O   0  0  0  0  0  0  0  0  0  0  0  0
    7.5672   -0.5093   -0.0095 C   0  0  0  0  0  0  0  0  0  0  0  0
    6.4731    0.4704   -0.4213 C   0  0  1  0  0  0  0  0  0  0  0  0
    6.4391    1.6190    0.4004 O   0  0  0  0  0  0  0  0  0  0  0  0
    6.5921    0.9110   -1.8916 C   0  0  0  0  0  0  0  0  0  0  0  0
    6.5463   -0.1534   -2.8965 N   0  0  0  0  0  0  0  0  0  0  0  0
    5.2492   -0.8167   -2.9653 C   0  0  0  0  0  0  0  0  0  0  0  0
    7.0000    0.3274   -4.1966 C   0  0  0  0  0  0  0  0  0  0  0  0
    8.5267    0.4303   -4.3411 C   0  0  0  0  0  0  0  0  0  0  0  0
    9.0334    1.1826   -5.1537 O   0  0  0  0  0  0  0  0  0  0  0  0
    9.1991   -0.4350   -3.5216 N   0  0  0  0  0  0  0  0  0  0  0  0
   10.5815   -0.6690   -3.4138 C   0  0  0  0  0  0  0  0  0  0  0  0
   11.0276   -1.6261   -2.4918 C   0  0  0  0  0  0  0  0  0  0  0  0
   12.3891   -1.8997   -2.3418 C   0  0  0  0  0  0  0  0  0  0  0  0
   13.3480   -1.2238   -3.1093 C   0  0  0  0  0  0  0  0  0  0  0  0
   14.6836   -1.4247   -3.0300 O   0  0  0  0  0  0  0  0  0  0  0  0
   15.1838   -2.3780   -2.1215 C   0  0  0  0  0  0  0  0  0  0  0  0
   12.8870   -0.2621   -4.0352 C   0  0  0  0  0  0  0  0  0  0  0  0
   14.0516    0.5980   -5.0084 Cl  0  0  0  0  0  0  0  0  0  0  0  0
   11.5325    0.0165   -4.1924 C   0  0  0  0  0  0  0  0  0  0  0  0
    8.0341   -2.1065    2.8127 H   0  0  0  0  0  0  0  0  0  0  0  0
    9.3229   -1.3831    1.7973 H   0  0  0  0  0  0  0  0  0  0  0  0
    8.3590   -2.7605    1.1750 H   0  0  0  0  0  0  0  0  0  0  0  0
    7.5740   -1.3676   -0.7142 H   0  0  0  0  0  0  0  0  0  0  0  0
    8.5613   -0.0131   -0.1032 H   0  0  0  0  0  0  0  0  0  0  0  0
    5.5049   -0.0278   -0.2506 H   0  0  0  0  0  0  0  0  0  0  0  0
    7.3232    2.0112    0.4165 H   0  0  0  0  0  0  0  0  0  0  0  0
    7.5542    1.4409   -2.0030 H   0  0  0  0  0  0  0  0  0  0  0  0
    5.7985    1.6689   -2.0654 H   0  0  0  0  0  0  0  0  0  0  0  0
    4.9932   -1.2715   -1.9974 H   0  0  0  0  0  0  0  0  0  0  0  0
    5.2822   -1.6255   -3.7108 H   0  0  0  0  0  0  0  0  0  0  0  0
    4.4245   -0.1250   -3.2430 H   0  0  0  0  0  0  0  0  0  0  0  0
    6.5881    1.3182   -4.4737 H   0  0  0  0  0  0  0  0  0  0  0  0
    6.6656   -0.3779   -4.9761 H   0  0  0  0  0  0  0  0  0  0  0  0
    8.5800   -0.9657   -2.9109 H   0  0  0  0  0  0  0  0  0  0  0  0
   10.3033   -2.1718   -1.8810 H   0  0  0  0  0  0  0  0  0  0  0  0
   12.6978   -2.6521   -1.6160 H   0  0  0  0  0  0  0  0  0  0  0  0
   16.2765   -2.3693   -2.2314 H   0  0  0  0  0  0  0  0  0  0  0  0
   14.8106   -3.3945   -2.3432 H   0  0  0  0  0  0  0  0  0  0  0  0
   14.9279   -2.1256   -1.0762 H   0  0  0  0  0  0  0  0  0  0  0  0
   11.2056    0.7609   -4.9143 H   0  0  0  0  0  0  0  0  0  0  0  0
  1  2  1  0
  1 22  1  0
  1 23  1  0
  1 24  1  0
  2  3  1  0
  3  4  1  0
  3 25  1  0
  3 26  1  0
  4  5  1  0
  4  6  1  0
  4 27  1  6
  5 28  1  0
  6  7  1  0
  6 29  1  0
  6 30  1  0
  7  8  1  0
  7  9  1  0
  8 31  1  0
  8 32  1  0
  8 33  1  0
  9 10  1  0
  9 34  1  0
  9 35  1  0
 10 11  2  0
 10 12  1  0
 12 13  1  0
 12 36  1  0
 13 14  2  0
 13 21  1  0
 14 15  1  0
 14 37  1  0
 15 16  2  0
 15 38  1  0
 16 17  1  0
 16 19  1  0
 17 18  1  0
 18 39  1  0
 18 40  1  0
 18 41  1  0
 19 20  1  0
 19 21  2  0
 21 42  1  0
M  END

