
     RDKit          3D

 39 41  0  0  0  0  0  0  0  0999 V2000
    0.3830   -0.0947    1.1371 C   0  0  0  0  0  0  0  0  0  0  0  0
    1.2771   -1.2826    0.9803 C   0  0  0  0  0  0  0  0  0  0  0  0
    0.8798   -2.5117    1.1266 N   0  0  0  0  0  0  0  0  0  0  0  0
    1.8592   -3.4333    0.9383 N   0  0  0  0  0  0  0  0  0  0  0  0
    3.0090   -2.8921    0.6470 C   0  0  0  0  0  0  0  0  0  0  0  0
    4.1306   -3.6578    0.4181 N   0  0  0  0  0  0  0  0  0  0  0  0
    5.3763   -3.1827    0.1088 C   0  0  0  0  0  0  0  0  0  0  0  0
    5.6456   -1.9982   -0.0031 O   0  0  0  0  0  0  0  0  0  0  0  0
    6.3909   -4.2848   -0.0823 C   0  0  0  0  0  0  0  0  0  0  0  0
    7.6940   -3.9486   -0.3997 C   0  0  0  0  0  0  0  0  0  0  0  0
    8.6111   -5.0248   -0.5719 C   0  0  0  0  0  0  0  0  0  0  0  0
    9.9217   -4.8492   -0.9070 N   0  0  0  0  0  0  0  0  0  0  0  0
   10.8585   -5.9766   -0.9419 C   0  0  0  0  0  0  0  0  0  0  0  0
   11.7317   -5.9042   -2.2035 C   0  0  0  0  0  0  0  0  0  0  0  0
   12.4050   -4.6232   -2.3759 N   0  0  0  0  0  0  0  0  0  0  0  0
   13.6011   -4.4339   -1.5755 C   0  0  0  0  0  0  0  0  0  0  0  0
   11.4425   -3.5350   -2.3302 C   0  0  0  0  0  0  0  0  0  0  0  0
   10.5490   -3.5409   -1.0741 C   0  0  0  0  0  0  0  0  0  0  0  0
    8.1724   -6.2908   -0.4013 N   0  0  0  0  0  0  0  0  0  0  0  0
    6.8961   -6.4848   -0.0965 C   0  0  0  0  0  0  0  0  0  0  0  0
    5.9626   -5.5511    0.0731 N   0  0  0  0  0  0  0  0  0  0  0  0
    2.9895   -1.1414    0.5755 S   0  0  0  0  0  0  0  0  0  0  0  0
   -0.6252   -0.4542    1.3845 H   0  0  0  0  0  0  0  0  0  0  0  0
    0.3314    0.5000    0.2107 H   0  0  0  0  0  0  0  0  0  0  0  0
    0.7307    0.5718    1.9430 H   0  0  0  0  0  0  0  0  0  0  0  0
    4.0371   -4.6736    0.4837 H   0  0  0  0  0  0  0  0  0  0  0  0
    7.9497   -2.8957   -0.4956 H   0  0  0  0  0  0  0  0  0  0  0  0
   10.2778   -6.9050   -0.9104 H   0  0  0  0  0  0  0  0  0  0  0  0
   11.4917   -5.9463   -0.0337 H   0  0  0  0  0  0  0  0  0  0  0  0
   11.0876   -6.0807   -3.0840 H   0  0  0  0  0  0  0  0  0  0  0  0
   12.4809   -6.7117   -2.1797 H   0  0  0  0  0  0  0  0  0  0  0  0
   14.3116   -5.2517   -1.7769 H   0  0  0  0  0  0  0  0  0  0  0  0
   13.4426   -4.3995   -0.4747 H   0  0  0  0  0  0  0  0  0  0  0  0
   14.0929   -3.4911   -1.8646 H   0  0  0  0  0  0  0  0  0  0  0  0
   10.7858   -3.6119   -3.2160 H   0  0  0  0  0  0  0  0  0  0  0  0
   11.9714   -2.5707   -2.3972 H   0  0  0  0  0  0  0  0  0  0  0  0
    9.7857   -2.7608   -1.1739 H   0  0  0  0  0  0  0  0  0  0  0  0
   11.1470   -3.2988   -0.1737 H   0  0  0  0  0  0  0  0  0  0  0  0
    6.5790   -7.5275    0.0302 H   0  0  0  0  0  0  0  0  0  0  0  0
  1  2  1  0
  1 23  1  0
  1 24  1  0
  1 25  1  0
  2  3  2  0
  2 22  1  0
  3  4  1  0
  4  5  2  0
  5  6  1  0
  5 22  1  0
  6  7  1  0
  6 26  1  0
  7  8  2  0
  7  9  1  0
  9 10  2  0
  9 21  1  0
 10 11  1  0
 10 27  1  0
 11 12  1  0
 11 19  2  0
 12 13  1  0
 12 18  1  0
 13 14  1  0
 13 28  1  0
 13 29  1  0
 14 15  1  0
 14 30  1  0
 14 31  1  0
 15 16  1  0
 15 17  1  0
 16 32  1  0
 16 33  1  0
 16 34  1  0
 17 18  1  0
 17 35  1  0
 17 36  1  0
 18 37  1  0
 18 38  1  0
 19 20  1  0
 20 21  2  0
 20 39  1  0
M  END

