
     RDKit          3D

 50 53  0  0  0  0  0  0  0  0999 V2000
    1.2193    0.1193    0.3748 O   0  0  0  0  0  0  0  0  0  0  0  0
    2.4423    0.1162    0.3622 C   0  0  0  0  0  0  0  0  0  0  0  0
    3.1699   -1.1567    0.6580 C   0  0  0  0  0  0  0  0  0  0  0  0
    2.5024   -2.3676    0.3972 C   0  0  0  0  0  0  0  0  0  0  0  0
    3.0666   -3.5915    0.6962 C   0  0  0  0  0  0  0  0  0  0  0  0
    2.3373   -4.7010    0.4406 F   0  0  0  0  0  0  0  0  0  0  0  0
    4.3515   -3.7186    1.2894 C   0  0  0  0  0  0  0  0  0  0  0  0
    4.9493   -4.9354    1.5704 N   0  0  0  0  0  0  0  0  0  0  0  0
    4.5843   -6.1940    0.9222 C   0  0  0  0  0  0  0  0  0  0  0  0
    5.8472   -7.0160    0.6571 C   0  0  0  0  0  0  0  0  0  0  0  0
    6.6033   -7.2200    1.8324 O   0  0  0  0  0  0  0  0  0  0  0  0
    6.9978   -5.9961    2.4137 C   0  0  0  0  0  0  0  0  0  0  0  0
    5.7837   -5.1339    2.7525 C   0  0  0  0  0  0  0  0  0  0  0  0
    4.9968   -2.4967    1.5889 C   0  0  0  0  0  0  0  0  0  0  0  0
    4.4179   -1.2726    1.2859 C   0  0  0  0  0  0  0  0  0  0  0  0
    5.0997   -0.1725    1.6431 F   0  0  0  0  0  0  0  0  0  0  0  0
    3.1697    1.3858    0.0513 C   0  0  0  0  0  0  0  0  0  0  0  0
    2.5153    2.5999    0.3289 C   0  0  0  0  0  0  0  0  0  0  0  0
    3.0789    3.8211    0.0176 C   0  0  0  0  0  0  0  0  0  0  0  0
    2.3618    4.9341    0.2919 F   0  0  0  0  0  0  0  0  0  0  0  0
    4.3497    3.9418   -0.6063 C   0  0  0  0  0  0  0  0  0  0  0  0
    4.9484    5.1554   -0.9005 N   0  0  0  0  0  0  0  0  0  0  0  0
    4.6012    6.4160   -0.2467 C   0  0  0  0  0  0  0  0  0  0  0  0
    5.8704    7.2400   -0.0212 C   0  0  0  0  0  0  0  0  0  0  0  0
    6.5916    7.4408   -1.2188 O   0  0  0  0  0  0  0  0  0  0  0  0
    6.9701    6.2152   -1.8069 C   0  0  0  0  0  0  0  0  0  0  0  0
    5.7480    5.3502   -2.1072 C   0  0  0  0  0  0  0  0  0  0  0  0
    4.9811    2.7166   -0.9217 C   0  0  0  0  0  0  0  0  0  0  0  0
    4.4031    1.4954   -0.6060 C   0  0  0  0  0  0  0  0  0  0  0  0
    5.0702    0.3919   -0.9799 F   0  0  0  0  0  0  0  0  0  0  0  0
    1.4985   -2.3359   -0.0290 H   0  0  0  0  0  0  0  0  0  0  0  0
    4.0776   -5.9957   -0.0281 H   0  0  0  0  0  0  0  0  0  0  0  0
    3.8919   -6.7799    1.5582 H   0  0  0  0  0  0  0  0  0  0  0  0
    6.4624   -6.5020   -0.1106 H   0  0  0  0  0  0  0  0  0  0  0  0
    5.5740   -8.0109    0.2730 H   0  0  0  0  0  0  0  0  0  0  0  0
    7.6667   -5.4382    1.7256 H   0  0  0  0  0  0  0  0  0  0  0  0
    7.5624   -6.2380    3.3273 H   0  0  0  0  0  0  0  0  0  0  0  0
    6.1085   -4.1711    3.1650 H   0  0  0  0  0  0  0  0  0  0  0  0
    5.1929   -5.6478    3.5387 H   0  0  0  0  0  0  0  0  0  0  0  0
    5.9855   -2.4806    2.0457 H   0  0  0  0  0  0  0  0  0  0  0  0
    1.5216    2.5736    0.7789 H   0  0  0  0  0  0  0  0  0  0  0  0
    4.1227    6.2205    0.7188 H   0  0  0  0  0  0  0  0  0  0  0  0
    3.8898    6.9993   -0.8639 H   0  0  0  0  0  0  0  0  0  0  0  0
    6.5083    6.7291    0.7298 H   0  0  0  0  0  0  0  0  0  0  0  0
    5.6075    8.2358    0.3674 H   0  0  0  0  0  0  0  0  0  0  0  0
    7.6595    5.6605   -1.1366 H   0  0  0  0  0  0  0  0  0  0  0  0
    7.5076    6.4542   -2.7375 H   0  0  0  0  0  0  0  0  0  0  0  0
    6.0628    4.3861   -2.5245 H   0  0  0  0  0  0  0  0  0  0  0  0
    5.1342    5.8597   -2.8786 H   0  0  0  0  0  0  0  0  0  0  0  0
    5.9586    2.6958   -1.4021 H   0  0  0  0  0  0  0  0  0  0  0  0
  1  2  2  0
  2  3  1  0
  2 17  1  0
  3  4  2  0
  3 15  1  0
  4  5  1  0
  4 31  1  0
  5  6  1  0
  5  7  2  0
  7  8  1  0
  7 14  1  0
  8  9  1  0
  8 13  1  0
  9 10  1  0
  9 32  1  0
  9 33  1  0
 10 11  1  0
 10 34  1  0
 10 35  1  0
 11 12  1  0
 12 13  1  0
 12 36  1  0
 12 37  1  0
 13 38  1  0
 13 39  1  0
 14 15  2  0
 14 40  1  0
 15 16  1  0
 17 18  2  0
 17 29  1  0
 18 19  1  0
 18 41  1  0
 19 20  1  0
 19 21  2  0
 21 22  1  0
 21 28  1  0
 22 23  1  0
 22 27  1  0
 23 24  1  0
 23 42  1  0
 23 43  1  0
 24 25  1  0
 24 44  1  0
 24 45  1  0
 25 26  1  0
 26 27  1  0
 26 46  1  0
 26 47  1  0
 27 48  1  0
 27 49  1  0
 28 29  2  0
 28 50  1  0
 29 30  1  0
M  END

