
     RDKit          3D

 59 62  0  0  0  0  0  0  0  0999 V2000
   -0.4955   -4.4239    6.8438 C   0  0  0  0  0  0  0  0  0  0  0  0
    0.6686   -3.6629    6.6179 O   0  0  0  0  0  0  0  0  0  0  0  0
    1.1785   -3.5867    5.3607 C   0  0  0  0  0  0  0  0  0  0  0  0
    0.6348   -4.2311    4.2412 C   0  0  0  0  0  0  0  0  0  0  0  0
    1.2560   -4.0712    2.9952 C   0  0  0  0  0  0  0  0  0  0  0  0
    2.3983   -3.2880    2.8503 C   0  0  0  0  0  0  0  0  0  0  0  0
    2.9488   -2.6395    3.9727 C   0  0  0  0  0  0  0  0  0  0  0  0
    4.1817   -1.7639    3.8205 C   0  0  0  0  0  0  0  0  0  0  0  0
    5.3070   -2.4416    3.0286 C   0  0  0  0  0  0  0  0  0  0  0  0
    5.4266   -2.2122    1.8326 O   0  0  0  0  0  0  0  0  0  0  0  0
    6.1384   -3.3137    3.6895 N   0  0  0  0  0  0  0  0  0  0  0  0
    6.0474   -3.7025    5.0901 C   0  0  0  0  0  0  0  0  0  0  0  0
    5.9406   -5.2266    5.2494 C   0  0  0  0  0  0  0  0  0  0  0  0
    7.0598   -6.0015    4.5118 C   0  0  1  0  0  0  0  0  0  0  0  0
    7.1062   -5.4951    3.0603 C   0  0  0  0  0  0  0  0  0  0  0  0
    7.2128   -3.9730    2.9500 C   0  0  0  0  0  0  0  0  0  0  0  0
    8.4388   -5.8740    5.2008 C   0  0  0  0  0  0  0  0  0  0  0  0
    8.5490   -6.6699    6.5121 C   0  0  2  0  0  0  0  0  0  0  0  0
    9.8531   -6.4925    7.1278 N   0  0  0  0  0  0  0  0  0  0  0  0
    9.9875   -6.8016    8.5435 C   0  0  0  0  0  0  0  0  0  0  0  0
   11.4859   -6.6233    8.7889 C   0  0  0  0  0  0  0  0  0  0  0  0
   12.0925   -7.2292    7.5133 C   0  0  0  0  0  0  0  0  0  0  0  0
   11.0682   -6.8894    6.4065 C   0  0  0  0  0  0  0  0  0  0  0  0
    8.1173   -8.1280    6.2471 C   0  0  0  0  0  0  0  0  0  0  0  0
    6.7420   -8.1510    5.5823 C   0  0  0  0  0  0  0  0  0  0  0  0
    6.7140   -7.3870    4.3920 O   0  0  0  0  0  0  0  0  0  0  0  0
    2.3336   -2.7963    5.2160 C   0  0  0  0  0  0  0  0  0  0  0  0
   -0.7250   -4.3361    7.9144 H   0  0  0  0  0  0  0  0  0  0  0  0
   -0.3457   -5.4909    6.5973 H   0  0  0  0  0  0  0  0  0  0  0  0
   -1.3554   -4.0447    6.2623 H   0  0  0  0  0  0  0  0  0  0  0  0
   -0.2584   -4.8504    4.3233 H   0  0  0  0  0  0  0  0  0  0  0  0
    0.8298   -4.5728    2.1222 H   0  0  0  0  0  0  0  0  0  0  0  0
    2.8720   -3.1676    1.8735 H   0  0  0  0  0  0  0  0  0  0  0  0
    4.5215   -1.4096    4.8044 H   0  0  0  0  0  0  0  0  0  0  0  0
    3.9273   -0.8761    3.2226 H   0  0  0  0  0  0  0  0  0  0  0  0
    5.1729   -3.2354    5.5545 H   0  0  0  0  0  0  0  0  0  0  0  0
    6.9375   -3.3270    5.6317 H   0  0  0  0  0  0  0  0  0  0  0  0
    4.9787   -5.5647    4.8315 H   0  0  0  0  0  0  0  0  0  0  0  0
    5.9263   -5.4613    6.3253 H   0  0  0  0  0  0  0  0  0  0  0  0
    6.1821   -5.8343    2.5656 H   0  0  0  0  0  0  0  0  0  0  0  0
    7.9478   -5.9737    2.5344 H   0  0  0  0  0  0  0  0  0  0  0  0
    7.1370   -3.6478    1.9058 H   0  0  0  0  0  0  0  0  0  0  0  0
    8.1870   -3.6222    3.3402 H   0  0  0  0  0  0  0  0  0  0  0  0
    8.6890   -4.8209    5.4030 H   0  0  0  0  0  0  0  0  0  0  0  0
    9.1968   -6.2503    4.4937 H   0  0  0  0  0  0  0  0  0  0  0  0
    7.8242   -6.2436    7.2307 H   0  0  0  0  0  0  0  0  0  0  0  0
    9.6815   -7.8417    8.8061 H   0  0  0  0  0  0  0  0  0  0  0  0
    9.3647   -6.1228    9.1528 H   0  0  0  0  0  0  0  0  0  0  0  0
   11.8358   -7.1119    9.7110 H   0  0  0  0  0  0  0  0  0  0  0  0
   11.7243   -5.5494    8.8598 H   0  0  0  0  0  0  0  0  0  0  0  0
   12.1751   -8.3227    7.6264 H   0  0  0  0  0  0  0  0  0  0  0  0
   13.1009   -6.8502    7.2884 H   0  0  0  0  0  0  0  0  0  0  0  0
   10.9135   -7.7628    5.7426 H   0  0  0  0  0  0  0  0  0  0  0  0
   11.4264   -6.0668    5.7601 H   0  0  0  0  0  0  0  0  0  0  0  0
    8.0861   -8.7081    7.1848 H   0  0  0  0  0  0  0  0  0  0  0  0
    8.8452   -8.6181    5.5782 H   0  0  0  0  0  0  0  0  0  0  0  0
    5.9717   -7.7991    6.2987 H   0  0  0  0  0  0  0  0  0  0  0  0
    6.4608   -9.1743    5.2882 H   0  0  0  0  0  0  0  0  0  0  0  0
    2.7255   -2.3024    6.1088 H   0  0  0  0  0  0  0  0  0  0  0  0
  1  2  1  0
  1 28  1  0
  1 29  1  0
  1 30  1  0
  2  3  1  0
  3  4  2  0
  3 27  1  0
  4  5  1  0
  4 31  1  0
  5  6  2  0
  5 32  1  0
  6  7  1  0
  6 33  1  0
  7  8  1  0
  7 27  2  0
  8  9  1  0
  8 34  1  0
  8 35  1  0
  9 10  2  0
  9 11  1  0
 11 12  1  0
 11 16  1  0
 12 13  1  0
 12 36  1  0
 12 37  1  0
 13 14  1  0
 13 38  1  0
 13 39  1  0
 14 15  1  0
 14 17  1  0
 14 26  1  6
 15 16  1  0
 15 40  1  0
 15 41  1  0
 16 42  1  0
 16 43  1  0
 17 18  1  0
 17 44  1  0
 17 45  1  0
 18 19  1  0
 18 24  1  0
 18 46  1  1
 19 20  1  0
 19 23  1  0
 20 21  1  0
 20 47  1  0
 20 48  1  0
 21 22  1  0
 21 49  1  0
 21 50  1  0
 22 23  1  0
 22 51  1  0
 22 52  1  0
 23 53  1  0
 23 54  1  0
 24 25  1  0
 24 55  1  0
 24 56  1  0
 25 26  1  0
 25 57  1  0
 25 58  1  0
 27 59  1  0
M  END

