
     RDKit          3D

 55 58  0  0  0  0  0  0  0  0999 V2000
    3.2101    0.5303   -0.4391 C   0  0  0  0  0  0  0  0  0  0  0  0
    2.1505    0.3288    0.6556 C   0  0  0  0  0  0  0  0  0  0  0  0
    2.5029   -0.7703    1.6354 C   0  0  0  0  0  0  0  0  0  0  0  0
    3.2118   -0.4959    2.8101 C   0  0  0  0  0  0  0  0  0  0  0  0
    3.5685   -1.5280    3.6830 C   0  0  0  0  0  0  0  0  0  0  0  0
    3.2361   -2.8609    3.4232 C   0  0  0  0  0  0  0  0  0  0  0  0
    3.6431   -3.9714    4.3700 C   0  0  0  0  0  0  0  0  0  0  0  0
    2.5178   -4.4850    5.2835 C   0  0  0  0  0  0  0  0  0  0  0  0
    2.5604   -4.4137    6.4821 O   0  0  0  0  0  0  0  0  0  0  0  0
    1.4714   -5.0403    4.6498 O   0  0  0  0  0  0  0  0  0  0  0  0
    2.5090   -3.1297    2.2428 C   0  0  0  0  0  0  0  0  0  0  0  0
    2.1710   -4.4497    2.0460 O   0  0  0  0  0  0  0  0  0  0  0  0
    1.5204   -4.8549    0.8350 C   0  0  0  0  0  0  0  0  0  0  0  0
    1.3347   -6.3494    0.8675 C   0  0  0  0  0  0  0  0  0  0  0  0
    2.3825   -7.1870    0.4353 C   0  0  0  0  0  0  0  0  0  0  0  0
    2.3096   -8.5898    0.4816 C   0  0  0  0  0  0  0  0  0  0  0  0
    3.4257   -9.4489    0.0117 C   0  0  0  0  0  0  0  0  0  0  0  0
    4.2270   -9.0629   -1.0767 C   0  0  0  0  0  0  0  0  0  0  0  0
    5.2806   -9.8910   -1.4673 C   0  0  0  0  0  0  0  0  0  0  0  0
    5.5825  -11.0401   -0.8624 N   0  0  0  0  0  0  0  0  0  0  0  0
    4.8218  -11.4247    0.1712 C   0  0  0  0  0  0  0  0  0  0  0  0
    5.1855  -12.7558    0.8051 C   0  0  0  0  0  0  0  0  0  0  0  0
    4.6238  -12.9236    2.1374 N   0  0  0  0  0  0  0  0  0  0  0  0
    3.7396  -10.6667    0.6367 C   0  0  0  0  0  0  0  0  0  0  0  0
    1.1074   -9.0927    0.9965 C   0  0  0  0  0  0  0  0  0  0  0  0
    0.7749  -10.4179    1.1260 O   0  0  0  0  0  0  0  0  0  0  0  0
   -0.4730  -10.4380    1.6368 C   0  0  0  0  0  0  0  0  0  0  0  0
   -0.9567  -11.6361    1.8342 F   0  0  0  0  0  0  0  0  0  0  0  0
   -1.0050   -9.2099    1.8558 C   0  0  0  0  0  0  0  0  0  0  0  0
    0.0301   -8.2915    1.4342 C   0  0  0  0  0  0  0  0  0  0  0  0
    0.1499   -6.8964    1.3713 C   0  0  0  0  0  0  0  0  0  0  0  0
    2.1534   -2.1043    1.3620 C   0  0  0  0  0  0  0  0  0  0  0  0
    2.9169    1.3380   -1.1290 H   0  0  0  0  0  0  0  0  0  0  0  0
    3.3506   -0.3875   -1.0325 H   0  0  0  0  0  0  0  0  0  0  0  0
    4.1865    0.7940   -0.0025 H   0  0  0  0  0  0  0  0  0  0  0  0
    1.1791    0.1022    0.1842 H   0  0  0  0  0  0  0  0  0  0  0  0
    2.0134    1.2739    1.2067 H   0  0  0  0  0  0  0  0  0  0  0  0
    3.4890    0.5342    3.0494 H   0  0  0  0  0  0  0  0  0  0  0  0
    4.1262   -1.2955    4.5943 H   0  0  0  0  0  0  0  0  0  0  0  0
    4.4446   -3.6253    5.0337 H   0  0  0  0  0  0  0  0  0  0  0  0
    4.0228   -4.8306    3.7901 H   0  0  0  0  0  0  0  0  0  0  0  0
    1.6150   -5.0201    3.6825 H   0  0  0  0  0  0  0  0  0  0  0  0
    2.1437   -4.5523   -0.0235 H   0  0  0  0  0  0  0  0  0  0  0  0
    0.5464   -4.3432    0.7500 H   0  0  0  0  0  0  0  0  0  0  0  0
    3.3030   -6.7263    0.0701 H   0  0  0  0  0  0  0  0  0  0  0  0
    4.0259   -8.1421   -1.6277 H   0  0  0  0  0  0  0  0  0  0  0  0
    5.9124   -9.6045   -2.3170 H   0  0  0  0  0  0  0  0  0  0  0  0
    6.2874  -12.8544    0.7332 H   0  0  0  0  0  0  0  0  0  0  0  0
    4.7754  -13.5508    0.1559 H   0  0  0  0  0  0  0  0  0  0  0  0
    5.1353  -12.3611    2.8185 H   0  0  0  0  0  0  0  0  0  0  0  0
    4.7014  -13.8923    2.4418 H   0  0  0  0  0  0  0  0  0  0  0  0
    3.1711  -11.0440    1.4854 H   0  0  0  0  0  0  0  0  0  0  0  0
   -1.9887   -8.9914    2.2609 H   0  0  0  0  0  0  0  0  0  0  0  0
   -0.6638   -6.2503    1.7096 H   0  0  0  0  0  0  0  0  0  0  0  0
    1.5897   -2.3250    0.4547 H   0  0  0  0  0  0  0  0  0  0  0  0
  1  2  1  0
  1 33  1  0
  1 34  1  0
  1 35  1  0
  2  3  1  0
  2 36  1  0
  2 37  1  0
  3  4  2  0
  3 32  1  0
  4  5  1  0
  4 38  1  0
  5  6  2  0
  5 39  1  0
  6  7  1  0
  6 11  1  0
  7  8  1  0
  7 40  1  0
  7 41  1  0
  8  9  2  0
  8 10  1  0
 10 42  1  0
 11 12  1  0
 11 32  2  0
 12 13  1  0
 13 14  1  0
 13 43  1  0
 13 44  1  0
 14 15  2  0
 14 31  1  0
 15 16  1  0
 15 45  1  0
 16 17  1  0
 16 25  2  0
 17 18  2  0
 17 24  1  0
 18 19  1  0
 18 46  1  0
 19 20  2  0
 19 47  1  0
 20 21  1  0
 21 22  1  0
 21 24  2  0
 22 23  1  0
 22 48  1  0
 22 49  1  0
 23 50  1  0
 23 51  1  0
 24 52  1  0
 25 26  1  0
 25 30  1  0
 26 27  1  0
 27 28  1  0
 27 29  2  0
 29 30  1  0
 29 53  1  0
 30 31  2  0
 31 54  1  0
 32 55  1  0
M  END

