
     RDKit          3D

 49 54  0  0  0  0  0  0  0  0999 V2000
    1.0312    0.3370   -0.7119 N   0  0  0  0  0  0  0  0  0  0  0  0
    2.1577    0.1729   -0.4718 C   0  0  0  0  0  0  0  0  0  0  0  0
    3.5581    0.0509   -0.2099 C   0  0  0  0  0  0  0  0  0  0  0  0
    4.2316   -1.2178   -0.1526 C   0  0  0  0  0  0  0  0  0  0  0  0
    3.5797   -2.4258   -0.2189 N   0  0  0  0  0  0  0  0  0  0  0  0
    4.3097   -3.6910   -0.3327 C   0  0  0  0  0  0  0  0  0  0  0  0
    3.2061   -4.7432   -0.4635 C   0  0  0  0  0  0  0  0  0  0  0  0
    2.0820   -4.1527    0.3939 C   0  0  0  0  0  0  0  0  0  0  0  0
    2.1545   -2.6552    0.0714 C   0  0  0  0  0  0  0  0  0  0  0  0
    5.6430   -1.1945   -0.0242 C   0  0  0  0  0  0  0  0  0  0  0  0
    6.3931   -0.0180    0.0925 C   0  0  0  0  0  0  0  0  0  0  0  0
    7.8691   -0.1424    0.2801 C   0  0  0  0  0  0  0  0  0  0  0  0
    8.6618   -0.7812   -0.6890 C   0  0  0  0  0  0  0  0  0  0  0  0
   10.0384   -0.9335   -0.4996 C   0  0  0  0  0  0  0  0  0  0  0  0
   10.6436   -0.4593    0.6675 C   0  0  0  0  0  0  0  0  0  0  0  0
    9.8636    0.1696    1.6437 C   0  0  0  0  0  0  0  0  0  0  0  0
    8.4891    0.3286    1.4510 C   0  0  0  0  0  0  0  0  0  0  0  0
    5.7263    1.2197    0.0545 C   0  0  0  0  0  0  0  0  0  0  0  0
    4.3086    1.2398   -0.0946 C   0  0  0  0  0  0  0  0  0  0  0  0
    3.8675    2.6518   -0.1417 C   0  0  0  0  0  0  0  0  0  0  0  0
    2.6521    3.3097   -0.2646 C   0  0  0  0  0  0  0  0  0  0  0  0
    2.6433    4.7327   -0.2773 C   0  0  0  0  0  0  0  0  0  0  0  0
    3.8035    5.4859   -0.1808 C   0  0  0  0  0  0  0  0  0  0  0  0
    5.0678    4.8400   -0.0590 C   0  0  0  0  0  0  0  0  0  0  0  0
    6.3494    5.4597    0.0285 C   0  0  0  0  0  0  0  0  0  0  0  0
    7.4877    4.6759    0.1221 C   0  0  0  0  0  0  0  0  0  0  0  0
    7.4391    3.2521    0.1470 C   0  0  0  0  0  0  0  0  0  0  0  0
    6.2080    2.6179    0.0776 C   0  0  0  0  0  0  0  0  0  0  0  0
    5.0488    3.4333   -0.0346 C   0  0  0  0  0  0  0  0  0  0  0  0
    4.9264   -3.8820    0.5683 H   0  0  0  0  0  0  0  0  0  0  0  0
    4.9938   -3.6766   -1.1975 H   0  0  0  0  0  0  0  0  0  0  0  0
    3.5363   -5.7396   -0.1349 H   0  0  0  0  0  0  0  0  0  0  0  0
    2.8826   -4.8255   -1.5145 H   0  0  0  0  0  0  0  0  0  0  0  0
    2.2928   -4.3233    1.4629 H   0  0  0  0  0  0  0  0  0  0  0  0
    1.0910   -4.5776    0.1767 H   0  0  0  0  0  0  0  0  0  0  0  0
    1.8171   -2.0270    0.9098 H   0  0  0  0  0  0  0  0  0  0  0  0
    1.5197   -2.4075   -0.7954 H   0  0  0  0  0  0  0  0  0  0  0  0
    6.1824   -2.1374    0.0369 H   0  0  0  0  0  0  0  0  0  0  0  0
    8.1928   -1.1488   -1.6052 H   0  0  0  0  0  0  0  0  0  0  0  0
   10.6404   -1.4239   -1.2690 H   0  0  0  0  0  0  0  0  0  0  0  0
   11.7194   -0.5808    0.8178 H   0  0  0  0  0  0  0  0  0  0  0  0
   10.3273    0.5351    2.5637 H   0  0  0  0  0  0  0  0  0  0  0  0
    7.8831    0.8152    2.2190 H   0  0  0  0  0  0  0  0  0  0  0  0
    1.7101    2.7692   -0.3565 H   0  0  0  0  0  0  0  0  0  0  0  0
    1.6820    5.2440   -0.3728 H   0  0  0  0  0  0  0  0  0  0  0  0
    3.7521    6.5781   -0.2024 H   0  0  0  0  0  0  0  0  0  0  0  0
    6.4293    6.5500    0.0150 H   0  0  0  0  0  0  0  0  0  0  0  0
    8.4655    5.1614    0.1800 H   0  0  0  0  0  0  0  0  0  0  0  0
    8.3711    2.6910    0.2182 H   0  0  0  0  0  0  0  0  0  0  0  0
  1  2  3  0
  2  3  1  0
  3  4  2  0
  3 19  1  0
  4  5  1  0
  4 10  1  0
  5  6  1  0
  5  9  1  0
  6  7  1  0
  6 30  1  0
  6 31  1  0
  7  8  1  0
  7 32  1  0
  7 33  1  0
  8  9  1  0
  8 34  1  0
  8 35  1  0
  9 36  1  0
  9 37  1  0
 10 11  2  0
 10 38  1  0
 11 12  1  0
 11 18  1  0
 12 13  2  0
 12 17  1  0
 13 14  1  0
 13 39  1  0
 14 15  2  0
 14 40  1  0
 15 16  1  0
 15 41  1  0
 16 17  2  0
 16 42  1  0
 17 43  1  0
 18 19  2  0
 18 28  1  0
 19 20  1  0
 20 21  2  0
 20 29  1  0
 21 22  1  0
 21 44  1  0
 22 23  2  0
 22 45  1  0
 23 24  1  0
 23 46  1  0
 24 25  1  0
 24 29  2  0
 25 26  2  0
 25 47  1  0
 26 27  1  0
 26 48  1  0
 27 28  2  0
 27 49  1  0
 28 29  1  0
M  END

