
     RDKit          3D

 44 44  0  0  0  0  0  0  0  0999 V2000
    3.4490    1.4801    3.1133 C   0  0  0  0  0  0  0  0  0  0  0  0
    2.7424    1.1475    1.8913 N   0  0  0  0  0  0  0  0  0  0  0  0
    2.8061   -0.2507    1.4704 C   0  0  1  0  0  0  0  0  0  0  0  0
    1.8781   -0.4389    0.2630 C   0  0  0  0  0  0  0  0  0  0  0  0
    4.2227   -0.7712    1.1910 C   0  0  0  0  0  0  0  0  0  0  0  0
    5.0411   -0.0667    0.2950 C   0  0  0  0  0  0  0  0  0  0  0  0
    6.3480   -0.4663    0.0594 C   0  0  0  0  0  0  0  0  0  0  0  0
    7.1035    0.2459   -0.8030 F   0  0  0  0  0  0  0  0  0  0  0  0
    6.9172   -1.5794    0.6862 C   0  0  0  0  0  0  0  0  0  0  0  0
    8.3418   -1.9760    0.3990 C   0  0  0  0  0  0  0  0  0  0  0  0
    6.0909   -2.2915    1.5619 C   0  0  0  0  0  0  0  0  0  0  0  0
    4.7606   -1.9129    1.8339 C   0  0  0  0  0  0  0  0  0  0  0  0
    3.9594   -2.6637    2.7489 N   0  0  0  0  0  0  0  0  0  0  0  0
    3.0373   -3.6228    2.1647 C   0  0  0  0  0  0  0  0  0  0  0  0
    4.5027   -2.9797    4.0761 C   0  0  1  0  0  0  0  0  0  0  0  0
    3.5393   -2.5209    5.1846 C   0  0  0  0  0  0  0  0  0  0  0  0
    4.8665   -4.4553    4.3023 C   0  0  0  0  0  0  0  0  0  0  0  0
    5.7888   -4.9036    3.3393 O   0  0  0  0  0  0  0  0  0  0  0  0
    6.1767   -6.2430    3.4998 C   0  0  0  0  0  0  0  0  0  0  0  0
    3.3281    2.5536    3.3293 H   0  0  0  0  0  0  0  0  0  0  0  0
    4.5372    1.2550    3.1050 H   0  0  0  0  0  0  0  0  0  0  0  0
    3.0080    0.9267    3.9601 H   0  0  0  0  0  0  0  0  0  0  0  0
    3.0291    1.7633    1.1312 H   0  0  0  0  0  0  0  0  0  0  0  0
    2.4166   -0.8496    2.3088 H   0  0  0  0  0  0  0  0  0  0  0  0
    2.2212    0.1638   -0.5955 H   0  0  0  0  0  0  0  0  0  0  0  0
    0.8582   -0.1139    0.5185 H   0  0  0  0  0  0  0  0  0  0  0  0
    1.8479   -1.4879   -0.0681 H   0  0  0  0  0  0  0  0  0  0  0  0
    4.6767    0.8257   -0.2206 H   0  0  0  0  0  0  0  0  0  0  0  0
    8.4948   -2.1773   -0.6742 H   0  0  0  0  0  0  0  0  0  0  0  0
    8.6199   -2.8787    0.9614 H   0  0  0  0  0  0  0  0  0  0  0  0
    9.0452   -1.1711    0.6704 H   0  0  0  0  0  0  0  0  0  0  0  0
    6.4786   -3.1849    2.0543 H   0  0  0  0  0  0  0  0  0  0  0  0
    2.5158   -3.1712    1.3092 H   0  0  0  0  0  0  0  0  0  0  0  0
    2.2640   -3.9143    2.8947 H   0  0  0  0  0  0  0  0  0  0  0  0
    3.5362   -4.5450    1.8021 H   0  0  0  0  0  0  0  0  0  0  0  0
    5.4339   -2.4010    4.1777 H   0  0  0  0  0  0  0  0  0  0  0  0
    2.5704   -3.0421    5.1149 H   0  0  0  0  0  0  0  0  0  0  0  0
    3.3475   -1.4425    5.0934 H   0  0  0  0  0  0  0  0  0  0  0  0
    3.9527   -2.7146    6.1881 H   0  0  0  0  0  0  0  0  0  0  0  0
    3.9522   -5.0846    4.2783 H   0  0  0  0  0  0  0  0  0  0  0  0
    5.2915   -4.5602    5.3222 H   0  0  0  0  0  0  0  0  0  0  0  0
    6.8850   -6.4882    2.6951 H   0  0  0  0  0  0  0  0  0  0  0  0
    5.3125   -6.9342    3.4322 H   0  0  0  0  0  0  0  0  0  0  0  0
    6.6753   -6.4156    4.4751 H   0  0  0  0  0  0  0  0  0  0  0  0
  1  2  1  0
  1 20  1  0
  1 21  1  0
  1 22  1  0
  2  3  1  0
  2 23  1  0
  3  4  1  0
  3  5  1  0
  3 24  1  1
  4 25  1  0
  4 26  1  0
  4 27  1  0
  5  6  2  0
  5 12  1  0
  6  7  1  0
  6 28  1  0
  7  8  1  0
  7  9  2  0
  9 10  1  0
  9 11  1  0
 10 29  1  0
 10 30  1  0
 10 31  1  0
 11 12  2  0
 11 32  1  0
 12 13  1  0
 13 14  1  0
 13 15  1  0
 14 33  1  0
 14 34  1  0
 14 35  1  0
 15 16  1  0
 15 17  1  0
 15 36  1  1
 16 37  1  0
 16 38  1  0
 16 39  1  0
 17 18  1  0
 17 40  1  0
 17 41  1  0
 18 19  1  0
 19 42  1  0
 19 43  1  0
 19 44  1  0
M  END

