
     RDKit          3D

 23 23  0  0  0  0  0  0  0  0999 V2000
    1.1544   -1.1075   -0.1319 C   0  0  0  0  0  0  0  0  0  0  0  0
    2.6824   -1.0555   -0.0728 C   0  0  0  0  0  0  0  0  0  0  0  0
    3.1951   -0.5494    1.2775 C   0  0  0  0  0  0  0  0  0  0  0  0
    4.7415   -0.5508    1.4342 C   0  0  1  0  0  0  0  0  0  0  0  0
    5.0715    0.0027    2.8450 C   0  0  0  0  0  0  0  0  0  0  0  0
    5.3068   -0.7319    3.7654 O   0  0  0  0  0  0  0  0  0  0  0  0
    4.9968    1.3281    2.9588 O   0  0  0  0  0  0  0  0  0  0  0  0
    5.3478   -1.8462    1.2108 N   0  0  0  0  0  0  0  0  0  0  0  0
    6.2731   -1.8423    0.1972 C   0  0  0  0  0  0  0  0  0  0  0  0
    7.0036   -2.7214   -0.1765 O   0  0  0  0  0  0  0  0  0  0  0  0
    6.2102   -0.5312   -0.3631 N   0  0  0  0  0  0  0  0  0  0  0  0
    5.4107    0.3063    0.3510 C   0  0  0  0  0  0  0  0  0  0  0  0
    5.2451    1.5054    0.2143 O   0  0  0  0  0  0  0  0  0  0  0  0
    0.8073   -1.4713   -1.1114 H   0  0  0  0  0  0  0  0  0  0  0  0
    0.7101   -0.1117    0.0308 H   0  0  0  0  0  0  0  0  0  0  0  0
    0.7457   -1.7827    0.6380 H   0  0  0  0  0  0  0  0  0  0  0  0
    3.0563   -0.4014   -0.8799 H   0  0  0  0  0  0  0  0  0  0  0  0
    3.0965   -2.0590   -0.2657 H   0  0  0  0  0  0  0  0  0  0  0  0
    2.7888   -1.1703    2.0943 H   0  0  0  0  0  0  0  0  0  0  0  0
    2.8393    0.4781    1.4574 H   0  0  0  0  0  0  0  0  0  0  0  0
    4.9295    1.7429    2.0683 H   0  0  0  0  0  0  0  0  0  0  0  0
    5.3940   -2.5411    1.9490 H   0  0  0  0  0  0  0  0  0  0  0  0
    6.8167   -0.2418   -1.1242 H   0  0  0  0  0  0  0  0  0  0  0  0
  1  2  1  0
  1 14  1  0
  1 15  1  0
  1 16  1  0
  2  3  1  0
  2 17  1  0
  2 18  1  0
  3  4  1  0
  3 19  1  0
  3 20  1  0
  4  5  1  1
  4  8  1  0
  4 12  1  0
  5  6  2  0
  5  7  1  0
  7 21  1  0
  8  9  1  0
  8 22  1  0
  9 10  2  0
  9 11  1  0
 11 12  1  0
 11 23  1  0
 12 13  2  0
M  END

