
     RDKit          3D

 36 37  0  0  0  0  0  0  0  0999 V2000
    1.5538   -0.8059   -1.2653 C   0  0  0  0  0  0  0  0  0  0  0  0
    2.2650   -0.1638   -0.0639 C   0  0  0  0  0  0  0  0  0  0  0  0
    2.8648   -1.1770    0.8873 C   0  0  0  0  0  0  0  0  0  0  0  0
    4.1761   -1.6456    0.7173 C   0  0  0  0  0  0  0  0  0  0  0  0
    4.7159   -2.6120    1.5700 C   0  0  0  0  0  0  0  0  0  0  0  0
    3.9656   -3.1413    2.6287 C   0  0  0  0  0  0  0  0  0  0  0  0
    4.5582   -4.1847    3.5652 C   0  0  1  0  0  0  0  0  0  0  0  0
    4.7111   -3.6419    4.9988 C   0  0  0  0  0  0  0  0  0  0  0  0
    3.7413   -5.3967    3.5233 N   0  0  0  0  0  0  0  0  0  0  0  0
    4.2003   -6.6719    3.7884 C   0  0  0  0  0  0  0  0  0  0  0  0
    5.4843   -6.9358    4.3143 C   0  0  0  0  0  0  0  0  0  0  0  0
    5.9002   -8.2443    4.5734 C   0  0  0  0  0  0  0  0  0  0  0  0
    5.0488   -9.3179    4.3146 C   0  0  0  0  0  0  0  0  0  0  0  0
    5.6207  -11.1058    4.6730 Br  0  0  0  0  0  0  0  0  0  0  0  0
    3.7725   -9.0831    3.7912 C   0  0  0  0  0  0  0  0  0  0  0  0
    3.3579   -7.7805    3.5338 C   0  0  0  0  0  0  0  0  0  0  0  0
    2.6539   -2.6701    2.8059 C   0  0  0  0  0  0  0  0  0  0  0  0
    2.1145   -1.7100    1.9478 C   0  0  0  0  0  0  0  0  0  0  0  0
    1.1316   -0.0371   -1.9325 H   0  0  0  0  0  0  0  0  0  0  0  0
    0.7297   -1.4595   -0.9370 H   0  0  0  0  0  0  0  0  0  0  0  0
    2.2496   -1.4230   -1.8561 H   0  0  0  0  0  0  0  0  0  0  0  0
    1.5495    0.4719    0.4845 H   0  0  0  0  0  0  0  0  0  0  0  0
    3.0598    0.5083   -0.4289 H   0  0  0  0  0  0  0  0  0  0  0  0
    4.7887   -1.2471   -0.0970 H   0  0  0  0  0  0  0  0  0  0  0  0
    5.7407   -2.9593    1.4100 H   0  0  0  0  0  0  0  0  0  0  0  0
    5.5681   -4.4263    3.1839 H   0  0  0  0  0  0  0  0  0  0  0  0
    3.7349   -3.3389    5.4071 H   0  0  0  0  0  0  0  0  0  0  0  0
    5.3781   -2.7655    5.0104 H   0  0  0  0  0  0  0  0  0  0  0  0
    5.1315   -4.4060    5.6698 H   0  0  0  0  0  0  0  0  0  0  0  0
    2.9115   -5.3431    2.9465 H   0  0  0  0  0  0  0  0  0  0  0  0
    6.1745   -6.1198    4.5288 H   0  0  0  0  0  0  0  0  0  0  0  0
    6.8976   -8.4226    4.9798 H   0  0  0  0  0  0  0  0  0  0  0  0
    3.1019   -9.9191    3.5838 H   0  0  0  0  0  0  0  0  0  0  0  0
    2.3574   -7.6086    3.1260 H   0  0  0  0  0  0  0  0  0  0  0  0
    2.0440   -3.0512    3.6301 H   0  0  0  0  0  0  0  0  0  0  0  0
    1.0912   -1.3587    2.1119 H   0  0  0  0  0  0  0  0  0  0  0  0
  1  2  1  0
  1 19  1  0
  1 20  1  0
  1 21  1  0
  2  3  1  0
  2 22  1  0
  2 23  1  0
  3  4  2  0
  3 18  1  0
  4  5  1  0
  4 24  1  0
  5  6  2  0
  5 25  1  0
  6  7  1  0
  6 17  1  0
  7  8  1  0
  7  9  1  0
  7 26  1  6
  8 27  1  0
  8 28  1  0
  8 29  1  0
  9 10  1  0
  9 30  1  0
 10 11  2  0
 10 16  1  0
 11 12  1  0
 11 31  1  0
 12 13  2  0
 12 32  1  0
 13 14  1  0
 13 15  1  0
 15 16  2  0
 15 33  1  0
 16 34  1  0
 17 18  2  0
 17 35  1  0
 18 36  1  0
M  END

