
     RDKit          3D

 57 59  0  0  0  0  0  0  0  0999 V2000
    0.6309   -1.0246    1.5084 C   0  0  0  0  0  0  0  0  0  0  0  0
    1.1350    0.2163    1.0667 O   0  0  0  0  0  0  0  0  0  0  0  0
    2.0807    0.8519    1.8081 C   0  0  0  0  0  0  0  0  0  0  0  0
    2.5859    0.3779    3.0270 C   0  0  0  0  0  0  0  0  0  0  0  0
    3.5900    1.0766    3.7057 C   0  0  0  0  0  0  0  0  0  0  0  0
    4.1158    2.2660    3.1887 C   0  0  0  0  0  0  0  0  0  0  0  0
    5.1748    3.0578    3.9534 C   0  0  1  0  0  0  0  0  0  0  0  0
    4.5058    3.8380    5.1148 C   0  0  0  0  0  0  0  0  0  0  0  0
    3.4232    4.6857    4.6694 N   0  0  0  0  0  0  0  0  0  0  0  0
    3.5033    6.0540    4.6892 C   0  0  0  0  0  0  0  0  0  0  0  0
    4.4776    6.6560    5.1213 O   0  0  0  0  0  0  0  0  0  0  0  0
    2.2966    6.7490    4.1498 C   0  0  0  0  0  0  0  0  0  0  0  0
    2.2469    8.0938    4.1347 C   0  0  0  0  0  0  0  0  0  0  0  0
    1.1601    8.9510    3.6537 C   0  0  0  0  0  0  0  0  0  0  0  0
   -0.0474    8.4550    3.1200 C   0  0  0  0  0  0  0  0  0  0  0  0
   -1.0420    9.3201    2.6803 C   0  0  0  0  0  0  0  0  0  0  0  0
   -0.8669   10.7091    2.7580 C   0  0  0  0  0  0  0  0  0  0  0  0
   -2.1325   11.7596    2.1988 Cl  0  0  0  0  0  0  0  0  0  0  0  0
    0.3287   11.2222    3.2870 C   0  0  0  0  0  0  0  0  0  0  0  0
    0.5957   12.9373    3.4059 Cl  0  0  0  0  0  0  0  0  0  0  0  0
    1.3237   10.3458    3.7268 C   0  0  0  0  0  0  0  0  0  0  0  0
    6.2173    2.1537    4.4578 N   0  0  0  0  0  0  0  0  0  0  0  0
    6.9684    1.4520    3.4088 C   0  0  0  0  0  0  0  0  0  0  0  0
    8.0917    2.3070    2.8139 C   0  0  0  0  0  0  0  0  0  0  0  0
    8.9680    2.7780    3.8215 O   0  0  0  0  0  0  0  0  0  0  0  0
    8.2847    3.5113    4.8221 C   0  0  0  0  0  0  0  0  0  0  0  0
    7.1702    2.6679    5.4479 C   0  0  0  0  0  0  0  0  0  0  0  0
    3.5964    2.7435    1.9755 C   0  0  0  0  0  0  0  0  0  0  0  0
    2.5936    2.0629    1.2802 C   0  0  0  0  0  0  0  0  0  0  0  0
    2.1984    2.5530    0.0694 O   0  0  0  0  0  0  0  0  0  0  0  0
    0.8406    2.9340   -0.0879 C   0  0  0  0  0  0  0  0  0  0  0  0
   -0.0917   -1.3558    0.7506 H   0  0  0  0  0  0  0  0  0  0  0  0
    0.1143   -0.9381    2.4815 H   0  0  0  0  0  0  0  0  0  0  0  0
    1.4297   -1.7824    1.5967 H   0  0  0  0  0  0  0  0  0  0  0  0
    2.2104   -0.5544    3.4496 H   0  0  0  0  0  0  0  0  0  0  0  0
    3.9927    0.6784    4.6395 H   0  0  0  0  0  0  0  0  0  0  0  0
    5.5704    3.8293    3.2587 H   0  0  0  0  0  0  0  0  0  0  0  0
    5.2236    4.5137    5.5958 H   0  0  0  0  0  0  0  0  0  0  0  0
    4.1470    3.1161    5.8694 H   0  0  0  0  0  0  0  0  0  0  0  0
    2.6118    4.2472    4.2505 H   0  0  0  0  0  0  0  0  0  0  0  0
    1.4702    6.1358    3.7762 H   0  0  0  0  0  0  0  0  0  0  0  0
    3.1310    8.6040    4.5328 H   0  0  0  0  0  0  0  0  0  0  0  0
   -0.2152    7.3790    3.0467 H   0  0  0  0  0  0  0  0  0  0  0  0
   -1.9753    8.9331    2.2681 H   0  0  0  0  0  0  0  0  0  0  0  0
    2.2452   10.7652    4.1346 H   0  0  0  0  0  0  0  0  0  0  0  0
    6.2823    1.1158    2.6176 H   0  0  0  0  0  0  0  0  0  0  0  0
    7.4204    0.5496    3.8588 H   0  0  0  0  0  0  0  0  0  0  0  0
    7.6677    3.1622    2.2461 H   0  0  0  0  0  0  0  0  0  0  0  0
    8.7001    1.7138    2.1128 H   0  0  0  0  0  0  0  0  0  0  0  0
    7.8689    4.4499    4.3981 H   0  0  0  0  0  0  0  0  0  0  0  0
    9.0335    3.7916    5.5799 H   0  0  0  0  0  0  0  0  0  0  0  0
    6.6574    3.2308    6.2391 H   0  0  0  0  0  0  0  0  0  0  0  0
    7.6387    1.7936    5.9347 H   0  0  0  0  0  0  0  0  0  0  0  0
    3.9794    3.6624    1.5245 H   0  0  0  0  0  0  0  0  0  0  0  0
    0.7537    3.3768   -1.0901 H   0  0  0  0  0  0  0  0  0  0  0  0
    0.5510    3.6951    0.6608 H   0  0  0  0  0  0  0  0  0  0  0  0
    0.1580    2.0740   -0.0099 H   0  0  0  0  0  0  0  0  0  0  0  0
  1  2  1  0
  1 32  1  0
  1 33  1  0
  1 34  1  0
  2  3  1  0
  3  4  2  0
  3 29  1  0
  4  5  1  0
  4 35  1  0
  5  6  2  0
  5 36  1  0
  6  7  1  0
  6 28  1  0
  7  8  1  0
  7 22  1  0
  7 37  1  6
  8  9  1  0
  8 38  1  0
  8 39  1  0
  9 10  1  0
  9 40  1  0
 10 11  2  0
 10 12  1  0
 12 13  2  0
 12 41  1  0
 13 14  1  0
 13 42  1  0
 14 15  2  0
 14 21  1  0
 15 16  1  0
 15 43  1  0
 16 17  2  0
 16 44  1  0
 17 18  1  0
 17 19  1  0
 19 20  1  0
 19 21  2  0
 21 45  1  0
 22 23  1  0
 22 27  1  0
 23 24  1  0
 23 46  1  0
 23 47  1  0
 24 25  1  0
 24 48  1  0
 24 49  1  0
 25 26  1  0
 26 27  1  0
 26 50  1  0
 26 51  1  0
 27 52  1  0
 27 53  1  0
 28 29  2  0
 28 54  1  0
 29 30  1  0
 30 31  1  0
 31 55  1  0
 31 56  1  0
 31 57  1  0
M  END

