
     RDKit          3D

 39 43  0  0  0  0  0  0  0  0999 V2000
    0.8717   -0.5852    0.8614 F   0  0  0  0  0  0  0  0  0  0  0  0
    2.1926   -0.4152    0.7467 C   0  0  0  0  0  0  0  0  0  0  0  0
    2.8863    0.3997    1.6352 C   0  0  0  0  0  0  0  0  0  0  0  0
    4.2660    0.5493    1.4868 C   0  0  0  0  0  0  0  0  0  0  0  0
    4.9743   -0.0997    0.4625 C   0  0  0  0  0  0  0  0  0  0  0  0
    6.4345    0.0656    0.3144 C   0  0  0  0  0  0  0  0  0  0  0  0
    7.2320   -1.0054    0.2186 N   0  0  0  0  0  0  0  0  0  0  0  0
    8.4589   -0.4977    0.1480 N   0  0  0  0  0  0  0  0  0  0  0  0
    8.5103    0.8528    0.2112 C   0  0  0  0  0  0  0  0  0  0  0  0
    7.1915    1.2911    0.3126 C   0  0  0  0  0  0  0  0  0  0  0  0
    6.7343    2.6890    0.3521 C   0  0  0  0  0  0  0  0  0  0  0  0
    7.3326    3.6366    1.1688 C   0  0  0  0  0  0  0  0  0  0  0  0
    6.9067    4.9947    1.1707 C   0  0  0  0  0  0  0  0  0  0  0  0
    5.8820    5.4015    0.3606 C   0  0  0  0  0  0  0  0  0  0  0  0
    5.2796    4.4802   -0.4608 N   0  0  0  0  0  0  0  0  0  0  0  0
    4.2646    4.6187   -1.3828 C   0  0  0  0  0  0  0  0  0  0  0  0
    4.0997    3.3606   -1.9365 C   0  0  0  0  0  0  0  0  0  0  0  0
    4.9620    2.4577   -1.4025 N   0  0  0  0  0  0  0  0  0  0  0  0
    5.6756    3.1275   -0.5061 C   0  0  0  0  0  0  0  0  0  0  0  0
    9.9379    1.3082    0.1390 C   0  0  0  0  0  0  0  0  0  0  0  0
   10.6664    0.0180   -0.3473 C   0  0  0  0  0  0  0  0  0  0  0  0
    9.7470   -1.1639    0.0502 C   0  0  0  0  0  0  0  0  0  0  0  0
    4.2470   -0.9111   -0.4199 C   0  0  0  0  0  0  0  0  0  0  0  0
    4.8439   -1.5349   -1.4326 F   0  0  0  0  0  0  0  0  0  0  0  0
    2.8668   -1.0762   -0.2823 C   0  0  0  0  0  0  0  0  0  0  0  0
    2.1975   -1.8494   -1.1380 F   0  0  0  0  0  0  0  0  0  0  0  0
    2.3350    0.8988    2.4338 H   0  0  0  0  0  0  0  0  0  0  0  0
    4.8162    1.1801    2.1869 H   0  0  0  0  0  0  0  0  0  0  0  0
    8.1365    3.3298    1.8409 H   0  0  0  0  0  0  0  0  0  0  0  0
    7.3870    5.7226    1.8265 H   0  0  0  0  0  0  0  0  0  0  0  0
    5.5025    6.4232    0.3157 H   0  0  0  0  0  0  0  0  0  0  0  0
    3.7710    5.5704   -1.5601 H   0  0  0  0  0  0  0  0  0  0  0  0
    3.3836    3.0778   -2.7085 H   0  0  0  0  0  0  0  0  0  0  0  0
   10.3033    1.6248    1.1323 H   0  0  0  0  0  0  0  0  0  0  0  0
   10.0881    2.1595   -0.5420 H   0  0  0  0  0  0  0  0  0  0  0  0
   11.6769   -0.0823    0.0733 H   0  0  0  0  0  0  0  0  0  0  0  0
   10.7653    0.0472   -1.4434 H   0  0  0  0  0  0  0  0  0  0  0  0
   10.0210   -1.6122    1.0215 H   0  0  0  0  0  0  0  0  0  0  0  0
    9.7128   -1.9671   -0.6998 H   0  0  0  0  0  0  0  0  0  0  0  0
  1  2  1  0
  2  3  2  0
  2 25  1  0
  3  4  1  0
  3 27  1  0
  4  5  2  0
  4 28  1  0
  5  6  1  0
  5 23  1  0
  6  7  2  0
  6 10  1  0
  7  8  1  0
  8  9  1  0
  8 22  1  0
  9 10  2  0
  9 20  1  0
 10 11  1  0
 11 12  2  0
 11 19  1  0
 12 13  1  0
 12 29  1  0
 13 14  2  0
 13 30  1  0
 14 15  1  0
 14 31  1  0
 15 16  1  0
 15 19  1  0
 16 17  2  0
 16 32  1  0
 17 18  1  0
 17 33  1  0
 18 19  2  0
 20 21  1  0
 20 34  1  0
 20 35  1  0
 21 22  1  0
 21 36  1  0
 21 37  1  0
 22 38  1  0
 22 39  1  0
 23 24  1  0
 23 25  2  0
 25 26  1  0
M  END

