
     RDKit          3D

 48 49  0  0  0  0  0  0  0  0999 V2000
    4.6801   -2.9856    2.3090 C   0  0  0  0  0  0  0  0  0  0  0  0
    3.9196   -3.1587    0.9957 C   0  0  0  0  0  0  0  0  0  0  0  0
    4.6257   -3.9539   -0.0059 N   0  0  0  0  0  0  0  0  0  0  0  0
    4.9015   -5.3404    0.3673 C   0  0  0  0  0  0  0  0  0  0  0  0
    3.6878   -6.2656    0.5472 C   0  0  0  0  0  0  0  0  0  0  0  0
    4.0981   -3.7790   -1.3575 C   0  0  0  0  0  0  0  0  0  0  0  0
    4.6352   -2.5021   -2.0297 C   0  0  0  0  0  0  0  0  0  0  0  0
    6.0887   -2.4367   -2.1157 N   0  0  0  0  0  0  0  0  0  0  0  0
    6.7092   -3.2124   -3.1874 C   0  0  1  0  0  0  0  0  0  0  0  0
    6.4935   -2.5535   -4.5562 C   0  0  0  0  0  0  0  0  0  0  0  0
    6.3770   -1.1621   -4.6894 C   0  0  0  0  0  0  0  0  0  0  0  0
    6.2306   -0.5761   -5.9502 C   0  0  0  0  0  0  0  0  0  0  0  0
    6.1959   -1.3719   -7.0992 C   0  0  0  0  0  0  0  0  0  0  0  0
    6.3036   -2.7606   -6.9767 C   0  0  0  0  0  0  0  0  0  0  0  0
    6.4480   -3.3430   -5.7148 C   0  0  0  0  0  0  0  0  0  0  0  0
    8.1969   -3.3942   -2.8930 C   0  0  0  0  0  0  0  0  0  0  0  0
    8.8078   -4.6477   -3.0147 C   0  0  0  0  0  0  0  0  0  0  0  0
   10.1732   -4.8197   -2.7671 C   0  0  0  0  0  0  0  0  0  0  0  0
   10.9588   -3.7258   -2.3837 C   0  0  0  0  0  0  0  0  0  0  0  0
   12.2898   -3.8282   -2.1263 O   0  0  0  0  0  0  0  0  0  0  0  0
   10.3595   -2.4637   -2.2510 C   0  0  0  0  0  0  0  0  0  0  0  0
    8.9996   -2.3065   -2.5060 C   0  0  0  0  0  0  0  0  0  0  0  0
    4.1452   -2.2816    2.9659 H   0  0  0  0  0  0  0  0  0  0  0  0
    5.6906   -2.5875    2.1244 H   0  0  0  0  0  0  0  0  0  0  0  0
    4.7847   -3.9312    2.8638 H   0  0  0  0  0  0  0  0  0  0  0  0
    3.7509   -2.1602    0.5623 H   0  0  0  0  0  0  0  0  0  0  0  0
    2.9035   -3.5640    1.2073 H   0  0  0  0  0  0  0  0  0  0  0  0
    5.4956   -5.3392    1.2957 H   0  0  0  0  0  0  0  0  0  0  0  0
    5.5666   -5.7618   -0.4055 H   0  0  0  0  0  0  0  0  0  0  0  0
    3.0254   -5.9275    1.3602 H   0  0  0  0  0  0  0  0  0  0  0  0
    4.0209   -7.2859    0.7979 H   0  0  0  0  0  0  0  0  0  0  0  0
    3.0832   -6.3301   -0.3722 H   0  0  0  0  0  0  0  0  0  0  0  0
    2.9857   -3.7649   -1.3838 H   0  0  0  0  0  0  0  0  0  0  0  0
    4.4030   -4.6507   -1.9594 H   0  0  0  0  0  0  0  0  0  0  0  0
    4.2764   -1.6175   -1.4736 H   0  0  0  0  0  0  0  0  0  0  0  0
    4.2056   -2.4157   -3.0409 H   0  0  0  0  0  0  0  0  0  0  0  0
    6.4713   -2.7307   -1.2167 H   0  0  0  0  0  0  0  0  0  0  0  0
    6.2853   -4.2365   -3.2702 H   0  0  0  0  0  0  0  0  0  0  0  0
    6.3903   -0.5469   -3.7874 H   0  0  0  0  0  0  0  0  0  0  0  0
    6.1400    0.5104   -6.0354 H   0  0  0  0  0  0  0  0  0  0  0  0
    6.0798   -0.9132   -8.0847 H   0  0  0  0  0  0  0  0  0  0  0  0
    6.2700   -3.3939   -7.8674 H   0  0  0  0  0  0  0  0  0  0  0  0
    6.5284   -4.4310   -5.6282 H   0  0  0  0  0  0  0  0  0  0  0  0
    8.2090   -5.5152   -3.3070 H   0  0  0  0  0  0  0  0  0  0  0  0
   10.6285   -5.8106   -2.8669 H   0  0  0  0  0  0  0  0  0  0  0  0
   12.5731   -4.7420   -2.2602 H   0  0  0  0  0  0  0  0  0  0  0  0
   10.9809   -1.6180   -1.9489 H   0  0  0  0  0  0  0  0  0  0  0  0
    8.5434   -1.3205   -2.3974 H   0  0  0  0  0  0  0  0  0  0  0  0
  1  2  1  0
  1 23  1  0
  1 24  1  0
  1 25  1  0
  2  3  1  0
  2 26  1  0
  2 27  1  0
  3  4  1  0
  3  6  1  0
  4  5  1  0
  4 28  1  0
  4 29  1  0
  5 30  1  0
  5 31  1  0
  5 32  1  0
  6  7  1  0
  6 33  1  0
  6 34  1  0
  7  8  1  0
  7 35  1  0
  7 36  1  0
  8  9  1  0
  8 37  1  0
  9 10  1  0
  9 16  1  0
  9 38  1  6
 10 11  2  0
 10 15  1  0
 11 12  1  0
 11 39  1  0
 12 13  2  0
 12 40  1  0
 13 14  1  0
 13 41  1  0
 14 15  2  0
 14 42  1  0
 15 43  1  0
 16 17  2  0
 16 22  1  0
 17 18  1  0
 17 44  1  0
 18 19  2  0
 18 45  1  0
 19 20  1  0
 19 21  1  0
 20 46  1  0
 21 22  2  0
 21 47  1  0
 22 48  1  0
M  END

