
     RDKit          3D

 34 34  0  0  0  0  0  0  0  0999 V2000
    1.3283    0.5109   -0.7780 C   0  0  0  0  0  0  0  0  0  0  0  0
    2.7268    0.3266   -0.4213 N   0  0  0  0  0  0  0  0  0  0  0  0
    3.4128   -0.8086   -1.0146 C   0  0  0  0  0  0  0  0  0  0  0  0
    3.3488   -2.0895   -0.1682 C   0  0  0  0  0  0  0  0  0  0  0  0
    4.1171   -3.2395   -0.8057 C   0  0  0  0  0  0  0  0  0  0  0  0
    4.7889   -3.1265   -1.7946 O   0  0  0  0  0  0  0  0  0  0  0  0
    4.0163   -4.4306   -0.1765 O   0  0  0  0  0  0  0  0  0  0  0  0
    3.2385    1.1015    0.6136 C   0  0  0  0  0  0  0  0  0  0  0  0
    2.5595    1.9226    1.2101 O   0  0  0  0  0  0  0  0  0  0  0  0
    4.5744    0.8646    0.9118 N   0  0  0  0  0  0  0  0  0  0  0  0
    5.3633    1.4901    1.8968 C   0  0  0  0  0  0  0  0  0  0  0  0
    6.7342    1.1666    1.9287 C   0  0  0  0  0  0  0  0  0  0  0  0
    7.5844    1.7299    2.8747 C   0  0  0  0  0  0  0  0  0  0  0  0
    7.0758    2.6257    3.8196 C   0  0  0  0  0  0  0  0  0  0  0  0
    7.9726    3.1271    4.7468 O   0  0  0  0  0  0  0  0  0  0  0  0
    7.8062    4.3997    5.2079 C   0  0  1  0  0  0  0  0  0  0  0  0
    6.8947    4.4364    6.2168 F   0  0  0  0  0  0  0  0  0  0  0  0
    8.9797    4.7964    5.7165 F   0  0  0  0  0  0  0  0  0  0  0  0
    5.7152    2.9456    3.8119 C   0  0  0  0  0  0  0  0  0  0  0  0
    4.8632    2.3915    2.8518 C   0  0  0  0  0  0  0  0  0  0  0  0
    1.2231    0.6396   -1.8683 H   0  0  0  0  0  0  0  0  0  0  0  0
    0.9522    1.4046   -0.2684 H   0  0  0  0  0  0  0  0  0  0  0  0
    0.7066   -0.3504   -0.4705 H   0  0  0  0  0  0  0  0  0  0  0  0
    4.4643   -0.5763   -1.2477 H   0  0  0  0  0  0  0  0  0  0  0  0
    2.9600   -1.0038   -1.9978 H   0  0  0  0  0  0  0  0  0  0  0  0
    2.2992   -2.3939   -0.0098 H   0  0  0  0  0  0  0  0  0  0  0  0
    3.7690   -1.9030    0.8365 H   0  0  0  0  0  0  0  0  0  0  0  0
    3.4451   -4.3636    0.6023 H   0  0  0  0  0  0  0  0  0  0  0  0
    5.0936    0.2647    0.2856 H   0  0  0  0  0  0  0  0  0  0  0  0
    7.1444    0.4665    1.1943 H   0  0  0  0  0  0  0  0  0  0  0  0
    8.6479    1.4852    2.8929 H   0  0  0  0  0  0  0  0  0  0  0  0
    7.4742    5.1008    4.4197 H   0  0  0  0  0  0  0  0  0  0  0  0
    5.3024    3.6138    4.5687 H   0  0  0  0  0  0  0  0  0  0  0  0
    3.8071    2.6483    2.8381 H   0  0  0  0  0  0  0  0  0  0  0  0
  1  2  1  0
  1 21  1  0
  1 22  1  0
  1 23  1  0
  2  3  1  0
  2  8  1  0
  3  4  1  0
  3 24  1  0
  3 25  1  0
  4  5  1  0
  4 26  1  0
  4 27  1  0
  5  6  2  0
  5  7  1  0
  7 28  1  0
  8  9  2  0
  8 10  1  0
 10 11  1  0
 10 29  1  0
 11 12  2  0
 11 20  1  0
 12 13  1  0
 12 30  1  0
 13 14  2  0
 13 31  1  0
 14 15  1  0
 14 19  1  0
 15 16  1  0
 16 17  1  0
 16 18  1  0
 16 32  1  6
 19 20  2  0
 19 33  1  0
 20 34  1  0
M  END

