
     RDKit          3D

 43 46  0  0  0  0  0  0  0  0999 V2000
    1.0473    0.3395    0.0206 C   0  0  0  0  0  0  0  0  0  0  0  0
    2.2381    0.2459    0.7621 O   0  0  0  0  0  0  0  0  0  0  0  0
    2.8682   -0.9600    0.8663 C   0  0  0  0  0  0  0  0  0  0  0  0
    2.4067   -2.1445    0.2596 C   0  0  0  0  0  0  0  0  0  0  0  0
    3.0997   -3.3527    0.4182 C   0  0  0  0  0  0  0  0  0  0  0  0
    4.2636   -3.3586    1.1862 C   0  0  0  0  0  0  0  0  0  0  0  0
    4.7448   -2.1656    1.7901 C   0  0  0  0  0  0  0  0  0  0  0  0
    4.0414   -0.9697    1.6369 C   0  0  0  0  0  0  0  0  0  0  0  0
    5.9597   -2.5326    2.4982 C   0  0  0  0  0  0  0  0  0  0  0  0
    6.8638   -1.7992    3.2522 C   0  0  0  0  0  0  0  0  0  0  0  0
    6.6929   -0.4478    3.4213 O   0  0  0  0  0  0  0  0  0  0  0  0
    7.3021    0.3729    2.4322 C   0  0  0  0  0  0  0  0  0  0  0  0
    7.9682   -2.4544    3.8675 C   0  0  0  0  0  0  0  0  0  0  0  0
    8.9050   -1.7449    4.6734 C   0  0  0  0  0  0  0  0  0  0  0  0
    9.9797   -2.3883    5.2471 C   0  0  0  0  0  0  0  0  0  0  0  0
   10.1704   -3.7786    5.0355 C   0  0  0  0  0  0  0  0  0  0  0  0
    9.2743   -4.5011    4.2777 C   0  0  0  0  0  0  0  0  0  0  0  0
    8.1381   -3.8747    3.6842 C   0  0  0  0  0  0  0  0  0  0  0  0
    7.1973   -4.6207    2.9162 C   0  0  0  0  0  0  0  0  0  0  0  0
    7.3622   -5.9856    2.7816 O   0  0  0  0  0  0  0  0  0  0  0  0
    6.7774   -6.7649    3.8183 C   0  0  0  0  0  0  0  0  0  0  0  0
    6.1359   -3.9514    2.3131 C   0  0  0  0  0  0  0  0  0  0  0  0
    5.1106   -4.4207    1.4978 N   0  0  0  0  0  0  0  0  0  0  0  0
    4.9499   -5.7476    0.9433 C   0  0  0  0  0  0  0  0  0  0  0  0
    0.7208    1.3870    0.0799 H   0  0  0  0  0  0  0  0  0  0  0  0
    0.2484   -0.3047    0.4331 H   0  0  0  0  0  0  0  0  0  0  0  0
    1.1970    0.0749   -1.0430 H   0  0  0  0  0  0  0  0  0  0  0  0
    1.4962   -2.1405   -0.3395 H   0  0  0  0  0  0  0  0  0  0  0  0
    2.7189   -4.2623   -0.0498 H   0  0  0  0  0  0  0  0  0  0  0  0
    4.3707   -0.0466    2.1129 H   0  0  0  0  0  0  0  0  0  0  0  0
    7.0866    1.4160    2.7038 H   0  0  0  0  0  0  0  0  0  0  0  0
    6.8913    0.1698    1.4277 H   0  0  0  0  0  0  0  0  0  0  0  0
    8.3962    0.2254    2.4043 H   0  0  0  0  0  0  0  0  0  0  0  0
    8.7414   -0.6784    4.8357 H   0  0  0  0  0  0  0  0  0  0  0  0
   10.6877   -1.8300    5.8646 H   0  0  0  0  0  0  0  0  0  0  0  0
   11.0363   -4.2794    5.4767 H   0  0  0  0  0  0  0  0  0  0  0  0
    9.4294   -5.5668    4.1037 H   0  0  0  0  0  0  0  0  0  0  0  0
    7.1803   -6.4893    4.8080 H   0  0  0  0  0  0  0  0  0  0  0  0
    7.0227   -7.8164    3.6098 H   0  0  0  0  0  0  0  0  0  0  0  0
    5.6788   -6.6482    3.8435 H   0  0  0  0  0  0  0  0  0  0  0  0
    4.0663   -6.2604    1.3645 H   0  0  0  0  0  0  0  0  0  0  0  0
    5.8457   -6.3386    1.1572 H   0  0  0  0  0  0  0  0  0  0  0  0
    4.8200   -5.6895   -0.1506 H   0  0  0  0  0  0  0  0  0  0  0  0
  1  2  1  0
  1 25  1  0
  1 26  1  0
  1 27  1  0
  2  3  1  0
  3  4  2  0
  3  8  1  0
  4  5  1  0
  4 28  1  0
  5  6  2  0
  5 29  1  0
  6  7  1  0
  6 23  1  0
  7  8  2  0
  7  9  1  0
  8 30  1  0
  9 10  2  0
  9 22  1  0
 10 11  1  0
 10 13  1  0
 11 12  1  0
 12 31  1  0
 12 32  1  0
 12 33  1  0
 13 14  2  0
 13 18  1  0
 14 15  1  0
 14 34  1  0
 15 16  2  0
 15 35  1  0
 16 17  1  0
 16 36  1  0
 17 18  2  0
 17 37  1  0
 18 19  1  0
 19 20  1  0
 19 22  2  0
 20 21  1  0
 21 38  1  0
 21 39  1  0
 21 40  1  0
 22 23  1  0
 23 24  1  0
 24 41  1  0
 24 42  1  0
 24 43  1  0
M  END

