
     RDKit          3D

 33 33  0  0  0  0  0  0  0  0999 V2000
    3.1645   -1.1122    0.7332 C   0  0  0  0  0  0  0  0  0  0  0  0
    2.5939    0.0131   -0.1405 C   0  0  1  0  0  0  0  0  0  0  0  0
    1.0776    0.1424    0.0594 C   0  0  0  0  0  0  0  0  0  0  0  0
    3.2797    1.3676    0.1208 C   0  0  0  0  0  0  0  0  0  0  0  0
    4.8016    1.4347   -0.1086 C   0  0  1  0  0  0  0  0  0  0  0  0
    5.2201    1.1101   -1.5485 C   0  0  0  0  0  0  0  0  0  0  0  0
    5.2950    2.7486    0.2906 N   0  0  0  0  0  0  0  0  0  0  0  0
    6.3261    2.9288    1.1737 C   0  0  0  0  0  0  0  0  0  0  0  0
    6.8949    1.9685    1.7098 O   0  0  0  0  0  0  0  0  0  0  0  0
    6.7412    4.3051    1.4653 C   0  0  0  0  0  0  0  0  0  0  0  0
    6.0387    5.7498    0.7472 S   0  0  0  0  0  0  0  0  0  0  0  0
    7.1573    6.7640    1.5793 C   0  0  0  0  0  0  0  0  0  0  0  0
    8.0190    6.0586    2.3738 C   0  0  0  0  0  0  0  0  0  0  0  0
    7.7943    4.6377    2.3269 C   0  0  0  0  0  0  0  0  0  0  0  0
    8.4983    3.7300    3.0593 N   0  0  0  0  0  0  0  0  0  0  0  0
    2.6377   -2.0619    0.5462 H   0  0  0  0  0  0  0  0  0  0  0  0
    3.0517   -0.8742    1.8051 H   0  0  0  0  0  0  0  0  0  0  0  0
    4.2350   -1.2878    0.5446 H   0  0  0  0  0  0  0  0  0  0  0  0
    2.7623   -0.2605   -1.1983 H   0  0  0  0  0  0  0  0  0  0  0  0
    0.8380    0.4104    1.1029 H   0  0  0  0  0  0  0  0  0  0  0  0
    0.5616   -0.8045   -0.1675 H   0  0  0  0  0  0  0  0  0  0  0  0
    0.6487    0.9226   -0.5907 H   0  0  0  0  0  0  0  0  0  0  0  0
    3.0841    1.6696    1.1651 H   0  0  0  0  0  0  0  0  0  0  0  0
    2.7961    2.1343   -0.5150 H   0  0  0  0  0  0  0  0  0  0  0  0
    5.3063    0.7334    0.5709 H   0  0  0  0  0  0  0  0  0  0  0  0
    4.7511    1.8055   -2.2665 H   0  0  0  0  0  0  0  0  0  0  0  0
    4.9286    0.0876   -1.8344 H   0  0  0  0  0  0  0  0  0  0  0  0
    6.3121    1.1923   -1.6567 H   0  0  0  0  0  0  0  0  0  0  0  0
    4.8775    3.5599   -0.1512 H   0  0  0  0  0  0  0  0  0  0  0  0
    7.1141    7.8443    1.4456 H   0  0  0  0  0  0  0  0  0  0  0  0
    8.7917    6.5238    2.9886 H   0  0  0  0  0  0  0  0  0  0  0  0
    9.3970    3.9940    3.4381 H   0  0  0  0  0  0  0  0  0  0  0  0
    8.3085    2.7536    2.8350 H   0  0  0  0  0  0  0  0  0  0  0  0
  1  2  1  0
  1 16  1  0
  1 17  1  0
  1 18  1  0
  2  3  1  0
  2  4  1  0
  2 19  1  6
  3 20  1  0
  3 21  1  0
  3 22  1  0
  4  5  1  0
  4 23  1  0
  4 24  1  0
  5  6  1  0
  5  7  1  0
  5 25  1  1
  6 26  1  0
  6 27  1  0
  6 28  1  0
  7  8  1  0
  7 29  1  0
  8  9  2  0
  8 10  1  0
 10 11  1  0
 10 14  2  0
 11 12  1  0
 12 13  2  0
 12 30  1  0
 13 14  1  0
 13 31  1  0
 14 15  1  0
 15 32  1  0
 15 33  1  0
M  END

