
     RDKit          3D

 28 28  0  0  0  0  0  0  0  0999 V2000
    1.7511    1.0039    1.3910 O   0  0  0  0  0  0  0  0  0  0  0  0
    2.5276    0.4810    0.6124 C   0  0  0  0  0  0  0  0  0  0  0  0
    2.9702   -0.8237    0.7968 N   0  0  0  0  0  0  0  0  0  0  0  0
    2.2925   -1.7148    1.7263 C   0  0  1  0  0  0  0  0  0  0  0  0
    1.5847   -2.9089    1.0686 C   0  0  0  0  0  0  0  0  0  0  0  0
    2.4610   -3.7915    0.2035 C   0  0  1  0  0  0  0  0  0  0  0  0
    3.5529   -4.2280    0.8501 F   0  0  0  0  0  0  0  0  0  0  0  0
    1.7875   -4.8578   -0.2389 F   0  0  0  0  0  0  0  0  0  0  0  0
    2.9117   -3.1256   -0.8979 F   0  0  0  0  0  0  0  0  0  0  0  0
    3.1907   -2.1710    2.9016 C   0  0  0  0  0  0  0  0  0  0  0  0
    2.8609   -3.0499    3.6496 O   0  0  0  0  0  0  0  0  0  0  0  0
    4.3208   -1.4740    3.0538 O   0  0  0  0  0  0  0  0  0  0  0  0
    3.1018    1.2143   -0.5655 C   0  0  0  0  0  0  0  0  0  0  0  0
    3.0603    2.6178   -0.5309 C   0  0  0  0  0  0  0  0  0  0  0  0
    3.5674    3.3648   -1.5936 C   0  0  0  0  0  0  0  0  0  0  0  0
    4.1066    2.7177   -2.7111 C   0  0  0  0  0  0  0  0  0  0  0  0
    4.1321    1.3209   -2.7638 C   0  0  0  0  0  0  0  0  0  0  0  0
    3.6330    0.5710   -1.6962 C   0  0  0  0  0  0  0  0  0  0  0  0
    3.5111   -1.2486    0.0523 H   0  0  0  0  0  0  0  0  0  0  0  0
    1.5159   -1.0944    2.2044 H   0  0  0  0  0  0  0  0  0  0  0  0
    0.7512   -2.5629    0.4399 H   0  0  0  0  0  0  0  0  0  0  0  0
    1.1764   -3.5418    1.8689 H   0  0  0  0  0  0  0  0  0  0  0  0
    4.3728   -0.8251    2.3288 H   0  0  0  0  0  0  0  0  0  0  0  0
    2.6229    3.1021    0.3441 H   0  0  0  0  0  0  0  0  0  0  0  0
    3.5395    4.4565   -1.5535 H   0  0  0  0  0  0  0  0  0  0  0  0
    4.5008    3.3028   -3.5458 H   0  0  0  0  0  0  0  0  0  0  0  0
    4.5348    0.8114   -3.6425 H   0  0  0  0  0  0  0  0  0  0  0  0
    3.6323   -0.5193   -1.7768 H   0  0  0  0  0  0  0  0  0  0  0  0
  1  2  2  0
  2  3  1  0
  2 13  1  0
  3  4  1  0
  3 19  1  0
  4  5  1  0
  4 10  1  0
  4 20  1  1
  5  6  1  0
  5 21  1  0
  5 22  1  0
  6  7  1  1
  6  8  1  0
  6  9  1  0
 10 11  2  0
 10 12  1  0
 12 23  1  0
 13 14  2  0
 13 18  1  0
 14 15  1  0
 14 24  1  0
 15 16  2  0
 15 25  1  0
 16 17  1  0
 16 26  1  0
 17 18  2  0
 17 27  1  0
 18 28  1  0
M  END

