
     RDKit          3D

 47 49  0  0  0  0  0  0  0  0999 V2000
    2.6074    1.9682   -4.2367 C   0  0  0  0  0  0  0  0  0  0  0  0
    1.7938    1.1287   -5.2269 C   0  0  1  0  0  0  0  0  0  0  0  0
    2.6489    0.4832   -6.3221 C   0  0  0  0  0  0  0  0  0  0  0  0
    0.9595    0.1305   -4.5326 N   0  0  0  0  0  0  0  0  0  0  0  0
   -0.4158    0.0937   -4.5348 C   0  0  0  0  0  0  0  0  0  0  0  0
   -0.8663   -0.9090   -3.8331 N   0  0  0  0  0  0  0  0  0  0  0  0
    0.2235   -1.5791   -3.3377 N   0  0  0  0  0  0  0  0  0  0  0  0
    1.3049   -0.9540   -3.7577 C   0  0  0  0  0  0  0  0  0  0  0  0
    2.9679   -1.4261   -3.3943 S   0  0  0  0  0  0  0  0  0  0  0  0
    2.5550   -2.8668   -2.3477 C   0  0  0  0  0  0  0  0  0  0  0  0
    3.8679   -3.5045   -1.9009 C   0  0  0  0  0  0  0  0  0  0  0  0
    4.9377   -3.0302   -2.2514 O   0  0  0  0  0  0  0  0  0  0  0  0
    3.7725   -4.6148   -1.1005 N   0  0  0  0  0  0  0  0  0  0  0  0
    2.5333   -5.2383   -0.6495 C   0  0  0  0  0  0  0  0  0  0  0  0
    2.4920   -6.7159   -1.0564 C   0  0  0  0  0  0  0  0  0  0  0  0
    3.7496   -7.4566   -0.5886 C   0  0  0  0  0  0  0  0  0  0  0  0
    5.0319   -6.7424   -1.0515 C   0  0  2  0  0  0  0  0  0  0  0  0
    6.2711   -7.4762   -0.5161 C   0  0  0  0  0  0  0  0  0  0  0  0
    7.5363   -7.0075   -1.0569 N   0  0  0  0  0  0  0  0  0  0  0  0
    8.2815   -7.5252   -2.0649 C   0  0  0  0  0  0  0  0  0  0  0  0
    9.3557   -6.7876   -2.2669 N   0  0  0  0  0  0  0  0  0  0  0  0
    9.2215   -5.8036   -1.3389 C   0  0  0  0  0  0  0  0  0  0  0  0
    8.1378   -5.8963   -0.5827 N   0  0  0  0  0  0  0  0  0  0  0  0
    4.9937   -5.2622   -0.6298 C   0  0  0  0  0  0  0  0  0  0  0  0
    3.1493    2.7602   -4.7760 H   0  0  0  0  0  0  0  0  0  0  0  0
    3.3462    1.3558   -3.6978 H   0  0  0  0  0  0  0  0  0  0  0  0
    1.9496    2.4443   -3.4937 H   0  0  0  0  0  0  0  0  0  0  0  0
    1.0641    1.7943   -5.7156 H   0  0  0  0  0  0  0  0  0  0  0  0
    3.3934   -0.2088   -5.9002 H   0  0  0  0  0  0  0  0  0  0  0  0
    3.1874    1.2627   -6.8828 H   0  0  0  0  0  0  0  0  0  0  0  0
    2.0205   -0.0790   -7.0295 H   0  0  0  0  0  0  0  0  0  0  0  0
   -1.0217    0.8274   -5.0661 H   0  0  0  0  0  0  0  0  0  0  0  0
    1.9263   -3.5582   -2.9270 H   0  0  0  0  0  0  0  0  0  0  0  0
    1.9444   -2.5291   -1.4976 H   0  0  0  0  0  0  0  0  0  0  0  0
    1.6659   -4.7052   -1.0554 H   0  0  0  0  0  0  0  0  0  0  0  0
    2.4712   -5.1580    0.4537 H   0  0  0  0  0  0  0  0  0  0  0  0
    2.4105   -6.7801   -2.1554 H   0  0  0  0  0  0  0  0  0  0  0  0
    1.5877   -7.1874   -0.6378 H   0  0  0  0  0  0  0  0  0  0  0  0
    3.7364   -8.4977   -0.9534 H   0  0  0  0  0  0  0  0  0  0  0  0
    3.7500   -7.5132    0.5166 H   0  0  0  0  0  0  0  0  0  0  0  0
    5.0704   -6.7754   -2.1557 H   0  0  0  0  0  0  0  0  0  0  0  0
    6.1948   -8.5480   -0.7558 H   0  0  0  0  0  0  0  0  0  0  0  0
    6.3290   -7.3860    0.5802 H   0  0  0  0  0  0  0  0  0  0  0  0
    8.0013   -8.4309   -2.6037 H   0  0  0  0  0  0  0  0  0  0  0  0
    9.9416   -4.9956   -1.2104 H   0  0  0  0  0  0  0  0  0  0  0  0
    5.8493   -4.7043   -1.0251 H   0  0  0  0  0  0  0  0  0  0  0  0
    5.0367   -5.1979    0.4751 H   0  0  0  0  0  0  0  0  0  0  0  0
  1  2  1  0
  1 25  1  0
  1 26  1  0
  1 27  1  0
  2  3  1  0
  2  4  1  0
  2 28  1  6
  3 29  1  0
  3 30  1  0
  3 31  1  0
  4  5  1  0
  4  8  1  0
  5  6  2  0
  5 32  1  0
  6  7  1  0
  7  8  2  0
  8  9  1  0
  9 10  1  0
 10 11  1  0
 10 33  1  0
 10 34  1  0
 11 12  2  0
 11 13  1  0
 13 14  1  0
 13 24  1  0
 14 15  1  0
 14 35  1  0
 14 36  1  0
 15 16  1  0
 15 37  1  0
 15 38  1  0
 16 17  1  0
 16 39  1  0
 16 40  1  0
 17 18  1  0
 17 24  1  0
 17 41  1  6
 18 19  1  0
 18 42  1  0
 18 43  1  0
 19 20  1  0
 19 23  1  0
 20 21  2  0
 20 44  1  0
 21 22  1  0
 22 23  2  0
 22 45  1  0
 24 46  1  0
 24 47  1  0
M  END

