
     RDKit          3D

 70 73  0  0  0  0  0  0  0  0999 V2000
   27.3438  -20.3533    0.9870 C   0  0  0  0  0  0  0  0  0  0  0  0
   26.2596  -19.3175    1.0352 C   0  0  0  0  0  0  0  0  0  0  0  0
   26.2379  -18.1788    0.3312 C   0  0  0  0  0  0  0  0  0  0  0  0
   25.1498  -17.1437    0.3862 C   0  0  0  0  0  0  0  0  0  0  0  0
   25.6531  -15.7709    0.8938 C   0  0  0  0  0  0  0  0  0  0  0  0
   24.5800  -14.7130    0.9094 C   0  0  0  0  0  0  0  0  0  0  0  0
   23.7419  -14.5074    2.0112 C   0  0  0  0  0  0  0  0  0  0  0  0
   23.9270  -15.2797    3.0965 F   0  0  0  0  0  0  0  0  0  0  0  0
   22.7338  -13.5514    2.0466 C   0  0  0  0  0  0  0  0  0  0  0  0
   22.5088  -12.7373    0.9222 C   0  0  0  0  0  0  0  0  0  0  0  0
   21.4359  -11.7097    0.9290 C   0  0  0  0  0  0  0  0  0  0  0  0
   21.1671  -10.8880    2.0399 C   0  0  0  0  0  0  0  0  0  0  0  0
   21.9143  -11.0339    3.1464 F   0  0  0  0  0  0  0  0  0  0  0  0
   20.1726   -9.9196    2.0600 C   0  0  0  0  0  0  0  0  0  0  0  0
   19.3542   -9.7072    0.9371 C   0  0  0  0  0  0  0  0  0  0  0  0
   18.2254   -8.6747    1.0112 C   0  0  1  0  0  0  0  0  0  0  0  0
   18.7060   -7.2862    1.5041 C   0  0  0  0  0  0  0  0  0  0  0  0
   19.4654   -6.5053    0.4236 C   0  0  0  0  0  0  0  0  0  0  0  0
   18.6368   -6.2957   -0.8620 C   0  0  2  0  0  0  0  0  0  0  0  0
   17.4808   -5.2858   -0.7116 C   0  0  0  0  0  0  0  0  0  0  0  0
   17.8816   -3.8279   -0.3915 C   0  0  2  0  0  0  0  0  0  0  0  0
   18.4253   -3.8287    0.5684 H   0  0  0  0  0  0  0  0  0  0  0  0
   16.6279   -2.9556   -0.1952 C   0  0  0  0  0  0  0  0  0  0  0  0
   18.8203   -3.2206   -1.4278 C   0  0  0  0  0  0  0  0  0  0  0  0
   20.0746   -2.7158   -1.0512 C   0  0  0  0  0  0  0  0  0  0  0  0
   20.9364   -2.1374   -1.9891 C   0  0  0  0  0  0  0  0  0  0  0  0
   20.5567   -2.0523   -3.3306 C   0  0  0  0  0  0  0  0  0  0  0  0
   19.3095   -2.5494   -3.7232 C   0  0  0  0  0  0  0  0  0  0  0  0
   18.4531   -3.1255   -2.7818 C   0  0  0  0  0  0  0  0  0  0  0  0
   18.1411   -7.6688   -1.3653 C   0  0  0  0  0  0  0  0  0  0  0  0
   17.4125   -8.4903   -0.2877 C   0  0  0  0  0  0  0  0  0  0  0  0
   19.5855  -10.5148   -0.1847 C   0  0  0  0  0  0  0  0  0  0  0  0
   20.5962  -11.4721   -0.1711 C   0  0  0  0  0  0  0  0  0  0  0  0
   20.7569  -12.2131   -1.2800 F   0  0  0  0  0  0  0  0  0  0  0  0
   23.3228  -12.9193   -0.2101 C   0  0  0  0  0  0  0  0  0  0  0  0
   24.3179  -13.8891   -0.1910 C   0  0  0  0  0  0  0  0  0  0  0  0
   25.0811  -14.0419   -1.2883 F   0  0  0  0  0  0  0  0  0  0  0  0
   27.7854  -20.5176    1.9859 H   0  0  0  0  0  0  0  0  0  0  0  0
   28.1543  -20.0655    0.2994 H   0  0  0  0  0  0  0  0  0  0  0  0
   26.9492  -21.3312    0.6584 H   0  0  0  0  0  0  0  0  0  0  0  0
   25.4168  -19.5300    1.7077 H   0  0  0  0  0  0  0  0  0  0  0  0
   27.0793  -17.9578   -0.3413 H   0  0  0  0  0  0  0  0  0  0  0  0
   24.3289  -17.4917    1.0346 H   0  0  0  0  0  0  0  0  0  0  0  0
   24.7213  -17.0001   -0.6225 H   0  0  0  0  0  0  0  0  0  0  0  0
   26.4806  -15.4301    0.2523 H   0  0  0  0  0  0  0  0  0  0  0  0
   26.0559  -15.8935    1.9104 H   0  0  0  0  0  0  0  0  0  0  0  0
   22.1347  -13.4576    2.9510 H   0  0  0  0  0  0  0  0  0  0  0  0
   20.0503   -9.3427    2.9778 H   0  0  0  0  0  0  0  0  0  0  0  0
   17.5318   -9.0667    1.7777 H   0  0  0  0  0  0  0  0  0  0  0  0
   19.3326   -7.3879    2.4037 H   0  0  0  0  0  0  0  0  0  0  0  0
   17.8183   -6.7148    1.8251 H   0  0  0  0  0  0  0  0  0  0  0  0
   20.3843   -7.0584    0.1608 H   0  0  0  0  0  0  0  0  0  0  0  0
   19.8051   -5.5396    0.8310 H   0  0  0  0  0  0  0  0  0  0  0  0
   19.3142   -5.8901   -1.6323 H   0  0  0  0  0  0  0  0  0  0  0  0
   16.7759   -5.6184    0.0698 H   0  0  0  0  0  0  0  0  0  0  0  0
   16.8965   -5.2917   -1.6493 H   0  0  0  0  0  0  0  0  0  0  0  0
   16.8991   -1.9224    0.0717 H   0  0  0  0  0  0  0  0  0  0  0  0
   15.9895   -3.3594    0.6078 H   0  0  0  0  0  0  0  0  0  0  0  0
   16.0205   -2.9137   -1.1142 H   0  0  0  0  0  0  0  0  0  0  0  0
   20.3821   -2.7755   -0.0028 H   0  0  0  0  0  0  0  0  0  0  0  0
   21.9082   -1.7526   -1.6684 H   0  0  0  0  0  0  0  0  0  0  0  0
   21.2273   -1.6018   -4.0668 H   0  0  0  0  0  0  0  0  0  0  0  0
   19.0011   -2.4873   -4.7703 H   0  0  0  0  0  0  0  0  0  0  0  0
   17.4818   -3.5059   -3.1100 H   0  0  0  0  0  0  0  0  0  0  0  0
   19.0129   -8.2343   -1.7343 H   0  0  0  0  0  0  0  0  0  0  0  0
   17.4759   -7.5337   -2.2354 H   0  0  0  0  0  0  0  0  0  0  0  0
   17.1041   -9.4667   -0.6953 H   0  0  0  0  0  0  0  0  0  0  0  0
   16.4726   -7.9801   -0.0177 H   0  0  0  0  0  0  0  0  0  0  0  0
   18.9901  -10.4361   -1.0929 H   0  0  0  0  0  0  0  0  0  0  0  0
   23.1948  -12.3199   -1.1101 H   0  0  0  0  0  0  0  0  0  0  0  0
  1  2  1  0
  1 38  1  0
  1 39  1  0
  1 40  1  0
  2  3  2  0
  2 41  1  0
  3  4  1  0
  3 42  1  0
  4  5  1  0
  4 43  1  0
  4 44  1  0
  5  6  1  0
  5 45  1  0
  5 46  1  0
  6  7  2  0
  6 36  1  0
  7  8  1  0
  7  9  1  0
  9 10  2  0
  9 47  1  0
 10 11  1  0
 10 35  1  0
 11 12  2  0
 11 33  1  0
 12 13  1  0
 12 14  1  0
 14 15  2  0
 14 48  1  0
 15 16  1  0
 15 32  1  0
 16 17  1  0
 16 31  1  0
 16 49  1  1
 17 18  1  0
 17 50  1  0
 17 51  1  0
 18 19  1  0
 18 52  1  0
 18 53  1  0
 19 20  1  0
 19 30  1  0
 19 54  1  6
 20 21  1  0
 20 55  1  0
 20 56  1  0
 21 22  1  1
 21 23  1  0
 21 24  1  0
 23 57  1  0
 23 58  1  0
 23 59  1  0
 24 25  2  0
 24 29  1  0
 25 26  1  0
 25 60  1  0
 26 27  2  0
 26 61  1  0
 27 28  1  0
 27 62  1  0
 28 29  2  0
 28 63  1  0
 29 64  1  0
 30 31  1  0
 30 65  1  0
 30 66  1  0
 31 67  1  0
 31 68  1  0
 32 33  2  0
 32 69  1  0
 33 34  1  0
 35 36  2  0
 35 70  1  0
 36 37  1  0
M  END

