
     RDKit          3D

 75 82  0  0  0  0  0  0  0  0999 V2000
    4.0403   -0.3791    1.8296 C   0  0  0  0  0  0  0  0  0  0  0  0
    5.5321   -0.4514    1.7017 C   0  0  0  0  0  0  0  0  0  0  0  0
    6.2820    0.0255    0.6142 C   0  0  0  0  0  0  0  0  0  0  0  0
    5.7753    0.7212   -0.5908 C   0  0  0  0  0  0  0  0  0  0  0  0
    4.9859    1.8824   -0.4799 C   0  0  0  0  0  0  0  0  0  0  0  0
    4.5064    2.5381   -1.6165 C   0  0  0  0  0  0  0  0  0  0  0  0
    4.8108    2.0516   -2.8913 C   0  0  0  0  0  0  0  0  0  0  0  0
    5.5969    0.9026   -3.0196 C   0  0  0  0  0  0  0  0  0  0  0  0
    6.0714    0.2442   -1.8826 C   0  0  0  0  0  0  0  0  0  0  0  0
    7.6500   -0.2802    0.8785 C   0  0  0  0  0  0  0  0  0  0  0  0
    8.8476    0.0248    0.0408 C   0  0  0  0  0  0  0  0  0  0  0  0
    7.7455   -0.9079    2.0641 N   0  0  0  0  0  0  0  0  0  0  0  0
    6.4707   -1.0380    2.6132 C   0  0  0  0  0  0  0  0  0  0  0  0
    6.2934   -1.6556    3.8668 C   0  0  0  0  0  0  0  0  0  0  0  0
    4.9295   -1.7970    4.4244 C   0  0  0  0  0  0  0  0  0  0  0  0
    4.1092   -0.9532    5.1804 C   0  0  0  0  0  0  0  0  0  0  0  0
    4.4377    0.3955    5.6688 C   0  0  0  0  0  0  0  0  0  0  0  0
    3.4876    1.1428    6.3890 C   0  0  0  0  0  0  0  0  0  0  0  0
    3.8412    2.4145    6.8353 C   0  0  0  0  0  0  0  0  0  0  0  0
    5.1211    2.9006    6.5533 C   0  0  0  0  0  0  0  0  0  0  0  0
    5.9948    2.0801    5.8310 C   0  0  0  0  0  0  0  0  0  0  0  0
    5.6670    0.8632    5.4005 N   0  0  0  0  0  0  0  0  0  0  0  0
    2.9088   -1.5375    5.4493 N   0  0  0  0  0  0  0  0  0  0  0  0
    2.9448   -2.7341    4.8837 C   0  0  0  0  0  0  0  0  0  0  0  0
    1.9792   -3.7714    4.8376 C   0  0  0  0  0  0  0  0  0  0  0  0
    2.2691   -4.9388    4.1696 C   0  0  0  0  0  0  0  0  0  0  0  0
    3.5313   -5.1056    3.5260 C   0  0  0  0  0  0  0  0  0  0  0  0
    4.4693   -4.1085    3.5653 C   0  0  0  0  0  0  0  0  0  0  0  0
    4.1805   -2.9432    4.2365 N   0  0  0  0  0  0  0  0  0  0  0  0
    7.3894   -2.1932    4.5714 C   0  0  0  0  0  0  0  0  0  0  0  0
    7.4710   -2.8463    5.8460 C   0  0  0  0  0  0  0  0  0  0  0  0
    6.3626   -3.0994    6.8226 C   0  0  0  0  0  0  0  0  0  0  0  0
    8.8267   -3.1547    6.0465 C   0  0  0  0  0  0  0  0  0  0  0  0
    9.4304   -3.8374    7.2137 C   0  0  0  0  0  0  0  0  0  0  0  0
    8.9687   -5.0991    7.6361 C   0  0  0  0  0  0  0  0  0  0  0  0
    9.5372   -5.7421    8.7384 C   0  0  0  0  0  0  0  0  0  0  0  0
   10.5859   -5.1408    9.4406 C   0  0  0  0  0  0  0  0  0  0  0  0
   11.0592   -3.8902    9.0324 C   0  0  0  0  0  0  0  0  0  0  0  0
   10.4863   -3.2452    7.9337 C   0  0  0  0  0  0  0  0  0  0  0  0
    9.5397   -2.6828    4.9050 C   0  0  0  0  0  0  0  0  0  0  0  0
   11.0017   -2.7804    4.6181 C   0  0  0  0  0  0  0  0  0  0  0  0
    8.6763   -2.1182    4.0418 N   0  0  0  0  0  0  0  0  0  0  0  0
    9.0662   -1.4551    2.6859 B   0  0  1  0  0  0  0  0  0  0  0  0
    9.6270   -2.4023    1.8291 F   0  0  0  0  0  0  0  0  0  0  0  0
    9.9662   -0.4167    2.9118 F   0  0  0  0  0  0  0  0  0  0  0  0
    3.7280    0.3328    2.6104 H   0  0  0  0  0  0  0  0  0  0  0  0
    3.5999   -1.3519    2.0929 H   0  0  0  0  0  0  0  0  0  0  0  0
    3.5908   -0.0545    0.8812 H   0  0  0  0  0  0  0  0  0  0  0  0
    4.7620    2.2827    0.5118 H   0  0  0  0  0  0  0  0  0  0  0  0
    3.8982    3.4397   -1.5051 H   0  0  0  0  0  0  0  0  0  0  0  0
    4.4381    2.5661   -3.7807 H   0  0  0  0  0  0  0  0  0  0  0  0
    5.8374    0.5112   -4.0117 H   0  0  0  0  0  0  0  0  0  0  0  0
    6.6688   -0.6641   -1.9934 H   0  0  0  0  0  0  0  0  0  0  0  0
    8.5956    0.7285   -0.7623 H   0  0  0  0  0  0  0  0  0  0  0  0
    9.2528   -0.8973   -0.4079 H   0  0  0  0  0  0  0  0  0  0  0  0
    9.6485    0.4465    0.6651 H   0  0  0  0  0  0  0  0  0  0  0  0
    2.5053    0.7092    6.5792 H   0  0  0  0  0  0  0  0  0  0  0  0
    3.1265    3.0210    7.3978 H   0  0  0  0  0  0  0  0  0  0  0  0
    5.4403    3.8913    6.8845 H   0  0  0  0  0  0  0  0  0  0  0  0
    7.0078    2.4245    5.5913 H   0  0  0  0  0  0  0  0  0  0  0  0
    1.0263   -3.6032    5.3408 H   0  0  0  0  0  0  0  0  0  0  0  0
    1.5333   -5.7446    4.1271 H   0  0  0  0  0  0  0  0  0  0  0  0
    3.7652   -6.0283    2.9931 H   0  0  0  0  0  0  0  0  0  0  0  0
    5.4511   -4.1701    3.0951 H   0  0  0  0  0  0  0  0  0  0  0  0
    5.7929   -2.1822    7.0303 H   0  0  0  0  0  0  0  0  0  0  0  0
    6.7666   -3.4724    7.7734 H   0  0  0  0  0  0  0  0  0  0  0  0
    5.6413   -3.8476    6.4544 H   0  0  0  0  0  0  0  0  0  0  0  0
    8.1643   -5.5867    7.0801 H   0  0  0  0  0  0  0  0  0  0  0  0
    9.1638   -6.7227    9.0453 H   0  0  0  0  0  0  0  0  0  0  0  0
   11.0327   -5.6448   10.3014 H   0  0  0  0  0  0  0  0  0  0  0  0
   11.8756   -3.4089    9.5774 H   0  0  0  0  0  0  0  0  0  0  0  0
   10.8497   -2.2589    7.6352 H   0  0  0  0  0  0  0  0  0  0  0  0
   11.4955   -3.4600    5.3238 H   0  0  0  0  0  0  0  0  0  0  0  0
   11.4782   -1.7885    4.6860 H   0  0  0  0  0  0  0  0  0  0  0  0
   11.1626   -3.1347    3.5894 H   0  0  0  0  0  0  0  0  0  0  0  0
  1  2  1  0
  1 46  1  0
  1 47  1  0
  1 48  1  0
  2  3  1  0
  2 13  2  0
  3  4  1  0
  3 10  2  0
  4  5  2  0
  4  9  1  0
  5  6  1  0
  5 49  1  0
  6  7  2  0
  6 50  1  0
  7  8  1  0
  7 51  1  0
  8  9  2  0
  8 52  1  0
  9 53  1  0
 10 11  1  0
 10 12  1  0
 11 54  1  0
 11 55  1  0
 11 56  1  0
 12 13  1  0
 12 43  1  0
 13 14  1  0
 14 15  1  0
 14 30  2  0
 15 16  2  0
 15 29  1  0
 16 17  1  0
 16 23  1  0
 17 18  2  0
 17 22  1  0
 18 19  1  0
 18 57  1  0
 19 20  2  0
 19 58  1  0
 20 21  1  0
 20 59  1  0
 21 22  2  0
 21 60  1  0
 23 24  2  0
 24 25  1  0
 24 29  1  0
 25 26  2  0
 25 61  1  0
 26 27  1  0
 26 62  1  0
 27 28  2  0
 27 63  1  0
 28 29  1  0
 28 64  1  0
 30 31  1  0
 30 42  1  0
 31 32  1  0
 31 33  2  0
 32 65  1  0
 32 66  1  0
 32 67  1  0
 33 34  1  0
 33 40  1  0
 34 35  2  0
 34 39  1  0
 35 36  1  0
 35 68  1  0
 36 37  2  0
 36 69  1  0
 37 38  1  0
 37 70  1  0
 38 39  2  0
 38 71  1  0
 39 72  1  0
 40 41  1  0
 40 42  2  0
 41 73  1  0
 41 74  1  0
 41 75  1  0
 42 43  1  0
 43 44  1  6
 43 45  1  0
M  CHG  2  42   1  43  -1
M  END

