
     RDKit          3D

 50 51  0  0  0  0  0  0  0  0999 V2000
    0.9633   -1.2483    0.8405 C   0  0  0  0  0  0  0  0  0  0  0  0
    2.1775   -0.6072    0.1900 C   0  0  0  0  0  0  0  0  0  0  0  0
    3.2320   -1.5532    0.1089 O   0  0  0  0  0  0  0  0  0  0  0  0
    4.8701   -1.2945    0.0115 Si  0  0  1  0  0  4  0  0  0  0  0  0
    5.4208   -0.5161   -1.6081 C   0  0  0  0  0  0  0  0  0  0  0  0
    4.8370    0.8368   -1.9494 C   0  0  0  0  0  0  0  0  0  0  0  0
    5.1623    1.9749   -1.1879 C   0  0  0  0  0  0  0  0  0  0  0  0
    4.6357    3.2239   -1.5222 C   0  0  0  0  0  0  0  0  0  0  0  0
    3.7683    3.3688   -2.6077 C   0  0  0  0  0  0  0  0  0  0  0  0
    3.4373    2.2413   -3.3638 C   0  0  0  0  0  0  0  0  0  0  0  0
    2.6471    2.4392   -4.4733 O   0  0  0  0  0  0  0  0  0  0  0  0
    1.6712    1.5465   -4.8394 C   0  0  0  0  0  0  0  0  0  0  0  0
    0.8319    0.9221   -3.9063 C   0  0  0  0  0  0  0  0  0  0  0  0
   -0.1861    0.0769   -4.3555 C   0  0  0  0  0  0  0  0  0  0  0  0
   -0.3788   -0.1440   -5.7231 C   0  0  0  0  0  0  0  0  0  0  0  0
    0.4579    0.4914   -6.6464 C   0  0  0  0  0  0  0  0  0  0  0  0
    1.4838    1.3328   -6.2103 C   0  0  0  0  0  0  0  0  0  0  0  0
    3.9679    0.9851   -3.0417 C   0  0  0  0  0  0  0  0  0  0  0  0
    5.4241   -0.3072    1.2219 O   0  0  0  0  0  0  0  0  0  0  0  0
    5.4325   -0.6071    2.6119 C   0  0  0  0  0  0  0  0  0  0  0  0
    6.2426    0.4413    3.3534 C   0  0  0  0  0  0  0  0  0  0  0  0
    5.5648   -2.7834    0.2149 O   0  0  0  0  0  0  0  0  0  0  0  0
    5.1009   -4.0491   -0.2273 C   0  0  0  0  0  0  0  0  0  0  0  0
    5.7374   -5.1476    0.6066 C   0  0  0  0  0  0  0  0  0  0  0  0
    0.1271   -0.5323    0.8909 H   0  0  0  0  0  0  0  0  0  0  0  0
    1.1988   -1.5812    1.8636 H   0  0  0  0  0  0  0  0  0  0  0  0
    0.6347   -2.1273    0.2638 H   0  0  0  0  0  0  0  0  0  0  0  0
    2.4978    0.2793    0.7681 H   0  0  0  0  0  0  0  0  0  0  0  0
    1.9221   -0.2521   -0.8252 H   0  0  0  0  0  0  0  0  0  0  0  0
    5.2000   -1.2414   -2.4088 H   0  0  0  0  0  0  0  0  0  0  0  0
    6.5216   -0.4520   -1.5446 H   0  0  0  0  0  0  0  0  0  0  0  0
    5.8265    1.8702   -0.3276 H   0  0  0  0  0  0  0  0  0  0  0  0
    4.9012    4.1009   -0.9259 H   0  0  0  0  0  0  0  0  0  0  0  0
    3.3485    4.3370   -2.8867 H   0  0  0  0  0  0  0  0  0  0  0  0
    0.9734    1.1064   -2.8397 H   0  0  0  0  0  0  0  0  0  0  0  0
   -0.8407   -0.4070   -3.6257 H   0  0  0  0  0  0  0  0  0  0  0  0
   -1.1782   -0.8046   -6.0668 H   0  0  0  0  0  0  0  0  0  0  0  0
    0.3153    0.3287   -7.7179 H   0  0  0  0  0  0  0  0  0  0  0  0
    2.1481    1.8375   -6.9145 H   0  0  0  0  0  0  0  0  0  0  0  0
    3.7129    0.1212   -3.6595 H   0  0  0  0  0  0  0  0  0  0  0  0
    5.8618   -1.6122    2.7742 H   0  0  0  0  0  0  0  0  0  0  0  0
    4.3957   -0.6309    2.9978 H   0  0  0  0  0  0  0  0  0  0  0  0
    7.2811    0.4583    2.9874 H   0  0  0  0  0  0  0  0  0  0  0  0
    6.2577    0.2255    4.4339 H   0  0  0  0  0  0  0  0  0  0  0  0
    5.8108    1.4438    3.2057 H   0  0  0  0  0  0  0  0  0  0  0  0
    5.3631   -4.1884   -1.2941 H   0  0  0  0  0  0  0  0  0  0  0  0
    3.9998   -4.0964   -0.1536 H   0  0  0  0  0  0  0  0  0  0  0  0
    6.8355   -5.0995    0.5378 H   0  0  0  0  0  0  0  0  0  0  0  0
    5.4092   -6.1394    0.2558 H   0  0  0  0  0  0  0  0  0  0  0  0
    5.4567   -5.0431    1.6665 H   0  0  0  0  0  0  0  0  0  0  0  0
  1  2  1  0
  1 25  1  0
  1 26  1  0
  1 27  1  0
  2  3  1  0
  2 28  1  0
  2 29  1  0
  4  3  1  6
  4  5  1  0
  4 19  1  0
  4 22  1  0
  5  6  1  0
  5 30  1  0
  5 31  1  0
  6  7  2  0
  6 18  1  0
  7  8  1  0
  7 32  1  0
  8  9  2  0
  8 33  1  0
  9 10  1  0
  9 34  1  0
 10 11  1  0
 10 18  2  0
 11 12  1  0
 12 13  2  0
 12 17  1  0
 13 14  1  0
 13 35  1  0
 14 15  2  0
 14 36  1  0
 15 16  1  0
 15 37  1  0
 16 17  2  0
 16 38  1  0
 17 39  1  0
 18 40  1  0
 19 20  1  0
 20 21  1  0
 20 41  1  0
 20 42  1  0
 21 43  1  0
 21 44  1  0
 21 45  1  0
 22 23  1  0
 23 24  1  0
 23 46  1  0
 23 47  1  0
 24 48  1  0
 24 49  1  0
 24 50  1  0
M  END

