
     RDKit          3D

 45 48  0  0  0  0  0  0  0  0999 V2000
    1.8189    0.9372    2.6184 C   0  0  0  0  0  0  0  0  0  0  0  0
    2.5370    0.4161    1.4749 N   0  0  0  0  0  0  0  0  0  0  0  0
    2.1495    0.4028    0.1710 C   0  0  0  0  0  0  0  0  0  0  0  0
    3.1732   -0.1874   -0.5495 C   0  0  0  0  0  0  0  0  0  0  0  0
    4.1551   -0.4997    0.4238 C   0  0  0  0  0  0  0  0  0  0  0  0
    5.4935   -1.1729    0.2268 C   0  0  1  0  0  0  0  0  0  0  0  0
    6.3099   -0.9748    1.4170 N   0  0  0  0  0  0  0  0  0  0  0  0
    7.6729   -0.8424    1.3077 C   0  0  0  0  0  0  0  0  0  0  0  0
    8.2704   -0.9513    0.2405 O   0  0  0  0  0  0  0  0  0  0  0  0
    8.3416   -0.5892    2.4837 N   0  0  0  0  0  0  0  0  0  0  0  0
    9.7999   -0.4764    2.4760 C   0  0  0  0  0  0  0  0  0  0  0  0
   10.1290   -0.3439    3.9407 C   0  0  0  0  0  0  0  0  0  0  0  0
   11.3731   -0.1942    4.5549 C   0  0  0  0  0  0  0  0  0  0  0  0
   11.4286   -0.0914    5.9497 C   0  0  0  0  0  0  0  0  0  0  0  0
   10.2625   -0.1362    6.7222 C   0  0  0  0  0  0  0  0  0  0  0  0
    9.0235   -0.2862    6.0907 C   0  0  0  0  0  0  0  0  0  0  0  0
    7.5522   -0.3428    7.0394 Cl  0  0  0  0  0  0  0  0  0  0  0  0
    8.9548   -0.3903    4.7022 C   0  0  0  0  0  0  0  0  0  0  0  0
    7.7495   -0.5562    3.8176 C   0  0  0  0  0  0  0  0  0  0  0  0
    5.3642   -2.6558   -0.1423 C   0  0  0  0  0  0  0  0  0  0  0  0
    6.2444   -3.2193   -1.0775 C   0  0  0  0  0  0  0  0  0  0  0  0
    6.1761   -4.5772   -1.4009 C   0  0  0  0  0  0  0  0  0  0  0  0
    5.2198   -5.3708   -0.7734 C   0  0  0  0  0  0  0  0  0  0  0  0
    5.1451   -6.6766   -1.0802 F   0  0  0  0  0  0  0  0  0  0  0  0
    4.3366   -4.8435    0.1669 C   0  0  0  0  0  0  0  0  0  0  0  0
    4.4160   -3.4842    0.4765 C   0  0  0  0  0  0  0  0  0  0  0  0
    3.7518   -0.1309    1.6394 N   0  0  0  0  0  0  0  0  0  0  0  0
    0.8538    1.3398    2.2837 H   0  0  0  0  0  0  0  0  0  0  0  0
    2.3965    1.7405    3.1011 H   0  0  0  0  0  0  0  0  0  0  0  0
    1.6402    0.1398    3.3558 H   0  0  0  0  0  0  0  0  0  0  0  0
    1.1912    0.8122   -0.1427 H   0  0  0  0  0  0  0  0  0  0  0  0
    3.2106   -0.3695   -1.6206 H   0  0  0  0  0  0  0  0  0  0  0  0
    6.0137   -0.6813   -0.6101 H   0  0  0  0  0  0  0  0  0  0  0  0
    5.8081   -0.6925    2.2519 H   0  0  0  0  0  0  0  0  0  0  0  0
   10.1372    0.3955    1.8858 H   0  0  0  0  0  0  0  0  0  0  0  0
   10.2684   -1.3630    2.0110 H   0  0  0  0  0  0  0  0  0  0  0  0
   12.2898   -0.1578    3.9611 H   0  0  0  0  0  0  0  0  0  0  0  0
   12.3935    0.0257    6.4491 H   0  0  0  0  0  0  0  0  0  0  0  0
   10.3062   -0.0559    7.8095 H   0  0  0  0  0  0  0  0  0  0  0  0
    7.0362    0.2825    3.9475 H   0  0  0  0  0  0  0  0  0  0  0  0
    7.1930   -1.4851    4.0516 H   0  0  0  0  0  0  0  0  0  0  0  0
    7.0096   -2.5884   -1.5350 H   0  0  0  0  0  0  0  0  0  0  0  0
    6.8552   -5.0285   -2.1272 H   0  0  0  0  0  0  0  0  0  0  0  0
    3.6014   -5.4989    0.6383 H   0  0  0  0  0  0  0  0  0  0  0  0
    3.7268   -3.0613    1.2117 H   0  0  0  0  0  0  0  0  0  0  0  0
  1  2  1  0
  1 28  1  0
  1 29  1  0
  1 30  1  0
  2  3  1  0
  2 27  1  0
  3  4  2  0
  3 31  1  0
  4  5  1  0
  4 32  1  0
  5  6  1  0
  5 27  2  0
  6  7  1  0
  6 20  1  0
  6 33  1  6
  7  8  1  0
  7 34  1  0
  8  9  2  0
  8 10  1  0
 10 11  1  0
 10 19  1  0
 11 12  1  0
 11 35  1  0
 11 36  1  0
 12 13  1  0
 12 18  2  0
 13 14  2  0
 13 37  1  0
 14 15  1  0
 14 38  1  0
 15 16  2  0
 15 39  1  0
 16 17  1  0
 16 18  1  0
 18 19  1  0
 19 40  1  0
 19 41  1  0
 20 21  2  0
 20 26  1  0
 21 22  1  0
 21 42  1  0
 22 23  2  0
 22 43  1  0
 23 24  1  0
 23 25  1  0
 25 26  2  0
 25 44  1  0
 26 45  1  0
M  END

