
     RDKit          3D

 28 29  0  0  0  0  0  0  0  0999 V2000
    3.6548    0.4859   -1.0901 N   0  0  0  0  0  0  0  0  0  0  0  0
    2.5986    0.0493   -0.1735 C   0  0  0  0  0  0  0  0  0  0  0  0
    2.9841    0.3121    1.2662 C   0  0  0  0  0  0  0  0  0  0  0  0
    2.6610    1.5406    1.8708 C   0  0  0  0  0  0  0  0  0  0  0  0
    3.0088    1.8429    3.1829 C   0  0  0  0  0  0  0  0  0  0  0  0
    3.7158    0.9014    3.9392 C   0  0  0  0  0  0  0  0  0  0  0  0
    4.0562    1.2734    5.2177 O   0  0  0  0  0  0  0  0  0  0  0  0
    4.5078    0.3549    6.1296 C   0  0  0  0  0  0  0  0  0  0  0  0
    5.8006    0.4624    6.6473 C   0  0  0  0  0  0  0  0  0  0  0  0
    6.2485   -0.4101    7.6430 C   0  0  0  0  0  0  0  0  0  0  0  0
    5.3846   -1.3993    8.1068 C   0  0  0  0  0  0  0  0  0  0  0  0
    5.8016   -2.2444    9.0570 F   0  0  0  0  0  0  0  0  0  0  0  0
    4.0886   -1.5369    7.6097 C   0  0  0  0  0  0  0  0  0  0  0  0
    3.6627   -0.6503    6.6264 C   0  0  0  0  0  0  0  0  0  0  0  0
    2.4246   -0.7530    6.1370 F   0  0  0  0  0  0  0  0  0  0  0  0
    4.0758   -0.3247    3.3757 C   0  0  0  0  0  0  0  0  0  0  0  0
    3.7080   -0.5949    2.0536 C   0  0  0  0  0  0  0  0  0  0  0  0
    4.2584   -2.2896    1.3361 Br  0  0  0  0  0  0  0  0  0  0  0  0
    3.3672    0.3062   -2.0534 H   0  0  0  0  0  0  0  0  0  0  0  0
    4.4919   -0.0796   -0.9386 H   0  0  0  0  0  0  0  0  0  0  0  0
    2.3178   -1.0181   -0.2752 H   0  0  0  0  0  0  0  0  0  0  0  0
    1.6920    0.6346   -0.3989 H   0  0  0  0  0  0  0  0  0  0  0  0
    2.1134    2.2802    1.2808 H   0  0  0  0  0  0  0  0  0  0  0  0
    2.7433    2.7977    3.6398 H   0  0  0  0  0  0  0  0  0  0  0  0
    6.4470    1.2522    6.2602 H   0  0  0  0  0  0  0  0  0  0  0  0
    7.2541   -0.3340    8.0593 H   0  0  0  0  0  0  0  0  0  0  0  0
    3.4190   -2.3121    7.9842 H   0  0  0  0  0  0  0  0  0  0  0  0
    4.6425   -1.0593    3.9469 H   0  0  0  0  0  0  0  0  0  0  0  0
  1  2  1  0
  1 19  1  0
  1 20  1  0
  2  3  1  0
  2 21  1  0
  2 22  1  0
  3  4  2  0
  3 17  1  0
  4  5  1  0
  4 23  1  0
  5  6  2  0
  5 24  1  0
  6  7  1  0
  6 16  1  0
  7  8  1  0
  8  9  2  0
  8 14  1  0
  9 10  1  0
  9 25  1  0
 10 11  2  0
 10 26  1  0
 11 12  1  0
 11 13  1  0
 13 14  2  0
 13 27  1  0
 14 15  1  0
 16 17  2  0
 16 28  1  0
 17 18  1  0
M  END

