
     RDKit          3D

 29 30  0  0  0  0  0  0  0  0999 V2000
    0.6953    0.3789    0.2708 C   0  0  0  0  0  0  0  0  0  0  0  0
    1.8782   -0.3368    0.5610 O   0  0  0  0  0  0  0  0  0  0  0  0
    2.7348    0.1215    1.5064 C   0  0  0  0  0  0  0  0  0  0  0  0
    2.5417    1.2940    2.2382 C   0  0  0  0  0  0  0  0  0  0  0  0
    3.4988    1.6615    3.1859 C   0  0  0  0  0  0  0  0  0  0  0  0
    3.3015    2.7907    3.8833 F   0  0  0  0  0  0  0  0  0  0  0  0
    4.6317    0.8963    3.4188 C   0  0  0  0  0  0  0  0  0  0  0  0
    4.8235   -0.2794    2.6836 C   0  0  0  0  0  0  0  0  0  0  0  0
    3.8885   -0.6865    1.7227 C   0  0  0  0  0  0  0  0  0  0  0  0
    3.9597   -1.8387    0.9211 N   0  0  0  0  0  0  0  0  0  0  0  0
    4.8853   -2.8196    0.8459 C   0  0  0  0  0  0  0  0  0  0  0  0
    5.9696   -2.7652    1.6462 N   0  0  0  0  0  0  0  0  0  0  0  0
    6.8876   -3.6958    1.5990 C   0  0  0  0  0  0  0  0  0  0  0  0
    8.2467   -3.5157    2.6853 Cl  0  0  0  0  0  0  0  0  0  0  0  0
    6.8572   -4.8142    0.7475 C   0  0  0  0  0  0  0  0  0  0  0  0
    5.7586   -4.9070   -0.0919 C   0  0  0  0  0  0  0  0  0  0  0  0
    4.7595   -3.9280   -0.0655 C   0  0  0  0  0  0  0  0  0  0  0  0
    3.6403   -4.0945   -0.9753 N   0  0  0  0  0  0  0  0  0  0  0  0
    2.7458   -3.2422   -0.9682 O   0  0  0  0  0  0  0  0  0  0  0  0
    3.6273   -5.0694   -1.7107 O   0  0  0  0  0  0  0  0  0  0  0  0
    0.1738   -0.1889   -0.5103 H   0  0  0  0  0  0  0  0  0  0  0  0
    0.9183    1.3927   -0.1052 H   0  0  0  0  0  0  0  0  0  0  0  0
    0.0434    0.4588    1.1583 H   0  0  0  0  0  0  0  0  0  0  0  0
    1.6703    1.9308    2.0941 H   0  0  0  0  0  0  0  0  0  0  0  0
    5.3572    1.2162    4.1681 H   0  0  0  0  0  0  0  0  0  0  0  0
    5.7044   -0.8921    2.8522 H   0  0  0  0  0  0  0  0  0  0  0  0
    3.1767   -1.9665    0.2738 H   0  0  0  0  0  0  0  0  0  0  0  0
    7.6535   -5.5566    0.7545 H   0  0  0  0  0  0  0  0  0  0  0  0
    5.6396   -5.7351   -0.7906 H   0  0  0  0  0  0  0  0  0  0  0  0
  1  2  1  0
  1 21  1  0
  1 22  1  0
  1 23  1  0
  2  3  1  0
  3  4  2  0
  3  9  1  0
  4  5  1  0
  4 24  1  0
  5  6  1  0
  5  7  2  0
  7  8  1  0
  7 25  1  0
  8  9  2  0
  8 26  1  0
  9 10  1  0
 10 11  1  0
 10 27  1  0
 11 12  2  0
 11 17  1  0
 12 13  1  0
 13 14  1  0
 13 15  2  0
 15 16  1  0
 15 28  1  0
 16 17  2  0
 16 29  1  0
 17 18  1  0
 18 19  2  0
 18 20  1  0
M  CHG  2  18   1  20  -1
M  END

