
     RDKit          3D

 52 54  0  0  0  0  0  0  0  0999 V2000
    1.6510   -1.1101    1.2445 C   0  0  0  0  0  0  0  0  0  0  0  0
    2.9899   -1.2958    0.8426 O   0  0  0  0  0  0  0  0  0  0  0  0
    3.2544   -1.6494   -0.4424 C   0  0  0  0  0  0  0  0  0  0  0  0
    2.2822   -1.8181   -1.4371 C   0  0  0  0  0  0  0  0  0  0  0  0
    2.6402   -2.2099   -2.7307 C   0  0  0  0  0  0  0  0  0  0  0  0
    3.9793   -2.4453   -3.0644 C   0  0  0  0  0  0  0  0  0  0  0  0
    4.3599   -2.8684   -4.4875 C   0  0  1  0  0  0  0  0  0  0  0  0
    3.9301   -1.8240   -5.5393 C   0  0  0  0  0  0  0  0  0  0  0  0
    5.7727   -3.2031   -4.6289 N   0  0  0  0  0  0  0  0  0  0  0  0
    6.0017   -4.4603   -5.1157 C   0  0  0  0  0  0  0  0  0  0  0  0
    7.0476   -4.9769   -5.4278 O   0  0  0  0  0  0  0  0  0  0  0  0
    4.7332   -5.0878   -5.1758 N   0  0  0  0  0  0  0  0  0  0  0  0
    4.5323   -6.3568   -5.8122 C   0  0  0  0  0  0  0  0  0  0  0  0
    4.1318   -6.1723   -7.2857 C   0  0  0  0  0  0  0  0  0  0  0  0
    4.2108   -5.1100   -7.8571 O   0  0  0  0  0  0  0  0  0  0  0  0
    3.7082   -7.3438   -7.8830 N   0  0  0  0  0  0  0  0  0  0  0  0
    3.1869   -7.4383   -9.1869 C   0  0  0  0  0  0  0  0  0  0  0  0
    1.9051   -8.0117   -9.3545 C   0  0  0  0  0  0  0  0  0  0  0  0
    1.0430   -8.5998   -7.9460 Cl  0  0  0  0  0  0  0  0  0  0  0  0
    1.2999   -8.1271  -10.6031 C   0  0  0  0  0  0  0  0  0  0  0  0
    1.9697   -7.6551  -11.7316 C   0  0  0  0  0  0  0  0  0  0  0  0
    3.2456   -7.1139  -11.5998 C   0  0  0  0  0  0  0  0  0  0  0  0
    3.8723   -7.0182  -10.3491 C   0  0  0  0  0  0  0  0  0  0  0  0
    5.3029   -6.4991  -10.3662 C   0  0  1  0  0  0  0  0  0  0  0  0
    6.0203   -6.8822   -9.3020 F   0  0  0  0  0  0  0  0  0  0  0  0
    5.9433   -6.9834  -11.4543 F   0  0  0  0  0  0  0  0  0  0  0  0
    5.3618   -5.1661  -10.4555 F   0  0  0  0  0  0  0  0  0  0  0  0
    3.7065   -4.2256   -4.8562 C   0  0  0  0  0  0  0  0  0  0  0  0
    2.5266   -4.4844   -4.8891 O   0  0  0  0  0  0  0  0  0  0  0  0
    4.9499   -2.2754   -2.0666 C   0  0  0  0  0  0  0  0  0  0  0  0
    4.6126   -1.8780   -0.7717 C   0  0  0  0  0  0  0  0  0  0  0  0
    5.6072   -1.7921    0.1593 O   0  0  0  0  0  0  0  0  0  0  0  0
    5.8664   -0.5209    0.7358 C   0  0  0  0  0  0  0  0  0  0  0  0
    1.6780   -0.8527    2.3118 H   0  0  0  0  0  0  0  0  0  0  0  0
    1.0533   -2.0298    1.1131 H   0  0  0  0  0  0  0  0  0  0  0  0
    1.1638   -0.2876    0.6902 H   0  0  0  0  0  0  0  0  0  0  0  0
    1.2283   -1.6598   -1.2076 H   0  0  0  0  0  0  0  0  0  0  0  0
    1.8563   -2.3662   -3.4728 H   0  0  0  0  0  0  0  0  0  0  0  0
    4.4522   -0.8719   -5.3557 H   0  0  0  0  0  0  0  0  0  0  0  0
    2.8484   -1.6416   -5.4836 H   0  0  0  0  0  0  0  0  0  0  0  0
    4.1720   -2.1831   -6.5513 H   0  0  0  0  0  0  0  0  0  0  0  0
    6.5117   -2.5119   -4.6644 H   0  0  0  0  0  0  0  0  0  0  0  0
    3.7591   -6.9272   -5.2733 H   0  0  0  0  0  0  0  0  0  0  0  0
    5.4841   -6.9095   -5.7744 H   0  0  0  0  0  0  0  0  0  0  0  0
    3.4222   -8.0903   -7.2568 H   0  0  0  0  0  0  0  0  0  0  0  0
    0.3077   -8.5746  -10.6769 H   0  0  0  0  0  0  0  0  0  0  0  0
    1.5007   -7.7259  -12.7151 H   0  0  0  0  0  0  0  0  0  0  0  0
    3.7883   -6.7821  -12.4857 H   0  0  0  0  0  0  0  0  0  0  0  0
    6.0045   -2.4692   -2.2644 H   0  0  0  0  0  0  0  0  0  0  0  0
    6.7407   -0.6459    1.3900 H   0  0  0  0  0  0  0  0  0  0  0  0
    5.0155   -0.1578    1.3328 H   0  0  0  0  0  0  0  0  0  0  0  0
    6.1089    0.2272   -0.0417 H   0  0  0  0  0  0  0  0  0  0  0  0
  1  2  1  0
  1 34  1  0
  1 35  1  0
  1 36  1  0
  2  3  1  0
  3  4  2  0
  3 31  1  0
  4  5  1  0
  4 37  1  0
  5  6  2  0
  5 38  1  0
  6  7  1  0
  6 30  1  0
  7  8  1  6
  7  9  1  0
  7 28  1  0
  8 39  1  0
  8 40  1  0
  8 41  1  0
  9 10  1  0
  9 42  1  0
 10 11  2  0
 10 12  1  0
 12 13  1  0
 12 28  1  0
 13 14  1  0
 13 43  1  0
 13 44  1  0
 14 15  2  0
 14 16  1  0
 16 17  1  0
 16 45  1  0
 17 18  2  0
 17 23  1  0
 18 19  1  0
 18 20  1  0
 20 21  2  0
 20 46  1  0
 21 22  1  0
 21 47  1  0
 22 23  2  0
 22 48  1  0
 23 24  1  0
 24 25  1  1
 24 26  1  0
 24 27  1  0
 28 29  2  0
 30 31  2  0
 30 49  1  0
 31 32  1  0
 32 33  1  0
 33 50  1  0
 33 51  1  0
 33 52  1  0
M  END

