
     RDKit          3D

 59 59  0  0  0  0  0  0  0  0999 V2000
    3.6526   -0.6955   -3.9866 C   0  0  0  0  0  0  0  0  0  0  0  0
    3.6562   -1.6601   -2.7994 C   0  0  0  0  0  0  0  0  0  0  0  0
    4.2242   -1.0237   -1.5278 C   0  0  0  0  0  0  0  0  0  0  0  0
    4.2085   -1.9325   -0.2727 C   0  0  2  0  0  0  0  0  0  0  0  0
    3.1888   -2.3246   -0.1451 H   0  0  0  0  0  0  0  0  0  0  0  0
    4.5502   -1.2014    0.9346 N   0  0  0  0  0  0  0  0  0  0  0  0
    3.6118   -0.5971    1.7073 C   0  0  0  0  0  0  0  0  0  0  0  0
    2.4133   -0.6311    1.4738 O   0  0  0  0  0  0  0  0  0  0  0  0
    4.1616    0.1802    2.9165 C   0  0  1  0  0  0  0  0  0  0  0  0
    3.1141    0.1732    4.0479 C   0  0  0  0  0  0  0  0  0  0  0  0
    3.5889    0.7929    5.2372 O   0  0  0  0  0  0  0  0  0  0  0  0
    3.6444    2.1580    5.2588 C   0  0  1  0  0  0  0  0  0  0  0  0
    2.4077    2.6897    5.0514 F   0  0  0  0  0  0  0  0  0  0  0  0
    4.0409    2.5038    6.4938 F   0  0  0  0  0  0  0  0  0  0  0  0
    5.4584   -0.2830    3.3600 N   0  0  0  0  0  0  0  0  0  0  0  0
    6.4435    0.5879    3.7357 C   0  0  0  0  0  0  0  0  0  0  0  0
    6.4087    1.7901    3.5186 O   0  0  0  0  0  0  0  0  0  0  0  0
    7.6496   -0.0845    4.4137 C   0  0  1  0  0  0  0  0  0  0  0  0
    8.0514    0.6845    5.1009 H   0  0  0  0  0  0  0  0  0  0  0  0
    7.2196   -1.3106    5.0882 N   0  0  0  0  0  0  0  0  0  0  0  0
    8.7428   -0.4148    3.3775 C   0  0  0  0  0  0  0  0  0  0  0  0
    9.3554    0.7987    2.6787 C   0  0  0  0  0  0  0  0  0  0  0  0
    5.1295   -3.1322   -0.4620 C   0  0  0  0  0  0  0  0  0  0  0  0
    4.8164   -4.1419   -1.0423 O   0  0  0  0  0  0  0  0  0  0  0  0
    6.3578   -2.9042    0.0471 O   0  0  0  0  0  0  0  0  0  0  0  0
    7.3622   -3.9391   -0.1178 C   0  0  0  0  0  0  0  0  0  0  0  0
    8.1530   -3.7611   -1.3899 C   0  0  0  0  0  0  0  0  0  0  0  0
    9.3063   -2.9614   -1.4009 C   0  0  0  0  0  0  0  0  0  0  0  0
   10.0340   -2.7764   -2.5791 C   0  0  0  0  0  0  0  0  0  0  0  0
    9.6150   -3.3923   -3.7624 C   0  0  0  0  0  0  0  0  0  0  0  0
    8.4677   -4.1919   -3.7618 C   0  0  0  0  0  0  0  0  0  0  0  0
    7.7396   -4.3753   -2.5835 C   0  0  0  0  0  0  0  0  0  0  0  0
    3.2322   -1.1710   -4.8867 H   0  0  0  0  0  0  0  0  0  0  0  0
    4.6736   -0.3594   -4.2343 H   0  0  0  0  0  0  0  0  0  0  0  0
    3.0516    0.2043   -3.7735 H   0  0  0  0  0  0  0  0  0  0  0  0
    4.2295   -2.5653   -3.0576 H   0  0  0  0  0  0  0  0  0  0  0  0
    2.6266   -2.0055   -2.5982 H   0  0  0  0  0  0  0  0  0  0  0  0
    3.6292   -0.1327   -1.2669 H   0  0  0  0  0  0  0  0  0  0  0  0
    5.2586   -0.6757   -1.7005 H   0  0  0  0  0  0  0  0  0  0  0  0
    5.5274   -1.1197    1.1921 H   0  0  0  0  0  0  0  0  0  0  0  0
    4.3172    1.2167    2.5723 H   0  0  0  0  0  0  0  0  0  0  0  0
    2.8776   -0.8618    4.3346 H   0  0  0  0  0  0  0  0  0  0  0  0
    2.1856    0.6411    3.6932 H   0  0  0  0  0  0  0  0  0  0  0  0
    4.3392    2.5912    4.5174 H   0  0  0  0  0  0  0  0  0  0  0  0
    5.5596   -1.2135    3.7695 H   0  0  0  0  0  0  0  0  0  0  0  0
    6.7321   -1.0931    5.9582 H   0  0  0  0  0  0  0  0  0  0  0  0
    8.0209   -1.8906    5.3347 H   0  0  0  0  0  0  0  0  0  0  0  0
    8.3195   -1.1173    2.6376 H   0  0  0  0  0  0  0  0  0  0  0  0
    9.5380   -0.9703    3.9082 H   0  0  0  0  0  0  0  0  0  0  0  0
    8.5984    1.3852    2.1381 H   0  0  0  0  0  0  0  0  0  0  0  0
   10.1257    0.4816    1.9583 H   0  0  0  0  0  0  0  0  0  0  0  0
    9.8333    1.4766    3.4041 H   0  0  0  0  0  0  0  0  0  0  0  0
    6.8603   -4.9154   -0.0934 H   0  0  0  0  0  0  0  0  0  0  0  0
    8.0083   -3.8345    0.7641 H   0  0  0  0  0  0  0  0  0  0  0  0
    9.6400   -2.4821   -0.4758 H   0  0  0  0  0  0  0  0  0  0  0  0
   10.9321   -2.1535   -2.5732 H   0  0  0  0  0  0  0  0  0  0  0  0
   10.1847   -3.2514   -4.6846 H   0  0  0  0  0  0  0  0  0  0  0  0
    8.1383   -4.6772   -4.6842 H   0  0  0  0  0  0  0  0  0  0  0  0
    6.8371   -4.9907   -2.5821 H   0  0  0  0  0  0  0  0  0  0  0  0
  1  2  1  0
  1 33  1  0
  1 34  1  0
  1 35  1  0
  2  3  1  0
  2 36  1  0
  2 37  1  0
  3  4  1  0
  3 38  1  0
  3 39  1  0
  4  5  1  1
  4  6  1  0
  4 23  1  0
  6  7  1  0
  6 40  1  0
  7  8  2  0
  7  9  1  0
  9 10  1  0
  9 15  1  0
  9 41  1  6
 10 11  1  0
 10 42  1  0
 10 43  1  0
 11 12  1  0
 12 13  1  0
 12 14  1  0
 12 44  1  6
 15 16  1  0
 15 45  1  0
 16 17  2  0
 16 18  1  0
 18 19  1  1
 18 20  1  0
 18 21  1  0
 20 46  1  0
 20 47  1  0
 21 22  1  0
 21 48  1  0
 21 49  1  0
 22 50  1  0
 22 51  1  0
 22 52  1  0
 23 24  2  0
 23 25  1  0
 25 26  1  0
 26 27  1  0
 26 53  1  0
 26 54  1  0
 27 28  2  0
 27 32  1  0
 28 29  1  0
 28 55  1  0
 29 30  2  0
 29 56  1  0
 30 31  1  0
 30 57  1  0
 31 32  2  0
 31 58  1  0
 32 59  1  0
M  END

