
     RDKit          3D

 36 36  0  0  0  0  0  0  0  0999 V2000
    4.9769   -1.8058    2.4455 C   0  0  0  0  0  0  0  0  0  0  0  0
    4.4096   -0.9194    1.3292 C   0  0  1  0  0  0  0  0  0  0  0  0
    2.8954   -1.1263    1.1879 C   0  0  0  0  0  0  0  0  0  0  0  0
    4.7902    0.5545    1.5656 C   0  0  0  0  0  0  0  0  0  0  0  0
    4.4287    1.5173    0.4282 C   0  0  0  0  0  0  0  0  0  0  0  0
    4.9134    2.9530    0.6423 C   0  0  0  0  0  0  0  0  0  0  0  0
    6.3622    3.0328    0.6376 N   0  0  0  0  0  0  0  0  0  0  0  0
    7.0930    4.1576    0.9162 C   0  0  0  0  0  0  0  0  0  0  0  0
    6.4728    5.3453    1.4011 C   0  0  0  0  0  0  0  0  0  0  0  0
    7.2514    6.4466    1.6879 C   0  0  0  0  0  0  0  0  0  0  0  0
    8.6469    6.4403    1.5120 C   0  0  0  0  0  0  0  0  0  0  0  0
    9.3654    7.6461    1.8403 N   0  0  0  0  0  0  0  0  0  0  0  0
    8.7381    8.6123    2.2563 O   0  0  0  0  0  0  0  0  0  0  0  0
   10.5969    7.6697    1.6921 O   0  0  0  0  0  0  0  0  0  0  0  0
    9.3018    5.2637    1.0190 C   0  0  0  0  0  0  0  0  0  0  0  0
   10.6413    5.1968    0.8271 N   0  0  0  0  0  0  0  0  0  0  0  0
    8.4856    4.1502    0.7338 C   0  0  0  0  0  0  0  0  0  0  0  0
    4.7547   -2.8700    2.2656 H   0  0  0  0  0  0  0  0  0  0  0  0
    4.5413   -1.5363    3.4232 H   0  0  0  0  0  0  0  0  0  0  0  0
    6.0708   -1.7000    2.5296 H   0  0  0  0  0  0  0  0  0  0  0  0
    4.8823   -1.2345    0.3784 H   0  0  0  0  0  0  0  0  0  0  0  0
    2.3669   -0.8006    2.1009 H   0  0  0  0  0  0  0  0  0  0  0  0
    2.6556   -2.1899    1.0288 H   0  0  0  0  0  0  0  0  0  0  0  0
    2.4728   -0.5664    0.3390 H   0  0  0  0  0  0  0  0  0  0  0  0
    5.8766    0.6115    1.7519 H   0  0  0  0  0  0  0  0  0  0  0  0
    4.3118    0.9053    2.4997 H   0  0  0  0  0  0  0  0  0  0  0  0
    3.3362    1.5547    0.2912 H   0  0  0  0  0  0  0  0  0  0  0  0
    4.8361    1.1386   -0.5292 H   0  0  0  0  0  0  0  0  0  0  0  0
    4.5322    3.3212    1.6109 H   0  0  0  0  0  0  0  0  0  0  0  0
    4.4768    3.6096   -0.1367 H   0  0  0  0  0  0  0  0  0  0  0  0
    6.8506    2.2905    0.1513 H   0  0  0  0  0  0  0  0  0  0  0  0
    5.3944    5.3949    1.5438 H   0  0  0  0  0  0  0  0  0  0  0  0
    6.8025    7.3671    2.0595 H   0  0  0  0  0  0  0  0  0  0  0  0
   11.1910    6.0220    1.0450 H   0  0  0  0  0  0  0  0  0  0  0  0
   11.0607    4.3469    0.4803 H   0  0  0  0  0  0  0  0  0  0  0  0
    8.9685    3.2416    0.3618 H   0  0  0  0  0  0  0  0  0  0  0  0
  1  2  1  0
  1 18  1  0
  1 19  1  0
  1 20  1  0
  2  3  1  0
  2  4  1  0
  2 21  1  6
  3 22  1  0
  3 23  1  0
  3 24  1  0
  4  5  1  0
  4 25  1  0
  4 26  1  0
  5  6  1  0
  5 27  1  0
  5 28  1  0
  6  7  1  0
  6 29  1  0
  6 30  1  0
  7  8  1  0
  7 31  1  0
  8  9  2  0
  8 17  1  0
  9 10  1  0
  9 32  1  0
 10 11  2  0
 10 33  1  0
 11 12  1  0
 11 15  1  0
 12 13  2  0
 12 14  1  0
 15 16  1  0
 15 17  2  0
 16 34  1  0
 16 35  1  0
 17 36  1  0
M  CHG  2  12   1  14  -1
M  END

