
     RDKit          3D

 85 91  0  0  0  0  0  0  0  0999 V2000
    5.3681   12.6114   -6.4599 C   0  0  0  0  0  0  0  0  0  0  0  0
    4.8000   12.7637   -5.0482 C   0  0  0  0  0  0  0  0  0  0  0  0
    5.4509   11.8305   -4.0218 C   0  0  0  0  0  0  0  0  0  0  0  0
    4.8770   11.9819   -2.6106 C   0  0  0  0  0  0  0  0  0  0  0  0
    5.4886   11.0392   -1.5523 C   0  0  0  0  0  0  0  0  0  0  0  0
    6.9587   11.2832   -1.2630 C   0  0  0  0  0  0  0  0  0  0  0  0
    7.9167   10.4574   -1.8688 C   0  0  0  0  0  0  0  0  0  0  0  0
    9.3011   10.6560   -1.7263 C   0  0  0  0  0  0  0  0  0  0  0  0
   10.2781    9.7541   -2.3906 C   0  0  0  0  0  0  0  0  0  0  0  0
   10.0093    8.3602   -2.5237 C   0  0  0  0  0  0  0  0  0  0  0  0
   10.9043    7.5100   -3.1379 C   0  0  0  0  0  0  0  0  0  0  0  0
   12.1317    7.9963   -3.6593 C   0  0  0  0  0  0  0  0  0  0  0  0
   13.0758    7.1378   -4.3203 C   0  0  0  0  0  0  0  0  0  0  0  0
   14.2866    7.6943   -4.8220 C   0  0  0  0  0  0  0  0  0  0  0  0
   14.5651    9.0817   -4.6565 C   0  0  0  0  0  0  0  0  0  0  0  0
   15.8770    9.5864   -5.1607 C   0  0  0  0  0  0  0  0  0  0  0  0
   16.7538    8.8866   -5.6149 O   0  0  0  0  0  0  0  0  0  0  0  0
   15.9966   10.9237   -5.0457 O   0  0  0  0  0  0  0  0  0  0  0  0
   17.2300   11.4863   -5.4890 C   0  0  0  0  0  0  0  0  0  0  0  0
   13.6464    9.9144   -4.0489 C   0  0  0  0  0  0  0  0  0  0  0  0
   12.4241    9.3936   -3.5375 C   0  0  0  0  0  0  0  0  0  0  0  0
   11.4759   10.2379   -2.9022 C   0  0  0  0  0  0  0  0  0  0  0  0
   15.1433    6.5791   -5.2121 C   0  0  0  0  0  0  0  0  0  0  0  0
   14.4212    5.6811   -5.9587 C   0  0  0  0  0  0  0  0  0  0  0  0
   13.6502    4.7709   -5.0734 C   0  0  1  0  0  0  0  0  0  0  0  0
   12.6463    3.8625   -5.7745 C   0  0  0  0  0  0  0  0  0  0  0  0
   12.8414    3.4968   -7.1118 C   0  0  0  0  0  0  0  0  0  0  0  0
   11.9529    2.6238   -7.7490 C   0  0  0  0  0  0  0  0  0  0  0  0
   10.8536    2.1138   -7.0556 C   0  0  0  0  0  0  0  0  0  0  0  0
   10.6504    2.4768   -5.7190 C   0  0  0  0  0  0  0  0  0  0  0  0
   11.5422    3.3401   -5.0816 C   0  0  0  0  0  0  0  0  0  0  0  0
   14.4489    4.0125   -4.0164 C   0  0  0  0  0  0  0  0  0  0  0  0
   14.1728    4.1020   -2.6454 C   0  0  0  0  0  0  0  0  0  0  0  0
   14.9082    3.3589   -1.7169 C   0  0  0  0  0  0  0  0  0  0  0  0
   15.9241    2.5238   -2.1711 C   0  0  0  0  0  0  0  0  0  0  0  0
   16.6345    1.8102   -1.2847 F   0  0  0  0  0  0  0  0  0  0  0  0
   16.2227    2.4146   -3.5282 C   0  0  0  0  0  0  0  0  0  0  0  0
   15.4794    3.1592   -4.4442 C   0  0  0  0  0  0  0  0  0  0  0  0
   12.7577    5.8208   -4.3322 O   0  0  0  0  0  0  0  0  0  0  0  0
    9.7243   11.7390   -0.9378 C   0  0  0  0  0  0  0  0  0  0  0  0
    8.7907   12.5675   -0.3193 C   0  0  0  0  0  0  0  0  0  0  0  0
    7.4072   12.3588   -0.4559 C   0  0  0  0  0  0  0  0  0  0  0  0
    6.4770   13.2826    0.2641 C   0  0  0  0  0  0  0  0  0  0  0  0
    6.4637   14.6561   -0.0375 C   0  0  0  0  0  0  0  0  0  0  0  0
    5.6285   15.5365    0.6565 C   0  0  0  0  0  0  0  0  0  0  0  0
    4.7941   15.0604    1.6715 C   0  0  0  0  0  0  0  0  0  0  0  0
    4.8051   13.6990    1.9905 C   0  0  0  0  0  0  0  0  0  0  0  0
    5.6387   12.8198    1.2947 C   0  0  0  0  0  0  0  0  0  0  0  0
    4.8797   13.2979   -7.1701 H   0  0  0  0  0  0  0  0  0  0  0  0
    5.2284   11.5854   -6.8401 H   0  0  0  0  0  0  0  0  0  0  0  0
    6.4502   12.8243   -6.4818 H   0  0  0  0  0  0  0  0  0  0  0  0
    3.7099   12.5808   -5.0673 H   0  0  0  0  0  0  0  0  0  0  0  0
    4.9206   13.8100   -4.7127 H   0  0  0  0  0  0  0  0  0  0  0  0
    6.5397   12.0156   -4.0041 H   0  0  0  0  0  0  0  0  0  0  0  0
    5.3300   10.7824   -4.3559 H   0  0  0  0  0  0  0  0  0  0  0  0
    3.7882   11.7964   -2.6428 H   0  0  0  0  0  0  0  0  0  0  0  0
    4.9940   13.0270   -2.2747 H   0  0  0  0  0  0  0  0  0  0  0  0
    5.3637    9.9964   -1.8897 H   0  0  0  0  0  0  0  0  0  0  0  0
    4.9005   11.1361   -0.6284 H   0  0  0  0  0  0  0  0  0  0  0  0
    7.5628    9.6421   -2.5047 H   0  0  0  0  0  0  0  0  0  0  0  0
    9.0833    7.9545   -2.1110 H   0  0  0  0  0  0  0  0  0  0  0  0
   10.6810    6.4475   -3.2347 H   0  0  0  0  0  0  0  0  0  0  0  0
   18.0750   11.0845   -4.9092 H   0  0  0  0  0  0  0  0  0  0  0  0
   17.1448   12.5694   -5.3365 H   0  0  0  0  0  0  0  0  0  0  0  0
   17.4027   11.2627   -6.5527 H   0  0  0  0  0  0  0  0  0  0  0  0
   13.8605   10.9786   -3.9494 H   0  0  0  0  0  0  0  0  0  0  0  0
   11.7013   11.3052   -2.8418 H   0  0  0  0  0  0  0  0  0  0  0  0
   15.8902    6.2357   -4.4842 H   0  0  0  0  0  0  0  0  0  0  0  0
   13.7418    6.1446   -6.6876 H   0  0  0  0  0  0  0  0  0  0  0  0
   13.6996    3.8967   -7.6577 H   0  0  0  0  0  0  0  0  0  0  0  0
   12.1208    2.3470   -8.7930 H   0  0  0  0  0  0  0  0  0  0  0  0
   10.1560    1.4349   -7.5528 H   0  0  0  0  0  0  0  0  0  0  0  0
    9.7926    2.0810   -5.1691 H   0  0  0  0  0  0  0  0  0  0  0  0
   11.3826    3.6130   -4.0369 H   0  0  0  0  0  0  0  0  0  0  0  0
   13.3807    4.7666   -2.3003 H   0  0  0  0  0  0  0  0  0  0  0  0
   14.7055    3.4241   -0.6461 H   0  0  0  0  0  0  0  0  0  0  0  0
   17.0289    1.7523   -3.8496 H   0  0  0  0  0  0  0  0  0  0  0  0
   15.7049    3.0791   -5.5099 H   0  0  0  0  0  0  0  0  0  0  0  0
   10.7901   11.9146   -0.7759 H   0  0  0  0  0  0  0  0  0  0  0  0
    9.1380   13.3880    0.3137 H   0  0  0  0  0  0  0  0  0  0  0  0
    7.1118   15.0337   -0.8327 H   0  0  0  0  0  0  0  0  0  0  0  0
    5.6299   16.5995    0.4013 H   0  0  0  0  0  0  0  0  0  0  0  0
    4.1412   15.7478    2.2154 H   0  0  0  0  0  0  0  0  0  0  0  0
    4.1662   13.3192    2.7922 H   0  0  0  0  0  0  0  0  0  0  0  0
    5.6570   11.7614    1.5667 H   0  0  0  0  0  0  0  0  0  0  0  0
  1  2  1  0
  1 49  1  0
  1 50  1  0
  1 51  1  0
  2  3  1  0
  2 52  1  0
  2 53  1  0
  3  4  1  0
  3 54  1  0
  3 55  1  0
  4  5  1  0
  4 56  1  0
  4 57  1  0
  5  6  1  0
  5 58  1  0
  5 59  1  0
  6  7  2  0
  6 42  1  0
  7  8  1  0
  7 60  1  0
  8  9  1  0
  8 40  2  0
  9 10  2  0
  9 22  1  0
 10 11  1  0
 10 61  1  0
 11 12  2  0
 11 62  1  0
 12 13  1  0
 12 21  1  0
 13 14  2  0
 13 39  1  0
 14 15  1  0
 14 23  1  0
 15 16  1  0
 15 20  2  0
 16 17  2  0
 16 18  1  0
 18 19  1  0
 19 63  1  0
 19 64  1  0
 19 65  1  0
 20 21  1  0
 20 66  1  0
 21 22  2  0
 22 67  1  0
 23 24  2  0
 23 68  1  0
 24 25  1  0
 24 69  1  0
 25 26  1  6
 25 32  1  0
 25 39  1  0
 26 27  2  0
 26 31  1  0
 27 28  1  0
 27 70  1  0
 28 29  2  0
 28 71  1  0
 29 30  1  0
 29 72  1  0
 30 31  2  0
 30 73  1  0
 31 74  1  0
 32 33  2  0
 32 38  1  0
 33 34  1  0
 33 75  1  0
 34 35  2  0
 34 76  1  0
 35 36  1  0
 35 37  1  0
 37 38  2  0
 37 77  1  0
 38 78  1  0
 40 41  1  0
 40 79  1  0
 41 42  2  0
 41 80  1  0
 42 43  1  0
 43 44  2  0
 43 48  1  0
 44 45  1  0
 44 81  1  0
 45 46  2  0
 45 82  1  0
 46 47  1  0
 46 83  1  0
 47 48  2  0
 47 84  1  0
 48 85  1  0
M  END

