
     RDKit          3D

 47 49  0  0  0  0  0  0  0  0999 V2000
   -0.7966    0.9259   -0.5413 C   0  0  0  0  0  0  0  0  0  0  0  0
    0.5728    0.9335   -0.2547 C   0  0  0  0  0  0  0  0  0  0  0  0
    1.2773   -0.2414    0.0440 C   0  0  0  0  0  0  0  0  0  0  0  0
    2.7608   -0.2323    0.3530 C   0  0  1  0  0  0  0  0  0  0  0  0
    3.6843    0.3268   -0.7503 C   0  0  0  0  0  0  0  0  0  0  0  0
    5.0460    0.4632   -0.0496 C   0  0  0  0  0  0  0  0  0  0  0  0
    4.7145    0.8201    1.4281 C   0  0  0  0  0  0  0  0  0  0  0  0
    3.1881    0.6004    1.5859 C   0  0  0  0  0  0  0  0  0  0  0  0
    0.5463   -1.4429    0.0457 C   0  0  0  0  0  0  0  0  0  0  0  0
   -0.8168   -1.4734   -0.2365 C   0  0  0  0  0  0  0  0  0  0  0  0
   -1.5042   -0.2859   -0.5341 C   0  0  0  0  0  0  0  0  0  0  0  0
   -2.8322   -0.4050   -0.7982 O   0  0  0  0  0  0  0  0  0  0  0  0
   -3.6001    0.7421   -1.1110 C   0  0  0  0  0  0  0  0  0  0  0  0
   -5.0398    0.2641   -1.3614 C   0  0  0  0  0  0  0  0  0  0  0  0
   -6.0160    1.2697   -1.6993 N   0  0  0  0  0  0  0  0  0  0  0  0
   -6.5567    2.1359   -0.6670 C   0  0  0  0  0  0  0  0  0  0  0  0
   -5.9374    3.5458   -0.6539 C   0  0  0  0  0  0  0  0  0  0  0  0
   -6.0081    4.1759   -2.0522 C   0  0  0  0  0  0  0  0  0  0  0  0
   -5.3952    3.2461   -3.1091 C   0  0  0  0  0  0  0  0  0  0  0  0
   -6.0346    1.8472   -3.0314 C   0  0  0  0  0  0  0  0  0  0  0  0
   -1.2990    1.8667   -0.7678 H   0  0  0  0  0  0  0  0  0  0  0  0
    1.0966    1.8936   -0.2681 H   0  0  0  0  0  0  0  0  0  0  0  0
    3.0669   -1.2788    0.5336 H   0  0  0  0  0  0  0  0  0  0  0  0
    3.3147    1.3164   -1.0719 H   0  0  0  0  0  0  0  0  0  0  0  0
    3.7142   -0.3128   -1.6466 H   0  0  0  0  0  0  0  0  0  0  0  0
    5.6985    1.2072   -0.5325 H   0  0  0  0  0  0  0  0  0  0  0  0
    5.5809   -0.5000   -0.0941 H   0  0  0  0  0  0  0  0  0  0  0  0
    4.9898    1.8594    1.6668 H   0  0  0  0  0  0  0  0  0  0  0  0
    5.2860    0.1831    2.1214 H   0  0  0  0  0  0  0  0  0  0  0  0
    2.6580    1.5671    1.5687 H   0  0  0  0  0  0  0  0  0  0  0  0
    2.9153    0.1096    2.5331 H   0  0  0  0  0  0  0  0  0  0  0  0
    1.0612   -2.3808    0.2744 H   0  0  0  0  0  0  0  0  0  0  0  0
   -1.3768   -2.4110   -0.2332 H   0  0  0  0  0  0  0  0  0  0  0  0
   -3.1939    1.2462   -2.0083 H   0  0  0  0  0  0  0  0  0  0  0  0
   -3.5684    1.4682   -0.2766 H   0  0  0  0  0  0  0  0  0  0  0  0
   -5.3714   -0.2740   -0.4561 H   0  0  0  0  0  0  0  0  0  0  0  0
   -5.0017   -0.4906   -2.1665 H   0  0  0  0  0  0  0  0  0  0  0  0
   -6.4351    1.6461    0.3124 H   0  0  0  0  0  0  0  0  0  0  0  0
   -7.6502    2.2464   -0.8278 H   0  0  0  0  0  0  0  0  0  0  0  0
   -4.8835    3.4850   -0.3280 H   0  0  0  0  0  0  0  0  0  0  0  0
   -6.4617    4.1784    0.0834 H   0  0  0  0  0  0  0  0  0  0  0  0
   -5.5101    5.1598   -2.0624 H   0  0  0  0  0  0  0  0  0  0  0  0
   -7.0681    4.3621   -2.3091 H   0  0  0  0  0  0  0  0  0  0  0  0
   -4.3057    3.1657   -2.9441 H   0  0  0  0  0  0  0  0  0  0  0  0
   -5.5329    3.6652   -4.1210 H   0  0  0  0  0  0  0  0  0  0  0  0
   -5.5422    1.1525   -3.7306 H   0  0  0  0  0  0  0  0  0  0  0  0
   -7.0889    1.9361   -3.3694 H   0  0  0  0  0  0  0  0  0  0  0  0
  1  2  2  0
  1 11  1  0
  1 21  1  0
  2  3  1  0
  2 22  1  0
  3  4  1  0
  3  9  2  0
  4  5  1  0
  4  8  1  0
  4 23  1  1
  5  6  1  0
  5 24  1  0
  5 25  1  0
  6  7  1  0
  6 26  1  0
  6 27  1  0
  7  8  1  0
  7 28  1  0
  7 29  1  0
  8 30  1  0
  8 31  1  0
  9 10  1  0
  9 32  1  0
 10 11  2  0
 10 33  1  0
 11 12  1  0
 12 13  1  0
 13 14  1  0
 13 34  1  0
 13 35  1  0
 14 15  1  0
 14 36  1  0
 14 37  1  0
 15 16  1  0
 15 20  1  0
 16 17  1  0
 16 38  1  0
 16 39  1  0
 17 18  1  0
 17 40  1  0
 17 41  1  0
 18 19  1  0
 18 42  1  0
 18 43  1  0
 19 20  1  0
 19 44  1  0
 19 45  1  0
 20 46  1  0
 20 47  1  0
M  END

