
     RDKit          3D

 59 61  0  0  0  0  0  0  0  0999 V2000
    3.3823    3.3858    6.9285 C   0  0  0  0  0  0  0  0  0  0  0  0
    2.2963    2.8351    6.2184 O   0  0  0  0  0  0  0  0  0  0  0  0
    2.5265    1.8168    5.3471 C   0  0  0  0  0  0  0  0  0  0  0  0
    3.7865    1.2613    5.1054 C   0  0  0  0  0  0  0  0  0  0  0  0
    3.9080    0.2054    4.1804 C   0  0  0  0  0  0  0  0  0  0  0  0
    5.2734   -0.4054    3.9197 C   0  0  0  0  0  0  0  0  0  0  0  0
    5.6098   -1.5089    4.8414 N   0  0  0  0  0  0  0  0  0  0  0  0
    6.2294   -1.1725    6.0328 C   0  0  0  0  0  0  0  0  0  0  0  0
    6.5294   -0.0392    6.3605 O   0  0  0  0  0  0  0  0  0  0  0  0
    6.5059   -2.2557    6.8566 N   0  0  0  0  0  0  0  0  0  0  0  0
    6.9640   -2.0254    7.7328 H   0  0  0  0  0  0  0  0  0  0  0  0
    6.1894   -3.5631    6.5599 C   0  0  0  0  0  0  0  0  0  0  0  0
    6.5861   -4.4941    7.4594 O   0  0  0  0  0  0  0  0  0  0  0  0
    6.5617   -4.2403    8.8264 C   0  0  0  0  0  0  0  0  0  0  0  0
    5.4332   -3.6830    9.4394 C   0  0  0  0  0  0  0  0  0  0  0  0
    5.4250   -3.4948   10.8264 C   0  0  0  0  0  0  0  0  0  0  0  0
    4.2268   -2.8950   11.5215 C   0  0  0  0  0  0  0  0  0  0  0  0
    6.5550   -3.8847   11.5670 C   0  0  0  0  0  0  0  0  0  0  0  0
    7.6820   -4.4510   10.9593 C   0  0  0  0  0  0  0  0  0  0  0  0
    8.8863   -4.8667   11.7685 C   0  0  0  0  0  0  0  0  0  0  0  0
    7.6776   -4.6234    9.5645 C   0  0  0  0  0  0  0  0  0  0  0  0
    5.5800   -3.9086    5.3927 C   0  0  0  0  0  0  0  0  0  0  0  0
    5.2138   -5.3305    4.9965 C   0  0  1  0  0  0  0  0  0  0  0  0
    6.4516   -6.2158    4.7676 C   0  0  0  0  0  0  0  0  0  0  0  0
    4.2136   -5.9856    5.9643 C   0  0  0  0  0  0  0  0  0  0  0  0
    5.2729   -2.8311    4.4438 C   0  0  0  0  0  0  0  0  0  0  0  0
    4.7459   -3.0147    3.3581 O   0  0  0  0  0  0  0  0  0  0  0  0
    2.7867   -0.2838    3.5138 C   0  0  0  0  0  0  0  0  0  0  0  0
    1.5219    0.2847    3.7610 C   0  0  0  0  0  0  0  0  0  0  0  0
    0.4856   -0.2496    3.0638 O   0  0  0  0  0  0  0  0  0  0  0  0
   -0.8102    0.2676    3.2520 C   0  0  0  0  0  0  0  0  0  0  0  0
    1.3885    1.3331    4.6742 C   0  0  0  0  0  0  0  0  0  0  0  0
    2.9693    4.1790    7.5667 H   0  0  0  0  0  0  0  0  0  0  0  0
    4.1361    3.8267    6.2514 H   0  0  0  0  0  0  0  0  0  0  0  0
    3.8824    2.6349    7.5661 H   0  0  0  0  0  0  0  0  0  0  0  0
    4.6769    1.6108    5.6250 H   0  0  0  0  0  0  0  0  0  0  0  0
    6.0571    0.3527    4.0347 H   0  0  0  0  0  0  0  0  0  0  0  0
    5.3131   -0.8280    2.9100 H   0  0  0  0  0  0  0  0  0  0  0  0
    4.5642   -3.4101    8.8366 H   0  0  0  0  0  0  0  0  0  0  0  0
    3.4153   -2.6708   10.8144 H   0  0  0  0  0  0  0  0  0  0  0  0
    4.4951   -1.9573   12.0360 H   0  0  0  0  0  0  0  0  0  0  0  0
    3.8288   -3.5796   12.2885 H   0  0  0  0  0  0  0  0  0  0  0  0
    6.5515   -3.7438   12.6519 H   0  0  0  0  0  0  0  0  0  0  0  0
    8.7313   -4.6941   12.8432 H   0  0  0  0  0  0  0  0  0  0  0  0
    9.7850   -4.3056   11.4625 H   0  0  0  0  0  0  0  0  0  0  0  0
    9.1119   -5.9363   11.6255 H   0  0  0  0  0  0  0  0  0  0  0  0
    8.5321   -5.0608    9.0435 H   0  0  0  0  0  0  0  0  0  0  0  0
    4.7073   -5.2184    4.0263 H   0  0  0  0  0  0  0  0  0  0  0  0
    7.0174   -6.3700    5.6996 H   0  0  0  0  0  0  0  0  0  0  0  0
    7.1296   -5.7644    4.0261 H   0  0  0  0  0  0  0  0  0  0  0  0
    6.1505   -7.2057    4.3870 H   0  0  0  0  0  0  0  0  0  0  0  0
    4.6547   -6.1520    6.9595 H   0  0  0  0  0  0  0  0  0  0  0  0
    3.8916   -6.9653    5.5749 H   0  0  0  0  0  0  0  0  0  0  0  0
    3.3130   -5.3631    6.0868 H   0  0  0  0  0  0  0  0  0  0  0  0
    2.8671   -1.1111    2.8078 H   0  0  0  0  0  0  0  0  0  0  0  0
   -1.4768   -0.3082    2.5955 H   0  0  0  0  0  0  0  0  0  0  0  0
   -0.8727    1.3361    2.9761 H   0  0  0  0  0  0  0  0  0  0  0  0
   -1.1528    0.1540    4.2969 H   0  0  0  0  0  0  0  0  0  0  0  0
    0.4319    1.8044    4.8947 H   0  0  0  0  0  0  0  0  0  0  0  0
  1  2  1  0
  1 33  1  0
  1 34  1  0
  1 35  1  0
  2  3  1  0
  3  4  2  0
  3 32  1  0
  4  5  1  0
  4 36  1  0
  5  6  1  0
  5 28  2  0
  6  7  1  0
  6 37  1  0
  6 38  1  0
  7  8  1  0
  7 26  1  0
  8  9  2  0
  8 10  1  0
 10 11  1  0
 10 12  1  0
 12 13  1  0
 12 22  2  0
 13 14  1  0
 14 15  2  0
 14 21  1  0
 15 16  1  0
 15 39  1  0
 16 17  1  0
 16 18  2  0
 17 40  1  0
 17 41  1  0
 17 42  1  0
 18 19  1  0
 18 43  1  0
 19 20  1  0
 19 21  2  0
 20 44  1  0
 20 45  1  0
 20 46  1  0
 21 47  1  0
 22 23  1  0
 22 26  1  0
 23 24  1  0
 23 25  1  0
 23 48  1  6
 24 49  1  0
 24 50  1  0
 24 51  1  0
 25 52  1  0
 25 53  1  0
 25 54  1  0
 26 27  2  0
 28 29  1  0
 28 55  1  0
 29 30  1  0
 29 32  2  0
 30 31  1  0
 31 56  1  0
 31 57  1  0
 31 58  1  0
 32 59  1  0
M  END

