
     RDKit          3D

 35 36  0  0  0  0  0  0  0  0999 V2000
    0.6983   -0.0527    0.0920 C   0  0  0  0  0  0  0  0  0  0  0  0
    2.2076   -0.2941   -0.0444 C   0  0  1  0  0  0  0  0  0  0  0  0
    2.4954   -1.6251   -0.7637 C   0  0  0  0  0  0  0  0  0  0  0  0
    2.1620   -1.5684   -2.1407 O   0  0  0  0  0  0  0  0  0  0  0  0
    2.9461   -0.6201   -2.8313 C   0  0  0  0  0  0  0  0  0  0  0  0
    2.6942    0.7946   -2.3082 C   0  0  0  0  0  0  0  0  0  0  0  0
    2.9082    0.8867   -0.7703 C   0  0  2  0  0  0  0  0  0  0  0  0
    4.4047    0.9934   -0.4654 C   0  0  0  0  0  0  0  0  0  0  0  0
    5.0777    0.0224   -0.1789 O   0  0  0  0  0  0  0  0  0  0  0  0
    5.0070    2.3990   -0.5458 C   0  0  1  0  0  0  0  0  0  0  0  0
    4.7873    3.1553    0.7939 C   0  0  0  0  0  0  0  0  0  0  0  0
    5.7884    2.7133    1.8630 C   0  0  0  0  0  0  0  0  0  0  0  0
    7.1182    2.8703    1.4179 O   0  0  0  0  0  0  0  0  0  0  0  0
    7.4050    2.0599    0.2904 C   0  0  0  0  0  0  0  0  0  0  0  0
    6.5080    2.4104   -0.9014 C   0  0  0  0  0  0  0  0  0  0  0  0
    0.2311   -0.8488    0.6939 H   0  0  0  0  0  0  0  0  0  0  0  0
    0.2022   -0.0538   -0.8908 H   0  0  0  0  0  0  0  0  0  0  0  0
    0.4826    0.9092    0.5853 H   0  0  0  0  0  0  0  0  0  0  0  0
    2.6422   -0.3755    0.9669 H   0  0  0  0  0  0  0  0  0  0  0  0
    1.8833   -2.4313   -0.3295 H   0  0  0  0  0  0  0  0  0  0  0  0
    3.5604   -1.8886   -0.6392 H   0  0  0  0  0  0  0  0  0  0  0  0
    2.6700   -0.6896   -3.8953 H   0  0  0  0  0  0  0  0  0  0  0  0
    4.0226   -0.8769   -2.7470 H   0  0  0  0  0  0  0  0  0  0  0  0
    1.6535    1.0763   -2.5367 H   0  0  0  0  0  0  0  0  0  0  0  0
    3.3381    1.5153   -2.8409 H   0  0  0  0  0  0  0  0  0  0  0  0
    2.4494    1.8321   -0.4339 H   0  0  0  0  0  0  0  0  0  0  0  0
    4.4468    2.9413   -1.3264 H   0  0  0  0  0  0  0  0  0  0  0  0
    3.7553    3.0267    1.1630 H   0  0  0  0  0  0  0  0  0  0  0  0
    4.9288    4.2332    0.6080 H   0  0  0  0  0  0  0  0  0  0  0  0
    5.6003    1.6594    2.1557 H   0  0  0  0  0  0  0  0  0  0  0  0
    5.6798    3.3333    2.7667 H   0  0  0  0  0  0  0  0  0  0  0  0
    7.2865    0.9915    0.5459 H   0  0  0  0  0  0  0  0  0  0  0  0
    8.4618    2.2403    0.0396 H   0  0  0  0  0  0  0  0  0  0  0  0
    6.7134    1.7162   -1.7326 H   0  0  0  0  0  0  0  0  0  0  0  0
    6.7681    3.4244   -1.2499 H   0  0  0  0  0  0  0  0  0  0  0  0
  1  2  1  0
  1 16  1  0
  1 17  1  0
  1 18  1  0
  2  3  1  0
  2  7  1  0
  2 19  1  1
  3  4  1  0
  3 20  1  0
  3 21  1  0
  4  5  1  0
  5  6  1  0
  5 22  1  0
  5 23  1  0
  6  7  1  0
  6 24  1  0
  6 25  1  0
  7  8  1  0
  7 26  1  1
  8  9  2  0
  8 10  1  0
 10 11  1  0
 10 15  1  0
 10 27  1  6
 11 12  1  0
 11 28  1  0
 11 29  1  0
 12 13  1  0
 12 30  1  0
 12 31  1  0
 13 14  1  0
 14 15  1  0
 14 32  1  0
 14 33  1  0
 15 34  1  0
 15 35  1  0
M  END

