
     RDKit          3D

 45 47  0  0  0  0  0  0  0  0999 V2000
    1.8140   -0.2977   -0.8673 C   0  0  0  0  0  0  0  0  0  0  0  0
    3.1794    0.1239   -0.3207 C   0  0  1  0  0  0  0  0  0  0  0  0
    3.3256    1.6114    0.0015 C   0  0  0  0  0  0  0  0  0  0  0  0
    4.6183    2.1361    0.1847 C   0  0  0  0  0  0  0  0  0  0  0  0
    4.7999    3.4841    0.4927 C   0  0  0  0  0  0  0  0  0  0  0  0
    3.7022    4.3418    0.6227 C   0  0  0  0  0  0  0  0  0  0  0  0
    2.4221    3.8210    0.4351 C   0  0  0  0  0  0  0  0  0  0  0  0
    1.0290    4.8718    0.5856 Cl  0  0  0  0  0  0  0  0  0  0  0  0
    2.2258    2.4700    0.1257 C   0  0  0  0  0  0  0  0  0  0  0  0
    3.5634   -0.7076    0.8487 N   0  0  0  0  0  0  0  0  0  0  0  0
    2.6554   -0.7052    1.9883 C   0  0  0  0  0  0  0  0  0  0  0  0
    4.7599   -1.3525    0.7942 C   0  0  0  0  0  0  0  0  0  0  0  0
    5.5649   -1.1731   -0.1198 O   0  0  0  0  0  0  0  0  0  0  0  0
    5.2176   -2.3683    1.8812 C   0  0  1  0  0  0  0  0  0  0  0  0
    6.1066   -1.6706    2.9194 C   0  0  0  0  0  0  0  0  0  0  0  0
    4.1937   -3.2899    2.4070 N   0  0  0  0  0  0  0  0  0  0  0  0
    3.7374   -4.4177    1.7060 C   0  0  0  0  0  0  0  0  0  0  0  0
    4.1065   -4.8806    0.3716 C   0  0  0  0  0  0  0  0  0  0  0  0
    4.7979   -4.3039   -0.6812 C   0  0  0  0  0  0  0  0  0  0  0  0
    4.8996   -5.1635   -1.8127 C   0  0  0  0  0  0  0  0  0  0  0  0
    4.2904   -6.3770   -1.6156 C   0  0  0  0  0  0  0  0  0  0  0  0
    3.5812   -6.5017   -0.0500 S   0  0  0  0  0  0  0  0  0  0  0  0
    2.9088   -5.1146    2.4418 N   0  0  0  0  0  0  0  0  0  0  0  0
    2.8451   -4.4521    3.6130 N   0  0  0  0  0  0  0  0  0  0  0  0
    2.2696   -4.7829    4.3788 H   0  0  0  0  0  0  0  0  0  0  0  0
    3.6098   -3.3284    3.6779 C   0  0  0  0  0  0  0  0  0  0  0  0
    3.7144   -2.3252    5.0097 S   0  0  0  0  0  0  0  0  0  0  0  0
    1.5826    0.2681   -1.7822 H   0  0  0  0  0  0  0  0  0  0  0  0
    0.9919   -0.1318   -0.1548 H   0  0  0  0  0  0  0  0  0  0  0  0
    1.8277   -1.3681   -1.1226 H   0  0  0  0  0  0  0  0  0  0  0  0
    3.9383   -0.1090   -1.0779 H   0  0  0  0  0  0  0  0  0  0  0  0
    5.4805    1.4742    0.0740 H   0  0  0  0  0  0  0  0  0  0  0  0
    5.8094    3.8806    0.6284 H   0  0  0  0  0  0  0  0  0  0  0  0
    3.8331    5.3985    0.8609 H   0  0  0  0  0  0  0  0  0  0  0  0
    1.2069    2.1112   -0.0195 H   0  0  0  0  0  0  0  0  0  0  0  0
    2.1958    0.2910    2.0704 H   0  0  0  0  0  0  0  0  0  0  0  0
    3.1785   -0.8922    2.9336 H   0  0  0  0  0  0  0  0  0  0  0  0
    1.8475   -1.4487    1.8828 H   0  0  0  0  0  0  0  0  0  0  0  0
    5.8908   -3.0137    1.3041 H   0  0  0  0  0  0  0  0  0  0  0  0
    5.5789   -0.9037    3.4958 H   0  0  0  0  0  0  0  0  0  0  0  0
    6.9336   -1.2060    2.3624 H   0  0  0  0  0  0  0  0  0  0  0  0
    6.5223   -2.3978    3.6303 H   0  0  0  0  0  0  0  0  0  0  0  0
    5.2191   -3.2995   -0.6806 H   0  0  0  0  0  0  0  0  0  0  0  0
    5.4072   -4.8819   -2.7361 H   0  0  0  0  0  0  0  0  0  0  0  0
    4.2177   -7.2121   -2.3116 H   0  0  0  0  0  0  0  0  0  0  0  0
  1  2  1  0
  1 28  1  0
  1 29  1  0
  1 30  1  0
  2  3  1  0
  2 10  1  0
  2 31  1  6
  3  4  2  0
  3  9  1  0
  4  5  1  0
  4 32  1  0
  5  6  2  0
  5 33  1  0
  6  7  1  0
  6 34  1  0
  7  8  1  0
  7  9  2  0
  9 35  1  0
 10 11  1  0
 10 12  1  0
 11 36  1  0
 11 37  1  0
 11 38  1  0
 12 13  2  0
 12 14  1  0
 14 15  1  0
 14 16  1  0
 14 39  1  6
 15 40  1  0
 15 41  1  0
 15 42  1  0
 16 17  1  0
 16 26  1  0
 17 18  1  0
 17 23  2  0
 18 19  2  0
 18 22  1  0
 19 20  1  0
 19 43  1  0
 20 21  2  0
 20 44  1  0
 21 22  1  0
 21 45  1  0
 23 24  1  0
 24 25  1  0
 24 26  1  0
 26 27  2  0
M  END

