
     RDKit          3D

 45 49  0  0  0  0  0  0  0  0999 V2000
    0.9212   -0.1763    0.2651 C   0  0  0  0  0  0  0  0  0  0  0  0
    2.4229   -0.0826    0.1748 C   0  0  0  0  0  0  0  0  0  0  0  0
    3.0645    1.1761    0.3946 C   0  0  0  0  0  0  0  0  0  0  0  0
    4.4312    1.3044    0.3221 C   0  0  0  0  0  0  0  0  0  0  0  0
    5.2546    0.1805    0.0222 C   0  0  0  0  0  0  0  0  0  0  0  0
    6.6638    0.2537   -0.0652 C   0  0  0  0  0  0  0  0  0  0  0  0
    7.3820   -0.8910   -0.3689 C   0  0  0  0  0  0  0  0  0  0  0  0
    8.8143   -1.0877   -0.5198 C   0  0  0  0  0  0  0  0  0  0  0  0
    9.7256   -0.0901   -0.3532 N   0  0  0  0  0  0  0  0  0  0  0  0
    9.1284   -2.4075   -0.8158 C   0  0  0  0  0  0  0  0  0  0  0  0
   10.4942   -2.8622   -1.1000 C   0  0  0  0  0  0  0  0  0  0  0  0
   11.4589   -2.0888   -1.0068 O   0  0  0  0  0  0  0  0  0  0  0  0
   10.6594   -4.1697   -1.4677 N   0  0  0  0  0  0  0  0  0  0  0  0
   11.9603   -4.7137   -1.8338 C   0  0  0  0  0  0  0  0  0  0  0  0
   12.2309   -4.7334   -3.3287 C   0  0  0  0  0  0  0  0  0  0  0  0
   12.5264   -3.5388   -4.0032 C   0  0  0  0  0  0  0  0  0  0  0  0
   12.7582   -3.5085   -5.3909 C   0  0  0  0  0  0  0  0  0  0  0  0
   12.6804   -4.7129   -6.0691 C   0  0  0  0  0  0  0  0  0  0  0  0
   12.3898   -5.9073   -5.4076 C   0  0  0  0  0  0  0  0  0  0  0  0
   12.1618   -5.9508   -4.0433 C   0  0  0  0  0  0  0  0  0  0  0  0
   12.4098   -6.9392   -6.3072 O   0  0  0  0  0  0  0  0  0  0  0  0
   12.5393   -6.3372   -7.5920 C   0  0  0  0  0  0  0  0  0  0  0  0
   12.8896   -4.9707   -7.3973 O   0  0  0  0  0  0  0  0  0  0  0  0
    7.6981   -3.4705   -0.8816 S   0  0  0  0  0  0  0  0  0  0  0  0
    6.6346   -2.1049   -0.5575 C   0  0  0  0  0  0  0  0  0  0  0  0
    5.3343   -2.2180   -0.4801 N   0  0  0  0  0  0  0  0  0  0  0  0
    4.6227   -1.0954   -0.1990 C   0  0  0  0  0  0  0  0  0  0  0  0
    3.2041   -1.1844   -0.1147 C   0  0  0  0  0  0  0  0  0  0  0  0
    0.4369    0.4943   -0.4650 H   0  0  0  0  0  0  0  0  0  0  0  0
    0.5638    0.1291    1.2633 H   0  0  0  0  0  0  0  0  0  0  0  0
    0.5659   -1.1992    0.0751 H   0  0  0  0  0  0  0  0  0  0  0  0
    2.4495    2.0507    0.6251 H   0  0  0  0  0  0  0  0  0  0  0  0
    4.9056    2.2749    0.4933 H   0  0  0  0  0  0  0  0  0  0  0  0
    7.1638    1.2100    0.1161 H   0  0  0  0  0  0  0  0  0  0  0  0
    9.4332    0.8676   -0.4951 H   0  0  0  0  0  0  0  0  0  0  0  0
   10.6852   -0.3536   -0.5824 H   0  0  0  0  0  0  0  0  0  0  0  0
    9.8379   -4.7176   -1.6973 H   0  0  0  0  0  0  0  0  0  0  0  0
   12.0389   -5.7348   -1.4270 H   0  0  0  0  0  0  0  0  0  0  0  0
   12.7064   -4.0890   -1.3242 H   0  0  0  0  0  0  0  0  0  0  0  0
   12.5725   -2.6112   -3.4280 H   0  0  0  0  0  0  0  0  0  0  0  0
   12.9954   -2.5805   -5.9135 H   0  0  0  0  0  0  0  0  0  0  0  0
   11.9449   -6.8970   -3.5429 H   0  0  0  0  0  0  0  0  0  0  0  0
   11.5736   -6.4019   -8.1331 H   0  0  0  0  0  0  0  0  0  0  0  0
   13.3317   -6.8471   -8.1638 H   0  0  0  0  0  0  0  0  0  0  0  0
    2.7585   -2.1664   -0.2882 H   0  0  0  0  0  0  0  0  0  0  0  0
  1  2  1  0
  1 29  1  0
  1 30  1  0
  1 31  1  0
  2  3  2  0
  2 28  1  0
  3  4  1  0
  3 32  1  0
  4  5  2  0
  4 33  1  0
  5  6  1  0
  5 27  1  0
  6  7  2  0
  6 34  1  0
  7  8  1  0
  7 25  1  0
  8  9  1  0
  8 10  2  0
  9 35  1  0
  9 36  1  0
 10 11  1  0
 10 24  1  0
 11 12  2  0
 11 13  1  0
 13 14  1  0
 13 37  1  0
 14 15  1  0
 14 38  1  0
 14 39  1  0
 15 16  2  0
 15 20  1  0
 16 17  1  0
 16 40  1  0
 17 18  2  0
 17 41  1  0
 18 19  1  0
 18 23  1  0
 19 20  2  0
 19 21  1  0
 20 42  1  0
 21 22  1  0
 22 23  1  0
 22 43  1  0
 22 44  1  0
 24 25  1  0
 25 26  2  0
 26 27  1  0
 27 28  2  0
 28 45  1  0
M  END

