
     RDKit          3D

 51 53  0  0  0  0  0  0  0  0999 V2000
    1.2253    0.2099    0.9878 C   0  0  0  0  0  0  0  0  0  0  0  0
    2.6397   -0.0179    0.8375 N   0  0  0  0  0  0  0  0  0  0  0  0
    3.1385   -1.1698    0.5882 C   0  0  0  0  0  0  0  0  0  0  0  0
    2.3205   -2.4302    0.4490 C   0  0  0  0  0  0  0  0  0  0  0  0
    2.0349   -2.9589   -0.8202 C   0  0  0  0  0  0  0  0  0  0  0  0
    1.2548   -4.1111   -0.9510 C   0  0  0  0  0  0  0  0  0  0  0  0
    0.7565   -4.7550    0.1856 C   0  0  0  0  0  0  0  0  0  0  0  0
    1.0398   -4.2392    1.4535 C   0  0  0  0  0  0  0  0  0  0  0  0
    1.8148   -3.0832    1.5841 C   0  0  0  0  0  0  0  0  0  0  0  0
    4.6216   -1.2821    0.4188 C   0  0  0  0  0  0  0  0  0  0  0  0
    5.4035   -0.1001    0.4048 C   0  0  0  0  0  0  0  0  0  0  0  0
    6.7824   -0.1380    0.2486 C   0  0  0  0  0  0  0  0  0  0  0  0
    7.4037   -1.3888    0.1147 C   0  0  0  0  0  0  0  0  0  0  0  0
    8.7404   -1.6836   -0.0920 N   0  0  0  0  0  0  0  0  0  0  0  0
    8.8199   -2.9807   -0.1848 C   0  0  0  0  0  0  0  0  0  0  0  0
    9.9933   -3.6974   -0.3458 N   0  0  0  0  0  0  0  0  0  0  0  0
   10.1412   -4.4765   -1.5829 C   0  0  0  0  0  0  0  0  0  0  0  0
   11.2003   -2.9470   -0.0086 C   0  0  0  0  0  0  0  0  0  0  0  0
    7.5586   -3.6203   -0.0433 N   0  0  0  0  0  0  0  0  0  0  0  0
    7.3046   -5.2549    0.5130 S   0  0  1  0  0  0  0  0  0  0  0  0
    5.8755   -5.3612    0.7991 O   0  0  0  0  0  0  0  0  0  0  0  0
    7.9306   -6.1594   -0.4480 O   0  0  0  0  0  0  0  0  0  0  0  0
    8.2500   -5.3344    2.0869 C   0  0  1  0  0  0  0  0  0  0  0  0
    7.6681   -4.3683    3.1131 C   0  0  0  0  0  0  0  0  0  0  0  0
    8.2481   -6.7963    2.5392 C   0  0  0  0  0  0  0  0  0  0  0  0
    6.6258   -2.5672    0.1429 C   0  0  0  0  0  0  0  0  0  0  0  0
    5.2375   -2.5386    0.2779 C   0  0  0  0  0  0  0  0  0  0  0  0
    1.0261    0.5851    2.0077 H   0  0  0  0  0  0  0  0  0  0  0  0
    0.5731   -0.6635    0.8059 H   0  0  0  0  0  0  0  0  0  0  0  0
    0.9219    1.0232    0.3054 H   0  0  0  0  0  0  0  0  0  0  0  0
    2.4282   -2.4625   -1.7113 H   0  0  0  0  0  0  0  0  0  0  0  0
    1.0383   -4.5097   -1.9456 H   0  0  0  0  0  0  0  0  0  0  0  0
    0.1507   -5.6590    0.0833 H   0  0  0  0  0  0  0  0  0  0  0  0
    0.6565   -4.7395    2.3467 H   0  0  0  0  0  0  0  0  0  0  0  0
    2.0342   -2.6829    2.5776 H   0  0  0  0  0  0  0  0  0  0  0  0
    4.8759    0.8480    0.5164 H   0  0  0  0  0  0  0  0  0  0  0  0
    7.3821    0.7740    0.2193 H   0  0  0  0  0  0  0  0  0  0  0  0
    9.2076   -4.9893   -1.8301 H   0  0  0  0  0  0  0  0  0  0  0  0
   10.9184   -5.2422   -1.4397 H   0  0  0  0  0  0  0  0  0  0  0  0
   10.4410   -3.8230   -2.4255 H   0  0  0  0  0  0  0  0  0  0  0  0
   11.0809   -2.4540    0.9649 H   0  0  0  0  0  0  0  0  0  0  0  0
   11.4307   -2.1651   -0.7559 H   0  0  0  0  0  0  0  0  0  0  0  0
   12.0462   -3.6492    0.0423 H   0  0  0  0  0  0  0  0  0  0  0  0
    9.2604   -5.0318    1.7705 H   0  0  0  0  0  0  0  0  0  0  0  0
    6.6253   -4.6277    3.3479 H   0  0  0  0  0  0  0  0  0  0  0  0
    7.6971   -3.3241    2.7691 H   0  0  0  0  0  0  0  0  0  0  0  0
    8.2596   -4.4326    4.0401 H   0  0  0  0  0  0  0  0  0  0  0  0
    7.2271   -7.1345    2.7742 H   0  0  0  0  0  0  0  0  0  0  0  0
    8.8596   -6.8889    3.4504 H   0  0  0  0  0  0  0  0  0  0  0  0
    8.6689   -7.4553    1.7675 H   0  0  0  0  0  0  0  0  0  0  0  0
    4.6587   -3.4586    0.2858 H   0  0  0  0  0  0  0  0  0  0  0  0
  1  2  1  0
  1 28  1  0
  1 29  1  0
  1 30  1  0
  2  3  2  0
  3  4  1  0
  3 10  1  0
  4  5  2  0
  4  9  1  0
  5  6  1  0
  5 31  1  0
  6  7  2  0
  6 32  1  0
  7  8  1  0
  7 33  1  0
  8  9  2  0
  8 34  1  0
  9 35  1  0
 10 11  2  0
 10 27  1  0
 11 12  1  0
 11 36  1  0
 12 13  2  0
 12 37  1  0
 13 14  1  0
 13 26  1  0
 14 15  2  0
 15 16  1  0
 15 19  1  0
 16 17  1  0
 16 18  1  0
 17 38  1  0
 17 39  1  0
 17 40  1  0
 18 41  1  0
 18 42  1  0
 18 43  1  0
 20 19  1  6
 19 26  1  0
 20 21  2  0
 20 22  2  0
 20 23  1  0
 23 24  1  0
 23 25  1  0
 23 44  1  6
 24 45  1  0
 24 46  1  0
 24 47  1  0
 25 48  1  0
 25 49  1  0
 25 50  1  0
 26 27  2  0
 27 51  1  0
M  END

