
     RDKit          3D

 79 81  0  0  0  0  0  0  0  0999 V2000
   11.0476   -1.0637   -2.0162 N   0  0  0  0  0  0  0  0  0  0  0  0
    9.9587   -0.6109   -1.1574 C   0  0  0  0  0  0  0  0  0  0  0  0
    8.5822   -1.0874   -1.6380 C   0  0  0  0  0  0  0  0  0  0  0  0
    8.3355   -2.5268   -1.4995 N   0  0  0  0  0  0  0  0  0  0  0  0
    8.3209   -3.3720   -2.7005 C   0  0  0  0  0  0  0  0  0  0  0  0
    9.6723   -3.9575   -3.1249 C   0  0  0  0  0  0  0  0  0  0  0  0
   10.1406   -4.9769   -2.1921 N   0  0  0  0  0  0  0  0  0  0  0  0
    8.0463   -2.9708   -0.2407 C   0  0  0  0  0  0  0  0  0  0  0  0
    8.0025   -2.1877    0.7124 O   0  0  0  0  0  0  0  0  0  0  0  0
    7.7806   -4.4573   -0.0171 C   0  0  0  0  0  0  0  0  0  0  0  0
    8.0598   -4.8606    1.4430 C   0  0  2  0  0  0  0  0  0  0  0  0
    8.0045   -5.9639    1.4861 H   0  0  0  0  0  0  0  0  0  0  0  0
    7.1560   -4.3359    2.4621 N   0  0  0  0  0  0  0  0  0  0  0  0
    9.5172   -4.5358    1.8163 C   0  0  0  0  0  0  0  0  0  0  0  0
   10.4223   -4.5114    0.9716 O   0  0  0  0  0  0  0  0  0  0  0  0
    9.7294   -4.3457    3.1305 N   0  0  0  0  0  0  0  0  0  0  0  0
   11.0111   -3.9350    3.7006 C   0  0  1  0  0  0  0  0  0  0  0  0
   11.4865   -3.2611    2.9651 H   0  0  0  0  0  0  0  0  0  0  0  0
   10.7885   -3.1953    5.0205 C   0  0  0  0  0  0  0  0  0  0  0  0
   12.0271   -2.4293    5.5179 C   0  0  0  0  0  0  0  0  0  0  0  0
   11.8026   -1.7648    6.8589 C   0  0  0  0  0  0  0  0  0  0  0  0
   11.9496   -2.4984    8.0483 C   0  0  0  0  0  0  0  0  0  0  0  0
   11.7136   -1.9053    9.2910 C   0  0  0  0  0  0  0  0  0  0  0  0
   11.3253   -0.5637    9.3677 C   0  0  0  0  0  0  0  0  0  0  0  0
   11.1760    0.1780    8.1926 C   0  0  0  0  0  0  0  0  0  0  0  0
   11.4124   -0.4198    6.9507 C   0  0  0  0  0  0  0  0  0  0  0  0
   11.9594   -5.1561    3.8767 C   0  0  0  0  0  0  0  0  0  0  0  0
   12.3320   -5.5391    4.9733 O   0  0  0  0  0  0  0  0  0  0  0  0
   12.3131   -5.7188    2.6806 N   0  0  0  0  0  0  0  0  0  0  0  0
   13.0913   -6.8627    2.4387 C   0  0  0  0  0  0  0  0  0  0  0  0
   13.8173   -7.5402    3.4343 C   0  0  0  0  0  0  0  0  0  0  0  0
   14.5618   -8.6739    3.0911 C   0  0  0  0  0  0  0  0  0  0  0  0
   14.5990   -9.1465    1.7815 C   0  0  0  0  0  0  0  0  0  0  0  0
   13.8912   -8.4651    0.7748 C   0  0  0  0  0  0  0  0  0  0  0  0
   13.9070   -9.0441   -0.6120 C   0  0  0  0  0  0  0  0  0  0  0  0
   14.1278  -10.2323   -0.7753 O   0  0  0  0  0  0  0  0  0  0  0  0
   13.6443   -8.1699   -1.8117 C   0  0  0  0  0  0  0  0  0  0  0  0
   13.0764   -8.7759   -2.9467 C   0  0  0  0  0  0  0  0  0  0  0  0
   12.8506   -8.0380   -4.1077 C   0  0  0  0  0  0  0  0  0  0  0  0
   13.2156   -6.6869   -4.1612 C   0  0  0  0  0  0  0  0  0  0  0  0
   13.8066   -6.0809   -3.0482 C   0  0  0  0  0  0  0  0  0  0  0  0
   14.0157   -6.8161   -1.8770 C   0  0  0  0  0  0  0  0  0  0  0  0
   13.1360   -7.3348    1.1136 C   0  0  0  0  0  0  0  0  0  0  0  0
   11.9458   -0.9682   -1.5447 H   0  0  0  0  0  0  0  0  0  0  0  0
   11.1044   -0.4971   -2.8633 H   0  0  0  0  0  0  0  0  0  0  0  0
    9.9007    0.4941   -1.0532 H   0  0  0  0  0  0  0  0  0  0  0  0
   10.1141   -1.0074   -0.1436 H   0  0  0  0  0  0  0  0  0  0  0  0
    8.4433   -0.8228   -2.6985 H   0  0  0  0  0  0  0  0  0  0  0  0
    7.8192   -0.5516   -1.0524 H   0  0  0  0  0  0  0  0  0  0  0  0
    7.9294   -2.7523   -3.5243 H   0  0  0  0  0  0  0  0  0  0  0  0
    7.6019   -4.1913   -2.5578 H   0  0  0  0  0  0  0  0  0  0  0  0
   10.3817   -3.1197   -3.2671 H   0  0  0  0  0  0  0  0  0  0  0  0
    9.5115   -4.4343   -4.1083 H   0  0  0  0  0  0  0  0  0  0  0  0
   10.4510   -4.5560   -1.3126 H   0  0  0  0  0  0  0  0  0  0  0  0
   10.9472   -5.4685   -2.5762 H   0  0  0  0  0  0  0  0  0  0  0  0
    8.3903   -5.0715   -0.6933 H   0  0  0  0  0  0  0  0  0  0  0  0
    6.7203   -4.6698   -0.2439 H   0  0  0  0  0  0  0  0  0  0  0  0
    6.2472   -4.7933    2.4148 H   0  0  0  0  0  0  0  0  0  0  0  0
    7.0242   -3.3384    2.2784 H   0  0  0  0  0  0  0  0  0  0  0  0
    8.8788   -4.3425    3.6964 H   0  0  0  0  0  0  0  0  0  0  0  0
   10.4815   -3.9246    5.7871 H   0  0  0  0  0  0  0  0  0  0  0  0
    9.9545   -2.4875    4.8830 H   0  0  0  0  0  0  0  0  0  0  0  0
   12.3055   -1.6674    4.7697 H   0  0  0  0  0  0  0  0  0  0  0  0
   12.8690   -3.1332    5.5966 H   0  0  0  0  0  0  0  0  0  0  0  0
   12.2567   -3.5471    7.9937 H   0  0  0  0  0  0  0  0  0  0  0  0
   11.8375   -2.4923   10.2051 H   0  0  0  0  0  0  0  0  0  0  0  0
   11.1436   -0.0978   10.3397 H   0  0  0  0  0  0  0  0  0  0  0  0
   10.8770    1.2286    8.2419 H   0  0  0  0  0  0  0  0  0  0  0  0
   11.2974    0.1700    6.0361 H   0  0  0  0  0  0  0  0  0  0  0  0
   11.8646   -5.2953    1.8590 H   0  0  0  0  0  0  0  0  0  0  0  0
   13.7785   -7.1781    4.4594 H   0  0  0  0  0  0  0  0  0  0  0  0
   15.1190   -9.1966    3.8729 H   0  0  0  0  0  0  0  0  0  0  0  0
   15.1622  -10.0415    1.5130 H   0  0  0  0  0  0  0  0  0  0  0  0
   12.8209   -9.8361   -2.8952 H   0  0  0  0  0  0  0  0  0  0  0  0
   12.3957   -8.5169   -4.9785 H   0  0  0  0  0  0  0  0  0  0  0  0
   13.0489   -6.1100   -5.0748 H   0  0  0  0  0  0  0  0  0  0  0  0
   14.1129   -5.0327   -3.0926 H   0  0  0  0  0  0  0  0  0  0  0  0
   14.4940   -6.3390   -1.0199 H   0  0  0  0  0  0  0  0  0  0  0  0
   12.5394   -6.8234    0.3557 H   0  0  0  0  0  0  0  0  0  0  0  0
  1  2  1  0
  1 44  1  0
  1 45  1  0
  2  3  1  0
  2 46  1  0
  2 47  1  0
  3  4  1  0
  3 48  1  0
  3 49  1  0
  4  5  1  0
  4  8  1  0
  5  6  1  0
  5 50  1  0
  5 51  1  0
  6  7  1  0
  6 52  1  0
  6 53  1  0
  7 54  1  0
  7 55  1  0
  8  9  2  0
  8 10  1  0
 10 11  1  0
 10 56  1  0
 10 57  1  0
 11 12  1  6
 11 13  1  0
 11 14  1  0
 13 58  1  0
 13 59  1  0
 14 15  2  0
 14 16  1  0
 16 17  1  0
 16 60  1  0
 17 18  1  6
 17 19  1  0
 17 27  1  0
 19 20  1  0
 19 61  1  0
 19 62  1  0
 20 21  1  0
 20 63  1  0
 20 64  1  0
 21 22  2  0
 21 26  1  0
 22 23  1  0
 22 65  1  0
 23 24  2  0
 23 66  1  0
 24 25  1  0
 24 67  1  0
 25 26  2  0
 25 68  1  0
 26 69  1  0
 27 28  2  0
 27 29  1  0
 29 30  1  0
 29 70  1  0
 30 31  2  0
 30 43  1  0
 31 32  1  0
 31 71  1  0
 32 33  2  0
 32 72  1  0
 33 34  1  0
 33 73  1  0
 34 35  1  0
 34 43  2  0
 35 36  2  0
 35 37  1  0
 37 38  2  0
 37 42  1  0
 38 39  1  0
 38 74  1  0
 39 40  2  0
 39 75  1  0
 40 41  1  0
 40 76  1  0
 41 42  2  0
 41 77  1  0
 42 78  1  0
 43 79  1  0
M  END

