
     RDKit          3D

 37 38  0  0  0  0  0  0  0  0999 V2000
    1.0505   -0.3493    0.0394 C   0  0  0  0  0  0  0  0  0  0  0  0
    2.5213   -0.0200    0.0413 C   0  0  0  0  0  0  0  0  0  0  0  0
    3.0051    1.2901   -0.1322 C   0  0  0  0  0  0  0  0  0  0  0  0
    4.3730    1.5943   -0.1308 C   0  0  0  0  0  0  0  0  0  0  0  0
    4.8874    2.8853   -0.2893 N   0  0  0  0  0  0  0  0  0  0  0  0
    4.0343    4.0006   -0.6298 C   0  0  0  0  0  0  0  0  0  0  0  0
    4.8928    5.2469   -0.8514 C   0  0  0  0  0  0  0  0  0  0  0  0
    5.9267    5.0318   -1.8471 N   0  0  0  0  0  0  0  0  0  0  0  0
    5.4791    4.9210   -3.2334 C   0  0  0  0  0  0  0  0  0  0  0  0
    6.7854    4.9505   -4.0485 C   0  0  0  0  0  0  0  0  0  0  0  0
    7.8029    5.6780   -3.1261 C   0  0  0  0  0  0  0  0  0  0  0  0
    6.9901    6.0310   -1.8691 C   0  0  0  0  0  0  0  0  0  0  0  0
    5.3102    0.5442    0.0827 C   0  0  0  0  0  0  0  0  0  0  0  0
    6.6742    0.8673    0.0729 N   0  0  0  0  0  0  0  0  0  0  0  0
    4.8433   -0.7634    0.2403 C   0  0  0  0  0  0  0  0  0  0  0  0
    3.4737   -1.0216    0.2119 C   0  0  0  0  0  0  0  0  0  0  0  0
    3.0575   -2.2981    0.3739 F   0  0  0  0  0  0  0  0  0  0  0  0
    0.4451    0.5479   -0.1565 H   0  0  0  0  0  0  0  0  0  0  0  0
    0.7276   -0.7713    1.0063 H   0  0  0  0  0  0  0  0  0  0  0  0
    0.8046   -1.1014   -0.7286 H   0  0  0  0  0  0  0  0  0  0  0  0
    2.2775    2.0894   -0.2837 H   0  0  0  0  0  0  0  0  0  0  0  0
    5.7508    2.9132   -0.8338 H   0  0  0  0  0  0  0  0  0  0  0  0
    3.3241    4.2016    0.1912 H   0  0  0  0  0  0  0  0  0  0  0  0
    3.4134    3.8018   -1.5304 H   0  0  0  0  0  0  0  0  0  0  0  0
    5.3896    5.5003    0.0996 H   0  0  0  0  0  0  0  0  0  0  0  0
    4.2311    6.1044   -1.1146 H   0  0  0  0  0  0  0  0  0  0  0  0
    4.8273    5.7822   -3.5112 H   0  0  0  0  0  0  0  0  0  0  0  0
    4.8928    4.0035   -3.3964 H   0  0  0  0  0  0  0  0  0  0  0  0
    6.6444    5.4622   -5.0122 H   0  0  0  0  0  0  0  0  0  0  0  0
    7.1259    3.9283   -4.2707 H   0  0  0  0  0  0  0  0  0  0  0  0
    8.2370    6.5747   -3.5928 H   0  0  0  0  0  0  0  0  0  0  0  0
    8.6367    5.0080   -2.8683 H   0  0  0  0  0  0  0  0  0  0  0  0
    6.5737    7.0618   -1.9562 H   0  0  0  0  0  0  0  0  0  0  0  0
    7.5810    5.9962   -0.9394 H   0  0  0  0  0  0  0  0  0  0  0  0
    6.8784    1.7239    0.5868 H   0  0  0  0  0  0  0  0  0  0  0  0
    7.2808    0.1127    0.3784 H   0  0  0  0  0  0  0  0  0  0  0  0
    5.5354   -1.5927    0.4036 H   0  0  0  0  0  0  0  0  0  0  0  0
  1  2  1  0
  1 18  1  0
  1 19  1  0
  1 20  1  0
  2  3  2  0
  2 16  1  0
  3  4  1  0
  3 21  1  0
  4  5  1  0
  4 13  2  0
  5  6  1  0
  5 22  1  0
  6  7  1  0
  6 23  1  0
  6 24  1  0
  7  8  1  0
  7 25  1  0
  7 26  1  0
  8  9  1  0
  8 12  1  0
  9 10  1  0
  9 27  1  0
  9 28  1  0
 10 11  1  0
 10 29  1  0
 10 30  1  0
 11 12  1  0
 11 31  1  0
 11 32  1  0
 12 33  1  0
 12 34  1  0
 13 14  1  0
 13 15  1  0
 14 35  1  0
 14 36  1  0
 15 16  2  0
 15 37  1  0
 16 17  1  0
M  END

