
     RDKit          3D

 46 48  0  0  0  0  0  0  0  0999 V2000
    1.1442   -0.0452    0.6084 O   0  0  0  0  0  0  0  0  0  0  0  0
    2.0976    0.0214   -0.1565 C   0  0  0  0  0  0  0  0  0  0  0  0
    2.5624   -1.0591   -0.8497 N   0  0  0  0  0  0  0  0  0  0  0  0
    1.9794   -2.3801   -0.6983 C   0  0  0  0  0  0  0  0  0  0  0  0
    2.5834   -3.1909    0.4678 C   0  0  0  0  0  0  0  0  0  0  0  0
    1.9343   -4.5472    0.6255 C   0  0  0  0  0  0  0  0  0  0  0  0
    2.5026   -5.6965    0.0536 C   0  0  0  0  0  0  0  0  0  0  0  0
    1.8778   -6.9421    0.1682 C   0  0  0  0  0  0  0  0  0  0  0  0
    0.6676   -7.0585    0.8575 C   0  0  0  0  0  0  0  0  0  0  0  0
    0.0891   -5.9218    1.4316 C   0  0  0  0  0  0  0  0  0  0  0  0
    0.7173   -4.6793    1.3155 C   0  0  0  0  0  0  0  0  0  0  0  0
    2.8346    1.3056   -0.4098 C   0  0  1  0  0  0  0  0  0  0  0  0
    2.0481    2.5854   -0.3888 C   0  0  0  0  0  0  0  0  0  0  0  0
    2.9547    2.2672    0.7665 C   0  0  2  0  0  0  0  0  0  0  0  0
    4.2424    3.0295    0.8831 C   0  0  0  0  0  0  0  0  0  0  0  0
    4.8715    3.4058   -0.0984 O   0  0  0  0  0  0  0  0  0  0  0  0
    4.6491    3.2852    2.1604 N   0  0  0  0  0  0  0  0  0  0  0  0
    5.9049    3.9678    2.4412 C   0  0  0  0  0  0  0  0  0  0  0  0
    7.0976    3.0376    2.5511 C   0  0  0  0  0  0  0  0  0  0  0  0
    7.9134    2.7386    1.4497 C   0  0  0  0  0  0  0  0  0  0  0  0
    8.9983    1.8655    1.5723 C   0  0  0  0  0  0  0  0  0  0  0  0
    9.2826    1.2713    2.8061 C   0  0  0  0  0  0  0  0  0  0  0  0
    8.4806    1.5457    3.9175 C   0  0  0  0  0  0  0  0  0  0  0  0
    7.4054    2.4159    3.7659 C   0  0  0  0  0  0  0  0  0  0  0  0
    6.6232    2.6740    4.8354 F   0  0  0  0  0  0  0  0  0  0  0  0
    3.3905   -0.9491   -1.4218 H   0  0  0  0  0  0  0  0  0  0  0  0
    2.1009   -2.9307   -1.6449 H   0  0  0  0  0  0  0  0  0  0  0  0
    0.9014   -2.2484   -0.5257 H   0  0  0  0  0  0  0  0  0  0  0  0
    2.4551   -2.6004    1.3888 H   0  0  0  0  0  0  0  0  0  0  0  0
    3.6679   -3.3068    0.3030 H   0  0  0  0  0  0  0  0  0  0  0  0
    3.4530   -5.6161   -0.4830 H   0  0  0  0  0  0  0  0  0  0  0  0
    2.3404   -7.8254   -0.2801 H   0  0  0  0  0  0  0  0  0  0  0  0
    0.1786   -8.0316    0.9506 H   0  0  0  0  0  0  0  0  0  0  0  0
   -0.8552   -6.0039    1.9764 H   0  0  0  0  0  0  0  0  0  0  0  0
    0.2609   -3.7953    1.7711 H   0  0  0  0  0  0  0  0  0  0  0  0
    3.7017    1.2820   -1.0760 H   0  0  0  0  0  0  0  0  0  0  0  0
    0.9745    2.4971   -0.2068 H   0  0  0  0  0  0  0  0  0  0  0  0
    2.3780    3.3753   -1.0675 H   0  0  0  0  0  0  0  0  0  0  0  0
    2.4666    1.9339    1.6866 H   0  0  0  0  0  0  0  0  0  0  0  0
    4.1392    2.8719    2.9318 H   0  0  0  0  0  0  0  0  0  0  0  0
    5.7847    4.5364    3.3744 H   0  0  0  0  0  0  0  0  0  0  0  0
    6.0739    4.6783    1.6213 H   0  0  0  0  0  0  0  0  0  0  0  0
    7.6737    3.1959    0.4867 H   0  0  0  0  0  0  0  0  0  0  0  0
    9.6230    1.6484    0.7028 H   0  0  0  0  0  0  0  0  0  0  0  0
   10.1310    0.5900    2.9078 H   0  0  0  0  0  0  0  0  0  0  0  0
    8.6720    1.0985    4.8950 H   0  0  0  0  0  0  0  0  0  0  0  0
  1  2  2  0
  2  3  1  0
  2 12  1  0
  3  4  1  0
  3 26  1  0
  4  5  1  0
  4 27  1  0
  4 28  1  0
  5  6  1  0
  5 29  1  0
  5 30  1  0
  6  7  2  0
  6 11  1  0
  7  8  1  0
  7 31  1  0
  8  9  2  0
  8 32  1  0
  9 10  1  0
  9 33  1  0
 10 11  2  0
 10 34  1  0
 11 35  1  0
 12 13  1  0
 12 14  1  0
 12 36  1  6
 13 14  1  0
 13 37  1  0
 13 38  1  0
 14 15  1  0
 14 39  1  1
 15 16  2  0
 15 17  1  0
 17 18  1  0
 17 40  1  0
 18 19  1  0
 18 41  1  0
 18 42  1  0
 19 20  2  0
 19 24  1  0
 20 21  1  0
 20 43  1  0
 21 22  2  0
 21 44  1  0
 22 23  1  0
 22 45  1  0
 23 24  2  0
 23 46  1  0
 24 25  1  0
M  END

