
     RDKit          3D

 37 39  0  0  0  0  0  0  0  0999 V2000
    4.5241    2.9737   -0.6356 N   0  0  0  0  0  0  0  0  0  0  0  0
    4.3719    1.6705   -0.2618 C   0  0  0  0  0  0  0  0  0  0  0  0
    3.7319    1.4146    0.8963 N   0  0  0  0  0  0  0  0  0  0  0  0
    4.8562    0.7498   -1.0769 N   0  0  0  0  0  0  0  0  0  0  0  0
    4.6771   -0.5785   -0.8013 C   0  0  0  0  0  0  0  0  0  0  0  0
    4.1050   -1.0486    0.1973 O   0  0  0  0  0  0  0  0  0  0  0  0
    5.2422   -1.5145   -1.8277 C   0  0  0  0  0  0  0  0  0  0  0  0
    5.9073   -1.0547   -2.9761 C   0  0  0  0  0  0  0  0  0  0  0  0
    6.4376   -1.9571   -3.8952 C   0  0  0  0  0  0  0  0  0  0  0  0
    6.3078   -3.3329   -3.6775 C   0  0  0  0  0  0  0  0  0  0  0  0
    5.5996   -3.8254   -2.5517 C   0  0  0  0  0  0  0  0  0  0  0  0
    5.0932   -2.8954   -1.6348 C   0  0  0  0  0  0  0  0  0  0  0  0
    5.4191   -5.2899   -2.4458 C   0  0  0  0  0  0  0  0  0  0  0  0
    4.3982   -5.8813   -1.5377 C   0  0  0  0  0  0  0  0  0  0  0  0
    4.7217   -6.9699   -0.7088 C   0  0  0  0  0  0  0  0  0  0  0  0
    3.7589   -7.5627    0.1061 C   0  0  0  0  0  0  0  0  0  0  0  0
    2.4454   -7.0835    0.1148 C   0  0  0  0  0  0  0  0  0  0  0  0
    1.2652   -7.8412    1.1449 Cl  0  0  0  0  0  0  0  0  0  0  0  0
    2.1068   -5.9940   -0.7060 C   0  0  0  0  0  0  0  0  0  0  0  0
    0.4826   -5.3670   -0.7376 Cl  0  0  0  0  0  0  0  0  0  0  0  0
    3.0780   -5.4016   -1.5167 C   0  0  0  0  0  0  0  0  0  0  0  0
    6.1853   -6.0777   -3.2317 C   0  0  0  0  0  0  0  0  0  0  0  0
    7.2164   -5.4724   -4.1387 C   0  0  0  0  0  0  0  0  0  0  0  0
    6.8397   -4.1755   -4.5982 O   0  0  0  0  0  0  0  0  0  0  0  0
    4.4281    3.7220    0.0381 H   0  0  0  0  0  0  0  0  0  0  0  0
    5.1199    3.1325   -1.4382 H   0  0  0  0  0  0  0  0  0  0  0  0
    3.2604    2.1403    1.4187 H   0  0  0  0  0  0  0  0  0  0  0  0
    3.5961    0.4109    1.0786 H   0  0  0  0  0  0  0  0  0  0  0  0
    6.0099    0.0207   -3.1229 H   0  0  0  0  0  0  0  0  0  0  0  0
    6.9710   -1.6208   -4.7865 H   0  0  0  0  0  0  0  0  0  0  0  0
    4.5625   -3.2263   -0.7414 H   0  0  0  0  0  0  0  0  0  0  0  0
    5.7465   -7.3462   -0.6895 H   0  0  0  0  0  0  0  0  0  0  0  0
    4.0171   -8.4020    0.7541 H   0  0  0  0  0  0  0  0  0  0  0  0
    2.7848   -4.5634   -2.1494 H   0  0  0  0  0  0  0  0  0  0  0  0
    6.0671   -7.1644   -3.2312 H   0  0  0  0  0  0  0  0  0  0  0  0
    7.3619   -6.0812   -5.0432 H   0  0  0  0  0  0  0  0  0  0  0  0
    8.2030   -5.4017   -3.6296 H   0  0  0  0  0  0  0  0  0  0  0  0
  1  2  1  0
  1 25  1  0
  1 26  1  0
  2  3  1  0
  2  4  2  0
  3 27  1  0
  3 28  1  0
  4  5  1  0
  5  6  2  0
  5  7  1  0
  7  8  2  0
  7 12  1  0
  8  9  1  0
  8 29  1  0
  9 10  2  0
  9 30  1  0
 10 11  1  0
 10 24  1  0
 11 12  2  0
 11 13  1  0
 12 31  1  0
 13 14  1  0
 13 22  2  0
 14 15  2  0
 14 21  1  0
 15 16  1  0
 15 32  1  0
 16 17  2  0
 16 33  1  0
 17 18  1  0
 17 19  1  0
 19 20  1  0
 19 21  2  0
 21 34  1  0
 22 23  1  0
 22 35  1  0
 23 24  1  0
 23 36  1  0
 23 37  1  0
M  END

