
     RDKit          3D

 42 42  0  0  0  0  0  0  0  0999 V2000
    0.5112    0.8011   -1.4639 C   0  0  0  0  0  0  0  0  0  0  0  0
    1.8675    0.7436   -0.7849 C   0  0  0  0  0  0  0  0  0  0  0  0
    2.8539    0.4746   -1.7700 O   0  0  0  0  0  0  0  0  0  0  0  0
    4.1979    0.3984   -1.3301 C   0  0  1  0  0  0  0  0  0  0  0  0
    4.6240   -1.0808   -1.1239 C   0  0  1  0  0  0  0  0  0  0  0  0
    3.8778   -1.5062    0.0196 O   0  0  0  0  0  0  0  0  0  0  0  0
    4.3863   -2.0352   -2.2851 C   0  0  0  0  0  0  0  0  0  0  0  0
    3.0816   -2.4315   -2.5984 C   0  0  0  0  0  0  0  0  0  0  0  0
    2.8350   -3.3445   -3.6256 C   0  0  0  0  0  0  0  0  0  0  0  0
    1.1849   -3.8047   -3.9976 Cl  0  0  0  0  0  0  0  0  0  0  0  0
    3.8902   -3.8924   -4.3522 C   0  0  0  0  0  0  0  0  0  0  0  0
    5.2018   -3.5217   -4.0428 C   0  0  0  0  0  0  0  0  0  0  0  0
    5.4577   -2.5995   -3.0172 C   0  0  0  0  0  0  0  0  0  0  0  0
    6.7136   -2.1941   -2.6748 O   0  0  0  0  0  0  0  0  0  0  0  0
    7.8317   -2.7569   -3.3256 C   0  0  0  0  0  0  0  0  0  0  0  0
    5.0834    1.2967   -2.2480 C   0  0  1  0  0  0  0  0  0  0  0  0
    4.5860    2.7471   -2.0741 C   0  0  0  0  0  0  0  0  0  0  0  0
    6.5591    1.2298   -1.8117 C   0  0  0  0  0  0  0  0  0  0  0  0
    4.9531    0.9100   -3.7328 C   0  0  0  0  0  0  0  0  0  0  0  0
   -0.2774    1.0202   -0.7267 H   0  0  0  0  0  0  0  0  0  0  0  0
    0.2726   -0.1584   -1.9494 H   0  0  0  0  0  0  0  0  0  0  0  0
    0.4919    1.5851   -2.2371 H   0  0  0  0  0  0  0  0  0  0  0  0
    1.8853   -0.0376   -0.0055 H   0  0  0  0  0  0  0  0  0  0  0  0
    2.0871    1.7105   -0.2879 H   0  0  0  0  0  0  0  0  0  0  0  0
    4.2737    0.8255   -0.3119 H   0  0  0  0  0  0  0  0  0  0  0  0
    5.6993   -1.0869   -0.8890 H   0  0  0  0  0  0  0  0  0  0  0  0
    4.0253   -2.4540    0.1358 H   0  0  0  0  0  0  0  0  0  0  0  0
    2.2539   -2.0212   -2.0241 H   0  0  0  0  0  0  0  0  0  0  0  0
    3.6930   -4.6083   -5.1518 H   0  0  0  0  0  0  0  0  0  0  0  0
    6.0196   -3.9618   -4.6128 H   0  0  0  0  0  0  0  0  0  0  0  0
    7.8321   -2.5356   -4.4077 H   0  0  0  0  0  0  0  0  0  0  0  0
    7.8788   -3.8516   -3.1853 H   0  0  0  0  0  0  0  0  0  0  0  0
    8.7202   -2.2998   -2.8700 H   0  0  0  0  0  0  0  0  0  0  0  0
    4.6868    3.0838   -1.0286 H   0  0  0  0  0  0  0  0  0  0  0  0
    3.5289    2.8383   -2.3631 H   0  0  0  0  0  0  0  0  0  0  0  0
    5.1727    3.4343   -2.7046 H   0  0  0  0  0  0  0  0  0  0  0  0
    6.6730    1.4464   -0.7357 H   0  0  0  0  0  0  0  0  0  0  0  0
    7.1484    1.9820   -2.3613 H   0  0  0  0  0  0  0  0  0  0  0  0
    7.0054    0.2459   -2.0154 H   0  0  0  0  0  0  0  0  0  0  0  0
    3.8964    0.8783   -4.0348 H   0  0  0  0  0  0  0  0  0  0  0  0
    5.3997   -0.0713   -3.9441 H   0  0  0  0  0  0  0  0  0  0  0  0
    5.4704    1.6520   -4.3633 H   0  0  0  0  0  0  0  0  0  0  0  0
  1  2  1  0
  1 20  1  0
  1 21  1  0
  1 22  1  0
  2  3  1  0
  2 23  1  0
  2 24  1  0
  3  4  1  0
  4  5  1  0
  4 16  1  0
  4 25  1  1
  5  6  1  0
  5  7  1  0
  5 26  1  1
  6 27  1  0
  7  8  2  0
  7 13  1  0
  8  9  1  0
  8 28  1  0
  9 10  1  0
  9 11  2  0
 11 12  1  0
 11 29  1  0
 12 13  2  0
 12 30  1  0
 13 14  1  0
 14 15  1  0
 15 31  1  0
 15 32  1  0
 15 33  1  0
 16 17  1  6
 16 18  1  0
 16 19  1  0
 17 34  1  0
 17 35  1  0
 17 36  1  0
 18 37  1  0
 18 38  1  0
 18 39  1  0
 19 40  1  0
 19 41  1  0
 19 42  1  0
M  END

