
     RDKit          3D

 42 44  0  0  0  0  0  0  0  0999 V2000
    1.1931    0.7666   -1.5685 C   0  0  0  0  0  0  0  0  0  0  0  0
    2.6048    0.8001   -1.0007 C   0  0  0  0  0  0  0  0  0  0  0  0
    3.0008    1.6948   -0.2806 O   0  0  0  0  0  0  0  0  0  0  0  0
    3.3819   -0.2779   -1.3888 N   0  0  0  0  0  0  0  0  0  0  0  0
    4.7166   -0.5720   -1.0706 C   0  0  0  0  0  0  0  0  0  0  0  0
    5.5169    0.2467   -0.2468 C   0  0  0  0  0  0  0  0  0  0  0  0
    6.8320   -0.1172    0.0198 C   0  0  0  0  0  0  0  0  0  0  0  0
    7.4091   -1.2910   -0.5080 C   0  0  0  0  0  0  0  0  0  0  0  0
    8.7856   -1.7070   -0.2509 C   0  0  0  0  0  0  0  0  0  0  0  0
    9.7214   -1.0901    0.4993 C   0  0  0  0  0  0  0  0  0  0  0  0
   11.0788   -1.6870    0.6335 C   0  0  0  0  0  0  0  0  0  0  0  0
   11.4030   -2.7326    0.0882 O   0  0  0  0  0  0  0  0  0  0  0  0
   11.9257   -0.9413    1.4315 N   0  0  0  0  0  0  0  0  0  0  0  0
   13.2662   -1.1802    1.7892 C   0  0  0  0  0  0  0  0  0  0  0  0
   13.9815   -2.3167    1.3307 C   0  0  0  0  0  0  0  0  0  0  0  0
   15.3122   -2.5309    1.6998 C   0  0  0  0  0  0  0  0  0  0  0  0
   15.8965   -1.5849    2.5307 C   0  0  0  0  0  0  0  0  0  0  0  0
   17.1640   -1.5338    3.0458 O   0  0  0  0  0  0  0  0  0  0  0  0
   17.1848   -0.3835    3.7933 C   0  0  0  0  0  0  0  0  0  0  0  0
   18.4595   -0.0610    4.4859 C   0  0  0  0  0  0  0  0  0  0  0  0
   16.0772    0.2856    3.8017 N   0  0  0  0  0  0  0  0  0  0  0  0
   15.2120   -0.4526    2.9981 C   0  0  0  0  0  0  0  0  0  0  0  0
   13.8827   -0.2369    2.6308 C   0  0  0  0  0  0  0  0  0  0  0  0
    6.5932   -2.0954   -1.3287 C   0  0  0  0  0  0  0  0  0  0  0  0
    5.2763   -1.7472   -1.6059 C   0  0  0  0  0  0  0  0  0  0  0  0
    0.6403    1.6276   -1.1747 H   0  0  0  0  0  0  0  0  0  0  0  0
    0.6701   -0.1616   -1.2856 H   0  0  0  0  0  0  0  0  0  0  0  0
    1.2111    0.8230   -2.6695 H   0  0  0  0  0  0  0  0  0  0  0  0
    2.9304   -0.9564   -1.9915 H   0  0  0  0  0  0  0  0  0  0  0  0
    5.0912    1.1560    0.1701 H   0  0  0  0  0  0  0  0  0  0  0  0
    7.4261    0.5379    0.6611 H   0  0  0  0  0  0  0  0  0  0  0  0
    9.1066   -2.6411   -0.7261 H   0  0  0  0  0  0  0  0  0  0  0  0
    9.5093   -0.1507    1.0197 H   0  0  0  0  0  0  0  0  0  0  0  0
   11.5298   -0.0950    1.8221 H   0  0  0  0  0  0  0  0  0  0  0  0
   13.4666   -3.0208    0.6818 H   0  0  0  0  0  0  0  0  0  0  0  0
   15.8599   -3.4059    1.3456 H   0  0  0  0  0  0  0  0  0  0  0  0
   18.7381   -0.8666    5.1845 H   0  0  0  0  0  0  0  0  0  0  0  0
   18.3404    0.8767    5.0419 H   0  0  0  0  0  0  0  0  0  0  0  0
   19.2822    0.0452    3.7606 H   0  0  0  0  0  0  0  0  0  0  0  0
   13.3468    0.6438    2.9931 H   0  0  0  0  0  0  0  0  0  0  0  0
    7.0059   -3.0131   -1.7561 H   0  0  0  0  0  0  0  0  0  0  0  0
    4.6693   -2.3938   -2.2470 H   0  0  0  0  0  0  0  0  0  0  0  0
  1  2  1  0
  1 26  1  0
  1 27  1  0
  1 28  1  0
  2  3  2  0
  2  4  1  0
  4  5  1  0
  4 29  1  0
  5  6  2  0
  5 25  1  0
  6  7  1  0
  6 30  1  0
  7  8  2  0
  7 31  1  0
  8  9  1  0
  8 24  1  0
  9 10  2  0
  9 32  1  0
 10 11  1  0
 10 33  1  0
 11 12  2  0
 11 13  1  0
 13 14  1  0
 13 34  1  0
 14 15  2  0
 14 23  1  0
 15 16  1  0
 15 35  1  0
 16 17  2  0
 16 36  1  0
 17 18  1  0
 17 22  1  0
 18 19  1  0
 19 20  1  0
 19 21  2  0
 20 37  1  0
 20 38  1  0
 20 39  1  0
 21 22  1  0
 22 23  2  0
 23 40  1  0
 24 25  2  0
 24 41  1  0
 25 42  1  0
M  END

