
     RDKit          3D

 61 63  0  0  0  0  0  0  0  0999 V2000
    2.0193    1.4334   -3.7332 C   0  0  0  0  0  0  0  0  0  0  0  0
    1.9469    0.7283   -2.5121 O   0  0  0  0  0  0  0  0  0  0  0  0
    2.6389    1.1753   -1.4422 C   0  0  0  0  0  0  0  0  0  0  0  0
    3.4919    2.2885   -1.4474 C   0  0  0  0  0  0  0  0  0  0  0  0
    4.1626    2.6609   -0.2775 C   0  0  0  0  0  0  0  0  0  0  0  0
    3.9946    1.9414    0.9061 C   0  0  0  0  0  0  0  0  0  0  0  0
    3.1407    0.8346    0.9156 C   0  0  0  0  0  0  0  0  0  0  0  0
    2.4718    0.4458   -0.2431 C   0  0  0  0  0  0  0  0  0  0  0  0
    1.5934   -0.6942   -0.2404 N   0  0  0  0  0  0  0  0  0  0  0  0
    0.2036   -0.4006   -0.1375 C   0  0  0  0  0  0  0  0  0  0  0  0
   -0.7961   -1.5241   -0.2497 C   0  0  0  0  0  0  0  0  0  0  0  0
   -0.1289    0.7504    0.0374 O   0  0  0  0  0  0  0  0  0  0  0  0
    2.1651   -1.9446   -0.4613 C   0  0  0  0  0  0  0  0  0  0  0  0
    1.5609   -3.0933   -0.4121 N   0  0  0  0  0  0  0  0  0  0  0  0
    2.4211   -4.1343   -0.6826 C   0  0  0  0  0  0  0  0  0  0  0  0
    1.8956   -5.5411   -0.6924 C   0  0  0  0  0  0  0  0  0  0  0  0
    1.4353   -5.9453   -2.0043 O   0  0  0  0  0  0  0  0  0  0  0  0
    2.3504   -6.4473   -2.8328 C   0  0  0  0  0  0  0  0  0  0  0  0
    3.5230   -6.5839   -2.5738 O   0  0  0  0  0  0  0  0  0  0  0  0
    1.7950   -6.8166   -4.1996 C   0  0  0  0  0  0  0  0  0  0  0  0
    0.3968   -6.8693   -4.2023 O   0  0  0  0  0  0  0  0  0  0  0  0
   -0.2583   -7.1490   -5.3651 C   0  0  0  0  0  0  0  0  0  0  0  0
   -1.6580   -7.1537   -5.3020 C   0  0  0  0  0  0  0  0  0  0  0  0
   -2.3940   -7.4297   -6.4490 C   0  0  0  0  0  0  0  0  0  0  0  0
   -1.7859   -7.7080   -7.6866 C   0  0  0  0  0  0  0  0  0  0  0  0
   -2.6389   -8.0456   -8.9077 C   0  0  1  0  0  0  0  0  0  0  0  0
   -3.0520   -9.5304   -8.8998 C   0  0  0  0  0  0  0  0  0  0  0  0
   -3.8681   -7.1363   -9.0670 C   0  0  0  0  0  0  0  0  0  0  0  0
   -0.3750   -7.7089   -7.7436 C   0  0  0  0  0  0  0  0  0  0  0  0
    0.3727   -8.0064   -9.0253 C   0  0  0  0  0  0  0  0  0  0  0  0
    0.3712   -7.4272   -6.5841 C   0  0  0  0  0  0  0  0  0  0  0  0
    3.7180   -3.7753   -0.9364 C   0  0  0  0  0  0  0  0  0  0  0  0
    3.8932   -2.0524   -0.8431 S   0  0  0  0  0  0  0  0  0  0  0  0
    1.3671    0.9012   -4.4380 H   0  0  0  0  0  0  0  0  0  0  0  0
    3.0473    1.4480   -4.1368 H   0  0  0  0  0  0  0  0  0  0  0  0
    1.6598    2.4717   -3.6248 H   0  0  0  0  0  0  0  0  0  0  0  0
    3.6365    2.8700   -2.3578 H   0  0  0  0  0  0  0  0  0  0  0  0
    4.8237    3.5311   -0.2993 H   0  0  0  0  0  0  0  0  0  0  0  0
    4.5166    2.2405    1.8172 H   0  0  0  0  0  0  0  0  0  0  0  0
    2.9810    0.2583    1.8294 H   0  0  0  0  0  0  0  0  0  0  0  0
   -0.6588   -2.2616    0.5524 H   0  0  0  0  0  0  0  0  0  0  0  0
   -0.6747   -2.0774   -1.1913 H   0  0  0  0  0  0  0  0  0  0  0  0
   -1.7933   -1.0702   -0.1916 H   0  0  0  0  0  0  0  0  0  0  0  0
    1.0065   -5.6054   -0.0538 H   0  0  0  0  0  0  0  0  0  0  0  0
    2.6631   -6.2491   -0.3543 H   0  0  0  0  0  0  0  0  0  0  0  0
    2.2544   -7.7823   -4.4797 H   0  0  0  0  0  0  0  0  0  0  0  0
    2.1799   -6.0592   -4.9116 H   0  0  0  0  0  0  0  0  0  0  0  0
   -2.1428   -6.9368   -4.3482 H   0  0  0  0  0  0  0  0  0  0  0  0
   -3.4841   -7.4271   -6.3753 H   0  0  0  0  0  0  0  0  0  0  0  0
   -2.0162   -7.8877   -9.8022 H   0  0  0  0  0  0  0  0  0  0  0  0
   -3.6911   -9.7541   -8.0295 H   0  0  0  0  0  0  0  0  0  0  0  0
   -2.1748  -10.1941   -8.8430 H   0  0  0  0  0  0  0  0  0  0  0  0
   -3.6173   -9.7903   -9.8104 H   0  0  0  0  0  0  0  0  0  0  0  0
   -4.6067   -7.2937   -8.2644 H   0  0  0  0  0  0  0  0  0  0  0  0
   -4.3796   -7.3466  -10.0204 H   0  0  0  0  0  0  0  0  0  0  0  0
   -3.5863   -6.0717   -9.0593 H   0  0  0  0  0  0  0  0  0  0  0  0
    0.1478   -7.2677   -9.8131 H   0  0  0  0  0  0  0  0  0  0  0  0
    0.1143   -8.9967   -9.4347 H   0  0  0  0  0  0  0  0  0  0  0  0
    1.4599   -7.9910   -8.8606 H   0  0  0  0  0  0  0  0  0  0  0  0
    1.4595   -7.4339   -6.6567 H   0  0  0  0  0  0  0  0  0  0  0  0
    4.5531   -4.4278   -1.1827 H   0  0  0  0  0  0  0  0  0  0  0  0
  1  2  1  0
  1 34  1  0
  1 35  1  0
  1 36  1  0
  2  3  1  0
  3  4  2  0
  3  8  1  0
  4  5  1  0
  4 37  1  0
  5  6  2  0
  5 38  1  0
  6  7  1  0
  6 39  1  0
  7  8  2  0
  7 40  1  0
  8  9  1  0
  9 10  1  0
  9 13  1  0
 10 11  1  0
 10 12  2  0
 11 41  1  0
 11 42  1  0
 11 43  1  0
 13 14  2  0
 13 33  1  0
 14 15  1  0
 15 16  1  0
 15 32  2  0
 16 17  1  0
 16 44  1  0
 16 45  1  0
 17 18  1  0
 18 19  2  0
 18 20  1  0
 20 21  1  0
 20 46  1  0
 20 47  1  0
 21 22  1  0
 22 23  2  0
 22 31  1  0
 23 24  1  0
 23 48  1  0
 24 25  2  0
 24 49  1  0
 25 26  1  0
 25 29  1  0
 26 27  1  0
 26 28  1  0
 26 50  1  6
 27 51  1  0
 27 52  1  0
 27 53  1  0
 28 54  1  0
 28 55  1  0
 28 56  1  0
 29 30  1  0
 29 31  2  0
 30 57  1  0
 30 58  1  0
 30 59  1  0
 31 60  1  0
 32 33  1  0
 32 61  1  0
M  END

