
     RDKit          3D

 37 38  0  0  0  0  0  0  0  0999 V2000
    1.5175    1.4062    3.3983 C   0  0  0  0  0  0  0  0  0  0  0  0
    2.6249    1.4603    2.4642 N   0  0  0  0  0  0  0  0  0  0  0  0
    3.9279    1.6068    3.0864 C   0  0  0  0  0  0  0  0  0  0  0  0
    5.0569    1.5814    2.0783 C   0  0  0  0  0  0  0  0  0  0  0  0
    6.2057    2.3645    2.2321 C   0  0  0  0  0  0  0  0  0  0  0  0
    7.2374    2.2763    1.2951 C   0  0  0  0  0  0  0  0  0  0  0  0
    7.0883    1.4008    0.2137 C   0  0  0  0  0  0  0  0  0  0  0  0
    8.1493    1.2321   -0.8677 C   0  0  0  0  0  0  0  0  0  0  0  0
    9.3288    2.0645   -0.7442 N   0  0  0  0  0  0  0  0  0  0  0  0
    9.3866    3.2785   -1.5315 C   0  0  0  0  0  0  0  0  0  0  0  0
   10.4729    1.5981   -0.0993 C   0  0  0  0  0  0  0  0  0  0  0  0
   10.4297    0.4714    0.7581 C   0  0  0  0  0  0  0  0  0  0  0  0
   11.5757    0.0074    1.4031 C   0  0  0  0  0  0  0  0  0  0  0  0
   12.7893    0.6625    1.2150 C   0  0  0  0  0  0  0  0  0  0  0  0
   13.8935    0.2156    1.8431 F   0  0  0  0  0  0  0  0  0  0  0  0
   12.8686    1.7765    0.3872 C   0  0  0  0  0  0  0  0  0  0  0  0
   11.7240    2.2386   -0.2661 C   0  0  0  0  0  0  0  0  0  0  0  0
    5.9893    0.6527    0.0508 N   0  0  0  0  0  0  0  0  0  0  0  0
    5.0116    0.7416    0.9514 C   0  0  0  0  0  0  0  0  0  0  0  0
    0.5662    1.3354    2.8484 H   0  0  0  0  0  0  0  0  0  0  0  0
    1.4502    2.2787    4.0868 H   0  0  0  0  0  0  0  0  0  0  0  0
    1.6013    0.5038    4.0277 H   0  0  0  0  0  0  0  0  0  0  0  0
    2.4818    2.2033    1.7810 H   0  0  0  0  0  0  0  0  0  0  0  0
    4.0556    0.7624    3.7915 H   0  0  0  0  0  0  0  0  0  0  0  0
    4.0224    2.5255    3.7111 H   0  0  0  0  0  0  0  0  0  0  0  0
    6.2953    3.0450    3.0847 H   0  0  0  0  0  0  0  0  0  0  0  0
    8.1455    2.8730    1.3940 H   0  0  0  0  0  0  0  0  0  0  0  0
    7.6643    1.4315   -1.8377 H   0  0  0  0  0  0  0  0  0  0  0  0
    8.4297    0.1661   -0.9076 H   0  0  0  0  0  0  0  0  0  0  0  0
    8.3686    3.5738   -1.8196 H   0  0  0  0  0  0  0  0  0  0  0  0
    9.9850    3.1682   -2.4588 H   0  0  0  0  0  0  0  0  0  0  0  0
    9.8184    4.1132   -0.9540 H   0  0  0  0  0  0  0  0  0  0  0  0
    9.4870   -0.0421    0.9462 H   0  0  0  0  0  0  0  0  0  0  0  0
   11.5319   -0.8607    2.0644 H   0  0  0  0  0  0  0  0  0  0  0  0
   13.8304    2.2752    0.2498 H   0  0  0  0  0  0  0  0  0  0  0  0
   11.8191    3.1037   -0.9211 H   0  0  0  0  0  0  0  0  0  0  0  0
    4.1220    0.1246    0.7850 H   0  0  0  0  0  0  0  0  0  0  0  0
  1  2  1  0
  1 20  1  0
  1 21  1  0
  1 22  1  0
  2  3  1  0
  2 23  1  0
  3  4  1  0
  3 24  1  0
  3 25  1  0
  4  5  2  0
  4 19  1  0
  5  6  1  0
  5 26  1  0
  6  7  2  0
  6 27  1  0
  7  8  1  0
  7 18  1  0
  8  9  1  0
  8 28  1  0
  8 29  1  0
  9 10  1  0
  9 11  1  0
 10 30  1  0
 10 31  1  0
 10 32  1  0
 11 12  2  0
 11 17  1  0
 12 13  1  0
 12 33  1  0
 13 14  2  0
 13 34  1  0
 14 15  1  0
 14 16  1  0
 16 17  2  0
 16 35  1  0
 17 36  1  0
 18 19  2  0
 19 37  1  0
M  END

