
     RDKit          3D

 39 41  0  0  0  0  0  0  0  0999 V2000
   11.1884    1.3770   -5.6012 N   0  0  0  0  0  0  0  0  0  0  0  0
   11.2405    0.1694   -4.9779 C   0  0  0  0  0  0  0  0  0  0  0  0
   11.9036   -0.7758   -5.3257 O   0  0  0  0  0  0  0  0  0  0  0  0
   10.4219    0.2073   -3.8782 O   0  0  0  0  0  0  0  0  0  0  0  0
   10.2781   -0.8769   -3.0287 C   0  0  0  0  0  0  0  0  0  0  0  0
   11.3476   -1.6839   -2.6271 C   0  0  0  0  0  0  0  0  0  0  0  0
   11.0989   -2.7126   -1.7152 C   0  0  0  0  0  0  0  0  0  0  0  0
    9.8159   -2.9308   -1.2075 C   0  0  0  0  0  0  0  0  0  0  0  0
    8.7492   -2.1110   -1.6052 C   0  0  0  0  0  0  0  0  0  0  0  0
    7.3465   -2.3558   -1.0661 C   0  0  0  0  0  0  0  0  0  0  0  0
    6.5144   -3.2178   -1.9854 C   0  0  0  0  0  0  0  0  0  0  0  0
    6.4882   -4.4975   -1.7576 N   0  0  0  0  0  0  0  0  0  0  0  0
    5.7857   -5.3106   -2.5731 N   0  0  0  0  0  0  0  0  0  0  0  0
    5.8383   -6.7017   -2.2542 C   0  0  0  0  0  0  0  0  0  0  0  0
    6.0893   -7.0906   -0.9312 C   0  0  0  0  0  0  0  0  0  0  0  0
    6.1329   -8.4438   -0.6196 C   0  0  0  0  0  0  0  0  0  0  0  0
    6.3650   -8.8312    0.6328 F   0  0  0  0  0  0  0  0  0  0  0  0
    5.9276   -9.4279   -1.5920 C   0  0  0  0  0  0  0  0  0  0  0  0
    5.9682  -10.7183   -1.2770 F   0  0  0  0  0  0  0  0  0  0  0  0
    5.6868   -9.0174   -2.9045 C   0  0  0  0  0  0  0  0  0  0  0  0
    5.5107   -9.9464   -3.8426 F   0  0  0  0  0  0  0  0  0  0  0  0
    5.6491   -7.6696   -3.2509 C   0  0  0  0  0  0  0  0  0  0  0  0
    5.0495   -4.8217   -3.6213 C   0  0  0  0  0  0  0  0  0  0  0  0
    5.0269   -3.4928   -3.9131 C   0  0  0  0  0  0  0  0  0  0  0  0
    5.7908   -2.5560   -3.1089 C   0  0  0  0  0  0  0  0  0  0  0  0
    5.8391   -1.3430   -3.2929 O   0  0  0  0  0  0  0  0  0  0  0  0
    8.9903   -1.0847   -2.5285 C   0  0  0  0  0  0  0  0  0  0  0  0
   11.6784    1.4769   -6.4792 H   0  0  0  0  0  0  0  0  0  0  0  0
   10.5273    2.0829   -5.3065 H   0  0  0  0  0  0  0  0  0  0  0  0
   12.3452   -1.5188   -3.0292 H   0  0  0  0  0  0  0  0  0  0  0  0
   11.9256   -3.3516   -1.3940 H   0  0  0  0  0  0  0  0  0  0  0  0
    9.6414   -3.7402   -0.4939 H   0  0  0  0  0  0  0  0  0  0  0  0
    6.8250   -1.3952   -0.9453 H   0  0  0  0  0  0  0  0  0  0  0  0
    7.4084   -2.8547   -0.0892 H   0  0  0  0  0  0  0  0  0  0  0  0
    6.2554   -6.3494   -0.1523 H   0  0  0  0  0  0  0  0  0  0  0  0
    5.5047   -7.4190   -4.3010 H   0  0  0  0  0  0  0  0  0  0  0  0
    4.4668   -5.5538   -4.1797 H   0  0  0  0  0  0  0  0  0  0  0  0
    4.4251   -3.1141   -4.7403 H   0  0  0  0  0  0  0  0  0  0  0  0
    8.1732   -0.4481   -2.8718 H   0  0  0  0  0  0  0  0  0  0  0  0
  1  2  1  0
  1 28  1  0
  1 29  1  0
  2  3  2  0
  2  4  1  0
  4  5  1  0
  5  6  2  0
  5 27  1  0
  6  7  1  0
  6 30  1  0
  7  8  2  0
  7 31  1  0
  8  9  1  0
  8 32  1  0
  9 10  1  0
  9 27  2  0
 10 11  1  0
 10 33  1  0
 10 34  1  0
 11 12  2  0
 11 25  1  0
 12 13  1  0
 13 14  1  0
 13 23  1  0
 14 15  2  0
 14 22  1  0
 15 16  1  0
 15 35  1  0
 16 17  1  0
 16 18  2  0
 18 19  1  0
 18 20  1  0
 20 21  1  0
 20 22  2  0
 22 36  1  0
 23 24  2  0
 23 37  1  0
 24 25  1  0
 24 38  1  0
 25 26  2  0
 27 39  1  0
M  END

