
     RDKit          3D

 43 43  0  0  0  0  0  0  0  0999 V2000
    4.0280    2.1606   -2.7332 C   0  0  0  0  0  0  0  0  0  0  0  0
    4.8949    1.5593   -1.6318 C   0  0  0  0  0  0  0  0  0  0  0  0
    4.9897    2.7062   -0.2042 S   0  0  0  0  0  0  0  0  0  0  0  0
    6.0641    1.7183    0.8989 C   0  0  0  0  0  0  0  0  0  0  0  0
    6.3016    2.4750    2.1970 C   0  0  0  0  0  0  0  0  0  0  0  0
    7.1371    1.6676    3.0069 O   0  0  0  0  0  0  0  0  0  0  0  0
    7.5060    2.1030    4.2384 C   0  0  0  0  0  0  0  0  0  0  0  0
    7.1126    3.3358    4.7790 C   0  0  0  0  0  0  0  0  0  0  0  0
    7.5657    3.6629    6.0574 C   0  0  0  0  0  0  0  0  0  0  0  0
    7.1956    4.8463    6.5742 F   0  0  0  0  0  0  0  0  0  0  0  0
    8.3830    2.8268    6.8056 C   0  0  0  0  0  0  0  0  0  0  0  0
    8.7665    1.5903    6.2568 C   0  0  0  0  0  0  0  0  0  0  0  0
    9.6188    0.6362    7.0724 C   0  0  0  0  0  0  0  0  0  0  0  0
   10.4564   -0.2169    6.2500 N   0  0  0  0  0  0  0  0  0  0  0  0
   11.2370   -1.1945    6.9896 C   0  0  0  0  0  0  0  0  0  0  0  0
   12.0056   -2.1647    6.0792 C   0  0  1  0  0  0  0  0  0  0  0  0
   13.0272   -1.4456    5.1884 C   0  0  0  0  0  0  0  0  0  0  0  0
   12.6794   -3.2591    6.9154 C   0  0  0  0  0  0  0  0  0  0  0  0
    8.3284    1.2362    4.9793 C   0  0  0  0  0  0  0  0  0  0  0  0
    3.9699    1.4726   -3.5917 H   0  0  0  0  0  0  0  0  0  0  0  0
    4.4425    3.1162   -3.0912 H   0  0  0  0  0  0  0  0  0  0  0  0
    3.0024    2.3471   -2.3775 H   0  0  0  0  0  0  0  0  0  0  0  0
    5.9166    1.3676   -1.9996 H   0  0  0  0  0  0  0  0  0  0  0  0
    4.4773    0.5990   -1.2864 H   0  0  0  0  0  0  0  0  0  0  0  0
    7.0303    1.5208    0.4071 H   0  0  0  0  0  0  0  0  0  0  0  0
    5.5884    0.7493    1.1207 H   0  0  0  0  0  0  0  0  0  0  0  0
    5.3412    2.6746    2.7073 H   0  0  0  0  0  0  0  0  0  0  0  0
    6.7829    3.4492    1.9917 H   0  0  0  0  0  0  0  0  0  0  0  0
    6.4795    4.0461    4.2498 H   0  0  0  0  0  0  0  0  0  0  0  0
    8.7132    3.1444    7.7965 H   0  0  0  0  0  0  0  0  0  0  0  0
    8.9481   -0.0181    7.6622 H   0  0  0  0  0  0  0  0  0  0  0  0
   10.1909    1.2241    7.8256 H   0  0  0  0  0  0  0  0  0  0  0  0
   11.0640    0.3624    5.6720 H   0  0  0  0  0  0  0  0  0  0  0  0
   10.5366   -1.7769    7.6146 H   0  0  0  0  0  0  0  0  0  0  0  0
   11.9562   -0.7230    7.7022 H   0  0  0  0  0  0  0  0  0  0  0  0
   11.2557   -2.6393    5.4207 H   0  0  0  0  0  0  0  0  0  0  0  0
   13.7733   -0.9035    5.7959 H   0  0  0  0  0  0  0  0  0  0  0  0
   12.5477   -0.7219    4.5098 H   0  0  0  0  0  0  0  0  0  0  0  0
   13.5740   -2.1637    4.5561 H   0  0  0  0  0  0  0  0  0  0  0  0
   13.4327   -2.8316    7.5996 H   0  0  0  0  0  0  0  0  0  0  0  0
   13.1946   -3.9910    6.2729 H   0  0  0  0  0  0  0  0  0  0  0  0
   11.9469   -3.8094    7.5284 H   0  0  0  0  0  0  0  0  0  0  0  0
    8.6253    0.2819    4.5442 H   0  0  0  0  0  0  0  0  0  0  0  0
  1  2  1  0
  1 20  1  0
  1 21  1  0
  1 22  1  0
  2  3  1  0
  2 23  1  0
  2 24  1  0
  3  4  1  0
  4  5  1  0
  4 25  1  0
  4 26  1  0
  5  6  1  0
  5 27  1  0
  5 28  1  0
  6  7  1  0
  7  8  2  0
  7 19  1  0
  8  9  1  0
  8 29  1  0
  9 10  1  0
  9 11  2  0
 11 12  1  0
 11 30  1  0
 12 13  1  0
 12 19  2  0
 13 14  1  0
 13 31  1  0
 13 32  1  0
 14 15  1  0
 14 33  1  0
 15 16  1  0
 15 34  1  0
 15 35  1  0
 16 17  1  0
 16 18  1  0
 16 36  1  6
 17 37  1  0
 17 38  1  0
 17 39  1  0
 18 40  1  0
 18 41  1  0
 18 42  1  0
 19 43  1  0
M  END

