
     RDKit          3D

 44 46  0  0  0  0  0  0  0  0999 V2000
    1.4807   -1.3476   -0.1611 C   0  0  0  0  0  0  0  0  0  0  0  0
    2.8414   -0.7367    0.1226 C   0  0  0  0  0  0  0  0  0  0  0  0
    3.0795   -0.0889    1.1268 O   0  0  0  0  0  0  0  0  0  0  0  0
    3.7919   -0.9488   -0.8453 N   0  0  0  0  0  0  0  0  0  0  0  0
    5.0705   -0.2497   -0.8198 C   0  0  1  0  0  0  0  0  0  0  0  0
    4.8263    1.2399   -0.9250 C   0  0  0  0  0  0  0  0  0  0  0  0
    3.8454    1.8432   -1.5245 N   0  0  0  0  0  0  0  0  0  0  0  0
    4.1725    3.1736   -1.3723 C   0  0  0  0  0  0  0  0  0  0  0  0
    3.3304    4.2914   -1.8852 C   0  0  0  0  0  0  0  0  0  0  0  0
    5.2949    3.3753   -0.7287 N   0  0  0  0  0  0  0  0  0  0  0  0
    5.7353    2.0857   -0.4302 O   0  0  0  0  0  0  0  0  0  0  0  0
    5.9462   -0.6615    0.4134 C   0  0  0  0  0  0  0  0  0  0  0  0
    7.1460   -1.4177   -0.1816 C   0  0  0  0  0  0  0  0  0  0  0  0
    6.6688   -1.8618   -1.4868 N   0  0  0  0  0  0  0  0  0  0  0  0
    7.6652   -2.4342   -2.3710 C   0  0  0  0  0  0  0  0  0  0  0  0
    7.0744   -3.2834   -3.4841 C   0  0  0  0  0  0  0  0  0  0  0  0
    5.8151   -3.8748   -3.3369 C   0  0  0  0  0  0  0  0  0  0  0  0
    5.3027   -4.6785   -4.3559 C   0  0  0  0  0  0  0  0  0  0  0  0
    6.0833   -4.8636   -5.4978 C   0  0  0  0  0  0  0  0  0  0  0  0
    7.2904   -4.3173   -5.6503 N   0  0  0  0  0  0  0  0  0  0  0  0
    7.7913   -3.5462   -4.6761 C   0  0  0  0  0  0  0  0  0  0  0  0
    9.1711   -2.9813   -4.9158 C   0  0  0  0  0  0  0  0  0  0  0  0
    5.9384   -0.7256   -2.0166 C   0  0  0  0  0  0  0  0  0  0  0  0
    0.9872   -1.5700    0.7938 H   0  0  0  0  0  0  0  0  0  0  0  0
    1.5389   -2.2607   -0.7726 H   0  0  0  0  0  0  0  0  0  0  0  0
    0.8658   -0.6069   -0.6988 H   0  0  0  0  0  0  0  0  0  0  0  0
    3.4977   -1.3385   -1.7325 H   0  0  0  0  0  0  0  0  0  0  0  0
    2.3320    4.2564   -1.4219 H   0  0  0  0  0  0  0  0  0  0  0  0
    3.1922    4.1969   -2.9735 H   0  0  0  0  0  0  0  0  0  0  0  0
    3.7997    5.2577   -1.6603 H   0  0  0  0  0  0  0  0  0  0  0  0
    5.3467   -1.3043    1.0664 H   0  0  0  0  0  0  0  0  0  0  0  0
    6.2529    0.2105    1.0024 H   0  0  0  0  0  0  0  0  0  0  0  0
    7.4596   -2.2766    0.4327 H   0  0  0  0  0  0  0  0  0  0  0  0
    8.0235   -0.7389   -0.2785 H   0  0  0  0  0  0  0  0  0  0  0  0
    8.3290   -3.0721   -1.7591 H   0  0  0  0  0  0  0  0  0  0  0  0
    8.3240   -1.6481   -2.8012 H   0  0  0  0  0  0  0  0  0  0  0  0
    5.2563   -3.6915   -2.4159 H   0  0  0  0  0  0  0  0  0  0  0  0
    4.3227   -5.1534   -4.2668 H   0  0  0  0  0  0  0  0  0  0  0  0
    5.7193   -5.4828   -6.3268 H   0  0  0  0  0  0  0  0  0  0  0  0
    9.5419   -3.3493   -5.8809 H   0  0  0  0  0  0  0  0  0  0  0  0
    9.8809   -3.2807   -4.1265 H   0  0  0  0  0  0  0  0  0  0  0  0
    9.1643   -1.8782   -4.9400 H   0  0  0  0  0  0  0  0  0  0  0  0
    5.3331   -0.9890   -2.8985 H   0  0  0  0  0  0  0  0  0  0  0  0
    6.6212    0.0991   -2.3229 H   0  0  0  0  0  0  0  0  0  0  0  0
  1  2  1  0
  1 24  1  0
  1 25  1  0
  1 26  1  0
  2  3  2  0
  2  4  1  0
  5  4  1  1
  4 27  1  0
  5  6  1  0
  5 12  1  0
  5 23  1  0
  6  7  2  0
  6 11  1  0
  7  8  1  0
  8  9  1  0
  8 10  2  0
  9 28  1  0
  9 29  1  0
  9 30  1  0
 10 11  1  0
 12 13  1  0
 12 31  1  0
 12 32  1  0
 13 14  1  0
 13 33  1  0
 13 34  1  0
 14 15  1  0
 14 23  1  0
 15 16  1  0
 15 35  1  0
 15 36  1  0
 16 17  2  0
 16 21  1  0
 17 18  1  0
 17 37  1  0
 18 19  2  0
 18 38  1  0
 19 20  1  0
 19 39  1  0
 20 21  2  0
 21 22  1  0
 22 40  1  0
 22 41  1  0
 22 42  1  0
 23 43  1  0
 23 44  1  0
M  END

