
     RDKit          3D

 44 45  0  0  0  0  0  0  0  0999 V2000
    1.1428   -0.4913   -1.4030 C   0  0  0  0  0  0  0  0  0  0  0  0
    2.3186   -0.2901   -0.4293 C   0  0  1  0  0  0  0  0  0  0  0  0
    1.7562   -0.1811    0.9969 C   0  0  0  0  0  0  0  0  0  0  0  0
    3.2690   -1.5079   -0.4854 C   0  0  0  0  0  0  0  0  0  0  0  0
    3.9252   -1.6111   -1.7924 N   0  0  0  0  0  0  0  0  0  0  0  0
    4.4754   -3.1310   -2.2906 S   0  0  1  0  0  0  0  0  0  0  0  0
    5.8660   -3.0064   -2.7452 O   0  0  0  0  0  0  0  0  0  0  0  0
    4.1040   -4.1086   -1.2600 O   0  0  0  0  0  0  0  0  0  0  0  0
    3.4633   -3.4801   -3.7555 C   0  0  0  0  0  0  0  0  0  0  0  0
    3.8532   -4.8271   -4.3795 C   0  0  0  0  0  0  0  0  0  0  0  0
    3.0142   -5.1496   -5.5980 C   0  0  0  0  0  0  0  0  0  0  0  0
    3.4203   -4.7424   -6.8787 C   0  0  0  0  0  0  0  0  0  0  0  0
    2.6315   -5.0114   -8.0007 C   0  0  0  0  0  0  0  0  0  0  0  0
    1.4197   -5.6941   -7.8594 C   0  0  0  0  0  0  0  0  0  0  0  0
    1.0048   -6.1075   -6.5898 C   0  0  0  0  0  0  0  0  0  0  0  0
    1.7963   -5.8366   -5.4703 C   0  0  0  0  0  0  0  0  0  0  0  0
    4.7344   -0.4428   -2.1634 C   0  0  0  0  0  0  0  0  0  0  0  0
    3.8582    0.8113   -2.1516 C   0  0  0  0  0  0  0  0  0  0  0  0
    3.1251    1.0066   -0.8108 C   0  0  2  0  0  0  0  0  0  0  0  0
    4.0796    1.4900    0.1855 N   0  0  0  0  0  0  0  0  0  0  0  0
    0.5249   -1.3498   -1.0924 H   0  0  0  0  0  0  0  0  0  0  0  0
    1.4810   -0.6841   -2.4305 H   0  0  0  0  0  0  0  0  0  0  0  0
    0.4906    0.3974   -1.4198 H   0  0  0  0  0  0  0  0  0  0  0  0
    1.1665   -1.0756    1.2544 H   0  0  0  0  0  0  0  0  0  0  0  0
    1.0907    0.6933    1.0912 H   0  0  0  0  0  0  0  0  0  0  0  0
    2.5524   -0.0833    1.7505 H   0  0  0  0  0  0  0  0  0  0  0  0
    2.7171   -2.4369   -0.2921 H   0  0  0  0  0  0  0  0  0  0  0  0
    4.0283   -1.4215    0.3187 H   0  0  0  0  0  0  0  0  0  0  0  0
    3.6205   -2.6424   -4.4511 H   0  0  0  0  0  0  0  0  0  0  0  0
    2.4182   -3.4669   -3.4134 H   0  0  0  0  0  0  0  0  0  0  0  0
    3.7357   -5.6109   -3.6152 H   0  0  0  0  0  0  0  0  0  0  0  0
    4.9205   -4.7906   -4.6464 H   0  0  0  0  0  0  0  0  0  0  0  0
    4.3714   -4.2149   -6.9989 H   0  0  0  0  0  0  0  0  0  0  0  0
    2.9677   -4.6909   -8.9903 H   0  0  0  0  0  0  0  0  0  0  0  0
    0.8034   -5.9083   -8.7363 H   0  0  0  0  0  0  0  0  0  0  0  0
    0.0624   -6.6485   -6.4705 H   0  0  0  0  0  0  0  0  0  0  0  0
    1.4685   -6.1706   -4.4812 H   0  0  0  0  0  0  0  0  0  0  0  0
    5.1694   -0.6058   -3.1583 H   0  0  0  0  0  0  0  0  0  0  0  0
    5.5910   -0.3296   -1.4696 H   0  0  0  0  0  0  0  0  0  0  0  0
    3.1298    0.7457   -2.9746 H   0  0  0  0  0  0  0  0  0  0  0  0
    4.4881    1.6951   -2.3351 H   0  0  0  0  0  0  0  0  0  0  0  0
    2.3866    1.8167   -0.9457 H   0  0  0  0  0  0  0  0  0  0  0  0
    4.7606    0.7759    0.4420 H   0  0  0  0  0  0  0  0  0  0  0  0
    3.6117    1.7709    1.0447 H   0  0  0  0  0  0  0  0  0  0  0  0
  2  1  1  6
  1 21  1  0
  1 22  1  0
  1 23  1  0
  2  3  1  0
  2  4  1  0
  2 19  1  0
  3 24  1  0
  3 25  1  0
  3 26  1  0
  4  5  1  0
  4 27  1  0
  4 28  1  0
  5  6  1  0
  5 17  1  0
  6  7  2  0
  6  8  2  0
  6  9  1  6
  9 10  1  0
  9 29  1  0
  9 30  1  0
 10 11  1  0
 10 31  1  0
 10 32  1  0
 11 12  2  0
 11 16  1  0
 12 13  1  0
 12 33  1  0
 13 14  2  0
 13 34  1  0
 14 15  1  0
 14 35  1  0
 15 16  2  0
 15 36  1  0
 16 37  1  0
 17 18  1  0
 17 38  1  0
 17 39  1  0
 18 19  1  0
 18 40  1  0
 18 41  1  0
 19 20  1  0
 19 42  1  6
 20 43  1  0
 20 44  1  0
M  END

