
     RDKit          3D

 66 70  0  0  0  0  0  0  0  0999 V2000
    1.6911    0.7039    0.9655 O   0  0  0  0  0  0  0  0  0  0  0  0
    2.6692    0.1482    0.0921 C   0  0  1  0  0  0  0  0  0  0  0  0
    3.3097   -1.1013    0.7509 C   0  0  0  0  0  0  0  0  0  0  0  0
    2.6167   -1.8027    1.7499 C   0  0  0  0  0  0  0  0  0  0  0  0
    3.1471   -2.9561    2.3353 C   0  0  0  0  0  0  0  0  0  0  0  0
    4.3984   -3.4345    1.9426 C   0  0  0  0  0  0  0  0  0  0  0  0
    5.1126   -2.7398    0.9635 C   0  0  0  0  0  0  0  0  0  0  0  0
    4.5753   -1.5898    0.3787 C   0  0  0  0  0  0  0  0  0  0  0  0
    1.9958   -0.2552   -1.2460 C   0  0  0  0  0  0  0  0  0  0  0  0
    0.7093    0.2153   -1.5595 C   0  0  0  0  0  0  0  0  0  0  0  0
    0.0859   -0.1236   -2.7653 C   0  0  0  0  0  0  0  0  0  0  0  0
    0.7408   -0.9345   -3.6933 C   0  0  0  0  0  0  0  0  0  0  0  0
    2.0250   -1.4027   -3.4004 C   0  0  0  0  0  0  0  0  0  0  0  0
    2.6410   -1.0703   -2.1917 C   0  0  0  0  0  0  0  0  0  0  0  0
    3.7349    1.2734   -0.1486 C   0  0  1  0  0  0  0  0  0  0  0  0
    3.1971    2.5387   -0.8609 C   0  0  0  0  0  0  0  0  0  0  0  0
    2.5234    3.5571    0.0798 C   0  0  0  0  0  0  0  0  0  0  0  0
    3.3507    3.9377    1.2261 N   0  0  0  0  0  0  0  0  0  0  0  0
    4.4073    4.9025    0.9391 C   0  0  0  0  0  0  0  0  0  0  0  0
    3.8892    6.3399    0.8030 C   0  0  0  0  0  0  0  0  0  0  0  0
    3.1799    6.8315    2.0545 C   0  0  0  0  0  0  0  0  0  0  0  0
    2.7369    8.1622    1.8175 O   0  0  0  0  0  0  0  0  0  0  0  0
    2.0501    8.8260    2.7735 C   0  0  0  0  0  0  0  0  0  0  0  0
    1.7174    8.2941    4.0312 C   0  0  0  0  0  0  0  0  0  0  0  0
    1.0039    9.0699    4.9469 C   0  0  0  0  0  0  0  0  0  0  0  0
    0.6097   10.3789    4.6357 C   0  0  0  0  0  0  0  0  0  0  0  0
   -0.1376   11.1777    5.6095 C   0  0  0  0  0  0  0  0  0  0  0  0
   -0.4978   10.7310    6.8503 N   0  0  0  0  0  0  0  0  0  0  0  0
   -1.1415   11.6988    7.4303 N   0  0  0  0  0  0  0  0  0  0  0  0
   -1.1615   12.6906    6.5559 N   0  0  0  0  0  0  0  0  0  0  0  0
   -1.6083   13.5807    6.7560 H   0  0  0  0  0  0  0  0  0  0  0  0
   -0.5563   12.4294    5.4093 N   0  0  0  0  0  0  0  0  0  0  0  0
    0.9472   10.9038    3.3727 C   0  0  0  0  0  0  0  0  0  0  0  0
    1.6559   10.1409    2.4557 C   0  0  0  0  0  0  0  0  0  0  0  0
    3.7628    2.7513    1.9738 C   0  0  0  0  0  0  0  0  0  0  0  0
    4.5055    1.7014    1.1260 C   0  0  0  0  0  0  0  0  0  0  0  0
    0.9394    0.0989    1.0181 H   0  0  0  0  0  0  0  0  0  0  0  0
    1.6488   -1.4431    2.1028 H   0  0  0  0  0  0  0  0  0  0  0  0
    2.5777   -3.4773    3.1094 H   0  0  0  0  0  0  0  0  0  0  0  0
    4.8173   -4.3338    2.4008 H   0  0  0  0  0  0  0  0  0  0  0  0
    6.1008   -3.0893    0.6532 H   0  0  0  0  0  0  0  0  0  0  0  0
    5.1708   -1.0635   -0.3689 H   0  0  0  0  0  0  0  0  0  0  0  0
    0.1897    0.8725   -0.8607 H   0  0  0  0  0  0  0  0  0  0  0  0
   -0.9163    0.2572   -2.9788 H   0  0  0  0  0  0  0  0  0  0  0  0
    0.2567   -1.2002   -4.6363 H   0  0  0  0  0  0  0  0  0  0  0  0
    2.5520   -2.0406   -4.1148 H   0  0  0  0  0  0  0  0  0  0  0  0
    3.6346   -1.4685   -1.9857 H   0  0  0  0  0  0  0  0  0  0  0  0
    4.4610    0.8163   -0.8387 H   0  0  0  0  0  0  0  0  0  0  0  0
    2.5039    2.2701   -1.6723 H   0  0  0  0  0  0  0  0  0  0  0  0
    4.0576    3.0254   -1.3525 H   0  0  0  0  0  0  0  0  0  0  0  0
    1.5834    3.1339    0.4644 H   0  0  0  0  0  0  0  0  0  0  0  0
    2.2564    4.4611   -0.4905 H   0  0  0  0  0  0  0  0  0  0  0  0
    4.9981    4.6588    0.0290 H   0  0  0  0  0  0  0  0  0  0  0  0
    5.1249    4.8667    1.7767 H   0  0  0  0  0  0  0  0  0  0  0  0
    3.1956    6.4273   -0.0499 H   0  0  0  0  0  0  0  0  0  0  0  0
    4.7371    7.0090    0.5790 H   0  0  0  0  0  0  0  0  0  0  0  0
    3.8664    6.8120    2.9231 H   0  0  0  0  0  0  0  0  0  0  0  0
    2.3282    6.1716    2.2900 H   0  0  0  0  0  0  0  0  0  0  0  0
    2.0068    7.2795    4.3040 H   0  0  0  0  0  0  0  0  0  0  0  0
    0.7445    8.6579    5.9239 H   0  0  0  0  0  0  0  0  0  0  0  0
    0.6451   11.9220    3.1194 H   0  0  0  0  0  0  0  0  0  0  0  0
    1.9233   10.5368    1.4740 H   0  0  0  0  0  0  0  0  0  0  0  0
    2.8626    2.2899    2.4073 H   0  0  0  0  0  0  0  0  0  0  0  0
    4.4025    3.0674    2.8145 H   0  0  0  0  0  0  0  0  0  0  0  0
    4.7471    0.8285    1.7511 H   0  0  0  0  0  0  0  0  0  0  0  0
    5.4738    2.1246    0.8040 H   0  0  0  0  0  0  0  0  0  0  0  0
  2  1  1  1
  1 37  1  0
  2  3  1  0
  2  9  1  0
  2 15  1  0
  3  4  2  0
  3  8  1  0
  4  5  1  0
  4 38  1  0
  5  6  2  0
  5 39  1  0
  6  7  1  0
  6 40  1  0
  7  8  2  0
  7 41  1  0
  8 42  1  0
  9 10  2  0
  9 14  1  0
 10 11  1  0
 10 43  1  0
 11 12  2  0
 11 44  1  0
 12 13  1  0
 12 45  1  0
 13 14  2  0
 13 46  1  0
 14 47  1  0
 15 16  1  0
 15 36  1  0
 15 48  1  6
 16 17  1  0
 16 49  1  0
 16 50  1  0
 17 18  1  0
 17 51  1  0
 17 52  1  0
 18 19  1  0
 18 35  1  0
 19 20  1  0
 19 53  1  0
 19 54  1  0
 20 21  1  0
 20 55  1  0
 20 56  1  0
 21 22  1  0
 21 57  1  0
 21 58  1  0
 22 23  1  0
 23 24  2  0
 23 34  1  0
 24 25  1  0
 24 59  1  0
 25 26  2  0
 25 60  1  0
 26 27  1  0
 26 33  1  0
 27 28  1  0
 27 32  2  0
 28 29  2  0
 29 30  1  0
 30 31  1  0
 30 32  1  0
 33 34  2  0
 33 61  1  0
 34 62  1  0
 35 36  1  0
 35 63  1  0
 35 64  1  0
 36 65  1  0
 36 66  1  0
M  END

