
     RDKit          3D

 63 65  0  0  0  0  0  0  0  0999 V2000
    4.7629   -6.5132   -5.7389 C   0  0  0  0  0  0  0  0  0  0  0  0
    5.0340   -6.0786   -4.2985 C   0  0  1  0  0  0  0  0  0  0  0  0
    5.8444   -7.1236   -3.5292 C   0  0  0  0  0  0  0  0  0  0  0  0
    5.7569   -4.7833   -4.3343 N   0  0  0  0  0  0  0  0  0  0  0  0
    5.5603   -3.6913   -3.0782 S   0  0  1  0  0  0  0  0  0  0  0  0
    4.5122   -2.6970   -3.3724 O   0  0  0  0  0  0  0  0  0  0  0  0
    5.4567   -4.4595   -1.8299 O   0  0  0  0  0  0  0  0  0  0  0  0
    7.1812   -2.8439   -3.1534 C   0  0  0  0  0  0  0  0  0  0  0  0
    7.1664   -1.5147   -2.4499 C   0  0  0  0  0  0  0  0  0  0  0  0
    7.0874   -1.4996   -1.0473 C   0  0  0  0  0  0  0  0  0  0  0  0
    7.0699   -0.3002   -0.3358 C   0  0  0  0  0  0  0  0  0  0  0  0
    7.1424    0.9123   -1.0251 C   0  0  0  0  0  0  0  0  0  0  0  0
    7.2234    0.9076   -2.4185 C   0  0  0  0  0  0  0  0  0  0  0  0
    7.2264   -0.2891   -3.1528 C   0  0  0  0  0  0  0  0  0  0  0  0
    7.2864   -0.2015   -4.6723 C   0  0  0  0  0  0  0  0  0  0  0  0
    5.9839   -0.2506   -5.3255 N   0  0  0  0  0  0  0  0  0  0  0  0
    5.4990   -1.3287   -5.9964 C   0  0  0  0  0  0  0  0  0  0  0  0
    6.1497   -2.3626   -6.1506 O   0  0  0  0  0  0  0  0  0  0  0  0
    4.1061   -1.1571   -6.5846 C   0  0  0  0  0  0  0  0  0  0  0  0
    3.2285   -2.3694   -6.2941 C   0  0  0  0  0  0  0  0  0  0  0  0
    1.8554   -2.3030   -6.9369 C   0  0  0  0  0  0  0  0  0  0  0  0
    1.5549   -1.4039   -7.7022 O   0  0  0  0  0  0  0  0  0  0  0  0
    0.8859   -3.4011   -6.6142 C   0  0  0  0  0  0  0  0  0  0  0  0
   -0.3459   -3.4387   -7.2901 C   0  0  0  0  0  0  0  0  0  0  0  0
   -1.2614   -4.4480   -7.0173 C   0  0  0  0  0  0  0  0  0  0  0  0
   -0.9811   -5.4514   -6.0751 C   0  0  0  0  0  0  0  0  0  0  0  0
    0.2567   -5.4236   -5.3904 C   0  0  0  0  0  0  0  0  0  0  0  0
    1.1634   -4.3955   -5.6644 C   0  0  0  0  0  0  0  0  0  0  0  0
    0.6670   -6.4025   -4.5276 O   0  0  0  0  0  0  0  0  0  0  0  0
   -0.1500   -6.7294   -3.4086 C   0  0  0  0  0  0  0  0  0  0  0  0
   -1.3789   -7.5452   -3.7840 C   0  0  0  0  0  0  0  0  0  0  0  0
   -2.3822   -6.7766   -4.6322 C   0  0  0  0  0  0  0  0  0  0  0  0
   -1.9000   -6.4467   -5.9313 O   0  0  0  0  0  0  0  0  0  0  0  0
    4.2306   -7.4760   -5.7489 H   0  0  0  0  0  0  0  0  0  0  0  0
    5.7063   -6.6361   -6.2960 H   0  0  0  0  0  0  0  0  0  0  0  0
    4.1364   -5.7818   -6.2736 H   0  0  0  0  0  0  0  0  0  0  0  0
    4.0595   -5.9499   -3.7924 H   0  0  0  0  0  0  0  0  0  0  0  0
    6.8094   -7.3046   -4.0301 H   0  0  0  0  0  0  0  0  0  0  0  0
    5.2929   -8.0765   -3.4786 H   0  0  0  0  0  0  0  0  0  0  0  0
    6.0388   -6.7790   -2.5047 H   0  0  0  0  0  0  0  0  0  0  0  0
    5.7245   -4.2696   -5.2214 H   0  0  0  0  0  0  0  0  0  0  0  0
    7.3901   -2.7697   -4.2262 H   0  0  0  0  0  0  0  0  0  0  0  0
    7.8738   -3.5625   -2.6934 H   0  0  0  0  0  0  0  0  0  0  0  0
    7.0267   -2.4510   -0.5129 H   0  0  0  0  0  0  0  0  0  0  0  0
    7.0052   -0.3138    0.7549 H   0  0  0  0  0  0  0  0  0  0  0  0
    7.1414    1.8598   -0.4804 H   0  0  0  0  0  0  0  0  0  0  0  0
    7.2918    1.8590   -2.9552 H   0  0  0  0  0  0  0  0  0  0  0  0
    7.8856   -1.0112   -5.1072 H   0  0  0  0  0  0  0  0  0  0  0  0
    7.7768    0.7457   -4.9492 H   0  0  0  0  0  0  0  0  0  0  0  0
    5.3464    0.5172   -5.1512 H   0  0  0  0  0  0  0  0  0  0  0  0
    4.2156   -1.0295   -7.6747 H   0  0  0  0  0  0  0  0  0  0  0  0
    3.6247   -0.2382   -6.2162 H   0  0  0  0  0  0  0  0  0  0  0  0
    3.1370   -2.5077   -5.2061 H   0  0  0  0  0  0  0  0  0  0  0  0
    3.7323   -3.2802   -6.6616 H   0  0  0  0  0  0  0  0  0  0  0  0
   -0.5614   -2.6611   -8.0248 H   0  0  0  0  0  0  0  0  0  0  0  0
   -2.2209   -4.5019   -7.5361 H   0  0  0  0  0  0  0  0  0  0  0  0
    2.0992   -4.4093   -5.1056 H   0  0  0  0  0  0  0  0  0  0  0  0
   -0.4457   -5.8033   -2.8784 H   0  0  0  0  0  0  0  0  0  0  0  0
    0.5013   -7.3069   -2.7361 H   0  0  0  0  0  0  0  0  0  0  0  0
   -1.8829   -7.8706   -2.8565 H   0  0  0  0  0  0  0  0  0  0  0  0
   -1.0638   -8.4547   -4.3227 H   0  0  0  0  0  0  0  0  0  0  0  0
   -2.7007   -5.8532   -4.1104 H   0  0  0  0  0  0  0  0  0  0  0  0
   -3.2790   -7.3884   -4.8095 H   0  0  0  0  0  0  0  0  0  0  0  0
  1  2  1  0
  1 34  1  0
  1 35  1  0
  1 36  1  0
  2  3  1  0
  2  4  1  0
  2 37  1  1
  3 38  1  0
  3 39  1  0
  3 40  1  0
  5  4  1  6
  4 41  1  0
  5  6  2  0
  5  7  2  0
  5  8  1  0
  8  9  1  0
  8 42  1  0
  8 43  1  0
  9 10  2  0
  9 14  1  0
 10 11  1  0
 10 44  1  0
 11 12  2  0
 11 45  1  0
 12 13  1  0
 12 46  1  0
 13 14  2  0
 13 47  1  0
 14 15  1  0
 15 16  1  0
 15 48  1  0
 15 49  1  0
 16 17  1  0
 16 50  1  0
 17 18  2  0
 17 19  1  0
 19 20  1  0
 19 51  1  0
 19 52  1  0
 20 21  1  0
 20 53  1  0
 20 54  1  0
 21 22  2  0
 21 23  1  0
 23 24  2  0
 23 28  1  0
 24 25  1  0
 24 55  1  0
 25 26  2  0
 25 56  1  0
 26 27  1  0
 26 33  1  0
 27 28  2  0
 27 29  1  0
 28 57  1  0
 29 30  1  0
 30 31  1  0
 30 58  1  0
 30 59  1  0
 31 32  1  0
 31 60  1  0
 31 61  1  0
 32 33  1  0
 32 62  1  0
 32 63  1  0
M  END

