
     RDKit          3D

 44 45  0  0  0  0  0  0  0  0999 V2000
    3.1016   -0.2903   -2.7006 C   0  0  0  0  0  0  0  0  0  0  0  0
    3.7381    0.7755   -1.7970 C   0  0  1  0  0  0  0  0  0  0  0  0
    4.1253    2.0353   -2.6018 C   0  0  0  0  0  0  0  0  0  0  0  0
    2.9602    2.9625   -2.8391 C   0  0  0  0  0  0  0  0  0  0  0  0
    1.8063    2.8839   -2.1621 C   0  0  0  0  0  0  0  0  0  0  0  0
    1.5365    1.8557   -1.0942 C   0  0  0  0  0  0  0  0  0  0  0  0
    2.8155    1.1445   -0.6096 C   0  0  2  0  0  0  0  0  0  0  0  0
    3.5528    1.9805    0.4398 C   0  0  0  0  0  0  0  0  0  0  0  0
    2.7475    2.0934    1.5923 O   0  0  0  0  0  0  0  0  0  0  0  0
    3.2889    2.9077    2.6083 C   0  0  0  0  0  0  0  0  0  0  0  0
    2.3329    2.9427    3.7910 C   0  0  0  0  0  0  0  0  0  0  0  0
    2.0783    1.5630    4.3929 C   0  0  0  0  0  0  0  0  0  0  0  0
    1.0928    1.5796    5.5520 C   0  0  0  0  0  0  0  0  0  0  0  0
    0.6060    2.6231    5.9456 O   0  0  0  0  0  0  0  0  0  0  0  0
    0.7330    0.2750    6.2125 C   0  0  0  0  0  0  0  0  0  0  0  0
    1.2398   -0.9657    5.7892 C   0  0  0  0  0  0  0  0  0  0  0  0
    0.8673   -2.1426    6.4438 C   0  0  0  0  0  0  0  0  0  0  0  0
   -0.0147   -2.0929    7.5272 C   0  0  0  0  0  0  0  0  0  0  0  0
   -0.5258   -0.8618    7.9558 C   0  0  0  0  0  0  0  0  0  0  0  0
   -0.1546    0.3121    7.3026 C   0  0  0  0  0  0  0  0  0  0  0  0
    3.8155   -0.6283   -3.4690 H   0  0  0  0  0  0  0  0  0  0  0  0
    2.2135    0.0963   -3.2251 H   0  0  0  0  0  0  0  0  0  0  0  0
    2.7924   -1.1743   -2.1191 H   0  0  0  0  0  0  0  0  0  0  0  0
    4.6635    0.3396   -1.3792 H   0  0  0  0  0  0  0  0  0  0  0  0
    4.5681    1.7370   -3.5690 H   0  0  0  0  0  0  0  0  0  0  0  0
    4.9311    2.5908   -2.0840 H   0  0  0  0  0  0  0  0  0  0  0  0
    3.0872    3.7423   -3.5987 H   0  0  0  0  0  0  0  0  0  0  0  0
    1.0005    3.5906   -2.3910 H   0  0  0  0  0  0  0  0  0  0  0  0
    0.8108    1.1138   -1.4782 H   0  0  0  0  0  0  0  0  0  0  0  0
    1.0374    2.3237   -0.2298 H   0  0  0  0  0  0  0  0  0  0  0  0
    2.5229    0.2113   -0.0975 H   0  0  0  0  0  0  0  0  0  0  0  0
    3.7906    2.9895    0.0453 H   0  0  0  0  0  0  0  0  0  0  0  0
    4.5191    1.4957    0.6956 H   0  0  0  0  0  0  0  0  0  0  0  0
    3.4594    3.9363    2.2281 H   0  0  0  0  0  0  0  0  0  0  0  0
    4.2810    2.5163    2.9235 H   0  0  0  0  0  0  0  0  0  0  0  0
    1.3758    3.3848    3.4716 H   0  0  0  0  0  0  0  0  0  0  0  0
    2.7382    3.6206    4.5594 H   0  0  0  0  0  0  0  0  0  0  0  0
    3.0231    1.1117    4.7495 H   0  0  0  0  0  0  0  0  0  0  0  0
    1.7076    0.8789    3.6112 H   0  0  0  0  0  0  0  0  0  0  0  0
    1.9272   -1.0231    4.9434 H   0  0  0  0  0  0  0  0  0  0  0  0
    1.2666   -3.1023    6.1060 H   0  0  0  0  0  0  0  0  0  0  0  0
   -0.3052   -3.0146    8.0383 H   0  0  0  0  0  0  0  0  0  0  0  0
   -1.2161   -0.8210    8.8024 H   0  0  0  0  0  0  0  0  0  0  0  0
   -0.5396    1.2843    7.6164 H   0  0  0  0  0  0  0  0  0  0  0  0
  1  2  1  0
  1 21  1  0
  1 22  1  0
  1 23  1  0
  2  3  1  0
  2  7  1  0
  2 24  1  1
  3  4  1  0
  3 25  1  0
  3 26  1  0
  4  5  2  0
  4 27  1  0
  5  6  1  0
  5 28  1  0
  6  7  1  0
  6 29  1  0
  6 30  1  0
  7  8  1  0
  7 31  1  1
  8  9  1  0
  8 32  1  0
  8 33  1  0
  9 10  1  0
 10 11  1  0
 10 34  1  0
 10 35  1  0
 11 12  1  0
 11 36  1  0
 11 37  1  0
 12 13  1  0
 12 38  1  0
 12 39  1  0
 13 14  2  0
 13 15  1  0
 15 16  2  0
 15 20  1  0
 16 17  1  0
 16 40  1  0
 17 18  2  0
 17 41  1  0
 18 19  1  0
 18 42  1  0
 19 20  2  0
 19 43  1  0
 20 44  1  0
M  END

