
     RDKit          3D

 37 37  0  0  0  0  0  0  0  0999 V2000
    1.0421    0.0608   -0.1196 C   0  0  0  0  0  0  0  0  0  0  0  0
    2.8271   -0.2595   -0.2650 S   0  0  0  0  0  0  0  0  0  0  0  0
    3.4170    1.4483   -0.5586 C   0  0  0  0  0  0  0  0  0  0  0  0
    4.9323    1.4621   -0.7478 C   0  0  0  0  0  0  0  0  0  0  0  0
    5.4026    2.8143   -1.0073 N   0  0  0  0  0  0  0  0  0  0  0  0
    6.8193    2.9207   -1.3077 C   0  0  0  0  0  0  0  0  0  0  0  0
    7.1574    4.3346   -1.7604 C   0  0  0  0  0  0  0  0  0  0  0  0
    8.5447    4.3801   -2.0336 O   0  0  0  0  0  0  0  0  0  0  0  0
    9.1120    5.5312   -2.4732 C   0  0  0  0  0  0  0  0  0  0  0  0
    8.4136    6.7324   -2.6838 C   0  0  0  0  0  0  0  0  0  0  0  0
    9.0961    7.8642   -3.1316 C   0  0  0  0  0  0  0  0  0  0  0  0
   10.4759    7.8334   -3.3842 C   0  0  0  0  0  0  0  0  0  0  0  0
   11.1842    9.0433   -3.8670 C   0  0  0  0  0  0  0  0  0  0  0  0
   12.5502    9.1184   -3.6864 N   0  0  0  0  0  0  0  0  0  0  0  0
   10.4948    9.9502   -4.4800 N   0  0  0  0  0  0  0  0  0  0  0  0
   11.3161   11.0428   -4.8199 O   0  0  0  0  0  0  0  0  0  0  0  0
   11.1609    6.6206   -3.1777 C   0  0  0  0  0  0  0  0  0  0  0  0
   10.4934    5.4871   -2.7260 C   0  0  0  0  0  0  0  0  0  0  0  0
    0.5574   -0.9096    0.0596 H   0  0  0  0  0  0  0  0  0  0  0  0
    0.6334    0.4941   -1.0460 H   0  0  0  0  0  0  0  0  0  0  0  0
    0.8188    0.7281    0.7278 H   0  0  0  0  0  0  0  0  0  0  0  0
    3.1344    2.0788    0.3035 H   0  0  0  0  0  0  0  0  0  0  0  0
    2.9319    1.8667   -1.4552 H   0  0  0  0  0  0  0  0  0  0  0  0
    5.1922    0.8332   -1.6167 H   0  0  0  0  0  0  0  0  0  0  0  0
    5.4188    0.9878    0.1340 H   0  0  0  0  0  0  0  0  0  0  0  0
    5.1720    3.4123   -0.2130 H   0  0  0  0  0  0  0  0  0  0  0  0
    7.0611    2.2258   -2.1294 H   0  0  0  0  0  0  0  0  0  0  0  0
    7.4872    2.6457   -0.4616 H   0  0  0  0  0  0  0  0  0  0  0  0
    6.8976    5.0656   -0.9690 H   0  0  0  0  0  0  0  0  0  0  0  0
    6.5641    4.5903   -2.6566 H   0  0  0  0  0  0  0  0  0  0  0  0
    7.3414    6.7973   -2.4979 H   0  0  0  0  0  0  0  0  0  0  0  0
    8.5574    8.7994   -3.2923 H   0  0  0  0  0  0  0  0  0  0  0  0
   12.9207    8.6880   -2.8474 H   0  0  0  0  0  0  0  0  0  0  0  0
   12.9453   10.0257   -3.9117 H   0  0  0  0  0  0  0  0  0  0  0  0
   10.7041   11.6321   -5.2758 H   0  0  0  0  0  0  0  0  0  0  0  0
   12.2286    6.5569   -3.3991 H   0  0  0  0  0  0  0  0  0  0  0  0
   11.0199    4.5434   -2.5703 H   0  0  0  0  0  0  0  0  0  0  0  0
  1  2  1  0
  1 19  1  0
  1 20  1  0
  1 21  1  0
  2  3  1  0
  3  4  1  0
  3 22  1  0
  3 23  1  0
  4  5  1  0
  4 24  1  0
  4 25  1  0
  5  6  1  0
  5 26  1  0
  6  7  1  0
  6 27  1  0
  6 28  1  0
  7  8  1  0
  7 29  1  0
  7 30  1  0
  8  9  1  0
  9 10  2  0
  9 18  1  0
 10 11  1  0
 10 31  1  0
 11 12  2  0
 11 32  1  0
 12 13  1  0
 12 17  1  0
 13 14  1  0
 13 15  2  0
 14 33  1  0
 14 34  1  0
 15 16  1  0
 16 35  1  0
 17 18  2  0
 17 36  1  0
 18 37  1  0
M  END

