
     RDKit          3D

 36 39  0  0  0  0  0  0  0  0999 V2000
    1.0007   -0.3961    0.7772 C   0  0  0  0  0  0  0  0  0  0  0  0
    2.4287   -0.2012    0.3355 C   0  0  0  0  0  0  0  0  0  0  0  0
    2.9542    1.1011    0.2436 C   0  0  0  0  0  0  0  0  0  0  0  0
    4.2700    1.3479   -0.1579 C   0  0  0  0  0  0  0  0  0  0  0  0
    5.1265    0.2913   -0.4882 C   0  0  0  0  0  0  0  0  0  0  0  0
    4.6127   -0.9970   -0.3995 C   0  0  0  0  0  0  0  0  0  0  0  0
    3.2813   -1.2749    0.0046 C   0  0  0  0  0  0  0  0  0  0  0  0
    3.1198   -2.7376   -0.0279 C   0  0  0  0  0  0  0  0  0  0  0  0
    1.9983   -3.4716    0.2826 C   0  0  0  0  0  0  0  0  0  0  0  0
    1.7409   -4.8749    0.2849 C   0  0  0  0  0  0  0  0  0  0  0  0
    2.6498   -5.8715   -0.0544 N   0  0  0  0  0  0  0  0  0  0  0  0
    3.6111   -5.6132   -0.3483 H   0  0  0  0  0  0  0  0  0  0  0  0
    2.0865   -7.0859    0.0590 C   0  0  0  0  0  0  0  0  0  0  0  0
    0.7608   -6.9128    0.4788 C   0  0  0  0  0  0  0  0  0  0  0  0
    0.5393   -5.5259    0.6225 C   0  0  0  0  0  0  0  0  0  0  0  0
   -0.7993   -5.0457    1.0876 C   0  0  0  0  0  0  0  0  0  0  0  0
   -1.8361   -6.0971    0.6800 C   0  0  0  0  0  0  0  0  0  0  0  0
   -1.4880   -7.4252    1.0870 O   0  0  0  0  0  0  0  0  0  0  0  0
   -0.2486   -7.9309    0.8027 C   0  0  0  0  0  0  0  0  0  0  0  0
   -0.0542   -9.1172    0.8726 O   0  0  0  0  0  0  0  0  0  0  0  0
    4.4375   -3.2876   -0.4750 C   0  0  0  0  0  0  0  0  0  0  0  0
    4.8005   -4.4515   -0.6580 O   0  0  0  0  0  0  0  0  0  0  0  0
    5.2582   -2.2028   -0.6717 N   0  0  0  0  0  0  0  0  0  0  0  0
    0.5199    0.5704    0.9854 H   0  0  0  0  0  0  0  0  0  0  0  0
    0.9357   -1.0038    1.6958 H   0  0  0  0  0  0  0  0  0  0  0  0
    0.3994   -0.9062    0.0054 H   0  0  0  0  0  0  0  0  0  0  0  0
    2.3068    1.9447    0.4965 H   0  0  0  0  0  0  0  0  0  0  0  0
    4.6342    2.3765   -0.2142 H   0  0  0  0  0  0  0  0  0  0  0  0
    6.1569    0.4709   -0.8029 H   0  0  0  0  0  0  0  0  0  0  0  0
    1.1241   -2.8974    0.5893 H   0  0  0  0  0  0  0  0  0  0  0  0
    2.6301   -8.0039   -0.1553 H   0  0  0  0  0  0  0  0  0  0  0  0
   -1.0798   -4.0728    0.6519 H   0  0  0  0  0  0  0  0  0  0  0  0
   -0.8067   -4.9195    2.1860 H   0  0  0  0  0  0  0  0  0  0  0  0
   -1.9669   -6.0827   -0.4173 H   0  0  0  0  0  0  0  0  0  0  0  0
   -2.8127   -5.8973    1.1424 H   0  0  0  0  0  0  0  0  0  0  0  0
    6.2165   -2.3061   -0.9823 H   0  0  0  0  0  0  0  0  0  0  0  0
  1  2  1  0
  1 24  1  0
  1 25  1  0
  1 26  1  0
  2  3  2  0
  2  7  1  0
  3  4  1  0
  3 27  1  0
  4  5  2  0
  4 28  1  0
  5  6  1  0
  5 29  1  0
  6  7  2  0
  6 23  1  0
  7  8  1  0
  8  9  2  0
  8 21  1  0
  9 10  1  0
  9 30  1  0
 10 11  1  0
 10 15  2  0
 11 12  1  0
 11 13  1  0
 13 14  2  0
 13 31  1  0
 14 15  1  0
 14 19  1  0
 15 16  1  0
 16 17  1  0
 16 32  1  0
 16 33  1  0
 17 18  1  0
 17 34  1  0
 17 35  1  0
 18 19  1  0
 19 20  2  0
 21 22  2  0
 21 23  1  0
 23 36  1  0
M  END

