
     RDKit          3D

 47 50  0  0  0  0  0  0  0  0999 V2000
    0.7567   -0.1284    1.0193 C   0  0  0  0  0  0  0  0  0  0  0  0
    2.1452    0.1230    0.4281 C   0  0  2  0  0  0  0  0  0  0  0  0
    3.0109   -1.1324    0.5674 C   0  0  0  0  0  0  0  0  0  0  0  0
    4.3651   -0.9361   -0.1118 C   0  0  1  0  0  0  0  0  0  0  0  0
    4.1871   -1.0742   -1.6497 C   0  0  0  0  0  0  0  0  0  0  0  0
    4.8858   -0.2042   -2.4231 N   0  0  0  0  0  0  0  0  0  0  0  0
    3.4743   -1.9465   -2.1168 O   0  0  0  0  0  0  0  0  0  0  0  0
    5.0183    0.3434    0.3612 C   0  0  0  0  0  0  0  0  0  0  0  0
    6.4126    0.4801    0.3064 C   0  0  0  0  0  0  0  0  0  0  0  0
    7.0623    1.6540    0.6908 C   0  0  0  0  0  0  0  0  0  0  0  0
    6.2841    2.7222    1.1405 C   0  0  0  0  0  0  0  0  0  0  0  0
    4.8970    2.6108    1.2269 C   0  0  0  0  0  0  0  0  0  0  0  0
    4.2274    1.4135    0.8708 C   0  0  0  0  0  0  0  0  0  0  0  0
    2.8454    1.2715    1.0414 N   0  0  0  0  0  0  0  0  0  0  0  0
    2.0746    2.4126    1.5031 C   0  0  0  0  0  0  0  0  0  0  0  0
    1.8031    3.4707    0.4713 C   0  0  0  0  0  0  0  0  0  0  0  0
    2.1242    4.7277    0.4977 N   0  0  0  0  0  0  0  0  0  0  0  0
    1.6392    5.2467   -0.6859 C   0  0  0  0  0  0  0  0  0  0  0  0
    1.0290    4.2530   -1.4084 C   0  0  0  0  0  0  0  0  0  0  0  0
    0.3564    4.1807   -2.7009 C   0  0  0  0  0  0  0  0  0  0  0  0
    0.1919    5.3412   -3.4834 C   0  0  0  0  0  0  0  0  0  0  0  0
   -0.4469    5.2774   -4.7206 C   0  0  0  0  0  0  0  0  0  0  0  0
   -0.9350    4.0571   -5.2021 C   0  0  0  0  0  0  0  0  0  0  0  0
   -0.7773    2.9005   -4.4330 C   0  0  0  0  0  0  0  0  0  0  0  0
   -0.1382    2.9579   -3.1935 C   0  0  0  0  0  0  0  0  0  0  0  0
    1.1357    3.1101   -0.6554 O   0  0  0  0  0  0  0  0  0  0  0  0
    0.3503   -1.0502    0.5775 H   0  0  0  0  0  0  0  0  0  0  0  0
    0.0421    0.6765    0.7943 H   0  0  0  0  0  0  0  0  0  0  0  0
    0.8021   -0.2699    2.1116 H   0  0  0  0  0  0  0  0  0  0  0  0
    2.0077    0.3187   -0.6553 H   0  0  0  0  0  0  0  0  0  0  0  0
    2.4993   -1.9830    0.0975 H   0  0  0  0  0  0  0  0  0  0  0  0
    3.1529   -1.3566    1.6377 H   0  0  0  0  0  0  0  0  0  0  0  0
    5.0178   -1.7872    0.1508 H   0  0  0  0  0  0  0  0  0  0  0  0
    5.4229    0.5531   -2.0205 H   0  0  0  0  0  0  0  0  0  0  0  0
    4.7981   -0.2825   -3.4293 H   0  0  0  0  0  0  0  0  0  0  0  0
    7.0003   -0.3700   -0.0546 H   0  0  0  0  0  0  0  0  0  0  0  0
    8.1502    1.7329    0.6361 H   0  0  0  0  0  0  0  0  0  0  0  0
    6.7559    3.6653    1.4288 H   0  0  0  0  0  0  0  0  0  0  0  0
    4.3356    3.4838    1.5542 H   0  0  0  0  0  0  0  0  0  0  0  0
    2.5831    2.9087    2.3405 H   0  0  0  0  0  0  0  0  0  0  0  0
    1.1169    2.0539    1.9009 H   0  0  0  0  0  0  0  0  0  0  0  0
    1.7640    6.2955   -0.9470 H   0  0  0  0  0  0  0  0  0  0  0  0
    0.5656    6.3009   -3.1192 H   0  0  0  0  0  0  0  0  0  0  0  0
   -0.5661    6.1874   -5.3139 H   0  0  0  0  0  0  0  0  0  0  0  0
   -1.4357    4.0096   -6.1721 H   0  0  0  0  0  0  0  0  0  0  0  0
   -1.1542    1.9427   -4.8008 H   0  0  0  0  0  0  0  0  0  0  0  0
   -0.0162    2.0514   -2.5986 H   0  0  0  0  0  0  0  0  0  0  0  0
  1  2  1  0
  1 27  1  0
  1 28  1  0
  1 29  1  0
  2  3  1  0
  2 14  1  0
  2 30  1  6
  3  4  1  0
  3 31  1  0
  3 32  1  0
  4  5  1  0
  4  8  1  0
  4 33  1  1
  5  6  1  0
  5  7  2  0
  6 34  1  0
  6 35  1  0
  8  9  1  0
  8 13  2  0
  9 10  2  0
  9 36  1  0
 10 11  1  0
 10 37  1  0
 11 12  2  0
 11 38  1  0
 12 13  1  0
 12 39  1  0
 13 14  1  0
 14 15  1  0
 15 16  1  0
 15 40  1  0
 15 41  1  0
 16 17  2  0
 16 26  1  0
 17 18  1  0
 18 19  2  0
 18 42  1  0
 19 20  1  0
 19 26  1  0
 20 21  2  0
 20 25  1  0
 21 22  1  0
 21 43  1  0
 22 23  2  0
 22 44  1  0
 23 24  1  0
 23 45  1  0
 24 25  2  0
 24 46  1  0
 25 47  1  0
M  END

