
     RDKit          3D

 58 60  0  0  0  0  0  0  0  0999 V2000
    4.1095    4.0416   -1.2908 C   0  0  0  0  0  0  0  0  0  0  0  0
    3.5952    2.7959   -0.9017 O   0  0  0  0  0  0  0  0  0  0  0  0
    4.5820    1.8799   -0.4912 C   0  0  0  0  0  0  0  0  0  0  0  0
    3.9324    0.5192   -0.1838 C   0  0  2  0  0  0  0  0  0  0  0  0
    2.9429    0.7693    0.2497 H   0  0  0  0  0  0  0  0  0  0  0  0
    4.7127   -0.2235    0.9234 C   0  0  2  0  0  0  0  0  0  0  0  0
    4.4511    0.2790    1.8697 H   0  0  0  0  0  0  0  0  0  0  0  0
    6.2372   -0.1495    0.7540 C   0  0  0  0  0  0  0  0  0  0  0  0
    6.7848   -0.2143   -0.3373 O   0  0  0  0  0  0  0  0  0  0  0  0
    6.9371   -0.0391    1.9224 N   0  0  0  0  0  0  0  0  0  0  0  0
    8.4005   -0.0167    1.9636 C   0  0  1  0  0  0  0  0  0  0  0  0
    8.8998    0.9370    3.0639 C   0  0  0  0  0  0  0  0  0  0  0  0
    8.7042    0.3467    4.4743 C   0  0  0  0  0  0  0  0  0  0  0  0
    9.2755   -0.9882    4.6384 N   0  0  0  0  0  0  0  0  0  0  0  0
   10.7138   -1.0202    4.8730 C   0  0  0  0  0  0  0  0  0  0  0  0
   11.1135   -0.4728    6.2335 C   0  0  0  0  0  0  0  0  0  0  0  0
   10.3672   -0.7912    7.3795 C   0  0  0  0  0  0  0  0  0  0  0  0
   10.7615   -0.3304    8.6373 C   0  0  0  0  0  0  0  0  0  0  0  0
   11.9104    0.4577    8.7713 C   0  0  0  0  0  0  0  0  0  0  0  0
   12.6580    0.7840    7.6372 C   0  0  0  0  0  0  0  0  0  0  0  0
   12.2581    0.3235    6.3780 C   0  0  0  0  0  0  0  0  0  0  0  0
    8.7815   -1.9115    3.6196 C   0  0  0  0  0  0  0  0  0  0  0  0
    8.9997   -1.4231    2.1780 C   0  0  0  0  0  0  0  0  0  0  0  0
    4.2599   -1.6908    1.0010 C   0  0  0  0  0  0  0  0  0  0  0  0
    4.5075   -2.3812   -0.3344 C   0  0  0  0  0  0  0  0  0  0  0  0
    3.9391   -1.6338   -1.5319 C   0  0  0  0  0  0  0  0  0  0  0  0
    3.7038   -2.2336   -2.5697 O   0  0  0  0  0  0  0  0  0  0  0  0
    3.6958   -0.2837   -1.3921 N   0  0  0  0  0  0  0  0  0  0  0  0
    3.0300    0.3886   -2.5030 C   0  0  0  0  0  0  0  0  0  0  0  0
    3.2626    4.6791   -1.5841 H   0  0  0  0  0  0  0  0  0  0  0  0
    4.8029    3.9545   -2.1515 H   0  0  0  0  0  0  0  0  0  0  0  0
    4.6568    4.5407   -0.4647 H   0  0  0  0  0  0  0  0  0  0  0  0
    5.0788    2.2568    0.4283 H   0  0  0  0  0  0  0  0  0  0  0  0
    5.3706    1.7544   -1.2556 H   0  0  0  0  0  0  0  0  0  0  0  0
    6.4213    0.0059    2.7926 H   0  0  0  0  0  0  0  0  0  0  0  0
    8.7079    0.3505    0.9739 H   0  0  0  0  0  0  0  0  0  0  0  0
    8.3906    1.9119    2.9813 H   0  0  0  0  0  0  0  0  0  0  0  0
    9.9723    1.1275    2.8925 H   0  0  0  0  0  0  0  0  0  0  0  0
    7.6232    0.2871    4.7093 H   0  0  0  0  0  0  0  0  0  0  0  0
    9.1358    1.0175    5.2327 H   0  0  0  0  0  0  0  0  0  0  0  0
   11.3102   -0.4954    4.0947 H   0  0  0  0  0  0  0  0  0  0  0  0
   11.0244   -2.0788    4.8185 H   0  0  0  0  0  0  0  0  0  0  0  0
    9.4658   -1.3980    7.2661 H   0  0  0  0  0  0  0  0  0  0  0  0
   10.1699   -0.5877    9.5201 H   0  0  0  0  0  0  0  0  0  0  0  0
   12.2183    0.8188    9.7560 H   0  0  0  0  0  0  0  0  0  0  0  0
   13.5535    1.4043    7.7299 H   0  0  0  0  0  0  0  0  0  0  0  0
   12.8456    0.5874    5.4931 H   0  0  0  0  0  0  0  0  0  0  0  0
    7.6979   -2.0588    3.7897 H   0  0  0  0  0  0  0  0  0  0  0  0
    9.2526   -2.8958    3.7709 H   0  0  0  0  0  0  0  0  0  0  0  0
    8.5589   -2.1272    1.4541 H   0  0  0  0  0  0  0  0  0  0  0  0
   10.0805   -1.3795    1.9576 H   0  0  0  0  0  0  0  0  0  0  0  0
    3.1845   -1.7132    1.2486 H   0  0  0  0  0  0  0  0  0  0  0  0
    4.7837   -2.2126    1.8186 H   0  0  0  0  0  0  0  0  0  0  0  0
    4.0662   -3.3878   -0.3666 H   0  0  0  0  0  0  0  0  0  0  0  0
    5.5867   -2.5021   -0.5206 H   0  0  0  0  0  0  0  0  0  0  0  0
    2.6870   -0.3814   -3.2031 H   0  0  0  0  0  0  0  0  0  0  0  0
    3.7114    1.0700   -3.0380 H   0  0  0  0  0  0  0  0  0  0  0  0
    2.1819    0.9856   -2.1348 H   0  0  0  0  0  0  0  0  0  0  0  0
  1  2  1  0
  1 30  1  0
  1 31  1  0
  1 32  1  0
  2  3  1  0
  3  4  1  0
  3 33  1  0
  3 34  1  0
  4  5  1  1
  4  6  1  0
  4 28  1  0
  6  7  1  1
  6  8  1  0
  6 24  1  0
  8  9  2  0
  8 10  1  0
 10 11  1  0
 10 35  1  0
 11 12  1  0
 11 23  1  0
 11 36  1  6
 12 13  1  0
 12 37  1  0
 12 38  1  0
 13 14  1  0
 13 39  1  0
 13 40  1  0
 14 15  1  0
 14 22  1  0
 15 16  1  0
 15 41  1  0
 15 42  1  0
 16 17  2  0
 16 21  1  0
 17 18  1  0
 17 43  1  0
 18 19  2  0
 18 44  1  0
 19 20  1  0
 19 45  1  0
 20 21  2  0
 20 46  1  0
 21 47  1  0
 22 23  1  0
 22 48  1  0
 22 49  1  0
 23 50  1  0
 23 51  1  0
 24 25  1  0
 24 52  1  0
 24 53  1  0
 25 26  1  0
 25 54  1  0
 25 55  1  0
 26 27  2  0
 26 28  1  0
 28 29  1  0
 29 56  1  0
 29 57  1  0
 29 58  1  0
M  END

