
     RDKit          3D

 59 62  0  0  0  0  0  0  0  0999 V2000
    4.3556   -2.6611    1.6444 C   0  0  0  0  0  0  0  0  0  0  0  0
    5.1740   -1.5375    1.3395 O   0  0  0  0  0  0  0  0  0  0  0  0
    5.7952   -1.5749    0.1330 C   0  0  0  0  0  0  0  0  0  0  0  0
    5.6845   -2.4817   -0.6623 O   0  0  0  0  0  0  0  0  0  0  0  0
    6.5535   -0.4530   -0.0357 N   0  0  0  0  0  0  0  0  0  0  0  0
    7.3139   -0.1983   -1.2389 C   0  0  0  0  0  0  0  0  0  0  0  0
    6.5228    0.6515   -2.2517 C   0  0  0  0  0  0  0  0  0  0  0  0
    7.3500    1.1721   -3.3341 N   0  0  0  0  0  0  0  0  0  0  0  0
    7.5190    2.4896   -3.7466 C   0  0  0  0  0  0  0  0  0  0  0  0
    6.8917    3.6654   -3.0969 C   0  0  0  0  0  0  0  0  0  0  0  0
    6.0294    4.4628   -3.8736 C   0  0  0  0  0  0  0  0  0  0  0  0
    5.4227    5.6044   -3.3522 C   0  0  0  0  0  0  0  0  0  0  0  0
    5.6721    5.9809   -2.0294 C   0  0  0  0  0  0  0  0  0  0  0  0
    6.5388    5.2227   -1.2411 C   0  0  0  0  0  0  0  0  0  0  0  0
    7.1453    4.0826   -1.7762 C   0  0  0  0  0  0  0  0  0  0  0  0
    8.2876    3.2166   -0.7631 Cl  0  0  0  0  0  0  0  0  0  0  0  0
    8.2246    2.5861   -4.8521 N   0  0  0  0  0  0  0  0  0  0  0  0
    8.5583    1.2936   -5.1958 C   0  0  0  0  0  0  0  0  0  0  0  0
    9.2963    0.6947   -6.2626 C   0  0  0  0  0  0  0  0  0  0  0  0
    9.9167    1.3862   -7.2631 N   0  0  0  0  0  0  0  0  0  0  0  0
   10.6613    0.7036   -8.3124 C   0  0  0  0  0  0  0  0  0  0  0  0
   10.1986    1.1783   -9.6949 C   0  0  0  0  0  0  0  0  0  0  0  0
   10.2402    2.6309   -9.7874 N   0  0  0  0  0  0  0  0  0  0  0  0
   10.8095    3.3662  -10.8059 C   0  0  0  0  0  0  0  0  0  0  0  0
   11.5179    2.5983  -11.9147 C   0  0  0  0  0  0  0  0  0  0  0  0
   10.7561    4.5857  -10.8247 O   0  0  0  0  0  0  0  0  0  0  0  0
    9.5142    3.3182   -8.7242 C   0  0  0  0  0  0  0  0  0  0  0  0
    9.9782    2.8436   -7.3457 C   0  0  0  0  0  0  0  0  0  0  0  0
    9.3722   -0.6466   -6.2768 N   0  0  0  0  0  0  0  0  0  0  0  0
    8.7853   -1.3944   -5.3270 C   0  0  0  0  0  0  0  0  0  0  0  0
    8.9409   -2.8862   -5.4603 C   0  0  0  0  0  0  0  0  0  0  0  0
    8.0892   -0.9361   -4.2833 N   0  0  0  0  0  0  0  0  0  0  0  0
    8.0102    0.3960   -4.2637 C   0  0  0  0  0  0  0  0  0  0  0  0
    3.9264   -2.4664    2.6358 H   0  0  0  0  0  0  0  0  0  0  0  0
    4.9472   -3.5895    1.6655 H   0  0  0  0  0  0  0  0  0  0  0  0
    3.5519   -2.7811    0.9015 H   0  0  0  0  0  0  0  0  0  0  0  0
    6.5249    0.2448    0.6983 H   0  0  0  0  0  0  0  0  0  0  0  0
    7.5744   -1.1586   -1.7024 H   0  0  0  0  0  0  0  0  0  0  0  0
    8.2455    0.3237   -0.9754 H   0  0  0  0  0  0  0  0  0  0  0  0
    6.0609    1.5082   -1.7436 H   0  0  0  0  0  0  0  0  0  0  0  0
    5.7157    0.0366   -2.6820 H   0  0  0  0  0  0  0  0  0  0  0  0
    5.8460    4.1626   -4.9069 H   0  0  0  0  0  0  0  0  0  0  0  0
    4.7550    6.2002   -3.9787 H   0  0  0  0  0  0  0  0  0  0  0  0
    5.2010    6.8723   -1.6084 H   0  0  0  0  0  0  0  0  0  0  0  0
    6.7651    5.5146   -0.2144 H   0  0  0  0  0  0  0  0  0  0  0  0
   10.5113   -0.3757   -8.1958 H   0  0  0  0  0  0  0  0  0  0  0  0
   11.7405    0.9239   -8.1975 H   0  0  0  0  0  0  0  0  0  0  0  0
    9.1644    0.8208   -9.8680 H   0  0  0  0  0  0  0  0  0  0  0  0
   10.8367    0.7269  -10.4636 H   0  0  0  0  0  0  0  0  0  0  0  0
   10.8350    1.9121  -12.4404 H   0  0  0  0  0  0  0  0  0  0  0  0
   12.3626    2.0045  -11.5306 H   0  0  0  0  0  0  0  0  0  0  0  0
   11.8998    3.3376  -12.6286 H   0  0  0  0  0  0  0  0  0  0  0  0
    8.4295    3.1225   -8.8294 H   0  0  0  0  0  0  0  0  0  0  0  0
    9.6838    4.3949   -8.8478 H   0  0  0  0  0  0  0  0  0  0  0  0
    9.3576    3.2864   -6.5586 H   0  0  0  0  0  0  0  0  0  0  0  0
   11.0245    3.1683   -7.1849 H   0  0  0  0  0  0  0  0  0  0  0  0
    8.5676   -3.2222   -6.4408 H   0  0  0  0  0  0  0  0  0  0  0  0
    8.3944   -3.4020   -4.6610 H   0  0  0  0  0  0  0  0  0  0  0  0
   10.0068   -3.1629   -5.4138 H   0  0  0  0  0  0  0  0  0  0  0  0
  1  2  1  0
  1 34  1  0
  1 35  1  0
  1 36  1  0
  2  3  1  0
  3  4  2  0
  3  5  1  0
  5  6  1  0
  5 37  1  0
  6  7  1  0
  6 38  1  0
  6 39  1  0
  7  8  1  0
  7 40  1  0
  7 41  1  0
  8  9  1  0
  8 33  1  0
  9 10  1  0
  9 17  2  0
 10 11  2  0
 10 15  1  0
 11 12  1  0
 11 42  1  0
 12 13  2  0
 12 43  1  0
 13 14  1  0
 13 44  1  0
 14 15  2  0
 14 45  1  0
 15 16  1  0
 17 18  1  0
 18 19  1  0
 18 33  2  0
 19 20  1  0
 19 29  2  0
 20 21  1  0
 20 28  1  0
 21 22  1  0
 21 46  1  0
 21 47  1  0
 22 23  1  0
 22 48  1  0
 22 49  1  0
 23 24  1  0
 23 27  1  0
 24 25  1  0
 24 26  2  0
 25 50  1  0
 25 51  1  0
 25 52  1  0
 27 28  1  0
 27 53  1  0
 27 54  1  0
 28 55  1  0
 28 56  1  0
 29 30  1  0
 30 31  1  0
 30 32  2  0
 31 57  1  0
 31 58  1  0
 31 59  1  0
 32 33  1  0
M  END

