
     RDKit          3D

 81 85  0  0  0  0  0  0  0  0999 V2000
    7.1024   -4.9746  -18.3440 C   0  0  0  0  0  0  0  0  0  0  0  0
    8.0430   -5.0524  -17.2807 O   0  0  0  0  0  0  0  0  0  0  0  0
    7.8340   -5.7982  -16.1758 C   0  0  0  0  0  0  0  0  0  0  0  0
    8.4978   -5.3599  -15.0185 C   0  0  0  0  0  0  0  0  0  0  0  0
    8.4175   -6.0410  -13.7945 C   0  0  0  0  0  0  0  0  0  0  0  0
    9.1403   -5.4949  -12.6494 C   0  0  0  0  0  0  0  0  0  0  0  0
    9.1624   -5.9762  -11.3835 C   0  0  0  0  0  0  0  0  0  0  0  0
    9.9330   -5.3389  -10.3241 C   0  0  0  0  0  0  0  0  0  0  0  0
    9.9278   -5.8600   -9.0223 C   0  0  0  0  0  0  0  0  0  0  0  0
   10.7584   -5.2781   -8.0506 C   0  0  0  0  0  0  0  0  0  0  0  0
   10.9283   -5.7854   -6.6912 C   0  0  0  0  0  0  0  0  0  0  0  0
   10.3259   -6.8816   -6.1756 C   0  0  0  0  0  0  0  0  0  0  0  0
   10.4716   -7.4126   -4.8213 C   0  0  0  0  0  0  0  0  0  0  0  0
   11.2817   -6.8076   -3.8418 C   0  0  0  0  0  0  0  0  0  0  0  0
   11.3760   -7.3616   -2.5680 C   0  0  0  0  0  0  0  0  0  0  0  0
   10.6752   -8.5259   -2.2476 C   0  0  0  0  0  0  0  0  0  0  0  0
   10.7014   -9.0506   -0.9769 O   0  0  0  0  0  0  0  0  0  0  0  0
   12.0828   -9.8103   -0.3816 S   0  0  1  0  0  0  0  0  0  0  0  0
   13.2464   -9.0718   -0.8602 O   0  0  0  0  0  0  0  0  0  0  0  0
   11.7764   -9.9622    1.0283 O   0  0  0  0  0  0  0  0  0  0  0  0
   12.0282  -11.3981   -1.1861 C   0  0  0  0  0  0  0  0  0  0  0  0
   11.1609  -12.3786   -0.6928 C   0  0  0  0  0  0  0  0  0  0  0  0
   11.1235  -13.6193   -1.3239 C   0  0  0  0  0  0  0  0  0  0  0  0
   11.9397  -13.8984   -2.4367 C   0  0  0  0  0  0  0  0  0  0  0  0
   11.9117  -15.2600   -3.0842 C   0  0  0  0  0  0  0  0  0  0  0  0
   12.7983  -12.8913   -2.9049 C   0  0  0  0  0  0  0  0  0  0  0  0
   12.8518  -11.6399   -2.2868 C   0  0  0  0  0  0  0  0  0  0  0  0
    9.8574   -9.1594   -3.2141 C   0  0  0  0  0  0  0  0  0  0  0  0
    9.2190  -10.2814   -2.8187 O   0  0  0  0  0  0  0  0  0  0  0  0
    8.3819  -10.9592   -3.7300 C   0  0  0  0  0  0  0  0  0  0  0  0
    9.7626   -8.5880   -4.4870 C   0  0  0  0  0  0  0  0  0  0  0  0
   11.4650   -4.2287   -8.3209 O   0  0  0  0  0  0  0  0  0  0  0  0
   11.3516   -3.4401   -9.6129 B   0  0  2  0  0  0  0  0  0  0  0  0
   12.6072   -3.1787  -10.0686 F   0  0  0  0  0  0  0  0  0  0  0  0
   10.5922   -2.3302   -9.3667 F   0  0  0  0  0  0  0  0  0  0  0  0
   10.6354   -4.2957  -10.6323 O   0  0  0  0  0  0  0  0  0  0  0  0
    7.6390   -7.2184  -13.7350 C   0  0  0  0  0  0  0  0  0  0  0  0
    6.9883   -7.6803  -14.8689 C   0  0  0  0  0  0  0  0  0  0  0  0
    7.0771   -6.9877  -16.0880 C   0  0  0  0  0  0  0  0  0  0  0  0
    6.4982   -7.5233  -17.2331 O   0  0  0  0  0  0  0  0  0  0  0  0
    4.8195   -7.7098  -17.2901 S   0  0  1  0  0  0  0  0  0  0  0  0
    4.4499   -8.7545  -16.3409 O   0  0  0  0  0  0  0  0  0  0  0  0
    4.2157   -6.3831  -17.2105 O   0  0  0  0  0  0  0  0  0  0  0  0
    4.7230   -8.3404  -18.9483 C   0  0  0  0  0  0  0  0  0  0  0  0
    5.0038   -9.6891  -19.1796 C   0  0  0  0  0  0  0  0  0  0  0  0
    4.9206  -10.1778  -20.4836 C   0  0  0  0  0  0  0  0  0  0  0  0
    4.5523   -9.3439  -21.5529 C   0  0  0  0  0  0  0  0  0  0  0  0
    4.4480   -9.8773  -22.9591 C   0  0  0  0  0  0  0  0  0  0  0  0
    4.2650   -7.9940  -21.2813 C   0  0  0  0  0  0  0  0  0  0  0  0
    4.3471   -7.4835  -19.9869 C   0  0  0  0  0  0  0  0  0  0  0  0
    7.3568   -4.0612  -18.9001 H   0  0  0  0  0  0  0  0  0  0  0  0
    6.0713   -4.8983  -17.9654 H   0  0  0  0  0  0  0  0  0  0  0  0
    7.1794   -5.8409  -19.0185 H   0  0  0  0  0  0  0  0  0  0  0  0
    9.0861   -4.4441  -15.1054 H   0  0  0  0  0  0  0  0  0  0  0  0
    9.7293   -4.5922  -12.8388 H   0  0  0  0  0  0  0  0  0  0  0  0
    8.5990   -6.8672  -11.0977 H   0  0  0  0  0  0  0  0  0  0  0  0
    9.3265   -6.7375   -8.7984 H   0  0  0  0  0  0  0  0  0  0  0  0
   11.6143   -5.1818   -6.0923 H   0  0  0  0  0  0  0  0  0  0  0  0
    9.6514   -7.4554   -6.8194 H   0  0  0  0  0  0  0  0  0  0  0  0
   11.8378   -5.8970   -4.0677 H   0  0  0  0  0  0  0  0  0  0  0  0
   11.9969   -6.9033   -1.7981 H   0  0  0  0  0  0  0  0  0  0  0  0
   10.5351  -12.1666    0.1757 H   0  0  0  0  0  0  0  0  0  0  0  0
   10.4510  -14.3928   -0.9425 H   0  0  0  0  0  0  0  0  0  0  0  0
   10.8865  -15.6570   -3.1456 H   0  0  0  0  0  0  0  0  0  0  0  0
   12.5027  -15.9836   -2.4962 H   0  0  0  0  0  0  0  0  0  0  0  0
   12.3351  -15.2367   -4.0990 H   0  0  0  0  0  0  0  0  0  0  0  0
   13.4430  -13.0892   -3.7655 H   0  0  0  0  0  0  0  0  0  0  0  0
   13.5294  -10.8617   -2.6414 H   0  0  0  0  0  0  0  0  0  0  0  0
    7.9810  -11.8295   -3.1943 H   0  0  0  0  0  0  0  0  0  0  0  0
    8.9403  -11.3101   -4.6163 H   0  0  0  0  0  0  0  0  0  0  0  0
    7.5412  -10.3248   -4.0631 H   0  0  0  0  0  0  0  0  0  0  0  0
    9.1341   -9.0533   -5.2466 H   0  0  0  0  0  0  0  0  0  0  0  0
    7.5534   -7.7835  -12.8058 H   0  0  0  0  0  0  0  0  0  0  0  0
    6.4016   -8.5985  -14.8430 H   0  0  0  0  0  0  0  0  0  0  0  0
    5.2754  -10.3434  -18.3496 H   0  0  0  0  0  0  0  0  0  0  0  0
    5.1420  -11.2310  -20.6741 H   0  0  0  0  0  0  0  0  0  0  0  0
    4.8149  -10.9110  -23.0307 H   0  0  0  0  0  0  0  0  0  0  0  0
    5.0269   -9.2584  -23.6634 H   0  0  0  0  0  0  0  0  0  0  0  0
    3.4012   -9.8662  -23.3068 H   0  0  0  0  0  0  0  0  0  0  0  0
    3.9683   -7.3311  -22.0987 H   0  0  0  0  0  0  0  0  0  0  0  0
    4.1134   -6.4391  -19.7743 H   0  0  0  0  0  0  0  0  0  0  0  0
  1  2  1  0
  1 51  1  0
  1 52  1  0
  1 53  1  0
  2  3  1  0
  3  4  2  0
  3 39  1  0
  4  5  1  0
  4 54  1  0
  5  6  2  0
  5 37  1  0
  6  7  1  0
  6 55  1  0
  7  8  2  0
  7 56  1  0
  8  9  1  0
  8 36  1  0
  9 10  2  0
  9 57  1  0
 10 11  1  0
 10 32  1  0
 11 12  2  0
 11 58  1  0
 12 13  1  0
 12 59  1  0
 13 14  2  0
 13 31  1  0
 14 15  1  0
 14 60  1  0
 15 16  2  0
 15 61  1  0
 16 17  1  0
 16 28  1  0
 18 17  1  6
 18 19  2  0
 18 20  2  0
 18 21  1  0
 21 22  2  0
 21 27  1  0
 22 23  1  0
 22 62  1  0
 23 24  2  0
 23 63  1  0
 24 25  1  0
 24 26  1  0
 25 64  1  0
 25 65  1  0
 25 66  1  0
 26 27  2  0
 26 67  1  0
 27 68  1  0
 28 29  1  0
 28 31  2  0
 29 30  1  0
 30 69  1  0
 30 70  1  0
 30 71  1  0
 31 72  1  0
 32 33  1  0
 33 34  1  6
 33 35  1  0
 33 36  1  0
 37 38  2  0
 37 73  1  0
 38 39  1  0
 38 74  1  0
 39 40  2  0
 41 40  1  1
 41 42  2  0
 41 43  2  0
 41 44  1  0
 44 45  2  0
 44 50  1  0
 45 46  1  0
 45 75  1  0
 46 47  2  0
 46 76  1  0
 47 48  1  0
 47 49  1  0
 48 77  1  0
 48 78  1  0
 48 79  1  0
 49 50  2  0
 49 80  1  0
 50 81  1  0
M  CHG  2  33  -1  40   1
M  END

