
     RDKit          3D

 39 40  0  0  0  0  0  0  0  0999 V2000
    7.3296   -0.4685    1.6926 C   0  0  0  0  0  0  0  0  0  0  0  0
    5.9400   -0.6162    1.4779 O   0  0  0  0  0  0  0  0  0  0  0  0
    5.1350    0.4769    1.5127 C   0  0  0  0  0  0  0  0  0  0  0  0
    5.6193    1.7866    1.6502 C   0  0  0  0  0  0  0  0  0  0  0  0
    4.7136    2.8512    1.6826 C   0  0  0  0  0  0  0  0  0  0  0  0
    5.3894    4.6260    1.8609 Br  0  0  0  0  0  0  0  0  0  0  0  0
    3.3384    2.6424    1.5954 C   0  0  0  0  0  0  0  0  0  0  0  0
    2.8735    1.3302    1.4721 C   0  0  0  0  0  0  0  0  0  0  0  0
    3.7470    0.2411    1.4034 C   0  0  0  0  0  0  0  0  0  0  0  0
    3.1546   -1.1513    1.3912 C   0  0  0  0  0  0  0  0  0  0  0  0
    2.4868   -1.5244    2.3456 O   0  0  0  0  0  0  0  0  0  0  0  0
    3.3511   -1.9380    0.2825 N   0  0  0  0  0  0  0  0  0  0  0  0
    4.0494   -1.5571   -0.9384 C   0  0  0  0  0  0  0  0  0  0  0  0
    5.1754   -2.5485   -1.2808 C   0  0  2  0  0  0  0  0  0  0  0  0
    5.8515   -2.1792   -2.6025 C   0  0  0  0  0  0  0  0  0  0  0  0
    4.6317   -3.9858   -1.2973 C   0  0  0  0  0  0  0  0  0  0  0  0
    3.8804   -4.3269   -0.0064 C   0  0  2  0  0  0  0  0  0  0  0  0
    3.3003   -5.7418   -0.0421 C   0  0  0  0  0  0  0  0  0  0  0  0
    3.3760   -6.4828   -0.9833 O   0  0  0  0  0  0  0  0  0  0  0  0
    2.6646   -6.1357    1.0863 O   0  0  0  0  0  0  0  0  0  0  0  0
    2.7827   -3.2765    0.2684 C   0  0  0  0  0  0  0  0  0  0  0  0
    7.7571   -1.4793    1.6654 H   0  0  0  0  0  0  0  0  0  0  0  0
    7.5412   -0.0143    2.6761 H   0  0  0  0  0  0  0  0  0  0  0  0
    7.8045    0.1420    0.9046 H   0  0  0  0  0  0  0  0  0  0  0  0
    6.6853    1.9876    1.7359 H   0  0  0  0  0  0  0  0  0  0  0  0
    2.6431    3.4813    1.6351 H   0  0  0  0  0  0  0  0  0  0  0  0
    1.7980    1.1425    1.4334 H   0  0  0  0  0  0  0  0  0  0  0  0
    4.4447   -0.5398   -0.8317 H   0  0  0  0  0  0  0  0  0  0  0  0
    3.3212   -1.5356   -1.7744 H   0  0  0  0  0  0  0  0  0  0  0  0
    5.9181   -2.4709   -0.4676 H   0  0  0  0  0  0  0  0  0  0  0  0
    5.1372   -2.2237   -3.4421 H   0  0  0  0  0  0  0  0  0  0  0  0
    6.6750   -2.8733   -2.8334 H   0  0  0  0  0  0  0  0  0  0  0  0
    6.2697   -1.1598   -2.5725 H   0  0  0  0  0  0  0  0  0  0  0  0
    5.4483   -4.7068   -1.4582 H   0  0  0  0  0  0  0  0  0  0  0  0
    3.9421   -4.1173   -2.1499 H   0  0  0  0  0  0  0  0  0  0  0  0
    4.5858   -4.2889    0.8459 H   0  0  0  0  0  0  0  0  0  0  0  0
    2.6975   -5.4433    1.7625 H   0  0  0  0  0  0  0  0  0  0  0  0
    2.2851   -3.4204    1.2362 H   0  0  0  0  0  0  0  0  0  0  0  0
    2.0105   -3.3452   -0.5217 H   0  0  0  0  0  0  0  0  0  0  0  0
  1  2  1  0
  1 22  1  0
  1 23  1  0
  1 24  1  0
  2  3  1  0
  3  4  2  0
  3  9  1  0
  4  5  1  0
  4 25  1  0
  5  6  1  0
  5  7  2  0
  7  8  1  0
  7 26  1  0
  8  9  2  0
  8 27  1  0
  9 10  1  0
 10 11  2  0
 10 12  1  0
 12 13  1  0
 12 21  1  0
 13 14  1  0
 13 28  1  0
 13 29  1  0
 14 15  1  0
 14 16  1  0
 14 30  1  1
 15 31  1  0
 15 32  1  0
 15 33  1  0
 16 17  1  0
 16 34  1  0
 16 35  1  0
 17 18  1  0
 17 21  1  0
 17 36  1  1
 18 19  2  0
 18 20  1  0
 20 37  1  0
 21 38  1  0
 21 39  1  0
M  END

