
     RDKit          3D

 47 49  0  0  0  0  0  0  0  0999 V2000
    1.4817   -0.4913   -2.7836 C   0  0  0  0  0  0  0  0  0  0  0  0
    2.8213    0.0709   -2.3360 C   0  0  0  0  0  0  0  0  0  0  0  0
    3.2561    1.1296   -2.7457 O   0  0  0  0  0  0  0  0  0  0  0  0
    3.5015   -0.7442   -1.4510 N   0  0  0  0  0  0  0  0  0  0  0  0
    4.7639   -0.5696   -0.8708 C   0  0  0  0  0  0  0  0  0  0  0  0
    5.5930    0.5397   -1.1278 C   0  0  0  0  0  0  0  0  0  0  0  0
    6.8363    0.5994   -0.4892 C   0  0  0  0  0  0  0  0  0  0  0  0
    7.7237    1.7834   -0.6966 C   0  0  0  0  0  0  0  0  0  0  0  0
    7.2996    3.0207   -0.1945 C   0  0  0  0  0  0  0  0  0  0  0  0
    8.0260    4.1354   -0.2701 N   0  0  0  0  0  0  0  0  0  0  0  0
    9.1766    4.0786   -0.8927 C   0  0  0  0  0  0  0  0  0  0  0  0
   10.1323    5.5607   -0.9268 Cl  0  0  0  0  0  0  0  0  0  0  0  0
    9.7074    2.9127   -1.4905 C   0  0  0  0  0  0  0  0  0  0  0  0
   10.9804    2.9459   -2.1310 N   0  0  0  0  0  0  0  0  0  0  0  0
   11.0232    3.0799   -3.8549 S   0  0  1  0  0  0  0  0  0  0  0  0
    9.9750    2.2097   -4.3849 O   0  0  0  0  0  0  0  0  0  0  0  0
   11.0871    4.4954   -4.2348 O   0  0  0  0  0  0  0  0  0  0  0  0
   12.7390    2.4004   -4.2374 C   0  0  2  0  0  0  0  0  0  0  0  0
   13.0635    2.7917   -5.6889 C   0  0  0  0  0  0  0  0  0  0  0  0
   12.4953    1.8172   -6.6869 C   0  0  0  0  0  0  0  0  0  0  0  0
   12.2566    2.4186   -8.2980 Cl  0  0  0  0  0  0  0  0  0  0  0  0
   12.2700    0.5293   -6.3640 C   0  0  0  0  0  0  0  0  0  0  0  0
   12.5740    0.0582   -5.0180 C   0  0  0  0  0  0  0  0  0  0  0  0
   12.8400    0.9233   -4.0165 C   0  0  0  0  0  0  0  0  0  0  0  0
   13.3010    0.3677   -2.4278 Cl  0  0  0  0  0  0  0  0  0  0  0  0
    8.9725    1.7126   -1.3599 C   0  0  0  0  0  0  0  0  0  0  0  0
    9.5049    0.4268   -1.9283 C   0  0  0  0  0  0  0  0  0  0  0  0
    7.1909   -0.4446    0.3841 C   0  0  0  0  0  0  0  0  0  0  0  0
    6.2915   -1.4950    0.5633 C   0  0  0  0  0  0  0  0  0  0  0  0
    5.1080   -1.5646   -0.0464 N   0  0  0  0  0  0  0  0  0  0  0  0
    0.8785    0.3284   -3.1928 H   0  0  0  0  0  0  0  0  0  0  0  0
    0.9356   -0.9819   -1.9630 H   0  0  0  0  0  0  0  0  0  0  0  0
    1.6410   -1.2365   -3.5809 H   0  0  0  0  0  0  0  0  0  0  0  0
    3.0612   -1.6082   -1.1494 H   0  0  0  0  0  0  0  0  0  0  0  0
    5.2583    1.3152   -1.8133 H   0  0  0  0  0  0  0  0  0  0  0  0
    6.3316    3.1001    0.3113 H   0  0  0  0  0  0  0  0  0  0  0  0
   11.5249    3.7367   -1.7765 H   0  0  0  0  0  0  0  0  0  0  0  0
   13.3765    2.9627   -3.5417 H   0  0  0  0  0  0  0  0  0  0  0  0
   14.1635    2.8175   -5.8107 H   0  0  0  0  0  0  0  0  0  0  0  0
   12.7030    3.8121   -5.8809 H   0  0  0  0  0  0  0  0  0  0  0  0
   11.9027   -0.1790   -7.1079 H   0  0  0  0  0  0  0  0  0  0  0  0
   12.6071   -1.0171   -4.8307 H   0  0  0  0  0  0  0  0  0  0  0  0
    9.3124    0.3892   -3.0113 H   0  0  0  0  0  0  0  0  0  0  0  0
    9.0376   -0.4479   -1.4622 H   0  0  0  0  0  0  0  0  0  0  0  0
   10.5941    0.3702   -1.7962 H   0  0  0  0  0  0  0  0  0  0  0  0
    8.1399   -0.4309    0.9237 H   0  0  0  0  0  0  0  0  0  0  0  0
    6.5379   -2.3219    1.2396 H   0  0  0  0  0  0  0  0  0  0  0  0
  1  2  1  0
  1 31  1  0
  1 32  1  0
  1 33  1  0
  2  3  2  0
  2  4  1  0
  4  5  1  0
  4 34  1  0
  5  6  2  0
  5 30  1  0
  6  7  1  0
  6 35  1  0
  7  8  1  0
  7 28  2  0
  8  9  2  0
  8 26  1  0
  9 10  1  0
  9 36  1  0
 10 11  2  0
 11 12  1  0
 11 13  1  0
 13 14  1  0
 13 26  2  0
 15 14  1  1
 14 37  1  0
 15 16  2  0
 15 17  2  0
 15 18  1  0
 18 19  1  0
 18 24  1  0
 18 38  1  1
 19 20  1  0
 19 39  1  0
 19 40  1  0
 20 21  1  0
 20 22  2  0
 22 23  1  0
 22 41  1  0
 23 24  2  0
 23 42  1  0
 24 25  1  0
 26 27  1  0
 27 43  1  0
 27 44  1  0
 27 45  1  0
 28 29  1  0
 28 46  1  0
 29 30  2  0
 29 47  1  0
M  END

