
     RDKit          3D

 60 62  0  0  0  0  0  0  0  0999 V2000
    5.7505    5.0873   -1.9619 C   0  0  0  0  0  0  0  0  0  0  0  0
    6.2365    5.3972   -0.7589 C   0  0  0  0  0  0  0  0  0  0  0  0
    7.3225    4.6091   -0.0720 C   0  0  0  0  0  0  0  0  0  0  0  0
    7.1163    4.4139    1.3654 N   0  0  0  0  0  0  0  0  0  0  0  0
    6.2456    3.5299    1.9658 C   0  0  0  0  0  0  0  0  0  0  0  0
    5.1541    2.4775    1.0633 S   0  0  0  0  0  0  0  0  0  0  0  0
    3.4825    2.9166    1.7223 C   0  0  1  0  0  0  0  0  0  0  0  0
    3.3081    2.5691    3.2081 C   0  0  0  0  0  0  0  0  0  0  0  0
    3.0947    4.3763    1.4402 C   0  0  0  0  0  0  0  0  0  0  0  0
    3.9288    5.2615    1.4519 O   0  0  0  0  0  0  0  0  0  0  0  0
    1.6498    4.6965    1.2085 C   0  0  0  0  0  0  0  0  0  0  0  0
    0.6219    3.7403    1.1349 C   0  0  0  0  0  0  0  0  0  0  0  0
   -0.7066    4.1024    0.9160 C   0  0  0  0  0  0  0  0  0  0  0  0
   -1.0419    5.4610    0.7638 C   0  0  0  0  0  0  0  0  0  0  0  0
   -2.3476    5.9175    0.5429 N   0  0  0  0  0  0  0  0  0  0  0  0
   -3.5222    5.1950    0.4236 C   0  0  0  0  0  0  0  0  0  0  0  0
   -3.5621    3.9822    0.5014 O   0  0  0  0  0  0  0  0  0  0  0  0
   -4.7890    6.0570    0.1834 C   0  0  1  0  0  0  0  0  0  0  0  0
   -4.6348    6.8640   -1.1247 C   0  0  0  0  0  0  0  0  0  0  0  0
   -5.9922    5.1101    0.0628 C   0  0  0  0  0  0  0  0  0  0  0  0
   -5.0031    7.0138    1.3771 C   0  0  0  0  0  0  0  0  0  0  0  0
   -0.0165    6.4287    0.8369 C   0  0  0  0  0  0  0  0  0  0  0  0
    1.2992    6.0521    1.0550 C   0  0  0  0  0  0  0  0  0  0  0  0
    6.4101    3.5444    3.2710 N   0  0  0  0  0  0  0  0  0  0  0  0
    7.3740    4.4566    3.5580 N   0  0  0  0  0  0  0  0  0  0  0  0
    7.8033    4.9720    2.4215 C   0  0  0  0  0  0  0  0  0  0  0  0
    8.9265    5.9257    2.3654 C   0  0  0  0  0  0  0  0  0  0  0  0
   10.0366    5.7118    3.2065 C   0  0  0  0  0  0  0  0  0  0  0  0
   11.1039    6.6082    3.2408 C   0  0  0  0  0  0  0  0  0  0  0  0
   11.0850    7.7507    2.4331 C   0  0  0  0  0  0  0  0  0  0  0  0
    9.9898    7.9987    1.6037 C   0  0  0  0  0  0  0  0  0  0  0  0
    8.9315    7.0946    1.5907 C   0  0  0  0  0  0  0  0  0  0  0  0
    7.8690    7.3750    0.8130 F   0  0  0  0  0  0  0  0  0  0  0  0
    4.9967    5.7129   -2.4471 H   0  0  0  0  0  0  0  0  0  0  0  0
    6.0809    4.1971   -2.5080 H   0  0  0  0  0  0  0  0  0  0  0  0
    5.8770    6.2779   -0.2212 H   0  0  0  0  0  0  0  0  0  0  0  0
    8.2871    5.1276   -0.1787 H   0  0  0  0  0  0  0  0  0  0  0  0
    7.4365    3.6222   -0.5459 H   0  0  0  0  0  0  0  0  0  0  0  0
    2.8528    2.2496    1.1139 H   0  0  0  0  0  0  0  0  0  0  0  0
    4.0307    3.1274    3.8191 H   0  0  0  0  0  0  0  0  0  0  0  0
    3.4860    1.4955    3.3670 H   0  0  0  0  0  0  0  0  0  0  0  0
    2.2858    2.8106    3.5426 H   0  0  0  0  0  0  0  0  0  0  0  0
    0.8427    2.6776    1.2497 H   0  0  0  0  0  0  0  0  0  0  0  0
   -1.4901    3.3514    0.8603 H   0  0  0  0  0  0  0  0  0  0  0  0
   -2.4332    6.9232    0.4592 H   0  0  0  0  0  0  0  0  0  0  0  0
   -4.4462    6.2005   -1.9832 H   0  0  0  0  0  0  0  0  0  0  0  0
   -3.8137    7.5982   -1.0798 H   0  0  0  0  0  0  0  0  0  0  0  0
   -5.5598    7.4263   -1.3298 H   0  0  0  0  0  0  0  0  0  0  0  0
   -5.8624    4.4069   -0.7723 H   0  0  0  0  0  0  0  0  0  0  0  0
   -6.9120    5.6914   -0.1071 H   0  0  0  0  0  0  0  0  0  0  0  0
   -6.1193    4.5112    0.9759 H   0  0  0  0  0  0  0  0  0  0  0  0
   -4.1892    7.7491    1.4862 H   0  0  0  0  0  0  0  0  0  0  0  0
   -5.0831    6.4578    2.3243 H   0  0  0  0  0  0  0  0  0  0  0  0
   -5.9368    7.5823    1.2396 H   0  0  0  0  0  0  0  0  0  0  0  0
   -0.2654    7.4882    0.7213 H   0  0  0  0  0  0  0  0  0  0  0  0
    2.0926    6.7994    1.1131 H   0  0  0  0  0  0  0  0  0  0  0  0
   10.0318    4.8227    3.8389 H   0  0  0  0  0  0  0  0  0  0  0  0
   11.9536    6.4149    3.8992 H   0  0  0  0  0  0  0  0  0  0  0  0
   11.9197    8.4554    2.4518 H   0  0  0  0  0  0  0  0  0  0  0  0
    9.9287    8.8887    0.9744 H   0  0  0  0  0  0  0  0  0  0  0  0
  1  2  2  0
  1 34  1  0
  1 35  1  0
  2  3  1  0
  2 36  1  0
  3  4  1  0
  3 37  1  0
  3 38  1  0
  4  5  1  0
  4 26  1  0
  5  6  1  0
  5 24  2  0
  6  7  1  0
  7  8  1  0
  7  9  1  0
  7 39  1  6
  8 40  1  0
  8 41  1  0
  8 42  1  0
  9 10  2  0
  9 11  1  0
 11 12  2  0
 11 23  1  0
 12 13  1  0
 12 43  1  0
 13 14  2  0
 13 44  1  0
 14 15  1  0
 14 22  1  0
 15 16  1  0
 15 45  1  0
 16 17  2  0
 18 16  1  1
 18 19  1  0
 18 20  1  0
 18 21  1  0
 19 46  1  0
 19 47  1  0
 19 48  1  0
 20 49  1  0
 20 50  1  0
 20 51  1  0
 21 52  1  0
 21 53  1  0
 21 54  1  0
 22 23  2  0
 22 55  1  0
 23 56  1  0
 24 25  1  0
 25 26  2  0
 26 27  1  0
 27 28  2  0
 27 32  1  0
 28 29  1  0
 28 57  1  0
 29 30  2  0
 29 58  1  0
 30 31  1  0
 30 59  1  0
 31 32  2  0
 31 60  1  0
 32 33  1  0
M  END

