
     RDKit          3D

 39 38  0  0  0  0  0  0  0  0999 V2000
    1.2894    0.0942    1.1184 C   0  0  0  0  0  0  0  0  0  0  0  0
    2.2148    0.1226    0.1549 C   0  0  0  0  0  0  0  0  0  0  0  0
    2.9345   -1.0729   -0.4046 C   0  0  0  0  0  0  0  0  0  0  0  0
    4.4599   -1.0084   -0.2174 C   0  0  0  0  0  0  0  0  0  0  0  0
    5.1974   -2.2105   -0.8178 C   0  0  0  0  0  0  0  0  0  0  0  0
    6.7328   -2.1464   -0.6546 C   0  0  1  0  0  0  0  0  0  0  0  0
    7.1570   -2.0251    0.7458 N   0  0  0  0  0  0  0  0  0  0  0  0
    7.5262   -3.3015   -1.3608 C   0  0  1  0  0  0  0  0  0  0  0  0
    7.3529   -4.6389   -0.6261 C   0  0  0  0  0  0  0  0  0  0  0  0
    7.0852   -3.4280   -2.8405 C   0  0  0  0  0  0  0  0  0  0  0  0
    7.9615   -4.3374   -3.7034 C   0  0  0  0  0  0  0  0  0  0  0  0
    8.8980   -2.8928   -1.4446 O   0  0  0  0  0  0  0  0  0  0  0  0
    9.8279   -3.1782   -0.4124 C   0  0  0  0  0  0  0  0  0  0  0  0
   11.1081   -2.4228   -0.7281 C   0  0  0  0  0  0  0  0  0  0  0  0
    0.8094    1.0080    1.4801 H   0  0  0  0  0  0  0  0  0  0  0  0
    0.9718   -0.8472    1.5803 H   0  0  0  0  0  0  0  0  0  0  0  0
    2.4989    1.0933   -0.2746 H   0  0  0  0  0  0  0  0  0  0  0  0
    2.7163   -1.1524   -1.4869 H   0  0  0  0  0  0  0  0  0  0  0  0
    2.5410   -1.9945    0.0587 H   0  0  0  0  0  0  0  0  0  0  0  0
    4.6813   -0.9275    0.8603 H   0  0  0  0  0  0  0  0  0  0  0  0
    4.8448   -0.0788   -0.6771 H   0  0  0  0  0  0  0  0  0  0  0  0
    4.9350   -2.2780   -1.8852 H   0  0  0  0  0  0  0  0  0  0  0  0
    4.8171   -3.1385   -0.3495 H   0  0  0  0  0  0  0  0  0  0  0  0
    7.0897   -1.2353   -1.1648 H   0  0  0  0  0  0  0  0  0  0  0  0
    6.6059   -2.6331    1.3527 H   0  0  0  0  0  0  0  0  0  0  0  0
    7.0209   -1.0764    1.0887 H   0  0  0  0  0  0  0  0  0  0  0  0
    6.3044   -4.9710   -0.6759 H   0  0  0  0  0  0  0  0  0  0  0  0
    7.6363   -4.5625    0.4330 H   0  0  0  0  0  0  0  0  0  0  0  0
    7.9721   -5.4247   -1.0824 H   0  0  0  0  0  0  0  0  0  0  0  0
    7.0886   -2.4136   -3.2767 H   0  0  0  0  0  0  0  0  0  0  0  0
    6.0431   -3.7830   -2.8790 H   0  0  0  0  0  0  0  0  0  0  0  0
    9.0088   -4.0056   -3.6743 H   0  0  0  0  0  0  0  0  0  0  0  0
    7.6210   -4.3192   -4.7511 H   0  0  0  0  0  0  0  0  0  0  0  0
    7.9282   -5.3869   -3.3692 H   0  0  0  0  0  0  0  0  0  0  0  0
   10.0423   -4.2648   -0.3654 H   0  0  0  0  0  0  0  0  0  0  0  0
    9.4284   -2.8662    0.5655 H   0  0  0  0  0  0  0  0  0  0  0  0
   11.5072   -2.7183   -1.7115 H   0  0  0  0  0  0  0  0  0  0  0  0
   11.8763   -2.6289    0.0346 H   0  0  0  0  0  0  0  0  0  0  0  0
   10.9212   -1.3376   -0.7503 H   0  0  0  0  0  0  0  0  0  0  0  0
  1  2  2  0
  1 15  1  0
  1 16  1  0
  2  3  1  0
  2 17  1  0
  3  4  1  0
  3 18  1  0
  3 19  1  0
  4  5  1  0
  4 20  1  0
  4 21  1  0
  5  6  1  0
  5 22  1  0
  5 23  1  0
  6  7  1  0
  6  8  1  0
  6 24  1  6
  7 25  1  0
  7 26  1  0
  8  9  1  0
  8 10  1  0
  8 12  1  6
  9 27  1  0
  9 28  1  0
  9 29  1  0
 10 11  1  0
 10 30  1  0
 10 31  1  0
 11 32  1  0
 11 33  1  0
 11 34  1  0
 12 13  1  0
 13 14  1  0
 13 35  1  0
 13 36  1  0
 14 37  1  0
 14 38  1  0
 14 39  1  0
M  END

