
     RDKit          3D

 33 33  0  0  0  0  0  0  0  0999 V2000
    0.8693   -0.1232    0.1421 C   0  0  0  0  0  0  0  0  0  0  0  0
    2.3974   -0.1508    0.0838 C   0  0  1  0  0  0  0  0  0  0  0  0
    3.0244    0.1775    1.4422 C   0  0  0  0  0  0  0  0  0  0  0  0
    2.9567   -1.4872   -0.4636 C   0  0  0  0  0  0  0  0  0  0  0  0
    2.5300   -1.7832   -1.8244 N   0  0  0  0  0  0  0  0  0  0  0  0
    1.7030   -2.8756   -2.0387 C   0  0  0  0  0  0  0  0  0  0  0  0
    1.4211   -3.6667   -1.1498 O   0  0  0  0  0  0  0  0  0  0  0  0
    1.2259   -3.0394   -3.3307 N   0  0  0  0  0  0  0  0  0  0  0  0
    0.3047   -4.1209   -3.6045 C   0  0  0  0  0  0  0  0  0  0  0  0
   -1.1295   -3.7862   -3.2276 C   0  0  1  0  0  0  0  0  0  0  0  0
   -1.5122   -2.6482   -3.8844 F   0  0  0  0  0  0  0  0  0  0  0  0
   -1.9476   -4.7927   -3.6261 F   0  0  0  0  0  0  0  0  0  0  0  0
    3.0697   -0.9078   -2.8547 C   0  0  0  0  0  0  0  0  0  0  0  0
    2.5421    0.5235   -2.7174 C   0  0  0  0  0  0  0  0  0  0  0  0
    2.9816    1.1910   -1.0758 S   0  0  1  0  0  0  0  0  0  0  0  0
    2.2115    2.4224   -0.8448 O   0  0  0  0  0  0  0  0  0  0  0  0
    4.4566    1.2052   -1.0243 O   0  0  0  0  0  0  0  0  0  0  0  0
    0.5219   -0.8590    0.8846 H   0  0  0  0  0  0  0  0  0  0  0  0
    0.4086   -0.3877   -0.8213 H   0  0  0  0  0  0  0  0  0  0  0  0
    0.5099    0.8731    0.4347 H   0  0  0  0  0  0  0  0  0  0  0  0
    2.7345   -0.5948    2.1726 H   0  0  0  0  0  0  0  0  0  0  0  0
    2.6688    1.1511    1.8109 H   0  0  0  0  0  0  0  0  0  0  0  0
    4.1211    0.2112    1.3784 H   0  0  0  0  0  0  0  0  0  0  0  0
    2.6091   -2.3081    0.1778 H   0  0  0  0  0  0  0  0  0  0  0  0
    4.0585   -1.4568   -0.4207 H   0  0  0  0  0  0  0  0  0  0  0  0
    1.1163   -2.2197   -3.9147 H   0  0  0  0  0  0  0  0  0  0  0  0
    0.6181   -5.0093   -3.0411 H   0  0  0  0  0  0  0  0  0  0  0  0
    0.3213   -4.3597   -4.6800 H   0  0  0  0  0  0  0  0  0  0  0  0
   -1.2636   -3.6211   -2.1454 H   0  0  0  0  0  0  0  0  0  0  0  0
    2.8510   -1.3073   -3.8535 H   0  0  0  0  0  0  0  0  0  0  0  0
    4.1701   -0.8785   -2.7654 H   0  0  0  0  0  0  0  0  0  0  0  0
    1.4506    0.5974   -2.8260 H   0  0  0  0  0  0  0  0  0  0  0  0
    3.0276    1.2192   -3.4186 H   0  0  0  0  0  0  0  0  0  0  0  0
  2  1  1  1
  1 18  1  0
  1 19  1  0
  1 20  1  0
  2  3  1  0
  2  4  1  0
  2 15  1  0
  3 21  1  0
  3 22  1  0
  3 23  1  0
  4  5  1  0
  4 24  1  0
  4 25  1  0
  5  6  1  0
  5 13  1  0
  6  7  2  0
  6  8  1  0
  8  9  1  0
  8 26  1  0
  9 10  1  0
  9 27  1  0
  9 28  1  0
 10 11  1  0
 10 12  1  0
 10 29  1  1
 13 14  1  0
 13 30  1  0
 13 31  1  0
 15 14  1  6
 14 32  1  0
 14 33  1  0
 15 16  2  0
 15 17  2  0
M  END

