
     RDKit          3D

 39 42  0  0  0  0  0  0  0  0999 V2000
    0.7837    0.2821   -0.2976 C   0  0  0  0  0  0  0  0  0  0  0  0
    2.2842    0.2762   -0.3846 C   0  0  0  0  0  0  0  0  0  0  0  0
    2.9832    1.4100   -0.6653 C   0  0  0  0  0  0  0  0  0  0  0  0
    4.4387    1.4534   -0.7598 C   0  0  0  0  0  0  0  0  0  0  0  0
    5.1085    2.4213   -1.0060 O   0  0  0  0  0  0  0  0  0  0  0  0
    5.0908    0.2435   -0.5432 O   0  0  0  0  0  0  0  0  0  0  0  0
    4.4339   -0.9105   -0.2607 C   0  0  0  0  0  0  0  0  0  0  0  0
    5.2165   -2.0506   -0.0658 C   0  0  0  0  0  0  0  0  0  0  0  0
    4.6130   -3.2791    0.2287 C   0  0  0  0  0  0  0  0  0  0  0  0
    5.4126   -4.4917    0.4377 C   0  0  0  0  0  0  0  0  0  0  0  0
    6.7869   -4.6887    0.3819 C   0  0  0  0  0  0  0  0  0  0  0  0
    6.9491   -6.0075    0.6470 N   0  0  0  0  0  0  0  0  0  0  0  0
    8.1811   -6.7801    0.7715 C   0  0  0  0  0  0  0  0  0  0  0  0
    8.9317   -6.5215    2.0640 C   0  0  0  0  0  0  0  0  0  0  0  0
    8.2962   -6.7122    3.3017 C   0  0  0  0  0  0  0  0  0  0  0  0
    8.9901   -6.4896    4.4920 C   0  0  0  0  0  0  0  0  0  0  0  0
   10.3278   -6.0778    4.4614 C   0  0  0  0  0  0  0  0  0  0  0  0
   10.9668   -5.8880    3.2342 C   0  0  0  0  0  0  0  0  0  0  0  0
   10.2693   -6.1067    2.0411 C   0  0  0  0  0  0  0  0  0  0  0  0
    5.7585   -6.5979    0.8632 N   0  0  0  0  0  0  0  0  0  0  0  0
    4.8396   -5.6973    0.7376 N   0  0  0  0  0  0  0  0  0  0  0  0
    3.2049   -3.3431    0.3250 C   0  0  0  0  0  0  0  0  0  0  0  0
    2.4353   -2.2059    0.1305 C   0  0  0  0  0  0  0  0  0  0  0  0
    3.0253   -0.9586   -0.1676 C   0  0  0  0  0  0  0  0  0  0  0  0
    0.3793    1.2862   -0.4843 H   0  0  0  0  0  0  0  0  0  0  0  0
    0.4435   -0.0479    0.6979 H   0  0  0  0  0  0  0  0  0  0  0  0
    0.3417   -0.4107   -1.0327 H   0  0  0  0  0  0  0  0  0  0  0  0
    2.4841    2.3650   -0.8378 H   0  0  0  0  0  0  0  0  0  0  0  0
    6.2989   -1.9426   -0.1508 H   0  0  0  0  0  0  0  0  0  0  0  0
    7.6239   -4.0249    0.1859 H   0  0  0  0  0  0  0  0  0  0  0  0
    8.8203   -6.5606   -0.0964 H   0  0  0  0  0  0  0  0  0  0  0  0
    7.8652   -7.8314    0.7014 H   0  0  0  0  0  0  0  0  0  0  0  0
    7.2512   -7.0333    3.3269 H   0  0  0  0  0  0  0  0  0  0  0  0
    8.4859   -6.6402    5.4499 H   0  0  0  0  0  0  0  0  0  0  0  0
   10.8697   -5.9047    5.3946 H   0  0  0  0  0  0  0  0  0  0  0  0
   12.0104   -5.5651    3.2020 H   0  0  0  0  0  0  0  0  0  0  0  0
   10.7744   -5.9550    1.0824 H   0  0  0  0  0  0  0  0  0  0  0  0
    2.7398   -4.3022    0.5543 H   0  0  0  0  0  0  0  0  0  0  0  0
    1.3492   -2.2795    0.2097 H   0  0  0  0  0  0  0  0  0  0  0  0
  1  2  1  0
  1 25  1  0
  1 26  1  0
  1 27  1  0
  2  3  2  0
  2 24  1  0
  3  4  1  0
  3 28  1  0
  4  5  2  0
  4  6  1  0
  6  7  1  0
  7  8  1  0
  7 24  2  0
  8  9  2  0
  8 29  1  0
  9 10  1  0
  9 22  1  0
 10 11  2  0
 10 21  1  0
 11 12  1  0
 11 30  1  0
 12 13  1  0
 12 20  1  0
 13 14  1  0
 13 31  1  0
 13 32  1  0
 14 15  2  0
 14 19  1  0
 15 16  1  0
 15 33  1  0
 16 17  2  0
 16 34  1  0
 17 18  1  0
 17 35  1  0
 18 19  2  0
 18 36  1  0
 19 37  1  0
 20 21  2  0
 22 23  2  0
 22 38  1  0
 23 24  1  0
 23 39  1  0
M  END

