
     RDKit          3D

 35 34  0  0  0  0  0  0  0  0999 V2000
    0.9305    4.4994    2.1295 C   0  0  0  0  0  0  0  0  0  0  0  0
    2.4409    4.6419    2.0816 C   0  0  0  0  0  0  0  0  0  0  0  0
    3.0255    3.3629    2.1527 O   0  0  0  0  0  0  0  0  0  0  0  0
    4.4327    3.3660    2.1262 C   0  0  0  0  0  0  0  0  0  0  0  0
    4.9245    1.9296    2.2439 C   0  0  0  0  0  0  0  0  0  0  0  0
    6.4440    1.7757    2.1593 C   0  0  0  0  0  0  0  0  0  0  0  0
    7.1120    2.4861    3.2441 N   0  0  0  0  0  0  0  0  0  0  0  0
    8.5820    2.4104    3.3524 C   0  0  1  0  0  0  0  0  0  0  0  0
    9.0827    0.9781    3.6470 C   0  0  0  0  0  0  0  0  0  0  0  0
    9.2313    2.9160    2.0515 C   0  0  0  0  0  0  0  0  0  0  0  0
    8.9903    3.3087    4.5527 C   0  0  0  0  0  0  0  0  0  0  0  0
    8.6007    4.7717    4.4101 C   0  0  0  0  0  0  0  0  0  0  0  0
    9.0239    5.7962    6.0453 Br  0  0  0  0  0  0  0  0  0  0  0  0
    0.4450    5.4865    2.0752 H   0  0  0  0  0  0  0  0  0  0  0  0
    0.6185    4.0075    3.0640 H   0  0  0  0  0  0  0  0  0  0  0  0
    0.5732    3.8875    1.2866 H   0  0  0  0  0  0  0  0  0  0  0  0
    2.7974    5.2762    2.9215 H   0  0  0  0  0  0  0  0  0  0  0  0
    2.7512    5.1570    1.1467 H   0  0  0  0  0  0  0  0  0  0  0  0
    4.8417    3.9833    2.9504 H   0  0  0  0  0  0  0  0  0  0  0  0
    4.8055    3.8173    1.1803 H   0  0  0  0  0  0  0  0  0  0  0  0
    4.4575    1.3346    1.4415 H   0  0  0  0  0  0  0  0  0  0  0  0
    4.5512    1.5053    3.1938 H   0  0  0  0  0  0  0  0  0  0  0  0
    6.7908    2.1897    1.1974 H   0  0  0  0  0  0  0  0  0  0  0  0
    6.6805    0.6901    2.1284 H   0  0  0  0  0  0  0  0  0  0  0  0
    6.7045    2.1919    4.1330 H   0  0  0  0  0  0  0  0  0  0  0  0
    8.8063    0.2816    2.8403 H   0  0  0  0  0  0  0  0  0  0  0  0
    8.6514    0.5976    4.5879 H   0  0  0  0  0  0  0  0  0  0  0  0
   10.1797    0.9498    3.7462 H   0  0  0  0  0  0  0  0  0  0  0  0
    9.0968    2.1988    1.2276 H   0  0  0  0  0  0  0  0  0  0  0  0
   10.3151    3.0512    2.1922 H   0  0  0  0  0  0  0  0  0  0  0  0
    8.7985    3.8767    1.7340 H   0  0  0  0  0  0  0  0  0  0  0  0
   10.0784    3.2285    4.7074 H   0  0  0  0  0  0  0  0  0  0  0  0
    8.5198    2.9031    5.4653 H   0  0  0  0  0  0  0  0  0  0  0  0
    7.5245    4.8904    4.2456 H   0  0  0  0  0  0  0  0  0  0  0  0
    9.1465    5.2814    3.6074 H   0  0  0  0  0  0  0  0  0  0  0  0
  1  2  1  0
  1 14  1  0
  1 15  1  0
  1 16  1  0
  2  3  1  0
  2 17  1  0
  2 18  1  0
  3  4  1  0
  4  5  1  0
  4 19  1  0
  4 20  1  0
  5  6  1  0
  5 21  1  0
  5 22  1  0
  6  7  1  0
  6 23  1  0
  6 24  1  0
  8  7  1  6
  7 25  1  0
  8  9  1  0
  8 10  1  0
  8 11  1  0
  9 26  1  0
  9 27  1  0
  9 28  1  0
 10 29  1  0
 10 30  1  0
 10 31  1  0
 11 12  1  0
 11 32  1  0
 11 33  1  0
 12 13  1  0
 12 34  1  0
 12 35  1  0
M  END

