
     RDKit          3D

 30 31  0  0  0  0  0  0  0  0999 V2000
    1.0024   -0.0429    0.5301 C   0  0  0  0  0  0  0  0  0  0  0  0
    2.4851   -0.0434    0.2671 C   0  0  0  0  0  0  0  0  0  0  0  0
    3.1648    1.1447   -0.0425 C   0  0  0  0  0  0  0  0  0  0  0  0
    4.5399    1.2081   -0.2915 C   0  0  0  0  0  0  0  0  0  0  0  0
    5.1979    2.5565   -0.6154 C   0  0  1  0  0  0  0  0  0  0  0  0
    4.3848    3.5231   -1.3500 N   0  0  0  0  0  0  0  0  0  0  0  0
    5.7424    3.2282    0.6305 C   0  0  0  0  0  0  0  0  0  0  0  0
    5.8967    2.7387    1.9064 C   0  0  0  0  0  0  0  0  0  0  0  0
    6.4965    3.6782    2.8019 C   0  0  0  0  0  0  0  0  0  0  0  0
    6.7874    4.8717    2.1934 C   0  0  0  0  0  0  0  0  0  0  0  0
    6.3283    4.8704    0.5242 S   0  0  0  0  0  0  0  0  0  0  0  0
    5.3009    0.0186   -0.2388 C   0  0  0  0  0  0  0  0  0  0  0  0
    6.7890    0.0012   -0.5029 C   0  0  0  0  0  0  0  0  0  0  0  0
    4.6400   -1.1802    0.0645 C   0  0  0  0  0  0  0  0  0  0  0  0
    3.2671   -1.2079    0.3120 C   0  0  0  0  0  0  0  0  0  0  0  0
    2.4593   -2.8966    0.7173 Br  0  0  0  0  0  0  0  0  0  0  0  0
    0.5871    0.9708    0.4366 H   0  0  0  0  0  0  0  0  0  0  0  0
    0.7751   -0.4170    1.5418 H   0  0  0  0  0  0  0  0  0  0  0  0
    0.4693   -0.7024   -0.1739 H   0  0  0  0  0  0  0  0  0  0  0  0
    2.5780    2.0652   -0.0959 H   0  0  0  0  0  0  0  0  0  0  0  0
    6.0604    2.3399   -1.2704 H   0  0  0  0  0  0  0  0  0  0  0  0
    3.6096    3.8672   -0.7843 H   0  0  0  0  0  0  0  0  0  0  0  0
    3.9948    3.1056   -2.1945 H   0  0  0  0  0  0  0  0  0  0  0  0
    5.5845    1.7351    2.1973 H   0  0  0  0  0  0  0  0  0  0  0  0
    6.6933    3.4738    3.8557 H   0  0  0  0  0  0  0  0  0  0  0  0
    7.2307    5.7622    2.6379 H   0  0  0  0  0  0  0  0  0  0  0  0
    7.3324    0.6868    0.1665 H   0  0  0  0  0  0  0  0  0  0  0  0
    7.0224    0.3093   -1.5364 H   0  0  0  0  0  0  0  0  0  0  0  0
    7.2020   -1.0076   -0.3596 H   0  0  0  0  0  0  0  0  0  0  0  0
    5.2074   -2.1120    0.1071 H   0  0  0  0  0  0  0  0  0  0  0  0
  1  2  1  0
  1 17  1  0
  1 18  1  0
  1 19  1  0
  2  3  2  0
  2 15  1  0
  3  4  1  0
  3 20  1  0
  4  5  1  0
  4 12  2  0
  5  6  1  0
  5  7  1  0
  5 21  1  6
  6 22  1  0
  6 23  1  0
  7  8  2  0
  7 11  1  0
  8  9  1  0
  8 24  1  0
  9 10  2  0
  9 25  1  0
 10 11  1  0
 10 26  1  0
 12 13  1  0
 12 14  1  0
 13 27  1  0
 13 28  1  0
 13 29  1  0
 14 15  2  0
 14 30  1  0
 15 16  1  0
M  END

