
     RDKit          3D

 36 37  0  0  0  0  0  0  0  0999 V2000
    1.4665   -0.2564    0.6839 C   0  0  0  0  0  0  0  0  0  0  0  0
    2.9065    0.0153    0.3019 C   0  0  0  0  0  0  0  0  0  0  0  0
    3.7848   -0.9190    0.1467 N   0  0  0  0  0  0  0  0  0  0  0  0
    3.4343   -2.2031    0.3635 N   0  0  0  0  0  0  0  0  0  0  0  0
    4.2566   -3.2434    0.0033 C   0  0  0  0  0  0  0  0  0  0  0  0
    5.6501   -3.0991   -0.8896 S   0  0  0  0  0  0  0  0  0  0  0  0
    3.8080   -4.4891    0.4011 N   0  0  0  0  0  0  0  0  0  0  0  0
    2.8144   -4.8757    1.3218 C   0  0  0  0  0  0  0  0  0  0  0  0
    2.0987   -6.0625    1.0719 C   0  0  0  0  0  0  0  0  0  0  0  0
    1.1365   -6.5143    1.9743 C   0  0  0  0  0  0  0  0  0  0  0  0
    0.8542   -5.7858    3.1348 C   0  0  0  0  0  0  0  0  0  0  0  0
    1.5649   -4.6103    3.3909 C   0  0  0  0  0  0  0  0  0  0  0  0
    2.5464   -4.1589    2.5045 C   0  0  0  0  0  0  0  0  0  0  0  0
    3.3820    1.3902    0.0008 C   0  0  0  0  0  0  0  0  0  0  0  0
    4.4494    1.5646   -0.9015 C   0  0  0  0  0  0  0  0  0  0  0  0
    4.9556    2.8179   -1.2278 C   0  0  0  0  0  0  0  0  0  0  0  0
    4.3972    3.9625   -0.6386 C   0  0  0  0  0  0  0  0  0  0  0  0
    4.8317    5.2175   -0.9116 O   0  0  0  0  0  0  0  0  0  0  0  0
    3.3470    3.8241    0.2744 C   0  0  0  0  0  0  0  0  0  0  0  0
    2.8495    2.5574    0.5991 C   0  0  0  0  0  0  0  0  0  0  0  0
    1.8565    2.4283    1.5231 O   0  0  0  0  0  0  0  0  0  0  0  0
    1.0740   -1.1165    0.1135 H   0  0  0  0  0  0  0  0  0  0  0  0
    0.8250    0.6066    0.4831 H   0  0  0  0  0  0  0  0  0  0  0  0
    1.3656   -0.4885    1.7583 H   0  0  0  0  0  0  0  0  0  0  0  0
    2.5101   -2.4277    0.7316 H   0  0  0  0  0  0  0  0  0  0  0  0
    4.3183   -5.2330   -0.0639 H   0  0  0  0  0  0  0  0  0  0  0  0
    2.3030   -6.6248    0.1570 H   0  0  0  0  0  0  0  0  0  0  0  0
    0.5948   -7.4396    1.7620 H   0  0  0  0  0  0  0  0  0  0  0  0
    0.0936   -6.1361    3.8362 H   0  0  0  0  0  0  0  0  0  0  0  0
    1.3722   -4.0426    4.3049 H   0  0  0  0  0  0  0  0  0  0  0  0
    3.1287   -3.2693    2.7487 H   0  0  0  0  0  0  0  0  0  0  0  0
    4.8816    0.6663   -1.3460 H   0  0  0  0  0  0  0  0  0  0  0  0
    5.7792    2.9123   -1.9418 H   0  0  0  0  0  0  0  0  0  0  0  0
    5.5629    5.1722   -1.5419 H   0  0  0  0  0  0  0  0  0  0  0  0
    2.9327    4.7217    0.7416 H   0  0  0  0  0  0  0  0  0  0  0  0
    1.6146    3.3037    1.8527 H   0  0  0  0  0  0  0  0  0  0  0  0
  1  2  1  0
  1 22  1  0
  1 23  1  0
  1 24  1  0
  2  3  2  0
  2 14  1  0
  3  4  1  0
  4  5  1  0
  4 25  1  0
  5  6  2  0
  5  7  1  0
  7  8  1  0
  7 26  1  0
  8  9  2  0
  8 13  1  0
  9 10  1  0
  9 27  1  0
 10 11  2  0
 10 28  1  0
 11 12  1  0
 11 29  1  0
 12 13  2  0
 12 30  1  0
 13 31  1  0
 14 15  2  0
 14 20  1  0
 15 16  1  0
 15 32  1  0
 16 17  2  0
 16 33  1  0
 17 18  1  0
 17 19  1  0
 18 34  1  0
 19 20  2  0
 19 35  1  0
 20 21  1  0
 21 36  1  0
M  END

