
     RDKit          3D

 41 43  0  0  0  0  0  0  0  0999 V2000
    2.2015   -0.0589    1.3164 O   0  0  0  0  0  0  0  0  0  0  0  0
    2.0645   -0.2010   -0.0914 C   0  0  2  0  0  0  0  0  0  0  0  0
    0.9868   -0.0658   -0.2864 H   0  0  0  0  0  0  0  0  0  0  0  0
    2.4936   -1.6062   -0.5324 C   0  0  0  0  0  0  0  0  0  0  0  0
    2.3382   -1.8298   -2.0391 C   0  0  0  0  0  0  0  0  0  0  0  0
    3.0932   -0.7541   -2.8264 C   0  0  0  0  0  0  0  0  0  0  0  0
    2.6588    0.6496   -2.3969 C   0  0  0  0  0  0  0  0  0  0  0  0
    2.8028    0.9003   -0.8850 C   0  0  1  0  0  0  0  0  0  0  0  0
    3.8870    0.8099   -0.6256 H   0  0  0  0  0  0  0  0  0  0  0  0
    2.2955    2.2347   -0.5821 N   0  0  0  0  0  0  0  0  0  0  0  0
    2.7830    2.8771    0.6323 C   0  0  0  0  0  0  0  0  0  0  0  0
    2.1677    4.2451    0.8402 C   0  0  0  0  0  0  0  0  0  0  0  0
    0.8287    4.4954    0.5040 C   0  0  0  0  0  0  0  0  0  0  0  0
    0.2477    5.7439    0.7279 C   0  0  0  0  0  0  0  0  0  0  0  0
    0.9987    6.7726    1.3134 C   0  0  0  0  0  0  0  0  0  0  0  0
    0.4204    8.0461    1.5656 N   0  0  0  0  0  0  0  0  0  0  0  0
   -0.9077    8.3684    1.6412 C   0  0  0  0  0  0  0  0  0  0  0  0
   -0.9781    9.7201    1.9155 C   0  0  0  0  0  0  0  0  0  0  0  0
    0.3766   10.1307    1.9931 C   0  0  0  0  0  0  0  0  0  0  0  0
    1.2076    9.1193    1.7826 N   0  0  0  0  0  0  0  0  0  0  0  0
    2.3396    6.5431    1.6489 C   0  0  0  0  0  0  0  0  0  0  0  0
    2.9092    5.2939    1.4049 C   0  0  0  0  0  0  0  0  0  0  0  0
    3.1193   -0.2625    1.5464 H   0  0  0  0  0  0  0  0  0  0  0  0
    1.9147   -2.3433    0.0468 H   0  0  0  0  0  0  0  0  0  0  0  0
    3.5557   -1.7504   -0.2514 H   0  0  0  0  0  0  0  0  0  0  0  0
    1.2663   -1.7944   -2.3057 H   0  0  0  0  0  0  0  0  0  0  0  0
    2.6939   -2.8362   -2.3152 H   0  0  0  0  0  0  0  0  0  0  0  0
    2.9323   -0.8813   -3.9098 H   0  0  0  0  0  0  0  0  0  0  0  0
    4.1792   -0.8723   -2.6577 H   0  0  0  0  0  0  0  0  0  0  0  0
    1.5994    0.8115   -2.6669 H   0  0  0  0  0  0  0  0  0  0  0  0
    3.2398    1.4135   -2.9429 H   0  0  0  0  0  0  0  0  0  0  0  0
    2.4738    2.8503   -1.3751 H   0  0  0  0  0  0  0  0  0  0  0  0
    3.8926    2.9756    0.6521 H   0  0  0  0  0  0  0  0  0  0  0  0
    2.5193    2.2262    1.4803 H   0  0  0  0  0  0  0  0  0  0  0  0
    0.2458    3.6964    0.0419 H   0  0  0  0  0  0  0  0  0  0  0  0
   -0.7879    5.9139    0.4287 H   0  0  0  0  0  0  0  0  0  0  0  0
   -1.6890    7.6234    1.5209 H   0  0  0  0  0  0  0  0  0  0  0  0
   -1.8753   10.3197    2.0488 H   0  0  0  0  0  0  0  0  0  0  0  0
    0.7741   11.1262    2.1917 H   0  0  0  0  0  0  0  0  0  0  0  0
    2.9179    7.3560    2.0870 H   0  0  0  0  0  0  0  0  0  0  0  0
    3.9596    5.1316    1.6645 H   0  0  0  0  0  0  0  0  0  0  0  0
  1  2  1  0
  1 23  1  0
  2  3  1  1
  2  4  1  0
  2  8  1  0
  4  5  1  0
  4 24  1  0
  4 25  1  0
  5  6  1  0
  5 26  1  0
  5 27  1  0
  6  7  1  0
  6 28  1  0
  6 29  1  0
  7  8  1  0
  7 30  1  0
  7 31  1  0
  8  9  1  1
  8 10  1  0
 10 11  1  0
 10 32  1  0
 11 12  1  0
 11 33  1  0
 11 34  1  0
 12 13  2  0
 12 22  1  0
 13 14  1  0
 13 35  1  0
 14 15  2  0
 14 36  1  0
 15 16  1  0
 15 21  1  0
 16 17  1  0
 16 20  1  0
 17 18  2  0
 17 37  1  0
 18 19  1  0
 18 38  1  0
 19 20  2  0
 19 39  1  0
 21 22  2  0
 21 40  1  0
 22 41  1  0
M  END

