
     RDKit          3D

 22 21  0  0  0  0  0  0  0  0999 V2000
    1.3121   -1.8152   -0.7430 C   0  0  0  0  0  0  0  0  0  0  0  0
    2.7199   -1.5792   -0.7394 O   0  0  0  0  0  0  0  0  0  0  0  0
    3.2419   -1.1401    0.4199 C   0  0  0  0  0  0  0  0  0  0  0  0
    2.5789   -0.8876    1.3960 O   0  0  0  0  0  0  0  0  0  0  0  0
    4.7563   -1.0282    0.3524 C   0  0  1  0  0  0  0  0  0  0  0  0
    5.3187   -0.0387    1.3622 C   0  0  0  0  0  0  0  0  0  0  0  0
    5.5027   -2.7324    0.5111 S   0  0  0  0  0  0  0  0  0  0  0  0
    4.6910   -3.3418    1.9855 C   0  0  0  0  0  0  0  0  0  0  0  0
    3.6860   -4.2810    1.7804 N   0  0  0  0  0  0  0  0  0  0  0  0
    5.0164   -2.8794    3.1368 N   0  0  0  0  0  0  0  0  0  0  0  0
    4.2703   -3.3996    4.1948 N   0  0  0  0  0  0  0  0  0  0  0  0
    1.0576   -2.1361   -1.7608 H   0  0  0  0  0  0  0  0  0  0  0  0
    0.7582   -0.9015   -0.4798 H   0  0  0  0  0  0  0  0  0  0  0  0
    1.0524   -2.6018   -0.0176 H   0  0  0  0  0  0  0  0  0  0  0  0
    5.0335   -0.7658   -0.6803 H   0  0  0  0  0  0  0  0  0  0  0  0
    5.0950   -0.3695    2.3850 H   0  0  0  0  0  0  0  0  0  0  0  0
    4.8736    0.9584    1.2097 H   0  0  0  0  0  0  0  0  0  0  0  0
    6.4096    0.0379    1.2499 H   0  0  0  0  0  0  0  0  0  0  0  0
    3.6791   -4.7064    0.8600 H   0  0  0  0  0  0  0  0  0  0  0  0
    3.5916   -4.9485    2.5472 H   0  0  0  0  0  0  0  0  0  0  0  0
    4.4871   -2.8555    5.0266 H   0  0  0  0  0  0  0  0  0  0  0  0
    3.2611   -3.3191    4.0165 H   0  0  0  0  0  0  0  0  0  0  0  0
  1  2  1  0
  1 12  1  0
  1 13  1  0
  1 14  1  0
  2  3  1  0
  3  4  2  0
  3  5  1  0
  5  6  1  0
  5  7  1  0
  5 15  1  6
  6 16  1  0
  6 17  1  0
  6 18  1  0
  7  8  1  0
  8  9  1  0
  8 10  2  0
  9 19  1  0
  9 20  1  0
 10 11  1  0
 11 21  1  0
 11 22  1  0
M  END

