
     RDKit          3D

 50 50  0  0  0  0  0  0  0  0999 V2000
    1.6157    0.8786    0.3879 C   0  0  0  0  0  0  0  0  0  0  0  0
    2.2167    0.3988   -0.9368 C   0  0  0  0  0  0  0  0  0  0  0  0
    2.5734   -1.0179   -0.9585 N   0  0  0  0  0  0  0  0  0  0  0  0
    1.6685   -1.9542   -1.4285 C   0  0  0  0  0  0  0  0  0  0  0  0
    0.3260   -1.5887   -1.7137 C   0  0  0  0  0  0  0  0  0  0  0  0
   -0.5246   -2.5611   -2.2325 C   0  0  0  0  0  0  0  0  0  0  0  0
   -0.0744   -3.8559   -2.4479 C   0  0  0  0  0  0  0  0  0  0  0  0
    1.2697   -4.1483   -2.1091 C   0  0  0  0  0  0  0  0  0  0  0  0
    1.7230   -5.4350   -2.3435 N   0  0  0  0  0  0  0  0  0  0  0  0
    2.8491   -6.1569   -1.7222 C   0  0  1  0  0  0  0  0  0  0  0  0
    2.7211   -6.1640   -0.1853 C   0  0  0  0  0  0  0  0  0  0  0  0
    2.7592   -7.6013   -2.2457 C   0  0  0  0  0  0  0  0  0  0  0  0
    4.1987   -5.5598   -2.1565 C   0  0  0  0  0  0  0  0  0  0  0  0
    2.1014   -3.2203   -1.6166 N   0  0  0  0  0  0  0  0  0  0  0  0
    3.9662   -1.3320   -0.5924 C   0  0  1  0  0  0  0  0  0  0  0  0
    4.1129   -2.3753    0.5215 C   0  0  0  0  0  0  0  0  0  0  0  0
    4.8332   -1.6436   -1.8307 C   0  0  0  0  0  0  0  0  0  0  0  0
    5.0208   -0.4826   -2.6950 N   0  0  0  0  0  0  0  0  0  0  0  0
    6.1034    0.3805   -2.2685 C   0  0  0  0  0  0  0  0  0  0  0  0
    5.1112   -0.8134   -4.1039 C   0  0  0  0  0  0  0  0  0  0  0  0
    1.3781    1.9544    0.3397 H   0  0  0  0  0  0  0  0  0  0  0  0
    2.3203    0.7268    1.2217 H   0  0  0  0  0  0  0  0  0  0  0  0
    0.6899    0.3343    0.6311 H   0  0  0  0  0  0  0  0  0  0  0  0
    3.1269    0.9710   -1.1673 H   0  0  0  0  0  0  0  0  0  0  0  0
    1.5277    0.6138   -1.7673 H   0  0  0  0  0  0  0  0  0  0  0  0
   -0.0525   -0.5877   -1.5237 H   0  0  0  0  0  0  0  0  0  0  0  0
   -1.5622   -2.3007   -2.4604 H   0  0  0  0  0  0  0  0  0  0  0  0
   -0.7319   -4.6309   -2.8477 H   0  0  0  0  0  0  0  0  0  0  0  0
    0.9778   -6.0513   -2.6437 H   0  0  0  0  0  0  0  0  0  0  0  0
    1.7874   -6.6619    0.1228 H   0  0  0  0  0  0  0  0  0  0  0  0
    2.7047   -5.1396    0.2105 H   0  0  0  0  0  0  0  0  0  0  0  0
    3.5644   -6.7015    0.2779 H   0  0  0  0  0  0  0  0  0  0  0  0
    1.8033   -8.0714   -1.9575 H   0  0  0  0  0  0  0  0  0  0  0  0
    3.5709   -8.2143   -1.8266 H   0  0  0  0  0  0  0  0  0  0  0  0
    2.8413   -7.6267   -3.3441 H   0  0  0  0  0  0  0  0  0  0  0  0
    4.3122   -4.5345   -1.7889 H   0  0  0  0  0  0  0  0  0  0  0  0
    4.2710   -5.5399   -3.2552 H   0  0  0  0  0  0  0  0  0  0  0  0
    5.0289   -6.1694   -1.7644 H   0  0  0  0  0  0  0  0  0  0  0  0
    4.3491   -0.3911   -0.1678 H   0  0  0  0  0  0  0  0  0  0  0  0
    3.8502   -3.3805    0.1759 H   0  0  0  0  0  0  0  0  0  0  0  0
    3.4592   -2.1226    1.3706 H   0  0  0  0  0  0  0  0  0  0  0  0
    5.1535   -2.3893    0.8847 H   0  0  0  0  0  0  0  0  0  0  0  0
    4.3261   -2.4326   -2.3997 H   0  0  0  0  0  0  0  0  0  0  0  0
    5.8088   -2.0650   -1.4968 H   0  0  0  0  0  0  0  0  0  0  0  0
    5.9776    0.6749   -1.2145 H   0  0  0  0  0  0  0  0  0  0  0  0
    6.1162    1.3051   -2.8683 H   0  0  0  0  0  0  0  0  0  0  0  0
    7.1074   -0.0977   -2.3621 H   0  0  0  0  0  0  0  0  0  0  0  0
    4.2273   -1.3901   -4.4166 H   0  0  0  0  0  0  0  0  0  0  0  0
    6.0175   -1.4097   -4.3640 H   0  0  0  0  0  0  0  0  0  0  0  0
    5.1416    0.1092   -4.7068 H   0  0  0  0  0  0  0  0  0  0  0  0
  1  2  1  0
  1 21  1  0
  1 22  1  0
  1 23  1  0
  2  3  1  0
  2 24  1  0
  2 25  1  0
  3  4  1  0
  3 15  1  0
  4  5  2  0
  4 14  1  0
  5  6  1  0
  5 26  1  0
  6  7  2  0
  6 27  1  0
  7  8  1  0
  7 28  1  0
  8  9  1  0
  8 14  2  0
 10  9  1  6
  9 29  1  0
 10 11  1  0
 10 12  1  0
 10 13  1  0
 11 30  1  0
 11 31  1  0
 11 32  1  0
 12 33  1  0
 12 34  1  0
 12 35  1  0
 13 36  1  0
 13 37  1  0
 13 38  1  0
 15 16  1  0
 15 17  1  0
 15 39  1  1
 16 40  1  0
 16 41  1  0
 16 42  1  0
 17 18  1  0
 17 43  1  0
 17 44  1  0
 18 19  1  0
 18 20  1  0
 19 45  1  0
 19 46  1  0
 19 47  1  0
 20 48  1  0
 20 49  1  0
 20 50  1  0
M  END

