
     RDKit          3D

 51 54  0  0  0  0  0  0  0  0999 V2000
    2.0055    0.3644   -0.8931 O   0  0  0  0  0  0  0  0  0  0  0  0
    2.9709    0.3814   -1.6578 C   0  0  0  0  0  0  0  0  0  0  0  0
    4.3434    0.8570   -1.1923 C   0  0  0  0  0  0  0  0  0  0  0  0
    4.4240    1.1599    0.3136 C   0  0  0  0  0  0  0  0  0  0  0  0
    3.7651    2.4323    0.7591 C   0  0  0  0  0  0  0  0  0  0  0  0
    4.4011    3.4882    1.2129 N   0  0  0  0  0  0  0  0  0  0  0  0
    3.4121    4.4113    1.5043 C   0  0  0  0  0  0  0  0  0  0  0  0
    3.5103    5.7143    2.0176 C   0  0  0  0  0  0  0  0  0  0  0  0
    2.3341    6.4354    2.2153 C   0  0  0  0  0  0  0  0  0  0  0  0
    1.0720    5.8800    1.9120 C   0  0  0  0  0  0  0  0  0  0  0  0
    0.9485    4.5870    1.4023 C   0  0  0  0  0  0  0  0  0  0  0  0
    2.1323    3.8666    1.2047 C   0  0  0  0  0  0  0  0  0  0  0  0
    2.3990    2.5986    0.7334 N   0  0  0  0  0  0  0  0  0  0  0  0
    1.7711    1.8870    0.3642 H   0  0  0  0  0  0  0  0  0  0  0  0
    2.8319   -0.0128   -2.9691 N   0  0  0  0  0  0  0  0  0  0  0  0
    1.4829   -0.3332   -3.4456 C   0  0  0  0  0  0  0  0  0  0  0  0
    0.8717    0.7512   -4.3135 C   0  0  0  0  0  0  0  0  0  0  0  0
    0.7877    2.0802   -3.8714 C   0  0  0  0  0  0  0  0  0  0  0  0
    0.1989    3.0360   -4.7024 C   0  0  0  0  0  0  0  0  0  0  0  0
   -0.2990    2.7608   -5.9125 N   0  0  0  0  0  0  0  0  0  0  0  0
   -0.2234    1.4980   -6.3333 C   0  0  0  0  0  0  0  0  0  0  0  0
    0.3485    0.4658   -5.5800 C   0  0  0  0  0  0  0  0  0  0  0  0
    3.9197   -0.0135   -3.9452 C   0  0  0  0  0  0  0  0  0  0  0  0
    4.7059   -1.3287   -4.1048 C   0  0  2  0  0  0  0  0  0  0  0  0
    5.5116   -1.1017   -4.8298 H   0  0  0  0  0  0  0  0  0  0  0  0
    3.9237   -2.5801   -4.5771 C   0  0  0  0  0  0  0  0  0  0  0  0
    3.7502   -3.3996   -3.2913 C   0  0  0  0  0  0  0  0  0  0  0  0
    5.0412   -3.0570   -2.5494 C   0  0  0  0  0  0  0  0  0  0  0  0
    5.2937   -1.6896   -2.8547 O   0  0  0  0  0  0  0  0  0  0  0  0
    4.6209    1.7574   -1.7686 H   0  0  0  0  0  0  0  0  0  0  0  0
    5.0801    0.0846   -1.4563 H   0  0  0  0  0  0  0  0  0  0  0  0
    5.4819    1.2534    0.5932 H   0  0  0  0  0  0  0  0  0  0  0  0
    4.0038    0.3082    0.8737 H   0  0  0  0  0  0  0  0  0  0  0  0
    4.4893    6.1382    2.2511 H   0  0  0  0  0  0  0  0  0  0  0  0
    2.3848    7.4519    2.6141 H   0  0  0  0  0  0  0  0  0  0  0  0
    0.1714    6.4758    2.0817 H   0  0  0  0  0  0  0  0  0  0  0  0
   -0.0303    4.1598    1.1714 H   0  0  0  0  0  0  0  0  0  0  0  0
    0.8651   -0.4784   -2.5489 H   0  0  0  0  0  0  0  0  0  0  0  0
    1.4967   -1.2824   -3.9997 H   0  0  0  0  0  0  0  0  0  0  0  0
    1.1669    2.3679   -2.8880 H   0  0  0  0  0  0  0  0  0  0  0  0
    0.1245    4.0778   -4.3687 H   0  0  0  0  0  0  0  0  0  0  0  0
   -0.6350    1.2860   -7.3276 H   0  0  0  0  0  0  0  0  0  0  0  0
    0.3799   -0.5508   -5.9827 H   0  0  0  0  0  0  0  0  0  0  0  0
    4.6388    0.7767   -3.6918 H   0  0  0  0  0  0  0  0  0  0  0  0
    3.5020    0.2643   -4.9269 H   0  0  0  0  0  0  0  0  0  0  0  0
    4.5372   -3.1418   -5.2993 H   0  0  0  0  0  0  0  0  0  0  0  0
    2.9795   -2.3368   -5.0839 H   0  0  0  0  0  0  0  0  0  0  0  0
    3.6320   -4.4778   -3.4751 H   0  0  0  0  0  0  0  0  0  0  0  0
    2.8778   -3.0528   -2.7149 H   0  0  0  0  0  0  0  0  0  0  0  0
    5.8804   -3.6914   -2.8990 H   0  0  0  0  0  0  0  0  0  0  0  0
    4.9699   -3.1594   -1.4557 H   0  0  0  0  0  0  0  0  0  0  0  0
  1  2  2  0
  2  3  1  0
  2 15  1  0
  3  4  1  0
  3 30  1  0
  3 31  1  0
  4  5  1  0
  4 32  1  0
  4 33  1  0
  5  6  2  0
  5 13  1  0
  6  7  1  0
  7  8  2  0
  7 12  1  0
  8  9  1  0
  8 34  1  0
  9 10  2  0
  9 35  1  0
 10 11  1  0
 10 36  1  0
 11 12  2  0
 11 37  1  0
 12 13  1  0
 13 14  1  0
 15 16  1  0
 15 23  1  0
 16 17  1  0
 16 38  1  0
 16 39  1  0
 17 18  2  0
 17 22  1  0
 18 19  1  0
 18 40  1  0
 19 20  2  0
 19 41  1  0
 20 21  1  0
 21 22  2  0
 21 42  1  0
 22 43  1  0
 23 24  1  0
 23 44  1  0
 23 45  1  0
 24 25  1  6
 24 26  1  0
 24 29  1  0
 26 27  1  0
 26 46  1  0
 26 47  1  0
 27 28  1  0
 27 48  1  0
 27 49  1  0
 28 29  1  0
 28 50  1  0
 28 51  1  0
M  END

