
     RDKit          3D

 67 70  0  0  0  0  0  0  0  0999 V2000
    6.8037   17.8516   16.4847 C   0  0  0  0  0  0  0  0  0  0  0  0
    7.8186   17.0099   15.9572 O   0  0  0  0  0  0  0  0  0  0  0  0
    7.7506   15.6930   16.2371 C   0  0  0  0  0  0  0  0  0  0  0  0
    8.7622   14.8713   15.6954 C   0  0  0  0  0  0  0  0  0  0  0  0
    8.7330   13.5048   15.9604 C   0  0  0  0  0  0  0  0  0  0  0  0
    9.7454   12.5559   15.4063 C   0  0  0  0  0  0  0  0  0  0  0  0
    9.3980   11.7731   14.2955 C   0  0  0  0  0  0  0  0  0  0  0  0
   10.3097   10.8875   13.7210 C   0  0  0  0  0  0  0  0  0  0  0  0
   11.5954   10.7517   14.2568 C   0  0  0  0  0  0  0  0  0  0  0  0
   12.5589    9.7444   13.6649 C   0  0  2  0  0  0  0  0  0  0  0  0
   12.4155    9.7252   12.5664 H   0  0  0  0  0  0  0  0  0  0  0  0
   12.3529    8.3222   14.2026 C   0  0  0  0  0  0  0  0  0  0  0  0
   13.3323    7.3615   13.5244 C   0  0  0  0  0  0  0  0  0  0  0  0
   14.7292    7.9416   13.4948 C   0  0  0  0  0  0  0  0  0  0  0  0
   15.8650    7.1472   13.2880 C   0  0  0  0  0  0  0  0  0  0  0  0
   17.1497    7.6904   13.2793 C   0  0  0  0  0  0  0  0  0  0  0  0
   17.3307    9.0675   13.4795 C   0  0  0  0  0  0  0  0  0  0  0  0
   18.7175    9.6825   13.4566 C   0  0  2  0  0  0  0  0  0  0  0  0
   19.4596    8.8699   13.5779 H   0  0  0  0  0  0  0  0  0  0  0  0
   18.8610   10.6318   14.5264 O   0  0  0  0  0  0  0  0  0  0  0  0
   19.0546   10.4483   12.1522 C   0  0  2  0  0  0  0  0  0  0  0  0
   18.4232   11.3572   12.1636 H   0  0  0  0  0  0  0  0  0  0  0  0
   18.7524    9.6458   10.8870 C   0  0  0  0  0  0  0  0  0  0  0  0
   20.5183   10.9538   12.1234 C   0  0  0  0  0  0  0  0  0  0  0  0
   21.1993   10.9108   11.1317 O   0  0  0  0  0  0  0  0  0  0  0  0
   20.9838   11.4788   13.2640 O   0  0  0  0  0  0  0  0  0  0  0  0
   16.2098    9.8755   13.6939 C   0  0  0  0  0  0  0  0  0  0  0  0
   14.9221    9.3227   13.6972 C   0  0  0  0  0  0  0  0  0  0  0  0
   13.8928   10.1860   13.9284 O   0  0  0  0  0  0  0  0  0  0  0  0
   11.9398   11.5259   15.3710 C   0  0  0  0  0  0  0  0  0  0  0  0
   11.0405   12.4281   15.9554 C   0  0  0  0  0  0  0  0  0  0  0  0
   11.4802   13.2395   17.1632 C   0  0  0  0  0  0  0  0  0  0  0  0
   10.6211   13.0551   18.3240 N   0  0  0  0  0  0  0  0  0  0  0  0
   10.6798   11.7541   18.9444 C   0  0  0  0  0  0  0  0  0  0  0  0
    9.7309   11.6746   20.1251 C   0  0  1  0  0  0  0  0  0  0  0  0
   10.0140   12.6366   21.0320 F   0  0  0  0  0  0  0  0  0  0  0  0
    8.4486   11.8227   19.7762 F   0  0  0  0  0  0  0  0  0  0  0  0
    9.8528   10.4892   20.7462 F   0  0  0  0  0  0  0  0  0  0  0  0
    7.6703   13.0377   16.7528 C   0  0  0  0  0  0  0  0  0  0  0  0
    7.5871   11.7298   17.0437 F   0  0  0  0  0  0  0  0  0  0  0  0
    6.7191   13.9167   17.2439 C   0  0  0  0  0  0  0  0  0  0  0  0
    6.7617   15.2307   16.9861 N   0  0  0  0  0  0  0  0  0  0  0  0
    7.0439   18.8663   16.1405 H   0  0  0  0  0  0  0  0  0  0  0  0
    6.7869   17.8195   17.5858 H   0  0  0  0  0  0  0  0  0  0  0  0
    5.8068   17.5550   16.1217 H   0  0  0  0  0  0  0  0  0  0  0  0
    9.5424   15.3155   15.0752 H   0  0  0  0  0  0  0  0  0  0  0  0
    8.3975   11.8727   13.8679 H   0  0  0  0  0  0  0  0  0  0  0  0
   10.0143   10.3026   12.8449 H   0  0  0  0  0  0  0  0  0  0  0  0
   11.3106    8.0130   14.0323 H   0  0  0  0  0  0  0  0  0  0  0  0
   12.5120    8.3394   15.2941 H   0  0  0  0  0  0  0  0  0  0  0  0
   12.9936    7.1572   12.4920 H   0  0  0  0  0  0  0  0  0  0  0  0
   13.3393    6.3874   14.0398 H   0  0  0  0  0  0  0  0  0  0  0  0
   15.7336    6.0708   13.1419 H   0  0  0  0  0  0  0  0  0  0  0  0
   18.0151    7.0419   13.1209 H   0  0  0  0  0  0  0  0  0  0  0  0
   18.6920   10.1881   15.3692 H   0  0  0  0  0  0  0  0  0  0  0  0
   19.0721   10.2142   10.0044 H   0  0  0  0  0  0  0  0  0  0  0  0
   17.6801    9.4214   10.8028 H   0  0  0  0  0  0  0  0  0  0  0  0
   19.3090    8.6950   10.8768 H   0  0  0  0  0  0  0  0  0  0  0  0
   20.3030   11.3840   13.9660 H   0  0  0  0  0  0  0  0  0  0  0  0
   16.3154   10.9477   13.8690 H   0  0  0  0  0  0  0  0  0  0  0  0
   12.9448   11.4296   15.7866 H   0  0  0  0  0  0  0  0  0  0  0  0
   11.4518   14.3124   16.9123 H   0  0  0  0  0  0  0  0  0  0  0  0
   12.5439   12.9933   17.3720 H   0  0  0  0  0  0  0  0  0  0  0  0
   10.7916   13.7853   19.0125 H   0  0  0  0  0  0  0  0  0  0  0  0
   11.6838   11.4648   19.3275 H   0  0  0  0  0  0  0  0  0  0  0  0
   10.3699   10.9798   18.2254 H   0  0  0  0  0  0  0  0  0  0  0  0
    5.9038   13.5384   17.8698 H   0  0  0  0  0  0  0  0  0  0  0  0
  1  2  1  0
  1 43  1  0
  1 44  1  0
  1 45  1  0
  2  3  1  0
  3  4  2  0
  3 42  1  0
  4  5  1  0
  4 46  1  0
  5  6  1  0
  5 39  2  0
  6  7  2  0
  6 31  1  0
  7  8  1  0
  7 47  1  0
  8  9  2  0
  8 48  1  0
  9 10  1  0
  9 30  1  0
 10 11  1  6
 10 12  1  0
 10 29  1  0
 12 13  1  0
 12 49  1  0
 12 50  1  0
 13 14  1  0
 13 51  1  0
 13 52  1  0
 14 15  2  0
 14 28  1  0
 15 16  1  0
 15 53  1  0
 16 17  2  0
 16 54  1  0
 17 18  1  0
 17 27  1  0
 18 19  1  1
 18 20  1  0
 18 21  1  0
 20 55  1  0
 21 22  1  6
 21 23  1  0
 21 24  1  0
 23 56  1  0
 23 57  1  0
 23 58  1  0
 24 25  2  0
 24 26  1  0
 26 59  1  0
 27 28  2  0
 27 60  1  0
 28 29  1  0
 30 31  2  0
 30 61  1  0
 31 32  1  0
 32 33  1  0
 32 62  1  0
 32 63  1  0
 33 34  1  0
 33 64  1  0
 34 35  1  0
 34 65  1  0
 34 66  1  0
 35 36  1  1
 35 37  1  0
 35 38  1  0
 39 40  1  0
 39 41  1  0
 41 42  2  0
 41 67  1  0
M  END

