
     RDKit          3D

 29 30  0  0  0  0  0  0  0  0999 V2000
    1.3653    0.0653   -0.7480 O   0  0  0  0  0  0  0  0  0  0  0  0
    2.4820   -0.0862   -0.2494 C   0  0  0  0  0  0  0  0  0  0  0  0
    3.0988    1.0532    0.5784 C   0  0  0  0  0  0  0  0  0  0  0  0
    2.5213    1.0931    1.9092 N   0  0  0  0  0  0  0  0  0  0  0  0
    3.1314    0.4237    2.9120 N   0  0  0  0  0  0  0  0  0  0  0  0
    2.4027    0.5555    3.9749 N   0  0  0  0  0  0  0  0  0  0  0  0
    1.3088    1.3030    3.6727 C   0  0  0  0  0  0  0  0  0  0  0  0
    1.3559    1.6646    2.3362 C   0  0  0  0  0  0  0  0  0  0  0  0
    0.3999    2.4257    1.4561 C   0  0  0  0  0  0  0  0  0  0  0  0
   -0.4522    1.6143    0.6973 O   0  0  0  0  0  0  0  0  0  0  0  0
    3.1822   -1.2316   -0.3702 N   0  0  0  0  0  0  0  0  0  0  0  0
    2.5859   -2.4031   -1.0326 C   0  0  0  0  0  0  0  0  0  0  0  0
    3.3470   -3.5809   -0.4181 C   0  0  0  0  0  0  0  0  0  0  0  0
    4.7464   -2.9990   -0.1713 C   0  0  0  0  0  0  0  0  0  0  0  0
    4.4687   -1.5572    0.2810 C   0  0  0  0  0  0  0  0  0  0  0  0
    2.8675    1.9916    0.0566 H   0  0  0  0  0  0  0  0  0  0  0  0
    4.1844    0.9722    0.7005 H   0  0  0  0  0  0  0  0  0  0  0  0
    0.5528    1.5464    4.4165 H   0  0  0  0  0  0  0  0  0  0  0  0
    0.9779    3.1384    0.8279 H   0  0  0  0  0  0  0  0  0  0  0  0
   -0.2318    3.0432    2.1136 H   0  0  0  0  0  0  0  0  0  0  0  0
    0.0925    1.0823    0.0819 H   0  0  0  0  0  0  0  0  0  0  0  0
    2.7401   -2.3408   -2.1251 H   0  0  0  0  0  0  0  0  0  0  0  0
    1.5017   -2.4162   -0.8561 H   0  0  0  0  0  0  0  0  0  0  0  0
    3.3537   -4.4664   -1.0704 H   0  0  0  0  0  0  0  0  0  0  0  0
    2.8805   -3.8716    0.5377 H   0  0  0  0  0  0  0  0  0  0  0  0
    5.3245   -2.9961   -1.1102 H   0  0  0  0  0  0  0  0  0  0  0  0
    5.3291   -3.5589    0.5744 H   0  0  0  0  0  0  0  0  0  0  0  0
    5.2654   -0.8667   -0.0386 H   0  0  0  0  0  0  0  0  0  0  0  0
    4.3695   -1.4738    1.3755 H   0  0  0  0  0  0  0  0  0  0  0  0
  1  2  2  0
  2  3  1  0
  2 11  1  0
  3  4  1  0
  3 16  1  0
  3 17  1  0
  4  5  1  0
  4  8  1  0
  5  6  2  0
  6  7  1  0
  7  8  2  0
  7 18  1  0
  8  9  1  0
  9 10  1  0
  9 19  1  0
  9 20  1  0
 10 21  1  0
 11 12  1  0
 11 15  1  0
 12 13  1  0
 12 22  1  0
 12 23  1  0
 13 14  1  0
 13 24  1  0
 13 25  1  0
 14 15  1  0
 14 26  1  0
 14 27  1  0
 15 28  1  0
 15 29  1  0
M  END

