
     RDKit          3D

 54 56  0  0  0  0  0  0  0  0999 V2000
    0.4253   -0.7359   -0.6942 O   0  0  0  0  0  0  0  0  0  0  0  0
    1.3569   -0.1221   -0.2028 C   0  0  0  0  0  0  0  0  0  0  0  0
    1.2024    1.1458    0.2954 N   0  0  0  0  0  0  0  0  0  0  0  0
   -0.0704    1.8399    0.2595 C   0  0  0  0  0  0  0  0  0  0  0  0
   -0.8993    1.5953    1.5179 C   0  0  0  0  0  0  0  0  0  0  0  0
   -2.0956    2.3574    1.3768 O   0  0  0  0  0  0  0  0  0  0  0  0
   -3.0055    2.3122    2.3668 C   0  0  0  0  0  0  0  0  0  0  0  0
   -4.1940    3.0512    2.1867 C   0  0  0  0  0  0  0  0  0  0  0  0
   -5.1414    3.0187    3.1983 C   0  0  0  0  0  0  0  0  0  0  0  0
   -4.8761    2.2568    4.3473 C   0  0  0  0  0  0  0  0  0  0  0  0
   -6.0322    2.1785    5.6524 Cl  0  0  0  0  0  0  0  0  0  0  0  0
   -3.6712    1.5616    4.4285 C   0  0  0  0  0  0  0  0  0  0  0  0
   -2.7573    1.5939    3.4526 N   0  0  0  0  0  0  0  0  0  0  0  0
    2.7766   -0.7079   -0.0744 C   0  0  1  0  0  0  0  0  0  0  0  0
    2.8308   -2.1658   -0.5578 C   0  0  0  0  0  0  0  0  0  0  0  0
    2.7723   -2.2586   -2.0874 C   0  0  0  0  0  0  0  0  0  0  0  0
    3.8369   -1.3772   -2.7387 C   0  0  0  0  0  0  0  0  0  0  0  0
    3.7764   -0.0041   -2.2402 N   0  0  0  0  0  0  0  0  0  0  0  0
    3.8030    1.0392   -3.1571 C   0  0  0  0  0  0  0  0  0  0  0  0
    3.6096    0.8640   -4.3514 O   0  0  0  0  0  0  0  0  0  0  0  0
    4.0394    2.3046   -2.6371 N   0  0  0  0  0  0  0  0  0  0  0  0
    4.1289    3.4373   -3.5502 C   0  0  1  0  0  0  0  0  0  0  0  0
    2.7808    3.9526   -4.0762 C   0  0  0  0  0  0  0  0  0  0  0  0
    3.1369    5.3298   -4.6591 C   0  0  0  0  0  0  0  0  0  0  0  0
    4.2934    5.8701   -3.7665 C   0  0  0  0  0  0  0  0  0  0  0  0
    4.7293    4.6803   -2.8751 C   0  0  0  0  0  0  0  0  0  0  0  0
    3.8488    0.1442   -0.7993 C   0  0  0  0  0  0  0  0  0  0  0  0
    1.9765    1.5838    0.7786 H   0  0  0  0  0  0  0  0  0  0  0  0
   -0.6277    1.4800   -0.6165 H   0  0  0  0  0  0  0  0  0  0  0  0
    0.1032    2.9205    0.1340 H   0  0  0  0  0  0  0  0  0  0  0  0
   -0.3570    1.9069    2.4273 H   0  0  0  0  0  0  0  0  0  0  0  0
   -1.1367    0.5249    1.6263 H   0  0  0  0  0  0  0  0  0  0  0  0
   -4.3440    3.6229    1.2698 H   0  0  0  0  0  0  0  0  0  0  0  0
   -6.0791    3.5710    3.1108 H   0  0  0  0  0  0  0  0  0  0  0  0
   -3.4420    0.9595    5.3139 H   0  0  0  0  0  0  0  0  0  0  0  0
    3.0245   -0.6771    1.0030 H   0  0  0  0  0  0  0  0  0  0  0  0
    2.0053   -2.7358   -0.1073 H   0  0  0  0  0  0  0  0  0  0  0  0
    3.7741   -2.6128   -0.1949 H   0  0  0  0  0  0  0  0  0  0  0  0
    1.7748   -1.9458   -2.4292 H   0  0  0  0  0  0  0  0  0  0  0  0
    2.9207   -3.3029   -2.4090 H   0  0  0  0  0  0  0  0  0  0  0  0
    3.7124   -1.3323   -3.8270 H   0  0  0  0  0  0  0  0  0  0  0  0
    4.8455   -1.7917   -2.5281 H   0  0  0  0  0  0  0  0  0  0  0  0
    4.6307    2.3622   -1.8167 H   0  0  0  0  0  0  0  0  0  0  0  0
    4.7453    3.1534   -4.4235 H   0  0  0  0  0  0  0  0  0  0  0  0
    2.0873    4.0509   -3.2222 H   0  0  0  0  0  0  0  0  0  0  0  0
    2.3268    3.2640   -4.8020 H   0  0  0  0  0  0  0  0  0  0  0  0
    2.2724    6.0103   -4.6912 H   0  0  0  0  0  0  0  0  0  0  0  0
    3.4854    5.2157   -5.6984 H   0  0  0  0  0  0  0  0  0  0  0  0
    3.9719    6.7242   -3.1509 H   0  0  0  0  0  0  0  0  0  0  0  0
    5.1304    6.2314   -4.3839 H   0  0  0  0  0  0  0  0  0  0  0  0
    4.2889    4.7763   -1.8666 H   0  0  0  0  0  0  0  0  0  0  0  0
    5.8221    4.6124   -2.7496 H   0  0  0  0  0  0  0  0  0  0  0  0
    3.7153    1.2015   -0.5397 H   0  0  0  0  0  0  0  0  0  0  0  0
    4.8456   -0.1684   -0.4235 H   0  0  0  0  0  0  0  0  0  0  0  0
  1  2  2  0
  2  3  1  0
  2 14  1  0
  3  4  1  0
  3 28  1  0
  4  5  1  0
  4 29  1  0
  4 30  1  0
  5  6  1  0
  5 31  1  0
  5 32  1  0
  6  7  1  0
  7  8  2  0
  7 13  1  0
  8  9  1  0
  8 33  1  0
  9 10  2  0
  9 34  1  0
 10 11  1  0
 10 12  1  0
 12 13  2  0
 12 35  1  0
 14 15  1  0
 14 27  1  0
 14 36  1  1
 15 16  1  0
 15 37  1  0
 15 38  1  0
 16 17  1  0
 16 39  1  0
 16 40  1  0
 17 18  1  0
 17 41  1  0
 17 42  1  0
 18 19  1  0
 18 27  1  0
 19 20  2  0
 19 21  1  0
 21 22  1  0
 21 43  1  0
 22 23  1  0
 22 26  1  0
 22 44  1  6
 23 24  1  0
 23 45  1  0
 23 46  1  0
 24 25  1  0
 24 47  1  0
 24 48  1  0
 25 26  1  0
 25 49  1  0
 25 50  1  0
 26 51  1  0
 26 52  1  0
 27 53  1  0
 27 54  1  0
M  END

