
     RDKit          3D

 27 26  0  0  0  0  0  0  0  0999 V2000
    1.5224   -0.8847   -0.3138 C   0  0  0  0  0  0  0  0  0  0  0  0
    2.5648    0.5503   -0.0218 S   0  0  1  0  0  0  0  0  0  0  0  0
    1.7366    1.7455   -0.1933 O   0  0  0  0  0  0  0  0  0  0  0  0
    3.3192    0.2984    1.2085 O   0  0  0  0  0  0  0  0  0  0  0  0
    3.6258    0.5182   -1.3411 N   0  0  0  0  0  0  0  0  0  0  0  0
    5.0213    0.1332   -1.1305 C   0  0  0  0  0  0  0  0  0  0  0  0
    5.6993   -0.1486   -2.4819 C   0  0  0  0  0  0  0  0  0  0  0  0
    7.0959   -0.5376   -2.4123 N   0  0  0  0  0  0  0  0  0  0  0  0
    7.3885   -1.8184   -1.7749 C   0  0  0  0  0  0  0  0  0  0  0  0
    8.7892   -2.2721   -2.1082 C   0  0  0  0  0  0  0  0  0  0  0  0
    9.1552   -2.2114   -3.4264 N   0  0  0  0  0  0  0  0  0  0  0  0
    9.5116   -2.7319   -1.1457 N   0  0  0  0  0  0  0  0  0  0  0  0
   10.7683   -3.1419   -1.6403 O   0  0  0  0  0  0  0  0  0  0  0  0
    0.8066   -0.9210    0.5189 H   0  0  0  0  0  0  0  0  0  0  0  0
    2.1488   -1.7859   -0.3206 H   0  0  0  0  0  0  0  0  0  0  0  0
    1.0036   -0.7497   -1.2707 H   0  0  0  0  0  0  0  0  0  0  0  0
    3.4936    1.3889   -1.8563 H   0  0  0  0  0  0  0  0  0  0  0  0
    5.0343   -0.7675   -0.4994 H   0  0  0  0  0  0  0  0  0  0  0  0
    5.5908    0.9057   -0.5785 H   0  0  0  0  0  0  0  0  0  0  0  0
    5.6229    0.7531   -3.1161 H   0  0  0  0  0  0  0  0  0  0  0  0
    5.1338   -0.9401   -3.0031 H   0  0  0  0  0  0  0  0  0  0  0  0
    7.6612    0.2028   -1.9970 H   0  0  0  0  0  0  0  0  0  0  0  0
    6.6750   -2.5580   -2.1827 H   0  0  0  0  0  0  0  0  0  0  0  0
    7.2883   -1.8381   -0.6740 H   0  0  0  0  0  0  0  0  0  0  0  0
    8.6594   -1.5089   -3.9658 H   0  0  0  0  0  0  0  0  0  0  0  0
   10.1449   -2.3278   -3.6137 H   0  0  0  0  0  0  0  0  0  0  0  0
   11.2237   -3.4316   -0.8413 H   0  0  0  0  0  0  0  0  0  0  0  0
  1  2  1  0
  1 14  1  0
  1 15  1  0
  1 16  1  0
  2  3  2  0
  2  4  2  0
  2  5  1  6
  5  6  1  0
  5 17  1  0
  6  7  1  0
  6 18  1  0
  6 19  1  0
  7  8  1  0
  7 20  1  0
  7 21  1  0
  8  9  1  0
  8 22  1  0
  9 10  1  0
  9 23  1  0
  9 24  1  0
 10 11  1  0
 10 12  2  0
 11 25  1  0
 11 26  1  0
 12 13  1  0
 13 27  1  0
M  END

