
     RDKit          3D

 42 43  0  0  0  0  0  0  0  0999 V2000
    4.0784    2.3889    4.2018 C   0  0  0  0  0  0  0  0  0  0  0  0
    4.9601    1.9153    3.0717 C   0  0  0  0  0  0  0  0  0  0  0  0
    6.3346    1.6965    3.2781 C   0  0  0  0  0  0  0  0  0  0  0  0
    7.1608    1.2589    2.2450 C   0  0  0  0  0  0  0  0  0  0  0  0
    6.6390    1.0205    0.9615 C   0  0  0  0  0  0  0  0  0  0  0  0
    7.5420    0.5280   -0.1551 C   0  0  0  0  0  0  0  0  0  0  0  0
    7.9784   -0.8483    0.0086 N   0  0  0  0  0  0  0  0  0  0  0  0
    9.1942   -1.1870    0.4859 C   0  0  0  0  0  0  0  0  0  0  0  0
   10.0627   -0.3801    0.7963 O   0  0  0  0  0  0  0  0  0  0  0  0
    9.3060   -2.7438    0.5743 C   0  0  0  0  0  0  0  0  0  0  0  0
    8.3004   -3.3902    0.2837 O   0  0  0  0  0  0  0  0  0  0  0  0
   10.4703   -3.3283    0.9597 N   0  0  0  0  0  0  0  0  0  0  0  0
   10.5287   -4.7930    1.0094 C   0  0  0  0  0  0  0  0  0  0  0  0
   11.6265   -5.3232    0.0826 C   0  0  0  0  0  0  0  0  0  0  0  0
   12.9784   -4.6692    0.3894 C   0  0  0  0  0  0  0  0  0  0  0  0
   12.8798   -3.1353    0.3896 C   0  0  2  0  0  0  0  0  0  0  0  0
   14.1974   -2.4671    0.7867 C   0  0  0  0  0  0  0  0  0  0  0  0
   11.7352   -2.6724    1.3088 C   0  0  0  0  0  0  0  0  0  0  0  0
    5.2734    1.2378    0.7506 C   0  0  0  0  0  0  0  0  0  0  0  0
    4.4467    1.6796    1.7900 C   0  0  0  0  0  0  0  0  0  0  0  0
    4.0758    1.6677    5.0365 H   0  0  0  0  0  0  0  0  0  0  0  0
    3.0373    2.5255    3.8737 H   0  0  0  0  0  0  0  0  0  0  0  0
    4.4318    3.3503    4.6107 H   0  0  0  0  0  0  0  0  0  0  0  0
    6.7641    1.8786    4.2681 H   0  0  0  0  0  0  0  0  0  0  0  0
    8.2276    1.1006    2.4258 H   0  0  0  0  0  0  0  0  0  0  0  0
    8.4547    1.1402   -0.2005 H   0  0  0  0  0  0  0  0  0  0  0  0
    7.0226    0.6206   -1.1224 H   0  0  0  0  0  0  0  0  0  0  0  0
    7.3409   -1.6295   -0.1336 H   0  0  0  0  0  0  0  0  0  0  0  0
    9.5408   -5.1800    0.7360 H   0  0  0  0  0  0  0  0  0  0  0  0
   10.7410   -5.0947    2.0526 H   0  0  0  0  0  0  0  0  0  0  0  0
   11.3387   -5.1179   -0.9633 H   0  0  0  0  0  0  0  0  0  0  0  0
   11.6905   -6.4193    0.1863 H   0  0  0  0  0  0  0  0  0  0  0  0
   13.7418   -5.0016   -0.3344 H   0  0  0  0  0  0  0  0  0  0  0  0
   13.3285   -5.0024    1.3852 H   0  0  0  0  0  0  0  0  0  0  0  0
   12.6175   -2.8098   -0.6348 H   0  0  0  0  0  0  0  0  0  0  0  0
   14.4906   -2.7446    1.8138 H   0  0  0  0  0  0  0  0  0  0  0  0
   14.1204   -1.3687    0.7461 H   0  0  0  0  0  0  0  0  0  0  0  0
   15.0153   -2.7730    0.1148 H   0  0  0  0  0  0  0  0  0  0  0  0
   11.6023   -1.5889    1.2632 H   0  0  0  0  0  0  0  0  0  0  0  0
   11.9812   -2.9444    2.3543 H   0  0  0  0  0  0  0  0  0  0  0  0
    4.8440    1.0637   -0.2409 H   0  0  0  0  0  0  0  0  0  0  0  0
    3.3824    1.8433    1.5977 H   0  0  0  0  0  0  0  0  0  0  0  0
  1  2  1  0
  1 21  1  0
  1 22  1  0
  1 23  1  0
  2  3  2  0
  2 20  1  0
  3  4  1  0
  3 24  1  0
  4  5  2  0
  4 25  1  0
  5  6  1  0
  5 19  1  0
  6  7  1  0
  6 26  1  0
  6 27  1  0
  7  8  1  0
  7 28  1  0
  8  9  2  0
  8 10  1  0
 10 11  2  0
 10 12  1  0
 12 13  1  0
 12 18  1  0
 13 14  1  0
 13 29  1  0
 13 30  1  0
 14 15  1  0
 14 31  1  0
 14 32  1  0
 15 16  1  0
 15 33  1  0
 15 34  1  0
 16 17  1  0
 16 18  1  0
 16 35  1  6
 17 36  1  0
 17 37  1  0
 17 38  1  0
 18 39  1  0
 18 40  1  0
 19 20  2  0
 19 41  1  0
 20 42  1  0
M  END

