
     RDKit          3D

 50 50  0  0  0  0  0  0  0  0999 V2000
    1.2256    0.0624    0.4970 C   0  0  0  0  0  0  0  0  0  0  0  0
    2.7332    0.1776    0.2973 C   0  0  0  0  0  0  0  0  0  0  0  0
    3.0955    0.0589   -1.1053 N   0  0  0  0  0  0  0  0  0  0  0  0
    4.5321    0.1310   -1.4073 C   0  0  1  0  0  0  0  0  0  0  0  0
    5.1484   -1.3026   -1.2404 C   0  0  1  0  0  0  0  0  0  0  0  0
    4.9369   -2.2600   -2.4349 C   0  0  0  0  0  0  0  0  0  0  0  0
    3.4951   -2.7018   -2.7020 C   0  0  0  0  0  0  0  0  0  0  0  0
    6.6220   -1.2952   -0.7674 C   0  0  0  0  0  0  0  0  0  0  0  0
    7.0366   -2.5500    0.0073 C   0  0  0  0  0  0  0  0  0  0  0  0
    4.7356    0.8217   -2.7891 C   0  0  1  0  0  0  0  0  0  0  0  0
    4.1480    2.2547   -2.8546 C   0  0  0  0  0  0  0  0  0  0  0  0
    4.9801    3.2874   -2.0845 C   0  0  0  0  0  0  0  0  0  0  0  0
    6.4348    3.3139   -2.5670 C   0  0  0  0  0  0  0  0  0  0  0  0
    7.0839    1.9193   -2.5298 C   0  0  2  0  0  0  0  0  0  0  0  0
    8.5161    1.9072   -3.0928 C   0  0  0  0  0  0  0  0  0  0  0  0
    9.5294    2.7592   -2.3249 C   0  0  0  0  0  0  0  0  0  0  0  0
    6.1986    0.9051   -3.2804 C   0  0  0  0  0  0  0  0  0  0  0  0
    0.9601    0.1411    1.5630 H   0  0  0  0  0  0  0  0  0  0  0  0
    0.8536   -0.8998    0.1123 H   0  0  0  0  0  0  0  0  0  0  0  0
    0.6905    0.8667   -0.0371 H   0  0  0  0  0  0  0  0  0  0  0  0
    3.2339   -0.6282    0.8624 H   0  0  0  0  0  0  0  0  0  0  0  0
    3.0977    1.1289    0.7522 H   0  0  0  0  0  0  0  0  0  0  0  0
    2.5758    0.7459   -1.6432 H   0  0  0  0  0  0  0  0  0  0  0  0
    5.0317    0.7641   -0.6423 H   0  0  0  0  0  0  0  0  0  0  0  0
    4.5782   -1.7335   -0.3976 H   0  0  0  0  0  0  0  0  0  0  0  0
    5.5412   -3.1651   -2.2514 H   0  0  0  0  0  0  0  0  0  0  0  0
    5.3624   -1.8163   -3.3512 H   0  0  0  0  0  0  0  0  0  0  0  0
    3.0687   -3.2112   -1.8217 H   0  0  0  0  0  0  0  0  0  0  0  0
    3.4553   -3.4078   -3.5483 H   0  0  0  0  0  0  0  0  0  0  0  0
    2.8347   -1.8525   -2.9225 H   0  0  0  0  0  0  0  0  0  0  0  0
    6.7839   -0.4181   -0.1169 H   0  0  0  0  0  0  0  0  0  0  0  0
    7.3042   -1.1622   -1.6239 H   0  0  0  0  0  0  0  0  0  0  0  0
    6.4215   -2.6813    0.9135 H   0  0  0  0  0  0  0  0  0  0  0  0
    8.0896   -2.4910    0.3267 H   0  0  0  0  0  0  0  0  0  0  0  0
    6.9308   -3.4657   -0.5967 H   0  0  0  0  0  0  0  0  0  0  0  0
    4.1804    0.2102   -3.5215 H   0  0  0  0  0  0  0  0  0  0  0  0
    3.1008    2.2904   -2.5123 H   0  0  0  0  0  0  0  0  0  0  0  0
    4.1149    2.5526   -3.9180 H   0  0  0  0  0  0  0  0  0  0  0  0
    4.9545    3.0607   -1.0038 H   0  0  0  0  0  0  0  0  0  0  0  0
    4.5274    4.2875   -2.1951 H   0  0  0  0  0  0  0  0  0  0  0  0
    7.0166    4.0292   -1.9631 H   0  0  0  0  0  0  0  0  0  0  0  0
    6.4650    3.6894   -3.6081 H   0  0  0  0  0  0  0  0  0  0  0  0
    7.1452    1.6075   -1.4702 H   0  0  0  0  0  0  0  0  0  0  0  0
    8.4864    2.2309   -4.1502 H   0  0  0  0  0  0  0  0  0  0  0  0
    8.8719    0.8615   -3.1120 H   0  0  0  0  0  0  0  0  0  0  0  0
    9.2827    3.8322   -2.3592 H   0  0  0  0  0  0  0  0  0  0  0  0
   10.5415    2.6447   -2.7450 H   0  0  0  0  0  0  0  0  0  0  0  0
    9.5771    2.4643   -1.2628 H   0  0  0  0  0  0  0  0  0  0  0  0
    6.6757   -0.0845   -3.2657 H   0  0  0  0  0  0  0  0  0  0  0  0
    6.1729    1.2035   -4.3452 H   0  0  0  0  0  0  0  0  0  0  0  0
  1  2  1  0
  1 18  1  0
  1 19  1  0
  1 20  1  0
  2  3  1  0
  2 21  1  0
  2 22  1  0
  3  4  1  0
  3 23  1  0
  4  5  1  0
  4 10  1  0
  4 24  1  1
  5  6  1  0
  5  8  1  0
  5 25  1  1
  6  7  1  0
  6 26  1  0
  6 27  1  0
  7 28  1  0
  7 29  1  0
  7 30  1  0
  8  9  1  0
  8 31  1  0
  8 32  1  0
  9 33  1  0
  9 34  1  0
  9 35  1  0
 10 11  1  0
 10 17  1  0
 10 36  1  6
 11 12  1  0
 11 37  1  0
 11 38  1  0
 12 13  1  0
 12 39  1  0
 12 40  1  0
 13 14  1  0
 13 41  1  0
 13 42  1  0
 14 15  1  0
 14 17  1  0
 14 43  1  1
 15 16  1  0
 15 44  1  0
 15 45  1  0
 16 46  1  0
 16 47  1  0
 16 48  1  0
 17 49  1  0
 17 50  1  0
M  END

