
     RDKit          3D

 46 48  0  0  0  0  0  0  0  0999 V2000
    0.8446   -0.1245   -0.8767 C   0  0  0  0  0  0  0  0  0  0  0  0
    2.3357   -0.0565   -0.6517 C   0  0  0  0  0  0  0  0  0  0  0  0
    2.9844    1.1621   -0.3886 C   0  0  0  0  0  0  0  0  0  0  0  0
    4.3633    1.2222   -0.1719 C   0  0  0  0  0  0  0  0  0  0  0  0
    5.1412    0.0603   -0.2074 C   0  0  0  0  0  0  0  0  0  0  0  0
    4.5014   -1.1622   -0.4661 C   0  0  0  0  0  0  0  0  0  0  0  0
    3.1197   -1.2159   -0.6893 C   0  0  0  0  0  0  0  0  0  0  0  0
    5.2852   -2.4298   -0.5125 C   0  0  0  0  0  0  0  0  0  0  0  0
    4.8386   -3.4815   -0.8960 O   0  0  0  0  0  0  0  0  0  0  0  0
    6.5760   -2.3799   -0.0975 O   0  0  0  0  0  0  0  0  0  0  0  0
    7.2166   -1.2384    0.5228 C   0  0  1  0  0  0  0  0  0  0  0  0
    7.0874   -1.3785    2.0606 C   0  0  0  0  0  0  0  0  0  0  0  0
    5.6835   -1.3574    2.6769 C   0  0  0  0  0  0  0  0  0  0  0  0
    5.7017   -1.7092    4.0921 N   0  0  0  0  0  0  0  0  0  0  0  0
    6.2830   -0.6892    4.9432 C   0  0  0  0  0  0  0  0  0  0  0  0
    4.3999   -2.1313    4.5729 C   0  0  0  0  0  0  0  0  0  0  0  0
    8.7057   -1.3522    0.1637 C   0  0  0  0  0  0  0  0  0  0  0  0
    9.2188   -2.4825   -0.4879 C   0  0  0  0  0  0  0  0  0  0  0  0
   10.5783   -2.5805   -0.7969 C   0  0  0  0  0  0  0  0  0  0  0  0
   11.4425   -1.5400   -0.4521 C   0  0  0  0  0  0  0  0  0  0  0  0
   13.1451   -1.6557   -0.8369 Cl  0  0  0  0  0  0  0  0  0  0  0  0
   10.9555   -0.4038    0.1993 C   0  0  0  0  0  0  0  0  0  0  0  0
    9.5957   -0.3194    0.5020 C   0  0  0  0  0  0  0  0  0  0  0  0
    6.6392    0.0740   -0.0545 C   0  0  0  0  0  0  0  0  0  0  0  0
    0.4018    0.8785   -0.9655 H   0  0  0  0  0  0  0  0  0  0  0  0
    0.3391   -0.6405   -0.0429 H   0  0  0  0  0  0  0  0  0  0  0  0
    0.6036   -0.6853   -1.7940 H   0  0  0  0  0  0  0  0  0  0  0  0
    2.3975    2.0844   -0.3541 H   0  0  0  0  0  0  0  0  0  0  0  0
    4.8391    2.1873    0.0242 H   0  0  0  0  0  0  0  0  0  0  0  0
    2.6724   -2.1914   -0.8947 H   0  0  0  0  0  0  0  0  0  0  0  0
    7.7068   -0.5847    2.5063 H   0  0  0  0  0  0  0  0  0  0  0  0
    7.5586   -2.3337    2.3407 H   0  0  0  0  0  0  0  0  0  0  0  0
    5.0576   -2.1052    2.1671 H   0  0  0  0  0  0  0  0  0  0  0  0
    5.1912   -0.3725    2.5081 H   0  0  0  0  0  0  0  0  0  0  0  0
    7.3161   -0.4613    4.6410 H   0  0  0  0  0  0  0  0  0  0  0  0
    6.3211   -1.0471    5.9841 H   0  0  0  0  0  0  0  0  0  0  0  0
    5.7083    0.2679    4.9369 H   0  0  0  0  0  0  0  0  0  0  0  0
    4.0232   -2.9703    3.9670 H   0  0  0  0  0  0  0  0  0  0  0  0
    3.6324   -1.3220    4.5459 H   0  0  0  0  0  0  0  0  0  0  0  0
    4.4780   -2.4782    5.6158 H   0  0  0  0  0  0  0  0  0  0  0  0
    8.5448   -3.2950   -0.7577 H   0  0  0  0  0  0  0  0  0  0  0  0
   10.9679   -3.4641   -1.3053 H   0  0  0  0  0  0  0  0  0  0  0  0
   11.6373    0.4057    0.4654 H   0  0  0  0  0  0  0  0  0  0  0  0
    9.2359    0.5773    1.0125 H   0  0  0  0  0  0  0  0  0  0  0  0
    7.0930    0.2375   -1.0477 H   0  0  0  0  0  0  0  0  0  0  0  0
    6.9553    0.9221    0.5710 H   0  0  0  0  0  0  0  0  0  0  0  0
  1  2  1  0
  1 25  1  0
  1 26  1  0
  1 27  1  0
  2  3  2  0
  2  7  1  0
  3  4  1  0
  3 28  1  0
  4  5  2  0
  4 29  1  0
  5  6  1  0
  5 24  1  0
  6  7  2  0
  6  8  1  0
  7 30  1  0
  8  9  2  0
  8 10  1  0
 10 11  1  0
 11 12  1  1
 11 17  1  0
 11 24  1  0
 12 13  1  0
 12 31  1  0
 12 32  1  0
 13 14  1  0
 13 33  1  0
 13 34  1  0
 14 15  1  0
 14 16  1  0
 15 35  1  0
 15 36  1  0
 15 37  1  0
 16 38  1  0
 16 39  1  0
 16 40  1  0
 17 18  2  0
 17 23  1  0
 18 19  1  0
 18 41  1  0
 19 20  2  0
 19 42  1  0
 20 21  1  0
 20 22  1  0
 22 23  2  0
 22 43  1  0
 23 44  1  0
 24 45  1  0
 24 46  1  0
M  END

