
     RDKit          3D

 38 39  0  0  0  0  0  0  0  0999 V2000
    1.3906    1.0325    0.5457 C   0  0  0  0  0  0  0  0  0  0  0  0
    2.3866    0.4712   -0.2834 O   0  0  0  0  0  0  0  0  0  0  0  0
    3.0614    1.2502   -1.1665 C   0  0  0  0  0  0  0  0  0  0  0  0
    2.7953    2.6234   -1.3079 C   0  0  0  0  0  0  0  0  0  0  0  0
    3.5109    3.3921   -2.2270 C   0  0  0  0  0  0  0  0  0  0  0  0
    4.5024    2.8073   -3.0180 C   0  0  0  0  0  0  0  0  0  0  0  0
    4.7654    1.4479   -2.8752 C   0  0  0  0  0  0  0  0  0  0  0  0
    4.0661    0.6382   -1.9623 C   0  0  0  0  0  0  0  0  0  0  0  0
    4.4721   -0.8206   -1.9434 C   0  0  0  0  0  0  0  0  0  0  0  0
    5.3734   -1.1935   -2.6693 O   0  0  0  0  0  0  0  0  0  0  0  0
    3.7730   -1.8084   -1.0052 C   0  0  0  0  0  0  0  0  0  0  0  0
    4.1696   -3.1797   -1.2229 N   0  0  0  0  0  0  0  0  0  0  0  0
    5.5042   -3.5535   -0.7486 C   0  0  0  0  0  0  0  0  0  0  0  0
    5.5148   -3.8952    0.7531 C   0  0  0  0  0  0  0  0  0  0  0  0
    4.5237   -4.9065    1.1249 N   0  0  0  0  0  0  0  0  0  0  0  0
    4.9170   -6.2774    0.8601 C   0  0  0  0  0  0  0  0  0  0  0  0
    3.1953   -4.5383    0.6384 C   0  0  0  0  0  0  0  0  0  0  0  0
    3.1809   -4.1931   -0.8636 C   0  0  0  0  0  0  0  0  0  0  0  0
    1.0081    0.2119    1.1670 H   0  0  0  0  0  0  0  0  0  0  0  0
    0.5576    1.4552   -0.0430 H   0  0  0  0  0  0  0  0  0  0  0  0
    1.8009    1.8189    1.2030 H   0  0  0  0  0  0  0  0  0  0  0  0
    2.0267    3.1001   -0.7006 H   0  0  0  0  0  0  0  0  0  0  0  0
    3.2858    4.4579   -2.3203 H   0  0  0  0  0  0  0  0  0  0  0  0
    5.0644    3.4061   -3.7380 H   0  0  0  0  0  0  0  0  0  0  0  0
    5.5330    0.9548   -3.4742 H   0  0  0  0  0  0  0  0  0  0  0  0
    2.6889   -1.7115   -1.1679 H   0  0  0  0  0  0  0  0  0  0  0  0
    3.9210   -1.4239    0.0290 H   0  0  0  0  0  0  0  0  0  0  0  0
    6.2107   -2.7444   -0.9796 H   0  0  0  0  0  0  0  0  0  0  0  0
    5.8407   -4.4304   -1.3317 H   0  0  0  0  0  0  0  0  0  0  0  0
    5.3025   -2.9793    1.3370 H   0  0  0  0  0  0  0  0  0  0  0  0
    6.5155   -4.2403    1.0641 H   0  0  0  0  0  0  0  0  0  0  0  0
    5.8735   -6.4903    1.3657 H   0  0  0  0  0  0  0  0  0  0  0  0
    5.0472   -6.5466   -0.2118 H   0  0  0  0  0  0  0  0  0  0  0  0
    4.1631   -6.9651    1.2783 H   0  0  0  0  0  0  0  0  0  0  0  0
    2.8488   -3.6585    1.2141 H   0  0  0  0  0  0  0  0  0  0  0  0
    2.4901   -5.3587    0.8561 H   0  0  0  0  0  0  0  0  0  0  0  0
    2.1785   -3.8533   -1.1740 H   0  0  0  0  0  0  0  0  0  0  0  0
    3.3980   -5.1064   -1.4490 H   0  0  0  0  0  0  0  0  0  0  0  0
  1  2  1  0
  1 19  1  0
  1 20  1  0
  1 21  1  0
  2  3  1  0
  3  4  2  0
  3  8  1  0
  4  5  1  0
  4 22  1  0
  5  6  2  0
  5 23  1  0
  6  7  1  0
  6 24  1  0
  7  8  2  0
  7 25  1  0
  8  9  1  0
  9 10  2  0
  9 11  1  0
 11 12  1  0
 11 26  1  0
 11 27  1  0
 12 13  1  0
 12 18  1  0
 13 14  1  0
 13 28  1  0
 13 29  1  0
 14 15  1  0
 14 30  1  0
 14 31  1  0
 15 16  1  0
 15 17  1  0
 16 32  1  0
 16 33  1  0
 16 34  1  0
 17 18  1  0
 17 35  1  0
 17 36  1  0
 18 37  1  0
 18 38  1  0
M  END

