
     RDKit          3D

 80 84  0  0  0  0  0  0  0  0999 V2000
    1.3948   -0.6566    0.5279 O   0  0  0  0  0  0  0  0  0  0  0  0
    1.2574    0.0175   -0.4648 C   0  0  0  0  0  0  0  0  0  0  0  0
    0.1036    0.6934   -0.6966 O   0  0  0  0  0  0  0  0  0  0  0  0
    2.2090    0.1512   -1.4449 N   0  0  0  0  0  0  0  0  0  0  0  0
    3.5351   -0.4090   -1.2580 C   0  0  1  0  0  0  0  0  0  0  0  0
    3.7365   -0.4312   -0.1753 H   0  0  0  0  0  0  0  0  0  0  0  0
    3.6422   -1.8706   -1.7604 C   0  0  0  0  0  0  0  0  0  0  0  0
    3.7930   -2.0044   -3.1957 N   0  0  0  0  0  0  0  0  0  0  0  0
    2.7252   -1.7300   -4.0913 C   0  0  0  0  0  0  0  0  0  0  0  0
    2.8816   -2.4636   -5.2060 C   0  0  0  0  0  0  0  0  0  0  0  0
    4.0646   -3.2457   -5.0967 N   0  0  0  0  0  0  0  0  0  0  0  0
    4.3594   -3.2721   -3.6628 C   0  0  0  0  0  0  0  0  0  0  0  0
    4.5084    0.5327   -2.0087 C   0  0  0  0  0  0  0  0  0  0  0  0
    4.0358    1.3154   -2.8292 O   0  0  0  0  0  0  0  0  0  0  0  0
    5.8485    0.4468   -1.7685 N   0  0  0  0  0  0  0  0  0  0  0  0
    6.4800   -0.3703   -0.7309 C   0  0  0  0  0  0  0  0  0  0  0  0
    7.2797    0.4372    0.2764 C   0  0  0  0  0  0  0  0  0  0  0  0
    6.6686    1.4448    1.0446 C   0  0  0  0  0  0  0  0  0  0  0  0
    7.3908    2.1674    1.9867 C   0  0  0  0  0  0  0  0  0  0  0  0
    8.7574    1.9015    2.1906 C   0  0  0  0  0  0  0  0  0  0  0  0
    9.3707    2.6555    3.1431 O   0  0  0  0  0  0  0  0  0  0  0  0
   10.7161    2.3967    3.5060 C   0  0  0  0  0  0  0  0  0  0  0  0
   11.7440    2.9449    2.5339 C   0  0  0  0  0  0  0  0  0  0  0  0
   11.4852    4.1096    1.7973 C   0  0  0  0  0  0  0  0  0  0  0  0
   12.4576    4.6381    0.9445 C   0  0  0  0  0  0  0  0  0  0  0  0
   13.7030    4.0136    0.8220 C   0  0  0  0  0  0  0  0  0  0  0  0
   13.9690    2.8530    1.5542 C   0  0  0  0  0  0  0  0  0  0  0  0
   12.9926    2.3206    2.4013 C   0  0  0  0  0  0  0  0  0  0  0  0
    9.3839    0.9063    1.4287 C   0  0  0  0  0  0  0  0  0  0  0  0
    8.6394    0.1887    0.4839 C   0  0  0  0  0  0  0  0  0  0  0  0
    6.7607    1.1943   -2.6454 C   0  0  0  0  0  0  0  0  0  0  0  0
    7.5183    0.3061   -3.6163 C   0  0  0  0  0  0  0  0  0  0  0  0
    6.8405   -0.6212   -4.4186 C   0  0  0  0  0  0  0  0  0  0  0  0
    7.5184   -1.4279   -5.3378 C   0  0  0  0  0  0  0  0  0  0  0  0
    8.9104   -1.3070   -5.4762 C   0  0  0  0  0  0  0  0  0  0  0  0
    9.6652   -2.0388   -6.3397 O   0  0  0  0  0  0  0  0  0  0  0  0
    9.0353   -2.9636   -7.2012 C   0  0  0  0  0  0  0  0  0  0  0  0
   10.0604   -3.6180   -8.0995 C   0  0  0  0  0  0  0  0  0  0  0  0
    9.7487   -4.8326   -8.7289 C   0  0  0  0  0  0  0  0  0  0  0  0
   10.6569   -5.4373   -9.6008 C   0  0  0  0  0  0  0  0  0  0  0  0
   11.8957   -4.8373   -9.8488 C   0  0  0  0  0  0  0  0  0  0  0  0
   12.2153   -3.6311   -9.2197 C   0  0  0  0  0  0  0  0  0  0  0  0
   11.3034   -3.0226   -8.3516 C   0  0  0  0  0  0  0  0  0  0  0  0
    9.6025   -0.3819   -4.6775 C   0  0  0  0  0  0  0  0  0  0  0  0
    8.9117    0.4067   -3.7597 C   0  0  0  0  0  0  0  0  0  0  0  0
    0.1142    1.1127   -1.5684 H   0  0  0  0  0  0  0  0  0  0  0  0
    2.2047    0.9189   -2.1179 H   0  0  0  0  0  0  0  0  0  0  0  0
    2.7634   -2.4205   -1.3642 H   0  0  0  0  0  0  0  0  0  0  0  0
    4.5297   -2.3323   -1.3014 H   0  0  0  0  0  0  0  0  0  0  0  0
    2.0123   -0.9383   -3.8837 H   0  0  0  0  0  0  0  0  0  0  0  0
    2.3229   -2.4149   -6.1386 H   0  0  0  0  0  0  0  0  0  0  0  0
    4.0051   -4.1710   -5.5136 H   0  0  0  0  0  0  0  0  0  0  0  0
    5.4420   -3.3316   -3.4589 H   0  0  0  0  0  0  0  0  0  0  0  0
    3.8564   -4.1369   -3.1507 H   0  0  0  0  0  0  0  0  0  0  0  0
    7.1416   -1.1117   -1.2102 H   0  0  0  0  0  0  0  0  0  0  0  0
    5.7039   -0.9341   -0.2006 H   0  0  0  0  0  0  0  0  0  0  0  0
    5.6075    1.6686    0.9027 H   0  0  0  0  0  0  0  0  0  0  0  0
    6.9184    2.9449    2.5904 H   0  0  0  0  0  0  0  0  0  0  0  0
   10.8759    1.3158    3.6698 H   0  0  0  0  0  0  0  0  0  0  0  0
   10.8345    2.8912    4.4843 H   0  0  0  0  0  0  0  0  0  0  0  0
   10.5121    4.5966    1.8926 H   0  0  0  0  0  0  0  0  0  0  0  0
   12.2419    5.5445    0.3726 H   0  0  0  0  0  0  0  0  0  0  0  0
   14.4628    4.4284    0.1549 H   0  0  0  0  0  0  0  0  0  0  0  0
   14.9376    2.3550    1.4607 H   0  0  0  0  0  0  0  0  0  0  0  0
   13.2050    1.4069    2.9654 H   0  0  0  0  0  0  0  0  0  0  0  0
   10.4469    0.6958    1.5422 H   0  0  0  0  0  0  0  0  0  0  0  0
    9.1430   -0.5801   -0.1095 H   0  0  0  0  0  0  0  0  0  0  0  0
    7.4696    1.7585   -2.0204 H   0  0  0  0  0  0  0  0  0  0  0  0
    6.1396    1.9186   -3.1890 H   0  0  0  0  0  0  0  0  0  0  0  0
    5.7580   -0.7365   -4.3239 H   0  0  0  0  0  0  0  0  0  0  0  0
    6.9392   -2.1391   -5.9277 H   0  0  0  0  0  0  0  0  0  0  0  0
    8.2732   -2.4452   -7.8172 H   0  0  0  0  0  0  0  0  0  0  0  0
    8.5007   -3.7364   -6.6166 H   0  0  0  0  0  0  0  0  0  0  0  0
    8.7851   -5.3132   -8.5330 H   0  0  0  0  0  0  0  0  0  0  0  0
   10.3993   -6.3840  -10.0828 H   0  0  0  0  0  0  0  0  0  0  0  0
   12.6100   -5.3112  -10.5270 H   0  0  0  0  0  0  0  0  0  0  0  0
   13.1833   -3.1578   -9.4048 H   0  0  0  0  0  0  0  0  0  0  0  0
   11.5531   -2.0836   -7.8559 H   0  0  0  0  0  0  0  0  0  0  0  0
   10.6859   -0.3035   -4.7896 H   0  0  0  0  0  0  0  0  0  0  0  0
    9.4692    1.1179   -3.1426 H   0  0  0  0  0  0  0  0  0  0  0  0
  1  2  2  0
  2  3  1  0
  2  4  1  0
  3 46  1  0
  4  5  1  0
  4 47  1  0
  5  6  1  1
  5  7  1  0
  5 13  1  0
  7  8  1  0
  7 48  1  0
  7 49  1  0
  8  9  1  0
  8 12  1  0
  9 10  2  0
  9 50  1  0
 10 11  1  0
 10 51  1  0
 11 12  1  0
 11 52  1  0
 12 53  1  0
 12 54  1  0
 13 14  2  0
 13 15  1  0
 15 16  1  0
 15 31  1  0
 16 17  1  0
 16 55  1  0
 16 56  1  0
 17 18  2  0
 17 30  1  0
 18 19  1  0
 18 57  1  0
 19 20  2  0
 19 58  1  0
 20 21  1  0
 20 29  1  0
 21 22  1  0
 22 23  1  0
 22 59  1  0
 22 60  1  0
 23 24  2  0
 23 28  1  0
 24 25  1  0
 24 61  1  0
 25 26  2  0
 25 62  1  0
 26 27  1  0
 26 63  1  0
 27 28  2  0
 27 64  1  0
 28 65  1  0
 29 30  2  0
 29 66  1  0
 30 67  1  0
 31 32  1  0
 31 68  1  0
 31 69  1  0
 32 33  2  0
 32 45  1  0
 33 34  1  0
 33 70  1  0
 34 35  2  0
 34 71  1  0
 35 36  1  0
 35 44  1  0
 36 37  1  0
 37 38  1  0
 37 72  1  0
 37 73  1  0
 38 39  2  0
 38 43  1  0
 39 40  1  0
 39 74  1  0
 40 41  2  0
 40 75  1  0
 41 42  1  0
 41 76  1  0
 42 43  2  0
 42 77  1  0
 43 78  1  0
 44 45  2  0
 44 79  1  0
 45 80  1  0
M  END

