
     RDKit          3D

 42 43  0  0  0  0  0  0  0  0999 V2000
    0.7712    0.6255   -1.4193 C   0  0  0  0  0  0  0  0  0  0  0  0
    2.1561    0.3782   -2.0181 C   0  0  0  0  0  0  0  0  0  0  0  0
    3.1862   -0.0253   -0.9571 C   0  0  0  0  0  0  0  0  0  0  0  0
    4.5250   -0.2502   -1.5199 N   0  0  0  0  0  0  0  0  0  0  0  0
    4.7390   -1.4418   -2.1507 C   0  0  0  0  0  0  0  0  0  0  0  0
    3.9336   -2.3612   -2.1055 O   0  0  0  0  0  0  0  0  0  0  0  0
    6.0052   -1.6056   -3.0252 C   0  0  2  0  0  0  0  0  0  0  0  0
    5.5168   -2.0692   -4.4141 C   0  0  0  0  0  0  0  0  0  0  0  0
    6.8799   -2.7158   -2.4139 C   0  0  1  0  0  0  0  0  0  0  0  0
    8.2732   -2.9924   -2.9138 C   0  0  0  0  0  0  0  0  0  0  0  0
    8.0621   -2.4564   -1.5197 C   0  0  0  0  0  0  0  0  0  0  0  0
    6.7157   -0.3406   -3.1928 N   0  0  0  0  0  0  0  0  0  0  0  0
    6.4867    0.8438   -2.5582 C   0  0  0  0  0  0  0  0  0  0  0  0
    7.0295    1.8811   -2.8997 O   0  0  0  0  0  0  0  0  0  0  0  0
    5.5499    0.7843   -1.3509 C   0  0  2  0  0  0  0  0  0  0  0  0
    6.3842    0.6581   -0.0297 C   0  0  1  0  0  0  0  0  0  0  0  0
    7.2321    1.9149    0.2108 C   0  0  0  0  0  0  0  0  0  0  0  0
    5.5315    0.3490    1.2072 C   0  0  0  0  0  0  0  0  0  0  0  0
    0.0454    0.9098   -2.1970 H   0  0  0  0  0  0  0  0  0  0  0  0
    0.7905    1.4367   -0.6717 H   0  0  0  0  0  0  0  0  0  0  0  0
    0.3844   -0.2775   -0.9186 H   0  0  0  0  0  0  0  0  0  0  0  0
    2.5095    1.2851   -2.5403 H   0  0  0  0  0  0  0  0  0  0  0  0
    2.1003   -0.4233   -2.7722 H   0  0  0  0  0  0  0  0  0  0  0  0
    2.8606   -0.9498   -0.4574 H   0  0  0  0  0  0  0  0  0  0  0  0
    3.2620    0.7589   -0.1923 H   0  0  0  0  0  0  0  0  0  0  0  0
    4.9627   -3.0114   -4.3193 H   0  0  0  0  0  0  0  0  0  0  0  0
    6.3789   -2.2269   -5.0812 H   0  0  0  0  0  0  0  0  0  0  0  0
    4.8532   -1.3157   -4.8655 H   0  0  0  0  0  0  0  0  0  0  0  0
    6.2739   -3.5939   -2.1720 H   0  0  0  0  0  0  0  0  0  0  0  0
    8.7110   -2.3064   -3.6462 H   0  0  0  0  0  0  0  0  0  0  0  0
    8.5790   -4.0340   -3.0454 H   0  0  0  0  0  0  0  0  0  0  0  0
    8.3616   -1.4196   -1.3491 H   0  0  0  0  0  0  0  0  0  0  0  0
    8.2187   -3.1205   -0.6651 H   0  0  0  0  0  0  0  0  0  0  0  0
    7.3212   -0.2525   -4.0054 H   0  0  0  0  0  0  0  0  0  0  0  0
    5.0375    1.7589   -1.3409 H   0  0  0  0  0  0  0  0  0  0  0  0
    7.0634   -0.1995   -0.1728 H   0  0  0  0  0  0  0  0  0  0  0  0
    6.5852    2.7873    0.4066 H   0  0  0  0  0  0  0  0  0  0  0  0
    7.8652    2.1644   -0.6508 H   0  0  0  0  0  0  0  0  0  0  0  0
    7.8766    1.7754    1.0933 H   0  0  0  0  0  0  0  0  0  0  0  0
    4.8329    1.1709    1.4367 H   0  0  0  0  0  0  0  0  0  0  0  0
    6.1875    0.2275    2.0839 H   0  0  0  0  0  0  0  0  0  0  0  0
    4.9523   -0.5793    1.0988 H   0  0  0  0  0  0  0  0  0  0  0  0
  1  2  1  0
  1 19  1  0
  1 20  1  0
  1 21  1  0
  2  3  1  0
  2 22  1  0
  2 23  1  0
  3  4  1  0
  3 24  1  0
  3 25  1  0
  4  5  1  0
  4 15  1  0
  5  6  2  0
  5  7  1  0
  7  8  1  6
  7  9  1  0
  7 12  1  0
  8 26  1  0
  8 27  1  0
  8 28  1  0
  9 10  1  0
  9 11  1  0
  9 29  1  1
 10 11  1  0
 10 30  1  0
 10 31  1  0
 11 32  1  0
 11 33  1  0
 12 13  1  0
 12 34  1  0
 13 14  2  0
 13 15  1  0
 15 16  1  0
 15 35  1  1
 16 17  1  0
 16 18  1  0
 16 36  1  6
 17 37  1  0
 17 38  1  0
 17 39  1  0
 18 40  1  0
 18 41  1  0
 18 42  1  0
M  END

