
     RDKit          3D

 59 61  0  0  0  0  0  0  0  0999 V2000
    5.3030    2.1462   -3.4787 C   0  0  0  0  0  0  0  0  0  0  0  0
    5.5506    1.4781   -2.2730 O   0  0  0  0  0  0  0  0  0  0  0  0
    5.7549    2.3359   -1.1780 C   0  0  0  0  0  0  0  0  0  0  0  0
    6.0172    1.4967    0.0635 C   0  0  0  0  0  0  0  0  0  0  0  0
    6.2538    2.3413    1.3050 C   0  0  0  0  0  0  0  0  0  0  0  0
    6.4937    1.4735    2.4018 O   0  0  0  0  0  0  0  0  0  0  0  0
    6.6310    2.0949    3.6317 C   0  0  2  0  0  0  0  0  0  0  0  0
    7.8163    2.8875    3.5861 O   0  0  0  0  0  0  0  0  0  0  0  0
    8.2691    3.2937    4.8464 C   0  0  2  0  0  0  0  0  0  0  0  0
    9.1552    4.3417    4.5625 O   0  0  0  0  0  0  0  0  0  0  0  0
    9.7524    5.0834    5.6246 C   0  0  1  0  0  0  0  0  0  0  0  0
    9.8760    6.5128    5.1046 C   0  0  0  0  0  0  0  0  0  0  0  0
    8.9523    5.0544    6.7981 O   0  0  0  0  0  0  0  0  0  0  0  0
   11.1129    4.4793    5.9769 C   0  0  0  0  0  0  0  0  0  0  0  0
   11.0706    3.0729    6.5828 C   0  0  0  0  0  0  0  0  0  0  0  0
   10.3599    1.9184    5.8407 C   0  0  2  0  0  0  0  0  0  0  0  0
   11.1004    1.3289    4.6109 C   0  0  2  0  0  0  0  0  0  0  0  0
   11.2150    2.2030    3.3513 C   0  0  0  0  0  0  0  0  0  0  0  0
   10.4572   -0.0350    4.2977 C   0  0  0  0  0  0  0  0  0  0  0  0
    8.9606    0.0875    4.0088 C   0  0  0  0  0  0  0  0  0  0  0  0
    8.1741    0.7708    5.1449 C   0  0  2  0  0  0  0  0  0  0  0  0
    6.7002    1.0567    4.7784 C   0  0  2  0  0  0  0  0  0  0  0  0
    5.8524   -0.1866    4.5026 C   0  0  0  0  0  0  0  0  0  0  0  0
    8.8147    2.0836    5.6969 C   0  0  2  0  0  0  0  0  0  0  0  0
    8.2744    2.2324    7.0145 O   0  0  0  0  0  0  0  0  0  0  0  0
    5.1596    1.3877   -4.2624 H   0  0  0  0  0  0  0  0  0  0  0  0
    6.1482    2.8019   -3.7748 H   0  0  0  0  0  0  0  0  0  0  0  0
    4.3904    2.7760   -3.4282 H   0  0  0  0  0  0  0  0  0  0  0  0
    4.8664    2.9880   -1.0251 H   0  0  0  0  0  0  0  0  0  0  0  0
    6.6126    3.0169   -1.3721 H   0  0  0  0  0  0  0  0  0  0  0  0
    6.8965    0.8567   -0.1152 H   0  0  0  0  0  0  0  0  0  0  0  0
    5.1613    0.8231    0.2326 H   0  0  0  0  0  0  0  0  0  0  0  0
    5.3694    2.9759    1.5231 H   0  0  0  0  0  0  0  0  0  0  0  0
    7.1135    3.0203    1.1643 H   0  0  0  0  0  0  0  0  0  0  0  0
    5.7699    2.7857    3.7964 H   0  0  0  0  0  0  0  0  0  0  0  0
    7.4058    3.6858    5.4246 H   0  0  0  0  0  0  0  0  0  0  0  0
    8.8758    6.9089    4.8637 H   0  0  0  0  0  0  0  0  0  0  0  0
   10.4701    6.5311    4.1803 H   0  0  0  0  0  0  0  0  0  0  0  0
   10.3541    7.1599    5.8542 H   0  0  0  0  0  0  0  0  0  0  0  0
    8.1879    5.6335    6.6673 H   0  0  0  0  0  0  0  0  0  0  0  0
   11.6084    5.1538    6.6951 H   0  0  0  0  0  0  0  0  0  0  0  0
   11.7139    4.4980    5.0569 H   0  0  0  0  0  0  0  0  0  0  0  0
   10.6206    3.1462    7.5855 H   0  0  0  0  0  0  0  0  0  0  0  0
   12.1128    2.7548    6.7568 H   0  0  0  0  0  0  0  0  0  0  0  0
   10.4065    1.0996    6.5804 H   0  0  0  0  0  0  0  0  0  0  0  0
   12.1324    1.1298    4.9554 H   0  0  0  0  0  0  0  0  0  0  0  0
   10.2386    2.5315    2.9709 H   0  0  0  0  0  0  0  0  0  0  0  0
   11.7198    1.6336    2.5528 H   0  0  0  0  0  0  0  0  0  0  0  0
   11.8165    3.1057    3.5304 H   0  0  0  0  0  0  0  0  0  0  0  0
   10.6132   -0.7085    5.1596 H   0  0  0  0  0  0  0  0  0  0  0  0
   10.9655   -0.5058    3.4389 H   0  0  0  0  0  0  0  0  0  0  0  0
    8.5356   -0.9167    3.8467 H   0  0  0  0  0  0  0  0  0  0  0  0
    8.8078    0.6326    3.0673 H   0  0  0  0  0  0  0  0  0  0  0  0
    8.1701    0.0939    6.0167 H   0  0  0  0  0  0  0  0  0  0  0  0
    6.2715    1.5525    5.6642 H   0  0  0  0  0  0  0  0  0  0  0  0
    4.7979    0.0842    4.3320 H   0  0  0  0  0  0  0  0  0  0  0  0
    5.8865   -0.8673    5.3684 H   0  0  0  0  0  0  0  0  0  0  0  0
    6.1958   -0.7322    3.6134 H   0  0  0  0  0  0  0  0  0  0  0  0
    8.4504    3.1466    7.2922 H   0  0  0  0  0  0  0  0  0  0  0  0
  1  2  1  0
  1 26  1  0
  1 27  1  0
  1 28  1  0
  2  3  1  0
  3  4  1  0
  3 29  1  0
  3 30  1  0
  4  5  1  0
  4 31  1  0
  4 32  1  0
  5  6  1  0
  5 33  1  0
  5 34  1  0
  6  7  1  0
  7  8  1  0
  7 22  1  0
  7 35  1  1
  8  9  1  0
  9 10  1  0
  9 24  1  0
  9 36  1  1
 10 11  1  0
 11 12  1  0
 11 13  1  1
 11 14  1  0
 12 37  1  0
 12 38  1  0
 12 39  1  0
 13 40  1  0
 14 15  1  0
 14 41  1  0
 14 42  1  0
 15 16  1  0
 15 43  1  0
 15 44  1  0
 16 17  1  0
 16 24  1  0
 16 45  1  1
 17 18  1  0
 17 19  1  0
 17 46  1  1
 18 47  1  0
 18 48  1  0
 18 49  1  0
 19 20  1  0
 19 50  1  0
 19 51  1  0
 20 21  1  0
 20 52  1  0
 20 53  1  0
 21 22  1  0
 21 24  1  0
 21 54  1  1
 22 23  1  0
 22 55  1  1
 23 56  1  0
 23 57  1  0
 23 58  1  0
 24 25  1  1
 25 59  1  0
M  END

