
     RDKit          3D

 63 62  0  0  0  0  0  0  0  0999 V2000
    0.6992    0.2302   -0.1255 C   0  0  0  0  0  0  0  0  0  0  0  0
    2.2280    0.2054   -0.0952 C   0  0  0  0  0  0  0  0  0  0  0  0
    2.8079   -0.9890    0.6690 C   0  0  0  0  0  0  0  0  0  0  0  0
    4.3385   -1.0215    0.7040 C   0  0  0  0  0  0  0  0  0  0  0  0
    4.9179   -2.2157    1.4683 C   0  0  0  0  0  0  0  0  0  0  0  0
    6.4487   -2.2480    1.5026 C   0  0  0  0  0  0  0  0  0  0  0  0
    7.0281   -3.4420    2.2670 C   0  0  0  0  0  0  0  0  0  0  0  0
    8.5590   -3.4747    2.3007 C   0  0  0  0  0  0  0  0  0  0  0  0
    9.1386   -4.6685    3.0654 C   0  0  0  0  0  0  0  0  0  0  0  0
   10.6695   -4.7015    3.0980 C   0  0  0  0  0  0  0  0  0  0  0  0
   11.2492   -5.8949    3.8632 C   0  0  0  0  0  0  0  0  0  0  0  0
   12.7801   -5.9284    3.8944 C   0  0  0  0  0  0  0  0  0  0  0  0
   13.3599   -7.1212    4.6604 C   0  0  0  0  0  0  0  0  0  0  0  0
   14.8907   -7.1549    4.6892 C   0  0  0  0  0  0  0  0  0  0  0  0
   15.4708   -8.3460    5.4575 C   0  0  0  0  0  0  0  0  0  0  0  0
   17.0015   -8.3765    5.4757 C   0  0  0  0  0  0  0  0  0  0  0  0
   17.5703   -9.5596    6.2553 C   0  0  0  0  0  0  0  0  0  0  0  0
   19.0824   -9.6513    6.2416 C   0  0  0  0  0  0  0  0  0  0  0  0
   19.7845   -8.9709    5.5299 O   0  0  0  0  0  0  0  0  0  0  0  0
   19.7116  -10.6855    7.2104 C   0  0  1  0  0  0  0  0  0  0  0  0
   21.1288  -11.0692    6.7941 C   0  0  0  0  0  0  0  0  0  0  0  0
   19.6729  -10.1007    8.6238 C   0  0  0  0  0  0  0  0  0  0  0  0
   18.6723   -9.9584    9.2792 O   0  0  0  0  0  0  0  0  0  0  0  0
    0.3180    1.1012   -0.6824 H   0  0  0  0  0  0  0  0  0  0  0  0
    0.2785    0.2771    0.8932 H   0  0  0  0  0  0  0  0  0  0  0  0
    0.2928   -0.6756   -0.6064 H   0  0  0  0  0  0  0  0  0  0  0  0
    2.6033    1.1417    0.3570 H   0  0  0  0  0  0  0  0  0  0  0  0
    2.6174    0.1972   -1.1298 H   0  0  0  0  0  0  0  0  0  0  0  0
    2.4330   -1.9266    0.2172 H   0  0  0  0  0  0  0  0  0  0  0  0
    2.4190   -0.9816    1.7047 H   0  0  0  0  0  0  0  0  0  0  0  0
    4.7128   -0.0837    1.1556 H   0  0  0  0  0  0  0  0  0  0  0  0
    4.7267   -1.0287   -0.3317 H   0  0  0  0  0  0  0  0  0  0  0  0
    4.5436   -3.1536    1.0170 H   0  0  0  0  0  0  0  0  0  0  0  0
    4.5301   -2.2085    2.5041 H   0  0  0  0  0  0  0  0  0  0  0  0
    6.8231   -1.3100    1.9537 H   0  0  0  0  0  0  0  0  0  0  0  0
    6.8365   -2.2554    0.4668 H   0  0  0  0  0  0  0  0  0  0  0  0
    6.6534   -4.3800    1.8163 H   0  0  0  0  0  0  0  0  0  0  0  0
    6.6408   -3.4344    3.3030 H   0  0  0  0  0  0  0  0  0  0  0  0
    8.9338   -2.5366    2.7511 H   0  0  0  0  0  0  0  0  0  0  0  0
    8.9463   -3.4827    1.2647 H   0  0  0  0  0  0  0  0  0  0  0  0
    8.7632   -5.6066    2.6154 H   0  0  0  0  0  0  0  0  0  0  0  0
    8.7519   -4.6601    4.1016 H   0  0  0  0  0  0  0  0  0  0  0  0
   11.0449   -3.7632    3.5475 H   0  0  0  0  0  0  0  0  0  0  0  0
   11.0561   -4.7104    2.0617 H   0  0  0  0  0  0  0  0  0  0  0  0
   10.8731   -6.8333    3.4143 H   0  0  0  0  0  0  0  0  0  0  0  0
   10.8635   -5.8855    4.8998 H   0  0  0  0  0  0  0  0  0  0  0  0
   13.1563   -4.9899    4.3426 H   0  0  0  0  0  0  0  0  0  0  0  0
   13.1658   -5.9386    2.8578 H   0  0  0  0  0  0  0  0  0  0  0  0
   12.9826   -8.0599    4.2131 H   0  0  0  0  0  0  0  0  0  0  0  0
   12.9757   -7.1102    5.6975 H   0  0  0  0  0  0  0  0  0  0  0  0
   15.2685   -6.2161    5.1349 H   0  0  0  0  0  0  0  0  0  0  0  0
   15.2758   -7.1684    3.6526 H   0  0  0  0  0  0  0  0  0  0  0  0
   15.0902   -9.2857    5.0146 H   0  0  0  0  0  0  0  0  0  0  0  0
   15.0907   -8.3311    6.4960 H   0  0  0  0  0  0  0  0  0  0  0  0
   17.3884   -7.4391    5.9118 H   0  0  0  0  0  0  0  0  0  0  0  0
   17.3926   -8.4026    4.4447 H   0  0  0  0  0  0  0  0  0  0  0  0
   17.1957  -10.5182    5.8451 H   0  0  0  0  0  0  0  0  0  0  0  0
   17.2405   -9.5622    7.3096 H   0  0  0  0  0  0  0  0  0  0  0  0
   19.0365  -11.5583    7.2332 H   0  0  0  0  0  0  0  0  0  0  0  0
   21.7644  -10.1740    6.7262 H   0  0  0  0  0  0  0  0  0  0  0  0
   21.1321  -11.5462    5.8033 H   0  0  0  0  0  0  0  0  0  0  0  0
   21.5788  -11.7699    7.5147 H   0  0  0  0  0  0  0  0  0  0  0  0
   20.6728   -9.7848    9.0236 H   0  0  0  0  0  0  0  0  0  0  0  0
  1  2  1  0
  1 24  1  0
  1 25  1  0
  1 26  1  0
  2  3  1  0
  2 27  1  0
  2 28  1  0
  3  4  1  0
  3 29  1  0
  3 30  1  0
  4  5  1  0
  4 31  1  0
  4 32  1  0
  5  6  1  0
  5 33  1  0
  5 34  1  0
  6  7  1  0
  6 35  1  0
  6 36  1  0
  7  8  1  0
  7 37  1  0
  7 38  1  0
  8  9  1  0
  8 39  1  0
  8 40  1  0
  9 10  1  0
  9 41  1  0
  9 42  1  0
 10 11  1  0
 10 43  1  0
 10 44  1  0
 11 12  1  0
 11 45  1  0
 11 46  1  0
 12 13  1  0
 12 47  1  0
 12 48  1  0
 13 14  1  0
 13 49  1  0
 13 50  1  0
 14 15  1  0
 14 51  1  0
 14 52  1  0
 15 16  1  0
 15 53  1  0
 15 54  1  0
 16 17  1  0
 16 55  1  0
 16 56  1  0
 17 18  1  0
 17 57  1  0
 17 58  1  0
 18 19  2  0
 18 20  1  0
 20 21  1  0
 20 22  1  0
 20 59  1  1
 21 60  1  0
 21 61  1  0
 21 62  1  0
 22 23  2  0
 22 63  1  0
M  END

