
     RDKit          3D

 44 44  0  0  0  0  0  0  0  0999 V2000
    1.0350   -0.7379    0.6827 C   0  0  0  0  0  0  0  0  0  0  0  0
    2.4846   -0.4653    0.3313 C   0  0  0  0  0  0  0  0  0  0  0  0
    3.0584   -1.6732   -0.1493 O   0  0  0  0  0  0  0  0  0  0  0  0
    4.3662   -1.7015   -0.5103 C   0  0  0  0  0  0  0  0  0  0  0  0
    5.2310   -0.5992   -0.4784 C   0  0  0  0  0  0  0  0  0  0  0  0
    6.5727   -0.7412   -0.8570 C   0  0  0  0  0  0  0  0  0  0  0  0
    7.0652   -1.9776   -1.2708 C   0  0  0  0  0  0  0  0  0  0  0  0
    6.2038   -3.0807   -1.3137 C   0  0  0  0  0  0  0  0  0  0  0  0
    4.8669   -2.9557   -0.9409 C   0  0  0  0  0  0  0  0  0  0  0  0
    4.0632   -4.0678   -0.9341 O   0  0  0  0  0  0  0  0  0  0  0  0
    3.0256   -4.1337   -1.9087 C   0  0  0  0  0  0  0  0  0  0  0  0
    2.0800   -5.2991   -1.6237 C   0  0  0  0  0  0  0  0  0  0  0  0
    1.2529   -5.6320   -2.4581 O   0  0  0  0  0  0  0  0  0  0  0  0
    2.2280   -5.8673   -0.4027 N   0  0  0  0  0  0  0  0  0  0  0  0
    1.4623   -7.0150    0.0413 C   0  0  0  0  0  0  0  0  0  0  0  0
    2.2060   -8.3498   -0.1275 C   0  0  0  0  0  0  0  0  0  0  0  0
    3.6461   -8.3279    0.3996 C   0  0  0  0  0  0  0  0  0  0  0  0
    3.7849   -7.7685    1.7403 N   0  0  0  0  0  0  0  0  0  0  0  0
    3.1805   -8.5873    2.7745 C   0  0  0  0  0  0  0  0  0  0  0  0
    5.1611   -7.4329    2.0570 C   0  0  0  0  0  0  0  0  0  0  0  0
    0.5620    0.1759    1.0743 H   0  0  0  0  0  0  0  0  0  0  0  0
    0.9624   -1.5245    1.4490 H   0  0  0  0  0  0  0  0  0  0  0  0
    0.4715   -1.0677   -0.2035 H   0  0  0  0  0  0  0  0  0  0  0  0
    3.0444   -0.1136    1.2182 H   0  0  0  0  0  0  0  0  0  0  0  0
    2.5608    0.3223   -0.4419 H   0  0  0  0  0  0  0  0  0  0  0  0
    4.8679    0.3753   -0.1515 H   0  0  0  0  0  0  0  0  0  0  0  0
    7.2313    0.1301   -0.8213 H   0  0  0  0  0  0  0  0  0  0  0  0
    8.1118   -2.0891   -1.5627 H   0  0  0  0  0  0  0  0  0  0  0  0
    6.5547   -4.0652   -1.6312 H   0  0  0  0  0  0  0  0  0  0  0  0
    3.4445   -4.2816   -2.9193 H   0  0  0  0  0  0  0  0  0  0  0  0
    2.4269   -3.2085   -1.9153 H   0  0  0  0  0  0  0  0  0  0  0  0
    2.9751   -5.5190    0.1890 H   0  0  0  0  0  0  0  0  0  0  0  0
    0.5295   -7.0338   -0.5407 H   0  0  0  0  0  0  0  0  0  0  0  0
    1.2012   -6.8632    1.1003 H   0  0  0  0  0  0  0  0  0  0  0  0
    2.2447   -8.6155   -1.1971 H   0  0  0  0  0  0  0  0  0  0  0  0
    1.6146   -9.1429    0.3619 H   0  0  0  0  0  0  0  0  0  0  0  0
    4.2482   -7.6989   -0.2759 H   0  0  0  0  0  0  0  0  0  0  0  0
    4.0776   -9.3548    0.3337 H   0  0  0  0  0  0  0  0  0  0  0  0
    2.1123   -8.7546    2.5705 H   0  0  0  0  0  0  0  0  0  0  0  0
    3.2551   -8.0791    3.7491 H   0  0  0  0  0  0  0  0  0  0  0  0
    3.6640   -9.5872    2.8768 H   0  0  0  0  0  0  0  0  0  0  0  0
    5.5656   -6.7366    1.3055 H   0  0  0  0  0  0  0  0  0  0  0  0
    5.8340   -8.3214    2.0942 H   0  0  0  0  0  0  0  0  0  0  0  0
    5.2131   -6.9363    3.0393 H   0  0  0  0  0  0  0  0  0  0  0  0
  1  2  1  0
  1 21  1  0
  1 22  1  0
  1 23  1  0
  2  3  1  0
  2 24  1  0
  2 25  1  0
  3  4  1  0
  4  5  2  0
  4  9  1  0
  5  6  1  0
  5 26  1  0
  6  7  2  0
  6 27  1  0
  7  8  1  0
  7 28  1  0
  8  9  2  0
  8 29  1  0
  9 10  1  0
 10 11  1  0
 11 12  1  0
 11 30  1  0
 11 31  1  0
 12 13  2  0
 12 14  1  0
 14 15  1  0
 14 32  1  0
 15 16  1  0
 15 33  1  0
 15 34  1  0
 16 17  1  0
 16 35  1  0
 16 36  1  0
 17 18  1  0
 17 37  1  0
 17 38  1  0
 18 19  1  0
 18 20  1  0
 19 39  1  0
 19 40  1  0
 19 41  1  0
 20 42  1  0
 20 43  1  0
 20 44  1  0
M  END

