
     RDKit          3D

 31 33  0  0  0  0  0  0  0  0999 V2000
    1.1010   -0.1954    0.8494 C   0  0  0  0  0  0  0  0  0  0  0  0
    2.5334   -0.0237    0.4435 C   0  0  0  0  0  0  0  0  0  0  0  0
    3.4001    1.0682    0.6937 C   0  0  0  0  0  0  0  0  0  0  0  0
    4.6166    0.7185    0.1134 C   0  0  0  0  0  0  0  0  0  0  0  0
    5.8785    1.4782    0.0711 C   0  0  0  0  0  0  0  0  0  0  0  0
    5.8457    2.8692   -0.1579 C   0  0  0  0  0  0  0  0  0  0  0  0
    7.0170    3.6225   -0.1523 C   0  0  0  0  0  0  0  0  0  0  0  0
    8.2547    3.0107    0.0689 C   0  0  0  0  0  0  0  0  0  0  0  0
    8.3060    1.6180    0.2784 C   0  0  0  0  0  0  0  0  0  0  0  0
    7.1266    0.8702    0.2897 C   0  0  0  0  0  0  0  0  0  0  0  0
    9.4924    0.9709    0.4889 O   0  0  0  0  0  0  0  0  0  0  0  0
   10.6427    1.7216    0.1314 C   0  0  0  0  0  0  0  0  0  0  0  0
   10.5220    3.1471    0.6432 C   0  0  0  0  0  0  0  0  0  0  0  0
    9.3843    3.7790    0.0760 O   0  0  0  0  0  0  0  0  0  0  0  0
    4.4172   -0.5197   -0.4443 N   0  0  0  0  0  0  0  0  0  0  0  0
    5.3314   -1.3382   -1.2145 C   0  0  0  0  0  0  0  0  0  0  0  0
    3.1651   -0.9716   -0.2469 N   0  0  0  0  0  0  0  0  0  0  0  0
    0.4653    0.6084    0.4423 H   0  0  0  0  0  0  0  0  0  0  0  0
    0.9859   -0.1781    1.9460 H   0  0  0  0  0  0  0  0  0  0  0  0
    0.7227   -1.1581    0.4778 H   0  0  0  0  0  0  0  0  0  0  0  0
    3.1880    1.9806    1.2465 H   0  0  0  0  0  0  0  0  0  0  0  0
    4.8888    3.3584   -0.3481 H   0  0  0  0  0  0  0  0  0  0  0  0
    6.9998    4.7013   -0.3213 H   0  0  0  0  0  0  0  0  0  0  0  0
    7.2148   -0.1967    0.4982 H   0  0  0  0  0  0  0  0  0  0  0  0
   10.7639    1.7280   -0.9685 H   0  0  0  0  0  0  0  0  0  0  0  0
   11.5097    1.2121    0.5768 H   0  0  0  0  0  0  0  0  0  0  0  0
   11.3984    3.7472    0.3575 H   0  0  0  0  0  0  0  0  0  0  0  0
   10.4413    3.1432    1.7466 H   0  0  0  0  0  0  0  0  0  0  0  0
    6.0393   -0.7033   -1.7633 H   0  0  0  0  0  0  0  0  0  0  0  0
    4.7361   -1.9256   -1.9252 H   0  0  0  0  0  0  0  0  0  0  0  0
    5.8987   -2.0338   -0.5733 H   0  0  0  0  0  0  0  0  0  0  0  0
  1  2  1  0
  1 18  1  0
  1 19  1  0
  1 20  1  0
  2  3  1  0
  2 17  2  0
  3  4  2  0
  3 21  1  0
  4  5  1  0
  4 15  1  0
  5  6  2  0
  5 10  1  0
  6  7  1  0
  6 22  1  0
  7  8  2  0
  7 23  1  0
  8  9  1  0
  8 14  1  0
  9 10  2  0
  9 11  1  0
 10 24  1  0
 11 12  1  0
 12 13  1  0
 12 25  1  0
 12 26  1  0
 13 14  1  0
 13 27  1  0
 13 28  1  0
 15 16  1  0
 15 17  1  0
 16 29  1  0
 16 30  1  0
 16 31  1  0
M  END

