
     RDKit          3D

 44 46  0  0  0  0  0  0  0  0999 V2000
    4.8193   -0.2338    2.1271 O   0  0  0  0  0  0  0  0  0  0  0  0
    4.0570   -0.4745    1.2051 C   0  0  0  0  0  0  0  0  0  0  0  0
    2.6892   -0.4675    1.3347 N   0  0  0  0  0  0  0  0  0  0  0  0
    1.9946   -0.1670    2.5345 C   0  0  0  0  0  0  0  0  0  0  0  0
    1.1247   -1.1114    3.0866 C   0  0  0  0  0  0  0  0  0  0  0  0
    0.3898   -0.8311    4.2414 C   0  0  0  0  0  0  0  0  0  0  0  0
    0.5440    0.4087    4.8601 C   0  0  0  0  0  0  0  0  0  0  0  0
    1.4085    1.3684    4.3234 C   0  0  0  0  0  0  0  0  0  0  0  0
    2.1326    1.1001    3.1522 C   0  0  0  0  0  0  0  0  0  0  0  0
    2.9521    1.9929    2.5439 O   0  0  0  0  0  0  0  0  0  0  0  0
    3.0668    3.2969    3.0900 C   0  0  0  0  0  0  0  0  0  0  0  0
    3.9401    4.1875    2.1974 C   0  0  0  0  0  0  0  0  0  0  0  0
    3.4345    5.1604    1.6576 O   0  0  0  0  0  0  0  0  0  0  0  0
    5.2677    3.8792    2.0855 N   0  0  0  0  0  0  0  0  0  0  0  0
    5.9640    2.8149    2.8086 C   0  0  0  0  0  0  0  0  0  0  0  0
    7.0026    2.1588    1.8971 C   0  0  0  0  0  0  0  0  0  0  0  0
    7.8731    3.1084    1.3155 O   0  0  0  0  0  0  0  0  0  0  0  0
    7.1592    4.0424    0.5322 C   0  0  0  0  0  0  0  0  0  0  0  0
    6.1446    4.8088    1.3738 C   0  0  0  0  0  0  0  0  0  0  0  0
    4.5698   -0.8195   -0.1654 C   0  0  0  0  0  0  0  0  0  0  0  0
    5.8711   -1.3417   -0.2820 C   0  0  0  0  0  0  0  0  0  0  0  0
    6.3723   -1.6569   -1.5373 C   0  0  0  0  0  0  0  0  0  0  0  0
    5.5332   -1.4177   -2.6339 C   0  0  0  0  0  0  0  0  0  0  0  0
    5.9804   -1.7201   -3.8508 F   0  0  0  0  0  0  0  0  0  0  0  0
    4.3263   -0.9089   -2.5620 N   0  0  0  0  0  0  0  0  0  0  0  0
    3.8504   -0.6104   -1.3494 C   0  0  0  0  0  0  0  0  0  0  0  0
    2.1490   -0.9072    0.5986 H   0  0  0  0  0  0  0  0  0  0  0  0
    1.0339   -2.0851    2.5981 H   0  0  0  0  0  0  0  0  0  0  0  0
   -0.2866   -1.5813    4.6562 H   0  0  0  0  0  0  0  0  0  0  0  0
   -0.0145    0.6440    5.7694 H   0  0  0  0  0  0  0  0  0  0  0  0
    1.5010    2.3353    4.8167 H   0  0  0  0  0  0  0  0  0  0  0  0
    3.4827    3.2529    4.1145 H   0  0  0  0  0  0  0  0  0  0  0  0
    2.0845    3.7920    3.1279 H   0  0  0  0  0  0  0  0  0  0  0  0
    5.2597    2.0402    3.1317 H   0  0  0  0  0  0  0  0  0  0  0  0
    6.4754    3.2403    3.6945 H   0  0  0  0  0  0  0  0  0  0  0  0
    6.4774    1.5812    1.1132 H   0  0  0  0  0  0  0  0  0  0  0  0
    7.6200    1.4590    2.4791 H   0  0  0  0  0  0  0  0  0  0  0  0
    6.6373    3.5271   -0.3010 H   0  0  0  0  0  0  0  0  0  0  0  0
    7.8959    4.7367    0.1002 H   0  0  0  0  0  0  0  0  0  0  0  0
    5.5171    5.4661    0.7584 H   0  0  0  0  0  0  0  0  0  0  0  0
    6.6843    5.4375    2.1083 H   0  0  0  0  0  0  0  0  0  0  0  0
    6.4642   -1.4889    0.6229 H   0  0  0  0  0  0  0  0  0  0  0  0
    7.3704   -2.0709   -1.6872 H   0  0  0  0  0  0  0  0  0  0  0  0
    2.8541   -0.1539   -1.3275 H   0  0  0  0  0  0  0  0  0  0  0  0
  1  2  2  0
  2  3  1  0
  2 20  1  0
  3  4  1  0
  3 27  1  0
  4  5  2  0
  4  9  1  0
  5  6  1  0
  5 28  1  0
  6  7  2  0
  6 29  1  0
  7  8  1  0
  7 30  1  0
  8  9  2  0
  8 31  1  0
  9 10  1  0
 10 11  1  0
 11 12  1  0
 11 32  1  0
 11 33  1  0
 12 13  2  0
 12 14  1  0
 14 15  1  0
 14 19  1  0
 15 16  1  0
 15 34  1  0
 15 35  1  0
 16 17  1  0
 16 36  1  0
 16 37  1  0
 17 18  1  0
 18 19  1  0
 18 38  1  0
 18 39  1  0
 19 40  1  0
 19 41  1  0
 20 21  2  0
 20 26  1  0
 21 22  1  0
 21 42  1  0
 22 23  2  0
 22 43  1  0
 23 24  1  0
 23 25  1  0
 25 26  2  0
 26 44  1  0
M  END

