
     RDKit          3D

 26 26  0  0  0  0  0  0  0  0999 V2000
    2.8097   -1.4349    1.9018 C   0  0  0  0  0  0  0  0  0  0  0  0
    2.6954   -0.1042    2.4776 N   0  0  0  0  0  0  0  0  0  0  0  0
    3.1121    1.2646    1.6288 S   0  0  1  0  0  0  0  0  0  0  0  0
    2.6275    1.0766    0.2628 O   0  0  0  0  0  0  0  0  0  0  0  0
    2.7206    2.3878    2.4768 O   0  0  0  0  0  0  0  0  0  0  0  0
    4.9177    1.2858    1.5401 C   0  0  0  0  0  0  0  0  0  0  0  0
    5.5683    0.6637    0.4682 C   0  0  0  0  0  0  0  0  0  0  0  0
    6.9599    0.6557    0.4158 C   0  0  0  0  0  0  0  0  0  0  0  0
    7.7208    1.2809    1.4304 C   0  0  0  0  0  0  0  0  0  0  0  0
    9.1766    1.3303    1.4711 C   0  0  0  0  0  0  0  0  0  0  0  0
   10.1233    0.7825    0.6489 C   0  0  0  0  0  0  0  0  0  0  0  0
    9.8531   -0.0185   -0.5111 C   0  0  0  0  0  0  0  0  0  0  0  0
    9.6526   -0.6718   -1.4502 N   0  0  0  0  0  0  0  0  0  0  0  0
   11.5159    0.9974    0.9384 C   0  0  0  0  0  0  0  0  0  0  0  0
   12.6381    1.1732    1.1784 N   0  0  0  0  0  0  0  0  0  0  0  0
    7.0331    1.9215    2.4882 C   0  0  0  0  0  0  0  0  0  0  0  0
    5.6431    1.9284    2.5485 C   0  0  0  0  0  0  0  0  0  0  0  0
    2.1731   -2.1242    2.4762 H   0  0  0  0  0  0  0  0  0  0  0  0
    3.8426   -1.8311    1.8962 H   0  0  0  0  0  0  0  0  0  0  0  0
    2.4318   -1.4060    0.8709 H   0  0  0  0  0  0  0  0  0  0  0  0
    2.8359    0.0026    3.4793 H   0  0  0  0  0  0  0  0  0  0  0  0
    4.9802    0.2089   -0.3306 H   0  0  0  0  0  0  0  0  0  0  0  0
    7.4488    0.1688   -0.4267 H   0  0  0  0  0  0  0  0  0  0  0  0
    9.5860    1.9018    2.3088 H   0  0  0  0  0  0  0  0  0  0  0  0
    7.6061    2.4269    3.2697 H   0  0  0  0  0  0  0  0  0  0  0  0
    5.1149    2.4423    3.3535 H   0  0  0  0  0  0  0  0  0  0  0  0
  1  2  1  0
  1 18  1  0
  1 19  1  0
  1 20  1  0
  3  2  1  1
  2 21  1  0
  3  4  2  0
  3  5  2  0
  3  6  1  0
  6  7  2  0
  6 17  1  0
  7  8  1  0
  7 22  1  0
  8  9  2  0
  8 23  1  0
  9 10  1  0
  9 16  1  0
 10 11  2  0
 10 24  1  0
 11 12  1  0
 11 14  1  0
 12 13  3  0
 14 15  3  0
 16 17  2  0
 16 25  1  0
 17 26  1  0
M  END

