
     RDKit          3D

 44 44  0  0  0  0  0  0  0  0999 V2000
    5.1439   -0.8059    0.3689 C   0  0  0  0  0  0  0  0  0  0  0  0
    4.4561   -0.6259   -0.9872 C   0  0  0  0  0  0  0  0  0  0  0  0
    2.9294   -0.8938   -1.0594 C   0  0  1  0  0  0  0  0  0  0  0  0
    2.1466   -0.2024    0.0961 C   0  0  0  0  0  0  0  0  0  0  0  0
    2.2430    1.3250    0.1550 C   0  0  0  0  0  0  0  0  0  0  0  0
    2.4425   -0.3919   -2.4483 C   0  0  0  0  0  0  0  0  0  0  0  0
    0.9981   -0.5486   -2.6500 N   0  0  0  0  0  0  0  0  0  0  0  0
    0.5602   -0.4737   -4.0540 C   0  0  0  0  0  0  0  0  0  0  0  0
   -0.9480   -0.5189   -4.1669 C   0  0  0  0  0  0  0  0  0  0  0  0
   -1.5953   -1.7613   -4.1559 C   0  0  0  0  0  0  0  0  0  0  0  0
   -2.9860   -1.8603   -4.2216 C   0  0  0  0  0  0  0  0  0  0  0  0
   -3.7767   -0.7069   -4.2989 C   0  0  0  0  0  0  0  0  0  0  0  0
   -5.2827   -0.7827   -4.3685 C   0  0  0  0  0  0  0  0  0  0  0  0
   -3.1238    0.5356   -4.3064 C   0  0  0  0  0  0  0  0  0  0  0  0
   -1.7293    0.6579   -4.2398 C   0  0  0  0  0  0  0  0  0  0  0  0
   -1.0987    2.0332   -4.2629 C   0  0  0  0  0  0  0  0  0  0  0  0
    2.6529   -2.4212   -0.9381 C   0  0  0  0  0  0  0  0  0  0  0  0
    3.4393   -3.2009   -0.4580 O   0  0  0  0  0  0  0  0  0  0  0  0
    1.4557   -2.8219   -1.3739 O   0  0  0  0  0  0  0  0  0  0  0  0
    6.2284   -0.6420    0.2619 H   0  0  0  0  0  0  0  0  0  0  0  0
    4.9881   -1.8218    0.7540 H   0  0  0  0  0  0  0  0  0  0  0  0
    4.7829   -0.0857    1.1206 H   0  0  0  0  0  0  0  0  0  0  0  0
    4.9432   -1.2895   -1.7210 H   0  0  0  0  0  0  0  0  0  0  0  0
    4.6378    0.4029   -1.3457 H   0  0  0  0  0  0  0  0  0  0  0  0
    2.5045   -0.6261    1.0476 H   0  0  0  0  0  0  0  0  0  0  0  0
    1.0863   -0.5003    0.0351 H   0  0  0  0  0  0  0  0  0  0  0  0
    3.2818    1.6714    0.2679 H   0  0  0  0  0  0  0  0  0  0  0  0
    1.6738    1.7100    1.0159 H   0  0  0  0  0  0  0  0  0  0  0  0
    1.8323    1.8109   -0.7459 H   0  0  0  0  0  0  0  0  0  0  0  0
    2.9507   -0.9819   -3.2295 H   0  0  0  0  0  0  0  0  0  0  0  0
    2.7696    0.6553   -2.5974 H   0  0  0  0  0  0  0  0  0  0  0  0
    0.4818    0.1356   -2.0967 H   0  0  0  0  0  0  0  0  0  0  0  0
    0.9972   -1.3386   -4.5797 H   0  0  0  0  0  0  0  0  0  0  0  0
    0.9633    0.4294   -4.5504 H   0  0  0  0  0  0  0  0  0  0  0  0
   -0.9940   -2.6732   -4.0945 H   0  0  0  0  0  0  0  0  0  0  0  0
   -3.4600   -2.8457   -4.2139 H   0  0  0  0  0  0  0  0  0  0  0  0
   -5.6344   -1.8244   -4.3970 H   0  0  0  0  0  0  0  0  0  0  0  0
   -5.6693   -0.2708   -5.2654 H   0  0  0  0  0  0  0  0  0  0  0  0
   -5.7482   -0.2950   -3.4954 H   0  0  0  0  0  0  0  0  0  0  0  0
   -3.7264    1.4477   -4.3669 H   0  0  0  0  0  0  0  0  0  0  0  0
   -1.8669    2.8189   -4.2282 H   0  0  0  0  0  0  0  0  0  0  0  0
   -0.5029    2.1945   -5.1774 H   0  0  0  0  0  0  0  0  0  0  0  0
   -0.4207    2.1989   -3.4092 H   0  0  0  0  0  0  0  0  0  0  0  0
    1.0096   -2.0604   -1.8499 H   0  0  0  0  0  0  0  0  0  0  0  0
  1  2  1  0
  1 20  1  0
  1 21  1  0
  1 22  1  0
  2  3  1  0
  2 23  1  0
  2 24  1  0
  3  4  1  0
  3  6  1  0
  3 17  1  6
  4  5  1  0
  4 25  1  0
  4 26  1  0
  5 27  1  0
  5 28  1  0
  5 29  1  0
  6  7  1  0
  6 30  1  0
  6 31  1  0
  7  8  1  0
  7 32  1  0
  8  9  1  0
  8 33  1  0
  8 34  1  0
  9 10  2  0
  9 15  1  0
 10 11  1  0
 10 35  1  0
 11 12  2  0
 11 36  1  0
 12 13  1  0
 12 14  1  0
 13 37  1  0
 13 38  1  0
 13 39  1  0
 14 15  2  0
 14 40  1  0
 15 16  1  0
 16 41  1  0
 16 42  1  0
 16 43  1  0
 17 18  2  0
 17 19  1  0
 19 44  1  0
M  END

