
     RDKit          3D

 32 32  0  0  0  0  0  0  0  0999 V2000
    2.5864   -2.4820   -2.0139 C   0  0  0  0  0  0  0  0  0  0  0  0
    3.3938   -1.7532   -1.1306 O   0  0  0  0  0  0  0  0  0  0  0  0
    4.2564   -0.8339   -1.7560 C   0  0  0  0  0  0  0  0  0  0  0  0
    5.1035   -0.1699   -0.6699 C   0  0  0  0  0  0  0  0  0  0  0  0
    5.9263   -1.0684    0.1158 N   0  0  0  0  0  0  0  0  0  0  0  0
    7.0981   -1.6065   -0.5198 C   0  0  0  0  0  0  0  0  0  0  0  0
    7.6292   -2.8227    0.2296 C   0  0  0  0  0  0  0  0  0  0  0  0
    6.9158   -3.4583    0.9750 O   0  0  0  0  0  0  0  0  0  0  0  0
    9.0785   -3.1993   -0.0288 C   0  0  0  0  0  0  0  0  0  0  0  0
    9.4471   -4.6077    0.4549 C   0  0  0  0  0  0  0  0  0  0  0  0
   10.9033   -4.9456    0.2565 C   0  0  0  0  0  0  0  0  0  0  0  0
   11.4972   -5.2443   -1.0173 C   0  0  0  0  0  0  0  0  0  0  0  0
   12.8422   -5.4982   -0.9428 C   0  0  0  0  0  0  0  0  0  0  0  0
   13.4203   -5.3805    0.6833 S   0  0  0  0  0  0  0  0  0  0  0  0
   11.8386   -4.9856    1.2650 C   0  0  0  0  0  0  0  0  0  0  0  0
    1.9673   -3.1689   -1.4181 H   0  0  0  0  0  0  0  0  0  0  0  0
    3.1868   -3.0805   -2.7297 H   0  0  0  0  0  0  0  0  0  0  0  0
    1.9149   -1.8245   -2.6035 H   0  0  0  0  0  0  0  0  0  0  0  0
    3.6813   -0.0619   -2.3115 H   0  0  0  0  0  0  0  0  0  0  0  0
    4.8972   -1.3511   -2.5032 H   0  0  0  0  0  0  0  0  0  0  0  0
    4.4157    0.3598    0.0119 H   0  0  0  0  0  0  0  0  0  0  0  0
    5.7417    0.6017   -1.1355 H   0  0  0  0  0  0  0  0  0  0  0  0
    5.3704   -1.8291    0.5063 H   0  0  0  0  0  0  0  0  0  0  0  0
    7.8993   -0.8465   -0.5977 H   0  0  0  0  0  0  0  0  0  0  0  0
    6.9488   -1.9728   -1.5677 H   0  0  0  0  0  0  0  0  0  0  0  0
    9.7021   -2.4439    0.4856 H   0  0  0  0  0  0  0  0  0  0  0  0
    9.2998   -3.0657   -1.1028 H   0  0  0  0  0  0  0  0  0  0  0  0
    8.8169   -5.3421   -0.0750 H   0  0  0  0  0  0  0  0  0  0  0  0
    9.1770   -4.6953    1.5174 H   0  0  0  0  0  0  0  0  0  0  0  0
   10.9350   -5.2774   -1.9532 H   0  0  0  0  0  0  0  0  0  0  0  0
   13.5252   -5.7560   -1.7512 H   0  0  0  0  0  0  0  0  0  0  0  0
   11.6760   -4.8086    2.3279 H   0  0  0  0  0  0  0  0  0  0  0  0
  1  2  1  0
  1 16  1  0
  1 17  1  0
  1 18  1  0
  2  3  1  0
  3  4  1  0
  3 19  1  0
  3 20  1  0
  4  5  1  0
  4 21  1  0
  4 22  1  0
  5  6  1  0
  5 23  1  0
  6  7  1  0
  6 24  1  0
  6 25  1  0
  7  8  2  0
  7  9  1  0
  9 10  1  0
  9 26  1  0
  9 27  1  0
 10 11  1  0
 10 28  1  0
 10 29  1  0
 11 12  1  0
 11 15  2  0
 12 13  2  0
 12 30  1  0
 13 14  1  0
 13 31  1  0
 14 15  1  0
 15 32  1  0
M  END

