
     RDKit          3D

 63 64  0  0  0  0  0  0  0  0999 V2000
    3.2336    1.0672    0.4849 C   0  0  0  0  0  0  0  0  0  0  0  0
    3.0382    0.0588   -0.3929 C   0  0  0  0  0  0  0  0  0  0  0  0
    1.9683   -0.9600   -0.1717 C   0  0  0  0  0  0  0  0  0  0  0  0
    0.7327   -0.6046    0.3830 C   0  0  0  0  0  0  0  0  0  0  0  0
   -0.2424   -1.5743    0.6450 C   0  0  0  0  0  0  0  0  0  0  0  0
   -0.0020   -2.9144    0.3400 C   0  0  0  0  0  0  0  0  0  0  0  0
   -0.8795   -3.9381    0.5471 O   0  0  0  0  0  0  0  0  0  0  0  0
   -2.1284   -3.6700    1.1472 C   0  0  0  0  0  0  0  0  0  0  0  0
    1.2357   -3.2910   -0.2427 C   0  0  0  0  0  0  0  0  0  0  0  0
    1.3978   -4.6536   -0.5303 N   0  0  0  0  0  0  0  0  0  0  0  0
    2.4414   -5.2614   -1.1730 C   0  0  0  0  0  0  0  0  0  0  0  0
    3.4387   -4.7231   -1.6084 O   0  0  0  0  0  0  0  0  0  0  0  0
    2.1953   -6.5911   -1.2509 O   0  0  0  0  0  0  0  0  0  0  0  0
    3.1804   -7.3995   -1.9138 C   0  0  0  0  0  0  0  0  0  0  0  0
    2.9574   -7.4449   -3.4162 C   0  0  0  0  0  0  0  0  0  0  0  0
    2.2014   -2.3134   -0.4858 C   0  0  0  0  0  0  0  0  0  0  0  0
    3.8770   -0.1448   -1.5193 N   0  0  0  0  0  0  0  0  0  0  0  0
    3.2371   -0.3692   -2.8252 C   0  0  0  0  0  0  0  0  0  0  0  0
    3.9900   -1.3584   -3.7106 C   0  0  0  0  0  0  0  0  0  0  0  0
    5.1741    0.4507   -1.5152 C   0  0  0  0  0  0  0  0  0  0  0  0
    5.4672    1.5042   -2.4033 C   0  0  0  0  0  0  0  0  0  0  0  0
    6.7386    2.0930   -2.4401 C   0  0  0  0  0  0  0  0  0  0  0  0
    7.1081    3.0958   -3.2758 O   0  0  0  0  0  0  0  0  0  0  0  0
    6.1852    3.7076   -4.1846 C   0  0  1  0  0  0  0  0  0  0  0  0
    5.3147    4.7350   -3.4625 C   0  0  0  0  0  0  0  0  0  0  0  0
    7.0323    4.3268   -5.2892 C   0  0  0  0  0  0  0  0  0  0  0  0
    7.7320    1.6292   -1.5620 C   0  0  0  0  0  0  0  0  0  0  0  0
    7.4403    0.5925   -0.6842 C   0  0  0  0  0  0  0  0  0  0  0  0
    6.1793   -0.0206   -0.6429 C   0  0  0  0  0  0  0  0  0  0  0  0
    5.9451   -1.1773    0.3138 C   0  0  0  0  0  0  0  0  0  0  0  0
    5.8633   -0.7780    1.7256 C   0  0  0  0  0  0  0  0  0  0  0  0
    5.8367   -0.4709    2.8428 N   0  0  0  0  0  0  0  0  0  0  0  0
    2.6720    1.1053    1.4179 H   0  0  0  0  0  0  0  0  0  0  0  0
    3.9998    1.8270    0.3264 H   0  0  0  0  0  0  0  0  0  0  0  0
    0.5189    0.4427    0.6034 H   0  0  0  0  0  0  0  0  0  0  0  0
   -1.1957   -1.2706    1.0778 H   0  0  0  0  0  0  0  0  0  0  0  0
   -2.6512   -4.6322    1.2281 H   0  0  0  0  0  0  0  0  0  0  0  0
   -2.7359   -2.9817    0.5331 H   0  0  0  0  0  0  0  0  0  0  0  0
   -2.0102   -3.2381    2.1568 H   0  0  0  0  0  0  0  0  0  0  0  0
    0.6282   -5.2514   -0.2484 H   0  0  0  0  0  0  0  0  0  0  0  0
    3.0702   -8.3972   -1.4640 H   0  0  0  0  0  0  0  0  0  0  0  0
    4.1813   -7.0094   -1.6770 H   0  0  0  0  0  0  0  0  0  0  0  0
    1.9421   -7.7992   -3.6540 H   0  0  0  0  0  0  0  0  0  0  0  0
    3.6804   -8.1336   -3.8825 H   0  0  0  0  0  0  0  0  0  0  0  0
    3.0993   -6.4488   -3.8611 H   0  0  0  0  0  0  0  0  0  0  0  0
    3.1467   -2.6215   -0.9243 H   0  0  0  0  0  0  0  0  0  0  0  0
    3.0892    0.5897   -3.3602 H   0  0  0  0  0  0  0  0  0  0  0  0
    2.2263   -0.7490   -2.6288 H   0  0  0  0  0  0  0  0  0  0  0  0
    5.0199   -1.0243   -3.9103 H   0  0  0  0  0  0  0  0  0  0  0  0
    3.4773   -1.4580   -4.6810 H   0  0  0  0  0  0  0  0  0  0  0  0
    4.0339   -2.3541   -3.2427 H   0  0  0  0  0  0  0  0  0  0  0  0
    4.6760    1.8664   -3.0553 H   0  0  0  0  0  0  0  0  0  0  0  0
    5.5457    2.9233   -4.6296 H   0  0  0  0  0  0  0  0  0  0  0  0
    5.9456    5.5268   -3.0286 H   0  0  0  0  0  0  0  0  0  0  0  0
    4.7348    4.2768   -2.6477 H   0  0  0  0  0  0  0  0  0  0  0  0
    4.6060    5.2014   -4.1650 H   0  0  0  0  0  0  0  0  0  0  0  0
    7.7099    5.0876   -4.8707 H   0  0  0  0  0  0  0  0  0  0  0  0
    6.3915    4.8076   -6.0443 H   0  0  0  0  0  0  0  0  0  0  0  0
    7.6433    3.5581   -5.7852 H   0  0  0  0  0  0  0  0  0  0  0  0
    8.7206    2.0899   -1.5960 H   0  0  0  0  0  0  0  0  0  0  0  0
    8.2234    0.2339   -0.0099 H   0  0  0  0  0  0  0  0  0  0  0  0
    6.7711   -1.9038    0.2284 H   0  0  0  0  0  0  0  0  0  0  0  0
    5.0253   -1.7167    0.0500 H   0  0  0  0  0  0  0  0  0  0  0  0
  1  2  2  0
  1 33  1  0
  1 34  1  0
  2  3  1  0
  2 17  1  0
  3  4  2  0
  3 16  1  0
  4  5  1  0
  4 35  1  0
  5  6  2  0
  5 36  1  0
  6  7  1  0
  6  9  1  0
  7  8  1  0
  8 37  1  0
  8 38  1  0
  8 39  1  0
  9 10  1  0
  9 16  2  0
 10 11  1  0
 10 40  1  0
 11 12  2  0
 11 13  1  0
 13 14  1  0
 14 15  1  0
 14 41  1  0
 14 42  1  0
 15 43  1  0
 15 44  1  0
 15 45  1  0
 16 46  1  0
 17 18  1  0
 17 20  1  0
 18 19  1  0
 18 47  1  0
 18 48  1  0
 19 49  1  0
 19 50  1  0
 19 51  1  0
 20 21  2  0
 20 29  1  0
 21 22  1  0
 21 52  1  0
 22 23  1  0
 22 27  2  0
 23 24  1  0
 24 25  1  0
 24 26  1  0
 24 53  1  6
 25 54  1  0
 25 55  1  0
 25 56  1  0
 26 57  1  0
 26 58  1  0
 26 59  1  0
 27 28  1  0
 27 60  1  0
 28 29  2  0
 28 61  1  0
 29 30  1  0
 30 31  1  0
 30 62  1  0
 30 63  1  0
 31 32  3  0
M  END

