
     RDKit          3D

 50 51  0  0  0  0  0  0  0  0999 V2000
    2.4360   -0.2935    1.5328 C   0  0  0  0  0  0  0  0  0  0  0  0
    2.2760    0.7292    0.3927 C   0  0  1  0  0  0  0  0  0  0  0  0
    0.8118    1.1594    0.2291 C   0  0  0  0  0  0  0  0  0  0  0  0
    3.1759    1.8984    0.4835 N   0  0  0  0  0  0  0  0  0  0  0  0
    2.9502    2.7199    1.6666 C   0  0  0  0  0  0  0  0  0  0  0  0
    4.6038    1.6508    0.2492 C   0  0  1  0  0  0  0  0  0  0  0  0
    4.8969    0.7161   -0.9400 C   0  0  0  0  0  0  0  0  0  0  0  0
    4.4928    1.3431   -2.2791 C   0  0  2  0  0  0  0  0  0  0  0  0
    4.7777    0.4085   -3.4525 C   0  0  0  0  0  0  0  0  0  0  0  0
    5.3266   -0.6552   -3.3588 O   0  0  0  0  0  0  0  0  0  0  0  0
    4.3737    0.8630   -4.6628 O   0  0  0  0  0  0  0  0  0  0  0  0
    5.2109    2.7007   -2.4593 C   0  0  0  0  0  0  0  0  0  0  0  0
    4.9909    3.5543   -1.3055 N   0  0  0  0  0  0  0  0  0  0  0  0
    4.2446    4.6892   -1.4677 C   0  0  0  0  0  0  0  0  0  0  0  0
    3.7979    5.0702   -2.5353 O   0  0  0  0  0  0  0  0  0  0  0  0
    4.0877    5.3671   -0.3058 O   0  0  0  0  0  0  0  0  0  0  0  0
    3.3466    6.6040   -0.3619 C   0  0  0  0  0  0  0  0  0  0  0  0
    1.8799    6.4140   -0.0545 C   0  0  0  0  0  0  0  0  0  0  0  0
    1.3800    6.6920    1.2262 C   0  0  0  0  0  0  0  0  0  0  0  0
    0.0247    6.5122    1.5195 C   0  0  0  0  0  0  0  0  0  0  0  0
   -0.8474    6.0484    0.5309 C   0  0  0  0  0  0  0  0  0  0  0  0
   -0.3590    5.7686   -0.7504 C   0  0  0  0  0  0  0  0  0  0  0  0
    0.9945    5.9513   -1.0431 C   0  0  0  0  0  0  0  0  0  0  0  0
    5.3637    2.9744   -0.0211 C   0  0  0  0  0  0  0  0  0  0  0  0
    1.7987   -1.1745    1.3545 H   0  0  0  0  0  0  0  0  0  0  0  0
    2.1426    0.1339    2.5054 H   0  0  0  0  0  0  0  0  0  0  0  0
    3.4747   -0.6502    1.6216 H   0  0  0  0  0  0  0  0  0  0  0  0
    2.5345    0.2146   -0.5434 H   0  0  0  0  0  0  0  0  0  0  0  0
    0.3770    1.5527    1.1616 H   0  0  0  0  0  0  0  0  0  0  0  0
    0.1981    0.2957   -0.0723 H   0  0  0  0  0  0  0  0  0  0  0  0
    0.7225    1.9391   -0.5425 H   0  0  0  0  0  0  0  0  0  0  0  0
    1.8758    2.8033    1.8723 H   0  0  0  0  0  0  0  0  0  0  0  0
    3.3115    3.7448    1.5095 H   0  0  0  0  0  0  0  0  0  0  0  0
    3.4397    2.3193    2.5823 H   0  0  0  0  0  0  0  0  0  0  0  0
    5.0829    1.2024    1.1511 H   0  0  0  0  0  0  0  0  0  0  0  0
    4.4366   -0.2733   -0.8240 H   0  0  0  0  0  0  0  0  0  0  0  0
    5.9821    0.5236   -0.9597 H   0  0  0  0  0  0  0  0  0  0  0  0
    3.4072    1.5494   -2.2746 H   0  0  0  0  0  0  0  0  0  0  0  0
    3.9220    1.7152   -4.5779 H   0  0  0  0  0  0  0  0  0  0  0  0
    4.8606    3.2461   -3.3442 H   0  0  0  0  0  0  0  0  0  0  0  0
    6.2958    2.5201   -2.5766 H   0  0  0  0  0  0  0  0  0  0  0  0
    3.4858    7.0470   -1.3571 H   0  0  0  0  0  0  0  0  0  0  0  0
    3.8179    7.2466    0.3946 H   0  0  0  0  0  0  0  0  0  0  0  0
    2.0589    7.0582    2.0022 H   0  0  0  0  0  0  0  0  0  0  0  0
   -0.3507    6.7373    2.5212 H   0  0  0  0  0  0  0  0  0  0  0  0
   -1.9079    5.9090    0.7564 H   0  0  0  0  0  0  0  0  0  0  0  0
   -1.0390    5.4112   -1.5281 H   0  0  0  0  0  0  0  0  0  0  0  0
    1.3828    5.7313   -2.0401 H   0  0  0  0  0  0  0  0  0  0  0  0
    5.2032    3.7159    0.7646 H   0  0  0  0  0  0  0  0  0  0  0  0
    6.4443    2.7451   -0.0379 H   0  0  0  0  0  0  0  0  0  0  0  0
  1  2  1  0
  1 25  1  0
  1 26  1  0
  1 27  1  0
  2  3  1  0
  2  4  1  0
  2 28  1  6
  3 29  1  0
  3 30  1  0
  3 31  1  0
  4  5  1  0
  4  6  1  0
  5 32  1  0
  5 33  1  0
  5 34  1  0
  6  7  1  0
  6 24  1  0
  6 35  1  1
  7  8  1  0
  7 36  1  0
  7 37  1  0
  8  9  1  0
  8 12  1  0
  8 38  1  1
  9 10  2  0
  9 11  1  0
 11 39  1  0
 12 13  1  0
 12 40  1  0
 12 41  1  0
 13 14  1  0
 13 24  1  0
 14 15  2  0
 14 16  1  0
 16 17  1  0
 17 18  1  0
 17 42  1  0
 17 43  1  0
 18 19  2  0
 18 23  1  0
 19 20  1  0
 19 44  1  0
 20 21  2  0
 20 45  1  0
 21 22  1  0
 21 46  1  0
 22 23  2  0
 22 47  1  0
 23 48  1  0
 24 49  1  0
 24 50  1  0
M  END

