
     RDKit          3D

 66 69  0  0  0  0  0  0  0  0999 V2000
    2.4017    1.4691   -0.3425 C   0  0  0  0  0  0  0  0  0  0  0  0
    3.9135    1.2535   -0.2166 C   0  0  1  0  0  0  0  0  0  0  0  0
    4.7017    2.5459   -0.4543 C   0  0  0  0  0  0  0  0  0  0  0  0
    4.2604    0.6502    1.1459 C   0  0  0  0  0  0  0  0  0  0  0  0
    4.3524    0.2162   -1.1577 O   0  0  0  0  0  0  0  0  0  0  0  0
    4.2111    0.3624   -2.4957 C   0  0  0  0  0  0  0  0  0  0  0  0
    3.7405    1.3353   -3.0533 O   0  0  0  0  0  0  0  0  0  0  0  0
    4.6743   -0.7450   -3.1577 N   0  0  0  0  0  0  0  0  0  0  0  0
    4.4162   -0.9005   -4.5928 C   0  0  0  0  0  0  0  0  0  0  0  0
    4.0992   -2.3926   -4.7238 C   0  0  0  0  0  0  0  0  0  0  0  0
    5.0296   -3.0312   -3.6836 C   0  0  0  0  0  0  0  0  0  0  0  0
    5.0732   -2.0116   -2.5219 C   0  0  1  0  0  0  0  0  0  0  0  0
    4.3469   -2.2789   -1.7360 H   0  0  0  0  0  0  0  0  0  0  0  0
    6.4499   -1.9070   -1.8662 C   0  0  0  0  0  0  0  0  0  0  0  0
    6.7591   -3.1827   -1.3311 O   0  0  0  0  0  0  0  0  0  0  0  0
    7.9225   -3.3681   -0.6579 C   0  0  0  0  0  0  0  0  0  0  0  0
    8.8932   -2.3742   -0.4621 C   0  0  0  0  0  0  0  0  0  0  0  0
   10.0587   -2.6730    0.2524 C   0  0  0  0  0  0  0  0  0  0  0  0
   10.2602   -3.9511    0.7638 C   0  0  0  0  0  0  0  0  0  0  0  0
   11.4736   -4.2000    1.4077 O   0  0  0  0  0  0  0  0  0  0  0  0
   11.5067   -4.7303    2.6595 C   0  0  0  0  0  0  0  0  0  0  0  0
   10.5315   -5.0519    3.2846 O   0  0  0  0  0  0  0  0  0  0  0  0
   12.9398   -4.8738    3.1369 C   0  0  0  0  0  0  0  0  0  0  0  0
   13.7782   -3.5901    3.0687 C   0  0  0  0  0  0  0  0  0  0  0  0
   13.3175   -2.4877    3.9837 C   0  0  0  0  0  0  0  0  0  0  0  0
   12.2662   -2.4599    4.8542 C   0  0  0  0  0  0  0  0  0  0  0  0
   12.1450   -1.2129    5.5689 C   0  0  0  0  0  0  0  0  0  0  0  0
   11.1922   -0.8332    6.5281 C   0  0  0  0  0  0  0  0  0  0  0  0
   11.2603    0.4424    7.1031 C   0  0  0  0  0  0  0  0  0  0  0  0
   10.2887    0.8384    8.0844 C   0  0  0  0  0  0  0  0  0  0  0  0
    9.5050    1.1634    8.8776 N   0  0  0  0  0  0  0  0  0  0  0  0
   12.2821    1.3502    6.7242 C   0  0  0  0  0  0  0  0  0  0  0  0
   13.2311    0.9898    5.7763 C   0  0  0  0  0  0  0  0  0  0  0  0
   13.1590   -0.2872    5.2030 C   0  0  0  0  0  0  0  0  0  0  0  0
   14.2227   -0.9710    3.9970 S   0  0  0  0  0  0  0  0  0  0  0  0
    9.3008   -4.9514    0.5704 C   0  0  0  0  0  0  0  0  0  0  0  0
    8.1396   -4.6562   -0.1357 C   0  0  0  0  0  0  0  0  0  0  0  0
    2.0605    2.1676    0.4374 H   0  0  0  0  0  0  0  0  0  0  0  0
    1.8662    0.5166   -0.2037 H   0  0  0  0  0  0  0  0  0  0  0  0
    2.1428    1.8822   -1.3254 H   0  0  0  0  0  0  0  0  0  0  0  0
    4.4452    3.2844    0.3213 H   0  0  0  0  0  0  0  0  0  0  0  0
    4.4728    2.9717   -1.4391 H   0  0  0  0  0  0  0  0  0  0  0  0
    5.7843    2.3518   -0.3931 H   0  0  0  0  0  0  0  0  0  0  0  0
    3.9629    1.3372    1.9525 H   0  0  0  0  0  0  0  0  0  0  0  0
    5.3426    0.4675    1.2297 H   0  0  0  0  0  0  0  0  0  0  0  0
    3.7363   -0.3063    1.2927 H   0  0  0  0  0  0  0  0  0  0  0  0
    5.3084   -0.6275   -5.1868 H   0  0  0  0  0  0  0  0  0  0  0  0
    3.6008   -0.2306   -4.8957 H   0  0  0  0  0  0  0  0  0  0  0  0
    4.2607   -2.7781   -5.7417 H   0  0  0  0  0  0  0  0  0  0  0  0
    3.0439   -2.5734   -4.4595 H   0  0  0  0  0  0  0  0  0  0  0  0
    6.0411   -3.1526   -4.1065 H   0  0  0  0  0  0  0  0  0  0  0  0
    4.7012   -4.0236   -3.3453 H   0  0  0  0  0  0  0  0  0  0  0  0
    7.2009   -1.6073   -2.6224 H   0  0  0  0  0  0  0  0  0  0  0  0
    6.4321   -1.1452   -1.0704 H   0  0  0  0  0  0  0  0  0  0  0  0
    8.7556   -1.3672   -0.8554 H   0  0  0  0  0  0  0  0  0  0  0  0
   10.8208   -1.9079    0.4133 H   0  0  0  0  0  0  0  0  0  0  0  0
   13.4202   -5.6320    2.4960 H   0  0  0  0  0  0  0  0  0  0  0  0
   12.9022   -5.2782    4.1577 H   0  0  0  0  0  0  0  0  0  0  0  0
   13.7898   -3.2243    2.0282 H   0  0  0  0  0  0  0  0  0  0  0  0
   14.8248   -3.8447    3.3112 H   0  0  0  0  0  0  0  0  0  0  0  0
   11.5723   -3.2900    4.9907 H   0  0  0  0  0  0  0  0  0  0  0  0
   10.4020   -1.5258    6.8248 H   0  0  0  0  0  0  0  0  0  0  0  0
   12.3158    2.3385    7.1859 H   0  0  0  0  0  0  0  0  0  0  0  0
   14.0158    1.6920    5.4870 H   0  0  0  0  0  0  0  0  0  0  0  0
    9.4580   -5.9509    0.9758 H   0  0  0  0  0  0  0  0  0  0  0  0
    7.3735   -5.4170   -0.2970 H   0  0  0  0  0  0  0  0  0  0  0  0
  1  2  1  0
  1 38  1  0
  1 39  1  0
  1 40  1  0
  2  3  1  0
  2  4  1  0
  2  5  1  6
  3 41  1  0
  3 42  1  0
  3 43  1  0
  4 44  1  0
  4 45  1  0
  4 46  1  0
  5  6  1  0
  6  7  2  0
  6  8  1  0
  8  9  1  0
  8 12  1  0
  9 10  1  0
  9 47  1  0
  9 48  1  0
 10 11  1  0
 10 49  1  0
 10 50  1  0
 11 12  1  0
 11 51  1  0
 11 52  1  0
 12 13  1  1
 12 14  1  0
 14 15  1  0
 14 53  1  0
 14 54  1  0
 15 16  1  0
 16 17  2  0
 16 37  1  0
 17 18  1  0
 17 55  1  0
 18 19  2  0
 18 56  1  0
 19 20  1  0
 19 36  1  0
 20 21  1  0
 21 22  2  0
 21 23  1  0
 23 24  1  0
 23 57  1  0
 23 58  1  0
 24 25  1  0
 24 59  1  0
 24 60  1  0
 25 26  2  0
 25 35  1  0
 26 27  1  0
 26 61  1  0
 27 28  2  0
 27 34  1  0
 28 29  1  0
 28 62  1  0
 29 30  1  0
 29 32  2  0
 30 31  3  0
 32 33  1  0
 32 63  1  0
 33 34  2  0
 33 64  1  0
 34 35  1  0
 36 37  2  0
 36 65  1  0
 37 66  1  0
M  END

