
     RDKit          3D

 30 31  0  0  0  0  0  0  0  0999 V2000
    6.7747   -1.5205    3.5064 O   0  0  0  0  0  0  0  0  0  0  0  0
    6.6392   -0.3588    3.1486 C   0  0  0  0  0  0  0  0  0  0  0  0
    5.4393    0.2836    3.1622 N   0  0  0  0  0  0  0  0  0  0  0  0
    4.2398   -0.3117    3.7014 C   0  0  0  0  0  0  0  0  0  0  0  0
    3.5363    0.6414    4.6825 C   0  0  2  0  0  0  0  0  0  0  0  0
    2.5868    0.1495    4.9758 H   0  0  0  0  0  0  0  0  0  0  0  0
    3.2811    1.8271    3.9418 O   0  0  0  0  0  0  0  0  0  0  0  0
    4.3316    0.9383    5.9306 C   0  0  0  0  0  0  0  0  0  0  0  0
    5.3441    1.8575    6.0932 C   0  0  0  0  0  0  0  0  0  0  0  0
    5.9017    1.8491    7.4080 C   0  0  0  0  0  0  0  0  0  0  0  0
    5.3085    0.9235    8.2284 C   0  0  0  0  0  0  0  0  0  0  0  0
    4.0570    0.0568    7.4071 S   0  0  0  0  0  0  0  0  0  0  0  0
    7.8328    0.4214    2.6347 C   0  0  0  0  0  0  0  0  0  0  0  0
    9.0040   -0.3163    2.3877 C   0  0  0  0  0  0  0  0  0  0  0  0
   10.1690    0.2910    1.9235 C   0  0  0  0  0  0  0  0  0  0  0  0
   10.1930    1.6724    1.7011 C   0  0  0  0  0  0  0  0  0  0  0  0
    9.0507    2.4358    1.9467 C   0  0  0  0  0  0  0  0  0  0  0  0
    7.8991    1.8027    2.4058 C   0  0  0  0  0  0  0  0  0  0  0  0
    6.8190    2.5893    2.6371 F   0  0  0  0  0  0  0  0  0  0  0  0
    5.3730    1.2478    2.8587 H   0  0  0  0  0  0  0  0  0  0  0  0
    4.5145   -1.2528    4.1952 H   0  0  0  0  0  0  0  0  0  0  0  0
    3.5223   -0.5437    2.8932 H   0  0  0  0  0  0  0  0  0  0  0  0
    2.9985    2.5147    4.5596 H   0  0  0  0  0  0  0  0  0  0  0  0
    5.6827    2.5095    5.2871 H   0  0  0  0  0  0  0  0  0  0  0  0
    6.7132    2.5036    7.7303 H   0  0  0  0  0  0  0  0  0  0  0  0
    5.5331    0.7016    9.2708 H   0  0  0  0  0  0  0  0  0  0  0  0
    8.9563   -1.3892    2.5829 H   0  0  0  0  0  0  0  0  0  0  0  0
   11.0612   -0.3110    1.7371 H   0  0  0  0  0  0  0  0  0  0  0  0
   11.1013    2.1600    1.3386 H   0  0  0  0  0  0  0  0  0  0  0  0
    9.0313    3.5164    1.7927 H   0  0  0  0  0  0  0  0  0  0  0  0
  1  2  2  0
  2  3  1  0
  2 13  1  0
  3  4  1  0
  3 20  1  0
  4  5  1  0
  4 21  1  0
  4 22  1  0
  5  6  1  1
  5  7  1  0
  5  8  1  0
  7 23  1  0
  8  9  2  0
  8 12  1  0
  9 10  1  0
  9 24  1  0
 10 11  2  0
 10 25  1  0
 11 12  1  0
 11 26  1  0
 13 14  2  0
 13 18  1  0
 14 15  1  0
 14 27  1  0
 15 16  2  0
 15 28  1  0
 16 17  1  0
 16 29  1  0
 17 18  2  0
 17 30  1  0
 18 19  1  0
M  END

