
     RDKit          3D

 34 36  0  0  0  0  0  0  0  0999 V2000
    2.6064    0.8811    2.5331 C   0  0  0  0  0  0  0  0  0  0  0  0
    3.0450    0.3074    1.1850 C   0  0  0  0  0  0  0  0  0  0  0  0
    3.6574   -1.0921    1.2972 C   0  0  0  0  0  0  0  0  0  0  0  0
    4.0838   -1.6348   -0.0683 C   0  0  0  0  0  0  0  0  0  0  0  0
    4.6828   -2.9890   -0.0050 N   0  0  0  0  0  0  0  0  0  0  0  0
    3.8192   -4.0852   -0.1135 C   0  0  0  0  0  0  0  0  0  0  0  0
    2.1692   -3.8851   -0.2482 S   0  0  0  0  0  0  0  0  0  0  0  0
    4.4270   -5.4320   -0.1002 C   0  0  0  0  0  0  0  0  0  0  0  0
    3.6423   -6.5769   -0.2392 C   0  0  0  0  0  0  0  0  0  0  0  0
    4.2147   -7.8620   -0.2345 C   0  0  0  0  0  0  0  0  0  0  0  0
    5.5795   -8.0174   -0.0874 C   0  0  0  0  0  0  0  0  0  0  0  0
    6.4212   -6.8840    0.0598 C   0  0  0  0  0  0  0  0  0  0  0  0
    7.8265   -7.0095    0.2149 C   0  0  0  0  0  0  0  0  0  0  0  0
    8.6185   -5.8866    0.3578 C   0  0  0  0  0  0  0  0  0  0  0  0
    8.0405   -4.6040    0.3523 C   0  0  0  0  0  0  0  0  0  0  0  0
    6.6650   -4.4281    0.2007 C   0  0  0  0  0  0  0  0  0  0  0  0
    5.8349   -5.5744    0.0515 C   0  0  0  0  0  0  0  0  0  0  0  0
    6.0662   -3.0773    0.1885 C   0  0  0  0  0  0  0  0  0  0  0  0
    7.0053   -1.7159    0.4011 S   0  0  0  0  0  0  0  0  0  0  0  0
    2.1702    1.8865    2.4210 H   0  0  0  0  0  0  0  0  0  0  0  0
    3.4577    0.9627    3.2293 H   0  0  0  0  0  0  0  0  0  0  0  0
    1.8480    0.2402    3.0130 H   0  0  0  0  0  0  0  0  0  0  0  0
    3.7772    0.9886    0.7149 H   0  0  0  0  0  0  0  0  0  0  0  0
    2.1787    0.2718    0.4998 H   0  0  0  0  0  0  0  0  0  0  0  0
    2.9248   -1.7825    1.7474 H   0  0  0  0  0  0  0  0  0  0  0  0
    4.5356   -1.0604    1.9634 H   0  0  0  0  0  0  0  0  0  0  0  0
    4.8380   -0.9776   -0.5162 H   0  0  0  0  0  0  0  0  0  0  0  0
    3.2159   -1.7051   -0.7339 H   0  0  0  0  0  0  0  0  0  0  0  0
    2.5650   -6.4502   -0.3531 H   0  0  0  0  0  0  0  0  0  0  0  0
    3.5695   -8.7362   -0.3476 H   0  0  0  0  0  0  0  0  0  0  0  0
    6.0295   -9.0137   -0.0817 H   0  0  0  0  0  0  0  0  0  0  0  0
    8.2702   -8.0086    0.2197 H   0  0  0  0  0  0  0  0  0  0  0  0
    9.6998   -5.9863    0.4769 H   0  0  0  0  0  0  0  0  0  0  0  0
    8.6622   -3.7152    0.4668 H   0  0  0  0  0  0  0  0  0  0  0  0
  1  2  1  0
  1 20  1  0
  1 21  1  0
  1 22  1  0
  2  3  1  0
  2 23  1  0
  2 24  1  0
  3  4  1  0
  3 25  1  0
  3 26  1  0
  4  5  1  0
  4 27  1  0
  4 28  1  0
  5  6  1  0
  5 18  1  0
  6  7  2  0
  6  8  1  0
  8  9  1  0
  8 17  2  0
  9 10  2  0
  9 29  1  0
 10 11  1  0
 10 30  1  0
 11 12  2  0
 11 31  1  0
 12 13  1  0
 12 17  1  0
 13 14  2  0
 13 32  1  0
 14 15  1  0
 14 33  1  0
 15 16  2  0
 15 34  1  0
 16 17  1  0
 16 18  1  0
 18 19  2  0
M  END

