
     RDKit          3D

 52 55  0  0  0  0  0  0  0  0999 V2000
    4.6442   -0.6359   -1.9414 C   0  0  0  0  0  0  0  0  0  0  0  0
    3.5063   -1.2565   -1.3919 O   0  0  0  0  0  0  0  0  0  0  0  0
    3.5639   -1.7565   -0.1345 C   0  0  0  0  0  0  0  0  0  0  0  0
    4.7073   -1.7746    0.6701 C   0  0  0  0  0  0  0  0  0  0  0  0
    4.6865   -2.3403    1.9600 C   0  0  0  0  0  0  0  0  0  0  0  0
    5.9423   -2.3433    2.7988 C   0  0  0  0  0  0  0  0  0  0  0  0
    3.4921   -2.8909    2.4314 C   0  0  0  0  0  0  0  0  0  0  0  0
    2.3374   -2.8689    1.6379 C   0  0  0  0  0  0  0  0  0  0  0  0
    2.3632   -2.3070    0.3697 C   0  0  0  0  0  0  0  0  0  0  0  0
    1.2386   -2.3721   -0.4262 O   0  0  0  0  0  0  0  0  0  0  0  0
    0.5827   -1.2291   -0.7818 C   0  0  0  0  0  0  0  0  0  0  0  0
   -0.4152   -1.3421   -1.7626 C   0  0  0  0  0  0  0  0  0  0  0  0
   -1.1277   -0.2065   -2.1255 C   0  0  0  0  0  0  0  0  0  0  0  0
   -0.8204    1.0188   -1.4975 C   0  0  0  0  0  0  0  0  0  0  0  0
   -1.4617    2.2397   -1.7664 N   0  0  0  0  0  0  0  0  0  0  0  0
   -2.4737    2.4825   -2.6858 C   0  0  0  0  0  0  0  0  0  0  0  0
   -2.9622    1.6174   -3.3994 O   0  0  0  0  0  0  0  0  0  0  0  0
   -2.8884    3.7955   -2.7437 N   0  0  0  0  0  0  0  0  0  0  0  0
   -2.5110    4.8717   -1.8352 C   0  0  0  0  0  0  0  0  0  0  0  0
   -3.2179    6.1438   -2.3789 C   0  0  1  0  0  0  0  0  0  0  0  0
   -2.2439    7.2493   -2.8222 C   0  0  0  0  0  0  0  0  0  0  0  0
   -1.7625    6.7739   -4.2003 C   0  0  0  0  0  0  0  0  0  0  0  0
   -3.0382    6.2106   -4.8553 C   0  0  0  0  0  0  0  0  0  0  0  0
   -3.9325    5.6824   -3.6925 C   0  0  1  0  0  0  0  0  0  0  0  0
   -4.0330    4.1583   -3.5736 C   0  0  0  0  0  0  0  0  0  0  0  0
    0.1986    1.0032   -0.5329 C   0  0  0  0  0  0  0  0  0  0  0  0
    0.8762   -0.0897   -0.1839 N   0  0  0  0  0  0  0  0  0  0  0  0
    4.3585   -0.2902   -2.9440 H   0  0  0  0  0  0  0  0  0  0  0  0
    5.4927   -1.3381   -2.0345 H   0  0  0  0  0  0  0  0  0  0  0  0
    4.9678    0.2334   -1.3407 H   0  0  0  0  0  0  0  0  0  0  0  0
    5.6407   -1.3511    0.2958 H   0  0  0  0  0  0  0  0  0  0  0  0
    6.2934   -1.3171    3.0014 H   0  0  0  0  0  0  0  0  0  0  0  0
    6.7669   -2.8697    2.2891 H   0  0  0  0  0  0  0  0  0  0  0  0
    5.7779   -2.8374    3.7677 H   0  0  0  0  0  0  0  0  0  0  0  0
    3.4537   -3.3389    3.4275 H   0  0  0  0  0  0  0  0  0  0  0  0
    1.3968   -3.2926    1.9957 H   0  0  0  0  0  0  0  0  0  0  0  0
   -0.6143   -2.3109   -2.2232 H   0  0  0  0  0  0  0  0  0  0  0  0
   -1.9099   -0.2396   -2.8808 H   0  0  0  0  0  0  0  0  0  0  0  0
   -1.1187    3.0241   -1.2272 H   0  0  0  0  0  0  0  0  0  0  0  0
   -1.4135    5.0069   -1.8231 H   0  0  0  0  0  0  0  0  0  0  0  0
   -2.8258    4.6601   -0.7946 H   0  0  0  0  0  0  0  0  0  0  0  0
   -3.9348    6.5109   -1.6298 H   0  0  0  0  0  0  0  0  0  0  0  0
   -1.4281    7.4224   -2.1013 H   0  0  0  0  0  0  0  0  0  0  0  0
   -2.7922    8.2019   -2.9230 H   0  0  0  0  0  0  0  0  0  0  0  0
   -1.0098    5.9757   -4.0822 H   0  0  0  0  0  0  0  0  0  0  0  0
   -1.2888    7.5726   -4.7923 H   0  0  0  0  0  0  0  0  0  0  0  0
   -2.8196    5.4286   -5.5987 H   0  0  0  0  0  0  0  0  0  0  0  0
   -3.5690    7.0154   -5.3891 H   0  0  0  0  0  0  0  0  0  0  0  0
   -4.9403    6.1164   -3.7682 H   0  0  0  0  0  0  0  0  0  0  0  0
   -3.9827    3.6309   -4.5359 H   0  0  0  0  0  0  0  0  0  0  0  0
   -4.9834    3.8567   -3.0906 H   0  0  0  0  0  0  0  0  0  0  0  0
    0.4729    1.9334   -0.0153 H   0  0  0  0  0  0  0  0  0  0  0  0
  1  2  1  0
  1 28  1  0
  1 29  1  0
  1 30  1  0
  2  3  1  0
  3  4  2  0
  3  9  1  0
  4  5  1  0
  4 31  1  0
  5  6  1  0
  5  7  2  0
  6 32  1  0
  6 33  1  0
  6 34  1  0
  7  8  1  0
  7 35  1  0
  8  9  2  0
  8 36  1  0
  9 10  1  0
 10 11  1  0
 11 12  2  0
 11 27  1  0
 12 13  1  0
 12 37  1  0
 13 14  2  0
 13 38  1  0
 14 15  1  0
 14 26  1  0
 15 16  1  0
 15 39  1  0
 16 17  2  0
 16 18  1  0
 18 19  1  0
 18 25  1  0
 19 20  1  0
 19 40  1  0
 19 41  1  0
 20 21  1  0
 20 24  1  0
 20 42  1  1
 21 22  1  0
 21 43  1  0
 21 44  1  0
 22 23  1  0
 22 45  1  0
 22 46  1  0
 23 24  1  0
 23 47  1  0
 23 48  1  0
 24 25  1  0
 24 49  1  6
 25 50  1  0
 25 51  1  0
 26 27  2  0
 26 52  1  0
M  END

