
     RDKit          3D

 36 38  0  0  0  0  0  0  0  0999 V2000
    1.2815    1.6458    1.2638 N   0  0  0  0  0  0  0  0  0  0  0  0
    2.3398    1.2931    0.9398 C   0  0  0  0  0  0  0  0  0  0  0  0
    3.6458    0.8544    0.5383 C   0  0  0  0  0  0  0  0  0  0  0  0
    4.6991    1.7791    0.4016 C   0  0  0  0  0  0  0  0  0  0  0  0
    5.9593    1.3421    0.0125 C   0  0  0  0  0  0  0  0  0  0  0  0
    6.2218   -0.0211   -0.2546 C   0  0  0  0  0  0  0  0  0  0  0  0
    7.5749   -0.3875   -0.6570 C   0  0  0  0  0  0  0  0  0  0  0  0
    8.1328   -1.5762   -0.9768 C   0  0  0  0  0  0  0  0  0  0  0  0
    7.4233   -3.1837   -1.0358 S   0  0  0  0  0  0  0  0  0  0  0  0
    9.0479   -3.8230   -1.5433 C   0  0  0  0  0  0  0  0  0  0  0  0
    9.1894   -5.1399   -1.7690 N   0  0  0  0  0  0  0  0  0  0  0  0
   10.4867   -5.6814   -2.2000 C   0  0  0  0  0  0  0  0  0  0  0  0
   10.9358   -6.8151   -1.2741 C   0  0  0  0  0  0  0  0  0  0  0  0
    9.8506   -7.8905   -1.1407 C   0  0  0  0  0  0  0  0  0  0  0  0
    8.5170   -7.2665   -0.7119 C   0  0  0  0  0  0  0  0  0  0  0  0
    8.1134   -6.1218   -1.6483 C   0  0  0  0  0  0  0  0  0  0  0  0
   10.0013   -2.9530   -1.6603 N   0  0  0  0  0  0  0  0  0  0  0  0
    9.6102   -1.6576   -1.3670 C   0  0  0  0  0  0  0  0  0  0  0  0
   10.3226   -0.6795   -1.4026 O   0  0  0  0  0  0  0  0  0  0  0  0
    5.1533   -0.9346   -0.1125 C   0  0  0  0  0  0  0  0  0  0  0  0
    3.8886   -0.5082    0.2763 C   0  0  0  0  0  0  0  0  0  0  0  0
    4.5194    2.8368    0.6027 H   0  0  0  0  0  0  0  0  0  0  0  0
    6.7705    2.0668   -0.0908 H   0  0  0  0  0  0  0  0  0  0  0  0
    8.2946    0.4369   -0.7196 H   0  0  0  0  0  0  0  0  0  0  0  0
   11.2021   -4.8513   -2.2167 H   0  0  0  0  0  0  0  0  0  0  0  0
   10.3738   -6.0586   -3.2341 H   0  0  0  0  0  0  0  0  0  0  0  0
   11.1709   -6.3939   -0.2811 H   0  0  0  0  0  0  0  0  0  0  0  0
   11.8703   -7.2476   -1.6670 H   0  0  0  0  0  0  0  0  0  0  0  0
   10.1593   -8.6655   -0.4208 H   0  0  0  0  0  0  0  0  0  0  0  0
    9.7190   -8.4012   -2.1125 H   0  0  0  0  0  0  0  0  0  0  0  0
    8.6016   -6.8706    0.3151 H   0  0  0  0  0  0  0  0  0  0  0  0
    7.7136   -8.0212   -0.7019 H   0  0  0  0  0  0  0  0  0  0  0  0
    7.2015   -5.6277   -1.2871 H   0  0  0  0  0  0  0  0  0  0  0  0
    7.8877   -6.5216   -2.6554 H   0  0  0  0  0  0  0  0  0  0  0  0
    5.3063   -1.9965   -0.3072 H   0  0  0  0  0  0  0  0  0  0  0  0
    3.0755   -1.2290    0.3806 H   0  0  0  0  0  0  0  0  0  0  0  0
  1  2  3  0
  2  3  1  0
  3  4  2  0
  3 21  1  0
  4  5  1  0
  4 22  1  0
  5  6  2  0
  5 23  1  0
  6  7  1  0
  6 20  1  0
  7  8  2  0
  7 24  1  0
  8  9  1  0
  8 18  1  0
  9 10  2  0
 10 11  1  0
 10 17  1  0
 11 12  1  0
 11 16  1  0
 12 13  1  0
 12 25  1  0
 12 26  1  0
 13 14  1  0
 13 27  1  0
 13 28  1  0
 14 15  1  0
 14 29  1  0
 14 30  1  0
 15 16  1  0
 15 31  1  0
 15 32  1  0
 16 33  1  0
 16 34  1  0
 17 18  2  0
 18 19  1  0
 20 21  2  0
 20 35  1  0
 21 36  1  0
M  CHG  2   9   1  19  -1
M  END

