
     RDKit          3D

 40 40  0  0  0  0  0  0  0  0999 V2000
    1.0409   -0.1007   -0.7152 C   0  0  0  0  0  0  0  0  0  0  0  0
    2.4673   -0.2016   -0.2434 C   0  0  0  0  0  0  0  0  0  0  0  0
    3.4151    0.8615   -0.4428 C   0  0  0  0  0  0  0  0  0  0  0  0
    4.6689    0.5942    0.0398 C   0  0  0  0  0  0  0  0  0  0  0  0
    5.8990    1.4598   -0.0234 C   0  0  0  0  0  0  0  0  0  0  0  0
    5.5484    2.8696   -0.0291 N   0  0  0  0  0  0  0  0  0  0  0  0
    6.6753    3.7814   -0.1104 C   0  0  0  0  0  0  0  0  0  0  0  0
    6.2183    5.2491   -0.2159 C   0  0  1  0  0  0  0  0  0  0  0  0
    5.3180    5.6750    0.8572 N   0  0  0  0  0  0  0  0  0  0  0  0
    7.4051    6.2253   -0.2621 C   0  0  0  0  0  0  0  0  0  0  0  0
    8.4227    6.0662   -1.4077 C   0  0  1  0  0  0  0  0  0  0  0  0
    7.7764    6.2000   -2.7933 C   0  0  0  0  0  0  0  0  0  0  0  0
    9.5634    7.0798   -1.2415 C   0  0  0  0  0  0  0  0  0  0  0  0
    4.7129   -0.9882    0.7652 S   0  0  0  0  0  0  0  0  0  0  0  0
    3.0270   -1.2852    0.4008 C   0  0  0  0  0  0  0  0  0  0  0  0
    2.4118   -2.6000    0.7809 C   0  0  0  0  0  0  0  0  0  0  0  0
    0.5732    0.8343   -0.3644 H   0  0  0  0  0  0  0  0  0  0  0  0
    0.4213   -0.9364   -0.3608 H   0  0  0  0  0  0  0  0  0  0  0  0
    0.9839   -0.0925   -1.8176 H   0  0  0  0  0  0  0  0  0  0  0  0
    3.1740    1.8068   -0.9318 H   0  0  0  0  0  0  0  0  0  0  0  0
    6.4583    1.2444   -0.9542 H   0  0  0  0  0  0  0  0  0  0  0  0
    6.5906    1.1796    0.8047 H   0  0  0  0  0  0  0  0  0  0  0  0
    4.9920    3.0776    0.7992 H   0  0  0  0  0  0  0  0  0  0  0  0
    7.2641    3.5132   -1.0043 H   0  0  0  0  0  0  0  0  0  0  0  0
    7.3737    3.6847    0.7569 H   0  0  0  0  0  0  0  0  0  0  0  0
    5.6402    5.3384   -1.1515 H   0  0  0  0  0  0  0  0  0  0  0  0
    5.7356    5.5150    1.7758 H   0  0  0  0  0  0  0  0  0  0  0  0
    4.4331    5.1711    0.8269 H   0  0  0  0  0  0  0  0  0  0  0  0
    7.9457    6.1537    0.7011 H   0  0  0  0  0  0  0  0  0  0  0  0
    6.9813    7.2438   -0.2921 H   0  0  0  0  0  0  0  0  0  0  0  0
    8.8721    5.0580   -1.3403 H   0  0  0  0  0  0  0  0  0  0  0  0
    7.2844    7.1819   -2.9041 H   0  0  0  0  0  0  0  0  0  0  0  0
    7.0159    5.4251   -2.9777 H   0  0  0  0  0  0  0  0  0  0  0  0
    8.5317    6.1149   -3.5915 H   0  0  0  0  0  0  0  0  0  0  0  0
    9.1840    8.1143   -1.3057 H   0  0  0  0  0  0  0  0  0  0  0  0
   10.3282    6.9565   -2.0255 H   0  0  0  0  0  0  0  0  0  0  0  0
   10.0625    6.9701   -0.2648 H   0  0  0  0  0  0  0  0  0  0  0  0
    2.6626   -2.8852    1.8156 H   0  0  0  0  0  0  0  0  0  0  0  0
    2.7521   -3.4209    0.1255 H   0  0  0  0  0  0  0  0  0  0  0  0
    1.3157   -2.5539    0.7071 H   0  0  0  0  0  0  0  0  0  0  0  0
  1  2  1  0
  1 17  1  0
  1 18  1  0
  1 19  1  0
  2  3  1  0
  2 15  2  0
  3  4  2  0
  3 20  1  0
  4  5  1  0
  4 14  1  0
  5  6  1  0
  5 21  1  0
  5 22  1  0
  6  7  1  0
  6 23  1  0
  7  8  1  0
  7 24  1  0
  7 25  1  0
  8  9  1  0
  8 10  1  0
  8 26  1  6
  9 27  1  0
  9 28  1  0
 10 11  1  0
 10 29  1  0
 10 30  1  0
 11 12  1  0
 11 13  1  0
 11 31  1  6
 12 32  1  0
 12 33  1  0
 12 34  1  0
 13 35  1  0
 13 36  1  0
 13 37  1  0
 14 15  1  0
 15 16  1  0
 16 38  1  0
 16 39  1  0
 16 40  1  0
M  END

