
     RDKit          3D

 53 57  0  0  0  0  0  0  0  0999 V2000
    1.0002    0.3826    0.2621 O   0  0  0  0  0  0  0  0  0  0  0  0
    2.1274    0.1455   -0.1423 C   0  0  0  0  0  0  0  0  0  0  0  0
    2.8288   -1.1615    0.2614 C   0  0  0  0  0  0  0  0  0  0  0  0
    2.7878   -2.4941   -1.0127 S   0  0  0  0  0  0  0  0  0  0  0  0
    4.1816   -2.0392   -1.9562 C   0  0  0  0  0  0  0  0  0  0  0  0
    4.9259   -0.9737   -1.8900 N   0  0  0  0  0  0  0  0  0  0  0  0
    5.9030   -1.1175   -2.8535 N   0  0  0  0  0  0  0  0  0  0  0  0
    5.6953   -2.2518   -3.4549 C   0  0  0  0  0  0  0  0  0  0  0  0
    6.4024   -2.9152   -4.5505 C   0  0  0  0  0  0  0  0  0  0  0  0
    5.9044   -4.1378   -4.9930 C   0  0  0  0  0  0  0  0  0  0  0  0
    6.5210   -4.8477   -6.0436 C   0  0  0  0  0  0  0  0  0  0  0  0
    7.6428   -4.3339   -6.6563 C   0  0  0  0  0  0  0  0  0  0  0  0
    8.1934   -3.0898   -6.2430 C   0  0  0  0  0  0  0  0  0  0  0  0
    9.3531   -2.5626   -6.8777 C   0  0  0  0  0  0  0  0  0  0  0  0
    9.8931   -1.3585   -6.4824 C   0  0  0  0  0  0  0  0  0  0  0  0
    9.2886   -0.6315   -5.4295 C   0  0  0  0  0  0  0  0  0  0  0  0
    8.1622   -1.1108   -4.7902 C   0  0  0  0  0  0  0  0  0  0  0  0
    7.5771   -2.3515   -5.1726 C   0  0  0  0  0  0  0  0  0  0  0  0
    4.5985   -2.8890   -2.9161 O   0  0  0  0  0  0  0  0  0  0  0  0
    2.8834    0.9551   -0.9335 N   0  0  0  0  0  0  0  0  0  0  0  0
    2.5357    2.2016   -1.5002 C   0  0  0  0  0  0  0  0  0  0  0  0
    1.3226    2.8660   -1.2536 C   0  0  0  0  0  0  0  0  0  0  0  0
    1.0586    4.0992   -1.8470 C   0  0  0  0  0  0  0  0  0  0  0  0
    1.9853    4.7248   -2.7140 C   0  0  0  0  0  0  0  0  0  0  0  0
    1.7163    5.9451   -3.2998 N   0  0  0  0  0  0  0  0  0  0  0  0
    0.4411    6.6372   -3.1727 C   0  0  0  0  0  0  0  0  0  0  0  0
    0.5373    7.7671   -4.2064 C   0  0  0  0  0  0  0  0  0  0  0  0
    2.0399    8.0756   -4.2460 C   0  0  0  0  0  0  0  0  0  0  0  0
    2.6850    6.6914   -4.0909 C   0  0  0  0  0  0  0  0  0  0  0  0
    3.2019    4.0423   -2.9557 C   0  0  0  0  0  0  0  0  0  0  0  0
    3.4643    2.8127   -2.3594 C   0  0  0  0  0  0  0  0  0  0  0  0
    2.2615   -1.5831    1.1005 H   0  0  0  0  0  0  0  0  0  0  0  0
    3.8773   -1.0126    0.5569 H   0  0  0  0  0  0  0  0  0  0  0  0
    5.0168   -4.5556   -4.5170 H   0  0  0  0  0  0  0  0  0  0  0  0
    6.1015   -5.8038   -6.3646 H   0  0  0  0  0  0  0  0  0  0  0  0
    8.1276   -4.8769   -7.4719 H   0  0  0  0  0  0  0  0  0  0  0  0
    9.8088   -3.1362   -7.6893 H   0  0  0  0  0  0  0  0  0  0  0  0
   10.7840   -0.9644   -6.9776 H   0  0  0  0  0  0  0  0  0  0  0  0
    9.7181    0.3236   -5.1162 H   0  0  0  0  0  0  0  0  0  0  0  0
    7.7057   -0.5417   -3.9823 H   0  0  0  0  0  0  0  0  0  0  0  0
    3.7919    0.5779   -1.2161 H   0  0  0  0  0  0  0  0  0  0  0  0
    0.5911    2.4074   -0.5917 H   0  0  0  0  0  0  0  0  0  0  0  0
    0.1095    4.5862   -1.6203 H   0  0  0  0  0  0  0  0  0  0  0  0
    0.2927    7.0380   -2.1483 H   0  0  0  0  0  0  0  0  0  0  0  0
   -0.4067    5.9595   -3.3755 H   0  0  0  0  0  0  0  0  0  0  0  0
   -0.0822    8.6372   -3.9422 H   0  0  0  0  0  0  0  0  0  0  0  0
    0.1992    7.4037   -5.1913 H   0  0  0  0  0  0  0  0  0  0  0  0
    2.3173    8.7159   -3.3919 H   0  0  0  0  0  0  0  0  0  0  0  0
    2.3578    8.5909   -5.1647 H   0  0  0  0  0  0  0  0  0  0  0  0
    3.6643    6.7452   -3.5831 H   0  0  0  0  0  0  0  0  0  0  0  0
    2.8618    6.2150   -5.0777 H   0  0  0  0  0  0  0  0  0  0  0  0
    3.9496    4.4693   -3.6247 H   0  0  0  0  0  0  0  0  0  0  0  0
    4.4124    2.3097   -2.5721 H   0  0  0  0  0  0  0  0  0  0  0  0
  1  2  2  0
  2  3  1  0
  2 20  1  0
  3  4  1  0
  3 32  1  0
  3 33  1  0
  4  5  1  0
  5  6  2  0
  5 19  1  0
  6  7  1  0
  7  8  2  0
  8  9  1  0
  8 19  1  0
  9 10  2  0
  9 18  1  0
 10 11  1  0
 10 34  1  0
 11 12  2  0
 11 35  1  0
 12 13  1  0
 12 36  1  0
 13 14  1  0
 13 18  2  0
 14 15  2  0
 14 37  1  0
 15 16  1  0
 15 38  1  0
 16 17  2  0
 16 39  1  0
 17 18  1  0
 17 40  1  0
 20 21  1  0
 20 41  1  0
 21 22  2  0
 21 31  1  0
 22 23  1  0
 22 42  1  0
 23 24  2  0
 23 43  1  0
 24 25  1  0
 24 30  1  0
 25 26  1  0
 25 29  1  0
 26 27  1  0
 26 44  1  0
 26 45  1  0
 27 28  1  0
 27 46  1  0
 27 47  1  0
 28 29  1  0
 28 48  1  0
 28 49  1  0
 29 50  1  0
 29 51  1  0
 30 31  2  0
 30 52  1  0
 31 53  1  0
M  END

