
     RDKit          3D

 54 57  0  0  0  0  0  0  0  0999 V2000
    2.2058  -13.2961    0.6501 C   0  0  0  0  0  0  0  0  0  0  0  0
    1.1454  -12.8920   -0.2014 O   0  0  0  0  0  0  0  0  0  0  0  0
    0.1787  -13.7595   -0.6091 C   0  0  0  0  0  0  0  0  0  0  0  0
    0.1416  -15.0926   -0.1759 C   0  0  0  0  0  0  0  0  0  0  0  0
   -0.8676  -15.9497   -0.6199 C   0  0  0  0  0  0  0  0  0  0  0  0
   -1.8508  -15.4931   -1.5003 C   0  0  0  0  0  0  0  0  0  0  0  0
   -1.8137  -14.1695   -1.9317 C   0  0  0  0  0  0  0  0  0  0  0  0
   -0.8160  -13.2777   -1.5050 C   0  0  0  0  0  0  0  0  0  0  0  0
   -0.9098  -11.8848   -2.0653 C   0  0  0  0  0  0  0  0  0  0  0  0
   -1.7731  -11.5766   -2.8789 O   0  0  0  0  0  0  0  0  0  0  0  0
    0.0226  -10.9799   -1.6094 N   0  0  0  0  0  0  0  0  0  0  0  0
    0.1942   -9.6563   -1.9740 C   0  0  0  0  0  0  0  0  0  0  0  0
    1.1869   -9.0265   -1.3917 N   0  0  0  0  0  0  0  0  0  0  0  0
    1.3152   -7.7463   -1.7990 C   0  0  0  0  0  0  0  0  0  0  0  0
    0.5376   -7.0584   -2.7319 C   0  0  0  0  0  0  0  0  0  0  0  0
    0.9956   -5.7656   -2.8715 N   0  0  0  0  0  0  0  0  0  0  0  0
    2.0016   -5.6663   -2.0345 C   0  0  0  0  0  0  0  0  0  0  0  0
    2.2722   -6.8475   -1.3734 N   0  0  0  0  0  0  0  0  0  0  0  0
    3.4227   -7.0799   -0.4845 C   0  0  2  0  0  0  0  0  0  0  0  0
    3.0952   -7.0080    0.5643 H   0  0  0  0  0  0  0  0  0  0  0  0
    4.3783   -6.0736   -0.7333 O   0  0  0  0  0  0  0  0  0  0  0  0
    5.3878   -6.5917   -1.6205 C   0  0  2  0  0  0  0  0  0  0  0  0
    6.2730   -5.9532   -1.4809 H   0  0  0  0  0  0  0  0  0  0  0  0
    5.0038   -6.5761   -3.1014 C   0  0  0  0  0  0  0  0  0  0  0  0
    4.6219   -5.2596   -3.4625 O   0  0  0  0  0  0  0  0  0  0  0  0
    4.1245   -4.9520   -4.9941 P   0  0  1  0  0  0  0  0  0  0  0  0
    5.1027   -5.2980   -6.0454 O   0  0  0  0  0  0  0  0  0  0  0  0
    2.7204   -5.6917   -5.1401 O   0  0  0  0  0  0  0  0  0  0  0  0
    3.7783   -3.3850   -4.8150 O   0  0  0  0  0  0  0  0  0  0  0  0
    5.5980   -7.9987   -1.0649 C   0  0  1  0  0  0  0  0  0  0  0  0
    6.0971   -8.6869   -1.7625 H   0  0  0  0  0  0  0  0  0  0  0  0
    6.3750   -7.9818    0.1225 O   0  0  0  0  0  0  0  0  0  0  0  0
    4.1442   -8.4529   -0.7267 C   0  0  1  0  0  0  0  0  0  0  0  0
    3.6845   -8.9669   -1.5815 H   0  0  0  0  0  0  0  0  0  0  0  0
    4.1149   -9.3120    0.3743 O   0  0  0  0  0  0  0  0  0  0  0  0
   -0.5617   -7.7502   -3.3815 C   0  0  0  0  0  0  0  0  0  0  0  0
   -1.3488   -7.3575   -4.2128 O   0  0  0  0  0  0  0  0  0  0  0  0
   -0.6393   -9.0964   -2.8900 N   0  0  0  0  0  0  0  0  0  0  0  0
   -1.3774   -9.6996   -3.2685 H   0  0  0  0  0  0  0  0  0  0  0  0
    2.8431  -12.4100    0.7723 H   0  0  0  0  0  0  0  0  0  0  0  0
    2.7934  -14.1119    0.1968 H   0  0  0  0  0  0  0  0  0  0  0  0
    1.8293  -13.6181    1.6354 H   0  0  0  0  0  0  0  0  0  0  0  0
    0.9001  -15.4670    0.5110 H   0  0  0  0  0  0  0  0  0  0  0  0
   -0.8789  -16.9849   -0.2695 H   0  0  0  0  0  0  0  0  0  0  0  0
   -2.6392  -16.1634   -1.8484 H   0  0  0  0  0  0  0  0  0  0  0  0
   -2.5631  -13.7785   -2.6220 H   0  0  0  0  0  0  0  0  0  0  0  0
    0.7110  -11.3166   -0.9359 H   0  0  0  0  0  0  0  0  0  0  0  0
    2.6329   -4.7928   -1.8970 H   0  0  0  0  0  0  0  0  0  0  0  0
    4.1837   -7.2833   -3.3161 H   0  0  0  0  0  0  0  0  0  0  0  0
    5.8806   -6.8971   -3.6916 H   0  0  0  0  0  0  0  0  0  0  0  0
    2.0079   -5.4833   -4.4851 H   0  0  0  0  0  0  0  0  0  0  0  0
    4.2925   -2.8569   -5.4432 H   0  0  0  0  0  0  0  0  0  0  0  0
    6.1693   -7.1634    0.6009 H   0  0  0  0  0  0  0  0  0  0  0  0
    4.9617   -9.1694    0.8344 H   0  0  0  0  0  0  0  0  0  0  0  0
  1  2  1  0
  1 40  1  0
  1 41  1  0
  1 42  1  0
  2  3  1  0
  3  4  2  0
  3  8  1  0
  4  5  1  0
  4 43  1  0
  5  6  2  0
  5 44  1  0
  6  7  1  0
  6 45  1  0
  7  8  2  0
  7 46  1  0
  8  9  1  0
  9 10  2  0
  9 11  1  0
 11 12  1  0
 11 47  1  0
 12 13  2  0
 12 38  1  0
 13 14  1  0
 14 15  2  0
 14 18  1  0
 15 16  1  0
 15 36  1  0
 16 17  2  0
 17 18  1  0
 17 48  1  0
 18 19  1  0
 19 20  1  1
 19 21  1  0
 19 33  1  0
 21 22  1  0
 22 23  1  6
 22 24  1  0
 22 30  1  0
 24 25  1  0
 24 49  1  0
 24 50  1  0
 26 25  1  1
 26 27  2  0
 26 28  1  0
 26 29  1  0
 28 51  1  0
 29 52  1  0
 30 31  1  6
 30 32  1  0
 30 33  1  0
 32 53  1  0
 33 34  1  6
 33 35  1  0
 35 54  1  0
 36 37  2  0
 36 38  1  0
 38 39  1  0
M  END

