
     RDKit          3D

 57 58  0  0  0  0  0  0  0  0999 V2000
    2.7588    0.1208   -0.4810 C   0  0  0  0  0  0  0  0  0  0  0  0
    2.3881   -1.1198    0.1154 O   0  0  0  0  0  0  0  0  0  0  0  0
    2.9668   -1.6346    1.2089 C   0  0  0  0  0  0  0  0  0  0  0  0
    3.4479   -0.9085    2.3030 C   0  0  0  0  0  0  0  0  0  0  0  0
    3.1104    0.5298    2.4425 C   0  0  0  0  0  0  0  0  0  0  0  0
    2.0820    1.0523    2.0795 O   0  0  0  0  0  0  0  0  0  0  0  0
    4.0510    1.3128    3.0458 O   0  0  0  0  0  0  0  0  0  0  0  0
    3.9917   -1.6860    3.4255 C   0  0  0  0  0  0  0  0  0  0  0  0
    4.3692   -1.0209    4.7333 C   0  0  0  0  0  0  0  0  0  0  0  0
    4.0813   -3.0337    3.3386 C   0  0  0  0  0  0  0  0  0  0  0  0
    3.7813   -3.8255    2.1022 C   0  0  2  0  0  0  0  0  0  0  0  0
    4.9414   -4.4333    1.4565 N   0  0  0  0  0  0  0  0  0  0  0  0
    6.1126   -3.6253    1.1507 C   0  0  0  0  0  0  0  0  0  0  0  0
    7.2828   -3.9419    2.0876 C   0  0  0  0  0  0  0  0  0  0  0  0
    7.5520   -5.3322    2.1186 O   0  0  0  0  0  0  0  0  0  0  0  0
    6.4305   -6.0811    2.5441 C   0  0  0  0  0  0  0  0  0  0  0  0
    5.2370   -5.8465    1.6125 C   0  0  0  0  0  0  0  0  0  0  0  0
    3.0355   -2.9955    1.1355 N   0  0  0  0  0  0  0  0  0  0  0  0
    2.4529   -3.7149   -0.0016 C   0  0  0  0  0  0  0  0  0  0  0  0
    0.9457   -3.9600    0.1427 C   0  0  0  0  0  0  0  0  0  0  0  0
    0.3893   -4.7801   -1.0261 C   0  0  0  0  0  0  0  0  0  0  0  0
   -1.1313   -5.0916   -1.0174 C   0  0  1  0  0  0  0  0  0  0  0  0
   -1.9577   -3.7919   -1.0505 C   0  0  0  0  0  0  0  0  0  0  0  0
   -1.4506   -5.9176   -2.2785 C   0  0  0  0  0  0  0  0  0  0  0  0
   -1.5156   -5.9150    0.2269 C   0  0  0  0  0  0  0  0  0  0  0  0
    2.6309   -0.0140   -1.5649 H   0  0  0  0  0  0  0  0  0  0  0  0
    3.8121    0.3600   -0.2638 H   0  0  0  0  0  0  0  0  0  0  0  0
    2.1214    0.9333   -0.1128 H   0  0  0  0  0  0  0  0  0  0  0  0
    4.8678    0.8084    3.1556 H   0  0  0  0  0  0  0  0  0  0  0  0
    3.5945   -0.3234    5.0866 H   0  0  0  0  0  0  0  0  0  0  0  0
    5.3089   -0.4436    4.6622 H   0  0  0  0  0  0  0  0  0  0  0  0
    4.5281   -1.7814    5.5107 H   0  0  0  0  0  0  0  0  0  0  0  0
    4.4217   -3.6157    4.1988 H   0  0  0  0  0  0  0  0  0  0  0  0
    3.1359   -4.6847    2.3644 H   0  0  0  0  0  0  0  0  0  0  0  0
    5.8542   -2.5578    1.2161 H   0  0  0  0  0  0  0  0  0  0  0  0
    6.4350   -3.8243    0.1091 H   0  0  0  0  0  0  0  0  0  0  0  0
    7.0504   -3.5756    3.1086 H   0  0  0  0  0  0  0  0  0  0  0  0
    8.2062   -3.4486    1.7443 H   0  0  0  0  0  0  0  0  0  0  0  0
    6.1563   -5.8042    3.5846 H   0  0  0  0  0  0  0  0  0  0  0  0
    6.7327   -7.1406    2.5387 H   0  0  0  0  0  0  0  0  0  0  0  0
    4.3462   -6.3723    1.9938 H   0  0  0  0  0  0  0  0  0  0  0  0
    5.4838   -6.2891    0.6257 H   0  0  0  0  0  0  0  0  0  0  0  0
    2.9980   -4.6663   -0.0820 H   0  0  0  0  0  0  0  0  0  0  0  0
    2.6540   -3.1605   -0.9285 H   0  0  0  0  0  0  0  0  0  0  0  0
    0.4396   -2.9842    0.2061 H   0  0  0  0  0  0  0  0  0  0  0  0
    0.7598   -4.4767    1.0997 H   0  0  0  0  0  0  0  0  0  0  0  0
    0.9353   -5.7407   -1.0789 H   0  0  0  0  0  0  0  0  0  0  0  0
    0.6241   -4.2531   -1.9696 H   0  0  0  0  0  0  0  0  0  0  0  0
   -1.6921   -3.1719   -1.9230 H   0  0  0  0  0  0  0  0  0  0  0  0
   -1.8057   -3.1820   -0.1463 H   0  0  0  0  0  0  0  0  0  0  0  0
   -3.0349   -4.0167   -1.1172 H   0  0  0  0  0  0  0  0  0  0  0  0
   -1.1952   -5.3613   -3.1957 H   0  0  0  0  0  0  0  0  0  0  0  0
   -2.5227   -6.1696   -2.3275 H   0  0  0  0  0  0  0  0  0  0  0  0
   -0.8832   -6.8630   -2.2919 H   0  0  0  0  0  0  0  0  0  0  0  0
   -1.3588   -5.3510    1.1598 H   0  0  0  0  0  0  0  0  0  0  0  0
   -0.9244   -6.8441    0.2898 H   0  0  0  0  0  0  0  0  0  0  0  0
   -2.5799   -6.1999    0.1923 H   0  0  0  0  0  0  0  0  0  0  0  0
  1  2  1  0
  1 26  1  0
  1 27  1  0
  1 28  1  0
  2  3  1  0
  3  4  2  0
  3 18  1  0
  4  5  1  0
  4  8  1  0
  5  6  2  0
  5  7  1  0
  7 29  1  0
  8  9  1  0
  8 10  2  0
  9 30  1  0
  9 31  1  0
  9 32  1  0
 10 11  1  0
 10 33  1  0
 11 12  1  0
 11 18  1  0
 11 34  1  1
 12 13  1  0
 12 17  1  0
 13 14  1  0
 13 35  1  0
 13 36  1  0
 14 15  1  0
 14 37  1  0
 14 38  1  0
 15 16  1  0
 16 17  1  0
 16 39  1  0
 16 40  1  0
 17 41  1  0
 17 42  1  0
 18 19  1  0
 19 20  1  0
 19 43  1  0
 19 44  1  0
 20 21  1  0
 20 45  1  0
 20 46  1  0
 22 21  1  1
 21 47  1  0
 21 48  1  0
 22 23  1  0
 22 24  1  0
 22 25  1  0
 23 49  1  0
 23 50  1  0
 23 51  1  0
 24 52  1  0
 24 53  1  0
 24 54  1  0
 25 55  1  0
 25 56  1  0
 25 57  1  0
M  END

