
     RDKit          3D

 34 35  0  0  0  0  0  0  0  0999 V2000
   12.4237   -8.4833    3.0342 C   0  0  0  0  0  0  0  0  0  0  0  0
   11.3425   -9.4749    3.4280 C   0  0  0  0  0  0  0  0  0  0  0  0
   10.0828   -9.1642    2.7959 O   0  0  0  0  0  0  0  0  0  0  0  0
    9.2880   -8.2890    3.4118 C   0  0  0  0  0  0  0  0  0  0  0  0
    9.5162   -7.7303    4.4558 O   0  0  0  0  0  0  0  0  0  0  0  0
    8.0367   -8.0748    2.6366 C   0  0  0  0  0  0  0  0  0  0  0  0
    7.6498   -8.5837    1.5101 N   0  0  0  0  0  0  0  0  0  0  0  0
    6.4123   -8.0482    1.2352 N   0  0  0  0  0  0  0  0  0  0  0  0
    6.1354   -7.2420    2.2269 C   0  0  0  0  0  0  0  0  0  0  0  0
    4.7304   -6.2467    2.4867 S   0  0  0  0  0  0  0  0  0  0  0  0
    3.7960   -6.7152    0.9754 C   0  0  0  0  0  0  0  0  0  0  0  0
    3.0039   -8.0313    1.1031 C   0  0  1  0  0  0  0  0  0  0  0  0
    2.0294   -7.9424    2.1165 O   0  0  0  0  0  0  0  0  0  0  0  0
    2.4446   -8.4418   -0.2591 C   0  0  0  0  0  0  0  0  0  0  0  0
    3.3232   -8.7309   -1.3180 C   0  0  0  0  0  0  0  0  0  0  0  0
    2.8288   -9.1011   -2.5697 C   0  0  0  0  0  0  0  0  0  0  0  0
    1.4485   -9.1915   -2.7835 C   0  0  0  0  0  0  0  0  0  0  0  0
    0.5698   -8.9224   -1.7323 C   0  0  0  0  0  0  0  0  0  0  0  0
    1.0659   -8.5554   -0.4762 C   0  0  0  0  0  0  0  0  0  0  0  0
    7.1155   -7.2091    3.1507 O   0  0  0  0  0  0  0  0  0  0  0  0
   13.3880   -8.7954    3.4660 H   0  0  0  0  0  0  0  0  0  0  0  0
   12.1912   -7.4767    3.4121 H   0  0  0  0  0  0  0  0  0  0  0  0
   12.5348   -8.4364    1.9399 H   0  0  0  0  0  0  0  0  0  0  0  0
   11.1978   -9.4928    4.5182 H   0  0  0  0  0  0  0  0  0  0  0  0
   11.5802  -10.4891    3.0778 H   0  0  0  0  0  0  0  0  0  0  0  0
    4.5069   -6.7445    0.1409 H   0  0  0  0  0  0  0  0  0  0  0  0
    3.1053   -5.8732    0.8046 H   0  0  0  0  0  0  0  0  0  0  0  0
    3.7003   -8.8181    1.4336 H   0  0  0  0  0  0  0  0  0  0  0  0
    1.4193   -7.2246    1.8959 H   0  0  0  0  0  0  0  0  0  0  0  0
    4.4037   -8.6826   -1.1528 H   0  0  0  0  0  0  0  0  0  0  0  0
    3.5249   -9.3267   -3.3818 H   0  0  0  0  0  0  0  0  0  0  0  0
    1.0618   -9.4814   -3.7638 H   0  0  0  0  0  0  0  0  0  0  0  0
   -0.5094   -9.0073   -1.8841 H   0  0  0  0  0  0  0  0  0  0  0  0
    0.3739   -8.3837    0.3506 H   0  0  0  0  0  0  0  0  0  0  0  0
  1  2  1  0
  1 21  1  0
  1 22  1  0
  1 23  1  0
  2  3  1  0
  2 24  1  0
  2 25  1  0
  3  4  1  0
  4  5  2  0
  4  6  1  0
  6  7  2  0
  6 20  1  0
  7  8  1  0
  8  9  2  0
  9 10  1  0
  9 20  1  0
 10 11  1  0
 11 12  1  0
 11 26  1  0
 11 27  1  0
 12 13  1  0
 12 14  1  0
 12 28  1  1
 13 29  1  0
 14 15  2  0
 14 19  1  0
 15 16  1  0
 15 30  1  0
 16 17  2  0
 16 31  1  0
 17 18  1  0
 17 32  1  0
 18 19  2  0
 18 33  1  0
 19 34  1  0
M  END

