
     RDKit          3D

 38 39  0  0  0  0  0  0  0  0999 V2000
    0.8617    0.2906   -0.1229 C   0  0  0  0  0  0  0  0  0  0  0  0
    2.3733    0.1065    0.0644 C   0  0  1  0  0  0  0  0  0  0  0  0
    2.6787   -0.4940    1.4435 C   0  0  0  0  0  0  0  0  0  0  0  0
    2.9644   -0.7253   -1.0900 C   0  0  0  0  0  0  0  0  0  0  0  0
    4.4941   -0.8129   -1.1271 C   0  0  0  0  0  0  0  0  0  0  0  0
    5.0239   -1.6062   -2.3245 C   0  0  0  0  0  0  0  0  0  0  0  0
    6.5705   -1.6869   -2.3960 C   0  0  1  0  0  0  0  0  0  0  0  0
    7.2287   -2.3061   -1.2437 N   0  0  0  0  0  0  0  0  0  0  0  0
    7.0036   -2.4025   -3.6405 C   0  0  0  0  0  0  0  0  0  0  0  0
    7.6555   -2.0099   -4.7703 C   0  0  0  0  0  0  0  0  0  0  0  0
    7.7631   -3.1782   -5.6137 C   0  0  0  0  0  0  0  0  0  0  0  0
    8.3075   -3.4636   -6.8772 C   0  0  0  0  0  0  0  0  0  0  0  0
    8.2088   -4.7670   -7.3620 C   0  0  0  0  0  0  0  0  0  0  0  0
    7.5829   -5.7874   -6.6196 C   0  0  0  0  0  0  0  0  0  0  0  0
    7.0389   -5.5161   -5.3630 C   0  0  0  0  0  0  0  0  0  0  0  0
    6.1879   -6.8661   -4.3330 Br  0  0  0  0  0  0  0  0  0  0  0  0
    7.1388   -4.2118   -4.8811 C   0  0  0  0  0  0  0  0  0  0  0  0
    6.6793   -3.7384   -3.6952 O   0  0  0  0  0  0  0  0  0  0  0  0
    0.4310    0.9189    0.6736 H   0  0  0  0  0  0  0  0  0  0  0  0
    0.3397   -0.6817   -0.0974 H   0  0  0  0  0  0  0  0  0  0  0  0
    0.6289    0.7667   -1.0893 H   0  0  0  0  0  0  0  0  0  0  0  0
    2.8408    1.1094    0.0224 H   0  0  0  0  0  0  0  0  0  0  0  0
    2.2511   -1.5080    1.5339 H   0  0  0  0  0  0  0  0  0  0  0  0
    2.2444    0.1211    2.2481 H   0  0  0  0  0  0  0  0  0  0  0  0
    3.7601   -0.5695    1.6368 H   0  0  0  0  0  0  0  0  0  0  0  0
    2.6140   -0.2965   -2.0463 H   0  0  0  0  0  0  0  0  0  0  0  0
    2.5415   -1.7472   -1.0489 H   0  0  0  0  0  0  0  0  0  0  0  0
    4.8622   -1.2773   -0.1965 H   0  0  0  0  0  0  0  0  0  0  0  0
    4.9174    0.2094   -1.1478 H   0  0  0  0  0  0  0  0  0  0  0  0
    4.6530   -1.1521   -3.2606 H   0  0  0  0  0  0  0  0  0  0  0  0
    4.6215   -2.6347   -2.3014 H   0  0  0  0  0  0  0  0  0  0  0  0
    6.9621   -0.6586   -2.4843 H   0  0  0  0  0  0  0  0  0  0  0  0
    6.8991   -3.2654   -1.1265 H   0  0  0  0  0  0  0  0  0  0  0  0
    7.0024   -1.8048   -0.3863 H   0  0  0  0  0  0  0  0  0  0  0  0
    8.0260   -1.0083   -4.9776 H   0  0  0  0  0  0  0  0  0  0  0  0
    8.7970   -2.6842   -7.4652 H   0  0  0  0  0  0  0  0  0  0  0  0
    8.6249   -5.0135   -8.3419 H   0  0  0  0  0  0  0  0  0  0  0  0
    7.5187   -6.7996   -7.0220 H   0  0  0  0  0  0  0  0  0  0  0  0
  1  2  1  0
  1 19  1  0
  1 20  1  0
  1 21  1  0
  2  3  1  0
  2  4  1  0
  2 22  1  1
  3 23  1  0
  3 24  1  0
  3 25  1  0
  4  5  1  0
  4 26  1  0
  4 27  1  0
  5  6  1  0
  5 28  1  0
  5 29  1  0
  6  7  1  0
  6 30  1  0
  6 31  1  0
  7  8  1  0
  7  9  1  0
  7 32  1  6
  8 33  1  0
  8 34  1  0
  9 10  2  0
  9 18  1  0
 10 11  1  0
 10 35  1  0
 11 12  2  0
 11 17  1  0
 12 13  1  0
 12 36  1  0
 13 14  2  0
 13 37  1  0
 14 15  1  0
 14 38  1  0
 15 16  1  0
 15 17  2  0
 17 18  1  0
M  END

