
     RDKit          3D

 42 48  0  0  0  0  0  0  0  0999 V2000
    9.0643    2.5011    0.5509 C   0  0  0  0  0  0  0  0  0  0  0  0
    8.5762    3.6374    1.1984 C   0  0  0  0  0  0  0  0  0  0  0  0
    7.4017    4.2758    0.7536 C   0  0  0  0  0  0  0  0  0  0  0  0
    6.7284    3.7557   -0.3475 C   0  0  0  0  0  0  0  0  0  0  0  0
    7.2369    2.5961   -1.0008 C   0  0  0  0  0  0  0  0  0  0  0  0
    8.3943    1.9648   -0.5644 C   0  0  0  0  0  0  0  0  0  0  0  0
    6.4389    2.2042   -2.0940 N   0  0  0  0  0  0  0  0  0  0  0  0
    5.4552    3.0574   -2.1637 C   0  0  0  0  0  0  0  0  0  0  0  0
    4.3936    3.0239   -3.1532 C   0  0  0  0  0  0  0  0  0  0  0  0
    3.4224    3.9706   -3.1207 C   0  0  0  0  0  0  0  0  0  0  0  0
    3.4595    4.9987   -2.0998 C   0  0  0  0  0  0  0  0  0  0  0  0
    4.5402    5.0577   -1.0687 C   0  0  0  0  0  0  0  0  0  0  0  0
    5.5172    4.1058   -1.1027 C   0  0  0  0  0  0  0  0  0  0  0  0
    4.1815    6.2295   -0.2659 C   0  0  0  0  0  0  0  0  0  0  0  0
    4.7359    6.8820    0.8656 C   0  0  0  0  0  0  0  0  0  0  0  0
    4.1109    7.9993    1.3775 C   0  0  0  0  0  0  0  0  0  0  0  0
    2.9108    8.5265    0.7997 C   0  0  0  0  0  0  0  0  0  0  0  0
    2.2679    9.6631    1.3135 C   0  0  0  0  0  0  0  0  0  0  0  0
    1.0919   10.1713    0.7400 C   0  0  0  0  0  0  0  0  0  0  0  0
    0.4300   11.3308    1.2584 C   0  0  0  0  0  0  0  0  0  0  0  0
   -0.7191   11.8066    0.6779 C   0  0  0  0  0  0  0  0  0  0  0  0
   -1.2816   11.1523   -0.4604 C   0  0  0  0  0  0  0  0  0  0  0  0
   -0.6796   10.0384   -0.9889 C   0  0  0  0  0  0  0  0  0  0  0  0
    0.5212    9.5073   -0.4151 C   0  0  0  0  0  0  0  0  0  0  0  0
    1.1566    8.3714   -0.9351 C   0  0  0  0  0  0  0  0  0  0  0  0
    2.3319    7.8689   -0.3573 C   0  0  0  0  0  0  0  0  0  0  0  0
    3.0078    6.7191   -0.8542 C   0  0  0  0  0  0  0  0  0  0  0  0
    2.5884    5.9603   -1.9622 N   0  0  0  0  0  0  0  0  0  0  0  0
    9.9773    2.0224    0.9134 H   0  0  0  0  0  0  0  0  0  0  0  0
    9.1095    4.0406    2.0624 H   0  0  0  0  0  0  0  0  0  0  0  0
    7.0431    5.1615    1.2769 H   0  0  0  0  0  0  0  0  0  0  0  0
    8.7622    1.0774   -1.0829 H   0  0  0  0  0  0  0  0  0  0  0  0
    4.4161    2.2267   -3.8982 H   0  0  0  0  0  0  0  0  0  0  0  0
    2.6007    3.9950   -3.8389 H   0  0  0  0  0  0  0  0  0  0  0  0
    5.6468    6.5141    1.3362 H   0  0  0  0  0  0  0  0  0  0  0  0
    4.5324    8.5069    2.2487 H   0  0  0  0  0  0  0  0  0  0  0  0
    2.6944   10.1678    2.1851 H   0  0  0  0  0  0  0  0  0  0  0  0
    0.8598   11.8323    2.1298 H   0  0  0  0  0  0  0  0  0  0  0  0
   -1.2124   12.6927    1.0854 H   0  0  0  0  0  0  0  0  0  0  0  0
   -2.1972   11.5466   -0.9084 H   0  0  0  0  0  0  0  0  0  0  0  0
   -1.1072    9.5350   -1.8600 H   0  0  0  0  0  0  0  0  0  0  0  0
    0.7432    7.8565   -1.8047 H   0  0  0  0  0  0  0  0  0  0  0  0
  1  2  2  0
  1  6  1  0
  1 29  1  0
  2  3  1  0
  2 30  1  0
  3  4  2  0
  3 31  1  0
  4  5  1  0
  4 13  1  0
  5  6  2  0
  5  7  1  0
  6 32  1  0
  7  8  2  0
  8  9  1  0
  8 13  1  0
  9 10  2  0
  9 33  1  0
 10 11  1  0
 10 34  1  0
 11 12  1  0
 11 28  2  0
 12 13  2  0
 12 14  1  0
 14 15  2  0
 14 27  1  0
 15 16  1  0
 15 35  1  0
 16 17  2  0
 16 36  1  0
 17 18  1  0
 17 26  1  0
 18 19  2  0
 18 37  1  0
 19 20  1  0
 19 24  1  0
 20 21  2  0
 20 38  1  0
 21 22  1  0
 21 39  1  0
 22 23  2  0
 22 40  1  0
 23 24  1  0
 23 41  1  0
 24 25  2  0
 25 26  1  0
 25 42  1  0
 26 27  2  0
 27 28  1  0
M  END

