
     RDKit          3D

 41 43  0  0  0  0  0  0  0  0999 V2000
    0.2445    0.3696    0.1942 C   0  0  0  0  0  0  0  0  0  0  0  0
    1.7453    0.0921    0.0616 C   0  0  1  0  0  0  0  0  0  0  0  0
    1.9389   -0.1665   -0.9913 H   0  0  0  0  0  0  0  0  0  0  0  0
    2.5328    1.3058    0.2963 N   0  0  0  0  0  0  0  0  0  0  0  0
    2.8463    2.1776   -0.7040 C   0  0  0  0  0  0  0  0  0  0  0  0
    2.5019    2.0100   -1.8652 O   0  0  0  0  0  0  0  0  0  0  0  0
    3.6593    3.3902   -0.3040 C   0  0  0  0  0  0  0  0  0  0  0  0
    3.6114    4.5146   -1.1823 C   0  0  0  0  0  0  0  0  0  0  0  0
    4.3465    5.6218   -0.8665 C   0  0  0  0  0  0  0  0  0  0  0  0
    5.1277    5.6824    0.2520 N   0  0  0  0  0  0  0  0  0  0  0  0
    5.9084    6.8717    0.5743 C   0  0  0  0  0  0  0  0  0  0  0  0
    5.2439    4.6031    1.1658 C   0  0  0  0  0  0  0  0  0  0  0  0
    5.9662    4.7108    2.1475 O   0  0  0  0  0  0  0  0  0  0  0  0
    4.4541    3.4348    0.8145 C   0  0  0  0  0  0  0  0  0  0  0  0
    2.2818   -1.0358    0.9392 C   0  0  0  0  0  0  0  0  0  0  0  0
    1.5206   -1.6621    1.9342 C   0  0  0  0  0  0  0  0  0  0  0  0
    2.0622   -2.6943    2.7100 C   0  0  0  0  0  0  0  0  0  0  0  0
    3.3757   -3.1079    2.5092 C   0  0  0  0  0  0  0  0  0  0  0  0
    4.1603   -2.4826    1.5175 C   0  0  0  0  0  0  0  0  0  0  0  0
    3.6063   -1.4642    0.7418 C   0  0  0  0  0  0  0  0  0  0  0  0
    5.4913   -2.9021    1.3767 N   0  0  0  0  0  0  0  0  0  0  0  0
    5.9928   -4.0455    1.9461 C   0  0  0  0  0  0  0  0  0  0  0  0
    7.1375   -4.4195    1.8035 O   0  0  0  0  0  0  0  0  0  0  0  0
    4.9562   -4.8514    2.7268 C   0  0  0  0  0  0  0  0  0  0  0  0
    3.9182   -4.0729    3.3034 O   0  0  0  0  0  0  0  0  0  0  0  0
   -0.0432    1.1515   -0.5231 H   0  0  0  0  0  0  0  0  0  0  0  0
   -0.0198    0.7169    1.2059 H   0  0  0  0  0  0  0  0  0  0  0  0
   -0.3467   -0.5319   -0.0284 H   0  0  0  0  0  0  0  0  0  0  0  0
    2.7328    1.5610    1.2562 H   0  0  0  0  0  0  0  0  0  0  0  0
    3.0056    4.4725   -2.0858 H   0  0  0  0  0  0  0  0  0  0  0  0
    4.3473    6.5150   -1.4951 H   0  0  0  0  0  0  0  0  0  0  0  0
    5.7564    7.6301   -0.2039 H   0  0  0  0  0  0  0  0  0  0  0  0
    6.9751    6.6141    0.6469 H   0  0  0  0  0  0  0  0  0  0  0  0
    5.6040    7.2706    1.5532 H   0  0  0  0  0  0  0  0  0  0  0  0
    4.5646    2.5914    1.4982 H   0  0  0  0  0  0  0  0  0  0  0  0
    0.4884   -1.3600    2.1137 H   0  0  0  0  0  0  0  0  0  0  0  0
    1.4758   -3.1872    3.4878 H   0  0  0  0  0  0  0  0  0  0  0  0
    4.2224   -0.9855   -0.0248 H   0  0  0  0  0  0  0  0  0  0  0  0
    6.1295   -2.3726    0.7896 H   0  0  0  0  0  0  0  0  0  0  0  0
    5.4730   -5.3708    3.5435 H   0  0  0  0  0  0  0  0  0  0  0  0
    4.5355   -5.6165    2.0430 H   0  0  0  0  0  0  0  0  0  0  0  0
  1  2  1  0
  1 26  1  0
  1 27  1  0
  1 28  1  0
  2  3  1  6
  2  4  1  0
  2 15  1  0
  4  5  1  0
  4 29  1  0
  5  6  2  0
  5  7  1  0
  7  8  1  0
  7 14  2  0
  8  9  2  0
  8 30  1  0
  9 10  1  0
  9 31  1  0
 10 11  1  0
 10 12  1  0
 11 32  1  0
 11 33  1  0
 11 34  1  0
 12 13  2  0
 12 14  1  0
 14 35  1  0
 15 16  2  0
 15 20  1  0
 16 17  1  0
 16 36  1  0
 17 18  2  0
 17 37  1  0
 18 19  1  0
 18 25  1  0
 19 20  2  0
 19 21  1  0
 20 38  1  0
 21 22  1  0
 21 39  1  0
 22 23  2  0
 22 24  1  0
 24 25  1  0
 24 40  1  0
 24 41  1  0
M  END

