
     RDKit          3D

 36 39  0  0  0  0  0  0  0  0999 V2000
    1.9082    0.2247    2.2190 Br  0  0  0  0  0  0  0  0  0  0  0  0
    3.3497    0.4018    0.9740 C   0  0  0  0  0  0  0  0  0  0  0  0
    3.2410   -0.2416   -0.2775 C   0  0  0  0  0  0  0  0  0  0  0  0
    4.2673   -0.1373   -1.2125 C   0  0  0  0  0  0  0  0  0  0  0  0
    5.3954    0.6180   -0.8689 C   0  0  0  0  0  0  0  0  0  0  0  0
    6.5457    0.8949   -1.5781 N   0  0  0  0  0  0  0  0  0  0  0  0
    6.7340    0.5876   -2.5234 H   0  0  0  0  0  0  0  0  0  0  0  0
    7.3851    1.7010   -0.8250 C   0  0  0  0  0  0  0  0  0  0  0  0
    8.7192    2.1336   -1.3545 C   0  0  0  0  0  0  0  0  0  0  0  0
    9.7947    1.0149   -1.4156 C   0  0  0  0  0  0  0  0  0  0  0  0
   10.3829    0.6083   -0.0985 C   0  0  0  0  0  0  0  0  0  0  0  0
   11.7028    0.6108    0.3007 C   0  0  0  0  0  0  0  0  0  0  0  0
   11.7499    0.1113    1.6469 C   0  0  0  0  0  0  0  0  0  0  0  0
   12.7753   -0.1208    2.5830 C   0  0  0  0  0  0  0  0  0  0  0  0
   12.4562   -0.6195    3.8419 C   0  0  0  0  0  0  0  0  0  0  0  0
   11.1125   -0.8905    4.1771 C   0  0  0  0  0  0  0  0  0  0  0  0
   10.7192   -1.5736    5.9198 Br  0  0  0  0  0  0  0  0  0  0  0  0
   10.0657   -0.6793    3.2848 C   0  0  0  0  0  0  0  0  0  0  0  0
   10.4045   -0.1786    2.0202 C   0  0  0  0  0  0  0  0  0  0  0  0
    9.6038    0.1233    0.9412 N   0  0  0  0  0  0  0  0  0  0  0  0
    8.5907    0.0992    0.9359 H   0  0  0  0  0  0  0  0  0  0  0  0
    6.7818    1.9464    0.3925 C   0  0  0  0  0  0  0  0  0  0  0  0
    5.5115    1.2706    0.3927 C   0  0  0  0  0  0  0  0  0  0  0  0
    4.4633    1.1553    1.3266 C   0  0  0  0  0  0  0  0  0  0  0  0
    2.3467   -0.8219   -0.5084 H   0  0  0  0  0  0  0  0  0  0  0  0
    4.1849   -0.6340   -2.1823 H   0  0  0  0  0  0  0  0  0  0  0  0
    9.0927    2.9663   -0.7405 H   0  0  0  0  0  0  0  0  0  0  0  0
    8.5847    2.5329   -2.3758 H   0  0  0  0  0  0  0  0  0  0  0  0
   10.6229    1.3587   -2.0530 H   0  0  0  0  0  0  0  0  0  0  0  0
    9.3629    0.1323   -1.9241 H   0  0  0  0  0  0  0  0  0  0  0  0
   12.5463    0.9272   -0.3102 H   0  0  0  0  0  0  0  0  0  0  0  0
   13.8176    0.0890    2.3291 H   0  0  0  0  0  0  0  0  0  0  0  0
   13.2395   -0.8040    4.5783 H   0  0  0  0  0  0  0  0  0  0  0  0
    9.0332   -0.8973    3.5621 H   0  0  0  0  0  0  0  0  0  0  0  0
    7.1990    2.5583    1.1899 H   0  0  0  0  0  0  0  0  0  0  0  0
    4.5204    1.6442    2.3005 H   0  0  0  0  0  0  0  0  0  0  0  0
  1  2  1  0
  2  3  2  0
  2 24  1  0
  3  4  1  0
  3 25  1  0
  4  5  2  0
  4 26  1  0
  5  6  1  0
  5 23  1  0
  6  7  1  0
  6  8  1  0
  8  9  1  0
  8 22  2  0
  9 10  1  0
  9 27  1  0
  9 28  1  0
 10 11  1  0
 10 29  1  0
 10 30  1  0
 11 12  2  0
 11 20  1  0
 12 13  1  0
 12 31  1  0
 13 14  2  0
 13 19  1  0
 14 15  1  0
 14 32  1  0
 15 16  2  0
 15 33  1  0
 16 17  1  0
 16 18  1  0
 18 19  2  0
 18 34  1  0
 19 20  1  0
 20 21  1  0
 22 23  1  0
 22 35  1  0
 23 24  2  0
 24 36  1  0
M  END

