
     RDKit          3D

 27 28  0  0  0  0  0  0  0  0999 V2000
    1.0111    0.0647    0.0158 N   0  0  0  0  0  0  0  0  0  0  0  0
    2.4656    0.1208    0.0924 C   0  0  1  0  0  0  0  0  0  0  0  0
    3.0800    0.0982   -1.3366 C   0  0  0  0  0  0  0  0  0  0  0  0
    3.9024    0.9419   -1.6406 O   0  0  0  0  0  0  0  0  0  0  0  0
    2.7240   -0.9806   -2.3240 C   0  0  0  0  0  0  0  0  0  0  0  0
    1.6791   -1.9095   -2.1602 C   0  0  0  0  0  0  0  0  0  0  0  0
    1.4358   -2.8863   -3.1267 C   0  0  0  0  0  0  0  0  0  0  0  0
    2.2399   -2.9419   -4.2687 C   0  0  0  0  0  0  0  0  0  0  0  0
    1.9388   -4.1645   -5.4777 Cl  0  0  0  0  0  0  0  0  0  0  0  0
    3.2822   -2.0263   -4.4570 C   0  0  0  0  0  0  0  0  0  0  0  0
    3.5138   -1.0550   -3.4880 C   0  0  0  0  0  0  0  0  0  0  0  0
    3.0652    1.2973    0.9025 C   0  0  0  0  0  0  0  0  0  0  0  0
    4.3822    0.7357    1.4644 C   0  0  0  0  0  0  0  0  0  0  0  0
    4.3337   -0.6835    1.2802 O   0  0  0  0  0  0  0  0  0  0  0  0
    3.0361   -1.0669    0.9107 C   0  0  0  0  0  0  0  0  0  0  0  0
    0.6395    0.8769   -0.4775 H   0  0  0  0  0  0  0  0  0  0  0  0
    0.6089    0.0817    0.9538 H   0  0  0  0  0  0  0  0  0  0  0  0
    1.0343   -1.8349   -1.2848 H   0  0  0  0  0  0  0  0  0  0  0  0
    0.6217   -3.6022   -3.0020 H   0  0  0  0  0  0  0  0  0  0  0  0
    3.9001   -2.0834   -5.3546 H   0  0  0  0  0  0  0  0  0  0  0  0
    4.3203   -0.3302   -3.6121 H   0  0  0  0  0  0  0  0  0  0  0  0
    2.3601    1.5443    1.7125 H   0  0  0  0  0  0  0  0  0  0  0  0
    3.2179    2.1902    0.2828 H   0  0  0  0  0  0  0  0  0  0  0  0
    4.5076    0.9733    2.5367 H   0  0  0  0  0  0  0  0  0  0  0  0
    5.2615    1.1166    0.9223 H   0  0  0  0  0  0  0  0  0  0  0  0
    2.3742   -1.2322    1.7909 H   0  0  0  0  0  0  0  0  0  0  0  0
    3.0925   -2.0119    0.3511 H   0  0  0  0  0  0  0  0  0  0  0  0
  1  2  1  0
  1 16  1  0
  1 17  1  0
  2  3  1  6
  2 12  1  0
  2 15  1  0
  3  4  2  0
  3  5  1  0
  5  6  2  0
  5 11  1  0
  6  7  1  0
  6 18  1  0
  7  8  2  0
  7 19  1  0
  8  9  1  0
  8 10  1  0
 10 11  2  0
 10 20  1  0
 11 21  1  0
 12 13  1  0
 12 22  1  0
 12 23  1  0
 13 14  1  0
 13 24  1  0
 13 25  1  0
 14 15  1  0
 15 26  1  0
 15 27  1  0
M  END

