
     RDKit          3D

 62 66  0  0  0  0  0  0  0  0999 V2000
    2.1465   -1.0920    0.6399 O   0  0  0  0  0  0  0  0  0  0  0  0
    2.8473   -0.2956    0.0360 C   0  0  0  0  0  0  0  0  0  0  0  0
    3.5381    0.8705    0.7786 C   0  0  0  0  0  0  0  0  0  0  0  0
    3.2346    0.8889    2.1349 O   0  0  0  0  0  0  0  0  0  0  0  0
    3.9311   -0.0616    2.9292 C   0  0  0  0  0  0  0  0  0  0  0  0
    3.1909   -0.2681    4.2272 C   0  0  0  0  0  0  0  0  0  0  0  0
    1.8436   -0.6646    4.1950 C   0  0  0  0  0  0  0  0  0  0  0  0
    1.1440   -0.8768    5.3835 C   0  0  0  0  0  0  0  0  0  0  0  0
    1.7802   -0.7000    6.6187 C   0  0  0  0  0  0  0  0  0  0  0  0
    3.1197   -0.3064    6.6576 C   0  0  0  0  0  0  0  0  0  0  0  0
    3.8191   -0.0871    5.4652 C   0  0  0  0  0  0  0  0  0  0  0  0
    3.0444   -0.3691   -1.3214 N   0  0  0  0  0  0  0  0  0  0  0  0
    2.3918   -1.4309   -2.0838 C   0  0  0  0  0  0  0  0  0  0  0  0
    3.3500   -2.5372   -2.5296 C   0  0  0  0  0  0  0  0  0  0  0  0
    4.6171   -2.0826   -3.2671 C   0  0  0  0  0  0  0  0  0  0  0  0
    5.6108   -1.3760   -2.4399 N   0  0  0  0  0  0  0  0  0  0  0  0
    6.9565   -1.7415   -2.5386 C   0  0  0  0  0  0  0  0  0  0  0  0
    7.8445   -0.7700   -2.5995 N   0  0  0  0  0  0  0  0  0  0  0  0
    9.1495   -1.0636   -2.8317 C   0  0  0  0  0  0  0  0  0  0  0  0
   10.1253   -0.0351   -2.9002 C   0  0  0  0  0  0  0  0  0  0  0  0
   11.4313   -0.3444   -3.2300 C   0  0  0  0  0  0  0  0  0  0  0  0
   11.8163   -1.6833   -3.4960 C   0  0  0  0  0  0  0  0  0  0  0  0
   10.8904   -2.7051   -3.4126 C   0  0  0  0  0  0  0  0  0  0  0  0
    9.5456   -2.4144   -3.0671 C   0  0  0  0  0  0  0  0  0  0  0  0
    8.6461   -3.4178   -2.8853 N   0  0  0  0  0  0  0  0  0  0  0  0
    7.4046   -3.1370   -2.5635 C   0  0  0  0  0  0  0  0  0  0  0  0
    6.5734   -4.3012   -2.1367 C   0  0  0  0  0  0  0  0  0  0  0  0
    5.8262   -4.2613   -0.9471 C   0  0  0  0  0  0  0  0  0  0  0  0
    5.1569   -5.3998   -0.4899 C   0  0  0  0  0  0  0  0  0  0  0  0
    5.2115   -6.5890   -1.2225 C   0  0  0  0  0  0  0  0  0  0  0  0
    5.9557   -6.6393   -2.4065 C   0  0  0  0  0  0  0  0  0  0  0  0
    6.6423   -5.5094   -2.8527 C   0  0  0  0  0  0  0  0  0  0  0  0
    5.3982    0.0541   -2.1932 C   0  0  0  0  0  0  0  0  0  0  0  0
    3.9318    0.4934   -2.0867 C   0  0  0  0  0  0  0  0  0  0  0  0
    3.1731    1.8224    0.3560 H   0  0  0  0  0  0  0  0  0  0  0  0
    4.6316    0.8374    0.5951 H   0  0  0  0  0  0  0  0  0  0  0  0
    4.9639    0.2910    3.1241 H   0  0  0  0  0  0  0  0  0  0  0  0
    3.9983   -1.0244    2.3913 H   0  0  0  0  0  0  0  0  0  0  0  0
    1.3626   -0.8026    3.2238 H   0  0  0  0  0  0  0  0  0  0  0  0
    0.0954   -1.1850    5.3490 H   0  0  0  0  0  0  0  0  0  0  0  0
    1.2304   -0.8678    7.5486 H   0  0  0  0  0  0  0  0  0  0  0  0
    3.6220   -0.1618    7.6179 H   0  0  0  0  0  0  0  0  0  0  0  0
    4.8653    0.2314    5.4995 H   0  0  0  0  0  0  0  0  0  0  0  0
    1.9099   -0.9675   -2.9645 H   0  0  0  0  0  0  0  0  0  0  0  0
    1.6030   -1.8534   -1.4491 H   0  0  0  0  0  0  0  0  0  0  0  0
    2.7954   -3.2159   -3.2010 H   0  0  0  0  0  0  0  0  0  0  0  0
    3.6457   -3.1340   -1.6560 H   0  0  0  0  0  0  0  0  0  0  0  0
    4.3489   -1.4480   -4.1363 H   0  0  0  0  0  0  0  0  0  0  0  0
    5.1026   -2.9693   -3.6919 H   0  0  0  0  0  0  0  0  0  0  0  0
    9.8070    0.9916   -2.7079 H   0  0  0  0  0  0  0  0  0  0  0  0
   12.1786    0.4510   -3.2921 H   0  0  0  0  0  0  0  0  0  0  0  0
   12.8540   -1.9039   -3.7583 H   0  0  0  0  0  0  0  0  0  0  0  0
   11.1602   -3.7484   -3.5897 H   0  0  0  0  0  0  0  0  0  0  0  0
    5.7829   -3.3369   -0.3676 H   0  0  0  0  0  0  0  0  0  0  0  0
    4.5918   -5.3560    0.4446 H   0  0  0  0  0  0  0  0  0  0  0  0
    4.6815   -7.4768   -0.8681 H   0  0  0  0  0  0  0  0  0  0  0  0
    6.0097   -7.5684   -2.9799 H   0  0  0  0  0  0  0  0  0  0  0  0
    7.2525   -5.5517   -3.7571 H   0  0  0  0  0  0  0  0  0  0  0  0
    5.8715    0.6659   -2.9845 H   0  0  0  0  0  0  0  0  0  0  0  0
    5.9431    0.3104   -1.2721 H   0  0  0  0  0  0  0  0  0  0  0  0
    3.4969    0.5808   -3.0950 H   0  0  0  0  0  0  0  0  0  0  0  0
    3.9284    1.5158   -1.6807 H   0  0  0  0  0  0  0  0  0  0  0  0
  1  2  2  0
  2  3  1  0
  2 12  1  0
  3  4  1  0
  3 35  1  0
  3 36  1  0
  4  5  1  0
  5  6  1  0
  5 37  1  0
  5 38  1  0
  6  7  2  0
  6 11  1  0
  7  8  1  0
  7 39  1  0
  8  9  2  0
  8 40  1  0
  9 10  1  0
  9 41  1  0
 10 11  2  0
 10 42  1  0
 11 43  1  0
 12 13  1  0
 12 34  1  0
 13 14  1  0
 13 44  1  0
 13 45  1  0
 14 15  1  0
 14 46  1  0
 14 47  1  0
 15 16  1  0
 15 48  1  0
 15 49  1  0
 16 17  1  0
 16 33  1  0
 17 18  2  0
 17 26  1  0
 18 19  1  0
 19 20  2  0
 19 24  1  0
 20 21  1  0
 20 50  1  0
 21 22  2  0
 21 51  1  0
 22 23  1  0
 22 52  1  0
 23 24  2  0
 23 53  1  0
 24 25  1  0
 25 26  2  0
 26 27  1  0
 27 28  2  0
 27 32  1  0
 28 29  1  0
 28 54  1  0
 29 30  2  0
 29 55  1  0
 30 31  1  0
 30 56  1  0
 31 32  2  0
 31 57  1  0
 32 58  1  0
 33 34  1  0
 33 59  1  0
 33 60  1  0
 34 61  1  0
 34 62  1  0
M  END

