
     RDKit          3D

 50 50  0  0  0  0  0  0  0  0999 V2000
   -1.4853   -0.6041    0.9540 C   0  0  0  0  0  0  0  0  0  0  0  0
   -0.3537   -0.5710    1.7753 C   0  0  0  0  0  0  0  0  0  0  0  0
    0.9133   -0.3916    1.2173 C   0  0  0  0  0  0  0  0  0  0  0  0
    1.0888   -0.2336   -0.1709 C   0  0  0  0  0  0  0  0  0  0  0  0
    2.4765   -0.0212   -0.7262 C   0  0  0  0  0  0  0  0  0  0  0  0
    2.7890   -0.6472   -2.0989 C   0  0  0  0  0  0  0  0  0  0  0  0
    4.1151   -0.0465   -2.5645 C   0  0  1  0  0  0  0  0  0  0  0  0
    4.6232   -0.4611   -3.9493 C   0  0  0  0  0  0  0  0  0  0  0  0
    5.9370    0.2646   -4.2821 C   0  0  0  0  0  0  0  0  0  0  0  0
    5.8110    1.7896   -4.1444 C   0  0  0  0  0  0  0  0  0  0  0  0
    5.2596    2.2104   -2.7707 C   0  0  0  0  0  0  0  0  0  0  0  0
    3.9420    1.4833   -2.4794 C   0  0  0  0  0  0  0  0  0  0  0  0
    3.1255    1.8116   -0.8004 P   0  0  0  0  0  0  0  0  0  0  0  0
    1.6023    2.8264   -1.3213 C   0  0  0  0  0  0  0  0  0  0  0  0
    0.7449    3.2209   -0.0963 C   0  0  0  0  0  0  0  0  0  0  0  0
    1.4007    4.2976    0.7808 C   0  0  0  0  0  0  0  0  0  0  0  0
    1.7789    5.5426   -0.0308 C   0  0  0  0  0  0  0  0  0  0  0  0
    2.6556    5.1758   -1.2347 C   0  0  0  0  0  0  0  0  0  0  0  0
    1.9898    4.1004   -2.1059 C   0  0  0  0  0  0  0  0  0  0  0  0
   -0.0592   -0.2776   -0.9818 C   0  0  0  0  0  0  0  0  0  0  0  0
   -1.3299   -0.4596   -0.4269 C   0  0  0  0  0  0  0  0  0  0  0  0
   -2.4786   -0.7478    1.3865 H   0  0  0  0  0  0  0  0  0  0  0  0
   -0.4575   -0.6912    2.8571 H   0  0  0  0  0  0  0  0  0  0  0  0
    1.7913   -0.3710    1.8696 H   0  0  0  0  0  0  0  0  0  0  0  0
    3.1793   -0.4651   -0.0020 H   0  0  0  0  0  0  0  0  0  0  0  0
    2.0063   -0.4002   -2.8365 H   0  0  0  0  0  0  0  0  0  0  0  0
    2.8256   -1.7483   -2.0288 H   0  0  0  0  0  0  0  0  0  0  0  0
    4.8915   -0.3385   -1.8289 H   0  0  0  0  0  0  0  0  0  0  0  0
    3.8568   -0.2139   -4.7079 H   0  0  0  0  0  0  0  0  0  0  0  0
    4.7691   -1.5543   -3.9956 H   0  0  0  0  0  0  0  0  0  0  0  0
    6.2709    0.0025   -5.3002 H   0  0  0  0  0  0  0  0  0  0  0  0
    6.7262   -0.0955   -3.5966 H   0  0  0  0  0  0  0  0  0  0  0  0
    5.1337    2.1684   -4.9322 H   0  0  0  0  0  0  0  0  0  0  0  0
    6.7891    2.2675   -4.3236 H   0  0  0  0  0  0  0  0  0  0  0  0
    5.1237    3.3043   -2.7384 H   0  0  0  0  0  0  0  0  0  0  0  0
    5.9928    1.9674   -1.9803 H   0  0  0  0  0  0  0  0  0  0  0  0
    3.2118    1.7665   -3.2608 H   0  0  0  0  0  0  0  0  0  0  0  0
    0.9943    2.1880   -1.9840 H   0  0  0  0  0  0  0  0  0  0  0  0
    0.4993    2.3357    0.5092 H   0  0  0  0  0  0  0  0  0  0  0  0
   -0.2211    3.6071   -0.4732 H   0  0  0  0  0  0  0  0  0  0  0  0
    2.3086    3.8824    1.2524 H   0  0  0  0  0  0  0  0  0  0  0  0
    0.7183    4.5696    1.6039 H   0  0  0  0  0  0  0  0  0  0  0  0
    2.2942    6.2785    0.6097 H   0  0  0  0  0  0  0  0  0  0  0  0
    0.8573    6.0368   -0.3923 H   0  0  0  0  0  0  0  0  0  0  0  0
    3.6341    4.8107   -0.8745 H   0  0  0  0  0  0  0  0  0  0  0  0
    2.8643    6.0710   -1.8451 H   0  0  0  0  0  0  0  0  0  0  0  0
    2.6293    3.8568   -2.9698 H   0  0  0  0  0  0  0  0  0  0  0  0
    1.0603    4.5215   -2.5336 H   0  0  0  0  0  0  0  0  0  0  0  0
    0.0326   -0.1751   -2.0650 H   0  0  0  0  0  0  0  0  0  0  0  0
   -2.2046   -0.4917   -1.0821 H   0  0  0  0  0  0  0  0  0  0  0  0
  1  2  1  0
  1 21  1  0
  1 22  1  0
  2  3  1  0
  2 23  1  0
  3  4  1  0
  3 24  1  0
  4  5  1  0
  4 20  1  0
  5  6  1  0
  5 25  1  0
  6  7  1  0
  6 26  1  0
  6 27  1  0
  7  8  1  0
  7 12  1  0
  7 28  1  1
  8  9  1  0
  8 29  1  0
  8 30  1  0
  9 10  1  0
  9 31  1  0
  9 32  1  0
 10 11  1  0
 10 33  1  0
 10 34  1  0
 11 12  1  0
 11 35  1  0
 11 36  1  0
 12 37  1  0
 14 15  1  0
 14 19  1  0
 14 38  1  0
 15 16  1  0
 15 39  1  0
 15 40  1  0
 16 17  1  0
 16 41  1  0
 16 42  1  0
 17 18  1  0
 17 43  1  0
 17 44  1  0
 18 19  1  0
 18 45  1  0
 18 46  1  0
 19 47  1  0
 19 48  1  0
 20 21  1  0
 20 49  1  0
 21 50  1  0
M  CHG  8   1  -1   2   1   3  -1   4   1   5  -1  12   1  13  -3  14   1
M  CHG  2  20   1  21   1
M  END

