
     RDKit          3D

 44 45  0  0  0  0  0  0  0  0999 V2000
    1.4389   -3.0155   -0.7932 C   0  0  0  0  0  0  0  0  0  0  0  0
    2.6379   -2.1071   -0.5137 C   0  0  1  0  0  0  0  0  0  0  0  0
    3.9651   -2.7870   -0.9374 C   0  0  0  0  0  0  0  0  0  0  0  0
    4.1341   -3.9772   -0.9434 O   0  0  0  0  0  0  0  0  0  0  0  0
    4.9253   -1.9086   -1.2544 O   0  0  0  0  0  0  0  0  0  0  0  0
    2.6085   -0.7281   -1.0400 N   0  0  0  0  0  0  0  0  0  0  0  0
    2.2428   -0.5771   -2.4410 C   0  0  0  0  0  0  0  0  0  0  0  0
    0.7534   -0.7424   -2.7954 C   0  0  0  0  0  0  0  0  0  0  0  0
   -0.1466   -0.4596   -2.0223 O   0  0  0  0  0  0  0  0  0  0  0  0
    0.5184   -1.1822   -4.0678 N   0  0  0  0  0  0  0  0  0  0  0  0
   -0.8251   -1.3293   -4.5979 C   0  0  0  0  0  0  0  0  0  0  0  0
   -1.3694   -0.0292   -5.1893 C   0  0  0  0  0  0  0  0  0  0  0  0
   -2.6420   -0.3220   -5.7247 O   0  0  0  0  0  0  0  0  0  0  0  0
   -3.3785    0.6669   -6.3019 C   0  0  0  0  0  0  0  0  0  0  0  0
   -4.6305    0.2857   -6.8157 C   0  0  0  0  0  0  0  0  0  0  0  0
   -5.4586    1.2227   -7.4272 C   0  0  0  0  0  0  0  0  0  0  0  0
   -5.0327    2.5483   -7.5259 C   0  0  0  0  0  0  0  0  0  0  0  0
   -5.8312    3.4537   -8.1164 F   0  0  0  0  0  0  0  0  0  0  0  0
   -3.7997    2.9456   -7.0243 C   0  0  0  0  0  0  0  0  0  0  0  0
   -2.9657    2.0032   -6.4088 C   0  0  0  0  0  0  0  0  0  0  0  0
    2.0902    0.2863   -0.1461 C   0  0  1  0  0  0  0  0  0  0  0  0
    2.9603    0.7251    1.0018 C   0  0  0  0  0  0  0  0  0  0  0  0
    2.7386    1.6460   -0.1727 C   0  0  0  0  0  0  0  0  0  0  0  0
    1.6060   -3.9836   -0.3016 H   0  0  0  0  0  0  0  0  0  0  0  0
    1.3214   -3.2181   -1.8687 H   0  0  0  0  0  0  0  0  0  0  0  0
    0.5078   -2.5688   -0.4205 H   0  0  0  0  0  0  0  0  0  0  0  0
    2.7304   -1.9958    0.5804 H   0  0  0  0  0  0  0  0  0  0  0  0
    4.4736   -1.0331   -1.1974 H   0  0  0  0  0  0  0  0  0  0  0  0
    2.8542   -1.2672   -3.0479 H   0  0  0  0  0  0  0  0  0  0  0  0
    2.5213    0.4439   -2.7573 H   0  0  0  0  0  0  0  0  0  0  0  0
    1.3050   -1.4102   -4.6638 H   0  0  0  0  0  0  0  0  0  0  0  0
   -1.4884   -1.6538   -3.7834 H   0  0  0  0  0  0  0  0  0  0  0  0
   -0.8262   -2.1114   -5.3721 H   0  0  0  0  0  0  0  0  0  0  0  0
   -0.6892    0.3501   -5.9769 H   0  0  0  0  0  0  0  0  0  0  0  0
   -1.4375    0.7377   -4.3965 H   0  0  0  0  0  0  0  0  0  0  0  0
   -4.9348   -0.7585   -6.7220 H   0  0  0  0  0  0  0  0  0  0  0  0
   -6.4335    0.9411   -7.8302 H   0  0  0  0  0  0  0  0  0  0  0  0
   -3.4954    3.9902   -7.1155 H   0  0  0  0  0  0  0  0  0  0  0  0
   -2.0019    2.3277   -6.0168 H   0  0  0  0  0  0  0  0  0  0  0  0
    1.0078    0.2684    0.0209 H   0  0  0  0  0  0  0  0  0  0  0  0
    3.9474    0.2631    1.0972 H   0  0  0  0  0  0  0  0  0  0  0  0
    2.4756    0.9571    1.9539 H   0  0  0  0  0  0  0  0  0  0  0  0
    3.5809    1.7942   -0.8552 H   0  0  0  0  0  0  0  0  0  0  0  0
    2.0985    2.5230   -0.0452 H   0  0  0  0  0  0  0  0  0  0  0  0
  1  2  1  0
  1 24  1  0
  1 25  1  0
  1 26  1  0
  2  3  1  0
  2  6  1  0
  2 27  1  1
  3  4  2  0
  3  5  1  0
  5 28  1  0
  6  7  1  0
  6 21  1  0
  7  8  1  0
  7 29  1  0
  7 30  1  0
  8  9  2  0
  8 10  1  0
 10 11  1  0
 10 31  1  0
 11 12  1  0
 11 32  1  0
 11 33  1  0
 12 13  1  0
 12 34  1  0
 12 35  1  0
 13 14  1  0
 14 15  2  0
 14 20  1  0
 15 16  1  0
 15 36  1  0
 16 17  2  0
 16 37  1  0
 17 18  1  0
 17 19  1  0
 19 20  2  0
 19 38  1  0
 20 39  1  0
 21 22  1  0
 21 23  1  0
 21 40  1  1
 22 23  1  0
 22 41  1  0
 22 42  1  0
 23 43  1  0
 23 44  1  0
M  END

