
     RDKit          3D

 47 52  0  0  0  0  0  0  0  0999 V2000
    3.1759    0.2640    0.7612 C   0  0  0  0  0  0  0  0  0  0  0  0
    4.3776   -0.5026    0.5087 N   0  0  0  0  0  0  0  0  0  0  0  0
    5.5871   -0.2103    1.2493 C   0  0  0  0  0  0  0  0  0  0  0  0
    4.3913   -1.4576   -0.4908 C   0  0  0  0  0  0  0  0  0  0  0  0
    3.2363   -1.7397   -1.2618 C   0  0  0  0  0  0  0  0  0  0  0  0
    3.2594   -2.7092   -2.2632 C   0  0  0  0  0  0  0  0  0  0  0  0
    4.4182   -3.4379   -2.5482 C   0  0  0  0  0  0  0  0  0  0  0  0
    4.4344   -4.4472   -3.5936 N   0  0  0  0  0  0  0  0  0  0  0  0
    5.2024   -4.1338   -4.7538 C   0  0  0  0  0  0  0  0  0  0  0  0
    6.3910   -4.7437   -5.0630 C   0  0  0  0  0  0  0  0  0  0  0  0
    7.0930   -4.2089   -6.5799 S   0  0  0  0  0  0  0  0  0  0  0  0
    5.7682   -3.0781   -6.8075 C   0  0  0  0  0  0  0  0  0  0  0  0
    5.6061   -2.1968   -7.8832 C   0  0  0  0  0  0  0  0  0  0  0  0
    4.4609   -1.4046   -7.9250 C   0  0  0  0  0  0  0  0  0  0  0  0
    3.4896   -1.4957   -6.9098 C   0  0  0  0  0  0  0  0  0  0  0  0
    3.6555   -2.3677   -5.8390 C   0  0  0  0  0  0  0  0  0  0  0  0
    4.8102   -3.1711   -5.7649 C   0  0  0  0  0  0  0  0  0  0  0  0
    7.1612   -6.0046   -4.0879 S   0  0  0  0  0  0  0  0  0  0  0  0
    5.6686   -6.5628   -3.3168 C   0  0  0  0  0  0  0  0  0  0  0  0
    5.5033   -8.2116   -2.7390 S   0  0  0  0  0  0  0  0  0  0  0  0
    3.8635   -7.8731   -2.2080 C   0  0  0  0  0  0  0  0  0  0  0  0
    2.9947   -8.7715   -1.5770 C   0  0  0  0  0  0  0  0  0  0  0  0
    1.7050   -8.3430   -1.2709 C   0  0  0  0  0  0  0  0  0  0  0  0
    1.2881   -7.0380   -1.5956 C   0  0  0  0  0  0  0  0  0  0  0  0
    2.1548   -6.1453   -2.2173 C   0  0  0  0  0  0  0  0  0  0  0  0
    3.4688   -6.5479   -2.5263 C   0  0  0  0  0  0  0  0  0  0  0  0
    4.5408   -5.8002   -3.1546 C   0  0  0  0  0  0  0  0  0  0  0  0
    5.5682   -3.1630   -1.7933 C   0  0  0  0  0  0  0  0  0  0  0  0
    5.5637   -2.1988   -0.7902 C   0  0  0  0  0  0  0  0  0  0  0  0
    3.3531    0.9571    1.5936 H   0  0  0  0  0  0  0  0  0  0  0  0
    2.3226   -0.3812    1.0406 H   0  0  0  0  0  0  0  0  0  0  0  0
    2.8642    0.8634   -0.1157 H   0  0  0  0  0  0  0  0  0  0  0  0
    5.3763    0.5597    2.0026 H   0  0  0  0  0  0  0  0  0  0  0  0
    6.4001    0.1670    0.6001 H   0  0  0  0  0  0  0  0  0  0  0  0
    5.9739   -1.0993    1.7807 H   0  0  0  0  0  0  0  0  0  0  0  0
    2.3070   -1.2005   -1.0831 H   0  0  0  0  0  0  0  0  0  0  0  0
    2.3515   -2.9025   -2.8390 H   0  0  0  0  0  0  0  0  0  0  0  0
    6.3565   -2.1382   -8.6750 H   0  0  0  0  0  0  0  0  0  0  0  0
    4.3145   -0.7120   -8.7574 H   0  0  0  0  0  0  0  0  0  0  0  0
    2.5927   -0.8738   -6.9655 H   0  0  0  0  0  0  0  0  0  0  0  0
    2.8995   -2.4370   -5.0571 H   0  0  0  0  0  0  0  0  0  0  0  0
    3.3186   -9.7872   -1.3383 H   0  0  0  0  0  0  0  0  0  0  0  0
    1.0109   -9.0296   -0.7802 H   0  0  0  0  0  0  0  0  0  0  0  0
    0.2690   -6.7234   -1.3574 H   0  0  0  0  0  0  0  0  0  0  0  0
    1.8262   -5.1374   -2.4697 H   0  0  0  0  0  0  0  0  0  0  0  0
    6.4869   -3.7177   -1.9990 H   0  0  0  0  0  0  0  0  0  0  0  0
    6.4846   -2.0236   -0.2355 H   0  0  0  0  0  0  0  0  0  0  0  0
  1  2  1  0
  1 30  1  0
  1 31  1  0
  1 32  1  0
  2  3  1  0
  2  4  1  0
  3 33  1  0
  3 34  1  0
  3 35  1  0
  4  5  2  0
  4 29  1  0
  5  6  1  0
  5 36  1  0
  6  7  2  0
  6 37  1  0
  7  8  1  0
  7 28  1  0
  8  9  1  0
  8 27  1  0
  9 10  2  0
  9 17  1  0
 10 11  1  0
 10 18  1  0
 11 12  1  0
 12 13  2  0
 12 17  1  0
 13 14  1  0
 13 38  1  0
 14 15  2  0
 14 39  1  0
 15 16  1  0
 15 40  1  0
 16 17  2  0
 16 41  1  0
 18 19  1  0
 19 20  1  0
 19 27  2  0
 20 21  1  0
 21 22  2  0
 21 26  1  0
 22 23  1  0
 22 42  1  0
 23 24  2  0
 23 43  1  0
 24 25  1  0
 24 44  1  0
 25 26  2  0
 25 45  1  0
 26 27  1  0
 28 29  2  0
 28 46  1  0
 29 47  1  0
M  END

