
     RDKit          3D

 67 68  0  0  0  0  0  0  0  0999 V2000
    1.6697   -1.1816    2.9984 C   0  0  0  0  0  0  0  0  0  0  0  0
    3.0942   -1.0975    2.4305 C   0  0  1  0  0  0  0  0  0  0  0  0
    4.0693   -1.9088    3.2992 C   0  0  0  0  0  0  0  0  0  0  0  0
    3.2283   -1.4793    0.9268 C   0  0  1  0  0  0  0  0  0  0  0  0
    2.8044   -2.9443    0.6481 C   0  0  0  0  0  0  0  0  0  0  0  0
    1.3706   -3.0389    0.4650 N   0  0  0  0  0  0  0  0  0  0  0  0
    0.7909   -4.2454    0.1470 C   0  0  0  0  0  0  0  0  0  0  0  0
    1.4126   -5.3003    0.1501 O   0  0  0  0  0  0  0  0  0  0  0  0
   -0.5517   -4.1681   -0.1824 N   0  0  0  0  0  0  0  0  0  0  0  0
   -1.3248   -5.3821   -0.3729 C   0  0  0  0  0  0  0  0  0  0  0  0
   -1.7803   -6.0525    0.9292 C   0  0  0  0  0  0  0  0  0  0  0  0
   -2.6058   -7.3182    0.6713 C   0  0  0  0  0  0  0  0  0  0  0  0
   -3.0586   -7.9965    1.8828 N   0  0  0  0  0  0  0  0  0  0  0  0
   -2.1873   -8.9610    2.5492 C   0  0  0  0  0  0  0  0  0  0  0  0
   -1.5092   -8.4369    3.8337 C   0  0  0  0  0  0  0  0  0  0  0  0
   -2.3996   -7.5062    4.6678 C   0  0  0  0  0  0  0  0  0  0  0  0
   -3.8166   -8.0230    4.9594 C   0  0  0  0  0  0  0  0  0  0  0  0
   -4.6793   -8.3499    3.7074 C   0  0  0  0  0  0  0  0  0  0  0  0
   -4.2644   -7.6170    2.4310 C   0  0  0  0  0  0  0  0  0  0  0  0
   -4.9634   -6.7503    1.9253 O   0  0  0  0  0  0  0  0  0  0  0  0
    2.5139   -0.5731   -0.0137 N   0  0  0  0  0  0  0  0  0  0  0  0
    2.5137    0.8426    0.3526 C   0  0  0  0  0  0  0  0  0  0  0  0
    1.6348    1.7640   -0.5082 C   0  0  0  0  0  0  0  0  0  0  0  0
    2.1557    2.0620   -1.9208 C   0  0  0  0  0  0  0  0  0  0  0  0
    1.8552    0.9849   -2.9763 C   0  0  0  0  0  0  0  0  0  0  0  0
    1.8967   -0.4671   -2.4669 C   0  0  0  0  0  0  0  0  0  0  0  0
    2.9542   -0.7988   -1.4015 C   0  0  0  0  0  0  0  0  0  0  0  0
    1.6474   -0.7974    4.0315 H   0  0  0  0  0  0  0  0  0  0  0  0
    1.3054   -2.2196    3.0153 H   0  0  0  0  0  0  0  0  0  0  0  0
    0.9499   -0.5946    2.4074 H   0  0  0  0  0  0  0  0  0  0  0  0
    3.4315   -0.0525    2.5179 H   0  0  0  0  0  0  0  0  0  0  0  0
    3.7879   -2.9718    3.3649 H   0  0  0  0  0  0  0  0  0  0  0  0
    4.0800   -1.5133    4.3274 H   0  0  0  0  0  0  0  0  0  0  0  0
    5.1000   -1.8568    2.9120 H   0  0  0  0  0  0  0  0  0  0  0  0
    4.3201   -1.4318    0.7176 H   0  0  0  0  0  0  0  0  0  0  0  0
    3.1159   -3.5900    1.4818 H   0  0  0  0  0  0  0  0  0  0  0  0
    3.3378   -3.3474   -0.2314 H   0  0  0  0  0  0  0  0  0  0  0  0
    0.9431   -2.1676    0.1593 H   0  0  0  0  0  0  0  0  0  0  0  0
   -1.0586   -3.3420    0.1150 H   0  0  0  0  0  0  0  0  0  0  0  0
   -0.6940   -6.0803   -0.9438 H   0  0  0  0  0  0  0  0  0  0  0  0
   -2.1985   -5.1397   -1.0018 H   0  0  0  0  0  0  0  0  0  0  0  0
   -2.3931   -5.3476    1.5165 H   0  0  0  0  0  0  0  0  0  0  0  0
   -0.8841   -6.2956    1.5233 H   0  0  0  0  0  0  0  0  0  0  0  0
   -2.0184   -8.0372    0.0753 H   0  0  0  0  0  0  0  0  0  0  0  0
   -3.5035   -7.0551    0.0927 H   0  0  0  0  0  0  0  0  0  0  0  0
   -1.4216   -9.2767    1.8254 H   0  0  0  0  0  0  0  0  0  0  0  0
   -2.7679   -9.8679    2.7845 H   0  0  0  0  0  0  0  0  0  0  0  0
   -0.5844   -7.8952    3.5738 H   0  0  0  0  0  0  0  0  0  0  0  0
   -1.1984   -9.3096    4.4348 H   0  0  0  0  0  0  0  0  0  0  0  0
   -2.4792   -6.5350    4.1505 H   0  0  0  0  0  0  0  0  0  0  0  0
   -1.8937   -7.2904    5.6239 H   0  0  0  0  0  0  0  0  0  0  0  0
   -4.3366   -7.2544    5.5537 H   0  0  0  0  0  0  0  0  0  0  0  0
   -3.7625   -8.9180    5.6029 H   0  0  0  0  0  0  0  0  0  0  0  0
   -5.7263   -8.0704    3.8822 H   0  0  0  0  0  0  0  0  0  0  0  0
   -4.6663   -9.4342    3.5113 H   0  0  0  0  0  0  0  0  0  0  0  0
    3.5499    1.2587    0.3517 H   0  0  0  0  0  0  0  0  0  0  0  0
    2.1457    0.9335    1.3811 H   0  0  0  0  0  0  0  0  0  0  0  0
    1.5701    2.7174    0.0434 H   0  0  0  0  0  0  0  0  0  0  0  0
    0.6059    1.3644   -0.5449 H   0  0  0  0  0  0  0  0  0  0  0  0
    3.2459    2.2263   -1.8535 H   0  0  0  0  0  0  0  0  0  0  0  0
    1.7379    3.0214   -2.2693 H   0  0  0  0  0  0  0  0  0  0  0  0
    2.5690    1.1049   -3.8095 H   0  0  0  0  0  0  0  0  0  0  0  0
    0.8589    1.1657   -3.4155 H   0  0  0  0  0  0  0  0  0  0  0  0
    2.0548   -1.1324   -3.3323 H   0  0  0  0  0  0  0  0  0  0  0  0
    0.9168   -0.7527   -2.0502 H   0  0  0  0  0  0  0  0  0  0  0  0
    3.9024   -0.2532   -1.6086 H   0  0  0  0  0  0  0  0  0  0  0  0
    3.2011   -1.8618   -1.5041 H   0  0  0  0  0  0  0  0  0  0  0  0
  1  2  1  0
  1 28  1  0
  1 29  1  0
  1 30  1  0
  2  3  1  0
  2  4  1  0
  2 31  1  6
  3 32  1  0
  3 33  1  0
  3 34  1  0
  4  5  1  0
  4 21  1  0
  4 35  1  6
  5  6  1  0
  5 36  1  0
  5 37  1  0
  6  7  1  0
  6 38  1  0
  7  8  2  0
  7  9  1  0
  9 10  1  0
  9 39  1  0
 10 11  1  0
 10 40  1  0
 10 41  1  0
 11 12  1  0
 11 42  1  0
 11 43  1  0
 12 13  1  0
 12 44  1  0
 12 45  1  0
 13 14  1  0
 13 19  1  0
 14 15  1  0
 14 46  1  0
 14 47  1  0
 15 16  1  0
 15 48  1  0
 15 49  1  0
 16 17  1  0
 16 50  1  0
 16 51  1  0
 17 18  1  0
 17 52  1  0
 17 53  1  0
 18 19  1  0
 18 54  1  0
 18 55  1  0
 19 20  2  0
 21 22  1  0
 21 27  1  0
 22 23  1  0
 22 56  1  0
 22 57  1  0
 23 24  1  0
 23 58  1  0
 23 59  1  0
 24 25  1  0
 24 60  1  0
 24 61  1  0
 25 26  1  0
 25 62  1  0
 25 63  1  0
 26 27  1  0
 26 64  1  0
 26 65  1  0
 27 66  1  0
 27 67  1  0
M  END

