
     RDKit          3D

 69 77  0  0  0  0  0  0  0  0999 V2000
    1.6956    0.3936    3.1407 C   0  0  0  0  0  0  0  0  0  0  0  0
    1.7977   -0.9901    3.0176 C   0  0  0  0  0  0  0  0  0  0  0  0
    1.0668   -1.6694    2.0341 C   0  0  0  0  0  0  0  0  0  0  0  0
    0.2215   -0.9752    1.1574 C   0  0  0  0  0  0  0  0  0  0  0  0
    0.1284    0.4270    1.2946 C   0  0  0  0  0  0  0  0  0  0  0  0
    0.8546    1.0998    2.2712 C   0  0  0  0  0  0  0  0  0  0  0  0
   -0.6781    1.1800    0.4763 O   0  0  0  0  0  0  0  0  0  0  0  0
   -1.4051    0.5556   -0.5079 C   0  0  0  0  0  0  0  0  0  0  0  0
   -2.2005    1.3561   -1.3204 C   0  0  0  0  0  0  0  0  0  0  0  0
   -2.9683    0.7851   -2.3434 C   0  0  0  0  0  0  0  0  0  0  0  0
   -2.9269   -0.5934   -2.5395 C   0  0  0  0  0  0  0  0  0  0  0  0
   -2.1258   -1.4012   -1.7218 C   0  0  0  0  0  0  0  0  0  0  0  0
   -1.3531   -0.8431   -0.6941 C   0  0  0  0  0  0  0  0  0  0  0  0
   -0.5332   -1.6148    0.1536 N   0  0  0  0  0  0  0  0  0  0  0  0
   -0.4636   -3.0325   -0.0065 C   0  0  0  0  0  0  0  0  0  0  0  0
    0.4991   -3.6024   -0.8540 C   0  0  0  0  0  0  0  0  0  0  0  0
    0.5701   -4.9839   -1.0110 C   0  0  0  0  0  0  0  0  0  0  0  0
   -0.3263   -5.8196   -0.3188 C   0  0  0  0  0  0  0  0  0  0  0  0
   -0.2324   -7.2643   -0.4985 C   0  0  0  0  0  0  0  0  0  0  0  0
    0.5996   -7.9337   -1.2435 N   0  0  0  0  0  0  0  0  0  0  0  0
    0.3002   -9.2632   -1.0842 N   0  0  0  0  0  0  0  0  0  0  0  0
   -0.6978   -9.3314   -0.2507 C   0  0  0  0  0  0  0  0  0  0  0  0
   -1.3844  -10.5194    0.2446 C   0  0  0  0  0  0  0  0  0  0  0  0
   -0.9616  -11.7877   -0.1953 C   0  0  0  0  0  0  0  0  0  0  0  0
   -1.6020  -12.9352    0.2648 C   0  0  0  0  0  0  0  0  0  0  0  0
   -2.6717  -12.8376    1.1682 C   0  0  0  0  0  0  0  0  0  0  0  0
   -3.3265  -14.0166    1.6387 N   0  0  0  0  0  0  0  0  0  0  0  0
   -2.8753  -14.6617    2.8078 C   0  0  0  0  0  0  0  0  0  0  0  0
   -1.7829  -14.2038    3.5574 C   0  0  0  0  0  0  0  0  0  0  0  0
   -1.3707  -14.8784    4.7141 C   0  0  0  0  0  0  0  0  0  0  0  0
   -2.0435  -16.0213    5.1400 C   0  0  0  0  0  0  0  0  0  0  0  0
   -3.1364  -16.4902    4.4000 C   0  0  0  0  0  0  0  0  0  0  0  0
   -3.5468  -15.8217    3.2518 C   0  0  0  0  0  0  0  0  0  0  0  0
   -4.6257  -16.3348    2.5739 O   0  0  0  0  0  0  0  0  0  0  0  0
   -5.0596  -15.7084    1.4309 C   0  0  0  0  0  0  0  0  0  0  0  0
   -6.1506  -16.2643    0.7719 C   0  0  0  0  0  0  0  0  0  0  0  0
   -6.6460  -15.6760   -0.3988 C   0  0  0  0  0  0  0  0  0  0  0  0
   -6.0345  -14.5279   -0.8972 C   0  0  0  0  0  0  0  0  0  0  0  0
   -4.9350  -13.9667   -0.2345 C   0  0  0  0  0  0  0  0  0  0  0  0
   -4.4292  -14.5451    0.9379 C   0  0  0  0  0  0  0  0  0  0  0  0
   -3.0932  -11.5747    1.6060 C   0  0  0  0  0  0  0  0  0  0  0  0
   -2.4557  -10.4215    1.1492 C   0  0  0  0  0  0  0  0  0  0  0  0
   -1.0867   -8.0936    0.1616 O   0  0  0  0  0  0  0  0  0  0  0  0
   -1.2909   -5.2489    0.5295 C   0  0  0  0  0  0  0  0  0  0  0  0
   -1.3565   -3.8644    0.6826 C   0  0  0  0  0  0  0  0  0  0  0  0
    2.2624    0.9297    3.9048 H   0  0  0  0  0  0  0  0  0  0  0  0
    2.4486   -1.5588    3.6858 H   0  0  0  0  0  0  0  0  0  0  0  0
    1.1547   -2.7526    1.9465 H   0  0  0  0  0  0  0  0  0  0  0  0
    0.7451    2.1844    2.3328 H   0  0  0  0  0  0  0  0  0  0  0  0
   -2.2031    2.4317   -1.1326 H   0  0  0  0  0  0  0  0  0  0  0  0
   -3.5902    1.4209   -2.9770 H   0  0  0  0  0  0  0  0  0  0  0  0
   -3.5179   -1.0577   -3.3323 H   0  0  0  0  0  0  0  0  0  0  0  0
   -2.1002   -2.4789   -1.8850 H   0  0  0  0  0  0  0  0  0  0  0  0
    1.1915   -2.9486   -1.3882 H   0  0  0  0  0  0  0  0  0  0  0  0
    1.3154   -5.4362   -1.6675 H   0  0  0  0  0  0  0  0  0  0  0  0
   -0.1291  -11.8536   -0.8978 H   0  0  0  0  0  0  0  0  0  0  0  0
   -1.2787  -13.9222   -0.0722 H   0  0  0  0  0  0  0  0  0  0  0  0
   -1.2483  -13.3108    3.2327 H   0  0  0  0  0  0  0  0  0  0  0  0
   -0.5155  -14.4974    5.2771 H   0  0  0  0  0  0  0  0  0  0  0  0
   -1.7276  -16.5524    6.0404 H   0  0  0  0  0  0  0  0  0  0  0  0
   -3.6915  -17.3820    4.6979 H   0  0  0  0  0  0  0  0  0  0  0  0
   -6.5998  -17.1643    1.1968 H   0  0  0  0  0  0  0  0  0  0  0  0
   -7.5032  -16.1191   -0.9101 H   0  0  0  0  0  0  0  0  0  0  0  0
   -6.4056  -14.0546   -1.8091 H   0  0  0  0  0  0  0  0  0  0  0  0
   -4.4637  -13.0683   -0.6337 H   0  0  0  0  0  0  0  0  0  0  0  0
   -3.9261  -11.5055    2.3086 H   0  0  0  0  0  0  0  0  0  0  0  0
   -2.7880   -9.4408    1.4937 H   0  0  0  0  0  0  0  0  0  0  0  0
   -1.9887   -5.8918    1.0685 H   0  0  0  0  0  0  0  0  0  0  0  0
   -2.1031   -3.4149    1.3404 H   0  0  0  0  0  0  0  0  0  0  0  0
  1  2  2  0
  1  6  1  0
  1 46  1  0
  2  3  1  0
  2 47  1  0
  3  4  2  0
  3 48  1  0
  4  5  1  0
  4 14  1  0
  5  6  2  0
  5  7  1  0
  6 49  1  0
  7  8  1  0
  8  9  2  0
  8 13  1  0
  9 10  1  0
  9 50  1  0
 10 11  2  0
 10 51  1  0
 11 12  1  0
 11 52  1  0
 12 13  2  0
 12 53  1  0
 13 14  1  0
 14 15  1  0
 15 16  2  0
 15 45  1  0
 16 17  1  0
 16 54  1  0
 17 18  2  0
 17 55  1  0
 18 19  1  0
 18 44  1  0
 19 20  2  0
 19 43  1  0
 20 21  1  0
 21 22  2  0
 22 23  1  0
 22 43  1  0
 23 24  2  0
 23 42  1  0
 24 25  1  0
 24 56  1  0
 25 26  2  0
 25 57  1  0
 26 27  1  0
 26 41  1  0
 27 28  1  0
 27 40  1  0
 28 29  2  0
 28 33  1  0
 29 30  1  0
 29 58  1  0
 30 31  2  0
 30 59  1  0
 31 32  1  0
 31 60  1  0
 32 33  2  0
 32 61  1  0
 33 34  1  0
 34 35  1  0
 35 36  2  0
 35 40  1  0
 36 37  1  0
 36 62  1  0
 37 38  2  0
 37 63  1  0
 38 39  1  0
 38 64  1  0
 39 40  2  0
 39 65  1  0
 41 42  2  0
 41 66  1  0
 42 67  1  0
 44 45  2  0
 44 68  1  0
 45 69  1  0
M  END

