
     RDKit          3D

 31 31  0  0  0  0  0  0  0  0999 V2000
    1.3146    2.3434   -0.1876 C   0  0  0  0  0  0  0  0  0  0  0  0
    2.7327    2.1858   -0.2394 O   0  0  0  0  0  0  0  0  0  0  0  0
    3.1861    1.1012   -0.8978 C   0  0  0  0  0  0  0  0  0  0  0  0
    2.4428    0.2881   -1.3974 O   0  0  0  0  0  0  0  0  0  0  0  0
    4.6815    1.0638   -0.9462 C   0  0  0  0  0  0  0  0  0  0  0  0
    5.3892    2.2748   -0.8767 C   0  0  0  0  0  0  0  0  0  0  0  0
    6.7834    2.3445   -0.9526 C   0  0  0  0  0  0  0  0  0  0  0  0
    7.4865    3.6764   -0.8888 C   0  0  0  0  0  0  0  0  0  0  0  0
    7.5137    1.1430   -1.0900 C   0  0  0  0  0  0  0  0  0  0  0  0
    9.0178    1.1546   -1.1782 C   0  0  0  0  0  0  0  0  0  0  0  0
    6.8120   -0.0682   -1.1444 C   0  0  0  0  0  0  0  0  0  0  0  0
    5.4139   -0.1380   -1.0850 C   0  0  0  0  0  0  0  0  0  0  0  0
    4.6701   -1.7778   -1.0301 S   0  0  0  0  0  0  0  0  0  0  0  0
    4.0223   -1.9806   -2.7343 C   0  0  0  0  0  0  0  0  0  0  0  0
    5.0745   -2.2409   -3.8161 C   0  0  0  0  0  0  0  0  0  0  0  0
    4.8636   -2.0127   -4.9758 O   0  0  0  0  0  0  0  0  0  0  0  0
    6.2255   -2.7895   -3.3930 O   0  0  0  0  0  0  0  0  0  0  0  0
    1.1313    3.2696    0.3707 H   0  0  0  0  0  0  0  0  0  0  0  0
    0.8462    1.4893    0.3242 H   0  0  0  0  0  0  0  0  0  0  0  0
    0.8908    2.4156   -1.2008 H   0  0  0  0  0  0  0  0  0  0  0  0
    4.8165    3.1962   -0.7627 H   0  0  0  0  0  0  0  0  0  0  0  0
    6.7710    4.5022   -0.7696 H   0  0  0  0  0  0  0  0  0  0  0  0
    8.0735    3.8673   -1.8032 H   0  0  0  0  0  0  0  0  0  0  0  0
    8.1967    3.7195   -0.0458 H   0  0  0  0  0  0  0  0  0  0  0  0
    9.3647    1.7461   -2.0422 H   0  0  0  0  0  0  0  0  0  0  0  0
    9.4231    0.1383   -1.2818 H   0  0  0  0  0  0  0  0  0  0  0  0
    9.4709    1.6120   -0.2825 H   0  0  0  0  0  0  0  0  0  0  0  0
    7.3770   -0.9969   -1.2459 H   0  0  0  0  0  0  0  0  0  0  0  0
    3.3989   -1.1210   -3.0051 H   0  0  0  0  0  0  0  0  0  0  0  0
    3.3597   -2.8611   -2.6820 H   0  0  0  0  0  0  0  0  0  0  0  0
    6.1886   -2.8420   -2.4161 H   0  0  0  0  0  0  0  0  0  0  0  0
  1  2  1  0
  1 18  1  0
  1 19  1  0
  1 20  1  0
  2  3  1  0
  3  4  2  0
  3  5  1  0
  5  6  2  0
  5 12  1  0
  6  7  1  0
  6 21  1  0
  7  8  1  0
  7  9  2  0
  8 22  1  0
  8 23  1  0
  8 24  1  0
  9 10  1  0
  9 11  1  0
 10 25  1  0
 10 26  1  0
 10 27  1  0
 11 12  2  0
 11 28  1  0
 12 13  1  0
 13 14  1  0
 14 15  1  0
 14 29  1  0
 14 30  1  0
 15 16  2  0
 15 17  1  0
 17 31  1  0
M  END

