
     RDKit          3D

 56 59  0  0  0  0  0  0  0  0999 V2000
    1.5082    0.2613    1.6347 C   0  0  0  0  0  0  0  0  0  0  0  0
    2.6641    0.0770    0.7162 C   0  0  0  0  0  0  0  0  0  0  0  0
    2.9931    0.6004   -0.5041 C   0  0  0  0  0  0  0  0  0  0  0  0
    4.2562    0.0244   -0.8688 C   0  0  0  0  0  0  0  0  0  0  0  0
    4.6142   -0.8127    0.1528 C   0  0  0  0  0  0  0  0  0  0  0  0
    5.8024   -1.7082    0.3744 C   0  0  1  0  0  0  0  0  0  0  0  0
    6.5710   -1.3689   -0.3381 H   0  0  0  0  0  0  0  0  0  0  0  0
    6.3949   -1.5306    1.7855 C   0  0  0  0  0  0  0  0  0  0  0  0
    7.5491   -2.3845    1.9443 N   0  0  0  0  0  0  0  0  0  0  0  0
    8.6487   -2.0210    2.6571 C   0  0  0  0  0  0  0  0  0  0  0  0
    8.7524   -0.9517    3.2494 O   0  0  0  0  0  0  0  0  0  0  0  0
    9.7385   -3.0319    2.6696 C   0  0  0  0  0  0  0  0  0  0  0  0
    9.5211   -4.1999    1.9618 O   0  0  0  0  0  0  0  0  0  0  0  0
   10.6331   -4.9642    2.1143 C   0  0  0  0  0  0  0  0  0  0  0  0
   10.8516   -6.2284    1.5702 C   0  0  0  0  0  0  0  0  0  0  0  0
   12.0772   -6.8296    1.8623 C   0  0  0  0  0  0  0  0  0  0  0  0
   13.0392   -6.1839    2.6676 C   0  0  0  0  0  0  0  0  0  0  0  0
   12.8016   -4.9193    3.2025 C   0  0  0  0  0  0  0  0  0  0  0  0
   11.5736   -4.2934    2.9219 C   0  0  0  0  0  0  0  0  0  0  0  0
   10.9682   -3.0265    3.2775 C   0  0  0  0  0  0  0  0  0  0  0  0
   11.5796   -1.9594    4.1286 C   0  0  0  0  0  0  0  0  0  0  0  0
    5.5962   -3.1387    0.0744 N   0  0  0  0  0  0  0  0  0  0  0  0
    5.5797   -3.4459   -1.3550 C   0  0  0  0  0  0  0  0  0  0  0  0
    5.6720   -4.9558   -1.5941 C   0  0  0  0  0  0  0  0  0  0  0  0
    4.5709   -5.7453   -0.8592 C   0  0  2  0  0  0  0  0  0  0  0  0
    3.1960   -5.6178   -1.5313 C   0  0  0  0  0  0  0  0  0  0  0  0
    4.5579   -5.3082    0.6188 C   0  0  0  0  0  0  0  0  0  0  0  0
    4.4899   -3.7869    0.7832 C   0  0  0  0  0  0  0  0  0  0  0  0
    3.6447   -0.7823    1.1182 O   0  0  0  0  0  0  0  0  0  0  0  0
    0.7968    0.9802    1.2054 H   0  0  0  0  0  0  0  0  0  0  0  0
    1.8325    0.6411    2.6183 H   0  0  0  0  0  0  0  0  0  0  0  0
    0.9757   -0.6889    1.8101 H   0  0  0  0  0  0  0  0  0  0  0  0
    2.4050    1.3174   -1.0733 H   0  0  0  0  0  0  0  0  0  0  0  0
    4.8327    0.2149   -1.7718 H   0  0  0  0  0  0  0  0  0  0  0  0
    5.6274   -1.7421    2.5516 H   0  0  0  0  0  0  0  0  0  0  0  0
    6.7047   -0.4872    1.9388 H   0  0  0  0  0  0  0  0  0  0  0  0
    7.5211   -3.2743    1.4541 H   0  0  0  0  0  0  0  0  0  0  0  0
   10.0986   -6.7165    0.9490 H   0  0  0  0  0  0  0  0  0  0  0  0
   12.2957   -7.8214    1.4587 H   0  0  0  0  0  0  0  0  0  0  0  0
   13.9865   -6.6884    2.8729 H   0  0  0  0  0  0  0  0  0  0  0  0
   13.5516   -4.4257    3.8252 H   0  0  0  0  0  0  0  0  0  0  0  0
   12.5248   -1.6019    3.6854 H   0  0  0  0  0  0  0  0  0  0  0  0
   11.8239   -2.3526    5.1301 H   0  0  0  0  0  0  0  0  0  0  0  0
   10.8931   -1.1114    4.2352 H   0  0  0  0  0  0  0  0  0  0  0  0
    6.4430   -2.9484   -1.8270 H   0  0  0  0  0  0  0  0  0  0  0  0
    4.6724   -3.0331   -1.8495 H   0  0  0  0  0  0  0  0  0  0  0  0
    6.6581   -5.2994   -1.2372 H   0  0  0  0  0  0  0  0  0  0  0  0
    5.6338   -5.1574   -2.6783 H   0  0  0  0  0  0  0  0  0  0  0  0
    4.8469   -6.8141   -0.8912 H   0  0  0  0  0  0  0  0  0  0  0  0
    2.8287   -4.5797   -1.5531 H   0  0  0  0  0  0  0  0  0  0  0  0
    2.4416   -6.2214   -1.0004 H   0  0  0  0  0  0  0  0  0  0  0  0
    3.2340   -5.9737   -2.5739 H   0  0  0  0  0  0  0  0  0  0  0  0
    5.4782   -5.6696    1.1092 H   0  0  0  0  0  0  0  0  0  0  0  0
    3.7085   -5.7704    1.1500 H   0  0  0  0  0  0  0  0  0  0  0  0
    4.5474   -3.5317    1.8519 H   0  0  0  0  0  0  0  0  0  0  0  0
    3.5064   -3.4107    0.4299 H   0  0  0  0  0  0  0  0  0  0  0  0
  1  2  1  0
  1 30  1  0
  1 31  1  0
  1 32  1  0
  2  3  2  0
  2 29  1  0
  3  4  1  0
  3 33  1  0
  4  5  2  0
  4 34  1  0
  5  6  1  0
  5 29  1  0
  6  7  1  6
  6  8  1  0
  6 22  1  0
  8  9  1  0
  8 35  1  0
  8 36  1  0
  9 10  1  0
  9 37  1  0
 10 11  2  0
 10 12  1  0
 12 13  1  0
 12 20  2  0
 13 14  1  0
 14 15  2  0
 14 19  1  0
 15 16  1  0
 15 38  1  0
 16 17  2  0
 16 39  1  0
 17 18  1  0
 17 40  1  0
 18 19  2  0
 18 41  1  0
 19 20  1  0
 20 21  1  0
 21 42  1  0
 21 43  1  0
 21 44  1  0
 22 23  1  0
 22 28  1  0
 23 24  1  0
 23 45  1  0
 23 46  1  0
 24 25  1  0
 24 47  1  0
 24 48  1  0
 25 26  1  0
 25 27  1  0
 25 49  1  1
 26 50  1  0
 26 51  1  0
 26 52  1  0
 27 28  1  0
 27 53  1  0
 27 54  1  0
 28 55  1  0
 28 56  1  0
M  END

