
     RDKit          3D

 37 39  0  0  0  0  0  0  0  0999 V2000
    2.6570    0.8151    0.9706 O   0  0  0  0  0  0  0  0  0  0  0  0
    2.2635   -0.0677   -0.0610 C   0  0  1  0  0  0  0  0  0  0  0  0
    0.7343   -0.0587   -0.2169 C   0  0  0  0  0  0  0  0  0  0  0  0
    0.2622   -1.0235   -1.1926 N   0  0  0  0  0  0  0  0  0  0  0  0
   -1.1437   -0.9752   -1.4755 C   0  0  1  0  0  0  0  0  0  0  0  0
   -1.8837   -2.2286   -1.8282 C   0  0  0  0  0  0  0  0  0  0  0  0
   -2.1949   -1.5224   -0.5250 C   0  0  0  0  0  0  0  0  0  0  0  0
    2.9624    0.3617   -1.3499 C   0  0  0  0  0  0  0  0  0  0  0  0
    4.4144    0.3994   -1.2839 N   0  0  0  0  0  0  0  0  0  0  0  0
    5.0066    1.0403   -2.4492 C   0  0  0  0  0  0  0  0  0  0  0  0
    6.4698    1.4198   -2.1894 C   0  0  0  0  0  0  0  0  0  0  0  0
    7.1791    0.2287   -1.6197 C   0  0  0  0  0  0  0  0  0  0  0  0
    8.9047    0.0085   -1.5828 S   0  0  0  0  0  0  0  0  0  0  0  0
    8.7420   -1.5303   -0.7983 C   0  0  0  0  0  0  0  0  0  0  0  0
    7.4274   -1.8474   -0.5787 C   0  0  0  0  0  0  0  0  0  0  0  0
    6.5268   -0.8355   -1.0480 C   0  0  0  0  0  0  0  0  0  0  0  0
    5.0230   -0.8829   -0.9604 C   0  0  0  0  0  0  0  0  0  0  0  0
    2.2184    0.5405    1.7865 H   0  0  0  0  0  0  0  0  0  0  0  0
    2.5651   -1.1096    0.1846 H   0  0  0  0  0  0  0  0  0  0  0  0
    0.4204    0.9505   -0.5355 H   0  0  0  0  0  0  0  0  0  0  0  0
    0.2891   -0.2087    0.7958 H   0  0  0  0  0  0  0  0  0  0  0  0
    0.5511   -1.9680   -0.9425 H   0  0  0  0  0  0  0  0  0  0  0  0
   -1.4278   -0.0716   -2.0296 H   0  0  0  0  0  0  0  0  0  0  0  0
   -1.3350   -3.1754   -1.7763 H   0  0  0  0  0  0  0  0  0  0  0  0
   -2.6176   -2.1923   -2.6382 H   0  0  0  0  0  0  0  0  0  0  0  0
   -1.8449   -1.9947    0.3987 H   0  0  0  0  0  0  0  0  0  0  0  0
   -3.1498   -0.9969   -0.4275 H   0  0  0  0  0  0  0  0  0  0  0  0
    2.6126    1.3815   -1.5834 H   0  0  0  0  0  0  0  0  0  0  0  0
    2.5877   -0.3020   -2.1614 H   0  0  0  0  0  0  0  0  0  0  0  0
    4.4272    1.9493   -2.6742 H   0  0  0  0  0  0  0  0  0  0  0  0
    4.9498    0.3933   -3.3575 H   0  0  0  0  0  0  0  0  0  0  0  0
    6.5073    2.2663   -1.4807 H   0  0  0  0  0  0  0  0  0  0  0  0
    6.9410    1.7607   -3.1267 H   0  0  0  0  0  0  0  0  0  0  0  0
    9.6271   -2.1113   -0.5435 H   0  0  0  0  0  0  0  0  0  0  0  0
    7.1071   -2.7726   -0.0947 H   0  0  0  0  0  0  0  0  0  0  0  0
    4.7366   -1.1655    0.0664 H   0  0  0  0  0  0  0  0  0  0  0  0
    4.6458   -1.7005   -1.6260 H   0  0  0  0  0  0  0  0  0  0  0  0
  1  2  1  0
  1 18  1  0
  2  3  1  0
  2  8  1  0
  2 19  1  1
  3  4  1  0
  3 20  1  0
  3 21  1  0
  4  5  1  0
  4 22  1  0
  5  6  1  0
  5  7  1  0
  5 23  1  6
  6  7  1  0
  6 24  1  0
  6 25  1  0
  7 26  1  0
  7 27  1  0
  8  9  1  0
  8 28  1  0
  8 29  1  0
  9 10  1  0
  9 17  1  0
 10 11  1  0
 10 30  1  0
 10 31  1  0
 11 12  1  0
 11 32  1  0
 11 33  1  0
 12 13  1  0
 12 16  2  0
 13 14  1  0
 14 15  2  0
 14 34  1  0
 15 16  1  0
 15 35  1  0
 16 17  1  0
 17 36  1  0
 17 37  1  0
M  END

