
     RDKit          3D

 62 66  0  0  0  0  0  0  0  0999 V2000
    4.8518    1.4283    0.7707 C   0  0  0  0  0  0  0  0  0  0  0  0
    3.7763    0.5305    0.6023 O   0  0  0  0  0  0  0  0  0  0  0  0
    3.9242   -0.5438   -0.2054 C   0  0  0  0  0  0  0  0  0  0  0  0
    2.8067   -1.3917   -0.3274 C   0  0  0  0  0  0  0  0  0  0  0  0
    2.8506   -2.5217   -1.1293 C   0  0  0  0  0  0  0  0  0  0  0  0
    4.0243   -2.8599   -1.8484 C   0  0  0  0  0  0  0  0  0  0  0  0
    4.2185   -4.0189   -2.7182 C   0  0  0  0  0  0  0  0  0  0  0  0
    3.5357   -5.1631   -3.0090 C   0  0  0  0  0  0  0  0  0  0  0  0
    4.2005   -6.1466   -4.3551 S   0  0  0  0  0  0  0  0  0  0  0  0
    4.0037   -7.7823   -3.7110 C   0  0  0  0  0  0  0  0  0  0  0  0
    4.8430   -8.8224   -4.1277 C   0  0  0  0  0  0  0  0  0  0  0  0
    4.6184  -10.1313   -3.7000 C   0  0  0  0  0  0  0  0  0  0  0  0
    3.5585  -10.4144   -2.8229 C   0  0  0  0  0  0  0  0  0  0  0  0
    3.3274  -11.7762   -2.2183 C   0  0  0  0  0  0  0  0  0  0  0  0
    3.0934  -11.8763   -1.0223 O   0  0  0  0  0  0  0  0  0  0  0  0
    3.4293  -12.8847   -3.0357 N   0  0  0  0  0  0  0  0  0  0  0  0
    3.1953  -12.9072   -4.4780 C   0  0  0  0  0  0  0  0  0  0  0  0
    4.1581  -13.8978   -5.1495 C   0  0  0  0  0  0  0  0  0  0  0  0
    4.1448  -15.2215   -4.5443 N   0  0  0  0  0  0  0  0  0  0  0  0
    3.4424  -16.2901   -5.1417 C   0  0  0  0  0  0  0  0  0  0  0  0
    2.2841  -16.0571   -5.9104 C   0  0  0  0  0  0  0  0  0  0  0  0
    1.6128  -17.1113   -6.5289 C   0  0  0  0  0  0  0  0  0  0  0  0
    0.1772  -16.7714   -7.4753 Cl  0  0  0  0  0  0  0  0  0  0  0  0
    2.0564  -18.4253   -6.3889 C   0  0  0  0  0  0  0  0  0  0  0  0
    3.2096  -18.6531   -5.6353 C   0  0  0  0  0  0  0  0  0  0  0  0
    3.9307  -17.6211   -5.0202 C   0  0  0  0  0  0  0  0  0  0  0  0
    5.2294  -17.9300   -4.3170 C   0  0  0  0  0  0  0  0  0  0  0  0
    4.3196  -15.1709   -3.0931 C   0  0  0  0  0  0  0  0  0  0  0  0
    3.3318  -14.2077   -2.4231 C   0  0  0  0  0  0  0  0  0  0  0  0
    2.7507   -9.3654   -2.3682 C   0  0  0  0  0  0  0  0  0  0  0  0
    2.9436   -8.0551   -2.8225 C   0  0  0  0  0  0  0  0  0  0  0  0
    2.0816   -7.0357   -2.4130 N   0  0  0  0  0  0  0  0  0  0  0  0
    2.2600   -5.6607   -2.4177 C   0  0  0  0  0  0  0  0  0  0  0  0
    1.3930   -4.9556   -1.9261 O   0  0  0  0  0  0  0  0  0  0  0  0
    5.1278   -1.9870   -1.7233 C   0  0  0  0  0  0  0  0  0  0  0  0
    5.0953   -0.8503   -0.9177 C   0  0  0  0  0  0  0  0  0  0  0  0
    4.5032    2.2071    1.4619 H   0  0  0  0  0  0  0  0  0  0  0  0
    5.1445    1.9017   -0.1836 H   0  0  0  0  0  0  0  0  0  0  0  0
    5.7364    0.9314    1.2078 H   0  0  0  0  0  0  0  0  0  0  0  0
    1.9003   -1.1305    0.2228 H   0  0  0  0  0  0  0  0  0  0  0  0
    1.9733   -3.1586   -1.2226 H   0  0  0  0  0  0  0  0  0  0  0  0
    5.1712   -3.9560   -3.2573 H   0  0  0  0  0  0  0  0  0  0  0  0
    5.6818   -8.5976   -4.7908 H   0  0  0  0  0  0  0  0  0  0  0  0
    5.2959  -10.9254   -4.0195 H   0  0  0  0  0  0  0  0  0  0  0  0
    3.3220  -11.9049   -4.9027 H   0  0  0  0  0  0  0  0  0  0  0  0
    2.1483  -13.2149   -4.6679 H   0  0  0  0  0  0  0  0  0  0  0  0
    5.1833  -13.4881   -5.0607 H   0  0  0  0  0  0  0  0  0  0  0  0
    3.9351  -13.9805   -6.2223 H   0  0  0  0  0  0  0  0  0  0  0  0
    1.8823  -15.0504   -6.0168 H   0  0  0  0  0  0  0  0  0  0  0  0
    1.5231  -19.2448   -6.8720 H   0  0  0  0  0  0  0  0  0  0  0  0
    3.5864  -19.6765   -5.5499 H   0  0  0  0  0  0  0  0  0  0  0  0
    5.6636  -18.8658   -4.6985 H   0  0  0  0  0  0  0  0  0  0  0  0
    5.1093  -18.0537   -3.2266 H   0  0  0  0  0  0  0  0  0  0  0  0
    5.9574  -17.1184   -4.4697 H   0  0  0  0  0  0  0  0  0  0  0  0
    5.3497  -14.8427   -2.8579 H   0  0  0  0  0  0  0  0  0  0  0  0
    4.1841  -16.1720   -2.6669 H   0  0  0  0  0  0  0  0  0  0  0  0
    3.5398  -14.1047   -1.3507 H   0  0  0  0  0  0  0  0  0  0  0  0
    2.3002  -14.5975   -2.5270 H   0  0  0  0  0  0  0  0  0  0  0  0
    1.9626   -9.5826   -1.6435 H   0  0  0  0  0  0  0  0  0  0  0  0
    1.2333   -7.3102   -1.9256 H   0  0  0  0  0  0  0  0  0  0  0  0
    6.0466   -2.2102   -2.2728 H   0  0  0  0  0  0  0  0  0  0  0  0
    5.9785   -0.2146   -0.8549 H   0  0  0  0  0  0  0  0  0  0  0  0
  1  2  1  0
  1 37  1  0
  1 38  1  0
  1 39  1  0
  2  3  1  0
  3  4  2  0
  3 36  1  0
  4  5  1  0
  4 40  1  0
  5  6  2  0
  5 41  1  0
  6  7  1  0
  6 35  1  0
  7  8  2  0
  7 42  1  0
  8  9  1  0
  8 33  1  0
  9 10  2  0
 10 11  1  0
 10 31  1  0
 11 12  2  0
 11 43  1  0
 12 13  1  0
 12 44  1  0
 13 14  2  0
 13 30  1  0
 14 15  1  0
 14 16  1  0
 16 17  1  0
 16 29  1  0
 17 18  1  0
 17 45  1  0
 17 46  1  0
 18 19  1  0
 18 47  1  0
 18 48  1  0
 19 20  1  0
 19 28  1  0
 20 21  2  0
 20 26  1  0
 21 22  1  0
 21 49  1  0
 22 23  1  0
 22 24  2  0
 24 25  1  0
 24 50  1  0
 25 26  2  0
 25 51  1  0
 26 27  1  0
 27 52  1  0
 27 53  1  0
 27 54  1  0
 28 29  1  0
 28 55  1  0
 28 56  1  0
 29 57  1  0
 29 58  1  0
 30 31  2  0
 30 59  1  0
 31 32  1  0
 32 33  1  0
 32 60  1  0
 33 34  2  0
 35 36  2  0
 35 61  1  0
 36 62  1  0
M  CHG  2   9   1  15  -1
M  END

