
     RDKit          3D

 33 34  0  0  0  0  0  0  0  0999 V2000
    2.0004    1.1240    0.2482 C   0  0  0  0  0  0  0  0  0  0  0  0
    2.6301   -0.2527    0.0900 C   0  0  0  0  0  0  0  0  0  0  0  0
    2.6387   -1.0515    1.0117 O   0  0  0  0  0  0  0  0  0  0  0  0
    3.1843   -0.5617   -1.1375 N   0  0  0  0  0  0  0  0  0  0  0  0
    3.8404   -1.8507   -1.3210 C   0  0  0  0  0  0  0  0  0  0  0  0
    3.3348   -2.5455   -2.5855 C   0  0  0  0  0  0  0  0  0  0  0  0
    3.4580   -1.6525   -3.7446 N   0  0  0  0  0  0  0  0  0  0  0  0
    4.1491   -2.0832   -4.8272 C   0  0  0  0  0  0  0  0  0  0  0  0
    4.6635   -3.2005   -4.8929 O   0  0  0  0  0  0  0  0  0  0  0  0
    4.3316   -1.1450   -6.0668 C   0  0  0  0  0  0  0  0  0  0  0  0
    3.9490   -0.0007   -6.1656 O   0  0  0  0  0  0  0  0  0  0  0  0
    5.0160   -1.8548   -7.0221 N   0  0  0  0  0  0  0  0  0  0  0  0
    5.4092   -1.4345   -8.2781 C   0  0  0  0  0  0  0  0  0  0  0  0
    5.1811   -0.2826   -8.8728 N   0  0  0  0  0  0  0  0  0  0  0  0
    5.7970   -0.4411  -10.0779 C   0  0  0  0  0  0  0  0  0  0  0  0
    6.3860   -1.6075  -10.2664 N   0  0  0  0  0  0  0  0  0  0  0  0
    6.1324   -2.2452   -9.0995 N   0  0  0  0  0  0  0  0  0  0  0  0
    6.4722   -3.1880   -8.9459 H   0  0  0  0  0  0  0  0  0  0  0  0
    2.7723   -0.3697   -3.5602 C   0  0  0  0  0  0  0  0  0  0  0  0
    3.2757    0.3232   -2.2880 C   0  0  0  0  0  0  0  0  0  0  0  0
    1.6195    1.1918    1.2740 H   0  0  0  0  0  0  0  0  0  0  0  0
    1.1648    1.2784   -0.4529 H   0  0  0  0  0  0  0  0  0  0  0  0
    2.7323    1.9309    0.0841 H   0  0  0  0  0  0  0  0  0  0  0  0
    3.6356   -2.4588   -0.4310 H   0  0  0  0  0  0  0  0  0  0  0  0
    4.9354   -1.7068   -1.3973 H   0  0  0  0  0  0  0  0  0  0  0  0
    2.2709   -2.8162   -2.4614 H   0  0  0  0  0  0  0  0  0  0  0  0
    3.9065   -3.4573   -2.7915 H   0  0  0  0  0  0  0  0  0  0  0  0
    5.2529   -2.7952   -6.6964 H   0  0  0  0  0  0  0  0  0  0  0  0
    5.8084    0.3353  -10.8423 H   0  0  0  0  0  0  0  0  0  0  0  0
    1.6902   -0.5711   -3.4561 H   0  0  0  0  0  0  0  0  0  0  0  0
    2.9328    0.2651   -4.4349 H   0  0  0  0  0  0  0  0  0  0  0  0
    2.6844    1.2314   -2.1234 H   0  0  0  0  0  0  0  0  0  0  0  0
    4.3269    0.6355   -2.4455 H   0  0  0  0  0  0  0  0  0  0  0  0
  1  2  1  0
  1 21  1  0
  1 22  1  0
  1 23  1  0
  2  3  2  0
  2  4  1  0
  4  5  1  0
  4 20  1  0
  5  6  1  0
  5 24  1  0
  5 25  1  0
  6  7  1  0
  6 26  1  0
  6 27  1  0
  7  8  1  0
  7 19  1  0
  8  9  2  0
  8 10  1  0
 10 11  2  0
 10 12  1  0
 12 13  1  0
 12 28  1  0
 13 14  2  0
 13 17  1  0
 14 15  1  0
 15 16  2  0
 15 29  1  0
 16 17  1  0
 17 18  1  0
 19 20  1  0
 19 30  1  0
 19 31  1  0
 20 32  1  0
 20 33  1  0
M  END

