
     RDKit          3D

 34 36  0  0  0  0  0  0  0  0999 V2000
    0.9710    0.1294   -0.1305 C   0  0  0  0  0  0  0  0  0  0  0  0
    2.4790    0.0470   -0.1451 C   0  0  0  0  0  0  0  0  0  0  0  0
    3.2439    1.2369   -0.2673 C   0  0  0  0  0  0  0  0  0  0  0  0
    4.6337    1.2285   -0.2927 C   0  0  0  0  0  0  0  0  0  0  0  0
    5.2913   -0.0076   -0.1883 C   0  0  0  0  0  0  0  0  0  0  0  0
    6.6390   -0.3077   -0.1914 N   0  0  0  0  0  0  0  0  0  0  0  0
    6.7191   -1.6061   -0.0807 C   0  0  0  0  0  0  0  0  0  0  0  0
    8.0051   -2.3693   -0.0125 C   0  0  1  0  0  0  0  0  0  0  0  0
    9.2180   -1.5265   -0.3625 C   0  0  0  0  0  0  0  0  0  0  0  0
    8.1965   -3.0563    1.6922 Cl  0  0  0  0  0  0  0  0  0  0  0  0
    5.4659   -2.2196    0.0030 N   0  0  0  0  0  0  0  0  0  0  0  0
    5.1673   -3.5990    0.1474 C   0  0  0  0  0  0  0  0  0  0  0  0
    4.5408   -4.0866    1.3017 C   0  0  0  0  0  0  0  0  0  0  0  0
    4.2224   -5.4405    1.4093 C   0  0  0  0  0  0  0  0  0  0  0  0
    4.5362   -6.3270    0.3761 C   0  0  0  0  0  0  0  0  0  0  0  0
    5.1670   -5.8530   -0.7768 C   0  0  0  0  0  0  0  0  0  0  0  0
    5.5736   -6.9244   -2.0833 Cl  0  0  0  0  0  0  0  0  0  0  0  0
    5.4706   -4.4915   -0.8900 C   0  0  0  0  0  0  0  0  0  0  0  0
    6.0691   -4.0340   -1.9915 F   0  0  0  0  0  0  0  0  0  0  0  0
    4.5286   -1.1914   -0.0612 C   0  0  0  0  0  0  0  0  0  0  0  0
    3.1290   -1.1870   -0.0420 C   0  0  0  0  0  0  0  0  0  0  0  0
    0.5865    0.5912   -1.0555 H   0  0  0  0  0  0  0  0  0  0  0  0
    0.6118    0.7491    0.7085 H   0  0  0  0  0  0  0  0  0  0  0  0
    0.5096   -0.8646   -0.0352 H   0  0  0  0  0  0  0  0  0  0  0  0
    2.7146    2.1908   -0.3461 H   0  0  0  0  0  0  0  0  0  0  0  0
    5.2108    2.1501   -0.3916 H   0  0  0  0  0  0  0  0  0  0  0  0
    7.9525   -3.2610   -0.6497 H   0  0  0  0  0  0  0  0  0  0  0  0
    9.2772   -0.6454    0.2896 H   0  0  0  0  0  0  0  0  0  0  0  0
    9.1334   -1.1733   -1.4018 H   0  0  0  0  0  0  0  0  0  0  0  0
   10.1343   -2.1238   -0.2586 H   0  0  0  0  0  0  0  0  0  0  0  0
    4.3199   -3.3896    2.1113 H   0  0  0  0  0  0  0  0  0  0  0  0
    3.7360   -5.8151    2.3123 H   0  0  0  0  0  0  0  0  0  0  0  0
    4.3021   -7.3899    0.4518 H   0  0  0  0  0  0  0  0  0  0  0  0
    2.5577   -2.1135    0.0486 H   0  0  0  0  0  0  0  0  0  0  0  0
  1  2  1  0
  1 22  1  0
  1 23  1  0
  1 24  1  0
  2  3  2  0
  2 21  1  0
  3  4  1  0
  3 25  1  0
  4  5  2  0
  4 26  1  0
  5  6  1  0
  5 20  1  0
  6  7  2  0
  7  8  1  0
  7 11  1  0
  8  9  1  0
  8 10  1  0
  8 27  1  6
  9 28  1  0
  9 29  1  0
  9 30  1  0
 11 12  1  0
 11 20  1  0
 12 13  2  0
 12 18  1  0
 13 14  1  0
 13 31  1  0
 14 15  2  0
 14 32  1  0
 15 16  1  0
 15 33  1  0
 16 17  1  0
 16 18  2  0
 18 19  1  0
 20 21  2  0
 21 34  1  0
M  END

