
     RDKit          3D

 95100  0  0  0  0  0  0  0  0999 V2000
    0.7065    2.4753    2.1556 C   0  0  0  0  0  0  0  0  0  0  0  0
    1.8722    2.7045    1.9272 C   0  0  0  0  0  0  0  0  0  0  0  0
    3.2708    3.0208    1.6450 C   0  0  0  0  0  0  0  0  0  0  0  0
    4.0557    1.8452    1.7452 O   0  0  0  0  0  0  0  0  0  0  0  0
    5.3918    1.9282    1.5159 C   0  0  0  0  0  0  0  0  0  0  0  0
    6.1105    0.7213    1.6283 C   0  0  0  0  0  0  0  0  0  0  0  0
    7.4788    0.6945    1.4150 C   0  0  0  0  0  0  0  0  0  0  0  0
    8.1957    1.8694    1.0798 C   0  0  0  0  0  0  0  0  0  0  0  0
    9.6357    1.8935    0.8460 C   0  0  0  0  0  0  0  0  0  0  0  0
   10.4899    0.8407    0.9179 C   0  0  0  0  0  0  0  0  0  0  0  0
   11.9118    0.9330    0.6844 C   0  0  0  0  0  0  0  0  0  0  0  0
   12.7233   -0.1553    0.6372 N   0  0  0  0  0  0  0  0  0  0  0  0
   14.0300    0.2636    0.4028 C   0  0  0  0  0  0  0  0  0  0  0  0
   15.0873   -0.6665    0.3358 C   0  0  0  0  0  0  0  0  0  0  0  0
   16.4789   -0.1906    0.0721 C   0  0  0  0  0  0  0  0  0  0  0  0
   17.3436    0.1628    1.1177 C   0  0  0  0  0  0  0  0  0  0  0  0
   18.6413    0.6102    0.8778 C   0  0  0  0  0  0  0  0  0  0  0  0
   19.1532    0.7234   -0.4410 C   0  0  0  0  0  0  0  0  0  0  0  0
   20.4429    1.1642   -0.6884 N   0  0  0  0  0  0  0  0  0  0  0  0
   20.9284    1.3912   -2.0436 C   0  0  0  0  0  0  0  0  0  0  0  0
   21.5370    0.1548   -2.7140 C   0  0  0  0  0  0  0  0  0  0  0  0
   21.3847    1.4234    0.3930 C   0  0  0  0  0  0  0  0  0  0  0  0
   21.3219    2.8456    0.9607 C   0  0  0  0  0  0  0  0  0  0  0  0
   18.2718    0.3605   -1.4925 C   0  0  0  0  0  0  0  0  0  0  0  0
   16.9747   -0.0790   -1.2348 C   0  0  0  0  0  0  0  0  0  0  0  0
   14.8423   -2.0409    0.5315 C   0  0  0  0  0  0  0  0  0  0  0  0
   15.7405   -3.1689    0.5668 C   0  0  0  0  0  0  0  0  0  0  0  0
   17.2277   -3.2054    0.3801 C   0  0  0  0  0  0  0  0  0  0  0  0
   14.9529   -4.2782    0.8310 C   0  0  0  0  0  0  0  0  0  0  0  0
   13.5999   -3.8556    0.9532 C   0  0  0  0  0  0  0  0  0  0  0  0
   12.4259   -4.6496    1.2287 C   0  0  0  0  0  0  0  0  0  0  0  0
   12.4201   -6.0057    1.2915 C   0  0  0  0  0  0  0  0  0  0  0  0
   11.2743   -6.8634    1.5754 C   0  0  0  0  0  0  0  0  0  0  0  0
    9.9705   -6.3675    1.8218 C   0  0  0  0  0  0  0  0  0  0  0  0
    8.9130   -7.2217    2.0878 C   0  0  0  0  0  0  0  0  0  0  0  0
    9.1107   -8.6161    2.1194 C   0  0  0  0  0  0  0  0  0  0  0  0
    8.0103   -9.3656    2.3890 O   0  0  0  0  0  0  0  0  0  0  0  0
    8.1240  -10.7619    2.4340 C   0  0  0  0  0  0  0  0  0  0  0  0
    6.7969  -11.4375    2.7436 C   0  0  0  0  0  0  0  0  0  0  0  0
    6.7092  -12.6367    2.8395 O   0  0  0  0  0  0  0  0  0  0  0  0
    5.7808  -10.5870    2.8882 O   0  0  0  0  0  0  0  0  0  0  0  0
    4.5086  -11.1711    3.1783 C   0  0  0  0  0  0  0  0  0  0  0  0
   10.3910   -9.1343    1.8779 C   0  0  0  0  0  0  0  0  0  0  0  0
   11.4471   -8.2595    1.6108 C   0  0  0  0  0  0  0  0  0  0  0  0
   13.5537   -2.5102    0.7707 N   0  0  0  0  0  0  0  0  0  0  0  0
   12.2612   -1.6455    0.6465 B   0  0  1  0  0  0  0  0  0  0  0  0
   11.4232   -1.8785    1.7430 F   0  0  0  0  0  0  0  0  0  0  0  0
   11.5942   -1.9476   -0.5338 F   0  0  0  0  0  0  0  0  0  0  0  0
   14.0241    1.7022    0.2979 C   0  0  0  0  0  0  0  0  0  0  0  0
   15.1682    2.6421    0.0621 C   0  0  0  0  0  0  0  0  0  0  0  0
   12.7071    2.0943    0.4771 C   0  0  0  0  0  0  0  0  0  0  0  0
    7.4572    3.0621    0.9714 C   0  0  0  0  0  0  0  0  0  0  0  0
    6.0769    3.1060    1.1838 C   0  0  0  0  0  0  0  0  0  0  0  0
   -0.3268    2.2649    2.3594 H   0  0  0  0  0  0  0  0  0  0  0  0
    3.6280    3.7878    2.3597 H   0  0  0  0  0  0  0  0  0  0  0  0
    3.3541    3.4576    0.6307 H   0  0  0  0  0  0  0  0  0  0  0  0
    5.5593   -0.1853    1.8857 H   0  0  0  0  0  0  0  0  0  0  0  0
    8.0065   -0.2568    1.5069 H   0  0  0  0  0  0  0  0  0  0  0  0
   10.0391    2.8769    0.5817 H   0  0  0  0  0  0  0  0  0  0  0  0
   10.1200   -0.1514    1.1778 H   0  0  0  0  0  0  0  0  0  0  0  0
   16.9920    0.0941    2.1508 H   0  0  0  0  0  0  0  0  0  0  0  0
   19.2552    0.8864    1.7341 H   0  0  0  0  0  0  0  0  0  0  0  0
   21.6846    2.1925   -1.9988 H   0  0  0  0  0  0  0  0  0  0  0  0
   20.1125    1.7971   -2.6626 H   0  0  0  0  0  0  0  0  0  0  0  0
   22.3900   -0.2314   -2.1331 H   0  0  0  0  0  0  0  0  0  0  0  0
   21.9011    0.4011   -3.7249 H   0  0  0  0  0  0  0  0  0  0  0  0
   20.7999   -0.6577   -2.8047 H   0  0  0  0  0  0  0  0  0  0  0  0
   22.3992    1.2278    0.0079 H   0  0  0  0  0  0  0  0  0  0  0  0
   21.2327    0.6856    1.1969 H   0  0  0  0  0  0  0  0  0  0  0  0
   21.5251    3.5939    0.1779 H   0  0  0  0  0  0  0  0  0  0  0  0
   22.0717    2.9787    1.7577 H   0  0  0  0  0  0  0  0  0  0  0  0
   20.3300    3.0665    1.3840 H   0  0  0  0  0  0  0  0  0  0  0  0
   18.6009    0.4066   -2.5298 H   0  0  0  0  0  0  0  0  0  0  0  0
   16.3324   -0.3501   -2.0770 H   0  0  0  0  0  0  0  0  0  0  0  0
   17.7565   -2.6120    1.1414 H   0  0  0  0  0  0  0  0  0  0  0  0
   17.5326   -2.7980   -0.5957 H   0  0  0  0  0  0  0  0  0  0  0  0
   17.5878   -4.2430    0.4458 H   0  0  0  0  0  0  0  0  0  0  0  0
   15.3110   -5.2995    0.9445 H   0  0  0  0  0  0  0  0  0  0  0  0
   11.5089   -4.0866    1.4042 H   0  0  0  0  0  0  0  0  0  0  0  0
   13.3578   -6.5416    1.1095 H   0  0  0  0  0  0  0  0  0  0  0  0
    9.7852   -5.2918    1.8013 H   0  0  0  0  0  0  0  0  0  0  0  0
    7.9083   -6.8386    2.2766 H   0  0  0  0  0  0  0  0  0  0  0  0
    8.8399  -11.0944    3.2092 H   0  0  0  0  0  0  0  0  0  0  0  0
    8.4774  -11.1790    1.4718 H   0  0  0  0  0  0  0  0  0  0  0  0
    3.8037  -10.3357    3.2654 H   0  0  0  0  0  0  0  0  0  0  0  0
    4.5469  -11.7410    4.1188 H   0  0  0  0  0  0  0  0  0  0  0  0
    4.1992  -11.8517    2.3708 H   0  0  0  0  0  0  0  0  0  0  0  0
   10.5803  -10.2078    1.8938 H   0  0  0  0  0  0  0  0  0  0  0  0
   12.4408   -8.6763    1.4237 H   0  0  0  0  0  0  0  0  0  0  0  0
   14.7995    3.6780    0.0231 H   0  0  0  0  0  0  0  0  0  0  0  0
   15.9270    2.5797    0.8569 H   0  0  0  0  0  0  0  0  0  0  0  0
   15.6917    2.4290   -0.8821 H   0  0  0  0  0  0  0  0  0  0  0  0
   12.3439    3.1201    0.4783 H   0  0  0  0  0  0  0  0  0  0  0  0
    7.9790    3.9878    0.7127 H   0  0  0  0  0  0  0  0  0  0  0  0
    5.5560    4.0586    1.0867 H   0  0  0  0  0  0  0  0  0  0  0  0
  1  2  3  0
  1 54  1  0
  2  3  1  0
  3  4  1  0
  3 55  1  0
  3 56  1  0
  4  5  1  0
  5  6  2  0
  5 53  1  0
  6  7  1  0
  6 57  1  0
  7  8  2  0
  7 58  1  0
  8  9  1  0
  8 52  1  0
  9 10  2  0
  9 59  1  0
 10 11  1  0
 10 60  1  0
 11 12  1  0
 11 51  2  0
 12 13  1  0
 12 46  1  0
 13 14  1  0
 13 49  2  0
 14 15  1  0
 14 26  2  0
 15 16  2  0
 15 25  1  0
 16 17  1  0
 16 61  1  0
 17 18  2  0
 17 62  1  0
 18 19  1  0
 18 24  1  0
 19 20  1  0
 19 22  1  0
 20 21  1  0
 20 63  1  0
 20 64  1  0
 21 65  1  0
 21 66  1  0
 21 67  1  0
 22 23  1  0
 22 68  1  0
 22 69  1  0
 23 70  1  0
 23 71  1  0
 23 72  1  0
 24 25  2  0
 24 73  1  0
 25 74  1  0
 26 27  1  0
 26 45  1  0
 27 28  1  0
 27 29  2  0
 28 75  1  0
 28 76  1  0
 28 77  1  0
 29 30  1  0
 29 78  1  0
 30 31  1  0
 30 45  2  0
 31 32  2  0
 31 79  1  0
 32 33  1  0
 32 80  1  0
 33 34  2  0
 33 44  1  0
 34 35  1  0
 34 81  1  0
 35 36  2  0
 35 82  1  0
 36 37  1  0
 36 43  1  0
 37 38  1  0
 38 39  1  0
 38 83  1  0
 38 84  1  0
 39 40  2  0
 39 41  1  0
 41 42  1  0
 42 85  1  0
 42 86  1  0
 42 87  1  0
 43 44  2  0
 43 88  1  0
 44 89  1  0
 45 46  1  0
 46 47  1  1
 46 48  1  0
 49 50  1  0
 49 51  1  0
 50 90  1  0
 50 91  1  0
 50 92  1  0
 51 93  1  0
 52 53  2  0
 52 94  1  0
 53 95  1  0
M  CHG  2  45   1  46  -1
M  END

