
     RDKit          3D

 60 59  0  0  0  0  0  0  0  0999 V2000
    2.2051    0.1254   -1.4803 C   0  0  0  0  0  0  0  0  0  0  0  0
    3.4774   -0.2820   -1.4770 C   0  0  0  0  0  0  0  0  0  0  0  0
    3.9129   -1.4339   -0.6157 C   0  0  0  0  0  0  0  0  0  0  0  0
    3.1349   -2.0312    0.1215 O   0  0  0  0  0  0  0  0  0  0  0  0
    5.2376   -1.7312   -0.7362 N   0  0  0  0  0  0  0  0  0  0  0  0
    5.9467   -2.7945   -0.0179 C   0  0  1  0  0  0  0  0  0  0  0  0
    5.8445   -2.6151    1.5063 C   0  0  0  0  0  0  0  0  0  0  0  0
    5.3771   -4.1646   -0.4432 C   0  0  0  0  0  0  0  0  0  0  0  0
    6.1306   -5.1760    0.1921 O   0  0  0  0  0  0  0  0  0  0  0  0
    5.7015   -6.4705   -0.0751 C   0  0  0  0  0  0  0  0  0  0  0  0
    6.6195   -7.4687    0.6199 C   0  0  0  0  0  0  0  0  0  0  0  0
    7.6012   -7.1788    1.2530 O   0  0  0  0  0  0  0  0  0  0  0  0
    6.1535   -8.7086    0.3994 O   0  0  0  0  0  0  0  0  0  0  0  0
    6.8152   -9.9103    0.9263 C   0  0  1  0  0  0  0  0  0  0  0  0
    6.8211   -9.8716    2.4580 C   0  0  0  0  0  0  0  0  0  0  0  0
    5.9254  -11.0439    0.4143 C   0  0  0  0  0  0  0  0  0  0  0  0
    8.2290  -10.0231    0.3467 C   0  0  0  0  0  0  0  0  0  0  0  0
    7.4242   -2.6968   -0.4262 C   0  0  0  0  0  0  0  0  0  0  0  0
    7.5405   -2.8483   -1.8358 O   0  0  0  0  0  0  0  0  0  0  0  0
    8.6112   -2.1990   -2.4370 C   0  0  0  0  0  0  0  0  0  0  0  0
    8.3316   -0.7130   -2.6882 C   0  0  0  0  0  0  0  0  0  0  0  0
    7.2792   -0.1715   -2.4258 O   0  0  0  0  0  0  0  0  0  0  0  0
    9.3940   -0.1344   -3.2409 O   0  0  0  0  0  0  0  0  0  0  0  0
    9.4321    1.2889   -3.6379 C   0  0  1  0  0  0  0  0  0  0  0  0
    9.2417    2.1728   -2.4024 C   0  0  0  0  0  0  0  0  0  0  0  0
   10.8411    1.4427   -4.2100 C   0  0  0  0  0  0  0  0  0  0  0  0
    8.3724    1.5515   -4.7110 C   0  0  0  0  0  0  0  0  0  0  0  0
    1.8678    0.9621   -2.0972 H   0  0  0  0  0  0  0  0  0  0  0  0
    1.4743   -0.3880   -0.8483 H   0  0  0  0  0  0  0  0  0  0  0  0
    4.2349    0.2118   -2.0953 H   0  0  0  0  0  0  0  0  0  0  0  0
    5.7824   -1.2300   -1.4378 H   0  0  0  0  0  0  0  0  0  0  0  0
    4.7890   -2.6035    1.8069 H   0  0  0  0  0  0  0  0  0  0  0  0
    6.3037   -1.6625    1.8149 H   0  0  0  0  0  0  0  0  0  0  0  0
    6.3541   -3.4443    2.0169 H   0  0  0  0  0  0  0  0  0  0  0  0
    5.4482   -4.2578   -1.5436 H   0  0  0  0  0  0  0  0  0  0  0  0
    4.3123   -4.2143   -0.1529 H   0  0  0  0  0  0  0  0  0  0  0  0
    5.7090   -6.7034   -1.1613 H   0  0  0  0  0  0  0  0  0  0  0  0
    4.6632   -6.6542    0.2712 H   0  0  0  0  0  0  0  0  0  0  0  0
    5.7972   -9.7421    2.8424 H   0  0  0  0  0  0  0  0  0  0  0  0
    7.4459   -9.0508    2.8326 H   0  0  0  0  0  0  0  0  0  0  0  0
    7.2146  -10.8223    2.8506 H   0  0  0  0  0  0  0  0  0  0  0  0
    4.8989  -10.9327    0.7953 H   0  0  0  0  0  0  0  0  0  0  0  0
    6.3179  -12.0172    0.7460 H   0  0  0  0  0  0  0  0  0  0  0  0
    5.8862  -11.0391   -0.6856 H   0  0  0  0  0  0  0  0  0  0  0  0
    8.8693   -9.2043    0.6988 H   0  0  0  0  0  0  0  0  0  0  0  0
    8.1955  -10.0000   -0.7539 H   0  0  0  0  0  0  0  0  0  0  0  0
    8.6794  -10.9801    0.6535 H   0  0  0  0  0  0  0  0  0  0  0  0
    7.9918   -3.4912    0.0868 H   0  0  0  0  0  0  0  0  0  0  0  0
    7.8137   -1.7130   -0.1072 H   0  0  0  0  0  0  0  0  0  0  0  0
    8.7927   -2.6669   -3.4194 H   0  0  0  0  0  0  0  0  0  0  0  0
    9.5574   -2.2866   -1.8679 H   0  0  0  0  0  0  0  0  0  0  0  0
    9.9857    1.9216   -1.6305 H   0  0  0  0  0  0  0  0  0  0  0  0
    8.2364    2.0567   -1.9778 H   0  0  0  0  0  0  0  0  0  0  0  0
    9.3848    3.2283   -2.6810 H   0  0  0  0  0  0  0  0  0  0  0  0
   11.5980    1.2035   -3.4479 H   0  0  0  0  0  0  0  0  0  0  0  0
   11.0020    2.4771   -4.5490 H   0  0  0  0  0  0  0  0  0  0  0  0
   10.9884    0.7677   -5.0665 H   0  0  0  0  0  0  0  0  0  0  0  0
    7.3578    1.4287   -4.3110 H   0  0  0  0  0  0  0  0  0  0  0  0
    8.5058    0.8643   -5.5610 H   0  0  0  0  0  0  0  0  0  0  0  0
    8.4780    2.5810   -5.0869 H   0  0  0  0  0  0  0  0  0  0  0  0
  1  2  2  0
  1 28  1  0
  1 29  1  0
  2  3  1  0
  2 30  1  0
  3  4  2  0
  3  5  1  0
  6  5  1  6
  5 31  1  0
  6  7  1  0
  6  8  1  0
  6 18  1  0
  7 32  1  0
  7 33  1  0
  7 34  1  0
  8  9  1  0
  8 35  1  0
  8 36  1  0
  9 10  1  0
 10 11  1  0
 10 37  1  0
 10 38  1  0
 11 12  2  0
 11 13  1  0
 14 13  1  6
 14 15  1  0
 14 16  1  0
 14 17  1  0
 15 39  1  0
 15 40  1  0
 15 41  1  0
 16 42  1  0
 16 43  1  0
 16 44  1  0
 17 45  1  0
 17 46  1  0
 17 47  1  0
 18 19  1  0
 18 48  1  0
 18 49  1  0
 19 20  1  0
 20 21  1  0
 20 50  1  0
 20 51  1  0
 21 22  2  0
 21 23  1  0
 24 23  1  1
 24 25  1  0
 24 26  1  0
 24 27  1  0
 25 52  1  0
 25 53  1  0
 25 54  1  0
 26 55  1  0
 26 56  1  0
 26 57  1  0
 27 58  1  0
 27 59  1  0
 27 60  1  0
M  END

