
     RDKit          3D

 80 85  0  0  0  0  0  0  0  0999 V2000
    8.9913   -1.1161    2.9623 C   0  0  0  0  0  0  0  0  0  0  0  0
    7.8798   -1.0691    1.9128 C   0  0  0  0  0  0  0  0  0  0  0  0
    8.3066   -0.4100    0.5976 C   0  0  0  0  0  0  0  0  0  0  0  0
    7.1987   -0.3597   -0.4585 C   0  0  0  0  0  0  0  0  0  0  0  0
    7.6337    0.2999   -1.7700 C   0  0  0  0  0  0  0  0  0  0  0  0
    6.5068    0.3325   -2.8061 C   0  0  0  0  0  0  0  0  0  0  0  0
    6.9079    0.9610   -4.0759 N   0  0  0  0  0  0  0  0  0  0  0  0
    7.4582    0.1313   -5.0554 C   0  0  0  0  0  0  0  0  0  0  0  0
    7.6011   -1.0631   -4.8674 O   0  0  0  0  0  0  0  0  0  0  0  0
    7.8518    0.7906   -6.3313 C   0  0  0  0  0  0  0  0  0  0  0  0
    8.3832    0.0162   -7.3412 C   0  0  0  0  0  0  0  0  0  0  0  0
    8.7829    0.5741   -8.5921 C   0  0  0  0  0  0  0  0  0  0  0  0
    9.3152   -0.3200   -9.5537 C   0  0  0  0  0  0  0  0  0  0  0  0
    9.7585   -1.1782  -10.3039 C   0  0  0  0  0  0  0  0  0  0  0  0
   10.2814   -2.0988  -11.2261 C   0  0  0  0  0  0  0  0  0  0  0  0
   10.7532   -1.8441  -12.5085 C   0  0  0  0  0  0  0  0  0  0  0  0
   11.2134   -3.0100  -13.1716 C   0  0  0  0  0  0  0  0  0  0  0  0
   11.0926   -4.1440  -12.3990 C   0  0  0  0  0  0  0  0  0  0  0  0
   10.4160   -3.8089  -10.8506 S   0  0  0  0  0  0  0  0  0  0  0  0
    8.6230    1.9644   -8.7878 C   0  0  0  0  0  0  0  0  0  0  0  0
    8.0789    2.7647   -7.7515 C   0  0  0  0  0  0  0  0  0  0  0  0
    7.9117    4.1654   -7.9277 C   0  0  0  0  0  0  0  0  0  0  0  0
    7.3843    4.9405   -6.9160 C   0  0  0  0  0  0  0  0  0  0  0  0
    6.9865    4.3834   -5.6642 C   0  0  0  0  0  0  0  0  0  0  0  0
    6.4584    5.2788   -4.7015 C   0  0  0  0  0  0  0  0  0  0  0  0
    6.0186    6.1379   -3.9504 C   0  0  0  0  0  0  0  0  0  0  0  0
    5.5008    7.0606   -3.0273 C   0  0  0  0  0  0  0  0  0  0  0  0
    5.0399    6.8094   -1.7403 C   0  0  0  0  0  0  0  0  0  0  0  0
    4.5823    7.9766   -1.0777 C   0  0  0  0  0  0  0  0  0  0  0  0
    4.6943    9.1081   -1.8552 C   0  0  0  0  0  0  0  0  0  0  0  0
    5.3593    8.7691   -3.4078 S   0  0  0  0  0  0  0  0  0  0  0  0
    7.1421    2.9925   -5.4692 C   0  0  0  0  0  0  0  0  0  0  0  0
    7.6834    2.1914   -6.5067 C   0  0  0  0  0  0  0  0  0  0  0  0
    6.7439    2.3549   -4.1840 C   0  0  0  0  0  0  0  0  0  0  0  0
    6.2901    2.9865   -3.2483 O   0  0  0  0  0  0  0  0  0  0  0  0
    8.3018    4.8263   -9.2046 C   0  0  0  0  0  0  0  0  0  0  0  0
    8.1761    6.0246   -9.3775 O   0  0  0  0  0  0  0  0  0  0  0  0
    8.8217    3.9908  -10.1980 N   0  0  0  0  0  0  0  0  0  0  0  0
    9.2320    4.6065  -11.4752 C   0  0  0  0  0  0  0  0  0  0  0  0
    8.2222    4.4238  -12.6144 C   0  0  0  0  0  0  0  0  0  0  0  0
    6.8446    5.0500  -12.3792 C   0  0  0  0  0  0  0  0  0  0  0  0
    5.9023    4.8990  -13.5772 C   0  0  0  0  0  0  0  0  0  0  0  0
    4.5132    5.5045  -13.3528 C   0  0  0  0  0  0  0  0  0  0  0  0
    3.5788    5.3552  -14.5542 C   0  0  0  0  0  0  0  0  0  0  0  0
    9.0240    2.6037  -10.0709 C   0  0  0  0  0  0  0  0  0  0  0  0
    9.5105    1.9776  -10.9941 O   0  0  0  0  0  0  0  0  0  0  0  0
    8.6498   -1.5958    3.8935 H   0  0  0  0  0  0  0  0  0  0  0  0
    9.3429   -0.1027    3.2198 H   0  0  0  0  0  0  0  0  0  0  0  0
    9.8640   -1.6831    2.5968 H   0  0  0  0  0  0  0  0  0  0  0  0
    7.0075   -0.5281    2.3231 H   0  0  0  0  0  0  0  0  0  0  0  0
    7.5245   -2.0950    1.7055 H   0  0  0  0  0  0  0  0  0  0  0  0
    9.1787   -0.9507    0.1849 H   0  0  0  0  0  0  0  0  0  0  0  0
    8.6615    0.6173    0.8027 H   0  0  0  0  0  0  0  0  0  0  0  0
    6.3271    0.1825   -0.0470 H   0  0  0  0  0  0  0  0  0  0  0  0
    6.8450   -1.3869   -0.6648 H   0  0  0  0  0  0  0  0  0  0  0  0
    8.4932   -0.2477   -2.1931 H   0  0  0  0  0  0  0  0  0  0  0  0
    7.9696    1.3322   -1.5731 H   0  0  0  0  0  0  0  0  0  0  0  0
    5.6534    0.9041   -2.4199 H   0  0  0  0  0  0  0  0  0  0  0  0
    6.1833   -0.6886   -3.0452 H   0  0  0  0  0  0  0  0  0  0  0  0
    8.4973   -1.0546   -7.1679 H   0  0  0  0  0  0  0  0  0  0  0  0
   10.7558   -0.8394  -12.9320 H   0  0  0  0  0  0  0  0  0  0  0  0
   11.6204   -3.0159  -14.1837 H   0  0  0  0  0  0  0  0  0  0  0  0
   11.3687   -5.1643  -12.6633 H   0  0  0  0  0  0  0  0  0  0  0  0
    7.2720    6.0115   -7.0887 H   0  0  0  0  0  0  0  0  0  0  0  0
    5.0432    5.8062   -1.3133 H   0  0  0  0  0  0  0  0  0  0  0  0
    4.1834    7.9852   -0.0624 H   0  0  0  0  0  0  0  0  0  0  0  0
    4.4180   10.1287   -1.5923 H   0  0  0  0  0  0  0  0  0  0  0  0
   10.1881    4.1478  -11.7592 H   0  0  0  0  0  0  0  0  0  0  0  0
    9.3886    5.6714  -11.2657 H   0  0  0  0  0  0  0  0  0  0  0  0
    8.1183    3.3477  -12.8317 H   0  0  0  0  0  0  0  0  0  0  0  0
    8.6785    4.8724  -13.5153 H   0  0  0  0  0  0  0  0  0  0  0  0
    6.9606    6.1191  -12.1285 H   0  0  0  0  0  0  0  0  0  0  0  0
    6.3734    4.5869  -11.4934 H   0  0  0  0  0  0  0  0  0  0  0  0
    5.7969    3.8266  -13.8274 H   0  0  0  0  0  0  0  0  0  0  0  0
    6.3639    5.3680  -14.4666 H   0  0  0  0  0  0  0  0  0  0  0  0
    4.6215    6.5748  -13.0994 H   0  0  0  0  0  0  0  0  0  0  0  0
    4.0518    5.0336  -12.4656 H   0  0  0  0  0  0  0  0  0  0  0  0
    3.9936    5.8495  -15.4489 H   0  0  0  0  0  0  0  0  0  0  0  0
    2.5905    5.8007  -14.3572 H   0  0  0  0  0  0  0  0  0  0  0  0
    3.4201    4.2939  -14.8098 H   0  0  0  0  0  0  0  0  0  0  0  0
  1  2  1  0
  1 47  1  0
  1 48  1  0
  1 49  1  0
  2  3  1  0
  2 50  1  0
  2 51  1  0
  3  4  1  0
  3 52  1  0
  3 53  1  0
  4  5  1  0
  4 54  1  0
  4 55  1  0
  5  6  1  0
  5 56  1  0
  5 57  1  0
  6  7  1  0
  6 58  1  0
  6 59  1  0
  7  8  1  0
  7 34  1  0
  8  9  2  0
  8 10  1  0
 10 11  2  0
 10 33  1  0
 11 12  1  0
 11 60  1  0
 12 13  2  0
 12 20  1  0
 13 14  2  0
 14 15  2  0
 15 16  1  0
 15 19  1  0
 16 17  2  0
 16 61  1  0
 17 18  1  0
 17 62  1  0
 18 19  2  0
 18 63  1  0
 20 21  1  0
 20 45  2  0
 21 22  1  0
 21 33  2  0
 22 23  2  0
 22 36  1  0
 23 24  1  0
 23 64  1  0
 24 25  2  0
 24 32  1  0
 25 26  2  0
 26 27  2  0
 27 28  1  0
 27 31  1  0
 28 29  2  0
 28 65  1  0
 29 30  1  0
 29 66  1  0
 30 31  2  0
 30 67  1  0
 32 33  1  0
 32 34  2  0
 34 35  1  0
 36 37  2  0
 36 38  1  0
 38 39  1  0
 38 45  1  0
 39 40  1  0
 39 68  1  0
 39 69  1  0
 40 41  1  0
 40 70  1  0
 40 71  1  0
 41 42  1  0
 41 72  1  0
 41 73  1  0
 42 43  1  0
 42 74  1  0
 42 75  1  0
 43 44  1  0
 43 76  1  0
 43 77  1  0
 44 78  1  0
 44 79  1  0
 44 80  1  0
 45 46  1  0
M  CHG  4  19   1  31   1  35  -1  46  -1
M  END

