
     RDKit          3D

 45 46  0  0  0  0  0  0  0  0999 V2000
    5.1325    4.5223    1.5992 C   0  0  0  0  0  0  0  0  0  0  0  0
    4.9252    3.0199    1.4546 C   0  0  0  0  0  0  0  0  0  0  0  0
    6.3525    2.0991    2.0972 S   0  0  1  0  0  0  0  0  0  0  0  0
    7.4818    2.3692    1.2011 O   0  0  0  0  0  0  0  0  0  0  0  0
    6.4354    2.4172    3.5338 O   0  0  0  0  0  0  0  0  0  0  0  0
    5.8909    0.4959    1.8902 N   0  0  0  0  0  0  0  0  0  0  0  0
    5.1909   -0.1543    2.9936 C   0  0  0  0  0  0  0  0  0  0  0  0
    6.7007   -0.3473    1.0227 C   0  0  0  0  0  0  0  0  0  0  0  0
    7.9798   -0.9803    1.6040 C   0  0  0  0  0  0  0  0  0  0  0  0
    8.4864   -1.8938    0.9597 O   0  0  0  0  0  0  0  0  0  0  0  0
    8.4117   -0.4189    2.7735 N   0  0  0  0  0  0  0  0  0  0  0  0
    9.5946   -0.6791    3.3012 C   0  0  0  0  0  0  0  0  0  0  0  0
   10.6349   -1.5254    2.7742 C   0  0  0  0  0  0  0  0  0  0  0  0
   11.8261   -1.6941    3.4350 C   0  0  0  0  0  0  0  0  0  0  0  0
   12.0660   -1.0375    4.6679 C   0  0  0  0  0  0  0  0  0  0  0  0
   11.0757   -0.2323    5.1636 C   0  0  0  0  0  0  0  0  0  0  0  0
    9.8907   -0.0467    4.5154 N   0  0  0  0  0  0  0  0  0  0  0  0
    8.9060    0.8643    5.1381 C   0  0  0  0  0  0  0  0  0  0  0  0
    8.1947    0.2604    6.3318 C   0  0  0  0  0  0  0  0  0  0  0  0
    7.7024   -1.0548    6.3061 C   0  0  0  0  0  0  0  0  0  0  0  0
    7.0151   -1.5785    7.4039 C   0  0  0  0  0  0  0  0  0  0  0  0
    6.8030   -0.7953    8.5433 C   0  0  0  0  0  0  0  0  0  0  0  0
    7.2866    0.5149    8.5777 C   0  0  0  0  0  0  0  0  0  0  0  0
    7.9806    1.0352    7.4811 C   0  0  0  0  0  0  0  0  0  0  0  0
    4.2667    5.0643    1.1881 H   0  0  0  0  0  0  0  0  0  0  0  0
    6.0334    4.8425    1.0551 H   0  0  0  0  0  0  0  0  0  0  0  0
    5.2483    4.7982    2.6574 H   0  0  0  0  0  0  0  0  0  0  0  0
    4.8262    2.7039    0.4058 H   0  0  0  0  0  0  0  0  0  0  0  0
    4.0486    2.6622    2.0155 H   0  0  0  0  0  0  0  0  0  0  0  0
    4.6028    0.5809    3.5581 H   0  0  0  0  0  0  0  0  0  0  0  0
    5.8882   -0.6406    3.6956 H   0  0  0  0  0  0  0  0  0  0  0  0
    4.5024   -0.9106    2.5824 H   0  0  0  0  0  0  0  0  0  0  0  0
    7.0208    0.2382    0.1484 H   0  0  0  0  0  0  0  0  0  0  0  0
    6.0704   -1.1674    0.6418 H   0  0  0  0  0  0  0  0  0  0  0  0
   10.4081   -2.0287    1.8372 H   0  0  0  0  0  0  0  0  0  0  0  0
   12.5929   -2.3455    3.0066 H   0  0  0  0  0  0  0  0  0  0  0  0
   13.0002   -1.1568    5.2170 H   0  0  0  0  0  0  0  0  0  0  0  0
   11.1776    0.3044    6.1083 H   0  0  0  0  0  0  0  0  0  0  0  0
    8.1844    1.1450    4.3602 H   0  0  0  0  0  0  0  0  0  0  0  0
    9.4421    1.7752    5.4409 H   0  0  0  0  0  0  0  0  0  0  0  0
    7.8573   -1.6741    5.4195 H   0  0  0  0  0  0  0  0  0  0  0  0
    6.6407   -2.6049    7.3680 H   0  0  0  0  0  0  0  0  0  0  0  0
    6.2650   -1.2065    9.4013 H   0  0  0  0  0  0  0  0  0  0  0  0
    7.1293    1.1354    9.4639 H   0  0  0  0  0  0  0  0  0  0  0  0
    8.3571    2.0618    7.5166 H   0  0  0  0  0  0  0  0  0  0  0  0
  1  2  1  0
  1 25  1  0
  1 26  1  0
  1 27  1  0
  2  3  1  0
  2 28  1  0
  2 29  1  0
  3  4  2  0
  3  5  2  0
  3  6  1  1
  6  7  1  0
  6  8  1  0
  7 30  1  0
  7 31  1  0
  7 32  1  0
  8  9  1  0
  8 33  1  0
  8 34  1  0
  9 10  2  0
  9 11  1  0
 11 12  2  0
 12 13  1  0
 12 17  1  0
 13 14  2  0
 13 35  1  0
 14 15  1  0
 14 36  1  0
 15 16  2  0
 15 37  1  0
 16 17  1  0
 16 38  1  0
 17 18  1  0
 18 19  1  0
 18 39  1  0
 18 40  1  0
 19 20  2  0
 19 24  1  0
 20 21  1  0
 20 41  1  0
 21 22  2  0
 21 42  1  0
 22 23  1  0
 22 43  1  0
 23 24  2  0
 23 44  1  0
 24 45  1  0
M  END

