
     RDKit          3D

 54 54  0  0  0  0  0  0  0  0999 V2000
    0.1274   -0.6979   -2.4394 C   0  0  0  0  0  0  0  0  0  0  0  0
    1.6173   -0.4858   -2.7114 C   0  0  0  0  0  0  0  0  0  0  0  0
    2.4075   -1.7918   -2.8399 C   0  0  0  0  0  0  0  0  0  0  0  0
    3.9007   -1.5869   -3.1122 C   0  0  0  0  0  0  0  0  0  0  0  0
    4.6820   -2.8978   -3.2379 C   0  0  0  0  0  0  0  0  0  0  0  0
    6.1614   -2.6790   -3.5092 C   0  0  0  0  0  0  0  0  0  0  0  0
    6.7905   -3.9520   -3.6055 O   0  0  0  0  0  0  0  0  0  0  0  0
    8.1202   -4.0306   -3.8459 C   0  0  0  0  0  0  0  0  0  0  0  0
    8.9571   -2.9231   -4.0118 C   0  0  0  0  0  0  0  0  0  0  0  0
   10.3281   -3.0818   -4.2579 C   0  0  0  0  0  0  0  0  0  0  0  0
   11.1578   -1.8594   -4.4242 C   0  0  0  0  0  0  0  0  0  0  0  0
   10.7097   -0.7340   -4.3576 O   0  0  0  0  0  0  0  0  0  0  0  0
   10.8957   -4.3778   -4.3437 C   0  0  0  0  0  0  0  0  0  0  0  0
   12.2256   -4.4565   -4.5831 O   0  0  0  0  0  0  0  0  0  0  0  0
   12.8547   -5.7293   -4.6791 C   0  0  0  0  0  0  0  0  0  0  0  0
   14.3346   -5.5105   -4.9481 C   0  0  0  0  0  0  0  0  0  0  0  0
   15.1166   -6.8212   -5.0709 C   0  0  0  0  0  0  0  0  0  0  0  0
   16.6095   -6.6161   -5.3446 C   0  0  0  0  0  0  0  0  0  0  0  0
   17.4006   -7.9219   -5.4693 C   0  0  0  0  0  0  0  0  0  0  0  0
   18.8902   -7.7096   -5.7428 C   0  0  0  0  0  0  0  0  0  0  0  0
   10.0587   -5.4854   -4.1782 C   0  0  0  0  0  0  0  0  0  0  0  0
    8.6877   -5.3266   -3.9323 C   0  0  0  0  0  0  0  0  0  0  0  0
    7.8577   -6.5490   -3.7672 C   0  0  0  0  0  0  0  0  0  0  0  0
    8.3058   -7.6744   -3.8338 O   0  0  0  0  0  0  0  0  0  0  0  0
   -0.4087    0.2606   -2.3529 H   0  0  0  0  0  0  0  0  0  0  0  0
   -0.0338   -1.2549   -1.5010 H   0  0  0  0  0  0  0  0  0  0  0  0
   -0.3503   -1.2742   -3.2495 H   0  0  0  0  0  0  0  0  0  0  0  0
    2.0570    0.1259   -1.9025 H   0  0  0  0  0  0  0  0  0  0  0  0
    1.7432    0.1066   -3.6361 H   0  0  0  0  0  0  0  0  0  0  0  0
    1.9703   -2.4051   -3.6497 H   0  0  0  0  0  0  0  0  0  0  0  0
    2.2841   -2.3859   -1.9153 H   0  0  0  0  0  0  0  0  0  0  0  0
    4.3371   -0.9735   -2.3022 H   0  0  0  0  0  0  0  0  0  0  0  0
    4.0235   -0.9938   -4.0375 H   0  0  0  0  0  0  0  0  0  0  0  0
    4.2624   -3.5136   -4.0521 H   0  0  0  0  0  0  0  0  0  0  0  0
    4.5786   -3.4918   -2.3135 H   0  0  0  0  0  0  0  0  0  0  0  0
    6.6264   -2.0913   -2.6957 H   0  0  0  0  0  0  0  0  0  0  0  0
    6.3089   -2.1160   -4.4499 H   0  0  0  0  0  0  0  0  0  0  0  0
    8.5890   -1.8986   -3.9586 H   0  0  0  0  0  0  0  0  0  0  0  0
   12.2392   -2.0389   -4.6176 H   0  0  0  0  0  0  0  0  0  0  0  0
   12.3907   -6.3164   -5.4937 H   0  0  0  0  0  0  0  0  0  0  0  0
   12.7062   -6.2931   -3.7391 H   0  0  0  0  0  0  0  0  0  0  0  0
   14.7523   -4.8936   -4.1337 H   0  0  0  0  0  0  0  0  0  0  0  0
   14.4398   -4.9174   -5.8730 H   0  0  0  0  0  0  0  0  0  0  0  0
   14.6801   -7.4370   -5.8791 H   0  0  0  0  0  0  0  0  0  0  0  0
   14.9947   -7.4120   -4.1441 H   0  0  0  0  0  0  0  0  0  0  0  0
   17.0467   -6.0000   -4.5369 H   0  0  0  0  0  0  0  0  0  0  0  0
   16.7321   -6.0249   -6.2711 H   0  0  0  0  0  0  0  0  0  0  0  0
   16.9609   -8.5365   -6.2761 H   0  0  0  0  0  0  0  0  0  0  0  0
   17.2756   -8.5115   -4.5427 H   0  0  0  0  0  0  0  0  0  0  0  0
   19.0505   -7.1555   -6.6830 H   0  0  0  0  0  0  0  0  0  0  0  0
   19.4269   -8.6680   -5.8266 H   0  0  0  0  0  0  0  0  0  0  0  0
   19.3679   -7.1305   -4.9347 H   0  0  0  0  0  0  0  0  0  0  0  0
   10.4266   -6.5099   -4.2321 H   0  0  0  0  0  0  0  0  0  0  0  0
    6.7761   -6.3697   -3.5739 H   0  0  0  0  0  0  0  0  0  0  0  0
  1  2  1  0
  1 25  1  0
  1 26  1  0
  1 27  1  0
  2  3  1  0
  2 28  1  0
  2 29  1  0
  3  4  1  0
  3 30  1  0
  3 31  1  0
  4  5  1  0
  4 32  1  0
  4 33  1  0
  5  6  1  0
  5 34  1  0
  5 35  1  0
  6  7  1  0
  6 36  1  0
  6 37  1  0
  7  8  1  0
  8  9  2  0
  8 22  1  0
  9 10  1  0
  9 38  1  0
 10 11  1  0
 10 13  2  0
 11 12  2  0
 11 39  1  0
 13 14  1  0
 13 21  1  0
 14 15  1  0
 15 16  1  0
 15 40  1  0
 15 41  1  0
 16 17  1  0
 16 42  1  0
 16 43  1  0
 17 18  1  0
 17 44  1  0
 17 45  1  0
 18 19  1  0
 18 46  1  0
 18 47  1  0
 19 20  1  0
 19 48  1  0
 19 49  1  0
 20 50  1  0
 20 51  1  0
 20 52  1  0
 21 22  2  0
 21 53  1  0
 22 23  1  0
 23 24  2  0
 23 54  1  0
M  END

