
     RDKit          3D

 37 38  0  0  0  0  0  0  0  0999 V2000
    1.3644   -0.8116    1.8713 O   0  0  0  0  0  0  0  0  0  0  0  0
    1.9530   -0.4028    0.8761 C   0  0  0  0  0  0  0  0  0  0  0  0
    2.0123    0.8701    0.4513 N   0  0  0  0  0  0  0  0  0  0  0  0
    1.4041    1.9898    1.1325 C   0  0  0  0  0  0  0  0  0  0  0  0
    2.3531    3.1933    1.1449 C   0  0  0  0  0  0  0  0  0  0  0  0
    2.7905    3.5442   -0.2036 N   0  0  0  0  0  0  0  0  0  0  0  0
    1.8440    4.3489   -0.9807 C   0  0  0  0  0  0  0  0  0  0  0  0
    1.9285    5.8477   -0.6599 C   0  0  0  0  0  0  0  0  0  0  0  0
    3.3015    6.2991   -0.8499 N   0  0  0  0  0  0  0  0  0  0  0  0
    4.2418    5.5738   -0.0039 C   0  0  0  0  0  0  0  0  0  0  0  0
    4.1471    4.0781   -0.3304 C   0  0  0  0  0  0  0  0  0  0  0  0
    2.7365   -1.3620   -0.0505 C   0  0  0  0  0  0  0  0  0  0  0  0
    3.3238   -0.9721   -1.0488 O   0  0  0  0  0  0  0  0  0  0  0  0
    2.6670   -2.6375    0.3863 N   0  0  0  0  0  0  0  0  0  0  0  0
    3.2647   -3.7380   -0.3042 C   0  0  1  0  0  0  0  0  0  0  0  0
    4.6052   -4.2802    0.1351 C   0  0  0  0  0  0  0  0  0  0  0  0
    3.3417   -5.0654    0.3922 C   0  0  0  0  0  0  0  0  0  0  0  0
    2.5532    1.0567   -0.3922 H   0  0  0  0  0  0  0  0  0  0  0  0
    1.1571    1.6761    2.1578 H   0  0  0  0  0  0  0  0  0  0  0  0
    0.4486    2.2628    0.6459 H   0  0  0  0  0  0  0  0  0  0  0  0
    3.2450    2.9232    1.7322 H   0  0  0  0  0  0  0  0  0  0  0  0
    1.8582    4.0255    1.6883 H   0  0  0  0  0  0  0  0  0  0  0  0
    0.8203    3.9786   -0.8146 H   0  0  0  0  0  0  0  0  0  0  0  0
    2.0717    4.2114   -2.0522 H   0  0  0  0  0  0  0  0  0  0  0  0
    1.5547    6.0246    0.3760 H   0  0  0  0  0  0  0  0  0  0  0  0
    1.2631    6.4061   -1.3392 H   0  0  0  0  0  0  0  0  0  0  0  0
    3.3772    7.3029   -0.7011 H   0  0  0  0  0  0  0  0  0  0  0  0
    4.0524    5.7245    1.0852 H   0  0  0  0  0  0  0  0  0  0  0  0
    5.2651    5.9321   -0.2057 H   0  0  0  0  0  0  0  0  0  0  0  0
    4.8271    3.4954    0.3107 H   0  0  0  0  0  0  0  0  0  0  0  0
    4.4732    3.9357   -1.3758 H   0  0  0  0  0  0  0  0  0  0  0  0
    2.0937   -2.7775    1.2159 H   0  0  0  0  0  0  0  0  0  0  0  0
    3.0698   -3.7271   -1.3818 H   0  0  0  0  0  0  0  0  0  0  0  0
    5.0822   -3.7928    0.9897 H   0  0  0  0  0  0  0  0  0  0  0  0
    5.2950   -4.6273   -0.6391 H   0  0  0  0  0  0  0  0  0  0  0  0
    2.9778   -5.1171    1.4235 H   0  0  0  0  0  0  0  0  0  0  0  0
    3.1457   -5.9672   -0.1941 H   0  0  0  0  0  0  0  0  0  0  0  0
  1  2  2  0
  2  3  1  0
  2 12  1  0
  3  4  1  0
  3 18  1  0
  4  5  1  0
  4 19  1  0
  4 20  1  0
  5  6  1  0
  5 21  1  0
  5 22  1  0
  6  7  1  0
  6 11  1  0
  7  8  1  0
  7 23  1  0
  7 24  1  0
  8  9  1  0
  8 25  1  0
  8 26  1  0
  9 10  1  0
  9 27  1  0
 10 11  1  0
 10 28  1  0
 10 29  1  0
 11 30  1  0
 11 31  1  0
 12 13  2  0
 12 14  1  0
 14 15  1  0
 14 32  1  0
 15 16  1  0
 15 17  1  0
 15 33  1  6
 16 17  1  0
 16 34  1  0
 16 35  1  0
 17 36  1  0
 17 37  1  0
M  END

