
     RDKit          3D

 28 29  0  0  0  0  0  0  0  0999 V2000
    2.2153    1.5217    0.5361 C   0  0  0  0  0  0  0  0  0  0  0  0
    2.0363    0.1787    0.1416 O   0  0  0  0  0  0  0  0  0  0  0  0
    2.7167   -0.2966   -0.9274 C   0  0  0  0  0  0  0  0  0  0  0  0
    3.6482    0.4437   -1.6686 C   0  0  0  0  0  0  0  0  0  0  0  0
    4.2962   -0.1544   -2.7604 C   0  0  0  0  0  0  0  0  0  0  0  0
    5.2717    0.6579   -3.5341 C   0  0  1  0  0  0  0  0  0  0  0  0
    6.0780    0.0277   -4.5088 O   0  0  0  0  0  0  0  0  0  0  0  0
    5.1299    0.9598   -5.0137 C   0  0  1  0  0  0  0  0  0  0  0  0
    4.0191    0.4146   -5.7806 C   0  0  0  0  0  0  0  0  0  0  0  0
    3.1366   -0.0070   -6.4009 N   0  0  0  0  0  0  0  0  0  0  0  0
    5.6771    2.2058   -5.5357 C   0  0  0  0  0  0  0  0  0  0  0  0
    6.1122    3.2072   -5.9228 N   0  0  0  0  0  0  0  0  0  0  0  0
    4.0335   -1.4813   -3.1085 C   0  0  0  0  0  0  0  0  0  0  0  0
    3.1065   -2.2250   -2.3645 C   0  0  0  0  0  0  0  0  0  0  0  0
    2.8170   -3.5174   -2.6388 O   0  0  0  0  0  0  0  0  0  0  0  0
    2.4289   -1.6354   -1.2807 C   0  0  0  0  0  0  0  0  0  0  0  0
    1.4849   -2.3470   -0.6125 O   0  0  0  0  0  0  0  0  0  0  0  0
    1.8772   -2.9092    0.6320 C   0  0  0  0  0  0  0  0  0  0  0  0
    1.5524    1.6846    1.3960 H   0  0  0  0  0  0  0  0  0  0  0  0
    1.9360    2.2241   -0.2692 H   0  0  0  0  0  0  0  0  0  0  0  0
    3.2568    1.7251    0.8438 H   0  0  0  0  0  0  0  0  0  0  0  0
    3.8757    1.4763   -1.4047 H   0  0  0  0  0  0  0  0  0  0  0  0
    5.7822    1.4520   -2.9717 H   0  0  0  0  0  0  0  0  0  0  0  0
    4.5653   -1.9437   -3.9431 H   0  0  0  0  0  0  0  0  0  0  0  0
    3.2973   -3.7934   -3.4304 H   0  0  0  0  0  0  0  0  0  0  0  0
    1.0062   -3.4539    1.0219 H   0  0  0  0  0  0  0  0  0  0  0  0
    2.1661   -2.1278    1.3548 H   0  0  0  0  0  0  0  0  0  0  0  0
    2.7143   -3.6182    0.5042 H   0  0  0  0  0  0  0  0  0  0  0  0
  1  2  1  0
  1 19  1  0
  1 20  1  0
  1 21  1  0
  2  3  1  0
  3  4  2  0
  3 16  1  0
  4  5  1  0
  4 22  1  0
  5  6  1  0
  5 13  2  0
  6  7  1  0
  6  8  1  0
  6 23  1  1
  7  8  1  0
  8  9  1  6
  8 11  1  0
  9 10  3  0
 11 12  3  0
 13 14  1  0
 13 24  1  0
 14 15  1  0
 14 16  2  0
 15 25  1  0
 16 17  1  0
 17 18  1  0
 18 26  1  0
 18 27  1  0
 18 28  1  0
M  END

