
     RDKit          3D

 58 59  0  0  0  0  0  0  0  0999 V2000
    0.6055    0.6358   -0.6238 C   0  0  0  0  0  0  0  0  0  0  0  0
    1.8662    1.4416   -0.8935 C   0  0  0  0  0  0  0  0  0  0  0  0
    2.9049    0.5400   -1.2097 O   0  0  0  0  0  0  0  0  0  0  0  0
    4.2743    0.9948   -1.2519 C   0  0  1  0  0  0  0  0  0  0  0  0
    4.7619    1.2674    0.2459 C   0  0  1  0  0  0  0  0  0  0  0  0
    4.0388    0.4946    1.2562 N   0  0  0  0  0  0  0  0  0  0  0  0
    4.0895   -0.9570    1.2465 C   0  0  0  0  0  0  0  0  0  0  0  0
    6.3003    1.1448    0.5153 C   0  0  1  0  0  0  0  0  0  0  0  0
    7.2187    2.0914   -0.2917 C   0  0  0  0  0  0  0  0  0  0  0  0
    7.1029    3.5646    0.1307 C   0  0  0  0  0  0  0  0  0  0  0  0
    7.3859    3.7850    1.6335 C   0  0  2  0  0  0  0  0  0  0  0  0
    8.8813    3.6921    2.0058 C   0  0  0  0  0  0  0  0  0  0  0  0
    9.7664    4.7813    1.3950 C   0  0  0  0  0  0  0  0  0  0  0  0
    6.5198    2.8125    2.4625 C   0  0  0  0  0  0  0  0  0  0  0  0
    6.6404    1.3492    2.0122 C   0  0  0  0  0  0  0  0  0  0  0  0
    5.0274   -0.1568   -1.9509 C   0  0  0  0  0  0  0  0  0  0  0  0
    4.5451   -0.3963   -3.3892 C   0  0  0  0  0  0  0  0  0  0  0  0
    4.6389    0.8615   -4.2745 C   0  0  2  0  0  0  0  0  0  0  0  0
    6.0828    1.2141   -4.6617 C   0  0  0  0  0  0  0  0  0  0  0  0
    3.9054    2.0271   -3.5811 C   0  0  0  0  0  0  0  0  0  0  0  0
    4.3704    2.2622   -2.1346 C   0  0  0  0  0  0  0  0  0  0  0  0
   -0.2448    1.3033   -0.4120 H   0  0  0  0  0  0  0  0  0  0  0  0
    0.7449   -0.0373    0.2366 H   0  0  0  0  0  0  0  0  0  0  0  0
    0.3530    0.0166   -1.4984 H   0  0  0  0  0  0  0  0  0  0  0  0
    2.1139    2.0637   -0.0101 H   0  0  0  0  0  0  0  0  0  0  0  0
    1.6809    2.1493   -1.7248 H   0  0  0  0  0  0  0  0  0  0  0  0
    4.4822    2.3142    0.4527 H   0  0  0  0  0  0  0  0  0  0  0  0
    3.0757    0.8045    1.3175 H   0  0  0  0  0  0  0  0  0  0  0  0
    5.1316   -1.3103    1.3060 H   0  0  0  0  0  0  0  0  0  0  0  0
    3.6155   -1.4342    0.3674 H   0  0  0  0  0  0  0  0  0  0  0  0
    3.5792   -1.3363    2.1477 H   0  0  0  0  0  0  0  0  0  0  0  0
    6.5921    0.1135    0.2572 H   0  0  0  0  0  0  0  0  0  0  0  0
    7.0574    1.9964   -1.3750 H   0  0  0  0  0  0  0  0  0  0  0  0
    8.2573    1.7535   -0.1312 H   0  0  0  0  0  0  0  0  0  0  0  0
    6.0864    3.9328   -0.0914 H   0  0  0  0  0  0  0  0  0  0  0  0
    7.7792    4.1808   -0.4845 H   0  0  0  0  0  0  0  0  0  0  0  0
    7.0684    4.8143    1.8846 H   0  0  0  0  0  0  0  0  0  0  0  0
    9.2851    2.7013    1.7343 H   0  0  0  0  0  0  0  0  0  0  0  0
    8.9590    3.7489    3.1062 H   0  0  0  0  0  0  0  0  0  0  0  0
    9.8054    4.7205    0.2955 H   0  0  0  0  0  0  0  0  0  0  0  0
   10.8028    4.7014    1.7606 H   0  0  0  0  0  0  0  0  0  0  0  0
    9.3997    5.7886    1.6563 H   0  0  0  0  0  0  0  0  0  0  0  0
    5.4625    3.1223    2.3937 H   0  0  0  0  0  0  0  0  0  0  0  0
    6.7860    2.8949    3.5306 H   0  0  0  0  0  0  0  0  0  0  0  0
    5.9890    0.7228    2.6349 H   0  0  0  0  0  0  0  0  0  0  0  0
    7.6753    1.0000    2.1740 H   0  0  0  0  0  0  0  0  0  0  0  0
    4.9098   -1.0798   -1.3654 H   0  0  0  0  0  0  0  0  0  0  0  0
    6.1029    0.0733   -1.9546 H   0  0  0  0  0  0  0  0  0  0  0  0
    3.4962   -0.7300   -3.3516 H   0  0  0  0  0  0  0  0  0  0  0  0
    5.1256   -1.2199   -3.8400 H   0  0  0  0  0  0  0  0  0  0  0  0
    4.1016    0.6473   -5.2158 H   0  0  0  0  0  0  0  0  0  0  0  0
    6.7127    1.4498   -3.7888 H   0  0  0  0  0  0  0  0  0  0  0  0
    6.1101    2.0912   -5.3291 H   0  0  0  0  0  0  0  0  0  0  0  0
    6.5640    0.3765   -5.1927 H   0  0  0  0  0  0  0  0  0  0  0  0
    2.8253    1.8080   -3.5835 H   0  0  0  0  0  0  0  0  0  0  0  0
    4.0345    2.9561   -4.1632 H   0  0  0  0  0  0  0  0  0  0  0  0
    3.7864    3.0798   -1.6805 H   0  0  0  0  0  0  0  0  0  0  0  0
    5.4090    2.6177   -2.1370 H   0  0  0  0  0  0  0  0  0  0  0  0
  1  2  1  0
  1 22  1  0
  1 23  1  0
  1 24  1  0
  2  3  1  0
  2 25  1  0
  2 26  1  0
  4  3  1  1
  4  5  1  0
  4 16  1  0
  4 21  1  0
  5  6  1  0
  5  8  1  0
  5 27  1  1
  6  7  1  0
  6 28  1  0
  7 29  1  0
  7 30  1  0
  7 31  1  0
  8  9  1  0
  8 15  1  0
  8 32  1  6
  9 10  1  0
  9 33  1  0
  9 34  1  0
 10 11  1  0
 10 35  1  0
 10 36  1  0
 11 12  1  0
 11 14  1  0
 11 37  1  1
 12 13  1  0
 12 38  1  0
 12 39  1  0
 13 40  1  0
 13 41  1  0
 13 42  1  0
 14 15  1  0
 14 43  1  0
 14 44  1  0
 15 45  1  0
 15 46  1  0
 16 17  1  0
 16 47  1  0
 16 48  1  0
 17 18  1  0
 17 49  1  0
 17 50  1  0
 18 19  1  0
 18 20  1  0
 18 51  1  6
 19 52  1  0
 19 53  1  0
 19 54  1  0
 20 21  1  0
 20 55  1  0
 20 56  1  0
 21 57  1  0
 21 58  1  0
M  END

