
     RDKit          3D

 40 41  0  0  0  0  0  0  0  0999 V2000
    1.3186    1.2265    2.0318 C   0  0  0  0  0  0  0  0  0  0  0  0
    2.1941    0.4000    0.6821 S   0  0  1  0  0  0  0  0  0  0  0  0
    1.1707   -0.1509   -0.2182 O   0  0  0  0  0  0  0  0  0  0  0  0
    3.2165    1.3378    0.1967 O   0  0  0  0  0  0  0  0  0  0  0  0
    3.0378   -0.9786    1.4690 C   0  0  0  0  0  0  0  0  0  0  0  0
    2.4086   -2.2224    1.5371 C   0  0  0  0  0  0  0  0  0  0  0  0
    3.0655   -3.2997    2.1351 C   0  0  0  0  0  0  0  0  0  0  0  0
    4.3585   -3.1363    2.6650 C   0  0  0  0  0  0  0  0  0  0  0  0
    5.3011   -4.4193    3.4374 S   0  0  0  0  0  0  0  0  0  0  0  0
    4.1748   -5.8651    3.4667 C   0  0  0  0  0  0  0  0  0  0  0  0
    4.8171   -7.0064    4.2897 C   0  0  1  0  0  0  0  0  0  0  0  0
    5.0464   -6.6751    5.6914 N   0  0  0  0  0  0  0  0  0  0  0  0
    3.9721   -8.2918    4.1964 C   0  0  1  0  0  0  0  0  0  0  0  0
    3.7224   -8.8071    2.7569 C   0  0  0  0  0  0  0  0  0  0  0  0
    3.5605  -10.3241    2.9159 C   0  0  0  0  0  0  0  0  0  0  0  0
    4.6392  -10.6750    3.9501 C   0  0  0  0  0  0  0  0  0  0  0  0
    4.6081   -9.5014    4.9548 C   0  0  0  0  0  0  0  0  0  0  0  0
    4.9852   -1.8751    2.5695 C   0  0  0  0  0  0  0  0  0  0  0  0
    4.3332   -0.8026    1.9704 C   0  0  0  0  0  0  0  0  0  0  0  0
    0.8014    2.0731    1.5584 H   0  0  0  0  0  0  0  0  0  0  0  0
    2.0456    1.5835    2.7726 H   0  0  0  0  0  0  0  0  0  0  0  0
    0.5951    0.5306    2.4756 H   0  0  0  0  0  0  0  0  0  0  0  0
    1.4146   -2.3481    1.1025 H   0  0  0  0  0  0  0  0  0  0  0  0
    2.5647   -4.2669    2.1704 H   0  0  0  0  0  0  0  0  0  0  0  0
    3.9814   -6.1791    2.4305 H   0  0  0  0  0  0  0  0  0  0  0  0
    3.2185   -5.5707    3.9307 H   0  0  0  0  0  0  0  0  0  0  0  0
    5.8045   -7.2277    3.8414 H   0  0  0  0  0  0  0  0  0  0  0  0
    4.1607   -6.4605    6.1539 H   0  0  0  0  0  0  0  0  0  0  0  0
    5.6277   -5.8419    5.7810 H   0  0  0  0  0  0  0  0  0  0  0  0
    2.9905   -8.0652    4.6545 H   0  0  0  0  0  0  0  0  0  0  0  0
    4.6071   -8.6001    2.1270 H   0  0  0  0  0  0  0  0  0  0  0  0
    2.8586   -8.3299    2.2677 H   0  0  0  0  0  0  0  0  0  0  0  0
    3.6636  -10.8736    1.9667 H   0  0  0  0  0  0  0  0  0  0  0  0
    2.5578  -10.5542    3.3186 H   0  0  0  0  0  0  0  0  0  0  0  0
    5.6216  -10.7206    3.4491 H   0  0  0  0  0  0  0  0  0  0  0  0
    4.4808  -11.6539    4.4290 H   0  0  0  0  0  0  0  0  0  0  0  0
    5.6048   -9.2463    5.3422 H   0  0  0  0  0  0  0  0  0  0  0  0
    3.9990   -9.7572    5.8356 H   0  0  0  0  0  0  0  0  0  0  0  0
    5.9965   -1.7433    2.9629 H   0  0  0  0  0  0  0  0  0  0  0  0
    4.8249    0.1673    1.8718 H   0  0  0  0  0  0  0  0  0  0  0  0
  2  1  1  1
  1 20  1  0
  1 21  1  0
  1 22  1  0
  2  3  2  0
  2  4  2  0
  2  5  1  0
  5  6  2  0
  5 19  1  0
  6  7  1  0
  6 23  1  0
  7  8  2  0
  7 24  1  0
  8  9  1  0
  8 18  1  0
  9 10  1  0
 10 11  1  0
 10 25  1  0
 10 26  1  0
 11 12  1  0
 11 13  1  0
 11 27  1  6
 12 28  1  0
 12 29  1  0
 13 14  1  0
 13 17  1  0
 13 30  1  1
 14 15  1  0
 14 31  1  0
 14 32  1  0
 15 16  1  0
 15 33  1  0
 15 34  1  0
 16 17  1  0
 16 35  1  0
 16 36  1  0
 17 37  1  0
 17 38  1  0
 18 19  2  0
 18 39  1  0
 19 40  1  0
M  END

