
     RDKit          3D

 36 37  0  0  0  0  0  0  0  0999 V2000
    3.3905   -1.4304   -0.5102 C   0  0  0  0  0  0  0  0  0  0  0  0
    2.6726   -0.1316   -0.0855 C   0  0  1  0  0  0  0  0  0  0  0  0
    3.4543    1.0730   -0.6386 C   0  0  0  0  0  0  0  0  0  0  0  0
    1.2636   -0.1490   -0.7119 C   0  0  0  0  0  0  0  0  0  0  0  0
    2.5789   -0.1143    1.5039 C   0  0  1  0  0  0  0  0  0  0  0  0
    3.7953   -0.5799    2.1679 N   0  0  0  0  0  0  0  0  0  0  0  0
    5.0009    0.0527    2.3520 C   0  0  0  0  0  0  0  0  0  0  0  0
    6.0358   -0.5771    2.4799 O   0  0  0  0  0  0  0  0  0  0  0  0
    4.9400    1.5593    2.5176 C   0  0  0  0  0  0  0  0  0  0  0  0
    3.8268    2.0055    3.4593 C   0  0  0  0  0  0  0  0  0  0  0  0
    2.4826    2.0894    2.8667 N   0  0  0  0  0  0  0  0  0  0  0  0
    1.6637    3.1543    3.3597 C   0  0  0  0  0  0  0  0  0  0  0  0
    0.8142    3.9738    2.5420 C   0  0  0  0  0  0  0  0  0  0  0  0
    0.1920    4.9577    3.2598 C   0  0  0  0  0  0  0  0  0  0  0  0
    0.6235    4.9110    4.9357 S   0  0  0  0  0  0  0  0  0  0  0  0
    1.6526    3.5469    4.6806 C   0  0  0  0  0  0  0  0  0  0  0  0
    1.8678    1.1453    2.0592 C   0  0  0  0  0  0  0  0  0  0  0  0
    0.6955    1.2761    1.7446 O   0  0  0  0  0  0  0  0  0  0  0  0
    3.3812   -1.5158   -1.6080 H   0  0  0  0  0  0  0  0  0  0  0  0
    2.8792   -2.3231   -0.1109 H   0  0  0  0  0  0  0  0  0  0  0  0
    4.4416   -1.4603   -0.1869 H   0  0  0  0  0  0  0  0  0  0  0  0
    3.4519    1.0463   -1.7400 H   0  0  0  0  0  0  0  0  0  0  0  0
    4.5087    1.0650   -0.3233 H   0  0  0  0  0  0  0  0  0  0  0  0
    3.0032    2.0311   -0.3339 H   0  0  0  0  0  0  0  0  0  0  0  0
    1.3515   -0.2748   -1.8035 H   0  0  0  0  0  0  0  0  0  0  0  0
    0.7050    0.7714   -0.5065 H   0  0  0  0  0  0  0  0  0  0  0  0
    0.6643   -0.9886   -0.3243 H   0  0  0  0  0  0  0  0  0  0  0  0
    1.8295   -0.8842    1.7429 H   0  0  0  0  0  0  0  0  0  0  0  0
    3.9203   -1.5880    2.1323 H   0  0  0  0  0  0  0  0  0  0  0  0
    4.8377    2.0664    1.5463 H   0  0  0  0  0  0  0  0  0  0  0  0
    5.9126    1.8521    2.9365 H   0  0  0  0  0  0  0  0  0  0  0  0
    4.0592    3.0212    3.8035 H   0  0  0  0  0  0  0  0  0  0  0  0
    3.8187    1.3599    4.3564 H   0  0  0  0  0  0  0  0  0  0  0  0
    0.6707    3.8189    1.4751 H   0  0  0  0  0  0  0  0  0  0  0  0
   -0.5010    5.7140    2.8944 H   0  0  0  0  0  0  0  0  0  0  0  0
    2.1844    3.1005    5.5183 H   0  0  0  0  0  0  0  0  0  0  0  0
  2  1  1  1
  1 19  1  0
  1 20  1  0
  1 21  1  0
  2  3  1  0
  2  4  1  0
  2  5  1  0
  3 22  1  0
  3 23  1  0
  3 24  1  0
  4 25  1  0
  4 26  1  0
  4 27  1  0
  5  6  1  0
  5 17  1  0
  5 28  1  6
  6  7  1  0
  6 29  1  0
  7  8  2  0
  7  9  1  0
  9 10  1  0
  9 30  1  0
  9 31  1  0
 10 11  1  0
 10 32  1  0
 10 33  1  0
 11 12  1  0
 11 17  1  0
 12 13  1  0
 12 16  2  0
 13 14  2  0
 13 34  1  0
 14 15  1  0
 14 35  1  0
 15 16  1  0
 16 36  1  0
 17 18  2  0
M  END

