
     RDKit          3D

 41 42  0  0  0  0  0  0  0  0999 V2000
    3.2376   -1.1205   -2.1615 C   0  0  0  0  0  0  0  0  0  0  0  0
    2.6463   -1.5333   -0.9308 O   0  0  0  0  0  0  0  0  0  0  0  0
    3.4578   -2.0224    0.0394 C   0  0  0  0  0  0  0  0  0  0  0  0
    4.7543   -2.0830   -0.2203 N   0  0  0  0  0  0  0  0  0  0  0  0
    5.5824   -2.5585    0.7152 C   0  0  0  0  0  0  0  0  0  0  0  0
    5.1428   -2.9954    1.9624 C   0  0  0  0  0  0  0  0  0  0  0  0
    3.7737   -2.9264    2.2288 C   0  0  0  0  0  0  0  0  0  0  0  0
    2.8818   -2.4372    1.2702 C   0  0  0  0  0  0  0  0  0  0  0  0
    1.4216   -2.4058    1.6661 C   0  0  0  0  0  0  0  0  0  0  0  0
    1.0814   -2.7590    2.7914 O   0  0  0  0  0  0  0  0  0  0  0  0
    0.5271   -1.9883    0.7323 N   0  0  0  0  0  0  0  0  0  0  0  0
   -0.8900   -1.9216    1.0327 C   0  0  0  0  0  0  0  0  0  0  0  0
   -1.3202   -0.6174    1.7541 C   0  0  1  0  0  0  0  0  0  0  0  0
   -1.2535    0.5594    0.7819 C   0  0  0  0  0  0  0  0  0  0  0  0
   -2.6470   -0.8486    2.3423 N   0  0  0  0  0  0  0  0  0  0  0  0
   -2.6118   -1.5773    3.6141 C   0  0  0  0  0  0  0  0  0  0  0  0
   -2.4631   -0.6395    4.8160 C   0  0  0  0  0  0  0  0  0  0  0  0
   -3.4777    0.3502    4.8273 O   0  0  0  0  0  0  0  0  0  0  0  0
   -3.4772    1.1182    3.6397 C   0  0  0  0  0  0  0  0  0  0  0  0
   -3.6387    0.2203    2.4084 C   0  0  0  0  0  0  0  0  0  0  0  0
    2.4074   -0.7652   -2.7858 H   0  0  0  0  0  0  0  0  0  0  0  0
    3.7542   -1.9582   -2.6528 H   0  0  0  0  0  0  0  0  0  0  0  0
    3.9664   -0.3130   -1.9985 H   0  0  0  0  0  0  0  0  0  0  0  0
    6.6457   -2.5894    0.4511 H   0  0  0  0  0  0  0  0  0  0  0  0
    5.8487   -3.3769    2.7024 H   0  0  0  0  0  0  0  0  0  0  0  0
    3.3493   -3.2462    3.1828 H   0  0  0  0  0  0  0  0  0  0  0  0
    0.8841   -1.7037   -0.1730 H   0  0  0  0  0  0  0  0  0  0  0  0
   -1.1438   -2.7816    1.6660 H   0  0  0  0  0  0  0  0  0  0  0  0
   -1.4610   -2.0183    0.0958 H   0  0  0  0  0  0  0  0  0  0  0  0
   -0.5640   -0.4334    2.5447 H   0  0  0  0  0  0  0  0  0  0  0  0
   -1.9883    0.4536   -0.0336 H   0  0  0  0  0  0  0  0  0  0  0  0
   -0.2504    0.5927    0.3295 H   0  0  0  0  0  0  0  0  0  0  0  0
   -1.4198    1.5287    1.2752 H   0  0  0  0  0  0  0  0  0  0  0  0
   -1.7845   -2.3031    3.6089 H   0  0  0  0  0  0  0  0  0  0  0  0
   -3.5547   -2.1440    3.7260 H   0  0  0  0  0  0  0  0  0  0  0  0
   -1.4624   -0.1576    4.8004 H   0  0  0  0  0  0  0  0  0  0  0  0
   -2.5500   -1.1974    5.7617 H   0  0  0  0  0  0  0  0  0  0  0  0
   -2.5369    1.7069    3.5652 H   0  0  0  0  0  0  0  0  0  0  0  0
   -4.3147    1.8304    3.7189 H   0  0  0  0  0  0  0  0  0  0  0  0
   -3.6312    0.8213    1.4887 H   0  0  0  0  0  0  0  0  0  0  0  0
   -4.6373   -0.2524    2.4680 H   0  0  0  0  0  0  0  0  0  0  0  0
  1  2  1  0
  1 21  1  0
  1 22  1  0
  1 23  1  0
  2  3  1  0
  3  4  2  0
  3  8  1  0
  4  5  1  0
  5  6  2  0
  5 24  1  0
  6  7  1  0
  6 25  1  0
  7  8  2  0
  7 26  1  0
  8  9  1  0
  9 10  2  0
  9 11  1  0
 11 12  1  0
 11 27  1  0
 12 13  1  0
 12 28  1  0
 12 29  1  0
 13 14  1  0
 13 15  1  0
 13 30  1  1
 14 31  1  0
 14 32  1  0
 14 33  1  0
 15 16  1  0
 15 20  1  0
 16 17  1  0
 16 34  1  0
 16 35  1  0
 17 18  1  0
 17 36  1  0
 17 37  1  0
 18 19  1  0
 19 20  1  0
 19 38  1  0
 19 39  1  0
 20 40  1  0
 20 41  1  0
M  END

