
     RDKit          3D

 56 57  0  0  0  0  0  0  0  0999 V2000
    1.7009    1.0801    2.1759 C   0  0  0  0  0  0  0  0  0  0  0  0
    1.0917    0.3637    0.9710 C   0  0  0  0  0  0  0  0  0  0  0  0
    1.9112    0.5385   -0.3153 C   0  0  1  0  0  0  0  0  0  0  0  0
    1.2964   -0.1625   -1.5351 C   0  0  0  0  0  0  0  0  0  0  0  0
    0.1311    0.5719   -2.0308 N   0  0  0  0  0  0  0  0  0  0  0  0
   -1.0757   -0.0608   -2.1292 C   0  0  0  0  0  0  0  0  0  0  0  0
   -1.2358   -1.2187   -1.7570 O   0  0  0  0  0  0  0  0  0  0  0  0
   -2.2594    0.6964   -2.7696 C   0  0  1  0  0  0  0  0  0  0  0  0
   -2.1231    0.8470   -4.3065 C   0  0  0  0  0  0  0  0  0  0  0  0
   -1.6989   -0.3831   -5.1325 C   0  0  1  0  0  0  0  0  0  0  0  0
   -2.6317   -1.5931   -4.9850 C   0  0  0  0  0  0  0  0  0  0  0  0
   -1.5660    0.0243   -6.6075 C   0  0  0  0  0  0  0  0  0  0  0  0
   -3.4818   -0.0032   -2.3883 N   0  0  0  0  0  0  0  0  0  0  0  0
   -4.7484    0.8147   -1.6786 S   0  0  1  0  0  0  0  0  0  0  0  0
   -4.9375    2.0400   -2.4613 O   0  0  0  0  0  0  0  0  0  0  0  0
   -5.8015   -0.1811   -1.4958 O   0  0  0  0  0  0  0  0  0  0  0  0
   -4.2010    1.3255   -0.0395 C   0  0  0  0  0  0  0  0  0  0  0  0
   -3.8307    2.6522    0.1882 C   0  0  0  0  0  0  0  0  0  0  0  0
   -3.3931    3.0317    1.4615 C   0  0  0  0  0  0  0  0  0  0  0  0
   -3.3265    2.1062    2.5135 C   0  0  0  0  0  0  0  0  0  0  0  0
   -2.8646    2.5138    3.8904 C   0  0  0  0  0  0  0  0  0  0  0  0
   -3.7205    0.7786    2.2583 C   0  0  0  0  0  0  0  0  0  0  0  0
   -4.1609    0.3843    0.9970 C   0  0  0  0  0  0  0  0  0  0  0  0
    0.4241    1.9707   -2.3242 C   0  0  0  0  0  0  0  0  0  0  0  0
    1.0535    2.6307   -1.0944 C   0  0  0  0  0  0  0  0  0  0  0  0
    2.1737    1.9103   -0.6274 O   0  0  0  0  0  0  0  0  0  0  0  0
    1.0896    0.9292    3.0794 H   0  0  0  0  0  0  0  0  0  0  0  0
    1.7851    2.1625    1.9954 H   0  0  0  0  0  0  0  0  0  0  0  0
    2.7156    0.7063    2.3923 H   0  0  0  0  0  0  0  0  0  0  0  0
    0.0542    0.7028    0.8113 H   0  0  0  0  0  0  0  0  0  0  0  0
    1.0183   -0.7193    1.1692 H   0  0  0  0  0  0  0  0  0  0  0  0
    2.9115    0.1050   -0.1483 H   0  0  0  0  0  0  0  0  0  0  0  0
    0.9782   -1.1837   -1.2947 H   0  0  0  0  0  0  0  0  0  0  0  0
    2.0522   -0.2048   -2.3399 H   0  0  0  0  0  0  0  0  0  0  0  0
   -2.3088    1.7169   -2.3586 H   0  0  0  0  0  0  0  0  0  0  0  0
   -1.4019    1.6570   -4.5110 H   0  0  0  0  0  0  0  0  0  0  0  0
   -3.1027    1.2151   -4.6542 H   0  0  0  0  0  0  0  0  0  0  0  0
   -0.6940   -0.6918   -4.7858 H   0  0  0  0  0  0  0  0  0  0  0  0
   -3.6764   -1.3234   -5.2103 H   0  0  0  0  0  0  0  0  0  0  0  0
   -2.6004   -2.0106   -3.9696 H   0  0  0  0  0  0  0  0  0  0  0  0
   -2.3304   -2.3933   -5.6809 H   0  0  0  0  0  0  0  0  0  0  0  0
   -2.5416    0.3357   -7.0184 H   0  0  0  0  0  0  0  0  0  0  0  0
   -1.2002   -0.8153   -7.2199 H   0  0  0  0  0  0  0  0  0  0  0  0
   -0.8661    0.8661   -6.7389 H   0  0  0  0  0  0  0  0  0  0  0  0
   -3.3104   -0.9295   -1.9905 H   0  0  0  0  0  0  0  0  0  0  0  0
   -3.9101    3.3782   -0.6229 H   0  0  0  0  0  0  0  0  0  0  0  0
   -3.1096    4.0724    1.6417 H   0  0  0  0  0  0  0  0  0  0  0  0
   -2.5524    3.5677    3.9191 H   0  0  0  0  0  0  0  0  0  0  0  0
   -2.0135    1.8978    4.2246 H   0  0  0  0  0  0  0  0  0  0  0  0
   -3.6684    2.3797    4.6337 H   0  0  0  0  0  0  0  0  0  0  0  0
   -3.6910    0.0439    3.0681 H   0  0  0  0  0  0  0  0  0  0  0  0
   -4.4875   -0.6417    0.8153 H   0  0  0  0  0  0  0  0  0  0  0  0
   -0.4836    2.5143   -2.6105 H   0  0  0  0  0  0  0  0  0  0  0  0
    1.1313    2.0250   -3.1726 H   0  0  0  0  0  0  0  0  0  0  0  0
    0.2830    2.7382   -0.3056 H   0  0  0  0  0  0  0  0  0  0  0  0
    1.4133    3.6389   -1.3524 H   0  0  0  0  0  0  0  0  0  0  0  0
  1  2  1  0
  1 27  1  0
  1 28  1  0
  1 29  1  0
  2  3  1  0
  2 30  1  0
  2 31  1  0
  3  4  1  0
  3 26  1  0
  3 32  1  1
  4  5  1  0
  4 33  1  0
  4 34  1  0
  5  6  1  0
  5 24  1  0
  6  7  2  0
  6  8  1  0
  8  9  1  0
  8 13  1  0
  8 35  1  1
  9 10  1  0
  9 36  1  0
  9 37  1  0
 10 11  1  0
 10 12  1  0
 10 38  1  1
 11 39  1  0
 11 40  1  0
 11 41  1  0
 12 42  1  0
 12 43  1  0
 12 44  1  0
 14 13  1  6
 13 45  1  0
 14 15  2  0
 14 16  2  0
 14 17  1  0
 17 18  2  0
 17 23  1  0
 18 19  1  0
 18 46  1  0
 19 20  2  0
 19 47  1  0
 20 21  1  0
 20 22  1  0
 21 48  1  0
 21 49  1  0
 21 50  1  0
 22 23  2  0
 22 51  1  0
 23 52  1  0
 24 25  1  0
 24 53  1  0
 24 54  1  0
 25 26  1  0
 25 55  1  0
 25 56  1  0
M  END

