
     RDKit          3D

 47 50  0  0  0  0  0  0  0  0999 V2000
    0.4395    1.0301   -0.0343 C   0  0  0  0  0  0  0  0  0  0  0  0
    1.6242    0.5795    0.5788 O   0  0  0  0  0  0  0  0  0  0  0  0
    2.3808    1.4466    1.3049 C   0  0  0  0  0  0  0  0  0  0  0  0
    2.0460    2.8099    1.4910 C   0  0  0  0  0  0  0  0  0  0  0  0
    2.8606    3.6578    2.2480 C   0  0  0  0  0  0  0  0  0  0  0  0
    4.0067    3.1072    2.8066 C   0  0  0  0  0  0  0  0  0  0  0  0
    4.9356    3.7449    3.5739 O   0  0  0  0  0  0  0  0  0  0  0  0
    5.8927    2.8024    3.8999 C   0  0  0  0  0  0  0  0  0  0  0  0
    7.0281    3.2563    4.7422 C   0  0  0  0  0  0  0  0  0  0  0  0
    7.9239    2.4944    5.0798 O   0  0  0  0  0  0  0  0  0  0  0  0
    6.9555    4.5853    5.0846 N   0  0  0  0  0  0  0  0  0  0  0  0
    7.8435    5.3476    5.8624 C   0  0  0  0  0  0  0  0  0  0  0  0
    9.0118    4.8312    6.4520 C   0  0  0  0  0  0  0  0  0  0  0  0
    9.8468    5.6502    7.2091 C   0  0  0  0  0  0  0  0  0  0  0  0
    9.5489    7.0136    7.4075 C   0  0  0  0  0  0  0  0  0  0  0  0
   10.3879    7.8670    8.1616 N   0  0  0  0  0  0  0  0  0  0  0  0
   10.1600    9.3128    8.2096 C   0  0  0  0  0  0  0  0  0  0  0  0
   11.4343    9.8725    8.8604 C   0  0  0  0  0  0  0  0  0  0  0  0
   11.9204    8.7176    9.7354 C   0  0  0  0  0  0  0  0  0  0  0  0
   11.3998    7.4673    9.0301 C   0  0  0  0  0  0  0  0  0  0  0  0
   11.7881    6.3340    9.2202 O   0  0  0  0  0  0  0  0  0  0  0  0
    8.3754    7.5239    6.8197 C   0  0  0  0  0  0  0  0  0  0  0  0
    7.5427    6.7046    6.0615 C   0  0  0  0  0  0  0  0  0  0  0  0
    5.6055    1.5722    3.3624 C   0  0  0  0  0  0  0  0  0  0  0  0
    6.3788    0.2979    3.4776 C   0  0  0  0  0  0  0  0  0  0  0  0
    4.3640    1.7545    2.6376 C   0  0  0  0  0  0  0  0  0  0  0  0
    3.5421    0.9120    1.8776 C   0  0  0  0  0  0  0  0  0  0  0  0
    0.0086    0.1645   -0.5556 H   0  0  0  0  0  0  0  0  0  0  0  0
    0.6329    1.8292   -0.7734 H   0  0  0  0  0  0  0  0  0  0  0  0
   -0.2949    1.4009    0.7042 H   0  0  0  0  0  0  0  0  0  0  0  0
    1.1411    3.2190    1.0424 H   0  0  0  0  0  0  0  0  0  0  0  0
    2.6038    4.7087    2.3923 H   0  0  0  0  0  0  0  0  0  0  0  0
    6.1474    5.0807    4.7231 H   0  0  0  0  0  0  0  0  0  0  0  0
    9.2597    3.7821    6.3090 H   0  0  0  0  0  0  0  0  0  0  0  0
   10.7399    5.2318    7.6660 H   0  0  0  0  0  0  0  0  0  0  0  0
    9.2585    9.5459    8.8080 H   0  0  0  0  0  0  0  0  0  0  0  0
    9.9953    9.7131    7.1975 H   0  0  0  0  0  0  0  0  0  0  0  0
   11.2412   10.8032    9.4126 H   0  0  0  0  0  0  0  0  0  0  0  0
   12.1800   10.0959    8.0809 H   0  0  0  0  0  0  0  0  0  0  0  0
   11.4733    8.7411   10.7451 H   0  0  0  0  0  0  0  0  0  0  0  0
   13.0097    8.6533    9.8639 H   0  0  0  0  0  0  0  0  0  0  0  0
    8.0903    8.5673    6.9522 H   0  0  0  0  0  0  0  0  0  0  0  0
    6.6376    7.1307    5.6183 H   0  0  0  0  0  0  0  0  0  0  0  0
    7.2868    0.4448    4.0734 H   0  0  0  0  0  0  0  0  0  0  0  0
    6.6608   -0.0755    2.4784 H   0  0  0  0  0  0  0  0  0  0  0  0
    5.7638   -0.4868    3.9503 H   0  0  0  0  0  0  0  0  0  0  0  0
    3.7748   -0.1421    1.7174 H   0  0  0  0  0  0  0  0  0  0  0  0
  1  2  1  0
  1 28  1  0
  1 29  1  0
  1 30  1  0
  2  3  1  0
  3  4  2  0
  3 27  1  0
  4  5  1  0
  4 31  1  0
  5  6  2  0
  5 32  1  0
  6  7  1  0
  6 26  1  0
  7  8  1  0
  8  9  1  0
  8 24  2  0
  9 10  2  0
  9 11  1  0
 11 12  1  0
 11 33  1  0
 12 13  2  0
 12 23  1  0
 13 14  1  0
 13 34  1  0
 14 15  2  0
 14 35  1  0
 15 16  1  0
 15 22  1  0
 16 17  1  0
 16 20  1  0
 17 18  1  0
 17 36  1  0
 17 37  1  0
 18 19  1  0
 18 38  1  0
 18 39  1  0
 19 20  1  0
 19 40  1  0
 19 41  1  0
 20 21  2  0
 22 23  2  0
 22 42  1  0
 23 43  1  0
 24 25  1  0
 24 26  1  0
 25 44  1  0
 25 45  1  0
 25 46  1  0
 26 27  2  0
 27 47  1  0
M  END

