
     RDKit          3D

 43 44  0  0  0  0  0  0  0  0999 V2000
    2.8413   -1.7793    0.3063 C   0  0  0  0  0  0  0  0  0  0  0  0
    2.5986   -0.2693    0.1551 C   0  0  1  0  0  0  0  0  0  0  0  0
    1.1041    0.0646   -0.0627 C   0  0  0  0  0  0  0  0  0  0  0  0
    0.4955   -0.4995   -1.3275 C   0  0  0  0  0  0  0  0  0  0  0  0
   -0.3429   -1.6255   -1.3042 C   0  0  0  0  0  0  0  0  0  0  0  0
   -0.8909   -2.1538   -2.4768 C   0  0  0  0  0  0  0  0  0  0  0  0
   -0.5930   -1.5434   -3.6916 C   0  0  0  0  0  0  0  0  0  0  0  0
   -1.1151   -2.0413   -4.8237 F   0  0  0  0  0  0  0  0  0  0  0  0
    0.2316   -0.4221   -3.7573 C   0  0  0  0  0  0  0  0  0  0  0  0
    0.7676    0.0905   -2.5744 C   0  0  0  0  0  0  0  0  0  0  0  0
    3.0873    0.5359    1.2746 N   0  0  0  0  0  0  0  0  0  0  0  0
    4.5274    0.5746    1.4824 C   0  0  0  0  0  0  0  0  0  0  0  0
    4.9588    1.6211    2.5312 C   0  0  1  0  0  0  0  0  0  0  0  0
    4.5624    3.0269    2.0326 C   0  0  0  0  0  0  0  0  0  0  0  0
    4.8939    4.0689    2.9334 O   0  0  0  0  0  0  0  0  0  0  0  0
    4.3366    1.3190    3.9368 C   0  0  0  0  0  0  0  0  0  0  0  0
    5.4842    1.4580    4.9500 C   0  0  0  0  0  0  0  0  0  0  0  0
    6.6915    0.9248    4.1701 C   0  0  0  0  0  0  0  0  0  0  0  0
    6.5012    1.5413    2.7748 C   0  0  0  0  0  0  0  0  0  0  0  0
    2.4786   -2.3371   -0.5707 H   0  0  0  0  0  0  0  0  0  0  0  0
    2.3150   -2.1698    1.1954 H   0  0  0  0  0  0  0  0  0  0  0  0
    3.9125   -2.0047    0.4235 H   0  0  0  0  0  0  0  0  0  0  0  0
    3.1478    0.0770   -0.7401 H   0  0  0  0  0  0  0  0  0  0  0  0
    1.0203    1.1628   -0.0625 H   0  0  0  0  0  0  0  0  0  0  0  0
    0.5327   -0.2939    0.8120 H   0  0  0  0  0  0  0  0  0  0  0  0
   -0.5786   -2.1005   -0.3479 H   0  0  0  0  0  0  0  0  0  0  0  0
   -1.5457   -3.0274   -2.4613 H   0  0  0  0  0  0  0  0  0  0  0  0
    0.4374    0.0360   -4.7268 H   0  0  0  0  0  0  0  0  0  0  0  0
    1.4075    0.9764   -2.6225 H   0  0  0  0  0  0  0  0  0  0  0  0
    2.6119    0.2555    2.1329 H   0  0  0  0  0  0  0  0  0  0  0  0
    4.9967    0.8303    0.5150 H   0  0  0  0  0  0  0  0  0  0  0  0
    4.9616   -0.4060    1.7799 H   0  0  0  0  0  0  0  0  0  0  0  0
    3.4877    3.0303    1.7798 H   0  0  0  0  0  0  0  0  0  0  0  0
    5.1149    3.2401    1.1013 H   0  0  0  0  0  0  0  0  0  0  0  0
    4.2410    4.0746    3.6441 H   0  0  0  0  0  0  0  0  0  0  0  0
    3.9621    0.2803    3.9651 H   0  0  0  0  0  0  0  0  0  0  0  0
    3.4708    1.9621    4.1709 H   0  0  0  0  0  0  0  0  0  0  0  0
    5.2945    0.9258    5.8961 H   0  0  0  0  0  0  0  0  0  0  0  0
    5.6452    2.5221    5.1900 H   0  0  0  0  0  0  0  0  0  0  0  0
    6.6430   -0.1777    4.1174 H   0  0  0  0  0  0  0  0  0  0  0  0
    7.6591    1.1846    4.6282 H   0  0  0  0  0  0  0  0  0  0  0  0
    7.0169    0.9746    1.9825 H   0  0  0  0  0  0  0  0  0  0  0  0
    6.9160    2.5611    2.7718 H   0  0  0  0  0  0  0  0  0  0  0  0
  1  2  1  0
  1 20  1  0
  1 21  1  0
  1 22  1  0
  2  3  1  0
  2 11  1  0
  2 23  1  6
  3  4  1  0
  3 24  1  0
  3 25  1  0
  4  5  2  0
  4 10  1  0
  5  6  1  0
  5 26  1  0
  6  7  2  0
  6 27  1  0
  7  8  1  0
  7  9  1  0
  9 10  2  0
  9 28  1  0
 10 29  1  0
 11 12  1  0
 11 30  1  0
 13 12  1  6
 12 31  1  0
 12 32  1  0
 13 14  1  0
 13 16  1  0
 13 19  1  0
 14 15  1  0
 14 33  1  0
 14 34  1  0
 15 35  1  0
 16 17  1  0
 16 36  1  0
 16 37  1  0
 17 18  1  0
 17 38  1  0
 17 39  1  0
 18 19  1  0
 18 40  1  0
 18 41  1  0
 19 42  1  0
 19 43  1  0
M  END

