
     RDKit          3D

 50 53  0  0  0  0  0  0  0  0999 V2000
    1.8578    0.1146   -1.0059 N   0  0  0  0  0  0  0  0  0  0  0  0
    3.0984   -0.0350   -0.4478 C   0  0  0  0  0  0  0  0  0  0  0  0
    3.9917   -0.6481   -1.0071 O   0  0  0  0  0  0  0  0  0  0  0  0
    3.3076    0.6140    0.8991 C   0  0  0  0  0  0  0  0  0  0  0  0
    2.4807    1.6225    1.4153 C   0  0  0  0  0  0  0  0  0  0  0  0
    2.7614    2.1814    2.6646 C   0  0  0  0  0  0  0  0  0  0  0  0
    3.8621    1.7425    3.4010 C   0  0  0  0  0  0  0  0  0  0  0  0
    4.7109    0.7367    2.8986 C   0  0  0  0  0  0  0  0  0  0  0  0
    5.8900    0.2832    3.6830 C   0  0  0  0  0  0  0  0  0  0  0  0
    6.6730    1.2067    4.4192 C   0  0  0  0  0  0  0  0  0  0  0  0
    7.7649    0.7657    5.1618 C   0  0  0  0  0  0  0  0  0  0  0  0
    8.1361   -0.5226    5.2572 N   0  0  0  0  0  0  0  0  0  0  0  0
    7.3972   -1.3636    4.5712 C   0  0  0  0  0  0  0  0  0  0  0  0
    6.2875   -1.0545    3.7621 C   0  0  0  0  0  0  0  0  0  0  0  0
    5.7754   -2.3410    3.1640 C   0  0  0  0  0  0  0  0  0  0  0  0
    6.5491   -3.3901    3.9984 C   0  0  2  0  0  0  0  0  0  0  0  0
    5.6575   -4.0602    5.0621 C   0  0  0  0  0  0  0  0  0  0  0  0
    4.5583   -4.4952    4.7566 O   0  0  0  0  0  0  0  0  0  0  0  0
    6.2045   -4.1395    6.2993 N   0  0  0  0  0  0  0  0  0  0  0  0
    5.5346   -4.7977    7.4051 C   0  0  0  0  0  0  0  0  0  0  0  0
    5.9052   -6.2892    7.5447 C   0  0  0  0  0  0  0  0  0  0  0  0
    5.1787   -6.9602    8.6885 C   0  0  0  0  0  0  0  0  0  0  0  0
    3.8659   -7.4325    8.5216 C   0  0  0  0  0  0  0  0  0  0  0  0
    3.1729   -8.0176    9.5844 C   0  0  0  0  0  0  0  0  0  0  0  0
    3.7814   -8.1405   10.8376 C   0  0  0  0  0  0  0  0  0  0  0  0
    5.0867   -7.6747   11.0183 C   0  0  0  0  0  0  0  0  0  0  0  0
    5.7764   -7.0893    9.9523 C   0  0  0  0  0  0  0  0  0  0  0  0
    7.6594   -2.7019    4.6098 O   0  0  0  0  0  0  0  0  0  0  0  0
    4.4179    0.1899    1.6405 C   0  0  0  0  0  0  0  0  0  0  0  0
    1.6867   -0.3857   -1.8707 H   0  0  0  0  0  0  0  0  0  0  0  0
    1.0562    0.3886   -0.4542 H   0  0  0  0  0  0  0  0  0  0  0  0
    1.6329    1.9997    0.8386 H   0  0  0  0  0  0  0  0  0  0  0  0
    2.1176    2.9673    3.0669 H   0  0  0  0  0  0  0  0  0  0  0  0
    4.0589    2.1736    4.3850 H   0  0  0  0  0  0  0  0  0  0  0  0
    6.4405    2.2724    4.3866 H   0  0  0  0  0  0  0  0  0  0  0  0
    8.3756    1.4875    5.7155 H   0  0  0  0  0  0  0  0  0  0  0  0
    6.0311   -2.4228    2.0951 H   0  0  0  0  0  0  0  0  0  0  0  0
    4.6905   -2.4943    3.2557 H   0  0  0  0  0  0  0  0  0  0  0  0
    6.9632   -4.1964    3.3742 H   0  0  0  0  0  0  0  0  0  0  0  0
    7.1332   -3.7475    6.4196 H   0  0  0  0  0  0  0  0  0  0  0  0
    4.4516   -4.7066    7.2370 H   0  0  0  0  0  0  0  0  0  0  0  0
    5.7753   -4.2611    8.3368 H   0  0  0  0  0  0  0  0  0  0  0  0
    6.9955   -6.3771    7.6855 H   0  0  0  0  0  0  0  0  0  0  0  0
    5.6599   -6.7904    6.5946 H   0  0  0  0  0  0  0  0  0  0  0  0
    3.3845   -7.3446    7.5429 H   0  0  0  0  0  0  0  0  0  0  0  0
    2.1539   -8.3833    9.4323 H   0  0  0  0  0  0  0  0  0  0  0  0
    3.2414   -8.6012   11.6688 H   0  0  0  0  0  0  0  0  0  0  0  0
    5.5730   -7.7705   11.9928 H   0  0  0  0  0  0  0  0  0  0  0  0
    6.8002   -6.7329   10.1016 H   0  0  0  0  0  0  0  0  0  0  0  0
    5.0613   -0.5635    1.1862 H   0  0  0  0  0  0  0  0  0  0  0  0
  1  2  1  0
  1 30  1  0
  1 31  1  0
  2  3  2  0
  2  4  1  0
  4  5  2  0
  4 29  1  0
  5  6  1  0
  5 32  1  0
  6  7  2  0
  6 33  1  0
  7  8  1  0
  7 34  1  0
  8  9  1  0
  8 29  2  0
  9 10  2  0
  9 14  1  0
 10 11  1  0
 10 35  1  0
 11 12  2  0
 11 36  1  0
 12 13  1  0
 13 14  2  0
 13 28  1  0
 14 15  1  0
 15 16  1  0
 15 37  1  0
 15 38  1  0
 16 17  1  0
 16 28  1  0
 16 39  1  6
 17 18  2  0
 17 19  1  0
 19 20  1  0
 19 40  1  0
 20 21  1  0
 20 41  1  0
 20 42  1  0
 21 22  1  0
 21 43  1  0
 21 44  1  0
 22 23  2  0
 22 27  1  0
 23 24  1  0
 23 45  1  0
 24 25  2  0
 24 46  1  0
 25 26  1  0
 25 47  1  0
 26 27  2  0
 26 48  1  0
 27 49  1  0
 29 50  1  0
M  END

