
     RDKit          3D

 42 42  0  0  0  0  0  0  0  0999 V2000
    1.8969    0.9067   -2.2643 C   0  0  0  0  0  0  0  0  0  0  0  0
    3.1754    0.7920   -1.8943 C   0  0  0  0  0  0  0  0  0  0  0  0
    4.1689    1.9183   -1.8249 C   0  0  0  0  0  0  0  0  0  0  0  0
    4.7462    2.1166   -0.4042 C   0  0  0  0  0  0  0  0  0  0  0  0
    5.7645    3.2264   -0.3201 C   0  0  0  0  0  0  0  0  0  0  0  0
    5.2963    4.6604   -0.4500 C   0  0  0  0  0  0  0  0  0  0  0  0
    6.9900    2.8803   -0.1541 N   0  0  0  0  0  0  0  0  0  0  0  0
    7.9384    3.8489   -0.0928 N   0  0  0  0  0  0  0  0  0  0  0  0
    9.2632    3.5312    0.1056 C   0  0  0  0  0  0  0  0  0  0  0  0
    9.7088    2.4158    0.2403 O   0  0  0  0  0  0  0  0  0  0  0  0
   10.2068    4.7442    0.1094 C   0  0  0  0  0  0  0  0  0  0  0  0
    9.5574    6.0515    0.2109 N   0  0  0  0  0  0  0  0  0  0  0  0
   10.0158    7.3257   -0.8115 S   0  0  1  0  0  0  0  0  0  0  0  0
   10.0555    8.5163    0.0365 O   0  0  0  0  0  0  0  0  0  0  0  0
   11.1474    6.8861   -1.6276 O   0  0  0  0  0  0  0  0  0  0  0  0
    8.6057    7.5052   -1.9212 C   0  0  0  0  0  0  0  0  0  0  0  0
    7.5522    8.3446   -1.5434 C   0  0  0  0  0  0  0  0  0  0  0  0
    6.4581    8.4872   -2.3965 C   0  0  0  0  0  0  0  0  0  0  0  0
    6.4560    7.7900   -3.6059 C   0  0  0  0  0  0  0  0  0  0  0  0
    5.2906    7.9388   -4.5127 N   0  0  0  0  0  0  0  0  0  0  0  0
    4.3800    8.6574   -4.1386 O   0  0  0  0  0  0  0  0  0  0  0  0
    5.3217    7.3295   -5.5674 O   0  0  0  0  0  0  0  0  0  0  0  0
    7.5112    6.9658   -3.9980 C   0  0  0  0  0  0  0  0  0  0  0  0
    8.6055    6.8252   -3.1432 C   0  0  0  0  0  0  0  0  0  0  0  0
    1.2283    0.0417   -2.2901 H   0  0  0  0  0  0  0  0  0  0  0  0
    1.4697    1.8705   -2.5627 H   0  0  0  0  0  0  0  0  0  0  0  0
    3.5569   -0.1959   -1.6028 H   0  0  0  0  0  0  0  0  0  0  0  0
    3.6967    2.8491   -2.1837 H   0  0  0  0  0  0  0  0  0  0  0  0
    5.0127    1.7055   -2.5067 H   0  0  0  0  0  0  0  0  0  0  0  0
    5.2332    1.1887   -0.0693 H   0  0  0  0  0  0  0  0  0  0  0  0
    3.9139    2.3275    0.2916 H   0  0  0  0  0  0  0  0  0  0  0  0
    4.2045    4.7187   -0.5517 H   0  0  0  0  0  0  0  0  0  0  0  0
    5.7404    5.1569   -1.3312 H   0  0  0  0  0  0  0  0  0  0  0  0
    5.5782    5.2548    0.4376 H   0  0  0  0  0  0  0  0  0  0  0  0
    7.7058    4.8392   -0.1648 H   0  0  0  0  0  0  0  0  0  0  0  0
   10.7915    4.7103   -0.8230 H   0  0  0  0  0  0  0  0  0  0  0  0
   10.9319    4.5830    0.9228 H   0  0  0  0  0  0  0  0  0  0  0  0
    9.4642    6.4285    1.1537 H   0  0  0  0  0  0  0  0  0  0  0  0
    7.6034    8.8909   -0.6001 H   0  0  0  0  0  0  0  0  0  0  0  0
    5.6146    9.1310   -2.1483 H   0  0  0  0  0  0  0  0  0  0  0  0
    7.4649    6.4572   -4.9607 H   0  0  0  0  0  0  0  0  0  0  0  0
    9.4602    6.2083   -3.4252 H   0  0  0  0  0  0  0  0  0  0  0  0
  1  2  2  0
  1 25  1  0
  1 26  1  0
  2  3  1  0
  2 27  1  0
  3  4  1  0
  3 28  1  0
  3 29  1  0
  4  5  1  0
  4 30  1  0
  4 31  1  0
  5  6  1  0
  5  7  2  0
  6 32  1  0
  6 33  1  0
  6 34  1  0
  7  8  1  0
  8  9  1  0
  8 35  1  0
  9 10  2  0
  9 11  1  0
 11 12  1  0
 11 36  1  0
 11 37  1  0
 13 12  1  1
 12 38  1  0
 13 14  2  0
 13 15  2  0
 13 16  1  0
 16 17  2  0
 16 24  1  0
 17 18  1  0
 17 39  1  0
 18 19  2  0
 18 40  1  0
 19 20  1  0
 19 23  1  0
 20 21  2  0
 20 22  1  0
 23 24  2  0
 23 41  1  0
 24 42  1  0
M  CHG  2  20   1  22  -1
M  END

