
     RDKit          3D

 28 28  0  0  0  0  0  0  0  0999 V2000
    3.0802   -0.0439    1.2983 C   0  0  0  0  0  0  0  0  0  0  0  0
    2.5378   -0.0556   -0.0562 N   0  0  0  0  0  0  0  0  0  0  0  0
    1.0916   -0.0660   -0.2446 C   0  0  0  0  0  0  0  0  0  0  0  0
    0.4994   -1.4748   -0.4667 C   0  0  0  0  0  0  0  0  0  0  0  0
    0.6894   -2.3730    0.6737 C   0  0  0  0  0  0  0  0  0  0  0  0
    0.8591   -3.0543    1.5959 N   0  0  0  0  0  0  0  0  0  0  0  0
    3.3020   -0.1980   -1.1838 C   0  0  0  0  0  0  0  0  0  0  0  0
    2.8069   -0.2980   -2.2954 O   0  0  0  0  0  0  0  0  0  0  0  0
    4.8319   -0.2295   -0.9983 C   0  0  0  0  0  0  0  0  0  0  0  0
    5.4868   -0.3712   -2.2675 N   0  0  0  0  0  0  0  0  0  0  0  0
    5.6260   -1.5754   -2.9319 C   0  0  0  0  0  0  0  0  0  0  0  0
    5.4052   -2.6734   -2.4830 O   0  0  0  0  0  0  0  0  0  0  0  0
    6.1298   -1.2208   -4.3348 C   0  0  0  0  0  0  0  0  0  0  0  0
    6.2033    0.2212   -4.2855 N   0  0  0  0  0  0  0  0  0  0  0  0
    5.7746    0.7414   -3.0945 C   0  0  0  0  0  0  0  0  0  0  0  0
    5.6713    1.8990   -2.7643 O   0  0  0  0  0  0  0  0  0  0  0  0
    2.4007    0.5193    1.9540 H   0  0  0  0  0  0  0  0  0  0  0  0
    4.0538    0.4626    1.3292 H   0  0  0  0  0  0  0  0  0  0  0  0
    3.1926   -1.0575    1.7196 H   0  0  0  0  0  0  0  0  0  0  0  0
    0.8545    0.5314   -1.1360 H   0  0  0  0  0  0  0  0  0  0  0  0
    0.6249    0.4098    0.6302 H   0  0  0  0  0  0  0  0  0  0  0  0
    0.9633   -1.9176   -1.3621 H   0  0  0  0  0  0  0  0  0  0  0  0
   -0.5812   -1.3895   -0.6706 H   0  0  0  0  0  0  0  0  0  0  0  0
    5.1176   -1.0761   -0.3554 H   0  0  0  0  0  0  0  0  0  0  0  0
    5.1794    0.7064   -0.5359 H   0  0  0  0  0  0  0  0  0  0  0  0
    5.4106   -1.6016   -5.0809 H   0  0  0  0  0  0  0  0  0  0  0  0
    7.1035   -1.7080   -4.5162 H   0  0  0  0  0  0  0  0  0  0  0  0
    6.4123    0.8267   -5.0680 H   0  0  0  0  0  0  0  0  0  0  0  0
  1  2  1  0
  1 17  1  0
  1 18  1  0
  1 19  1  0
  2  3  1  0
  2  7  1  0
  3  4  1  0
  3 20  1  0
  3 21  1  0
  4  5  1  0
  4 22  1  0
  4 23  1  0
  5  6  3  0
  7  8  2  0
  7  9  1  0
  9 10  1  0
  9 24  1  0
  9 25  1  0
 10 11  1  0
 10 15  1  0
 11 12  2  0
 11 13  1  0
 13 14  1  0
 13 26  1  0
 13 27  1  0
 14 15  1  0
 14 28  1  0
 15 16  2  0
M  END

