
     RDKit          3D

 41 42  0  0  0  0  0  0  0  0999 V2000
    4.7323    1.4567    4.2812 C   0  0  0  0  0  0  0  0  0  0  0  0
    3.8695    0.6509    3.4430 N   0  0  0  0  0  0  0  0  0  0  0  0
    3.1165   -0.3833    4.1184 C   0  0  0  0  0  0  0  0  0  0  0  0
    3.7776    0.8472    2.0564 C   0  0  0  0  0  0  0  0  0  0  0  0
    2.7027    0.8412    1.3514 N   0  0  0  0  0  0  0  0  0  0  0  0
    1.3944    0.9601    1.9254 C   0  0  1  0  0  0  0  0  0  0  0  0
    0.3934    1.8301    1.1122 C   0  0  0  0  0  0  0  0  0  0  0  0
   -0.6877    0.7055    1.1967 C   0  0  2  0  0  0  0  0  0  0  0  0
   -1.8744    0.9528    2.0984 C   0  0  0  0  0  0  0  0  0  0  0  0
   -3.1785    0.7127    1.6348 C   0  0  0  0  0  0  0  0  0  0  0  0
   -4.2930    0.9273    2.4518 C   0  0  0  0  0  0  0  0  0  0  0  0
   -4.1261    1.3901    3.7591 C   0  0  0  0  0  0  0  0  0  0  0  0
   -2.8350    1.6355    4.2383 C   0  0  0  0  0  0  0  0  0  0  0  0
   -1.7256    1.4197    3.4179 C   0  0  0  0  0  0  0  0  0  0  0  0
    0.4250   -0.2471    1.7448 C   0  0  0  0  0  0  0  0  0  0  0  0
    5.0017    1.1012    1.4301 N   0  0  0  0  0  0  0  0  0  0  0  0
    6.1422    0.2403    1.6990 C   0  0  0  0  0  0  0  0  0  0  0  0
    4.9645    1.6269    0.0783 C   0  0  0  0  0  0  0  0  0  0  0  0
    4.1503    1.9428    5.0877 H   0  0  0  0  0  0  0  0  0  0  0  0
    5.2094    2.2403    3.6794 H   0  0  0  0  0  0  0  0  0  0  0  0
    5.5298    0.8595    4.7678 H   0  0  0  0  0  0  0  0  0  0  0  0
    3.7949   -1.0276    4.7117 H   0  0  0  0  0  0  0  0  0  0  0  0
    2.6042   -1.0198    3.3862 H   0  0  0  0  0  0  0  0  0  0  0  0
    2.3566    0.0216    4.8141 H   0  0  0  0  0  0  0  0  0  0  0  0
    1.4216    1.2897    2.9823 H   0  0  0  0  0  0  0  0  0  0  0  0
    0.7589    1.9744    0.0856 H   0  0  0  0  0  0  0  0  0  0  0  0
    0.1229    2.8076    1.5407 H   0  0  0  0  0  0  0  0  0  0  0  0
   -1.0648    0.3970    0.2106 H   0  0  0  0  0  0  0  0  0  0  0  0
   -3.3214    0.3510    0.6123 H   0  0  0  0  0  0  0  0  0  0  0  0
   -5.2961    0.7322    2.0628 H   0  0  0  0  0  0  0  0  0  0  0  0
   -4.9946    1.5599    4.4008 H   0  0  0  0  0  0  0  0  0  0  0  0
   -2.6907    1.9994    5.2593 H   0  0  0  0  0  0  0  0  0  0  0  0
   -0.7260    1.6202    3.8131 H   0  0  0  0  0  0  0  0  0  0  0  0
    0.8004   -0.9302    0.9690 H   0  0  0  0  0  0  0  0  0  0  0  0
    0.1722   -0.8269    2.6463 H   0  0  0  0  0  0  0  0  0  0  0  0
    6.0689   -0.1981    2.7013 H   0  0  0  0  0  0  0  0  0  0  0  0
    7.0847    0.8106    1.6382 H   0  0  0  0  0  0  0  0  0  0  0  0
    6.2054   -0.5929    0.9693 H   0  0  0  0  0  0  0  0  0  0  0  0
    4.1812    2.3902   -0.0046 H   0  0  0  0  0  0  0  0  0  0  0  0
    4.7435    0.8450   -0.6742 H   0  0  0  0  0  0  0  0  0  0  0  0
    5.9423    2.0766   -0.1608 H   0  0  0  0  0  0  0  0  0  0  0  0
  1  2  1  0
  1 19  1  0
  1 20  1  0
  1 21  1  0
  2  3  1  0
  2  4  1  0
  3 22  1  0
  3 23  1  0
  3 24  1  0
  4  5  2  0
  4 16  1  0
  5  6  1  0
  6  7  1  0
  6 15  1  0
  6 25  1  1
  7  8  1  0
  7 26  1  0
  7 27  1  0
  8  9  1  0
  8 15  1  0
  8 28  1  6
  9 10  2  0
  9 14  1  0
 10 11  1  0
 10 29  1  0
 11 12  2  0
 11 30  1  0
 12 13  1  0
 12 31  1  0
 13 14  2  0
 13 32  1  0
 14 33  1  0
 15 34  1  0
 15 35  1  0
 16 17  1  0
 16 18  1  0
 17 36  1  0
 17 37  1  0
 17 38  1  0
 18 39  1  0
 18 40  1  0
 18 41  1  0
M  END

