
     RDKit          3D

 39 42  0  0  0  0  0  0  0  0999 V2000
    1.0307   -0.0848    0.2873 C   0  0  0  0  0  0  0  0  0  0  0  0
    2.5378   -0.0250    0.1388 C   0  0  0  0  0  0  0  0  0  0  0  0
    2.9211    1.3459    0.0707 O   0  0  0  0  0  0  0  0  0  0  0  0
    4.2183    1.6777   -0.0651 C   0  0  0  0  0  0  0  0  0  0  0  0
    4.5053    3.0608   -0.1257 C   0  0  0  0  0  0  0  0  0  0  0  0
    5.8072    3.5023   -0.2654 C   0  0  0  0  0  0  0  0  0  0  0  0
    6.8929    2.5943   -0.3523 C   0  0  0  0  0  0  0  0  0  0  0  0
    8.3016    2.9328   -0.4973 C   0  0  0  0  0  0  0  0  0  0  0  0
    8.8224    4.3088   -0.5848 C   0  0  0  0  0  0  0  0  0  0  0  0
   10.0755    4.6622   -0.6130 N   0  0  0  0  0  0  0  0  0  0  0  0
   10.0162    6.0279   -0.7112 C   0  0  0  0  0  0  0  0  0  0  0  0
   11.1768    6.9398   -0.7169 C   0  0  0  0  0  0  0  0  0  0  0  0
   11.0397    8.1898   -0.0823 C   0  0  0  0  0  0  0  0  0  0  0  0
   12.0902    9.1029   -0.0403 C   0  0  0  0  0  0  0  0  0  0  0  0
   13.3112    8.7794   -0.6393 C   0  0  0  0  0  0  0  0  0  0  0  0
   13.4688    7.5534   -1.2853 C   0  0  0  0  0  0  0  0  0  0  0  0
   12.4104    6.6389   -1.3309 C   0  0  0  0  0  0  0  0  0  0  0  0
   12.6673    5.1563   -2.2150 Cl  0  0  0  0  0  0  0  0  0  0  0  0
    8.7853    6.4995   -0.7428 N   0  0  0  0  0  0  0  0  0  0  0  0
    7.9976    5.3686   -0.6572 O   0  0  0  0  0  0  0  0  0  0  0  0
    9.2375    1.9387   -0.5581 C   0  0  0  0  0  0  0  0  0  0  0  0
    8.8896    0.5267   -0.4860 C   0  0  0  0  0  0  0  0  0  0  0  0
    9.6552   -0.3988   -0.5322 O   0  0  0  0  0  0  0  0  0  0  0  0
    7.5335    0.2556   -0.3535 O   0  0  0  0  0  0  0  0  0  0  0  0
    6.5782    1.2164   -0.2861 C   0  0  0  0  0  0  0  0  0  0  0  0
    5.2645    0.7543   -0.1458 C   0  0  0  0  0  0  0  0  0  0  0  0
    0.6980   -1.1326    0.3433 H   0  0  0  0  0  0  0  0  0  0  0  0
    0.5351    0.3928   -0.5716 H   0  0  0  0  0  0  0  0  0  0  0  0
    0.7085    0.4327    1.2036 H   0  0  0  0  0  0  0  0  0  0  0  0
    2.8664   -0.5482   -0.7780 H   0  0  0  0  0  0  0  0  0  0  0  0
    3.0396   -0.5086    0.9969 H   0  0  0  0  0  0  0  0  0  0  0  0
    3.6745    3.7650   -0.0600 H   0  0  0  0  0  0  0  0  0  0  0  0
    5.9981    4.5719   -0.3115 H   0  0  0  0  0  0  0  0  0  0  0  0
   10.0837    8.4257    0.3883 H   0  0  0  0  0  0  0  0  0  0  0  0
   11.9582   10.0625    0.4643 H   0  0  0  0  0  0  0  0  0  0  0  0
   14.1465    9.4833   -0.6091 H   0  0  0  0  0  0  0  0  0  0  0  0
   14.4106    7.2922   -1.7702 H   0  0  0  0  0  0  0  0  0  0  0  0
   10.2959    2.1725   -0.6675 H   0  0  0  0  0  0  0  0  0  0  0  0
    5.1110   -0.3223   -0.1036 H   0  0  0  0  0  0  0  0  0  0  0  0
  1  2  1  0
  1 27  1  0
  1 28  1  0
  1 29  1  0
  2  3  1  0
  2 30  1  0
  2 31  1  0
  3  4  1  0
  4  5  2  0
  4 26  1  0
  5  6  1  0
  5 32  1  0
  6  7  2  0
  6 33  1  0
  7  8  1  0
  7 25  1  0
  8  9  1  0
  8 21  2  0
  9 10  2  0
  9 20  1  0
 10 11  1  0
 11 12  1  0
 11 19  2  0
 12 13  2  0
 12 17  1  0
 13 14  1  0
 13 34  1  0
 14 15  2  0
 14 35  1  0
 15 16  1  0
 15 36  1  0
 16 17  2  0
 16 37  1  0
 17 18  1  0
 19 20  1  0
 21 22  1  0
 21 38  1  0
 22 23  2  0
 22 24  1  0
 24 25  1  0
 25 26  2  0
 26 39  1  0
M  END

