
     RDKit          3D

 43 44  0  0  0  0  0  0  0  0999 V2000
    0.8657    0.4801    1.0783 C   0  0  0  0  0  0  0  0  0  0  0  0
    2.2491    0.2319    0.4879 C   0  0  0  0  0  0  0  0  0  0  0  0
    2.8698   -0.9446    1.0903 N   0  0  0  0  0  0  0  0  0  0  0  0
    4.2127   -1.2706    0.6016 C   0  0  1  0  0  0  0  0  0  0  0  0
    5.2304   -0.3522    1.3272 C   0  0  0  0  0  0  0  0  0  0  0  0
    6.6015   -0.4747    0.8332 N   0  0  0  0  0  0  0  0  0  0  0  0
    7.5273   -1.1994    1.5265 C   0  0  0  0  0  0  0  0  0  0  0  0
    8.8198   -1.3291    1.0968 C   0  0  0  0  0  0  0  0  0  0  0  0
    9.1914   -0.6827   -0.1162 C   0  0  0  0  0  0  0  0  0  0  0  0
    8.2740    0.0396   -0.8290 C   0  0  0  0  0  0  0  0  0  0  0  0
    6.8957    0.1743   -0.3971 C   0  0  0  0  0  0  0  0  0  0  0  0
    6.0140    0.7879   -0.9905 O   0  0  0  0  0  0  0  0  0  0  0  0
    4.5275   -2.7387    0.8396 C   0  0  0  0  0  0  0  0  0  0  0  0
    4.0847   -3.3879    2.0045 C   0  0  0  0  0  0  0  0  0  0  0  0
    4.4023   -4.7241    2.2609 C   0  0  0  0  0  0  0  0  0  0  0  0
    5.1886   -5.4365    1.3513 C   0  0  0  0  0  0  0  0  0  0  0  0
    5.6447   -4.8099    0.1901 C   0  0  0  0  0  0  0  0  0  0  0  0
    5.3174   -3.4719   -0.0724 C   0  0  0  0  0  0  0  0  0  0  0  0
    5.8341   -2.8593   -1.1850 O   0  0  0  0  0  0  0  0  0  0  0  0
    5.0394   -2.8314   -2.3767 C   0  0  0  0  0  0  0  0  0  0  0  0
    5.2687   -4.0466   -3.2633 C   0  0  0  0  0  0  0  0  0  0  0  0
    0.4066    1.3812    0.6425 H   0  0  0  0  0  0  0  0  0  0  0  0
    0.9259    0.6096    2.1702 H   0  0  0  0  0  0  0  0  0  0  0  0
    0.1872   -0.3672    0.8775 H   0  0  0  0  0  0  0  0  0  0  0  0
    2.8890    1.1092    0.6758 H   0  0  0  0  0  0  0  0  0  0  0  0
    2.1782    0.1499   -0.6196 H   0  0  0  0  0  0  0  0  0  0  0  0
    2.2616   -1.7493    0.9436 H   0  0  0  0  0  0  0  0  0  0  0  0
    4.3174   -1.0497   -0.4743 H   0  0  0  0  0  0  0  0  0  0  0  0
    5.2201   -0.5754    2.4030 H   0  0  0  0  0  0  0  0  0  0  0  0
    4.9253    0.6916    1.1775 H   0  0  0  0  0  0  0  0  0  0  0  0
    7.1692   -1.6655    2.4465 H   0  0  0  0  0  0  0  0  0  0  0  0
    9.5328   -1.9121    1.6794 H   0  0  0  0  0  0  0  0  0  0  0  0
   10.2199   -0.7668   -0.4793 H   0  0  0  0  0  0  0  0  0  0  0  0
    8.5278    0.5452   -1.7619 H   0  0  0  0  0  0  0  0  0  0  0  0
    3.4786   -2.8227    2.7169 H   0  0  0  0  0  0  0  0  0  0  0  0
    4.0422   -5.2050    3.1739 H   0  0  0  0  0  0  0  0  0  0  0  0
    5.4522   -6.4793    1.5463 H   0  0  0  0  0  0  0  0  0  0  0  0
    6.2783   -5.3387   -0.5246 H   0  0  0  0  0  0  0  0  0  0  0  0
    5.3303   -1.9071   -2.8993 H   0  0  0  0  0  0  0  0  0  0  0  0
    3.9702   -2.7407   -2.1126 H   0  0  0  0  0  0  0  0  0  0  0  0
    6.3350   -4.1424   -3.5207 H   0  0  0  0  0  0  0  0  0  0  0  0
    4.6954   -3.9449   -4.1994 H   0  0  0  0  0  0  0  0  0  0  0  0
    4.9455   -4.9763   -2.7692 H   0  0  0  0  0  0  0  0  0  0  0  0
  1  2  1  0
  1 22  1  0
  1 23  1  0
  1 24  1  0
  2  3  1  0
  2 25  1  0
  2 26  1  0
  3  4  1  0
  3 27  1  0
  4  5  1  0
  4 13  1  0
  4 28  1  6
  5  6  1  0
  5 29  1  0
  5 30  1  0
  6  7  1  0
  6 11  1  0
  7  8  2  0
  7 31  1  0
  8  9  1  0
  8 32  1  0
  9 10  2  0
  9 33  1  0
 10 11  1  0
 10 34  1  0
 11 12  2  0
 13 14  2  0
 13 18  1  0
 14 15  1  0
 14 35  1  0
 15 16  2  0
 15 36  1  0
 16 17  1  0
 16 37  1  0
 17 18  2  0
 17 38  1  0
 18 19  1  0
 19 20  1  0
 20 21  1  0
 20 39  1  0
 20 40  1  0
 21 41  1  0
 21 42  1  0
 21 43  1  0
M  END

