
     RDKit          3D

 45 47  0  0  0  0  0  0  0  0999 V2000
    3.3245    1.3025    0.0210 C   0  0  0  0  0  0  0  0  0  0  0  0
    2.6350   -0.0384   -0.0917 C   0  0  0  0  0  0  0  0  0  0  0  0
    1.4515   -0.2181   -0.5732 N   0  0  0  0  0  0  0  0  0  0  0  0
    0.7090    0.8061   -1.0071 N   0  0  0  0  0  0  0  0  0  0  0  0
   -0.5508    0.5757   -1.5548 C   0  0  0  0  0  0  0  0  0  0  0  0
   -1.0526   -0.5187   -1.6902 O   0  0  0  0  0  0  0  0  0  0  0  0
   -1.2425    1.8165   -1.9677 C   0  0  0  0  0  0  0  0  0  0  0  0
   -2.4740    1.9967   -2.5411 C   0  0  0  0  0  0  0  0  0  0  0  0
   -2.6268    3.4061   -2.7261 C   0  0  0  0  0  0  0  0  0  0  0  0
   -1.4802    3.9793   -2.2482 C   0  0  0  0  0  0  0  0  0  0  0  0
   -0.6324    3.0277   -1.7870 O   0  0  0  0  0  0  0  0  0  0  0  0
    3.3342   -1.2613    0.3859 C   0  0  0  0  0  0  0  0  0  0  0  0
    4.5649   -1.1927    1.0644 C   0  0  0  0  0  0  0  0  0  0  0  0
    5.2046   -2.3487    1.5180 C   0  0  0  0  0  0  0  0  0  0  0  0
    4.6098   -3.5907    1.2947 C   0  0  0  0  0  0  0  0  0  0  0  0
    5.4157   -5.0810    1.8907 S   0  0  1  0  0  0  0  0  0  0  0  0
    4.9699   -6.1856    1.0347 O   0  0  0  0  0  0  0  0  0  0  0  0
    6.8373   -4.7614    2.0666 O   0  0  0  0  0  0  0  0  0  0  0  0
    4.7751   -5.3470    3.4172 N   0  0  0  0  0  0  0  0  0  0  0  0
    3.7210   -6.3404    3.6320 C   0  0  0  0  0  0  0  0  0  0  0  0
    4.2801   -7.5248    4.4220 C   0  0  0  0  0  0  0  0  0  0  0  0
    4.9088   -7.0976    5.6142 O   0  0  0  0  0  0  0  0  0  0  0  0
    5.9840   -6.2151    5.3631 C   0  0  0  0  0  0  0  0  0  0  0  0
    5.5139   -4.9625    4.6215 C   0  0  0  0  0  0  0  0  0  0  0  0
    3.3924   -3.6893    0.6065 C   0  0  0  0  0  0  0  0  0  0  0  0
    2.7605   -2.5329    0.1651 C   0  0  0  0  0  0  0  0  0  0  0  0
    2.8885    2.0592   -0.6470 H   0  0  0  0  0  0  0  0  0  0  0  0
    4.3875    1.2221   -0.2474 H   0  0  0  0  0  0  0  0  0  0  0  0
    3.2757    1.6965    1.0508 H   0  0  0  0  0  0  0  0  0  0  0  0
    1.0298    1.7714   -0.9347 H   0  0  0  0  0  0  0  0  0  0  0  0
   -3.1705    1.2014   -2.7941 H   0  0  0  0  0  0  0  0  0  0  0  0
   -3.4782    3.9285   -3.1567 H   0  0  0  0  0  0  0  0  0  0  0  0
   -1.1355    5.0075   -2.1737 H   0  0  0  0  0  0  0  0  0  0  0  0
    5.0433   -0.2299    1.2497 H   0  0  0  0  0  0  0  0  0  0  0  0
    6.1677   -2.2927    2.0275 H   0  0  0  0  0  0  0  0  0  0  0  0
    3.3333   -6.6782    2.6626 H   0  0  0  0  0  0  0  0  0  0  0  0
    2.8978   -5.8675    4.1983 H   0  0  0  0  0  0  0  0  0  0  0  0
    4.9974   -8.0758    3.7800 H   0  0  0  0  0  0  0  0  0  0  0  0
    3.4710   -8.2126    4.7125 H   0  0  0  0  0  0  0  0  0  0  0  0
    6.7655   -6.7160    4.7561 H   0  0  0  0  0  0  0  0  0  0  0  0
    6.4168   -5.9476    6.3397 H   0  0  0  0  0  0  0  0  0  0  0  0
    6.3746   -4.3422    4.3401 H   0  0  0  0  0  0  0  0  0  0  0  0
    4.8468   -4.3694    5.2734 H   0  0  0  0  0  0  0  0  0  0  0  0
    2.9595   -4.6709    0.4062 H   0  0  0  0  0  0  0  0  0  0  0  0
    1.8109   -2.5870   -0.3690 H   0  0  0  0  0  0  0  0  0  0  0  0
  1  2  1  0
  1 27  1  0
  1 28  1  0
  1 29  1  0
  2  3  2  0
  2 12  1  0
  3  4  1  0
  4  5  1  0
  4 30  1  0
  5  6  2  0
  5  7  1  0
  7  8  2  0
  7 11  1  0
  8  9  1  0
  8 31  1  0
  9 10  2  0
  9 32  1  0
 10 11  1  0
 10 33  1  0
 12 13  2  0
 12 26  1  0
 13 14  1  0
 13 34  1  0
 14 15  2  0
 14 35  1  0
 16 15  1  6
 15 25  1  0
 16 17  2  0
 16 18  2  0
 16 19  1  0
 19 20  1  0
 19 24  1  0
 20 21  1  0
 20 36  1  0
 20 37  1  0
 21 22  1  0
 21 38  1  0
 21 39  1  0
 22 23  1  0
 23 24  1  0
 23 40  1  0
 23 41  1  0
 24 42  1  0
 24 43  1  0
 25 26  2  0
 25 44  1  0
 26 45  1  0
M  END

