
     RDKit          3D

 56 58  0  0  0  0  0  0  0  0999 V2000
    2.8360   13.1595    8.2696 N   0  0  0  0  0  0  0  0  0  0  0  0
    4.3622   13.4092    7.5780 S   0  0  1  0  0  0  0  0  0  0  0  0
    4.1302   14.2813    6.4241 O   0  0  0  0  0  0  0  0  0  0  0  0
    5.3022   13.7591    8.6475 O   0  0  0  0  0  0  0  0  0  0  0  0
    4.8183   11.7895    6.9736 C   0  0  0  0  0  0  0  0  0  0  0  0
    4.3091   11.3375    5.7525 C   0  0  0  0  0  0  0  0  0  0  0  0
    4.6611   10.0789    5.2709 C   0  0  0  0  0  0  0  0  0  0  0  0
    5.5396    9.2658    6.0163 C   0  0  0  0  0  0  0  0  0  0  0  0
    5.9376    7.9942    5.5925 N   0  0  0  0  0  0  0  0  0  0  0  0
    5.5940    7.3048    4.4586 C   0  0  0  0  0  0  0  0  0  0  0  0
    4.8476    7.6944    3.5808 O   0  0  0  0  0  0  0  0  0  0  0  0
    6.2202    5.8991    4.3999 C   0  0  0  0  0  0  0  0  0  0  0  0
    7.3753    5.7295    5.2712 N   0  0  0  0  0  0  0  0  0  0  0  0
    7.5380    4.4063    5.8819 C   0  0  0  0  0  0  0  0  0  0  0  0
    8.1294    3.3663    4.9242 C   0  0  0  0  0  0  0  0  0  0  0  0
    9.3739    3.8641    4.3427 N   0  0  0  0  0  0  0  0  0  0  0  0
   10.4857    3.0563    4.3489 C   0  0  0  0  0  0  0  0  0  0  0  0
   10.4799    1.9481    4.8658 O   0  0  0  0  0  0  0  0  0  0  0  0
   11.7657    3.5798    3.6792 C   0  0  0  0  0  0  0  0  0  0  0  0
   12.3252    4.7471    4.3538 N   0  0  0  0  0  0  0  0  0  0  0  0
   12.7541    4.5121    5.7393 C   0  0  0  0  0  0  0  0  0  0  0  0
   14.1389    3.8632    5.8253 C   0  0  0  0  0  0  0  0  0  0  0  0
   15.0993    4.6188    5.1080 O   0  0  0  0  0  0  0  0  0  0  0  0
   14.7486    4.7660    3.7456 C   0  0  0  0  0  0  0  0  0  0  0  0
   13.3808    5.4422    3.6105 C   0  0  0  0  0  0  0  0  0  0  0  0
    9.2710    5.1762    3.7122 C   0  0  0  0  0  0  0  0  0  0  0  0
    8.6430    6.1844    4.6883 C   0  0  0  0  0  0  0  0  0  0  0  0
    6.0532    9.7418    7.2389 C   0  0  0  0  0  0  0  0  0  0  0  0
    5.6974   10.9991    7.7181 C   0  0  0  0  0  0  0  0  0  0  0  0
    2.2011   13.8823    7.9289 H   0  0  0  0  0  0  0  0  0  0  0  0
    2.9016   13.1679    9.2876 H   0  0  0  0  0  0  0  0  0  0  0  0
    3.6439   11.9797    5.1721 H   0  0  0  0  0  0  0  0  0  0  0  0
    4.2743    9.7119    4.3227 H   0  0  0  0  0  0  0  0  0  0  0  0
    6.5891    7.4698    6.1791 H   0  0  0  0  0  0  0  0  0  0  0  0
    6.4035    5.6942    3.3287 H   0  0  0  0  0  0  0  0  0  0  0  0
    5.4247    5.2007    4.7095 H   0  0  0  0  0  0  0  0  0  0  0  0
    6.5647    4.0614    6.2648 H   0  0  0  0  0  0  0  0  0  0  0  0
    8.2126    4.5129    6.7493 H   0  0  0  0  0  0  0  0  0  0  0  0
    7.4075    3.1410    4.1147 H   0  0  0  0  0  0  0  0  0  0  0  0
    8.3553    2.4254    5.4418 H   0  0  0  0  0  0  0  0  0  0  0  0
   11.5455    3.8614    2.6352 H   0  0  0  0  0  0  0  0  0  0  0  0
   12.4341    2.6992    3.6427 H   0  0  0  0  0  0  0  0  0  0  0  0
   12.0107    3.8888    6.2599 H   0  0  0  0  0  0  0  0  0  0  0  0
   12.7927    5.4888    6.2539 H   0  0  0  0  0  0  0  0  0  0  0  0
   14.1031    2.8231    5.4401 H   0  0  0  0  0  0  0  0  0  0  0  0
   14.4814    3.8189    6.8709 H   0  0  0  0  0  0  0  0  0  0  0  0
   14.7447    3.7771    3.2399 H   0  0  0  0  0  0  0  0  0  0  0  0
   15.5338    5.3783    3.2746 H   0  0  0  0  0  0  0  0  0  0  0  0
   13.0910    5.5256    2.5497 H   0  0  0  0  0  0  0  0  0  0  0  0
   13.4631    6.4675    4.0139 H   0  0  0  0  0  0  0  0  0  0  0  0
    8.6590    5.1017    2.7920 H   0  0  0  0  0  0  0  0  0  0  0  0
   10.2692    5.5350    3.4414 H   0  0  0  0  0  0  0  0  0  0  0  0
    8.4857    7.1495    4.1812 H   0  0  0  0  0  0  0  0  0  0  0  0
    9.3598    6.3574    5.5094 H   0  0  0  0  0  0  0  0  0  0  0  0
    6.7434    9.1184    7.8142 H   0  0  0  0  0  0  0  0  0  0  0  0
    6.1046   11.3791    8.6565 H   0  0  0  0  0  0  0  0  0  0  0  0
  2  1  1  1
  1 30  1  0
  1 31  1  0
  2  3  2  0
  2  4  2  0
  2  5  1  0
  5  6  2  0
  5 29  1  0
  6  7  1  0
  6 32  1  0
  7  8  2  0
  7 33  1  0
  8  9  1  0
  8 28  1  0
  9 10  1  0
  9 34  1  0
 10 11  2  0
 10 12  1  0
 12 13  1  0
 12 35  1  0
 12 36  1  0
 13 14  1  0
 13 27  1  0
 14 15  1  0
 14 37  1  0
 14 38  1  0
 15 16  1  0
 15 39  1  0
 15 40  1  0
 16 17  1  0
 16 26  1  0
 17 18  2  0
 17 19  1  0
 19 20  1  0
 19 41  1  0
 19 42  1  0
 20 21  1  0
 20 25  1  0
 21 22  1  0
 21 43  1  0
 21 44  1  0
 22 23  1  0
 22 45  1  0
 22 46  1  0
 23 24  1  0
 24 25  1  0
 24 47  1  0
 24 48  1  0
 25 49  1  0
 25 50  1  0
 26 27  1  0
 26 51  1  0
 26 52  1  0
 27 53  1  0
 27 54  1  0
 28 29  2  0
 28 55  1  0
 29 56  1  0
M  END

