
     RDKit          3D

 33 34  0  0  0  0  0  0  0  0999 V2000
    3.9088    0.9865   -0.9574 C   0  0  0  0  0  0  0  0  0  0  0  0
    2.9809   -0.0156   -0.5990 O   0  0  0  0  0  0  0  0  0  0  0  0
    2.9847   -0.5018    0.6696 C   0  0  0  0  0  0  0  0  0  0  0  0
    3.8657   -0.0934    1.6796 C   0  0  0  0  0  0  0  0  0  0  0  0
    3.7723   -0.6434    2.9647 C   0  0  0  0  0  0  0  0  0  0  0  0
    2.8055   -1.6045    3.2555 C   0  0  0  0  0  0  0  0  0  0  0  0
    1.9298   -2.0253    2.2477 C   0  0  0  0  0  0  0  0  0  0  0  0
    2.0110   -1.4865    0.9653 C   0  0  0  0  0  0  0  0  0  0  0  0
    1.0973   -1.8812    0.0176 O   0  0  0  0  0  0  0  0  0  0  0  0
    1.5814   -2.6025   -1.1061 C   0  0  0  0  0  0  0  0  0  0  0  0
    0.4257   -3.0683   -1.9780 C   0  0  0  0  0  0  0  0  0  0  0  0
    0.6029   -3.7370   -2.9760 O   0  0  0  0  0  0  0  0  0  0  0  0
   -0.8130   -2.6430   -1.5654 N   0  0  0  0  0  0  0  0  0  0  0  0
   -1.9405   -3.0966   -2.1935 N   0  0  0  0  0  0  0  0  0  0  0  0
   -2.3326   -2.6125   -3.5115 C   0  0  0  0  0  0  0  0  0  0  0  0
   -3.3100   -3.6884   -3.9875 C   0  0  0  0  0  0  0  0  0  0  0  0
   -3.9874   -3.6784   -4.9835 O   0  0  0  0  0  0  0  0  0  0  0  0
   -3.2519   -4.6851   -3.0298 N   0  0  0  0  0  0  0  0  0  0  0  0
   -2.3818   -4.4031   -1.9678 C   0  0  0  0  0  0  0  0  0  0  0  0
   -2.0993   -5.1225   -1.0463 O   0  0  0  0  0  0  0  0  0  0  0  0
    3.7157    1.2279   -2.0110 H   0  0  0  0  0  0  0  0  0  0  0  0
    4.9515    0.6366   -0.8548 H   0  0  0  0  0  0  0  0  0  0  0  0
    3.7770    1.8995   -0.3500 H   0  0  0  0  0  0  0  0  0  0  0  0
    4.6243    0.6622    1.4744 H   0  0  0  0  0  0  0  0  0  0  0  0
    4.4659   -0.3078    3.7394 H   0  0  0  0  0  0  0  0  0  0  0  0
    2.7305   -2.0316    4.2578 H   0  0  0  0  0  0  0  0  0  0  0  0
    1.1608   -2.7771    2.4385 H   0  0  0  0  0  0  0  0  0  0  0  0
    2.1390   -3.5035   -0.7927 H   0  0  0  0  0  0  0  0  0  0  0  0
    2.2500   -1.9842   -1.7268 H   0  0  0  0  0  0  0  0  0  0  0  0
   -0.9087   -2.1655   -0.6741 H   0  0  0  0  0  0  0  0  0  0  0  0
   -1.4737   -2.5720   -4.2028 H   0  0  0  0  0  0  0  0  0  0  0  0
   -2.8252   -1.6275   -3.4824 H   0  0  0  0  0  0  0  0  0  0  0  0
   -3.7762   -5.5521   -3.0826 H   0  0  0  0  0  0  0  0  0  0  0  0
  1  2  1  0
  1 21  1  0
  1 22  1  0
  1 23  1  0
  2  3  1  0
  3  4  2  0
  3  8  1  0
  4  5  1  0
  4 24  1  0
  5  6  2  0
  5 25  1  0
  6  7  1  0
  6 26  1  0
  7  8  2  0
  7 27  1  0
  8  9  1  0
  9 10  1  0
 10 11  1  0
 10 28  1  0
 10 29  1  0
 11 12  2  0
 11 13  1  0
 13 14  1  0
 13 30  1  0
 14 15  1  0
 14 19  1  0
 15 16  1  0
 15 31  1  0
 15 32  1  0
 16 17  2  0
 16 18  1  0
 18 19  1  0
 18 33  1  0
 19 20  2  0
M  END

