
     RDKit          3D

 35 37  0  0  0  0  0  0  0  0999 V2000
    1.8329   -0.2307    0.7744 O   0  0  0  0  0  0  0  0  0  0  0  0
    2.3418   -0.0283   -0.3185 C   0  0  0  0  0  0  0  0  0  0  0  0
    2.0402    1.2520   -1.0551 C   0  0  0  0  0  0  0  0  0  0  0  0
    3.0317    2.0236   -1.6835 C   0  0  0  0  0  0  0  0  0  0  0  0
    2.6813    3.2460   -2.2313 C   0  0  0  0  0  0  0  0  0  0  0  0
    3.6095    4.0245   -2.8328 F   0  0  0  0  0  0  0  0  0  0  0  0
    1.3745    3.7559   -2.1997 C   0  0  0  0  0  0  0  0  0  0  0  0
    1.0690    4.9439   -2.7508 O   0  0  0  0  0  0  0  0  0  0  0  0
    0.3973    2.9746   -1.5572 C   0  0  0  0  0  0  0  0  0  0  0  0
   -1.2350    3.5725   -1.4843 Cl  0  0  0  0  0  0  0  0  0  0  0  0
    0.7312    1.7496   -0.9805 C   0  0  0  0  0  0  0  0  0  0  0  0
    3.2261   -0.9219   -0.8903 N   0  0  0  0  0  0  0  0  0  0  0  0
    3.6599   -2.0770   -0.1060 C   0  0  0  0  0  0  0  0  0  0  0  0
    3.1540   -3.3688   -0.7393 C   0  0  0  0  0  0  0  0  0  0  0  0
    3.5370   -3.4566   -2.1013 O   0  0  0  0  0  0  0  0  0  0  0  0
    3.0404   -2.3818   -2.8746 C   0  0  2  0  0  0  0  0  0  0  0  0
    3.4695   -2.5929   -4.3003 C   0  0  0  0  0  0  0  0  0  0  0  0
    4.4574   -3.4252   -4.7660 C   0  0  0  0  0  0  0  0  0  0  0  0
    4.6241   -3.3530   -6.1841 C   0  0  0  0  0  0  0  0  0  0  0  0
    3.7633   -2.4655   -6.7753 C   0  0  0  0  0  0  0  0  0  0  0  0
    2.7285   -1.7107   -5.6086 S   0  0  0  0  0  0  0  0  0  0  0  0
    3.5465   -1.0326   -2.3085 C   0  0  0  0  0  0  0  0  0  0  0  0
    4.0744    1.7065   -1.7310 H   0  0  0  0  0  0  0  0  0  0  0  0
    1.8771    5.3235   -3.1287 H   0  0  0  0  0  0  0  0  0  0  0  0
   -0.0318    1.1762   -0.4538 H   0  0  0  0  0  0  0  0  0  0  0  0
    3.2743   -1.9625    0.9146 H   0  0  0  0  0  0  0  0  0  0  0  0
    4.7648   -2.0928   -0.0792 H   0  0  0  0  0  0  0  0  0  0  0  0
    2.0505   -3.4212   -0.6495 H   0  0  0  0  0  0  0  0  0  0  0  0
    3.5851   -4.2456   -0.2332 H   0  0  0  0  0  0  0  0  0  0  0  0
    1.9305   -2.3672   -2.8144 H   0  0  0  0  0  0  0  0  0  0  0  0
    5.0301   -4.0733   -4.1033 H   0  0  0  0  0  0  0  0  0  0  0  0
    5.3542   -3.9414   -6.7424 H   0  0  0  0  0  0  0  0  0  0  0  0
    3.6686   -2.2124   -7.8303 H   0  0  0  0  0  0  0  0  0  0  0  0
    3.0893   -0.2116   -2.8716 H   0  0  0  0  0  0  0  0  0  0  0  0
    4.6407   -0.9878   -2.4569 H   0  0  0  0  0  0  0  0  0  0  0  0
  1  2  2  0
  2  3  1  0
  2 12  1  0
  3  4  2  0
  3 11  1  0
  4  5  1  0
  4 23  1  0
  5  6  1  0
  5  7  2  0
  7  8  1  0
  7  9  1  0
  8 24  1  0
  9 10  1  0
  9 11  2  0
 11 25  1  0
 12 13  1  0
 12 22  1  0
 13 14  1  0
 13 26  1  0
 13 27  1  0
 14 15  1  0
 14 28  1  0
 14 29  1  0
 15 16  1  0
 16 17  1  0
 16 22  1  0
 16 30  1  6
 17 18  2  0
 17 21  1  0
 18 19  1  0
 18 31  1  0
 19 20  2  0
 19 32  1  0
 20 21  1  0
 20 33  1  0
 22 34  1  0
 22 35  1  0
M  END

