
     RDKit          3D

 33 34  0  0  0  0  0  0  0  0999 V2000
    0.7516   -0.0565    0.2102 C   0  0  0  0  0  0  0  0  0  0  0  0
    2.2759    0.0242    0.1868 C   0  0  1  0  0  0  0  0  0  0  0  0
    2.8833    0.5286    1.4814 C   0  0  0  0  0  0  0  0  0  0  0  0
    2.8016   -1.2896   -0.0316 O   0  0  0  0  0  0  0  0  0  0  0  0
    2.8786   -1.8357   -1.2713 C   0  0  0  0  0  0  0  0  0  0  0  0
    2.8083   -3.0250   -1.4131 O   0  0  0  0  0  0  0  0  0  0  0  0
    3.1924   -0.8676   -2.4010 C   0  0  2  0  0  0  0  0  0  0  0  0
    4.7403   -0.9577   -2.7025 C   0  0  1  0  0  0  0  0  0  0  0  0
    5.1457   -2.3043   -3.3485 C   0  0  0  0  0  0  0  0  0  0  0  0
    4.7182   -2.4173   -4.8171 C   0  0  0  0  0  0  0  0  0  0  0  0
    5.2802   -1.2655   -5.6577 C   0  0  0  0  0  0  0  0  0  0  0  0
    4.9034    0.1070   -5.0674 C   0  0  0  0  0  0  0  0  0  0  0  0
    5.2435    0.2003   -3.5917 C   0  0  0  0  0  0  0  0  0  0  0  0
    5.9210    1.0835   -3.1196 O   0  0  0  0  0  0  0  0  0  0  0  0
    2.7860    0.5760   -2.1346 C   0  0  0  0  0  0  0  0  0  0  0  0
    2.6526    1.3850   -3.0105 O   0  0  0  0  0  0  0  0  0  0  0  0
    2.6678    0.9440   -0.8385 O   0  0  0  0  0  0  0  0  0  0  0  0
    0.4226   -0.7445    1.0018 H   0  0  0  0  0  0  0  0  0  0  0  0
    0.3683   -0.4280   -0.7534 H   0  0  0  0  0  0  0  0  0  0  0  0
    0.3243    0.9398    0.3912 H   0  0  0  0  0  0  0  0  0  0  0  0
    2.6159   -0.1448    2.3074 H   0  0  0  0  0  0  0  0  0  0  0  0
    2.5131    1.5400    1.6987 H   0  0  0  0  0  0  0  0  0  0  0  0
    3.9775    0.5622    1.3845 H   0  0  0  0  0  0  0  0  0  0  0  0
    2.6385   -1.1982   -3.2904 H   0  0  0  0  0  0  0  0  0  0  0  0
    5.2643   -0.8276   -1.7433 H   0  0  0  0  0  0  0  0  0  0  0  0
    4.7438   -3.1403   -2.7587 H   0  0  0  0  0  0  0  0  0  0  0  0
    6.2463   -2.3743   -3.2901 H   0  0  0  0  0  0  0  0  0  0  0  0
    3.6158   -2.4321   -4.8920 H   0  0  0  0  0  0  0  0  0  0  0  0
    5.0573   -3.3848   -5.2220 H   0  0  0  0  0  0  0  0  0  0  0  0
    4.9253   -1.3321   -6.6990 H   0  0  0  0  0  0  0  0  0  0  0  0
    6.3808   -1.3499   -5.6985 H   0  0  0  0  0  0  0  0  0  0  0  0
    3.8158    0.2739   -5.1592 H   0  0  0  0  0  0  0  0  0  0  0  0
    5.4094    0.9352   -5.5841 H   0  0  0  0  0  0  0  0  0  0  0  0
  2  1  1  1
  1 18  1  0
  1 19  1  0
  1 20  1  0
  2  3  1  0
  2  4  1  0
  2 17  1  0
  3 21  1  0
  3 22  1  0
  3 23  1  0
  4  5  1  0
  5  6  2  0
  5  7  1  0
  7  8  1  0
  7 15  1  0
  7 24  1  6
  8  9  1  0
  8 13  1  0
  8 25  1  1
  9 10  1  0
  9 26  1  0
  9 27  1  0
 10 11  1  0
 10 28  1  0
 10 29  1  0
 11 12  1  0
 11 30  1  0
 11 31  1  0
 12 13  1  0
 12 32  1  0
 12 33  1  0
 13 14  2  0
 15 16  2  0
 15 17  1  0
M  END

