
     RDKit          3D

 48 49  0  0  0  0  0  0  0  0999 V2000
    9.2124   -3.1948   -1.5796 C   0  0  0  0  0  0  0  0  0  0  0  0
    8.5050   -2.2362   -0.6089 C   0  0  0  0  0  0  0  0  0  0  0  0
    7.6477   -2.9479    0.4157 C   0  0  0  0  0  0  0  0  0  0  0  0
    8.1776   -3.3574    1.6479 C   0  0  0  0  0  0  0  0  0  0  0  0
    7.3978   -4.0537    2.5753 C   0  0  0  0  0  0  0  0  0  0  0  0
    6.0582   -4.3609    2.3043 C   0  0  0  0  0  0  0  0  0  0  0  0
    5.2085   -5.0932    3.3387 C   0  0  1  0  0  0  0  0  0  0  0  0
    4.1596   -4.1777    3.9857 C   0  0  0  0  0  0  0  0  0  0  0  0
    4.5684   -6.2818    2.7836 N   0  0  0  0  0  0  0  0  0  0  0  0
    4.9594   -7.5401    3.0502 C   0  0  0  0  0  0  0  0  0  0  0  0
    5.8696   -7.8826    3.7963 O   0  0  0  0  0  0  0  0  0  0  0  0
    4.0998   -8.5849    2.2962 C   0  0  0  0  0  0  0  0  0  0  0  0
    3.1856   -8.2438    1.5588 O   0  0  0  0  0  0  0  0  0  0  0  0
    4.5183   -9.8389    2.5913 N   0  0  0  0  0  0  0  0  0  0  0  0
    4.0343  -11.0844    2.1482 C   0  0  0  0  0  0  0  0  0  0  0  0
    2.9618  -11.1724    1.2431 C   0  0  0  0  0  0  0  0  0  0  0  0
    2.5055  -12.4218    0.8220 C   0  0  0  0  0  0  0  0  0  0  0  0
    3.1098  -13.5898    1.2906 C   0  0  0  0  0  0  0  0  0  0  0  0
    4.1767  -13.4950    2.1872 C   0  0  0  0  0  0  0  0  0  0  0  0
    4.6615  -12.2591    2.6348 C   0  0  0  0  0  0  0  0  0  0  0  0
    5.8002  -12.2089    3.6350 C   0  0  0  0  0  0  0  0  0  0  0  0
    5.3511  -11.9775    5.0882 C   0  0  0  0  0  0  0  0  0  0  0  0
    5.5233   -3.9512    1.0733 C   0  0  0  0  0  0  0  0  0  0  0  0
    6.3047   -3.2595    0.1467 C   0  0  0  0  0  0  0  0  0  0  0  0
    9.8247   -2.6397   -2.3086 H   0  0  0  0  0  0  0  0  0  0  0  0
    8.4838   -3.8019   -2.1406 H   0  0  0  0  0  0  0  0  0  0  0  0
    9.8746   -3.8901   -1.0392 H   0  0  0  0  0  0  0  0  0  0  0  0
    7.8782   -1.5341   -1.1844 H   0  0  0  0  0  0  0  0  0  0  0  0
    9.2602   -1.6227   -0.0892 H   0  0  0  0  0  0  0  0  0  0  0  0
    9.2206   -3.1294    1.8879 H   0  0  0  0  0  0  0  0  0  0  0  0
    7.8401   -4.3655    3.5259 H   0  0  0  0  0  0  0  0  0  0  0  0
    5.8830   -5.4732    4.1197 H   0  0  0  0  0  0  0  0  0  0  0  0
    3.4370   -3.8095    3.2387 H   0  0  0  0  0  0  0  0  0  0  0  0
    4.6447   -3.3001    4.4387 H   0  0  0  0  0  0  0  0  0  0  0  0
    3.6036   -4.7164    4.7686 H   0  0  0  0  0  0  0  0  0  0  0  0
    3.7916   -6.2038    2.1299 H   0  0  0  0  0  0  0  0  0  0  0  0
    5.3089   -9.8275    3.2350 H   0  0  0  0  0  0  0  0  0  0  0  0
    2.5004  -10.2551    0.8830 H   0  0  0  0  0  0  0  0  0  0  0  0
    1.6706  -12.4765    0.1187 H   0  0  0  0  0  0  0  0  0  0  0  0
    2.7570  -14.5695    0.9597 H   0  0  0  0  0  0  0  0  0  0  0  0
    4.6568  -14.4071    2.5538 H   0  0  0  0  0  0  0  0  0  0  0  0
    6.5338  -11.4339    3.3476 H   0  0  0  0  0  0  0  0  0  0  0  0
    6.3517  -13.1607    3.5784 H   0  0  0  0  0  0  0  0  0  0  0  0
    4.8305  -11.0143    5.2091 H   0  0  0  0  0  0  0  0  0  0  0  0
    6.2163  -11.9756    5.7701 H   0  0  0  0  0  0  0  0  0  0  0  0
    4.6596  -12.7700    5.4145 H   0  0  0  0  0  0  0  0  0  0  0  0
    4.4808   -4.1722    0.8250 H   0  0  0  0  0  0  0  0  0  0  0  0
    5.8614   -2.9510   -0.8049 H   0  0  0  0  0  0  0  0  0  0  0  0
  1  2  1  0
  1 25  1  0
  1 26  1  0
  1 27  1  0
  2  3  1  0
  2 28  1  0
  2 29  1  0
  3  4  2  0
  3 24  1  0
  4  5  1  0
  4 30  1  0
  5  6  2  0
  5 31  1  0
  6  7  1  0
  6 23  1  0
  7  8  1  0
  7  9  1  0
  7 32  1  1
  8 33  1  0
  8 34  1  0
  8 35  1  0
  9 10  1  0
  9 36  1  0
 10 11  2  0
 10 12  1  0
 12 13  2  0
 12 14  1  0
 14 15  1  0
 14 37  1  0
 15 16  2  0
 15 20  1  0
 16 17  1  0
 16 38  1  0
 17 18  2  0
 17 39  1  0
 18 19  1  0
 18 40  1  0
 19 20  2  0
 19 41  1  0
 20 21  1  0
 21 22  1  0
 21 42  1  0
 21 43  1  0
 22 44  1  0
 22 45  1  0
 22 46  1  0
 23 24  2  0
 23 47  1  0
 24 48  1  0
M  END

