
     RDKit          3D

 38 40  0  0  0  0  0  0  0  0999 V2000
    1.6875    2.8179   -0.4926 N   0  0  0  0  0  0  0  0  0  0  0  0
    2.7545    2.4292   -0.2649 C   0  0  0  0  0  0  0  0  0  0  0  0
    4.1114    1.9360    0.0003 C   0  0  1  0  0  0  0  0  0  0  0  0
    4.1211    1.1218    1.3148 C   0  0  0  0  0  0  0  0  0  0  0  0
    4.3251    1.6243    2.3910 O   0  0  0  0  0  0  0  0  0  0  0  0
    3.8428   -0.2161    1.1362 N   0  0  0  0  0  0  0  0  0  0  0  0
    3.6449   -0.9068   -0.0766 C   0  0  0  0  0  0  0  0  0  0  0  0
    3.2493   -2.0493   -0.0942 O   0  0  0  0  0  0  0  0  0  0  0  0
    3.9462   -0.1739   -1.1979 N   0  0  0  0  0  0  0  0  0  0  0  0
    4.6478    1.0936   -1.1927 C   0  0  2  0  0  0  0  0  0  0  0  0
    6.1755    0.9852   -1.1659 C   0  0  0  0  0  0  0  0  0  0  0  0
    6.9528    2.1235   -1.4434 C   0  0  0  0  0  0  0  0  0  0  0  0
    8.3425    2.0714   -1.3946 C   0  0  0  0  0  0  0  0  0  0  0  0
    9.0199    0.8715   -1.1156 C   0  0  0  0  0  0  0  0  0  0  0  0
   10.8025    0.8788   -0.9095 S   0  0  0  0  0  0  0  0  0  0  0  0
   11.3586    1.1970   -2.5899 C   0  0  0  0  0  0  0  0  0  0  0  0
   11.0592    0.3046   -3.6310 C   0  0  0  0  0  0  0  0  0  0  0  0
   11.5493    0.5548   -4.9145 C   0  0  0  0  0  0  0  0  0  0  0  0
   12.3569    1.6717   -5.1594 C   0  0  0  0  0  0  0  0  0  0  0  0
   12.6697    2.5467   -4.1157 C   0  0  0  0  0  0  0  0  0  0  0  0
   12.1660    2.3172   -2.8310 C   0  0  0  0  0  0  0  0  0  0  0  0
    8.2293   -0.2627   -0.8824 C   0  0  0  0  0  0  0  0  0  0  0  0
    8.8212   -1.6024   -0.6630 N   0  0  0  0  0  0  0  0  0  0  0  0
    9.6726   -1.9797   -1.4475 O   0  0  0  0  0  0  0  0  0  0  0  0
    8.3732   -2.2519    0.2657 O   0  0  0  0  0  0  0  0  0  0  0  0
    6.8315   -0.2111   -0.8775 C   0  0  0  0  0  0  0  0  0  0  0  0
    4.7606    2.8042    0.1821 H   0  0  0  0  0  0  0  0  0  0  0  0
    3.7345   -0.7819    1.9755 H   0  0  0  0  0  0  0  0  0  0  0  0
    3.8291   -0.6781   -2.0698 H   0  0  0  0  0  0  0  0  0  0  0  0
    4.3715    1.6275   -2.1150 H   0  0  0  0  0  0  0  0  0  0  0  0
    6.4664    3.0733   -1.6850 H   0  0  0  0  0  0  0  0  0  0  0  0
    8.9311    2.9742   -1.5686 H   0  0  0  0  0  0  0  0  0  0  0  0
   10.4573   -0.5818   -3.4228 H   0  0  0  0  0  0  0  0  0  0  0  0
   11.3116   -0.1375   -5.7262 H   0  0  0  0  0  0  0  0  0  0  0  0
   12.7452    1.8568   -6.1640 H   0  0  0  0  0  0  0  0  0  0  0  0
   13.3020    3.4189   -4.3003 H   0  0  0  0  0  0  0  0  0  0  0  0
   12.3955    3.0056   -2.0145 H   0  0  0  0  0  0  0  0  0  0  0  0
    6.2813   -1.1272   -0.6626 H   0  0  0  0  0  0  0  0  0  0  0  0
  1  2  3  0
  2  3  1  0
  3  4  1  0
  3 10  1  0
  3 27  1  1
  4  5  2  0
  4  6  1  0
  6  7  1  0
  6 28  1  0
  7  8  2  0
  7  9  1  0
  9 10  1  0
  9 29  1  0
 10 11  1  0
 10 30  1  6
 11 12  1  0
 11 26  2  0
 12 13  2  0
 12 31  1  0
 13 14  1  0
 13 32  1  0
 14 15  2  0
 14 22  1  0
 15 16  1  0
 16 17  2  0
 16 21  1  0
 17 18  1  0
 17 33  1  0
 18 19  2  0
 18 34  1  0
 19 20  1  0
 19 35  1  0
 20 21  2  0
 20 36  1  0
 21 37  1  0
 22 23  2  0
 22 26  1  0
 23 24  1  0
 23 25  1  0
 26 38  1  0
M  CHG  4  15   1  23   1  24  -1  25  -1
M  END

