
     RDKit          3D

 82 90  0  0  0  0  0  0  0  0999 V2000
    1.6277    0.8644    2.9656 C   0  0  0  0  0  0  0  0  0  0  0  0
    2.9538    0.8186    2.2466 C   0  0  0  0  0  0  0  0  0  0  0  0
    4.1324    0.4444    2.9091 C   0  0  0  0  0  0  0  0  0  0  0  0
    5.3623    0.4239    2.2470 C   0  0  0  0  0  0  0  0  0  0  0  0
    5.4595    0.7824    0.8919 C   0  0  0  0  0  0  0  0  0  0  0  0
    6.7750    0.7525    0.1821 C   0  0  0  0  0  0  0  0  0  0  0  0
    7.4389   -0.4966    0.0399 C   0  0  0  0  0  0  0  0  0  0  0  0
    8.6499   -0.6351   -0.5469 N   0  0  0  0  0  0  0  0  0  0  0  0
    8.9543   -1.9531   -0.5362 C   0  0  0  0  0  0  0  0  0  0  0  0
   10.1467   -2.4889   -1.0957 C   0  0  0  0  0  0  0  0  0  0  0  0
   10.4087   -3.9520   -0.9423 C   0  0  0  0  0  0  0  0  0  0  0  0
   10.5378   -4.5349    0.3294 C   0  0  0  0  0  0  0  0  0  0  0  0
   10.7786   -5.9040    0.4714 C   0  0  0  0  0  0  0  0  0  0  0  0
   10.8942   -6.7435   -0.6459 C   0  0  0  0  0  0  0  0  0  0  0  0
   11.1576   -8.2223   -0.4999 C   0  0  0  0  0  0  0  0  0  0  0  0
   10.7607   -6.1593   -1.9171 C   0  0  0  0  0  0  0  0  0  0  0  0
   10.5268   -4.7927   -2.0653 C   0  0  0  0  0  0  0  0  0  0  0  0
   11.1001   -1.7052   -1.7875 C   0  0  0  0  0  0  0  0  0  0  0  0
   12.3680   -2.1409   -2.2730 C   0  0  0  0  0  0  0  0  0  0  0  0
   13.0989   -1.1489   -2.8913 C   0  0  0  0  0  0  0  0  0  0  0  0
   12.4409    0.1160   -2.9231 C   0  0  0  0  0  0  0  0  0  0  0  0
   10.8837    0.0033   -2.1244 S   0  0  0  0  0  0  0  0  0  0  0  0
   12.9481    1.3304   -3.4553 C   0  0  0  0  0  0  0  0  0  0  0  0
   14.2697    1.3255   -4.0984 C   0  0  0  0  0  0  0  0  0  0  0  0
   15.3657    2.1513   -3.9831 C   0  0  0  0  0  0  0  0  0  0  0  0
   16.3747    1.6236   -4.8487 C   0  0  0  0  0  0  0  0  0  0  0  0
   15.8275    0.5144   -5.4292 C   0  0  0  0  0  0  0  0  0  0  0  0
   14.5634    0.3223   -4.9820 O   0  0  0  0  0  0  0  0  0  0  0  0
   12.2554    2.5734   -3.3592 C   0  0  0  0  0  0  0  0  0  0  0  0
   11.0910    2.7209   -2.6905 N   0  0  0  0  0  0  0  0  0  0  0  0
   10.7291    4.0227   -2.7892 C   0  0  0  0  0  0  0  0  0  0  0  0
    9.5628    4.5646   -2.1875 C   0  0  0  0  0  0  0  0  0  0  0  0
    9.2966    6.0299   -2.3406 C   0  0  0  0  0  0  0  0  0  0  0  0
    8.9760    6.5805   -3.5916 C   0  0  0  0  0  0  0  0  0  0  0  0
    8.7306    7.9495   -3.7317 C   0  0  0  0  0  0  0  0  0  0  0  0
    8.7982    8.8181   -2.6331 C   0  0  0  0  0  0  0  0  0  0  0  0
    8.5326   10.2970   -2.7770 C   0  0  0  0  0  0  0  0  0  0  0  0
    9.1210    8.2643   -1.3827 C   0  0  0  0  0  0  0  0  0  0  0  0
    9.3634    6.8985   -1.2361 C   0  0  0  0  0  0  0  0  0  0  0  0
    8.6352    3.7906   -1.4530 C   0  0  0  0  0  0  0  0  0  0  0  0
    7.4375    4.2559   -0.8327 C   0  0  0  0  0  0  0  0  0  0  0  0
    6.7134    3.2623   -0.2084 C   0  0  0  0  0  0  0  0  0  0  0  0
    7.2962    1.9650   -0.3256 C   0  0  0  0  0  0  0  0  0  0  0  0
    8.8041    2.0603   -1.2184 S   0  0  0  0  0  0  0  0  0  0  0  0
   11.7177    4.7612   -3.5783 C   0  0  0  0  0  0  0  0  0  0  0  0
   12.6629    3.8537   -3.9490 C   0  0  0  0  0  0  0  0  0  0  0  0
    7.8702   -2.7166    0.0897 C   0  0  0  0  0  0  0  0  0  0  0  0
    6.9225   -1.8062    0.4485 C   0  0  0  0  0  0  0  0  0  0  0  0
    4.2786    1.1568    0.2250 C   0  0  0  0  0  0  0  0  0  0  0  0
    3.0523    1.1701    0.8902 C   0  0  0  0  0  0  0  0  0  0  0  0
    1.6512    0.2795    3.8972 H   0  0  0  0  0  0  0  0  0  0  0  0
    0.8134    0.4718    2.3361 H   0  0  0  0  0  0  0  0  0  0  0  0
    1.3563    1.9006    3.2340 H   0  0  0  0  0  0  0  0  0  0  0  0
    4.0896    0.1640    3.9656 H   0  0  0  0  0  0  0  0  0  0  0  0
    6.2648    0.1330    2.7898 H   0  0  0  0  0  0  0  0  0  0  0  0
   10.4600   -3.9041    1.2179 H   0  0  0  0  0  0  0  0  0  0  0  0
   10.8817   -6.3273    1.4747 H   0  0  0  0  0  0  0  0  0  0  0  0
   11.1615   -8.5310    0.5559 H   0  0  0  0  0  0  0  0  0  0  0  0
   12.1335   -8.4995   -0.9337 H   0  0  0  0  0  0  0  0  0  0  0  0
   10.3934   -8.8196   -1.0242 H   0  0  0  0  0  0  0  0  0  0  0  0
   10.8361   -6.7885   -2.8092 H   0  0  0  0  0  0  0  0  0  0  0  0
   10.4157   -4.3674   -3.0656 H   0  0  0  0  0  0  0  0  0  0  0  0
   12.7255   -3.1617   -2.1422 H   0  0  0  0  0  0  0  0  0  0  0  0
   14.0887   -1.3065   -3.3140 H   0  0  0  0  0  0  0  0  0  0  0  0
   15.4443    3.0157   -3.3289 H   0  0  0  0  0  0  0  0  0  0  0  0
   17.3765    2.0151   -5.0124 H   0  0  0  0  0  0  0  0  0  0  0  0
   16.1944   -0.2091   -6.1527 H   0  0  0  0  0  0  0  0  0  0  0  0
    8.9103    5.9262   -4.4642 H   0  0  0  0  0  0  0  0  0  0  0  0
    8.4783    8.3490   -4.7183 H   0  0  0  0  0  0  0  0  0  0  0  0
    8.3380   10.5738   -3.8236 H   0  0  0  0  0  0  0  0  0  0  0  0
    9.3894   10.8946   -2.4236 H   0  0  0  0  0  0  0  0  0  0  0  0
    7.6583   10.6070   -2.1798 H   0  0  0  0  0  0  0  0  0  0  0  0
    9.1887    8.9164   -0.5065 H   0  0  0  0  0  0  0  0  0  0  0  0
    9.6216    6.4959   -0.2535 H   0  0  0  0  0  0  0  0  0  0  0  0
    7.1338    5.3019   -0.8589 H   0  0  0  0  0  0  0  0  0  0  0  0
    5.7800    3.4380    0.3254 H   0  0  0  0  0  0  0  0  0  0  0  0
   11.6850    5.8209   -3.8213 H   0  0  0  0  0  0  0  0  0  0  0  0
   13.5351    4.0285   -4.5732 H   0  0  0  0  0  0  0  0  0  0  0  0
    7.8310   -3.7968    0.2101 H   0  0  0  0  0  0  0  0  0  0  0  0
    5.9619   -1.9996    0.9207 H   0  0  0  0  0  0  0  0  0  0  0  0
    4.3230    1.4221   -0.8340 H   0  0  0  0  0  0  0  0  0  0  0  0
    2.1495    1.4536    0.3408 H   0  0  0  0  0  0  0  0  0  0  0  0
  1  2  1  0
  1 51  1  0
  1 52  1  0
  1 53  1  0
  2  3  2  0
  2 50  1  0
  3  4  1  0
  3 54  1  0
  4  5  2  0
  4 55  1  0
  5  6  1  0
  5 49  1  0
  6  7  1  0
  6 43  2  0
  7  8  2  0
  7 48  1  0
  8  9  1  0
  9 10  2  0
  9 47  1  0
 10 11  1  0
 10 18  1  0
 11 12  2  0
 11 17  1  0
 12 13  1  0
 12 56  1  0
 13 14  2  0
 13 57  1  0
 14 15  1  0
 14 16  1  0
 15 58  1  0
 15 59  1  0
 15 60  1  0
 16 17  2  0
 16 61  1  0
 17 62  1  0
 18 19  2  0
 18 22  1  0
 19 20  1  0
 19 63  1  0
 20 21  2  0
 20 64  1  0
 21 22  1  0
 21 23  1  0
 23 24  1  0
 23 29  2  0
 24 25  2  0
 24 28  1  0
 25 26  1  0
 25 65  1  0
 26 27  2  0
 26 66  1  0
 27 28  1  0
 27 67  1  0
 29 30  1  0
 29 46  1  0
 30 31  2  0
 31 32  1  0
 31 45  1  0
 32 33  1  0
 32 40  2  0
 33 34  2  0
 33 39  1  0
 34 35  1  0
 34 68  1  0
 35 36  2  0
 35 69  1  0
 36 37  1  0
 36 38  1  0
 37 70  1  0
 37 71  1  0
 37 72  1  0
 38 39  2  0
 38 73  1  0
 39 74  1  0
 40 41  1  0
 40 44  1  0
 41 42  2  0
 41 75  1  0
 42 43  1  0
 42 76  1  0
 43 44  1  0
 45 46  2  0
 45 77  1  0
 46 78  1  0
 47 48  2  0
 47 79  1  0
 48 80  1  0
 49 50  2  0
 49 81  1  0
 50 82  1  0
M  END

