
     RDKit          3D

 37 39  0  0  0  0  0  0  0  0999 V2000
    0.9779    0.0295    0.4700 F   0  0  0  0  0  0  0  0  0  0  0  0
    2.2609   -0.1193    0.1357 C   0  0  0  0  0  0  0  0  0  0  0  0
    3.1121    0.9593    0.3777 C   0  0  0  0  0  0  0  0  0  0  0  0
    4.4735    0.8867    0.0591 C   0  0  0  0  0  0  0  0  0  0  0  0
    5.4404    2.0566    0.2541 C   0  0  1  0  0  0  0  0  0  0  0  0
    4.8407    3.3110    0.9228 C   0  0  0  0  0  0  0  0  0  0  0  0
    4.6418    3.1751    2.4399 C   0  0  0  0  0  0  0  0  0  0  0  0
    5.9303    2.7423    3.1457 C   0  0  2  0  0  0  0  0  0  0  0  0
    6.5008    1.4713    2.5113 C   0  0  0  0  0  0  0  0  0  0  0  0
    6.7332    1.6558    1.0080 C   0  0  0  0  0  0  0  0  0  0  0  0
    5.6547    2.5537    4.5287 O   0  0  0  0  0  0  0  0  0  0  0  0
    6.6245    3.2563    5.2849 C   0  0  0  0  0  0  0  0  0  0  0  0
    7.0176    4.3897    4.3411 C   0  0  0  0  0  0  0  0  0  0  0  0
    6.9215    3.7710    3.0704 O   0  0  0  0  0  0  0  0  0  0  0  0
    4.9446   -0.3055   -0.5209 C   0  0  0  0  0  0  0  0  0  0  0  0
    4.0779   -1.3617   -0.7532 C   0  0  0  0  0  0  0  0  0  0  0  0
    4.5632   -2.4749   -1.3108 F   0  0  0  0  0  0  0  0  0  0  0  0
    2.7105   -1.3167   -0.4332 C   0  0  0  0  0  0  0  0  0  0  0  0
    1.8447   -2.5230   -0.7200 C   0  0  1  0  0  0  0  0  0  0  0  0
    0.5710   -2.3487   -0.3533 F   0  0  0  0  0  0  0  0  0  0  0  0
    1.8470   -2.8164   -2.0325 F   0  0  0  0  0  0  0  0  0  0  0  0
    2.3030   -3.6085   -0.0714 F   0  0  0  0  0  0  0  0  0  0  0  0
    2.6638    1.8490    0.8165 H   0  0  0  0  0  0  0  0  0  0  0  0
    5.7436    2.3484   -0.7680 H   0  0  0  0  0  0  0  0  0  0  0  0
    3.8971    3.6040    0.4357 H   0  0  0  0  0  0  0  0  0  0  0  0
    5.5430    4.1418    0.7487 H   0  0  0  0  0  0  0  0  0  0  0  0
    3.8678    2.4315    2.6861 H   0  0  0  0  0  0  0  0  0  0  0  0
    4.3117    4.1331    2.8722 H   0  0  0  0  0  0  0  0  0  0  0  0
    5.7904    0.6499    2.7010 H   0  0  0  0  0  0  0  0  0  0  0  0
    7.4430    1.2169    3.0213 H   0  0  0  0  0  0  0  0  0  0  0  0
    7.1753    0.7441    0.5783 H   0  0  0  0  0  0  0  0  0  0  0  0
    7.4751    2.4579    0.8653 H   0  0  0  0  0  0  0  0  0  0  0  0
    7.4937    2.6135    5.5246 H   0  0  0  0  0  0  0  0  0  0  0  0
    6.1672    3.5972    6.2261 H   0  0  0  0  0  0  0  0  0  0  0  0
    8.0453    4.7562    4.4838 H   0  0  0  0  0  0  0  0  0  0  0  0
    6.3195    5.2450    4.4282 H   0  0  0  0  0  0  0  0  0  0  0  0
    5.9875   -0.4315   -0.8141 H   0  0  0  0  0  0  0  0  0  0  0  0
  1  2  1  0
  2  3  2  0
  2 18  1  0
  3  4  1  0
  3 23  1  0
  4  5  1  0
  4 15  2  0
  5  6  1  0
  5 10  1  0
  5 24  1  6
  6  7  1  0
  6 25  1  0
  6 26  1  0
  7  8  1  0
  7 27  1  0
  7 28  1  0
  8  9  1  0
  8 11  1  1
  8 14  1  0
  9 10  1  0
  9 29  1  0
  9 30  1  0
 10 31  1  0
 10 32  1  0
 11 12  1  0
 12 13  1  0
 12 33  1  0
 12 34  1  0
 13 14  1  0
 13 35  1  0
 13 36  1  0
 15 16  1  0
 15 37  1  0
 16 17  1  0
 16 18  2  0
 18 19  1  0
 19 20  1  1
 19 21  1  0
 19 22  1  0
M  END

