
     RDKit          3D

 49 51  0  0  0  0  0  0  0  0999 V2000
    4.4096    0.9261   -5.0986 C   0  0  0  0  0  0  0  0  0  0  0  0
    4.3113    0.5324   -3.7479 O   0  0  0  0  0  0  0  0  0  0  0  0
    3.6202    1.2995   -2.8787 C   0  0  0  0  0  0  0  0  0  0  0  0
    2.8947    2.4438   -3.2214 C   0  0  0  0  0  0  0  0  0  0  0  0
    2.1842    3.1420   -2.2304 C   0  0  0  0  0  0  0  0  0  0  0  0
    1.4015    4.3855   -2.5647 C   0  0  0  0  0  0  0  0  0  0  0  0
    2.2319    2.6313   -0.9291 C   0  0  0  0  0  0  0  0  0  0  0  0
    2.9223    1.5370   -0.5932 N   0  0  0  0  0  0  0  0  0  0  0  0
    3.6121    0.8856   -1.5229 C   0  0  0  0  0  0  0  0  0  0  0  0
    4.5285   -0.2325   -1.0585 C   0  0  0  0  0  0  0  0  0  0  0  0
    5.7375   -0.0854   -1.1612 O   0  0  0  0  0  0  0  0  0  0  0  0
    3.9528   -1.3403   -0.4959 N   0  0  0  0  0  0  0  0  0  0  0  0
    2.5208   -1.5964   -0.3759 C   0  0  0  0  0  0  0  0  0  0  0  0
    2.1532   -2.9678   -0.9557 C   0  0  0  0  0  0  0  0  0  0  0  0
    3.0005   -4.1176   -0.3794 C   0  0  2  0  0  0  0  0  0  0  0  0
    2.5411   -4.5154    1.0534 C   0  0  1  0  0  0  0  0  0  0  0  0
    1.1457   -4.7529    1.0815 O   0  0  0  0  0  0  0  0  0  0  0  0
    3.2409   -5.7637    1.5373 C   0  0  0  0  0  0  0  0  0  0  0  0
    2.8711   -6.9535    1.1037 N   0  0  0  0  0  0  0  0  0  0  0  0
    3.6738   -7.8599    1.7437 C   0  0  0  0  0  0  0  0  0  0  0  0
    4.5456   -7.2053    2.5820 C   0  0  0  0  0  0  0  0  0  0  0  0
    4.2576   -5.8580    2.4518 N   0  0  0  0  0  0  0  0  0  0  0  0
    4.9354   -4.7864    3.1592 C   0  0  0  0  0  0  0  0  0  0  0  0
    4.4944   -3.7539   -0.4807 C   0  0  0  0  0  0  0  0  0  0  0  0
    4.8148   -2.3644    0.0838 C   0  0  0  0  0  0  0  0  0  0  0  0
    5.0426    0.1792   -5.5951 H   0  0  0  0  0  0  0  0  0  0  0  0
    4.8812    1.9198   -5.2007 H   0  0  0  0  0  0  0  0  0  0  0  0
    3.4221    0.9461   -5.5945 H   0  0  0  0  0  0  0  0  0  0  0  0
    2.8702    2.8013   -4.2524 H   0  0  0  0  0  0  0  0  0  0  0  0
    2.0621    5.1834   -2.9435 H   0  0  0  0  0  0  0  0  0  0  0  0
    0.8750    4.7769   -1.6820 H   0  0  0  0  0  0  0  0  0  0  0  0
    0.6501    4.1893   -3.3476 H   0  0  0  0  0  0  0  0  0  0  0  0
    1.6854    3.1327   -0.1216 H   0  0  0  0  0  0  0  0  0  0  0  0
    1.9642   -0.8063   -0.8913 H   0  0  0  0  0  0  0  0  0  0  0  0
    2.2282   -1.5337    0.6898 H   0  0  0  0  0  0  0  0  0  0  0  0
    2.3035   -2.9347   -2.0485 H   0  0  0  0  0  0  0  0  0  0  0  0
    1.0882   -3.1710   -0.7723 H   0  0  0  0  0  0  0  0  0  0  0  0
    2.8210   -5.0193   -0.9895 H   0  0  0  0  0  0  0  0  0  0  0  0
    2.7336   -3.6836    1.7512 H   0  0  0  0  0  0  0  0  0  0  0  0
    1.0386   -5.6871    0.8344 H   0  0  0  0  0  0  0  0  0  0  0  0
    3.5832   -8.9326    1.5767 H   0  0  0  0  0  0  0  0  0  0  0  0
    5.3239   -7.5621    3.2523 H   0  0  0  0  0  0  0  0  0  0  0  0
    5.2695   -5.1520    4.1401 H   0  0  0  0  0  0  0  0  0  0  0  0
    4.2477   -3.9465    3.3249 H   0  0  0  0  0  0  0  0  0  0  0  0
    5.8127   -4.4186    2.6028 H   0  0  0  0  0  0  0  0  0  0  0  0
    4.7856   -3.7684   -1.5444 H   0  0  0  0  0  0  0  0  0  0  0  0
    5.1221   -4.5104    0.0195 H   0  0  0  0  0  0  0  0  0  0  0  0
    5.8515   -2.0772   -0.1321 H   0  0  0  0  0  0  0  0  0  0  0  0
    4.6913   -2.3513    1.1845 H   0  0  0  0  0  0  0  0  0  0  0  0
  1  2  1  0
  1 26  1  0
  1 27  1  0
  1 28  1  0
  2  3  1  0
  3  4  2  0
  3  9  1  0
  4  5  1  0
  4 29  1  0
  5  6  1  0
  5  7  2  0
  6 30  1  0
  6 31  1  0
  6 32  1  0
  7  8  1  0
  7 33  1  0
  8  9  2  0
  9 10  1  0
 10 11  2  0
 10 12  1  0
 12 13  1  0
 12 25  1  0
 13 14  1  0
 13 34  1  0
 13 35  1  0
 14 15  1  0
 14 36  1  0
 14 37  1  0
 15 16  1  0
 15 24  1  0
 15 38  1  6
 16 17  1  0
 16 18  1  0
 16 39  1  1
 17 40  1  0
 18 19  2  0
 18 22  1  0
 19 20  1  0
 20 21  2  0
 20 41  1  0
 21 22  1  0
 21 42  1  0
 22 23  1  0
 23 43  1  0
 23 44  1  0
 23 45  1  0
 24 25  1  0
 24 46  1  0
 24 47  1  0
 25 48  1  0
 25 49  1  0
M  END

