
     RDKit          3D

 40 41  0  0  0  0  0  0  0  0999 V2000
    1.2621   -0.1336   -0.6907 C   0  0  0  0  0  0  0  0  0  0  0  0
    2.1951    0.4273    0.3851 C   0  0  0  0  0  0  0  0  0  0  0  0
    2.5950    1.9022    0.2038 C   0  0  2  0  0  0  0  0  0  0  0  0
    3.4179    2.1565   -1.0708 C   0  0  0  0  0  0  0  0  0  0  0  0
    3.8312    3.6269   -1.2081 C   0  0  0  0  0  0  0  0  0  0  0  0
    4.5872    4.1254    0.0271 C   0  0  0  0  0  0  0  0  0  0  0  0
    3.7750    3.8985    1.3071 C   0  0  2  0  0  0  0  0  0  0  0  0
    4.5316    4.3631    2.5440 C   0  0  0  0  0  0  0  0  0  0  0  0
    5.7122    4.6387    2.5212 O   0  0  0  0  0  0  0  0  0  0  0  0
    3.7775    4.4919    3.8855 C   0  0  1  0  0  0  0  0  0  0  0  0
    2.3859    4.4832    3.6386 O   0  0  0  0  0  0  0  0  0  0  0  0
    1.5694    4.8978    4.7066 C   0  0  0  0  0  0  0  0  0  0  0  0
    4.2166    3.4129    4.8680 C   0  0  1  0  0  0  0  0  0  0  0  0
    5.5864    3.4753    5.4913 C   0  0  0  0  0  0  0  0  0  0  0  0
    4.3712    3.7230    6.3411 C   0  0  0  0  0  0  0  0  0  0  0  0
    3.3523    2.4154    1.4425 C   0  0  0  0  0  0  0  0  0  0  0  0
    0.9684   -1.1698   -0.4582 H   0  0  0  0  0  0  0  0  0  0  0  0
    1.7337   -0.1448   -1.6861 H   0  0  0  0  0  0  0  0  0  0  0  0
    0.3374    0.4629   -0.7690 H   0  0  0  0  0  0  0  0  0  0  0  0
    3.1130   -0.1876    0.4360 H   0  0  0  0  0  0  0  0  0  0  0  0
    1.7084    0.3194    1.3710 H   0  0  0  0  0  0  0  0  0  0  0  0
    1.6618    2.4946    0.1222 H   0  0  0  0  0  0  0  0  0  0  0  0
    2.8514    1.8433   -1.9628 H   0  0  0  0  0  0  0  0  0  0  0  0
    4.3250    1.5229   -1.0394 H   0  0  0  0  0  0  0  0  0  0  0  0
    2.9264    4.2447   -1.3590 H   0  0  0  0  0  0  0  0  0  0  0  0
    4.4507    3.7635   -2.1104 H   0  0  0  0  0  0  0  0  0  0  0  0
    4.8391    5.1935   -0.0740 H   0  0  0  0  0  0  0  0  0  0  0  0
    5.5511    3.5968    0.1202 H   0  0  0  0  0  0  0  0  0  0  0  0
    2.8442    4.4917    1.2731 H   0  0  0  0  0  0  0  0  0  0  0  0
    4.0865    5.4772    4.2935 H   0  0  0  0  0  0  0  0  0  0  0  0
    0.5378    4.9495    4.3284 H   0  0  0  0  0  0  0  0  0  0  0  0
    1.8592    5.9018    5.0765 H   0  0  0  0  0  0  0  0  0  0  0  0
    1.5976    4.1964    5.5599 H   0  0  0  0  0  0  0  0  0  0  0  0
    3.8364    2.4177    4.6129 H   0  0  0  0  0  0  0  0  0  0  0  0
    6.2197    4.3233    5.2199 H   0  0  0  0  0  0  0  0  0  0  0  0
    6.1309    2.5357    5.6174 H   0  0  0  0  0  0  0  0  0  0  0  0
    4.1759    4.7488    6.6699 H   0  0  0  0  0  0  0  0  0  0  0  0
    4.0676    2.9585    7.0620 H   0  0  0  0  0  0  0  0  0  0  0  0
    2.7187    2.2923    2.3341 H   0  0  0  0  0  0  0  0  0  0  0  0
    4.2564    1.7960    1.5932 H   0  0  0  0  0  0  0  0  0  0  0  0
  1  2  1  0
  1 17  1  0
  1 18  1  0
  1 19  1  0
  2  3  1  0
  2 20  1  0
  2 21  1  0
  3  4  1  0
  3 16  1  0
  3 22  1  6
  4  5  1  0
  4 23  1  0
  4 24  1  0
  5  6  1  0
  5 25  1  0
  5 26  1  0
  6  7  1  0
  6 27  1  0
  6 28  1  0
  7  8  1  0
  7 16  1  0
  7 29  1  6
  8  9  2  0
  8 10  1  0
 10 11  1  0
 10 13  1  0
 10 30  1  1
 11 12  1  0
 12 31  1  0
 12 32  1  0
 12 33  1  0
 13 14  1  0
 13 15  1  0
 13 34  1  1
 14 15  1  0
 14 35  1  0
 14 36  1  0
 15 37  1  0
 15 38  1  0
 16 39  1  0
 16 40  1  0
M  END

