
     RDKit          3D

 53 56  0  0  0  0  0  0  0  0999 V2000
    1.2576    0.1096    0.5876 C   0  0  0  0  0  0  0  0  0  0  0  0
    2.7769    0.0586    0.4275 C   0  0  0  0  0  0  0  0  0  0  0  0
    3.3550   -1.3270    0.7450 C   0  0  0  0  0  0  0  0  0  0  0  0
    4.7970   -1.4151    0.6019 N   0  0  0  0  0  0  0  0  0  0  0  0
    5.7176   -1.2141    1.6164 C   0  0  0  0  0  0  0  0  0  0  0  0
    6.9973   -1.2968    1.1225 C   0  0  0  0  0  0  0  0  0  0  0  0
    6.8722   -1.5615   -0.2817 C   0  0  0  0  0  0  0  0  0  0  0  0
    7.8111   -1.7589   -1.3210 C   0  0  0  0  0  0  0  0  0  0  0  0
    9.1205   -1.7052   -0.9539 O   0  0  0  0  0  0  0  0  0  0  0  0
   10.1378   -1.8474   -1.9320 C   0  0  0  0  0  0  0  0  0  0  0  0
   11.4956   -1.7319   -1.2360 C   0  0  0  0  0  0  0  0  0  0  0  0
   11.7356   -2.7678   -0.1842 C   0  0  0  0  0  0  0  0  0  0  0  0
   12.5156   -3.8662   -0.1990 C   0  0  0  0  0  0  0  0  0  0  0  0
   13.4633   -4.4229   -1.2001 C   0  0  0  0  0  0  0  0  0  0  0  0
   12.3829   -4.5949    0.9688 O   0  0  0  0  0  0  0  0  0  0  0  0
   11.6766   -3.7314    1.8870 C   0  0  1  0  0  0  0  0  0  0  0  0
   12.6576   -3.1735    2.9197 C   0  0  0  0  0  0  0  0  0  0  0  0
   12.5069   -1.8758    3.4227 C   0  0  0  0  0  0  0  0  0  0  0  0
   13.3725   -1.3938    4.4098 C   0  0  0  0  0  0  0  0  0  0  0  0
   14.3978   -2.2055    4.9030 C   0  0  0  0  0  0  0  0  0  0  0  0
   14.5552   -3.5021    4.4013 C   0  0  0  0  0  0  0  0  0  0  0  0
   13.6900   -3.9835    3.4158 C   0  0  0  0  0  0  0  0  0  0  0  0
   11.0463   -2.7001    1.0748 N   0  0  0  0  0  0  0  0  0  0  0  0
    7.3473   -1.9959   -2.6152 C   0  0  0  0  0  0  0  0  0  0  0  0
    5.9581   -2.0440   -2.8795 C   0  0  0  0  0  0  0  0  0  0  0  0
    5.0079   -1.8622   -1.8830 C   0  0  0  0  0  0  0  0  0  0  0  0
    5.4844   -1.6224   -0.5800 C   0  0  0  0  0  0  0  0  0  0  0  0
    0.8660    1.1124    0.3574 H   0  0  0  0  0  0  0  0  0  0  0  0
    0.9505   -0.1378    1.6178 H   0  0  0  0  0  0  0  0  0  0  0  0
    0.7558   -0.6047   -0.0867 H   0  0  0  0  0  0  0  0  0  0  0  0
    3.2549    0.8012    1.0892 H   0  0  0  0  0  0  0  0  0  0  0  0
    3.0601    0.3370   -0.6016 H   0  0  0  0  0  0  0  0  0  0  0  0
    2.8936   -2.0876    0.0929 H   0  0  0  0  0  0  0  0  0  0  0  0
    3.1015   -1.6122    1.7793 H   0  0  0  0  0  0  0  0  0  0  0  0
    5.3740   -1.0285    2.6330 H   0  0  0  0  0  0  0  0  0  0  0  0
    7.9195   -1.1807    1.6866 H   0  0  0  0  0  0  0  0  0  0  0  0
   10.0334   -1.0605   -2.7027 H   0  0  0  0  0  0  0  0  0  0  0  0
   10.0474   -2.8298   -2.4321 H   0  0  0  0  0  0  0  0  0  0  0  0
   11.5709   -0.7276   -0.7844 H   0  0  0  0  0  0  0  0  0  0  0  0
   12.2729   -1.7994   -2.0133 H   0  0  0  0  0  0  0  0  0  0  0  0
   13.4813   -3.8168   -2.1162 H   0  0  0  0  0  0  0  0  0  0  0  0
   13.1740   -5.4530   -1.4697 H   0  0  0  0  0  0  0  0  0  0  0  0
   14.4870   -4.4737   -0.7910 H   0  0  0  0  0  0  0  0  0  0  0  0
   10.9190   -4.3438    2.4051 H   0  0  0  0  0  0  0  0  0  0  0  0
   11.7118   -1.2474    3.0165 H   0  0  0  0  0  0  0  0  0  0  0  0
   13.2484   -0.3765    4.7913 H   0  0  0  0  0  0  0  0  0  0  0  0
   15.0754   -1.8287    5.6739 H   0  0  0  0  0  0  0  0  0  0  0  0
   15.3589   -4.1407    4.7781 H   0  0  0  0  0  0  0  0  0  0  0  0
   13.8184   -4.9906    3.0132 H   0  0  0  0  0  0  0  0  0  0  0  0
   10.0411   -2.8235    0.9520 H   0  0  0  0  0  0  0  0  0  0  0  0
    8.0455   -2.1498   -3.4377 H   0  0  0  0  0  0  0  0  0  0  0  0
    5.6294   -2.2317   -3.9049 H   0  0  0  0  0  0  0  0  0  0  0  0
    3.9412   -1.9026   -2.1102 H   0  0  0  0  0  0  0  0  0  0  0  0
  1  2  1  0
  1 28  1  0
  1 29  1  0
  1 30  1  0
  2  3  1  0
  2 31  1  0
  2 32  1  0
  3  4  1  0
  3 33  1  0
  3 34  1  0
  4  5  1  0
  4 27  1  0
  5  6  2  0
  5 35  1  0
  6  7  1  0
  6 36  1  0
  7  8  1  0
  7 27  2  0
  8  9  1  0
  8 24  2  0
  9 10  1  0
 10 11  1  0
 10 37  1  0
 10 38  1  0
 11 12  1  0
 11 39  1  0
 11 40  1  0
 12 13  2  0
 12 23  1  0
 13 14  1  0
 13 15  1  0
 14 41  1  0
 14 42  1  0
 14 43  1  0
 15 16  1  0
 16 17  1  0
 16 23  1  0
 16 44  1  1
 17 18  2  0
 17 22  1  0
 18 19  1  0
 18 45  1  0
 19 20  2  0
 19 46  1  0
 20 21  1  0
 20 47  1  0
 21 22  2  0
 21 48  1  0
 22 49  1  0
 23 50  1  0
 24 25  1  0
 24 51  1  0
 25 26  2  0
 25 52  1  0
 26 27  1  0
 26 53  1  0
M  END

