
     RDKit          3D

 35 35  0  0  0  0  0  0  0  0999 V2000
    3.3740   -3.7731   -2.0990 C   0  0  0  0  0  0  0  0  0  0  0  0
    2.7884   -3.0224   -0.9014 C   0  0  0  0  0  0  0  0  0  0  0  0
    3.0141   -1.4916   -0.9347 C   0  0  1  0  0  0  0  0  0  0  0  0
    2.3981   -0.7845   -2.1583 C   0  0  0  0  0  0  0  0  0  0  0  0
    0.9664   -0.9520   -2.2777 N   0  0  0  0  0  0  0  0  0  0  0  0
    0.3967   -1.6659   -3.2874 C   0  0  0  0  0  0  0  0  0  0  0  0
    1.0641   -2.2464   -4.1410 O   0  0  0  0  0  0  0  0  0  0  0  0
   -1.1151   -1.7307   -3.3341 C   0  0  0  0  0  0  0  0  0  0  0  0
   -1.6596   -2.4813   -4.3908 C   0  0  0  0  0  0  0  0  0  0  0  0
   -3.0329   -2.6479   -4.5840 C   0  0  0  0  0  0  0  0  0  0  0  0
   -3.5778   -3.4527   -5.7397 C   0  0  0  0  0  0  0  0  0  0  0  0
   -3.8949   -2.0278   -3.6643 C   0  0  0  0  0  0  0  0  0  0  0  0
   -3.3923   -1.2755   -2.6062 C   0  0  0  0  0  0  0  0  0  0  0  0
   -2.0102   -1.1185   -2.4307 C   0  0  0  0  0  0  0  0  0  0  0  0
   -1.5233   -0.3797   -1.3929 O   0  0  0  0  0  0  0  0  0  0  0  0
    2.5198   -0.8340    0.3572 C   0  0  0  0  0  0  0  0  0  0  0  0
    1.6397   -0.0140    0.4098 O   0  0  0  0  0  0  0  0  0  0  0  0
    3.1349   -1.2291    1.4947 O   0  0  0  0  0  0  0  0  0  0  0  0
    3.2578   -4.8600   -1.9633 H   0  0  0  0  0  0  0  0  0  0  0  0
    4.4518   -3.5664   -2.2148 H   0  0  0  0  0  0  0  0  0  0  0  0
    2.8636   -3.4965   -3.0334 H   0  0  0  0  0  0  0  0  0  0  0  0
    3.2222   -3.4304    0.0297 H   0  0  0  0  0  0  0  0  0  0  0  0
    1.7043   -3.2139   -0.8318 H   0  0  0  0  0  0  0  0  0  0  0  0
    4.1067   -1.3118   -0.9797 H   0  0  0  0  0  0  0  0  0  0  0  0
    2.8523   -1.1717   -3.0789 H   0  0  0  0  0  0  0  0  0  0  0  0
    2.6338    0.2902   -2.0896 H   0  0  0  0  0  0  0  0  0  0  0  0
    0.3764   -0.4916   -1.5908 H   0  0  0  0  0  0  0  0  0  0  0  0
   -0.9403   -2.9415   -5.0713 H   0  0  0  0  0  0  0  0  0  0  0  0
   -2.7725   -3.9672   -6.2838 H   0  0  0  0  0  0  0  0  0  0  0  0
   -4.1102   -2.8106   -6.4624 H   0  0  0  0  0  0  0  0  0  0  0  0
   -4.2962   -4.2162   -5.3981 H   0  0  0  0  0  0  0  0  0  0  0  0
   -4.9783   -2.1330   -3.7746 H   0  0  0  0  0  0  0  0  0  0  0  0
   -4.0767   -0.7973   -1.8977 H   0  0  0  0  0  0  0  0  0  0  0  0
   -2.2460   -0.0460   -0.8458 H   0  0  0  0  0  0  0  0  0  0  0  0
    3.8221   -1.8818    1.2981 H   0  0  0  0  0  0  0  0  0  0  0  0
  1  2  1  0
  1 19  1  0
  1 20  1  0
  1 21  1  0
  2  3  1  0
  2 22  1  0
  2 23  1  0
  3  4  1  0
  3 16  1  0
  3 24  1  6
  4  5  1  0
  4 25  1  0
  4 26  1  0
  5  6  1  0
  5 27  1  0
  6  7  2  0
  6  8  1  0
  8  9  2  0
  8 14  1  0
  9 10  1  0
  9 28  1  0
 10 11  1  0
 10 12  2  0
 11 29  1  0
 11 30  1  0
 11 31  1  0
 12 13  1  0
 12 32  1  0
 13 14  2  0
 13 33  1  0
 14 15  1  0
 15 34  1  0
 16 17  2  0
 16 18  1  0
 18 35  1  0
M  END

