
     RDKit          3D

 29 30  0  0  0  0  0  0  0  0999 V2000
    2.5407    0.6688   -0.3606 O   0  0  0  0  0  0  0  0  0  0  0  0
    2.2445   -0.4852   -0.1910 C   0  0  0  0  0  0  0  0  0  0  0  0
    1.1704   -1.0561   -0.7562 O   0  0  0  0  0  0  0  0  0  0  0  0
    3.0325   -1.4255    0.6671 C   0  0  0  0  0  0  0  0  0  0  0  0
    4.1832   -1.1107    1.3406 C   0  0  0  0  0  0  0  0  0  0  0  0
    4.7532   -2.4997    2.1909 S   0  0  0  0  0  0  0  0  0  0  0  0
    3.3854   -3.4189    1.5757 C   0  0  0  0  0  0  0  0  0  0  0  0
    3.1591   -4.8680    1.9453 C   0  0  0  0  0  0  0  0  0  0  0  0
    2.0779   -5.4576    1.1971 N   0  0  0  0  0  0  0  0  0  0  0  0
    2.3225   -6.3523    0.1954 C   0  0  0  0  0  0  0  0  0  0  0  0
    3.4371   -6.8158   -0.0003 O   0  0  0  0  0  0  0  0  0  0  0  0
    1.1477   -6.8309   -0.6443 C   0  0  0  0  0  0  0  0  0  0  0  0
    1.4162   -8.0171   -1.3505 C   0  0  0  0  0  0  0  0  0  0  0  0
    0.4744   -8.6210   -2.1842 C   0  0  0  0  0  0  0  0  0  0  0  0
    0.7220   -9.7664   -2.8620 O   0  0  0  0  0  0  0  0  0  0  0  0
   -0.7858   -8.0245   -2.3382 C   0  0  0  0  0  0  0  0  0  0  0  0
   -1.0714   -6.8444   -1.6623 C   0  0  0  0  0  0  0  0  0  0  0  0
   -0.1227   -6.2480   -0.8218 C   0  0  0  0  0  0  0  0  0  0  0  0
   -0.6355   -4.7375   -0.0596 Cl  0  0  0  0  0  0  0  0  0  0  0  0
    2.5982   -2.7225    0.8128 N   0  0  0  0  0  0  0  0  0  0  0  0
    1.1429   -1.9919   -0.4767 H   0  0  0  0  0  0  0  0  0  0  0  0
    4.6977   -0.1519    1.3607 H   0  0  0  0  0  0  0  0  0  0  0  0
    2.9590   -4.9359    3.0302 H   0  0  0  0  0  0  0  0  0  0  0  0
    4.0633   -5.4600    1.7397 H   0  0  0  0  0  0  0  0  0  0  0  0
    1.1698   -5.0087    1.2425 H   0  0  0  0  0  0  0  0  0  0  0  0
    2.4135   -8.4459   -1.2245 H   0  0  0  0  0  0  0  0  0  0  0  0
    1.6231  -10.0653   -2.6789 H   0  0  0  0  0  0  0  0  0  0  0  0
   -1.5239   -8.4921   -2.9924 H   0  0  0  0  0  0  0  0  0  0  0  0
   -2.0438   -6.3649   -1.7843 H   0  0  0  0  0  0  0  0  0  0  0  0
  1  2  2  0
  2  3  1  0
  2  4  1  0
  3 21  1  0
  4  5  2  0
  4 20  1  0
  5  6  1  0
  5 22  1  0
  6  7  1  0
  7  8  1  0
  7 20  2  0
  8  9  1  0
  8 23  1  0
  8 24  1  0
  9 10  1  0
  9 25  1  0
 10 11  2  0
 10 12  1  0
 12 13  2  0
 12 18  1  0
 13 14  1  0
 13 26  1  0
 14 15  1  0
 14 16  2  0
 15 27  1  0
 16 17  1  0
 16 28  1  0
 17 18  2  0
 17 29  1  0
 18 19  1  0
M  END

