
     RDKit          3D

 40 40  0  0  0  0  0  0  0  0999 V2000
    3.7029   -2.8595   -2.5874 C   0  0  0  0  0  0  0  0  0  0  0  0
    3.4536   -1.8935   -1.4451 C   0  0  0  0  0  0  0  0  0  0  0  0
    4.2211   -2.2810   -0.3221 O   0  0  0  0  0  0  0  0  0  0  0  0
    4.1067   -1.3963    0.7665 C   0  0  0  0  0  0  0  0  0  0  0  0
    4.8809   -1.9085    1.9757 C   0  0  0  0  0  0  0  0  0  0  0  0
    6.2841   -2.1814    1.7072 N   0  0  0  0  0  0  0  0  0  0  0  0
    7.0587   -1.1275    1.0416 C   0  0  0  0  0  0  0  0  0  0  0  0
    7.1926    0.1723    1.8426 C   0  0  0  0  0  0  0  0  0  0  0  0
    6.9739   -3.0251    2.6024 C   0  0  0  0  0  0  0  0  0  0  0  0
    6.6527   -3.0225    3.9709 C   0  0  0  0  0  0  0  0  0  0  0  0
    7.3631   -3.8018    4.8835 C   0  0  0  0  0  0  0  0  0  0  0  0
    8.4297   -4.5884    4.4552 C   0  0  0  0  0  0  0  0  0  0  0  0
    8.7391   -4.6230    3.0944 C   0  0  0  0  0  0  0  0  0  0  0  0
   10.0617   -5.6770    2.6224 Cl  0  0  0  0  0  0  0  0  0  0  0  0
    8.0066   -3.8975    2.1219 C   0  0  0  0  0  0  0  0  0  0  0  0
    8.2723   -4.1537    0.7013 C   0  0  0  0  0  0  0  0  0  0  0  0
    7.4434   -3.9880   -0.3504 C   0  0  0  0  0  0  0  0  0  0  0  0
    7.8738   -4.4337   -1.7029 C   0  0  0  0  0  0  0  0  0  0  0  0
    9.0005   -4.7180   -2.0200 O   0  0  0  0  0  0  0  0  0  0  0  0
    6.8672   -4.5115   -2.6148 O   0  0  0  0  0  0  0  0  0  0  0  0
    3.0847   -2.5949   -3.4589 H   0  0  0  0  0  0  0  0  0  0  0  0
    3.4464   -3.8885   -2.2883 H   0  0  0  0  0  0  0  0  0  0  0  0
    4.7571   -2.8306   -2.9047 H   0  0  0  0  0  0  0  0  0  0  0  0
    2.3762   -1.8785   -1.1788 H   0  0  0  0  0  0  0  0  0  0  0  0
    3.7197   -0.8600   -1.7500 H   0  0  0  0  0  0  0  0  0  0  0  0
    3.0455   -1.2862    1.0723 H   0  0  0  0  0  0  0  0  0  0  0  0
    4.4514   -0.3834    0.4743 H   0  0  0  0  0  0  0  0  0  0  0  0
    4.4178   -2.8482    2.3143 H   0  0  0  0  0  0  0  0  0  0  0  0
    4.7176   -1.1631    2.7849 H   0  0  0  0  0  0  0  0  0  0  0  0
    6.6109   -0.9263    0.0543 H   0  0  0  0  0  0  0  0  0  0  0  0
    8.0589   -1.5278    0.8326 H   0  0  0  0  0  0  0  0  0  0  0  0
    6.2210    0.6614    2.0188 H   0  0  0  0  0  0  0  0  0  0  0  0
    7.8257    0.8892    1.2954 H   0  0  0  0  0  0  0  0  0  0  0  0
    7.6616   -0.0113    2.8227 H   0  0  0  0  0  0  0  0  0  0  0  0
    5.8579   -2.3703    4.3334 H   0  0  0  0  0  0  0  0  0  0  0  0
    7.1027   -3.7717    5.9445 H   0  0  0  0  0  0  0  0  0  0  0  0
    9.0158   -5.1835    5.1560 H   0  0  0  0  0  0  0  0  0  0  0  0
    9.2376   -4.6140    0.4741 H   0  0  0  0  0  0  0  0  0  0  0  0
    6.4455   -3.5580   -0.2300 H   0  0  0  0  0  0  0  0  0  0  0  0
    6.0204   -4.3255   -2.1841 H   0  0  0  0  0  0  0  0  0  0  0  0
  1  2  1  0
  1 21  1  0
  1 22  1  0
  1 23  1  0
  2  3  1  0
  2 24  1  0
  2 25  1  0
  3  4  1  0
  4  5  1  0
  4 26  1  0
  4 27  1  0
  5  6  1  0
  5 28  1  0
  5 29  1  0
  6  7  1  0
  6  9  1  0
  7  8  1  0
  7 30  1  0
  7 31  1  0
  8 32  1  0
  8 33  1  0
  8 34  1  0
  9 10  2  0
  9 15  1  0
 10 11  1  0
 10 35  1  0
 11 12  2  0
 11 36  1  0
 12 13  1  0
 12 37  1  0
 13 14  1  0
 13 15  2  0
 15 16  1  0
 16 17  2  0
 16 38  1  0
 17 18  1  0
 17 39  1  0
 18 19  2  0
 18 20  1  0
 20 40  1  0
M  END

