
     RDKit          3D

 55 57  0  0  0  0  0  0  0  0999 V2000
    5.6163   -4.9553   -2.4275 N   0  0  0  0  0  0  0  0  0  0  0  0
    6.0105   -3.6353   -2.2350 C   0  0  0  0  0  0  0  0  0  0  0  0
    5.9772   -2.8018   -3.2072 N   0  0  0  0  0  0  0  0  0  0  0  0
    6.4821   -1.4407   -3.0436 C   0  0  0  0  0  0  0  0  0  0  0  0
    6.4510   -1.0554   -1.5687 C   0  0  2  0  0  0  0  0  0  0  0  0
    7.0895    0.1685   -0.9158 C   0  0  0  0  0  0  0  0  0  0  0  0
    7.1169    1.5522   -1.4930 C   0  0  0  0  0  0  0  0  0  0  0  0
    5.7123    2.1324   -1.7271 C   0  0  0  0  0  0  0  0  0  0  0  0
    5.6406    3.5231   -2.3304 C   0  0  0  0  0  0  0  0  0  0  0  0
    6.7736    4.2987   -2.6204 C   0  0  0  0  0  0  0  0  0  0  0  0
    6.6507    5.5765   -3.1695 C   0  0  0  0  0  0  0  0  0  0  0  0
    5.3909    6.1264   -3.4376 C   0  0  0  0  0  0  0  0  0  0  0  0
    5.3488    7.5089   -4.0272 C   0  0  0  0  0  0  0  0  0  0  0  0
    6.3544    8.0543   -4.4719 O   0  0  0  0  0  0  0  0  0  0  0  0
    4.1360    8.1332   -4.0455 N   0  0  0  0  0  0  0  0  0  0  0  0
    3.9887    9.4868   -4.5314 C   0  0  1  0  0  0  0  0  0  0  0  0
    4.8309   10.0921   -4.1567 H   0  0  0  0  0  0  0  0  0  0  0  0
    4.0284    9.5036   -6.0842 C   0  0  0  0  0  0  0  0  0  0  0  0
    3.8628   10.8702   -6.7832 C   0  0  0  0  0  0  0  0  0  0  0  0
    4.8186   11.9269   -6.2572 C   0  0  0  0  0  0  0  0  0  0  0  0
    4.6655   12.4603   -5.1768 O   0  0  0  0  0  0  0  0  0  0  0  0
    5.8737   12.2563   -7.0055 O   0  0  0  0  0  0  0  0  0  0  0  0
    2.6700   10.0406   -3.9606 C   0  0  0  0  0  0  0  0  0  0  0  0
    1.8195    9.3073   -3.5147 O   0  0  0  0  0  0  0  0  0  0  0  0
    2.5102   11.3577   -4.0126 O   0  0  0  0  0  0  0  0  0  0  0  0
    4.2509    5.3530   -3.1585 C   0  0  0  0  0  0  0  0  0  0  0  0
    4.3788    4.0765   -2.6163 C   0  0  0  0  0  0  0  0  0  0  0  0
    7.4869   -0.2137    0.3167 C   0  0  0  0  0  0  0  0  0  0  0  0
    7.3932   -1.6207    0.5583 N   0  0  0  0  0  0  0  0  0  0  0  0
    7.1754   -2.1505   -0.7941 C   0  0  1  0  0  0  0  0  0  0  0  0
    6.4472   -3.3894   -0.9120 N   0  0  0  0  0  0  0  0  0  0  0  0
    5.1665   -5.0850   -3.3287 H   0  0  0  0  0  0  0  0  0  0  0  0
    5.0835   -5.3568   -1.6603 H   0  0  0  0  0  0  0  0  0  0  0  0
    5.8589   -0.7658   -3.6551 H   0  0  0  0  0  0  0  0  0  0  0  0
    7.5076   -1.3630   -3.4554 H   0  0  0  0  0  0  0  0  0  0  0  0
    5.3815   -1.0738   -1.2677 H   0  0  0  0  0  0  0  0  0  0  0  0
    7.6647    1.5443   -2.4536 H   0  0  0  0  0  0  0  0  0  0  0  0
    7.6863    2.2123   -0.8178 H   0  0  0  0  0  0  0  0  0  0  0  0
    5.1690    2.1403   -0.7649 H   0  0  0  0  0  0  0  0  0  0  0  0
    5.1385    1.4469   -2.3757 H   0  0  0  0  0  0  0  0  0  0  0  0
    7.7727    3.9085   -2.4201 H   0  0  0  0  0  0  0  0  0  0  0  0
    7.5329    6.1758   -3.4023 H   0  0  0  0  0  0  0  0  0  0  0  0
    3.3130    7.7518   -3.5880 H   0  0  0  0  0  0  0  0  0  0  0  0
    3.2384    8.8312   -6.4542 H   0  0  0  0  0  0  0  0  0  0  0  0
    4.9962    9.0593   -6.3613 H   0  0  0  0  0  0  0  0  0  0  0  0
    2.8457   11.2599   -6.6227 H   0  0  0  0  0  0  0  0  0  0  0  0
    3.9866   10.7319   -7.8696 H   0  0  0  0  0  0  0  0  0  0  0  0
    5.8880   11.7462   -7.8280 H   0  0  0  0  0  0  0  0  0  0  0  0
    3.3214   11.8274   -4.3402 H   0  0  0  0  0  0  0  0  0  0  0  0
    3.2488    5.7275   -3.3820 H   0  0  0  0  0  0  0  0  0  0  0  0
    3.4783    3.4896   -2.4125 H   0  0  0  0  0  0  0  0  0  0  0  0
    7.8883    0.4333    1.1015 H   0  0  0  0  0  0  0  0  0  0  0  0
    6.6238   -1.8600    1.1902 H   0  0  0  0  0  0  0  0  0  0  0  0
    8.1908   -2.2440   -1.2386 H   0  0  0  0  0  0  0  0  0  0  0  0
    6.9254   -4.1953   -0.5126 H   0  0  0  0  0  0  0  0  0  0  0  0
  1  2  1  0
  1 32  1  0
  1 33  1  0
  2  3  2  0
  2 31  1  0
  3  4  1  0
  4  5  1  0
  4 34  1  0
  4 35  1  0
  5  6  1  0
  5 30  1  0
  5 36  1  1
  6  7  1  0
  6 28  2  0
  7  8  1  0
  7 37  1  0
  7 38  1  0
  8  9  1  0
  8 39  1  0
  8 40  1  0
  9 10  2  0
  9 27  1  0
 10 11  1  0
 10 41  1  0
 11 12  2  0
 11 42  1  0
 12 13  1  0
 12 26  1  0
 13 14  2  0
 13 15  1  0
 15 16  1  0
 15 43  1  0
 16 17  1  1
 16 18  1  0
 16 23  1  0
 18 19  1  0
 18 44  1  0
 18 45  1  0
 19 20  1  0
 19 46  1  0
 19 47  1  0
 20 21  2  0
 20 22  1  0
 22 48  1  0
 23 24  2  0
 23 25  1  0
 25 49  1  0
 26 27  2  0
 26 50  1  0
 27 51  1  0
 28 29  1  0
 28 52  1  0
 29 30  1  0
 29 53  1  0
 30 31  1  0
 30 54  1  6
 31 55  1  0
M  END

