
     RDKit          3D

 31 32  0  0  0  0  0  0  0  0999 V2000
    1.4174   -1.2325   -0.4117 C   0  0  0  0  0  0  0  0  0  0  0  0
    2.4369   -0.1692   -0.0001 C   0  0  1  0  0  0  0  0  0  0  0  0
    3.5742   -0.7187    0.6132 O   0  0  0  0  0  0  0  0  0  0  0  0
    2.7767    0.7344   -1.0986 N   0  0  0  0  0  0  0  0  0  0  0  0
    2.5522    2.1026   -1.0800 C   0  0  0  0  0  0  0  0  0  0  0  0
    3.0185    2.7009   -2.2258 C   0  0  0  0  0  0  0  0  0  0  0  0
    2.9692    4.1633   -2.5637 C   0  0  0  0  0  0  0  0  0  0  0  0
    4.3036    4.9010   -2.3689 C   0  0  0  0  0  0  0  0  0  0  0  0
    4.1552    6.3198   -2.6790 N   0  0  0  0  0  0  0  0  0  0  0  0
    3.5938    1.6370   -3.0152 C   0  0  0  0  0  0  0  0  0  0  0  0
    4.2276    1.6007   -4.2721 C   0  0  0  0  0  0  0  0  0  0  0  0
    4.6923    0.3865   -4.7673 C   0  0  0  0  0  0  0  0  0  0  0  0
    4.5373   -0.8021   -4.0240 C   0  0  0  0  0  0  0  0  0  0  0  0
    3.9086   -0.8000   -2.7808 C   0  0  0  0  0  0  0  0  0  0  0  0
    3.4292    0.4233   -2.2812 C   0  0  0  0  0  0  0  0  0  0  0  0
    1.1592   -1.8471    0.4635 H   0  0  0  0  0  0  0  0  0  0  0  0
    1.8096   -1.8963   -1.1967 H   0  0  0  0  0  0  0  0  0  0  0  0
    0.5007   -0.7621   -0.7981 H   0  0  0  0  0  0  0  0  0  0  0  0
    1.9818    0.4731    0.7689 H   0  0  0  0  0  0  0  0  0  0  0  0
    3.9799   -1.3572    0.0113 H   0  0  0  0  0  0  0  0  0  0  0  0
    2.0516    2.5573   -0.2256 H   0  0  0  0  0  0  0  0  0  0  0  0
    2.2088    4.6735   -1.9508 H   0  0  0  0  0  0  0  0  0  0  0  0
    2.6482    4.2897   -3.6150 H   0  0  0  0  0  0  0  0  0  0  0  0
    5.0913    4.3819   -2.9569 H   0  0  0  0  0  0  0  0  0  0  0  0
    4.6044    4.8071   -1.3116 H   0  0  0  0  0  0  0  0  0  0  0  0
    3.9906    6.4466   -3.6790 H   0  0  0  0  0  0  0  0  0  0  0  0
    5.0179    6.8226   -2.4712 H   0  0  0  0  0  0  0  0  0  0  0  0
    4.3563    2.5186   -4.8517 H   0  0  0  0  0  0  0  0  0  0  0  0
    5.1866    0.3496   -5.7413 H   0  0  0  0  0  0  0  0  0  0  0  0
    4.9153   -1.7441   -4.4290 H   0  0  0  0  0  0  0  0  0  0  0  0
    3.7983   -1.7363   -2.2300 H   0  0  0  0  0  0  0  0  0  0  0  0
  1  2  1  0
  1 16  1  0
  1 17  1  0
  1 18  1  0
  2  3  1  0
  2  4  1  0
  2 19  1  1
  3 20  1  0
  4  5  1  0
  4 15  1  0
  5  6  2  0
  5 21  1  0
  6  7  1  0
  6 10  1  0
  7  8  1  0
  7 22  1  0
  7 23  1  0
  8  9  1  0
  8 24  1  0
  8 25  1  0
  9 26  1  0
  9 27  1  0
 10 11  1  0
 10 15  2  0
 11 12  2  0
 11 28  1  0
 12 13  1  0
 12 29  1  0
 13 14  2  0
 13 30  1  0
 14 15  1  0
 14 31  1  0
M  END

