
     RDKit          3D

 49 52  0  0  0  0  0  0  0  0999 V2000
    2.4897    3.0699   -0.5567 O   0  0  0  0  0  0  0  0  0  0  0  0
    2.2093    2.2253    0.2604 C   0  0  0  0  0  0  0  0  0  0  0  0
    3.0516    1.8218    1.2274 O   0  0  0  0  0  0  0  0  0  0  0  0
    4.3404    2.4740    1.2683 C   0  0  0  0  0  0  0  0  0  0  0  0
    5.1461    1.8675    2.3836 C   0  0  0  0  0  0  0  0  0  0  0  0
    5.1869    2.4671    3.6494 C   0  0  0  0  0  0  0  0  0  0  0  0
    5.9118    1.8824    4.6917 C   0  0  0  0  0  0  0  0  0  0  0  0
    6.5906    0.6902    4.4688 C   0  0  0  0  0  0  0  0  0  0  0  0
    7.2784    0.1166    5.4617 F   0  0  0  0  0  0  0  0  0  0  0  0
    6.5725    0.0716    3.2076 C   0  0  0  0  0  0  0  0  0  0  0  0
    7.1755   -1.1365    2.9930 O   0  0  0  0  0  0  0  0  0  0  0  0
    8.5346   -1.3037    3.1526 C   0  0  0  0  0  0  0  0  0  0  0  0
    9.4443   -0.2412    3.1555 C   0  0  0  0  0  0  0  0  0  0  0  0
   10.8106   -0.5128    3.2799 C   0  0  0  0  0  0  0  0  0  0  0  0
   11.2710   -1.8269    3.3940 C   0  0  0  0  0  0  0  0  0  0  0  0
   10.3497   -2.8804    3.3827 C   0  0  0  0  0  0  0  0  0  0  0  0
    8.9835   -2.6248    3.2636 C   0  0  0  0  0  0  0  0  0  0  0  0
    5.8481    0.6705    2.1763 C   0  0  0  0  0  0  0  0  0  0  0  0
    0.8673    1.5022    0.3442 C   0  0  1  0  0  0  0  0  0  0  0  0
   -0.1684    2.3945    1.0238 C   0  0  0  0  0  0  0  0  0  0  0  0
   -0.4258    3.6956    0.5611 C   0  0  0  0  0  0  0  0  0  0  0  0
   -1.4004    4.4936    1.1622 C   0  0  0  0  0  0  0  0  0  0  0  0
   -2.1325    3.9899    2.2416 C   0  0  0  0  0  0  0  0  0  0  0  0
   -3.3565    4.9850    2.9991 Cl  0  0  0  0  0  0  0  0  0  0  0  0
   -1.8931    2.7009    2.7226 C   0  0  0  0  0  0  0  0  0  0  0  0
   -0.9129    1.9152    2.1110 C   0  0  0  0  0  0  0  0  0  0  0  0
    0.4302    1.0547   -1.0472 C   0  0  1  0  0  0  0  0  0  0  0  0
    0.9243   -0.2531   -1.6126 C   0  0  0  0  0  0  0  0  0  0  0  0
   -0.5203   -0.1008   -1.2018 C   0  0  0  0  0  0  0  0  0  0  0  0
    4.1865    3.5534    1.4183 H   0  0  0  0  0  0  0  0  0  0  0  0
    4.8299    2.3449    0.2909 H   0  0  0  0  0  0  0  0  0  0  0  0
    4.6461    3.3997    3.8275 H   0  0  0  0  0  0  0  0  0  0  0  0
    5.9534    2.3313    5.6861 H   0  0  0  0  0  0  0  0  0  0  0  0
    9.0933    0.7874    3.0560 H   0  0  0  0  0  0  0  0  0  0  0  0
   11.5206    0.3184    3.2830 H   0  0  0  0  0  0  0  0  0  0  0  0
   12.3400   -2.0298    3.4905 H   0  0  0  0  0  0  0  0  0  0  0  0
   10.6965   -3.9132    3.4708 H   0  0  0  0  0  0  0  0  0  0  0  0
    8.2480   -3.4315    3.2553 H   0  0  0  0  0  0  0  0  0  0  0  0
    5.8388    0.1724    1.2042 H   0  0  0  0  0  0  0  0  0  0  0  0
    1.0154    0.6146    0.9759 H   0  0  0  0  0  0  0  0  0  0  0  0
    0.1547    4.0951   -0.2735 H   0  0  0  0  0  0  0  0  0  0  0  0
   -1.5945    5.5045    0.7997 H   0  0  0  0  0  0  0  0  0  0  0  0
   -2.4680    2.3198    3.5682 H   0  0  0  0  0  0  0  0  0  0  0  0
   -0.7255    0.9081    2.4934 H   0  0  0  0  0  0  0  0  0  0  0  0
    0.3258    1.8810   -1.7570 H   0  0  0  0  0  0  0  0  0  0  0  0
    1.5711   -0.8736   -0.9842 H   0  0  0  0  0  0  0  0  0  0  0  0
    1.1647   -0.2969   -2.6784 H   0  0  0  0  0  0  0  0  0  0  0  0
   -0.8517   -0.6171   -0.2955 H   0  0  0  0  0  0  0  0  0  0  0  0
   -1.2839   -0.0415   -1.9821 H   0  0  0  0  0  0  0  0  0  0  0  0
  1  2  2  0
  2  3  1  0
  2 19  1  0
  3  4  1  0
  4  5  1  0
  4 30  1  0
  4 31  1  0
  5  6  2  0
  5 18  1  0
  6  7  1  0
  6 32  1  0
  7  8  2  0
  7 33  1  0
  8  9  1  0
  8 10  1  0
 10 11  1  0
 10 18  2  0
 11 12  1  0
 12 13  2  0
 12 17  1  0
 13 14  1  0
 13 34  1  0
 14 15  2  0
 14 35  1  0
 15 16  1  0
 15 36  1  0
 16 17  2  0
 16 37  1  0
 17 38  1  0
 18 39  1  0
 19 20  1  0
 19 27  1  0
 19 40  1  1
 20 21  2  0
 20 26  1  0
 21 22  1  0
 21 41  1  0
 22 23  2  0
 22 42  1  0
 23 24  1  0
 23 25  1  0
 25 26  2  0
 25 43  1  0
 26 44  1  0
 27 28  1  0
 27 29  1  0
 27 45  1  6
 28 29  1  0
 28 46  1  0
 28 47  1  0
 29 48  1  0
 29 49  1  0
M  END

