
     RDKit          3D

 37 37  0  0  0  0  0  0  0  0999 V2000
    2.9842   -1.1039   -2.3176 C   0  0  0  0  0  0  0  0  0  0  0  0
    3.3754   -0.4127   -1.0331 C   0  0  0  0  0  0  0  0  0  0  0  0
    3.8952    0.8896   -1.0779 C   0  0  0  0  0  0  0  0  0  0  0  0
    4.2688    1.5734    0.0819 C   0  0  0  0  0  0  0  0  0  0  0  0
    4.1286    0.9513    1.3218 C   0  0  0  0  0  0  0  0  0  0  0  0
    3.6164   -0.3478    1.3856 C   0  0  0  0  0  0  0  0  0  0  0  0
    3.2333   -1.0436    0.2294 C   0  0  0  0  0  0  0  0  0  0  0  0
    2.6473   -2.4502    0.3197 C   0  0  1  0  0  0  0  0  0  0  0  0
    3.0107   -3.2382    1.5842 C   0  0  0  0  0  0  0  0  0  0  0  0
    1.1884   -2.3804    0.1499 N   0  0  0  0  0  0  0  0  0  0  0  0
    0.4754   -3.3695   -0.4543 C   0  0  0  0  0  0  0  0  0  0  0  0
    0.9787   -4.4031   -0.8621 O   0  0  0  0  0  0  0  0  0  0  0  0
   -1.0309   -3.0922   -0.5835 C   0  0  1  0  0  0  0  0  0  0  0  0
   -1.2506   -2.0936   -2.3058 Br  0  0  0  0  0  0  0  0  0  0  0  0
   -1.8828   -4.3641   -0.5327 C   0  0  1  0  0  0  0  0  0  0  0  0
   -1.6788   -5.0565    0.8279 C   0  0  0  0  0  0  0  0  0  0  0  0
   -3.3718   -4.1016   -0.7810 C   0  0  0  0  0  0  0  0  0  0  0  0
    3.2239   -0.4773   -3.1886 H   0  0  0  0  0  0  0  0  0  0  0  0
    1.9060   -1.3276   -2.3501 H   0  0  0  0  0  0  0  0  0  0  0  0
    3.5087   -2.0655   -2.4432 H   0  0  0  0  0  0  0  0  0  0  0  0
    4.0114    1.3767   -2.0502 H   0  0  0  0  0  0  0  0  0  0  0  0
    4.6711    2.5874    0.0127 H   0  0  0  0  0  0  0  0  0  0  0  0
    4.4191    1.4693    2.2393 H   0  0  0  0  0  0  0  0  0  0  0  0
    3.5196   -0.8269    2.3614 H   0  0  0  0  0  0  0  0  0  0  0  0
    3.0080   -3.0396   -0.5367 H   0  0  0  0  0  0  0  0  0  0  0  0
    2.5721   -2.7912    2.4899 H   0  0  0  0  0  0  0  0  0  0  0  0
    4.1027   -3.2909    1.7147 H   0  0  0  0  0  0  0  0  0  0  0  0
    2.6248   -4.2637    1.4914 H   0  0  0  0  0  0  0  0  0  0  0  0
    0.7177   -1.5326    0.4447 H   0  0  0  0  0  0  0  0  0  0  0  0
   -1.3666   -2.3676    0.1728 H   0  0  0  0  0  0  0  0  0  0  0  0
   -1.4906   -5.0335   -1.3157 H   0  0  0  0  0  0  0  0  0  0  0  0
   -2.0044   -4.4090    1.6606 H   0  0  0  0  0  0  0  0  0  0  0  0
   -0.6291   -5.3386    0.9897 H   0  0  0  0  0  0  0  0  0  0  0  0
   -2.2818   -5.9768    0.8728 H   0  0  0  0  0  0  0  0  0  0  0  0
   -3.7898   -3.4204   -0.0196 H   0  0  0  0  0  0  0  0  0  0  0  0
   -3.9360   -5.0457   -0.7263 H   0  0  0  0  0  0  0  0  0  0  0  0
   -3.5520   -3.6555   -1.7690 H   0  0  0  0  0  0  0  0  0  0  0  0
  1  2  1  0
  1 18  1  0
  1 19  1  0
  1 20  1  0
  2  3  2  0
  2  7  1  0
  3  4  1  0
  3 21  1  0
  4  5  2  0
  4 22  1  0
  5  6  1  0
  5 23  1  0
  6  7  2  0
  6 24  1  0
  7  8  1  0
  8  9  1  0
  8 10  1  0
  8 25  1  6
  9 26  1  0
  9 27  1  0
  9 28  1  0
 10 11  1  0
 10 29  1  0
 11 12  2  0
 11 13  1  0
 13 14  1  0
 13 15  1  0
 13 30  1  1
 15 16  1  0
 15 17  1  0
 15 31  1  6
 16 32  1  0
 16 33  1  0
 16 34  1  0
 17 35  1  0
 17 36  1  0
 17 37  1  0
M  END

