
     RDKit          3D

 32 32  0  0  0  0  0  0  0  0999 V2000
    0.9518   -0.1995   -0.0858 C   0  0  0  0  0  0  0  0  0  0  0  0
    2.4693   -0.0283   -0.1701 C   0  0  0  0  0  0  0  0  0  0  0  0
    2.9957    1.2923    0.4181 C   0  0  1  0  0  0  0  0  0  0  0  0
    2.6538    1.5102    1.9195 C   0  0  0  0  0  0  0  0  0  0  0  0
    3.1564    0.4242    2.8739 C   0  0  0  0  0  0  0  0  0  0  0  0
    4.5053    1.4176    0.2226 C   0  0  0  0  0  0  0  0  0  0  0  0
    5.2336    0.4523    0.1364 O   0  0  0  0  0  0  0  0  0  0  0  0
    5.0889    2.8361    0.1223 C   0  0  0  0  0  0  0  0  0  0  0  0
    5.1054    3.3035   -1.3211 C   0  0  0  0  0  0  0  0  0  0  0  0
    5.9668    2.6588   -2.2300 C   0  0  0  0  0  0  0  0  0  0  0  0
    6.0336    3.0301   -3.5716 C   0  0  0  0  0  0  0  0  0  0  0  0
    5.2281    4.0698   -4.0456 C   0  0  0  0  0  0  0  0  0  0  0  0
    4.3590    4.7252   -3.1732 C   0  0  0  0  0  0  0  0  0  0  0  0
    4.3001    4.3384   -1.8293 C   0  0  0  0  0  0  0  0  0  0  0  0
    3.0714    5.2923   -0.7041 Br  0  0  0  0  0  0  0  0  0  0  0  0
    0.6336   -1.1194   -0.6017 H   0  0  0  0  0  0  0  0  0  0  0  0
    0.4215    0.6445   -0.5590 H   0  0  0  0  0  0  0  0  0  0  0  0
    0.5955   -0.2716    0.9544 H   0  0  0  0  0  0  0  0  0  0  0  0
    2.7820   -0.0760   -1.2269 H   0  0  0  0  0  0  0  0  0  0  0  0
    2.9806   -0.8722    0.3190 H   0  0  0  0  0  0  0  0  0  0  0  0
    2.5330    2.1354   -0.1267 H   0  0  0  0  0  0  0  0  0  0  0  0
    1.5590    1.6053    2.0092 H   0  0  0  0  0  0  0  0  0  0  0  0
    3.0539    2.4896    2.2343 H   0  0  0  0  0  0  0  0  0  0  0  0
    2.6891   -0.5515    2.6678 H   0  0  0  0  0  0  0  0  0  0  0  0
    2.9194    0.6878    3.9169 H   0  0  0  0  0  0  0  0  0  0  0  0
    4.2468    0.2850    2.8020 H   0  0  0  0  0  0  0  0  0  0  0  0
    6.1209    2.7836    0.4995 H   0  0  0  0  0  0  0  0  0  0  0  0
    4.5192    3.5391    0.7428 H   0  0  0  0  0  0  0  0  0  0  0  0
    6.5868    1.8400   -1.8562 H   0  0  0  0  0  0  0  0  0  0  0  0
    6.7156    2.5084   -4.2471 H   0  0  0  0  0  0  0  0  0  0  0  0
    5.2721    4.3744   -5.0941 H   0  0  0  0  0  0  0  0  0  0  0  0
    3.7230    5.5373   -3.5289 H   0  0  0  0  0  0  0  0  0  0  0  0
  1  2  1  0
  1 16  1  0
  1 17  1  0
  1 18  1  0
  2  3  1  0
  2 19  1  0
  2 20  1  0
  3  4  1  0
  3  6  1  0
  3 21  1  6
  4  5  1  0
  4 22  1  0
  4 23  1  0
  5 24  1  0
  5 25  1  0
  5 26  1  0
  6  7  2  0
  6  8  1  0
  8  9  1  0
  8 27  1  0
  8 28  1  0
  9 10  2  0
  9 14  1  0
 10 11  1  0
 10 29  1  0
 11 12  2  0
 11 30  1  0
 12 13  1  0
 12 31  1  0
 13 14  2  0
 13 32  1  0
 14 15  1  0
M  END

