
     RDKit          3D

 31 33  0  0  0  0  0  0  0  0999 V2000
    1.3264   -0.6223   -1.2114 C   0  0  0  0  0  0  0  0  0  0  0  0
    2.4380   -0.2655   -0.2662 C   0  0  0  0  0  0  0  0  0  0  0  0
    3.1472   -1.1767    0.4913 C   0  0  0  0  0  0  0  0  0  0  0  0
    2.9687   -2.6588    0.5213 C   0  0  0  0  0  0  0  0  0  0  0  0
    1.9575   -3.2243    0.1948 O   0  0  0  0  0  0  0  0  0  0  0  0
    4.0341   -3.3751    0.9489 O   0  0  0  0  0  0  0  0  0  0  0  0
    4.3870   -0.4363    1.5088 S   0  0  0  0  0  0  0  0  0  0  0  0
    3.9865    1.1427    0.8914 C   0  0  0  0  0  0  0  0  0  0  0  0
    4.6136    2.2469    1.2911 N   0  0  0  0  0  0  0  0  0  0  0  0
    4.1673    3.3606    0.7300 C   0  0  0  0  0  0  0  0  0  0  0  0
    3.1739    3.4602   -0.1651 N   0  0  0  0  0  0  0  0  0  0  0  0
    2.5445    2.3591   -0.5650 C   0  0  0  0  0  0  0  0  0  0  0  0
    1.2480    2.5011   -1.7631 S   0  0  0  0  0  0  0  0  0  0  0  0
    1.1710    4.3183   -2.0518 C   0  0  0  0  0  0  0  0  0  0  0  0
    0.1613    5.0177   -1.1803 C   0  0  0  0  0  0  0  0  0  0  0  0
    0.5220    5.6338    0.0326 C   0  0  0  0  0  0  0  0  0  0  0  0
   -0.3713    6.2538    0.8031 N   0  0  0  0  0  0  0  0  0  0  0  0
   -1.6342    6.2624    0.3734 C   0  0  0  0  0  0  0  0  0  0  0  0
   -2.0006    5.6541   -0.8328 C   0  0  0  0  0  0  0  0  0  0  0  0
   -1.1074    5.0372   -1.6057 N   0  0  0  0  0  0  0  0  0  0  0  0
    2.9210    1.0831   -0.0434 C   0  0  0  0  0  0  0  0  0  0  0  0
    1.1503   -1.7025   -1.2183 H   0  0  0  0  0  0  0  0  0  0  0  0
    1.5561   -0.2782   -2.2321 H   0  0  0  0  0  0  0  0  0  0  0  0
    0.3912   -0.1246   -0.9084 H   0  0  0  0  0  0  0  0  0  0  0  0
    4.8253   -2.8228    1.0397 H   0  0  0  0  0  0  0  0  0  0  0  0
    4.6532    4.2981    1.0238 H   0  0  0  0  0  0  0  0  0  0  0  0
    0.8615    4.4036   -3.1022 H   0  0  0  0  0  0  0  0  0  0  0  0
    2.1858    4.7100   -1.9143 H   0  0  0  0  0  0  0  0  0  0  0  0
    1.5623    5.6107    0.3720 H   0  0  0  0  0  0  0  0  0  0  0  0
   -2.3802    6.7675    0.9975 H   0  0  0  0  0  0  0  0  0  0  0  0
   -3.0407    5.6727   -1.1782 H   0  0  0  0  0  0  0  0  0  0  0  0
  1  2  1  0
  1 22  1  0
  1 23  1  0
  1 24  1  0
  2  3  2  0
  2 21  1  0
  3  4  1  0
  3  7  1  0
  4  5  2  0
  4  6  1  0
  6 25  1  0
  7  8  1  0
  8  9  1  0
  8 21  2  0
  9 10  2  0
 10 11  1  0
 10 26  1  0
 11 12  2  0
 12 13  1  0
 12 21  1  0
 13 14  1  0
 14 15  1  0
 14 27  1  0
 14 28  1  0
 15 16  2  0
 15 20  1  0
 16 17  1  0
 16 29  1  0
 17 18  2  0
 18 19  1  0
 18 30  1  0
 19 20  2  0
 19 31  1  0
M  END

