
     RDKit          3D

 35 37  0  0  0  0  0  0  0  0999 V2000
    3.1582    1.9427   -0.6083 N   0  0  0  0  0  0  0  0  0  0  0  0
    3.6501    0.9617   -0.2399 C   0  0  0  0  0  0  0  0  0  0  0  0
    4.3590   -0.2474    0.2166 C   0  0  2  0  0  0  0  0  0  0  0  0
    4.8538    0.0167    1.5798 C   0  0  0  0  0  0  0  0  0  0  0  0
    5.2935    0.2667    2.6211 N   0  0  0  0  0  0  0  0  0  0  0  0
    5.5976   -0.5327   -0.7493 C   0  0  1  0  0  0  0  0  0  0  0  0
    6.2806   -1.7976   -0.2402 C   0  0  0  0  0  0  0  0  0  0  0  0
    5.5391   -2.9092   -0.3504 C   0  0  0  0  0  0  0  0  0  0  0  0
    5.9575   -4.3446   -0.3044 C   0  0  0  0  0  0  0  0  0  0  0  0
    6.2795   -4.9077   -1.7201 C   0  0  0  0  0  0  0  0  0  0  0  0
    5.1738   -5.0225   -2.8039 C   0  0  0  0  0  0  0  0  0  0  0  0
    4.9204   -3.8396   -3.7769 C   0  0  0  0  0  0  0  0  0  0  0  0
    3.8949   -2.7212   -3.4270 C   0  0  0  0  0  0  0  0  0  0  0  0
    4.3048   -1.9375   -2.2204 C   0  0  0  0  0  0  0  0  0  0  0  0
    5.0300   -0.8129   -2.1364 C   0  0  0  0  0  0  0  0  0  0  0  0
    4.1461   -2.5957   -0.8626 C   0  0  1  0  0  0  0  0  0  0  0  0
    3.3338   -3.7009   -0.9007 F   0  0  0  0  0  0  0  0  0  0  0  0
    3.4325   -1.5656    0.1434 C   0  0  1  0  0  0  0  0  0  0  0  0
    3.2859   -2.2228    1.4541 C   0  0  0  0  0  0  0  0  0  0  0  0
    3.1626   -2.7788    2.4615 N   0  0  0  0  0  0  0  0  0  0  0  0
    2.0821   -1.2759   -0.3697 C   0  0  0  0  0  0  0  0  0  0  0  0
    1.0183   -1.0926   -0.7869 N   0  0  0  0  0  0  0  0  0  0  0  0
    6.2533    0.3455   -0.7256 H   0  0  0  0  0  0  0  0  0  0  0  0
    7.3177   -1.7789    0.0985 H   0  0  0  0  0  0  0  0  0  0  0  0
    5.1748   -4.9574    0.1698 H   0  0  0  0  0  0  0  0  0  0  0  0
    6.8649   -4.4383    0.3122 H   0  0  0  0  0  0  0  0  0  0  0  0
    6.6652   -5.9263   -1.5480 H   0  0  0  0  0  0  0  0  0  0  0  0
    7.1276   -4.3338   -2.1339 H   0  0  0  0  0  0  0  0  0  0  0  0
    4.2269   -5.3581   -2.3525 H   0  0  0  0  0  0  0  0  0  0  0  0
    5.4952   -5.8561   -3.4495 H   0  0  0  0  0  0  0  0  0  0  0  0
    4.5642   -4.2762   -4.7248 H   0  0  0  0  0  0  0  0  0  0  0  0
    5.8858   -3.3586   -4.0144 H   0  0  0  0  0  0  0  0  0  0  0  0
    2.8983   -3.1650   -3.2760 H   0  0  0  0  0  0  0  0  0  0  0  0
    3.8237   -2.0439   -4.2923 H   0  0  0  0  0  0  0  0  0  0  0  0
    5.2823   -0.1765   -2.9860 H   0  0  0  0  0  0  0  0  0  0  0  0
  1  2  3  0
  3  2  1  6
  3  4  1  0
  3  6  1  0
  3 18  1  0
  4  5  3  0
  6  7  1  0
  6 15  1  0
  6 23  1  6
  7  8  2  0
  7 24  1  0
  8  9  1  0
  8 16  1  0
  9 10  1  0
  9 25  1  0
  9 26  1  0
 10 11  1  0
 10 27  1  0
 10 28  1  0
 11 12  1  0
 11 29  1  0
 11 30  1  0
 12 13  1  0
 12 31  1  0
 12 32  1  0
 13 14  1  0
 13 33  1  0
 13 34  1  0
 14 15  2  0
 14 16  1  0
 15 35  1  0
 16 17  1  6
 16 18  1  0
 18 19  1  1
 18 21  1  0
 19 20  3  0
 21 22  3  0
M  END

