
     RDKit          3D

118130  0  0  0  0  0  0  0  0999 V2000
    4.0721   -3.4640   -4.1679 C   0  0  0  0  0  0  0  0  0  0  0  0
    4.7170   -2.5297   -3.1714 C   0  0  0  0  0  0  0  0  0  0  0  0
    5.8126   -1.7264   -3.5620 C   0  0  0  0  0  0  0  0  0  0  0  0
    6.4507   -0.8543   -2.6815 C   0  0  0  0  0  0  0  0  0  0  0  0
    5.9806   -0.7922   -1.3674 C   0  0  0  0  0  0  0  0  0  0  0  0
    4.8734   -1.5686   -0.9475 C   0  0  0  0  0  0  0  0  0  0  0  0
    4.2515   -2.4367   -1.8565 C   0  0  0  0  0  0  0  0  0  0  0  0
    4.6135   -1.2235    0.4379 C   0  0  0  0  0  0  0  0  0  0  0  0
    3.6696   -1.6596    1.3791 C   0  0  0  0  0  0  0  0  0  0  0  0
    3.6674   -1.1293    2.6725 C   0  0  0  0  0  0  0  0  0  0  0  0
    2.6532   -1.5717    3.7007 C   0  0  0  0  0  0  0  0  0  0  0  0
    4.6338   -0.1534    3.0073 C   0  0  0  0  0  0  0  0  0  0  0  0
    5.5853    0.2985    2.0941 C   0  0  0  0  0  0  0  0  0  0  0  0
    5.5658   -0.2439    0.8056 C   0  0  0  0  0  0  0  0  0  0  0  0
    6.4096    0.0074   -0.2929 N   0  0  0  0  0  0  0  0  0  0  0  0
    7.4781    0.9252   -0.3055 C   0  0  0  0  0  0  0  0  0  0  0  0
    7.2055    2.3116   -0.1965 C   0  0  0  0  0  0  0  0  0  0  0  0
    5.8399    2.7474   -0.1195 C   0  0  0  0  0  0  0  0  0  0  0  0
    4.7363    3.0995   -0.0571 N   0  0  0  0  0  0  0  0  0  0  0  0
    8.2383    3.2813   -0.1616 C   0  0  0  0  0  0  0  0  0  0  0  0
    7.9019    4.6476   -0.0959 N   0  0  0  0  0  0  0  0  0  0  0  0
    7.2516    5.3749   -1.1109 C   0  0  0  0  0  0  0  0  0  0  0  0
    6.8222    4.9623   -2.3757 C   0  0  0  0  0  0  0  0  0  0  0  0
    6.2190    5.9094   -3.2018 C   0  0  0  0  0  0  0  0  0  0  0  0
    6.0344    7.2531   -2.8032 C   0  0  0  0  0  0  0  0  0  0  0  0
    5.3628    8.2324   -3.7368 C   0  0  0  0  0  0  0  0  0  0  0  0
    6.4752    7.6433   -1.5353 C   0  0  0  0  0  0  0  0  0  0  0  0
    7.0840    6.7125   -0.6811 C   0  0  0  0  0  0  0  0  0  0  0  0
    7.6353    6.7998    0.6584 C   0  0  0  0  0  0  0  0  0  0  0  0
    7.7258    7.8382    1.5966 C   0  0  0  0  0  0  0  0  0  0  0  0
    8.2906    7.6033    2.8537 C   0  0  0  0  0  0  0  0  0  0  0  0
    8.4094    8.7061    3.8790 C   0  0  0  0  0  0  0  0  0  0  0  0
    8.7536    6.3027    3.1574 C   0  0  0  0  0  0  0  0  0  0  0  0
    8.6768    5.2507    2.2461 C   0  0  0  0  0  0  0  0  0  0  0  0
    8.1262    5.5136    0.9894 C   0  0  0  0  0  0  0  0  0  0  0  0
    9.5836    2.8493   -0.2030 C   0  0  0  0  0  0  0  0  0  0  0  0
   10.6555    3.7571   -0.0974 N   0  0  0  0  0  0  0  0  0  0  0  0
   11.0256    4.7284   -1.0448 C   0  0  0  0  0  0  0  0  0  0  0  0
   10.4813    5.0079   -2.3008 C   0  0  0  0  0  0  0  0  0  0  0  0
   11.0725    6.0184   -3.0575 C   0  0  0  0  0  0  0  0  0  0  0  0
   12.1924    6.7501   -2.6008 C   0  0  0  0  0  0  0  0  0  0  0  0
   12.7844    7.8408   -3.4620 C   0  0  0  0  0  0  0  0  0  0  0  0
   12.7313    6.4405   -1.3486 C   0  0  0  0  0  0  0  0  0  0  0  0
   12.1582    5.4291   -0.5642 C   0  0  0  0  0  0  0  0  0  0  0  0
   12.4952    4.8577    0.7265 C   0  0  0  0  0  0  0  0  0  0  0  0
   13.4929    5.1348    1.6724 C   0  0  0  0  0  0  0  0  0  0  0  0
   13.5671    4.3943    2.8557 C   0  0  0  0  0  0  0  0  0  0  0  0
   14.6404    4.6631    3.8840 C   0  0  0  0  0  0  0  0  0  0  0  0
   12.6178    3.3702    3.0759 C   0  0  0  0  0  0  0  0  0  0  0  0
   11.6140    3.0729    2.1554 C   0  0  0  0  0  0  0  0  0  0  0  0
   11.5617    3.8246    0.9777 C   0  0  0  0  0  0  0  0  0  0  0  0
    9.8552    1.4658   -0.3457 C   0  0  0  0  0  0  0  0  0  0  0  0
   11.2208    1.0298   -0.4219 C   0  0  0  0  0  0  0  0  0  0  0  0
   12.3244    0.6775   -0.4832 N   0  0  0  0  0  0  0  0  0  0  0  0
    8.8215    0.4991   -0.4156 C   0  0  0  0  0  0  0  0  0  0  0  0
    9.1545   -0.8569   -0.6018 N   0  0  0  0  0  0  0  0  0  0  0  0
    8.9889   -1.8954    0.3320 C   0  0  0  0  0  0  0  0  0  0  0  0
    8.5137   -1.8521    1.6451 C   0  0  0  0  0  0  0  0  0  0  0  0
    8.4845   -3.0438    2.3677 C   0  0  0  0  0  0  0  0  0  0  0  0
    8.9221   -4.2718    1.8212 C   0  0  0  0  0  0  0  0  0  0  0  0
    8.8569   -5.5332    2.6497 C   0  0  0  0  0  0  0  0  0  0  0  0
    9.4116   -4.2874    0.5118 C   0  0  0  0  0  0  0  0  0  0  0  0
    9.4529   -3.1046   -0.2402 C   0  0  0  0  0  0  0  0  0  0  0  0
    9.9260   -2.7888   -1.5753 C   0  0  0  0  0  0  0  0  0  0  0  0
   10.4789   -3.5584   -2.6092 C   0  0  0  0  0  0  0  0  0  0  0  0
   10.8471   -2.9567   -3.8160 C   0  0  0  0  0  0  0  0  0  0  0  0
   11.4574   -3.7604   -4.9399 C   0  0  0  0  0  0  0  0  0  0  0  0
   10.6470   -1.5657   -3.9693 C   0  0  0  0  0  0  0  0  0  0  0  0
   10.0984   -0.7751   -2.9607 C   0  0  0  0  0  0  0  0  0  0  0  0
    9.7410   -1.3985   -1.7614 C   0  0  0  0  0  0  0  0  0  0  0  0
    3.7402   -2.9247   -5.0708 H   0  0  0  0  0  0  0  0  0  0  0  0
    3.1947   -3.9696   -3.7383 H   0  0  0  0  0  0  0  0  0  0  0  0
    4.7771   -4.2445   -4.5016 H   0  0  0  0  0  0  0  0  0  0  0  0
    6.1755   -1.7894   -4.5918 H   0  0  0  0  0  0  0  0  0  0  0  0
    7.2903   -0.2472   -3.0205 H   0  0  0  0  0  0  0  0  0  0  0  0
    3.3952   -3.0373   -1.5377 H   0  0  0  0  0  0  0  0  0  0  0  0
    2.9326   -2.4175    1.1000 H   0  0  0  0  0  0  0  0  0  0  0  0
    2.0107   -2.3765    3.3138 H   0  0  0  0  0  0  0  0  0  0  0  0
    1.9973   -0.7375    4.0029 H   0  0  0  0  0  0  0  0  0  0  0  0
    3.1420   -1.9434    4.6169 H   0  0  0  0  0  0  0  0  0  0  0  0
    4.6333    0.2677    4.0167 H   0  0  0  0  0  0  0  0  0  0  0  0
    6.3115    1.0595    2.3865 H   0  0  0  0  0  0  0  0  0  0  0  0
    6.9406    3.9312   -2.7149 H   0  0  0  0  0  0  0  0  0  0  0  0
    5.8717    5.5982   -4.1912 H   0  0  0  0  0  0  0  0  0  0  0  0
    5.8775    8.2802   -4.7111 H   0  0  0  0  0  0  0  0  0  0  0  0
    5.3494    9.2482   -3.3148 H   0  0  0  0  0  0  0  0  0  0  0  0
    4.3179    7.9419   -3.9399 H   0  0  0  0  0  0  0  0  0  0  0  0
    6.3447    8.6785   -1.2082 H   0  0  0  0  0  0  0  0  0  0  0  0
    7.3467    8.8329    1.3466 H   0  0  0  0  0  0  0  0  0  0  0  0
    7.9488    9.6396    3.5234 H   0  0  0  0  0  0  0  0  0  0  0  0
    9.4652    8.9235    4.1151 H   0  0  0  0  0  0  0  0  0  0  0  0
    7.9192    8.4300    4.8276 H   0  0  0  0  0  0  0  0  0  0  0  0
    9.1891    6.1117    4.1424 H   0  0  0  0  0  0  0  0  0  0  0  0
    9.0403    4.2596    2.5180 H   0  0  0  0  0  0  0  0  0  0  0  0
    9.6209    4.4621   -2.6884 H   0  0  0  0  0  0  0  0  0  0  0  0
   10.6519    6.2514   -4.0398 H   0  0  0  0  0  0  0  0  0  0  0  0
   12.0640    8.6608   -3.6239 H   0  0  0  0  0  0  0  0  0  0  0  0
   13.0661    7.4604   -4.4582 H   0  0  0  0  0  0  0  0  0  0  0  0
   13.6848    8.2745   -3.0023 H   0  0  0  0  0  0  0  0  0  0  0  0
   13.6071    6.9834   -0.9828 H   0  0  0  0  0  0  0  0  0  0  0  0
   14.2155    5.9333    1.4834 H   0  0  0  0  0  0  0  0  0  0  0  0
   15.2596    5.5284    3.6044 H   0  0  0  0  0  0  0  0  0  0  0  0
   15.3125    3.7957    3.9994 H   0  0  0  0  0  0  0  0  0  0  0  0
   14.2069    4.8673    4.8774 H   0  0  0  0  0  0  0  0  0  0  0  0
   12.6745    2.7851    3.9982 H   0  0  0  0  0  0  0  0  0  0  0  0
   10.9028    2.2692    2.3564 H   0  0  0  0  0  0  0  0  0  0  0  0
    8.1719   -0.9232    2.1018 H   0  0  0  0  0  0  0  0  0  0  0  0
    8.1084   -3.0246    3.3944 H   0  0  0  0  0  0  0  0  0  0  0  0
    9.3986   -5.4184    3.6035 H   0  0  0  0  0  0  0  0  0  0  0  0
    9.2953   -6.3898    2.1165 H   0  0  0  0  0  0  0  0  0  0  0  0
    7.8151   -5.7948    2.9022 H   0  0  0  0  0  0  0  0  0  0  0  0
    9.7702   -5.2235    0.0751 H   0  0  0  0  0  0  0  0  0  0  0  0
   10.6224   -4.6335   -2.4707 H   0  0  0  0  0  0  0  0  0  0  0  0
   11.4905   -4.8329   -4.6974 H   0  0  0  0  0  0  0  0  0  0  0  0
   12.4899   -3.4346   -5.1523 H   0  0  0  0  0  0  0  0  0  0  0  0
   10.8859   -3.6452   -5.8761 H   0  0  0  0  0  0  0  0  0  0  0  0
   10.9377   -1.0895   -4.9101 H   0  0  0  0  0  0  0  0  0  0  0  0
    9.9661    0.2980   -3.1124 H   0  0  0  0  0  0  0  0  0  0  0  0
  1  2  1  0
  1 71  1  0
  1 72  1  0
  1 73  1  0
  2  3  2  0
  2  7  1  0
  3  4  1  0
  3 74  1  0
  4  5  2  0
  4 75  1  0
  5  6  1  0
  5 15  1  0
  6  7  2  0
  6  8  1  0
  7 76  1  0
  8  9  2  0
  8 14  1  0
  9 10  1  0
  9 77  1  0
 10 11  1  0
 10 12  2  0
 11 78  1  0
 11 79  1  0
 11 80  1  0
 12 13  1  0
 12 81  1  0
 13 14  2  0
 13 82  1  0
 14 15  1  0
 15 16  1  0
 16 17  2  0
 16 55  1  0
 17 18  1  0
 17 20  1  0
 18 19  3  0
 20 21  1  0
 20 36  2  0
 21 22  1  0
 21 35  1  0
 22 23  2  0
 22 28  1  0
 23 24  1  0
 23 83  1  0
 24 25  2  0
 24 84  1  0
 25 26  1  0
 25 27  1  0
 26 85  1  0
 26 86  1  0
 26 87  1  0
 27 28  2  0
 27 88  1  0
 28 29  1  0
 29 30  1  0
 29 35  2  0
 30 31  2  0
 30 89  1  0
 31 32  1  0
 31 33  1  0
 32 90  1  0
 32 91  1  0
 32 92  1  0
 33 34  2  0
 33 93  1  0
 34 35  1  0
 34 94  1  0
 36 37  1  0
 36 52  1  0
 37 38  1  0
 37 51  1  0
 38 39  2  0
 38 44  1  0
 39 40  1  0
 39 95  1  0
 40 41  2  0
 40 96  1  0
 41 42  1  0
 41 43  1  0
 42 97  1  0
 42 98  1  0
 42 99  1  0
 43 44  2  0
 43100  1  0
 44 45  1  0
 45 46  1  0
 45 51  2  0
 46 47  2  0
 46101  1  0
 47 48  1  0
 47 49  1  0
 48102  1  0
 48103  1  0
 48104  1  0
 49 50  2  0
 49105  1  0
 50 51  1  0
 50106  1  0
 52 53  1  0
 52 55  2  0
 53 54  3  0
 55 56  1  0
 56 57  1  0
 56 70  1  0
 57 58  2  0
 57 63  1  0
 58 59  1  0
 58107  1  0
 59 60  2  0
 59108  1  0
 60 61  1  0
 60 62  1  0
 61109  1  0
 61110  1  0
 61111  1  0
 62 63  2  0
 62112  1  0
 63 64  1  0
 64 65  1  0
 64 70  2  0
 65 66  2  0
 65113  1  0
 66 67  1  0
 66 68  1  0
 67114  1  0
 67115  1  0
 67116  1  0
 68 69  2  0
 68117  1  0
 69 70  1  0
 69118  1  0
M  END

