
     RDKit          3D

102104  0  0  0  0  0  0  0  0999 V2000
    2.0086    2.6476   -1.8230 C   0  0  0  0  0  0  0  0  0  0  0  0
    3.2193    2.0550   -1.1461 C   0  0  0  0  0  0  0  0  0  0  0  0
    3.5739    2.4384    0.1526 C   0  0  0  0  0  0  0  0  0  0  0  0
    4.6902    1.9091    0.8061 C   0  0  0  0  0  0  0  0  0  0  0  0
    5.4914    0.9567    0.1670 C   0  0  0  0  0  0  0  0  0  0  0  0
    6.7438    0.3317    0.7886 C   0  0  1  0  0  0  0  0  0  0  0  0
    7.0939    0.7916    2.2209 C   0  0  0  0  0  0  0  0  0  0  0  0
    7.1073    1.9787    2.5159 O   0  0  0  0  0  0  0  0  0  0  0  0
    7.4592   -0.1828    3.0929 N   0  0  0  0  0  0  0  0  0  0  0  0
    8.1174    0.1120    4.3491 C   0  0  1  0  0  0  0  0  0  0  0  0
    7.1897    0.7157    5.4408 C   0  0  0  0  0  0  0  0  0  0  0  0
    5.9895   -0.1204    5.8232 C   0  0  0  0  0  0  0  0  0  0  0  0
    6.0888   -1.1428    6.7820 C   0  0  0  0  0  0  0  0  0  0  0  0
    4.9778   -1.9157    7.1300 C   0  0  0  0  0  0  0  0  0  0  0  0
    3.7393   -1.6766    6.5266 C   0  0  0  0  0  0  0  0  0  0  0  0
    3.6221   -0.6565    5.5776 C   0  0  0  0  0  0  0  0  0  0  0  0
    4.7372    0.1128    5.2314 C   0  0  0  0  0  0  0  0  0  0  0  0
    8.8373   -1.1662    4.7910 C   0  0  0  0  0  0  0  0  0  0  0  0
    8.7467   -2.2163    4.1929 O   0  0  0  0  0  0  0  0  0  0  0  0
    9.5767   -0.9501    5.8764 O   0  0  0  0  0  0  0  0  0  0  0  0
   10.4899   -1.9665    6.4437 C   0  0  1  0  0  0  0  0  0  0  0  0
   11.5467   -2.3370    5.3992 C   0  0  0  0  0  0  0  0  0  0  0  0
   11.1227   -1.2296    7.6239 C   0  0  0  0  0  0  0  0  0  0  0  0
    9.6960   -3.1859    6.9191 C   0  0  0  0  0  0  0  0  0  0  0  0
    6.8272   -1.1276    0.5704 N   0  0  0  0  0  0  0  0  0  0  0  0
    7.9980   -1.5790   -0.0016 C   0  0  0  0  0  0  0  0  0  0  0  0
    8.9782   -0.8535   -0.1365 O   0  0  0  0  0  0  0  0  0  0  0  0
    8.0629   -3.0163   -0.5356 C   0  0  1  0  0  0  0  0  0  0  0  0
    7.5064   -3.1178   -1.9835 C   0  0  0  0  0  0  0  0  0  0  0  0
    7.9899   -2.1194   -3.0538 C   0  0  1  0  0  0  0  0  0  0  0  0
    9.5016   -2.1594   -3.3166 C   0  0  0  0  0  0  0  0  0  0  0  0
    7.2085   -2.3597   -4.3546 C   0  0  0  0  0  0  0  0  0  0  0  0
    9.4337   -3.4676   -0.4009 N   0  0  0  0  0  0  0  0  0  0  0  0
    9.7315   -4.7748   -0.1717 C   0  0  0  0  0  0  0  0  0  0  0  0
    8.9017   -5.6662   -0.1200 O   0  0  0  0  0  0  0  0  0  0  0  0
   11.0665   -4.9243   -0.0197 O   0  0  0  0  0  0  0  0  0  0  0  0
   11.6739   -6.2302    0.2316 C   0  0  1  0  0  0  0  0  0  0  0  0
   11.4006   -7.1750   -0.9442 C   0  0  0  0  0  0  0  0  0  0  0  0
   13.1655   -5.9003    0.3236 C   0  0  0  0  0  0  0  0  0  0  0  0
   11.1630   -6.8022    1.5589 C   0  0  0  0  0  0  0  0  0  0  0  0
    5.6725   -2.0149    0.8213 C   0  0  1  0  0  0  0  0  0  0  0  0
    5.7888   -3.2072    1.8195 C   0  0  0  0  0  0  0  0  0  0  0  0
    4.3341   -2.9163    2.2584 C   0  0  0  0  0  0  0  0  0  0  0  0
    4.4770   -1.4965    1.6601 C   0  0  0  0  0  0  0  0  0  0  0  0
    5.1467    0.5832   -1.1423 C   0  0  0  0  0  0  0  0  0  0  0  0
    4.0328    1.1064   -1.8093 C   0  0  0  0  0  0  0  0  0  0  0  0
    3.7128    0.6678   -3.2176 C   0  0  0  0  0  0  0  0  0  0  0  0
    1.4920    3.3614   -1.1649 H   0  0  0  0  0  0  0  0  0  0  0  0
    1.2807    1.8705   -2.1133 H   0  0  0  0  0  0  0  0  0  0  0  0
    2.2800    3.1819   -2.7497 H   0  0  0  0  0  0  0  0  0  0  0  0
    2.9610    3.1809    0.6723 H   0  0  0  0  0  0  0  0  0  0  0  0
    4.9505    2.2622    1.8027 H   0  0  0  0  0  0  0  0  0  0  0  0
    7.6070    0.7287    0.2289 H   0  0  0  0  0  0  0  0  0  0  0  0
    7.5617   -1.1370    2.7610 H   0  0  0  0  0  0  0  0  0  0  0  0
    8.9031    0.8702    4.1756 H   0  0  0  0  0  0  0  0  0  0  0  0
    6.8612    1.6881    5.0489 H   0  0  0  0  0  0  0  0  0  0  0  0
    7.8181    0.9090    6.3233 H   0  0  0  0  0  0  0  0  0  0  0  0
    7.0484   -1.3258    7.2720 H   0  0  0  0  0  0  0  0  0  0  0  0
    5.0777   -2.7032    7.8817 H   0  0  0  0  0  0  0  0  0  0  0  0
    2.8678   -2.2761    6.8018 H   0  0  0  0  0  0  0  0  0  0  0  0
    2.6559   -0.4532    5.1082 H   0  0  0  0  0  0  0  0  0  0  0  0
    4.6345    0.9184    4.4995 H   0  0  0  0  0  0  0  0  0  0  0  0
   12.0644   -1.4351    5.0375 H   0  0  0  0  0  0  0  0  0  0  0  0
   11.0995   -2.8577    4.5427 H   0  0  0  0  0  0  0  0  0  0  0  0
   12.2974   -2.9992    5.8574 H   0  0  0  0  0  0  0  0  0  0  0  0
   11.6538   -0.3292    7.2805 H   0  0  0  0  0  0  0  0  0  0  0  0
   11.8424   -1.8850    8.1372 H   0  0  0  0  0  0  0  0  0  0  0  0
   10.3542   -0.9219    8.3490 H   0  0  0  0  0  0  0  0  0  0  0  0
    9.2076   -3.6979    6.0807 H   0  0  0  0  0  0  0  0  0  0  0  0
    8.9295   -2.8910    7.6522 H   0  0  0  0  0  0  0  0  0  0  0  0
   10.3794   -3.8936    7.4138 H   0  0  0  0  0  0  0  0  0  0  0  0
    7.4527   -3.6934    0.0712 H   0  0  0  0  0  0  0  0  0  0  0  0
    6.4064   -3.0463   -1.9227 H   0  0  0  0  0  0  0  0  0  0  0  0
    7.7169   -4.1494   -2.3145 H   0  0  0  0  0  0  0  0  0  0  0  0
    7.7461   -1.0984   -2.7059 H   0  0  0  0  0  0  0  0  0  0  0  0
    9.8397   -3.1815   -3.5575 H   0  0  0  0  0  0  0  0  0  0  0  0
   10.0729   -1.8018   -2.4500 H   0  0  0  0  0  0  0  0  0  0  0  0
    9.7589   -1.5117   -4.1708 H   0  0  0  0  0  0  0  0  0  0  0  0
    7.4175   -3.3642   -4.7613 H   0  0  0  0  0  0  0  0  0  0  0  0
    7.4858   -1.6243   -5.1268 H   0  0  0  0  0  0  0  0  0  0  0  0
    6.1194   -2.2879   -4.1969 H   0  0  0  0  0  0  0  0  0  0  0  0
   10.1634   -2.7640   -0.3686 H   0  0  0  0  0  0  0  0  0  0  0  0
   11.7436   -6.7205   -1.8871 H   0  0  0  0  0  0  0  0  0  0  0  0
   10.3295   -7.3982   -1.0278 H   0  0  0  0  0  0  0  0  0  0  0  0
   11.9505   -8.1184   -0.8004 H   0  0  0  0  0  0  0  0  0  0  0  0
   13.5203   -5.4487   -0.6153 H   0  0  0  0  0  0  0  0  0  0  0  0
   13.7486   -6.8140    0.5148 H   0  0  0  0  0  0  0  0  0  0  0  0
   13.3540   -5.1871    1.1404 H   0  0  0  0  0  0  0  0  0  0  0  0
   10.0890   -7.0203    1.5046 H   0  0  0  0  0  0  0  0  0  0  0  0
   11.3380   -6.0848    2.3762 H   0  0  0  0  0  0  0  0  0  0  0  0
   11.7038   -7.7315    1.7978 H   0  0  0  0  0  0  0  0  0  0  0  0
    5.2872   -2.3869   -0.1419 H   0  0  0  0  0  0  0  0  0  0  0  0
    6.5097   -3.0004    2.6251 H   0  0  0  0  0  0  0  0  0  0  0  0
    6.0096   -4.2022    1.4060 H   0  0  0  0  0  0  0  0  0  0  0  0
    4.1128   -2.9793    3.3331 H   0  0  0  0  0  0  0  0  0  0  0  0
    3.6046   -3.5322    1.7098 H   0  0  0  0  0  0  0  0  0  0  0  0
    4.7991   -0.7877    2.4332 H   0  0  0  0  0  0  0  0  0  0  0  0
    3.6311   -1.0621    1.1110 H   0  0  0  0  0  0  0  0  0  0  0  0
    5.7688   -0.1465   -1.6672 H   0  0  0  0  0  0  0  0  0  0  0  0
    4.4431   -0.0675   -3.5856 H   0  0  0  0  0  0  0  0  0  0  0  0
    3.7137    1.5198   -3.9187 H   0  0  0  0  0  0  0  0  0  0  0  0
    2.7109    0.2101   -3.2851 H   0  0  0  0  0  0  0  0  0  0  0  0
  1  2  1  0
  1 48  1  0
  1 49  1  0
  1 50  1  0
  2  3  2  0
  2 46  1  0
  3  4  1  0
  3 51  1  0
  4  5  2  0
  4 52  1  0
  5  6  1  0
  5 45  1  0
  6  7  1  0
  6 25  1  0
  6 53  1  6
  7  8  2  0
  7  9  1  0
  9 10  1  0
  9 54  1  0
 10 11  1  0
 10 18  1  0
 10 55  1  6
 11 12  1  0
 11 56  1  0
 11 57  1  0
 12 13  2  0
 12 17  1  0
 13 14  1  0
 13 58  1  0
 14 15  2  0
 14 59  1  0
 15 16  1  0
 15 60  1  0
 16 17  2  0
 16 61  1  0
 17 62  1  0
 18 19  2  0
 18 20  1  0
 21 20  1  6
 21 22  1  0
 21 23  1  0
 21 24  1  0
 22 63  1  0
 22 64  1  0
 22 65  1  0
 23 66  1  0
 23 67  1  0
 23 68  1  0
 24 69  1  0
 24 70  1  0
 24 71  1  0
 25 26  1  0
 25 41  1  0
 26 27  2  0
 26 28  1  0
 28 29  1  0
 28 33  1  0
 28 72  1  1
 29 30  1  0
 29 73  1  0
 29 74  1  0
 30 31  1  0
 30 32  1  0
 30 75  1  1
 31 76  1  0
 31 77  1  0
 31 78  1  0
 32 79  1  0
 32 80  1  0
 32 81  1  0
 33 34  1  0
 33 82  1  0
 34 35  2  0
 34 36  1  0
 37 36  1  6
 37 38  1  0
 37 39  1  0
 37 40  1  0
 38 83  1  0
 38 84  1  0
 38 85  1  0
 39 86  1  0
 39 87  1  0
 39 88  1  0
 40 89  1  0
 40 90  1  0
 40 91  1  0
 41 42  1  0
 41 44  1  0
 41 92  1  6
 42 43  1  0
 42 93  1  0
 42 94  1  0
 43 44  1  0
 43 95  1  0
 43 96  1  0
 44 97  1  0
 44 98  1  0
 45 46  2  0
 45 99  1  0
 46 47  1  0
 47100  1  0
 47101  1  0
 47102  1  0
M  END

