
     RDKit          3D

 47 49  0  0  0  0  0  0  0  0999 V2000
    2.5419    4.1083    0.8894 C   0  0  0  0  0  0  0  0  0  0  0  0
    3.4286    3.7868   -0.6410 S   0  0  1  0  0  0  0  0  0  0  0  0
    2.5942    4.2324   -1.7683 O   0  0  0  0  0  0  0  0  0  0  0  0
    4.7868    4.3007   -0.4776 O   0  0  0  0  0  0  0  0  0  0  0  0
    3.4770    2.0965   -0.7869 N   0  0  0  0  0  0  0  0  0  0  0  0
    2.5749    1.4906   -1.7623 C   0  0  0  0  0  0  0  0  0  0  0  0
    1.0902    1.7039   -1.4244 C   0  0  0  0  0  0  0  0  0  0  0  0
    0.7300    1.6725   -0.2521 O   0  0  0  0  0  0  0  0  0  0  0  0
    0.2107    1.8871   -2.4559 N   0  0  0  0  0  0  0  0  0  0  0  0
   -1.2066    2.0560   -2.1364 C   0  0  0  0  0  0  0  0  0  0  0  0
   -1.6642    3.4912   -2.2488 C   0  0  0  0  0  0  0  0  0  0  0  0
   -0.9268    4.6438   -2.1104 C   0  0  0  0  0  0  0  0  0  0  0  0
   -1.7181    5.8286   -2.2359 C   0  0  0  0  0  0  0  0  0  0  0  0
   -3.0430    5.5638   -2.4651 C   0  0  0  0  0  0  0  0  0  0  0  0
   -3.3436    3.8596   -2.5404 S   0  0  0  0  0  0  0  0  0  0  0  0
    0.6088    2.0566   -3.8514 C   0  0  0  0  0  0  0  0  0  0  0  0
    0.9237    0.7567   -4.5540 C   0  0  0  0  0  0  0  0  0  0  0  0
    0.6344   -0.5298   -4.1655 C   0  0  0  0  0  0  0  0  0  0  0  0
    1.0575   -1.5134   -5.1143 C   0  0  0  0  0  0  0  0  0  0  0  0
    1.6629   -0.9618   -6.2121 C   0  0  0  0  0  0  0  0  0  0  0  0
    1.7275    0.7662   -6.1012 S   0  0  0  0  0  0  0  0  0  0  0  0
    4.1566    1.3171    0.1991 C   0  0  0  0  0  0  0  0  0  0  0  0
    5.5389    1.4734    0.3915 C   0  0  0  0  0  0  0  0  0  0  0  0
    6.1932    0.6940    1.3475 C   0  0  0  0  0  0  0  0  0  0  0  0
    5.4992   -0.2583    2.0982 C   0  0  0  0  0  0  0  0  0  0  0  0
    4.1245   -0.4064    1.8920 C   0  0  0  0  0  0  0  0  0  0  0  0
    3.2344   -1.5849    2.8320 Cl  0  0  0  0  0  0  0  0  0  0  0  0
    3.4403    0.3815    0.9648 C   0  0  0  0  0  0  0  0  0  0  0  0
    2.4676    5.2014    0.9678 H   0  0  0  0  0  0  0  0  0  0  0  0
    3.1333    3.7037    1.7206 H   0  0  0  0  0  0  0  0  0  0  0  0
    1.5570    3.6290    0.8275 H   0  0  0  0  0  0  0  0  0  0  0  0
    2.7626    0.4065   -1.7467 H   0  0  0  0  0  0  0  0  0  0  0  0
    2.8351    1.8379   -2.7678 H   0  0  0  0  0  0  0  0  0  0  0  0
   -1.3443    1.6899   -1.1087 H   0  0  0  0  0  0  0  0  0  0  0  0
   -1.8033    1.4124   -2.8045 H   0  0  0  0  0  0  0  0  0  0  0  0
    0.1511    4.6447   -1.9343 H   0  0  0  0  0  0  0  0  0  0  0  0
   -1.3128    6.8390   -2.1605 H   0  0  0  0  0  0  0  0  0  0  0  0
   -3.8622    6.2687   -2.5997 H   0  0  0  0  0  0  0  0  0  0  0  0
    1.4540    2.7598   -3.9194 H   0  0  0  0  0  0  0  0  0  0  0  0
   -0.2254    2.5669   -4.3592 H   0  0  0  0  0  0  0  0  0  0  0  0
    0.1336   -0.7676   -3.2258 H   0  0  0  0  0  0  0  0  0  0  0  0
    0.9179   -2.5873   -4.9809 H   0  0  0  0  0  0  0  0  0  0  0  0
    2.0818   -1.4676   -7.0809 H   0  0  0  0  0  0  0  0  0  0  0  0
    6.0800    2.2069   -0.2050 H   0  0  0  0  0  0  0  0  0  0  0  0
    7.2685    0.8171    1.4984 H   0  0  0  0  0  0  0  0  0  0  0  0
    6.0100   -0.8808    2.8343 H   0  0  0  0  0  0  0  0  0  0  0  0
    2.3597    0.2978    0.8432 H   0  0  0  0  0  0  0  0  0  0  0  0
  1  2  1  0
  1 29  1  0
  1 30  1  0
  1 31  1  0
  2  3  2  0
  2  4  2  0
  2  5  1  6
  5  6  1  0
  5 22  1  0
  6  7  1  0
  6 32  1  0
  6 33  1  0
  7  8  2  0
  7  9  1  0
  9 10  1  0
  9 16  1  0
 10 11  1  0
 10 34  1  0
 10 35  1  0
 11 12  2  0
 11 15  1  0
 12 13  1  0
 12 36  1  0
 13 14  2  0
 13 37  1  0
 14 15  1  0
 14 38  1  0
 16 17  1  0
 16 39  1  0
 16 40  1  0
 17 18  2  0
 17 21  1  0
 18 19  1  0
 18 41  1  0
 19 20  2  0
 19 42  1  0
 20 21  1  0
 20 43  1  0
 22 23  2  0
 22 28  1  0
 23 24  1  0
 23 44  1  0
 24 25  2  0
 24 45  1  0
 25 26  1  0
 25 46  1  0
 26 27  1  0
 26 28  2  0
 28 47  1  0
M  END

