
     RDKit          3D

 39 42  0  0  0  0  0  0  0  0999 V2000
    0.1049   -2.2588    0.1484 C   0  0  0  0  0  0  0  0  0  0  0  0
    0.7604   -1.2970    0.8138 C   0  0  0  0  0  0  0  0  0  0  0  0
    1.4560   -0.3346   -0.1091 C   0  0  1  0  0  0  0  0  0  0  0  0
    1.0441   -0.8278   -1.5376 C   0  0  1  0  0  0  0  0  0  0  0  0
    0.2685   -2.1514   -1.3515 C   0  0  0  0  0  0  0  0  0  0  0  0
    0.2161    0.4743   -1.7284 C   0  0  0  0  0  0  0  0  0  0  0  0
    0.7233    1.0241   -0.3476 C   0  0  2  0  0  0  0  0  0  0  0  0
    1.6003    2.1757   -0.3358 N   0  0  0  0  0  0  0  0  0  0  0  0
    0.9776    3.4678   -0.6113 C   0  0  1  0  0  0  0  0  0  0  0  0
    0.1137    3.9336    0.5582 C   0  0  0  0  0  0  0  0  0  0  0  0
    0.5397    3.7475    1.8827 C   0  0  0  0  0  0  0  0  0  0  0  0
   -0.2208    4.2297    2.9506 C   0  0  0  0  0  0  0  0  0  0  0  0
   -1.4226    4.9054    2.7122 C   0  0  0  0  0  0  0  0  0  0  0  0
   -1.8593    5.0902    1.3976 C   0  0  0  0  0  0  0  0  0  0  0  0
   -1.0959    4.6050    0.3309 C   0  0  0  0  0  0  0  0  0  0  0  0
    2.0728    4.4842   -0.9149 C   0  0  1  0  0  0  0  0  0  0  0  0
    2.6739    4.5598   -2.2994 C   0  0  0  0  0  0  0  0  0  0  0  0
    1.7990    5.6774   -1.7859 C   0  0  0  0  0  0  0  0  0  0  0  0
   -0.4818   -3.0516    0.6218 H   0  0  0  0  0  0  0  0  0  0  0  0
    0.7800   -1.1929    1.9025 H   0  0  0  0  0  0  0  0  0  0  0  0
    2.5301   -0.2109    0.1133 H   0  0  0  0  0  0  0  0  0  0  0  0
    1.8690   -0.9268   -2.2583 H   0  0  0  0  0  0  0  0  0  0  0  0
    0.8208   -3.0213   -1.7531 H   0  0  0  0  0  0  0  0  0  0  0  0
   -0.7033   -2.1410   -1.8794 H   0  0  0  0  0  0  0  0  0  0  0  0
   -0.8718    0.3114   -1.7886 H   0  0  0  0  0  0  0  0  0  0  0  0
    0.5197    1.0899   -2.5902 H   0  0  0  0  0  0  0  0  0  0  0  0
   -0.0922    1.2075    0.3692 H   0  0  0  0  0  0  0  0  0  0  0  0
    2.3842    2.0371   -0.9724 H   0  0  0  0  0  0  0  0  0  0  0  0
    0.3189    3.4270   -1.5080 H   0  0  0  0  0  0  0  0  0  0  0  0
    1.4710    3.2048    2.0606 H   0  0  0  0  0  0  0  0  0  0  0  0
    0.1243    4.0750    3.9766 H   0  0  0  0  0  0  0  0  0  0  0  0
   -2.0190    5.2803    3.5481 H   0  0  0  0  0  0  0  0  0  0  0  0
   -2.8013    5.6090    1.2004 H   0  0  0  0  0  0  0  0  0  0  0  0
   -1.4491    4.7455   -0.6951 H   0  0  0  0  0  0  0  0  0  0  0  0
    2.7606    4.6386   -0.0761 H   0  0  0  0  0  0  0  0  0  0  0  0
    2.2588    3.9071   -3.0746 H   0  0  0  0  0  0  0  0  0  0  0  0
    3.7492    4.7364   -2.3936 H   0  0  0  0  0  0  0  0  0  0  0  0
    0.7981    5.7791   -2.2159 H   0  0  0  0  0  0  0  0  0  0  0  0
    2.2669    6.6293   -1.5210 H   0  0  0  0  0  0  0  0  0  0  0  0
  1  2  2  0
  1  5  1  0
  1 19  1  0
  2  3  1  0
  2 20  1  0
  3  4  1  0
  3  7  1  0
  3 21  1  6
  4  5  1  0
  4  6  1  0
  4 22  1  6
  5 23  1  0
  5 24  1  0
  6  7  1  0
  6 25  1  0
  6 26  1  0
  7  8  1  0
  7 27  1  1
  8  9  1  0
  8 28  1  0
  9 10  1  0
  9 16  1  0
  9 29  1  6
 10 11  2  0
 10 15  1  0
 11 12  1  0
 11 30  1  0
 12 13  2  0
 12 31  1  0
 13 14  1  0
 13 32  1  0
 14 15  2  0
 14 33  1  0
 15 34  1  0
 16 17  1  0
 16 18  1  0
 16 35  1  1
 17 18  1  0
 17 36  1  0
 17 37  1  0
 18 38  1  0
 18 39  1  0
M  END

