
     RDKit          3D

 57 60  0  0  0  0  0  0  0  0999 V2000
   -1.4610   -1.2785   -1.5914 C   0  0  0  0  0  0  0  0  0  0  0  0
   -0.0825   -0.7879   -2.0613 C   0  0  0  0  0  0  0  0  0  0  0  0
    0.9493   -1.8924   -2.1428 C   0  0  0  0  0  0  0  0  0  0  0  0
    1.1294   -2.6330   -3.3200 C   0  0  0  0  0  0  0  0  0  0  0  0
    2.0516   -3.6813   -3.3814 C   0  0  0  0  0  0  0  0  0  0  0  0
    2.8299   -4.0223   -2.2679 C   0  0  0  0  0  0  0  0  0  0  0  0
    3.8512   -5.1525   -2.3542 C   0  0  1  0  0  0  0  0  0  0  0  0
    5.2978   -4.6455   -2.2764 C   0  0  0  0  0  0  0  0  0  0  0  0
    3.6193   -6.1777   -1.3397 N   0  0  0  0  0  0  0  0  0  0  0  0
    3.0970   -7.3883   -1.6018 C   0  0  0  0  0  0  0  0  0  0  0  0
    2.7697   -7.8255   -2.6985 O   0  0  0  0  0  0  0  0  0  0  0  0
    2.9446   -8.2431   -0.3203 C   0  0  0  0  0  0  0  0  0  0  0  0
    3.2688   -7.8184    0.7786 O   0  0  0  0  0  0  0  0  0  0  0  0
    2.4242   -9.4597   -0.6213 N   0  0  0  0  0  0  0  0  0  0  0  0
    2.1226  -10.5359    0.2223 C   0  0  0  0  0  0  0  0  0  0  0  0
    2.3359  -10.4994    1.6123 C   0  0  0  0  0  0  0  0  0  0  0  0
    2.0111  -11.6105    2.3870 C   0  0  0  0  0  0  0  0  0  0  0  0
    1.4721  -12.7765    1.8161 C   0  0  0  0  0  0  0  0  0  0  0  0
    1.1224  -13.9593    2.6120 C   0  0  0  0  0  0  0  0  0  0  0  0
    0.6272  -15.0521    2.1161 N   0  0  0  0  0  0  0  0  0  0  0  0
    0.3921  -16.0019    3.0831 C   0  0  0  0  0  0  0  0  0  0  0  0
   -0.1384  -17.2872    2.8666 C   0  0  0  0  0  0  0  0  0  0  0  0
   -0.3187  -18.1387    3.9484 C   0  0  0  0  0  0  0  0  0  0  0  0
    0.0154  -17.7540    5.2699 C   0  0  0  0  0  0  0  0  0  0  0  0
   -0.2012  -18.7164    6.4126 C   0  0  0  0  0  0  0  0  0  0  0  0
    0.5433  -16.4782    5.4932 C   0  0  0  0  0  0  0  0  0  0  0  0
    0.7275  -15.6152    4.4065 C   0  0  0  0  0  0  0  0  0  0  0  0
    1.3586  -13.9864    4.3828 S   0  0  0  0  0  0  0  0  0  0  0  0
    1.2633  -12.8002    0.4226 C   0  0  0  0  0  0  0  0  0  0  0  0
    1.5827  -11.6996   -0.3601 C   0  0  0  0  0  0  0  0  0  0  0  0
    2.6544   -3.2823   -1.0882 C   0  0  0  0  0  0  0  0  0  0  0  0
    1.7300   -2.2389   -1.0275 C   0  0  0  0  0  0  0  0  0  0  0  0
   -2.1825   -0.4468   -1.5447 H   0  0  0  0  0  0  0  0  0  0  0  0
   -1.4013   -1.7326   -0.5893 H   0  0  0  0  0  0  0  0  0  0  0  0
   -1.8657   -2.0413   -2.2758 H   0  0  0  0  0  0  0  0  0  0  0  0
    0.2770   -0.0031   -1.3744 H   0  0  0  0  0  0  0  0  0  0  0  0
   -0.1844   -0.3108   -3.0506 H   0  0  0  0  0  0  0  0  0  0  0  0
    0.5373   -2.3870   -4.2067 H   0  0  0  0  0  0  0  0  0  0  0  0
    2.1663   -4.2452   -4.3117 H   0  0  0  0  0  0  0  0  0  0  0  0
    3.7032   -5.6671   -3.3146 H   0  0  0  0  0  0  0  0  0  0  0  0
    5.5005   -4.1612   -1.3070 H   0  0  0  0  0  0  0  0  0  0  0  0
    5.4849   -3.9012   -3.0649 H   0  0  0  0  0  0  0  0  0  0  0  0
    6.0081   -5.4774   -2.4018 H   0  0  0  0  0  0  0  0  0  0  0  0
    3.8158   -5.9953   -0.3575 H   0  0  0  0  0  0  0  0  0  0  0  0
    2.2401   -9.5633   -1.6203 H   0  0  0  0  0  0  0  0  0  0  0  0
    2.7524   -9.6029    2.0666 H   0  0  0  0  0  0  0  0  0  0  0  0
    2.1853  -11.5604    3.4650 H   0  0  0  0  0  0  0  0  0  0  0  0
   -0.3982  -17.5910    1.8506 H   0  0  0  0  0  0  0  0  0  0  0  0
   -0.7310  -19.1376    3.7791 H   0  0  0  0  0  0  0  0  0  0  0  0
    0.3660  -19.6505    6.2620 H   0  0  0  0  0  0  0  0  0  0  0  0
   -1.2640  -18.9986    6.5018 H   0  0  0  0  0  0  0  0  0  0  0  0
    0.1129  -18.2840    7.3739 H   0  0  0  0  0  0  0  0  0  0  0  0
    0.8073  -16.1635    6.5057 H   0  0  0  0  0  0  0  0  0  0  0  0
    0.8453  -13.7021   -0.0266 H   0  0  0  0  0  0  0  0  0  0  0  0
    1.4147  -11.7332   -1.4403 H   0  0  0  0  0  0  0  0  0  0  0  0
    3.2452   -3.5175   -0.1976 H   0  0  0  0  0  0  0  0  0  0  0  0
    1.6148   -1.6774   -0.0955 H   0  0  0  0  0  0  0  0  0  0  0  0
  1  2  1  0
  1 33  1  0
  1 34  1  0
  1 35  1  0
  2  3  1  0
  2 36  1  0
  2 37  1  0
  3  4  2  0
  3 32  1  0
  4  5  1  0
  4 38  1  0
  5  6  2  0
  5 39  1  0
  6  7  1  0
  6 31  1  0
  7  8  1  0
  7  9  1  0
  7 40  1  6
  8 41  1  0
  8 42  1  0
  8 43  1  0
  9 10  1  0
  9 44  1  0
 10 11  2  0
 10 12  1  0
 12 13  2  0
 12 14  1  0
 14 15  1  0
 14 45  1  0
 15 16  2  0
 15 30  1  0
 16 17  1  0
 16 46  1  0
 17 18  2  0
 17 47  1  0
 18 19  1  0
 18 29  1  0
 19 20  2  0
 19 28  1  0
 20 21  1  0
 21 22  2  0
 21 27  1  0
 22 23  1  0
 22 48  1  0
 23 24  2  0
 23 49  1  0
 24 25  1  0
 24 26  1  0
 25 50  1  0
 25 51  1  0
 25 52  1  0
 26 27  2  0
 26 53  1  0
 27 28  1  0
 29 30  2  0
 29 54  1  0
 30 55  1  0
 31 32  2  0
 31 56  1  0
 32 57  1  0
M  END

