
     RDKit          3D

 48 49  0  0  0  0  0  0  0  0999 V2000
    2.8885   -0.6369   -0.1932 C   0  0  0  0  0  0  0  0  0  0  0  0
    2.5300   -1.3154   -1.5215 C   0  0  1  0  0  0  0  0  0  0  0  0
    1.0175   -1.3108   -1.8175 C   0  0  0  0  0  0  0  0  0  0  0  0
    0.4889    0.0752   -2.2222 C   0  0  2  0  0  0  0  0  0  0  0  0
   -0.9917    0.0350   -2.6084 C   0  0  0  0  0  0  0  0  0  0  0  0
    1.3366    0.6459   -3.3680 C   0  0  0  0  0  0  0  0  0  0  0  0
    2.7608    0.6357   -3.0117 N   0  0  0  0  0  0  0  0  0  0  0  0
    3.7394    1.6237   -3.9776 S   0  0  1  0  0  0  0  0  0  0  0  0
    5.1200    1.2274   -3.6879 O   0  0  0  0  0  0  0  0  0  0  0  0
    3.2553    1.6295   -5.3611 O   0  0  0  0  0  0  0  0  0  0  0  0
    3.3994    3.1325   -3.3484 N   0  0  0  0  0  0  0  0  0  0  0  0
    3.7106    3.3653   -1.9331 C   0  0  0  0  0  0  0  0  0  0  0  0
    2.5179    3.9294   -1.1529 C   0  0  0  0  0  0  0  0  0  0  0  0
    1.8124    5.1601   -1.7526 C   0  0  0  0  0  0  0  0  0  0  0  0
    1.0505    4.8954   -3.0665 C   0  0  0  0  0  0  0  0  0  0  0  0
    1.8882    4.8495   -4.3630 C   0  0  0  0  0  0  0  0  0  0  0  0
    3.3261    4.3551   -4.1843 C   0  0  2  0  0  0  0  0  0  0  0  0
    4.1168    4.3360   -5.5116 C   0  0  0  0  0  0  0  0  0  0  0  0
    4.2757    5.6516   -6.0063 O   0  0  0  0  0  0  0  0  0  0  0  0
    3.2879   -0.7061   -2.7122 C   0  0  0  0  0  0  0  0  0  0  0  0
    2.3454   -1.1014    0.6457 H   0  0  0  0  0  0  0  0  0  0  0  0
    2.6430    0.4359   -0.1996 H   0  0  0  0  0  0  0  0  0  0  0  0
    3.9668   -0.7271    0.0151 H   0  0  0  0  0  0  0  0  0  0  0  0
    2.8565   -2.3685   -1.4568 H   0  0  0  0  0  0  0  0  0  0  0  0
    0.4570   -1.6886   -0.9453 H   0  0  0  0  0  0  0  0  0  0  0  0
    0.8147   -2.0149   -2.6459 H   0  0  0  0  0  0  0  0  0  0  0  0
    0.6015    0.7578   -1.3610 H   0  0  0  0  0  0  0  0  0  0  0  0
   -1.1600   -0.6259   -3.4755 H   0  0  0  0  0  0  0  0  0  0  0  0
   -1.3682    1.0364   -2.8738 H   0  0  0  0  0  0  0  0  0  0  0  0
   -1.6067   -0.3447   -1.7770 H   0  0  0  0  0  0  0  0  0  0  0  0
    1.0379    1.6815   -3.5847 H   0  0  0  0  0  0  0  0  0  0  0  0
    1.1650    0.0582   -4.2926 H   0  0  0  0  0  0  0  0  0  0  0  0
    4.5758    4.0520   -1.8632 H   0  0  0  0  0  0  0  0  0  0  0  0
    4.0288    2.4169   -1.4805 H   0  0  0  0  0  0  0  0  0  0  0  0
    2.8733    4.1736   -0.1361 H   0  0  0  0  0  0  0  0  0  0  0  0
    1.7701    3.1255   -1.0347 H   0  0  0  0  0  0  0  0  0  0  0  0
    2.5306    5.9911   -1.8815 H   0  0  0  0  0  0  0  0  0  0  0  0
    1.0865    5.5172   -1.0029 H   0  0  0  0  0  0  0  0  0  0  0  0
    0.2734    5.6678   -3.1893 H   0  0  0  0  0  0  0  0  0  0  0  0
    0.5008    3.9457   -2.9484 H   0  0  0  0  0  0  0  0  0  0  0  0
    1.9580    5.8515   -4.8159 H   0  0  0  0  0  0  0  0  0  0  0  0
    1.3815    4.2110   -5.1064 H   0  0  0  0  0  0  0  0  0  0  0  0
    3.8593    5.1085   -3.5769 H   0  0  0  0  0  0  0  0  0  0  0  0
    3.5784    3.7710   -6.2811 H   0  0  0  0  0  0  0  0  0  0  0  0
    5.0883    3.8303   -5.3536 H   0  0  0  0  0  0  0  0  0  0  0  0
    4.9026    6.1200   -5.4399 H   0  0  0  0  0  0  0  0  0  0  0  0
    4.3590   -0.6156   -2.4945 H   0  0  0  0  0  0  0  0  0  0  0  0
    3.1802   -1.3684   -3.5951 H   0  0  0  0  0  0  0  0  0  0  0  0
  1  2  1  0
  1 21  1  0
  1 22  1  0
  1 23  1  0
  2  3  1  0
  2 20  1  0
  2 24  1  1
  3  4  1  0
  3 25  1  0
  3 26  1  0
  4  5  1  0
  4  6  1  0
  4 27  1  1
  5 28  1  0
  5 29  1  0
  5 30  1  0
  6  7  1  0
  6 31  1  0
  6 32  1  0
  8  7  1  1
  7 20  1  0
  8  9  2  0
  8 10  2  0
  8 11  1  0
 11 12  1  0
 11 17  1  0
 12 13  1  0
 12 33  1  0
 12 34  1  0
 13 14  1  0
 13 35  1  0
 13 36  1  0
 14 15  1  0
 14 37  1  0
 14 38  1  0
 15 16  1  0
 15 39  1  0
 15 40  1  0
 16 17  1  0
 16 41  1  0
 16 42  1  0
 17 18  1  0
 17 43  1  1
 18 19  1  0
 18 44  1  0
 18 45  1  0
 19 46  1  0
 20 47  1  0
 20 48  1  0
M  END

