
     RDKit          3D

 44 46  0  0  0  0  0  0  0  0999 V2000
    2.8812    0.9011   -1.9070 C   0  0  0  0  0  0  0  0  0  0  0  0
    2.1858   -0.0553   -0.9417 C   0  0  1  0  0  0  0  0  0  0  0  0
    3.1305   -1.2091   -0.5179 C   0  0  0  0  0  0  0  0  0  0  0  0
    4.3349   -1.0978   -0.6958 O   0  0  0  0  0  0  0  0  0  0  0  0
    2.5663   -2.3182    0.0501 N   0  0  0  0  0  0  0  0  0  0  0  0
    1.1573   -2.5150    0.3911 C   0  0  0  0  0  0  0  0  0  0  0  0
    0.6860   -3.8908   -0.1107 C   0  0  0  0  0  0  0  0  0  0  0  0
    1.4995   -5.0065    0.3576 N   0  0  0  0  0  0  0  0  0  0  0  0
    1.3167   -5.5115    1.7344 C   0  0  1  0  0  0  0  0  0  0  0  0
   -0.1476   -5.4881    2.2162 C   0  0  0  0  0  0  0  0  0  0  0  0
   -1.0197   -6.5127    1.4847 C   0  0  0  0  0  0  0  0  0  0  0  0
   -0.4922   -7.8177    1.5985 O   0  0  0  0  0  0  0  0  0  0  0  0
    0.8253   -7.9183    1.0899 C   0  0  0  0  0  0  0  0  0  0  0  0
    1.7858   -6.9834    1.8244 C   0  0  0  0  0  0  0  0  0  0  0  0
    2.8926   -4.7608   -0.0174 C   0  0  0  0  0  0  0  0  0  0  0  0
    3.4374   -3.4134    0.4825 C   0  0  0  0  0  0  0  0  0  0  0  0
    1.6910    0.6389    0.2508 N   0  0  0  0  0  0  0  0  0  0  0  0
    2.3870    1.1758    1.2836 C   0  0  0  0  0  0  0  0  0  0  0  0
    1.5626    1.7594    2.1341 N   0  0  0  0  0  0  0  0  0  0  0  0
    0.3466    1.5531    1.5641 C   0  0  0  0  0  0  0  0  0  0  0  0
    0.3733    0.8804    0.4228 N   0  0  0  0  0  0  0  0  0  0  0  0
    3.1512    0.3719   -2.8323 H   0  0  0  0  0  0  0  0  0  0  0  0
    3.8093    1.2931   -1.4695 H   0  0  0  0  0  0  0  0  0  0  0  0
    2.2074    1.7338   -2.1562 H   0  0  0  0  0  0  0  0  0  0  0  0
    1.2839   -0.4589   -1.4195 H   0  0  0  0  0  0  0  0  0  0  0  0
    0.5329   -1.7210   -0.0343 H   0  0  0  0  0  0  0  0  0  0  0  0
    1.0386   -2.4509    1.4899 H   0  0  0  0  0  0  0  0  0  0  0  0
    0.7358   -3.8827   -1.2153 H   0  0  0  0  0  0  0  0  0  0  0  0
   -0.3699   -4.0353    0.1505 H   0  0  0  0  0  0  0  0  0  0  0  0
    1.9111   -4.9155    2.4595 H   0  0  0  0  0  0  0  0  0  0  0  0
   -0.5942   -4.4837    2.1533 H   0  0  0  0  0  0  0  0  0  0  0  0
   -0.1389   -5.7504    3.2868 H   0  0  0  0  0  0  0  0  0  0  0  0
   -1.1307   -6.2370    0.4156 H   0  0  0  0  0  0  0  0  0  0  0  0
   -2.0285   -6.5424    1.9254 H   0  0  0  0  0  0  0  0  0  0  0  0
    0.8378   -7.6832    0.0070 H   0  0  0  0  0  0  0  0  0  0  0  0
    1.1288   -8.9691    1.2154 H   0  0  0  0  0  0  0  0  0  0  0  0
    2.8039   -7.1088    1.4239 H   0  0  0  0  0  0  0  0  0  0  0  0
    1.8285   -7.2724    2.8881 H   0  0  0  0  0  0  0  0  0  0  0  0
    2.9653   -4.7801   -1.1196 H   0  0  0  0  0  0  0  0  0  0  0  0
    3.5361   -5.5692    0.3568 H   0  0  0  0  0  0  0  0  0  0  0  0
    4.4428   -3.2188    0.0891 H   0  0  0  0  0  0  0  0  0  0  0  0
    3.5035   -3.4090    1.5870 H   0  0  0  0  0  0  0  0  0  0  0  0
    3.4720    1.1068    1.3633 H   0  0  0  0  0  0  0  0  0  0  0  0
   -0.5890    1.9048    1.9993 H   0  0  0  0  0  0  0  0  0  0  0  0
  1  2  1  0
  1 22  1  0
  1 23  1  0
  1 24  1  0
  2  3  1  0
  2 17  1  0
  2 25  1  6
  3  4  2  0
  3  5  1  0
  5  6  1  0
  5 16  1  0
  6  7  1  0
  6 26  1  0
  6 27  1  0
  7  8  1  0
  7 28  1  0
  7 29  1  0
  8  9  1  0
  8 15  1  0
  9 10  1  0
  9 14  1  0
  9 30  1  1
 10 11  1  0
 10 31  1  0
 10 32  1  0
 11 12  1  0
 11 33  1  0
 11 34  1  0
 12 13  1  0
 13 14  1  0
 13 35  1  0
 13 36  1  0
 14 37  1  0
 14 38  1  0
 15 16  1  0
 15 39  1  0
 15 40  1  0
 16 41  1  0
 16 42  1  0
 17 18  1  0
 17 21  1  0
 18 19  2  0
 18 43  1  0
 19 20  1  0
 20 21  2  0
 20 44  1  0
M  END

