
     RDKit          3D

 37 39  0  0  0  0  0  0  0  0999 V2000
    1.3113    0.5593   -0.0129 N   0  0  0  0  0  0  0  0  0  0  0  0
    2.4501    0.3649   -0.1033 C   0  0  0  0  0  0  0  0  0  0  0  0
    3.9062    0.1167   -0.2165 C   0  0  1  0  0  0  0  0  0  0  0  0
    4.4783    0.5002    1.0868 N   0  0  0  0  0  0  0  0  0  0  0  0
    5.8065    0.4249    1.4153 C   0  0  0  0  0  0  0  0  0  0  0  0
    6.6688    0.0321    0.6404 O   0  0  0  0  0  0  0  0  0  0  0  0
    6.1296    0.8717    2.8117 C   0  0  1  0  0  0  0  0  0  0  0  0
    7.2925    0.1941    3.5129 C   0  0  0  0  0  0  0  0  0  0  0  0
    7.4501    1.5961    3.0175 C   0  0  2  0  0  0  0  0  0  0  0  0
    7.5949    2.7673    3.9488 C   0  0  1  0  0  0  0  0  0  0  0  0
    6.8124    4.0417    3.7478 C   0  0  0  0  0  0  0  0  0  0  0  0
    6.5447    3.1738    4.9522 C   0  0  0  0  0  0  0  0  0  0  0  0
    4.1403   -1.3910   -0.5207 C   0  0  0  0  0  0  0  0  0  0  0  0
    3.6146   -1.7994   -1.9016 C   0  0  0  0  0  0  0  0  0  0  0  0
    4.2039   -0.9234   -3.0142 C   0  0  0  0  0  0  0  0  0  0  0  0
    3.9514    0.5652   -2.7447 C   0  0  0  0  0  0  0  0  0  0  0  0
    4.4797    0.9896   -1.3696 C   0  0  0  0  0  0  0  0  0  0  0  0
    3.8331    0.8285    1.7946 H   0  0  0  0  0  0  0  0  0  0  0  0
    5.2827    1.1698    3.4361 H   0  0  0  0  0  0  0  0  0  0  0  0
    7.7925   -0.6033    2.9576 H   0  0  0  0  0  0  0  0  0  0  0  0
    7.1877    0.0353    4.5899 H   0  0  0  0  0  0  0  0  0  0  0  0
    8.0319    1.6834    2.0927 H   0  0  0  0  0  0  0  0  0  0  0  0
    8.6301    2.9027    4.2849 H   0  0  0  0  0  0  0  0  0  0  0  0
    6.0598    4.0495    2.9532 H   0  0  0  0  0  0  0  0  0  0  0  0
    7.3211    4.9990    3.8921 H   0  0  0  0  0  0  0  0  0  0  0  0
    5.5995    2.6240    4.9881 H   0  0  0  0  0  0  0  0  0  0  0  0
    6.8839    3.5221    5.9318 H   0  0  0  0  0  0  0  0  0  0  0  0
    3.6739   -1.9911    0.2768 H   0  0  0  0  0  0  0  0  0  0  0  0
    5.2273   -1.5490   -0.4631 H   0  0  0  0  0  0  0  0  0  0  0  0
    2.5123   -1.7263   -1.9184 H   0  0  0  0  0  0  0  0  0  0  0  0
    3.8558   -2.8604   -2.0781 H   0  0  0  0  0  0  0  0  0  0  0  0
    3.7785   -1.2107   -3.9899 H   0  0  0  0  0  0  0  0  0  0  0  0
    5.2924   -1.1021   -3.0807 H   0  0  0  0  0  0  0  0  0  0  0  0
    2.8685    0.7740   -2.8098 H   0  0  0  0  0  0  0  0  0  0  0  0
    4.4318    1.1839   -3.5203 H   0  0  0  0  0  0  0  0  0  0  0  0
    4.2495    2.0469   -1.1631 H   0  0  0  0  0  0  0  0  0  0  0  0
    5.5725    0.8728   -1.3268 H   0  0  0  0  0  0  0  0  0  0  0  0
  1  2  3  0
  3  2  1  1
  3  4  1  0
  3 13  1  0
  3 17  1  0
  4  5  1  0
  4 18  1  0
  5  6  2  0
  5  7  1  0
  7  8  1  0
  7  9  1  0
  7 19  1  1
  8  9  1  0
  8 20  1  0
  8 21  1  0
  9 10  1  0
  9 22  1  6
 10 11  1  0
 10 12  1  0
 10 23  1  1
 11 12  1  0
 11 24  1  0
 11 25  1  0
 12 26  1  0
 12 27  1  0
 13 14  1  0
 13 28  1  0
 13 29  1  0
 14 15  1  0
 14 30  1  0
 14 31  1  0
 15 16  1  0
 15 32  1  0
 15 33  1  0
 16 17  1  0
 16 34  1  0
 16 35  1  0
 17 36  1  0
 17 37  1  0
M  END

