
     RDKit          3D

 37 38  0  0  0  0  0  0  0  0999 V2000
    0.7556   -1.1132    2.1982 C   0  0  0  0  0  0  0  0  0  0  0  0
    2.2679   -0.9024    2.2997 C   0  0  0  0  0  0  0  0  0  0  0  0
    3.0534   -1.2753    1.0315 C   0  0  1  0  0  0  0  0  0  0  0  0
    2.6684   -0.4705   -0.2068 C   0  0  0  0  0  0  0  0  0  0  0  0
    3.0198    1.4786   -0.0532 Br  0  0  0  0  0  0  0  0  0  0  0  0
    4.5857   -1.2516    1.2309 C   0  0  0  0  0  0  0  0  0  0  0  0
    5.0656   -2.1798    2.2492 N   0  0  0  0  0  0  0  0  0  0  0  0
    5.0530   -3.5408    1.9769 C   0  0  0  0  0  0  0  0  0  0  0  0
    4.6630   -4.0550    0.9540 O   0  0  0  0  0  0  0  0  0  0  0  0
    5.6337   -4.2476    3.2346 C   0  0  0  0  0  0  0  0  0  0  0  0
    5.7595   -5.4416    3.3593 O   0  0  0  0  0  0  0  0  0  0  0  0
    5.9634   -3.1502    4.1543 C   0  0  0  0  0  0  0  0  0  0  0  0
    6.5283   -3.2204    5.4246 C   0  0  0  0  0  0  0  0  0  0  0  0
    6.7793   -2.0361    6.1252 C   0  0  0  0  0  0  0  0  0  0  0  0
    7.3927   -2.0370    7.5047 C   0  0  0  0  0  0  0  0  0  0  0  0
    6.4468   -0.8278    5.4893 C   0  0  0  0  0  0  0  0  0  0  0  0
    5.8774   -0.7145    4.2045 C   0  0  0  0  0  0  0  0  0  0  0  0
    5.6028    0.6671    3.6561 C   0  0  0  0  0  0  0  0  0  0  0  0
    5.6256   -1.9260    3.5323 C   0  0  0  0  0  0  0  0  0  0  0  0
    0.2679   -0.9158    3.1657 H   0  0  0  0  0  0  0  0  0  0  0  0
    0.5116   -2.1492    1.9093 H   0  0  0  0  0  0  0  0  0  0  0  0
    0.2908   -0.4394    1.4607 H   0  0  0  0  0  0  0  0  0  0  0  0
    2.6581   -1.5092    3.1334 H   0  0  0  0  0  0  0  0  0  0  0  0
    2.4750    0.1507    2.5573 H   0  0  0  0  0  0  0  0  0  0  0  0
    2.7928   -2.3156    0.7606 H   0  0  0  0  0  0  0  0  0  0  0  0
    1.5979   -0.5442   -0.4281 H   0  0  0  0  0  0  0  0  0  0  0  0
    3.2361   -0.7893   -1.0901 H   0  0  0  0  0  0  0  0  0  0  0  0
    4.9233   -0.2398    1.4687 H   0  0  0  0  0  0  0  0  0  0  0  0
    5.0602   -1.5416    0.2793 H   0  0  0  0  0  0  0  0  0  0  0  0
    6.7653   -4.2000    5.8478 H   0  0  0  0  0  0  0  0  0  0  0  0
    7.5280   -3.0610    7.8822 H   0  0  0  0  0  0  0  0  0  0  0  0
    6.7624   -1.4927    8.2272 H   0  0  0  0  0  0  0  0  0  0  0  0
    8.3812   -1.5473    7.5063 H   0  0  0  0  0  0  0  0  0  0  0  0
    6.6447    0.1056    6.0263 H   0  0  0  0  0  0  0  0  0  0  0  0
    5.8504    1.4276    4.4101 H   0  0  0  0  0  0  0  0  0  0  0  0
    4.5481    0.8119    3.3789 H   0  0  0  0  0  0  0  0  0  0  0  0
    6.2089    0.8884    2.7626 H   0  0  0  0  0  0  0  0  0  0  0  0
  1  2  1  0
  1 20  1  0
  1 21  1  0
  1 22  1  0
  2  3  1  0
  2 23  1  0
  2 24  1  0
  3  4  1  0
  3  6  1  0
  3 25  1  6
  4  5  1  0
  4 26  1  0
  4 27  1  0
  6  7  1  0
  6 28  1  0
  6 29  1  0
  7  8  1  0
  7 19  1  0
  8  9  2  0
  8 10  1  0
 10 11  2  0
 10 12  1  0
 12 13  2  0
 12 19  1  0
 13 14  1  0
 13 30  1  0
 14 15  1  0
 14 16  2  0
 15 31  1  0
 15 32  1  0
 15 33  1  0
 16 17  1  0
 16 34  1  0
 17 18  1  0
 17 19  2  0
 18 35  1  0
 18 36  1  0
 18 37  1  0
M  END

