
     RDKit          3D

 44 46  0  0  0  0  0  0  0  0999 V2000
    8.6332    4.5996   -6.5291 C   0  0  0  0  0  0  0  0  0  0  0  0
    8.7378    3.4829   -5.4906 C   0  0  0  0  0  0  0  0  0  0  0  0
    7.8548    3.6800   -4.3509 N   0  0  0  0  0  0  0  0  0  0  0  0
    6.7976    2.8667   -4.0758 C   0  0  0  0  0  0  0  0  0  0  0  0
    6.5683    1.8652   -4.7627 O   0  0  0  0  0  0  0  0  0  0  0  0
    5.9517    3.2394   -2.8902 C   0  0  0  0  0  0  0  0  0  0  0  0
    5.9354    4.5593   -2.4041 C   0  0  0  0  0  0  0  0  0  0  0  0
    5.1924    4.9228   -1.2847 C   0  0  0  0  0  0  0  0  0  0  0  0
    4.4419    3.9449   -0.6247 C   0  0  0  0  0  0  0  0  0  0  0  0
    4.4092    2.6335   -1.0911 C   0  0  0  0  0  0  0  0  0  0  0  0
    5.1404    2.2626   -2.2386 C   0  0  0  0  0  0  0  0  0  0  0  0
    5.0917    0.9697   -2.7673 N   0  0  0  0  0  0  0  0  0  0  0  0
    4.4849   -0.1506   -2.2591 C   0  0  0  0  0  0  0  0  0  0  0  0
    3.8521   -0.1951   -1.2157 O   0  0  0  0  0  0  0  0  0  0  0  0
    4.6988   -1.3985   -3.1166 C   0  0  0  0  0  0  0  0  0  0  0  0
    3.6044   -2.4350   -2.8579 C   0  0  0  0  0  0  0  0  0  0  0  0
    3.8905   -3.7361   -3.4716 N   0  0  0  0  0  0  0  0  0  0  0  0
    4.3217   -4.7817   -2.6982 C   0  0  0  0  0  0  0  0  0  0  0  0
    4.6068   -5.9725   -3.1281 N   0  0  0  0  0  0  0  0  0  0  0  0
    4.4470   -6.1511   -4.4636 C   0  0  0  0  0  0  0  0  0  0  0  0
    4.7678   -7.6645   -5.2725 S   0  0  0  0  0  0  0  0  0  0  0  0
    4.3117   -6.9739   -6.8080 C   0  0  0  0  0  0  0  0  0  0  0  0
    3.9358   -5.6625   -6.7134 C   0  0  0  0  0  0  0  0  0  0  0  0
    4.0107   -5.1813   -5.3694 C   0  0  0  0  0  0  0  0  0  0  0  0
    3.6984   -3.8502   -4.8794 C   0  0  0  0  0  0  0  0  0  0  0  0
    3.3151   -2.8950   -5.5340 O   0  0  0  0  0  0  0  0  0  0  0  0
    9.3291    4.4142   -7.3628 H   0  0  0  0  0  0  0  0  0  0  0  0
    8.8863    5.5818   -6.0957 H   0  0  0  0  0  0  0  0  0  0  0  0
    7.6136    4.6608   -6.9403 H   0  0  0  0  0  0  0  0  0  0  0  0
    9.7775    3.3963   -5.1282 H   0  0  0  0  0  0  0  0  0  0  0  0
    8.4632    2.5150   -5.9314 H   0  0  0  0  0  0  0  0  0  0  0  0
    8.0679    4.4294   -3.7058 H   0  0  0  0  0  0  0  0  0  0  0  0
    6.4954    5.3337   -2.9336 H   0  0  0  0  0  0  0  0  0  0  0  0
    5.1932    5.9576   -0.9359 H   0  0  0  0  0  0  0  0  0  0  0  0
    3.8577    4.2077    0.2611 H   0  0  0  0  0  0  0  0  0  0  0  0
    3.8163    1.8728   -0.5894 H   0  0  0  0  0  0  0  0  0  0  0  0
    5.5694    0.9021   -3.6752 H   0  0  0  0  0  0  0  0  0  0  0  0
    5.6842   -1.8205   -2.8473 H   0  0  0  0  0  0  0  0  0  0  0  0
    4.7375   -1.1436   -4.1862 H   0  0  0  0  0  0  0  0  0  0  0  0
    2.6497   -2.0750   -3.2656 H   0  0  0  0  0  0  0  0  0  0  0  0
    3.4806   -2.5770   -1.7768 H   0  0  0  0  0  0  0  0  0  0  0  0
    4.4185   -4.5603   -1.6292 H   0  0  0  0  0  0  0  0  0  0  0  0
    4.3508   -7.5927   -7.7037 H   0  0  0  0  0  0  0  0  0  0  0  0
    3.6157   -5.0475   -7.5544 H   0  0  0  0  0  0  0  0  0  0  0  0
  1  2  1  0
  1 27  1  0
  1 28  1  0
  1 29  1  0
  2  3  1  0
  2 30  1  0
  2 31  1  0
  3  4  1  0
  3 32  1  0
  4  5  2  0
  4  6  1  0
  6  7  2  0
  6 11  1  0
  7  8  1  0
  7 33  1  0
  8  9  2  0
  8 34  1  0
  9 10  1  0
  9 35  1  0
 10 11  2  0
 10 36  1  0
 11 12  1  0
 12 13  1  0
 12 37  1  0
 13 14  2  0
 13 15  1  0
 15 16  1  0
 15 38  1  0
 15 39  1  0
 16 17  1  0
 16 40  1  0
 16 41  1  0
 17 18  1  0
 17 25  1  0
 18 19  2  0
 18 42  1  0
 19 20  1  0
 20 21  2  0
 20 24  1  0
 21 22  1  0
 22 23  2  0
 22 43  1  0
 23 24  1  0
 23 44  1  0
 24 25  2  0
 25 26  1  0
M  CHG  2  21   1  26  -1
M  END

