
     RDKit          3D

 42 45  0  0  0  0  0  0  0  0999 V2000
    1.3545   -0.4778   -0.2302 C   0  0  0  0  0  0  0  0  0  0  0  0
    2.8338   -0.2216   -0.1317 C   0  0  0  0  0  0  0  0  0  0  0  0
    3.3295    1.0567   -0.0889 C   0  0  0  0  0  0  0  0  0  0  0  0
    4.7068    1.2213    0.0050 N   0  0  0  0  0  0  0  0  0  0  0  0
    5.5254    2.3357    0.0969 C   0  0  0  0  0  0  0  0  0  0  0  0
    5.0704    3.7319    0.0512 C   0  0  0  0  0  0  0  0  0  0  0  0
    5.6242    4.6795    0.9319 C   0  0  0  0  0  0  0  0  0  0  0  0
    5.2506    6.0223    0.8816 C   0  0  0  0  0  0  0  0  0  0  0  0
    4.2967    6.4554   -0.0504 C   0  0  0  0  0  0  0  0  0  0  0  0
    3.8865    7.7451   -0.1397 O   0  0  0  0  0  0  0  0  0  0  0  0
    3.7338    5.5252   -0.9372 C   0  0  0  0  0  0  0  0  0  0  0  0
    4.1220    4.1893   -0.8881 C   0  0  0  0  0  0  0  0  0  0  0  0
    6.8142    1.8095    0.2313 C   0  0  0  0  0  0  0  0  0  0  0  0
    6.8147    0.4546    0.2194 N   0  0  0  0  0  0  0  0  0  0  0  0
    5.5383    0.1178    0.0836 C   0  0  0  0  0  0  0  0  0  0  0  0
    4.9346   -1.1852    0.0202 C   0  0  0  0  0  0  0  0  0  0  0  0
    5.7788   -2.2527    0.0711 N   0  0  0  0  0  0  0  0  0  0  0  0
    5.3426   -3.6276    0.0867 C   0  0  0  0  0  0  0  0  0  0  0  0
    5.9863   -4.4983   -0.9758 C   0  0  0  0  0  0  0  0  0  0  0  0
    6.0743   -5.8863   -0.7993 C   0  0  0  0  0  0  0  0  0  0  0  0
    6.6357   -6.6693   -1.8108 C   0  0  0  0  0  0  0  0  0  0  0  0
    7.1102   -6.1701   -2.9555 N   0  0  0  0  0  0  0  0  0  0  0  0
    7.0323   -4.8479   -3.1216 C   0  0  0  0  0  0  0  0  0  0  0  0
    6.4863   -3.9755   -2.1744 C   0  0  0  0  0  0  0  0  0  0  0  0
    3.6311   -1.3345   -0.0856 N   0  0  0  0  0  0  0  0  0  0  0  0
    0.7734    0.4549   -0.2603 H   0  0  0  0  0  0  0  0  0  0  0  0
    1.0151   -1.0791    0.6290 H   0  0  0  0  0  0  0  0  0  0  0  0
    1.1305   -1.0640   -1.1364 H   0  0  0  0  0  0  0  0  0  0  0  0
    2.7149    1.9534   -0.1037 H   0  0  0  0  0  0  0  0  0  0  0  0
    6.3524    4.3547    1.6786 H   0  0  0  0  0  0  0  0  0  0  0  0
    5.6941    6.7389    1.5803 H   0  0  0  0  0  0  0  0  0  0  0  0
    4.3520    8.2807    0.5162 H   0  0  0  0  0  0  0  0  0  0  0  0
    3.0025    5.8744   -1.6690 H   0  0  0  0  0  0  0  0  0  0  0  0
    3.6976    3.4920   -1.6138 H   0  0  0  0  0  0  0  0  0  0  0  0
    7.7356    2.3867    0.3108 H   0  0  0  0  0  0  0  0  0  0  0  0
    6.7595   -2.0283    0.2059 H   0  0  0  0  0  0  0  0  0  0  0  0
    4.2510   -3.6059   -0.0639 H   0  0  0  0  0  0  0  0  0  0  0  0
    5.5133   -4.0863    1.0787 H   0  0  0  0  0  0  0  0  0  0  0  0
    5.7118   -6.3571    0.1191 H   0  0  0  0  0  0  0  0  0  0  0  0
    6.7089   -7.7563   -1.6831 H   0  0  0  0  0  0  0  0  0  0  0  0
    7.4275   -4.4494   -4.0641 H   0  0  0  0  0  0  0  0  0  0  0  0
    6.4547   -2.9010   -2.3665 H   0  0  0  0  0  0  0  0  0  0  0  0
  1  2  1  0
  1 26  1  0
  1 27  1  0
  1 28  1  0
  2  3  2  0
  2 25  1  0
  3  4  1  0
  3 29  1  0
  4  5  1  0
  4 15  1  0
  5  6  1  0
  5 13  2  0
  6  7  2  0
  6 12  1  0
  7  8  1  0
  7 30  1  0
  8  9  2  0
  8 31  1  0
  9 10  1  0
  9 11  1  0
 10 32  1  0
 11 12  2  0
 11 33  1  0
 12 34  1  0
 13 14  1  0
 13 35  1  0
 14 15  2  0
 15 16  1  0
 16 17  1  0
 16 25  2  0
 17 18  1  0
 17 36  1  0
 18 19  1  0
 18 37  1  0
 18 38  1  0
 19 20  2  0
 19 24  1  0
 20 21  1  0
 20 39  1  0
 21 22  2  0
 21 40  1  0
 22 23  1  0
 23 24  2  0
 23 41  1  0
 24 42  1  0
M  END

