
     RDKit          3D

 56 61  0  0  0  0  0  0  0  0999 V2000
    0.8862   -0.1515    0.3341 O   0  0  0  0  0  0  0  0  0  0  0  0
    1.4199    0.9346    0.4629 C   0  0  0  0  0  0  0  0  0  0  0  0
    1.6025    1.5502    1.6553 O   0  0  0  0  0  0  0  0  0  0  0  0
    1.1714    0.8382    2.8339 C   0  0  0  0  0  0  0  0  0  0  0  0
    2.2826    0.0155    3.4417 C   0  0  0  0  0  0  0  0  0  0  0  0
    3.0466    0.5251    4.5019 C   0  0  0  0  0  0  0  0  0  0  0  0
    4.0853   -0.2260    5.0595 C   0  0  0  0  0  0  0  0  0  0  0  0
    4.3730   -1.4987    4.5584 C   0  0  0  0  0  0  0  0  0  0  0  0
    3.6176   -2.0159    3.5005 C   0  0  0  0  0  0  0  0  0  0  0  0
    2.5782   -1.2656    2.9456 C   0  0  0  0  0  0  0  0  0  0  0  0
    1.8977    1.6885   -0.5740 N   0  0  0  0  0  0  0  0  0  0  0  0
    1.8153    1.1759   -1.9328 C   0  0  0  0  0  0  0  0  0  0  0  0
    1.1578    2.2061   -2.8586 C   0  0  0  0  0  0  0  0  0  0  0  0
    1.8234    3.5196   -2.7726 N   0  0  0  0  0  0  0  0  0  0  0  0
    2.8931    3.7811   -3.6167 C   0  0  0  0  0  0  0  0  0  0  0  0
    4.0659    4.0665   -3.1569 N   0  0  0  0  0  0  0  0  0  0  0  0
    5.1410    4.2918   -3.9992 C   0  0  0  0  0  0  0  0  0  0  0  0
    6.3941    4.6353   -3.4503 C   0  0  0  0  0  0  0  0  0  0  0  0
    7.4980    4.8007   -4.2772 C   0  0  0  0  0  0  0  0  0  0  0  0
    7.3823    4.6272   -5.6700 C   0  0  0  0  0  0  0  0  0  0  0  0
    6.1564    4.2951   -6.2332 C   0  0  0  0  0  0  0  0  0  0  0  0
    5.0318    4.1281   -5.4048 C   0  0  0  0  0  0  0  0  0  0  0  0
    3.7111    3.8556   -5.9094 C   0  0  0  0  0  0  0  0  0  0  0  0
    3.2662    3.8040   -7.1413 N   0  0  0  0  0  0  0  0  0  0  0  0
    1.9076    3.7168   -7.0802 N   0  0  0  0  0  0  0  0  0  0  0  0
    1.5177    3.7064   -5.8265 C   0  0  0  0  0  0  0  0  0  0  0  0
    0.1009    3.7051   -5.4003 C   0  0  1  0  0  0  0  0  0  0  0  0
   -0.9548    3.9889   -6.4444 C   0  0  0  0  0  0  0  0  0  0  0  0
   -0.8356    2.6046   -5.8861 C   0  0  0  0  0  0  0  0  0  0  0  0
    2.6466    3.7540   -5.0046 N   0  0  0  0  0  0  0  0  0  0  0  0
    1.9292    3.9975   -1.3888 C   0  0  0  0  0  0  0  0  0  0  0  0
    2.5722    2.9761   -0.4430 C   0  0  0  0  0  0  0  0  0  0  0  0
    0.3139    0.2064    2.5658 H   0  0  0  0  0  0  0  0  0  0  0  0
    0.8458    1.6226    3.5311 H   0  0  0  0  0  0  0  0  0  0  0  0
    2.8233    1.5202    4.8980 H   0  0  0  0  0  0  0  0  0  0  0  0
    4.6700    0.1829    5.8877 H   0  0  0  0  0  0  0  0  0  0  0  0
    5.1838   -2.0888    4.9936 H   0  0  0  0  0  0  0  0  0  0  0  0
    3.8375   -3.0120    3.1076 H   0  0  0  0  0  0  0  0  0  0  0  0
    1.9900   -1.6613    2.1144 H   0  0  0  0  0  0  0  0  0  0  0  0
    1.2324    0.2461   -1.9156 H   0  0  0  0  0  0  0  0  0  0  0  0
    2.8307    0.9391   -2.3045 H   0  0  0  0  0  0  0  0  0  0  0  0
    0.1003    2.3350   -2.5745 H   0  0  0  0  0  0  0  0  0  0  0  0
    1.1796    1.8407   -3.8922 H   0  0  0  0  0  0  0  0  0  0  0  0
    6.4677    4.7562   -2.3678 H   0  0  0  0  0  0  0  0  0  0  0  0
    8.4655    5.0646   -3.8426 H   0  0  0  0  0  0  0  0  0  0  0  0
    8.2584    4.7580   -6.3095 H   0  0  0  0  0  0  0  0  0  0  0  0
    6.0381    4.1685   -7.3110 H   0  0  0  0  0  0  0  0  0  0  0  0
   -0.0696    4.0940   -4.3960 H   0  0  0  0  0  0  0  0  0  0  0  0
   -0.5907    4.1590   -7.4599 H   0  0  0  0  0  0  0  0  0  0  0  0
   -1.8041    4.6055   -6.1381 H   0  0  0  0  0  0  0  0  0  0  0  0
   -0.3969    1.8359   -6.5283 H   0  0  0  0  0  0  0  0  0  0  0  0
   -1.5986    2.2450   -5.1894 H   0  0  0  0  0  0  0  0  0  0  0  0
    0.9031    4.2127   -1.0425 H   0  0  0  0  0  0  0  0  0  0  0  0
    2.5055    4.9307   -1.3815 H   0  0  0  0  0  0  0  0  0  0  0  0
    2.4981    3.3192    0.5946 H   0  0  0  0  0  0  0  0  0  0  0  0
    3.6399    2.8677   -0.7012 H   0  0  0  0  0  0  0  0  0  0  0  0
  1  2  2  0
  2  3  1  0
  2 11  1  0
  3  4  1  0
  4  5  1  0
  4 33  1  0
  4 34  1  0
  5  6  2  0
  5 10  1  0
  6  7  1  0
  6 35  1  0
  7  8  2  0
  7 36  1  0
  8  9  1  0
  8 37  1  0
  9 10  2  0
  9 38  1  0
 10 39  1  0
 11 12  1  0
 11 32  1  0
 12 13  1  0
 12 40  1  0
 12 41  1  0
 13 14  1  0
 13 42  1  0
 13 43  1  0
 14 15  1  0
 14 31  1  0
 15 16  2  0
 15 30  1  0
 16 17  1  0
 17 18  2  0
 17 22  1  0
 18 19  1  0
 18 44  1  0
 19 20  2  0
 19 45  1  0
 20 21  1  0
 20 46  1  0
 21 22  2  0
 21 47  1  0
 22 23  1  0
 23 24  2  0
 23 30  1  0
 24 25  1  0
 25 26  2  0
 26 27  1  0
 26 30  1  0
 27 28  1  0
 27 29  1  0
 27 48  1  1
 28 29  1  0
 28 49  1  0
 28 50  1  0
 29 51  1  0
 29 52  1  0
 31 32  1  0
 31 53  1  0
 31 54  1  0
 32 55  1  0
 32 56  1  0
M  END

