
     RDKit          3D

 64 68  0  0  0  0  0  0  0  0999 V2000
    1.7060    0.7012   -0.9853 C   0  0  0  0  0  0  0  0  0  0  0  0
    0.7824    1.5036   -0.4084 C   0  0  0  0  0  0  0  0  0  0  0  0
   -0.6730    1.3617   -0.4549 C   0  0  0  0  0  0  0  0  0  0  0  0
   -1.3449    0.3370   -1.1505 C   0  0  0  0  0  0  0  0  0  0  0  0
   -2.7334    0.2445   -1.1653 C   0  0  0  0  0  0  0  0  0  0  0  0
   -3.5383    1.1817   -0.4770 C   0  0  0  0  0  0  0  0  0  0  0  0
   -4.9385    1.0921   -0.4597 N   0  0  0  0  0  0  0  0  0  0  0  0
   -5.5918   -0.1716   -0.7938 C   0  0  0  0  0  0  0  0  0  0  0  0
   -5.3393   -1.3176    0.2242 C   0  0  1  0  0  0  0  0  0  0  0  0
   -5.9590   -1.0145    1.5878 C   0  0  0  0  0  0  0  0  0  0  0  0
   -7.3104   -1.2812    1.8635 C   0  0  0  0  0  0  0  0  0  0  0  0
   -7.8699   -0.9474    3.1001 C   0  0  0  0  0  0  0  0  0  0  0  0
   -7.0862   -0.3424    4.0880 C   0  0  0  0  0  0  0  0  0  0  0  0
   -5.7388   -0.0777    3.8289 C   0  0  0  0  0  0  0  0  0  0  0  0
   -5.1825   -0.4122    2.5905 C   0  0  0  0  0  0  0  0  0  0  0  0
   -5.7466   -2.6815   -0.3256 C   0  0  0  0  0  0  0  0  0  0  0  0
   -5.0463   -3.8250    0.0965 C   0  0  0  0  0  0  0  0  0  0  0  0
   -5.3937   -5.0971   -0.3612 C   0  0  0  0  0  0  0  0  0  0  0  0
   -6.4545   -5.2549   -1.2594 C   0  0  0  0  0  0  0  0  0  0  0  0
   -7.1588   -4.1295   -1.6914 C   0  0  0  0  0  0  0  0  0  0  0  0
   -6.8076   -2.8558   -1.2293 C   0  0  0  0  0  0  0  0  0  0  0  0
   -5.7375    2.2698   -0.3920 C   0  0  0  0  0  0  0  0  0  0  0  0
   -5.4293    3.3910   -1.1858 C   0  0  0  0  0  0  0  0  0  0  0  0
   -6.2283    4.5339   -1.1399 C   0  0  0  0  0  0  0  0  0  0  0  0
   -7.3602    4.5767   -0.3187 C   0  0  0  0  0  0  0  0  0  0  0  0
   -7.6779    3.4630    0.4630 C   0  0  0  0  0  0  0  0  0  0  0  0
   -6.8719    2.3216    0.4371 C   0  0  0  0  0  0  0  0  0  0  0  0
   -2.8710    2.2052    0.2335 C   0  0  0  0  0  0  0  0  0  0  0  0
   -1.4844    2.2897    0.2334 C   0  0  0  0  0  0  0  0  0  0  0  0
    3.1644    0.8502   -0.9366 C   0  0  0  0  0  0  0  0  0  0  0  0
    3.8206    1.8971   -0.2526 C   0  0  0  0  0  0  0  0  0  0  0  0
    5.2109    1.9877   -0.2404 C   0  0  0  0  0  0  0  0  0  0  0  0
    5.9920    1.0373   -0.9102 C   0  0  0  0  0  0  0  0  0  0  0  0
    5.3620   -0.0064   -1.5932 C   0  0  0  0  0  0  0  0  0  0  0  0
    3.9691   -0.0965   -1.6048 C   0  0  0  0  0  0  0  0  0  0  0  0
    1.3619   -0.1658   -1.5591 H   0  0  0  0  0  0  0  0  0  0  0  0
    1.1294    2.3681    0.1679 H   0  0  0  0  0  0  0  0  0  0  0  0
   -0.7732   -0.4095   -1.7065 H   0  0  0  0  0  0  0  0  0  0  0  0
   -3.1922   -0.5655   -1.7324 H   0  0  0  0  0  0  0  0  0  0  0  0
   -5.2748   -0.5135   -1.7963 H   0  0  0  0  0  0  0  0  0  0  0  0
   -6.6672    0.0323   -0.8693 H   0  0  0  0  0  0  0  0  0  0  0  0
   -4.2507   -1.3601    0.3803 H   0  0  0  0  0  0  0  0  0  0  0  0
   -7.9326   -1.7660    1.1073 H   0  0  0  0  0  0  0  0  0  0  0  0
   -8.9229   -1.1676    3.2948 H   0  0  0  0  0  0  0  0  0  0  0  0
   -7.5226   -0.0845    5.0564 H   0  0  0  0  0  0  0  0  0  0  0  0
   -5.1146    0.3907    4.5944 H   0  0  0  0  0  0  0  0  0  0  0  0
   -4.1277   -0.1989    2.3971 H   0  0  0  0  0  0  0  0  0  0  0  0
   -4.2154   -3.7126    0.7990 H   0  0  0  0  0  0  0  0  0  0  0  0
   -4.8315   -5.9695   -0.0177 H   0  0  0  0  0  0  0  0  0  0  0  0
   -6.7275   -6.2493   -1.6216 H   0  0  0  0  0  0  0  0  0  0  0  0
   -7.9879   -4.2388   -2.3955 H   0  0  0  0  0  0  0  0  0  0  0  0
   -7.3762   -1.9943   -1.5864 H   0  0  0  0  0  0  0  0  0  0  0  0
   -4.5581    3.3592   -1.8429 H   0  0  0  0  0  0  0  0  0  0  0  0
   -5.9721    5.3932   -1.7654 H   0  0  0  0  0  0  0  0  0  0  0  0
   -7.9880    5.4706   -0.2894 H   0  0  0  0  0  0  0  0  0  0  0  0
   -8.5546    3.4830    1.1157 H   0  0  0  0  0  0  0  0  0  0  0  0
   -7.1133    1.4692    1.0736 H   0  0  0  0  0  0  0  0  0  0  0  0
   -3.4544    2.9363    0.7947 H   0  0  0  0  0  0  0  0  0  0  0  0
   -1.0060    3.0958    0.7975 H   0  0  0  0  0  0  0  0  0  0  0  0
    3.2359    2.6518    0.2777 H   0  0  0  0  0  0  0  0  0  0  0  0
    5.6930    2.8087    0.2972 H   0  0  0  0  0  0  0  0  0  0  0  0
    7.0823    1.1120   -0.8983 H   0  0  0  0  0  0  0  0  0  0  0  0
    5.9582   -0.7557   -2.1207 H   0  0  0  0  0  0  0  0  0  0  0  0
    3.4853   -0.9173   -2.1422 H   0  0  0  0  0  0  0  0  0  0  0  0
  1  2  2  0
  1 30  1  0
  1 36  1  0
  2  3  1  0
  2 37  1  0
  3  4  2  0
  3 29  1  0
  4  5  1  0
  4 38  1  0
  5  6  2  0
  5 39  1  0
  6  7  1  0
  6 28  1  0
  7  8  1  0
  7 22  1  0
  8  9  1  0
  8 40  1  0
  8 41  1  0
  9 10  1  0
  9 16  1  0
  9 42  1  1
 10 11  2  0
 10 15  1  0
 11 12  1  0
 11 43  1  0
 12 13  2  0
 12 44  1  0
 13 14  1  0
 13 45  1  0
 14 15  2  0
 14 46  1  0
 15 47  1  0
 16 17  2  0
 16 21  1  0
 17 18  1  0
 17 48  1  0
 18 19  2  0
 18 49  1  0
 19 20  1  0
 19 50  1  0
 20 21  2  0
 20 51  1  0
 21 52  1  0
 22 23  2  0
 22 27  1  0
 23 24  1  0
 23 53  1  0
 24 25  2  0
 24 54  1  0
 25 26  1  0
 25 55  1  0
 26 27  2  0
 26 56  1  0
 27 57  1  0
 28 29  2  0
 28 58  1  0
 29 59  1  0
 30 31  2  0
 30 35  1  0
 31 32  1  0
 31 60  1  0
 32 33  2  0
 32 61  1  0
 33 34  1  0
 33 62  1  0
 34 35  2  0
 34 63  1  0
 35 64  1  0
M  END

