
     RDKit          3D

 38 41  0  0  0  0  0  0  0  0999 V2000
    0.9756    0.2225    0.3048 S   0  0  0  0  0  0  0  0  0  0  0  0
    2.6006    0.1578    0.4755 C   0  0  0  0  0  0  0  0  0  0  0  0
    3.4790    1.0582    1.0015 N   0  0  0  0  0  0  0  0  0  0  0  0
    3.2252    1.9595    1.3879 H   0  0  0  0  0  0  0  0  0  0  0  0
    4.7744    0.6414    0.9682 N   0  0  0  0  0  0  0  0  0  0  0  0
    4.7054   -0.5295    0.4169 C   0  0  0  0  0  0  0  0  0  0  0  0
    5.7987   -1.4462    0.1270 C   0  0  0  0  0  0  0  0  0  0  0  0
    7.1210   -1.0941    0.4528 C   0  0  0  0  0  0  0  0  0  0  0  0
    8.1622   -1.9706    0.1751 C   0  0  0  0  0  0  0  0  0  0  0  0
    7.9324   -3.2251   -0.4336 C   0  0  0  0  0  0  0  0  0  0  0  0
    9.0749   -4.1010   -0.6973 C   0  0  0  0  0  0  0  0  0  0  0  0
    9.0446   -5.3315   -1.2596 C   0  0  0  0  0  0  0  0  0  0  0  0
   10.1870   -6.2072   -1.5233 C   0  0  0  0  0  0  0  0  0  0  0  0
   11.5243   -5.8605   -1.2187 C   0  0  0  0  0  0  0  0  0  0  0  0
   12.5716   -6.7282   -1.4888 C   0  0  0  0  0  0  0  0  0  0  0  0
   12.3230   -7.9849   -2.0779 C   0  0  0  0  0  0  0  0  0  0  0  0
   13.4283   -8.8899   -2.3579 C   0  0  0  0  0  0  0  0  0  0  0  0
   14.6898   -8.6981   -2.1304 N   0  0  0  0  0  0  0  0  0  0  0  0
   15.2748   -9.8434   -2.5761 N   0  0  0  0  0  0  0  0  0  0  0  0
   16.2774   -9.9781   -2.5236 H   0  0  0  0  0  0  0  0  0  0  0  0
   14.3897  -10.7497   -3.0804 C   0  0  0  0  0  0  0  0  0  0  0  0
   14.6274  -12.2368   -3.7177 S   0  0  0  0  0  0  0  0  0  0  0  0
   13.1780  -10.1056   -2.9290 O   0  0  0  0  0  0  0  0  0  0  0  0
   11.0015   -8.3463   -2.3878 C   0  0  0  0  0  0  0  0  0  0  0  0
    9.9573   -7.4679   -2.1126 C   0  0  0  0  0  0  0  0  0  0  0  0
    6.5990   -3.5615   -0.7541 C   0  0  0  0  0  0  0  0  0  0  0  0
    5.5505   -2.6919   -0.4807 C   0  0  0  0  0  0  0  0  0  0  0  0
    3.4252   -0.8823    0.0952 O   0  0  0  0  0  0  0  0  0  0  0  0
    7.3175   -0.1292    0.9238 H   0  0  0  0  0  0  0  0  0  0  0  0
    9.1854   -1.6851    0.4332 H   0  0  0  0  0  0  0  0  0  0  0  0
   10.0408   -3.6852   -0.3938 H   0  0  0  0  0  0  0  0  0  0  0  0
    8.0786   -5.7486   -1.5610 H   0  0  0  0  0  0  0  0  0  0  0  0
   11.7481   -4.8943   -0.7628 H   0  0  0  0  0  0  0  0  0  0  0  0
   13.5986   -6.4470   -1.2483 H   0  0  0  0  0  0  0  0  0  0  0  0
   10.7990   -9.3166   -2.8442 H   0  0  0  0  0  0  0  0  0  0  0  0
    8.9335   -7.7614   -2.3588 H   0  0  0  0  0  0  0  0  0  0  0  0
    6.3748   -4.5195   -1.2266 H   0  0  0  0  0  0  0  0  0  0  0  0
    4.5269   -2.9708   -0.7364 H   0  0  0  0  0  0  0  0  0  0  0  0
  1  2  2  0
  2  3  1  0
  2 28  1  0
  3  4  1  0
  3  5  1  0
  5  6  2  0
  6  7  1  0
  6 28  1  0
  7  8  2  0
  7 27  1  0
  8  9  1  0
  8 29  1  0
  9 10  2  0
  9 30  1  0
 10 11  1  0
 10 26  1  0
 11 12  2  0
 11 31  1  0
 12 13  1  0
 12 32  1  0
 13 14  2  0
 13 25  1  0
 14 15  1  0
 14 33  1  0
 15 16  2  0
 15 34  1  0
 16 17  1  0
 16 24  1  0
 17 18  2  0
 17 23  1  0
 18 19  1  0
 19 20  1  0
 19 21  1  0
 21 22  2  0
 21 23  1  0
 24 25  2  0
 24 35  1  0
 25 36  1  0
 26 27  2  0
 26 37  1  0
 27 38  1  0
M  END

