
     RDKit          3D

 81 91  0  0  0  0  0  0  0  0999 V2000
    4.0459    1.3370    2.9502 F   0  0  0  0  0  0  0  0  0  0  0  0
    3.9628    0.4809    1.8519 B   0  0  1  0  0  0  0  0  0  0  0  0
    2.7126   -0.1305    1.7996 F   0  0  0  0  0  0  0  0  0  0  0  0
    4.2186    1.3235    0.5491 N   0  0  0  0  0  0  0  0  0  0  0  0
    5.2965    1.0961   -0.2927 C   0  0  0  0  0  0  0  0  0  0  0  0
    5.3104    2.0815   -1.3300 C   0  0  0  0  0  0  0  0  0  0  0  0
    6.3111    2.1802   -2.4134 C   0  0  0  0  0  0  0  0  0  0  0  0
    5.9130    2.1913   -3.7645 C   0  0  0  0  0  0  0  0  0  0  0  0
    6.8571    2.2853   -4.7887 C   0  0  0  0  0  0  0  0  0  0  0  0
    8.2199    2.3691   -4.4853 C   0  0  0  0  0  0  0  0  0  0  0  0
    8.6308    2.3577   -3.1496 C   0  0  0  0  0  0  0  0  0  0  0  0
    7.6868    2.2649   -2.1235 C   0  0  0  0  0  0  0  0  0  0  0  0
    4.2160    2.9100   -1.0904 C   0  0  0  0  0  0  0  0  0  0  0  0
    3.5448    2.4181    0.0751 C   0  0  0  0  0  0  0  0  0  0  0  0
    2.3611    3.0695    0.6049 C   0  0  0  0  0  0  0  0  0  0  0  0
    1.5652    2.6285    1.6184 C   0  0  0  0  0  0  0  0  0  0  0  0
    0.4260    3.4009    2.0656 C   0  0  0  0  0  0  0  0  0  0  0  0
   -0.3216    3.0759    3.2135 C   0  0  0  0  0  0  0  0  0  0  0  0
   -1.4455    3.8193    3.5699 C   0  0  0  0  0  0  0  0  0  0  0  0
   -1.8485    4.8941    2.7652 C   0  0  0  0  0  0  0  0  0  0  0  0
   -1.1292    5.2319    1.6156 C   0  0  0  0  0  0  0  0  0  0  0  0
    0.0067    4.4937    1.2735 C   0  0  0  0  0  0  0  0  0  0  0  0
    0.6590    4.7969    0.1260 O   0  0  0  0  0  0  0  0  0  0  0  0
    2.0356    4.4286   -0.0185 C   0  0  2  0  0  0  0  0  0  0  0  0
    2.3281    4.4836   -1.5149 C   0  0  0  0  0  0  0  0  0  0  0  0
    3.7939    4.1627   -1.8041 C   0  0  0  0  0  0  0  0  0  0  0  0
    6.1630    0.0224   -0.0946 C   0  0  0  0  0  0  0  0  0  0  0  0
    6.0409   -0.8330    0.9980 C   0  0  0  0  0  0  0  0  0  0  0  0
    6.7818   -2.0213    1.2995 C   0  0  0  0  0  0  0  0  0  0  0  0
    7.9200   -2.5485    0.5170 C   0  0  0  0  0  0  0  0  0  0  0  0
    7.8960   -3.8570   -0.0034 C   0  0  0  0  0  0  0  0  0  0  0  0
    8.9725   -4.3540   -0.7409 C   0  0  0  0  0  0  0  0  0  0  0  0
   10.0951   -3.5538   -0.9758 C   0  0  0  0  0  0  0  0  0  0  0  0
   10.1324   -2.2521   -0.4681 C   0  0  0  0  0  0  0  0  0  0  0  0
    9.0567   -1.7541    0.2714 C   0  0  0  0  0  0  0  0  0  0  0  0
    6.2051   -2.5522    2.4507 C   0  0  0  0  0  0  0  0  0  0  0  0
    6.5631   -3.7789    3.2394 C   0  0  0  0  0  0  0  0  0  0  0  0
    5.3264   -4.3027    3.9749 C   0  0  0  0  0  0  0  0  0  0  0  0
    4.7109   -3.1999    4.8233 C   0  0  2  0  0  0  0  0  0  0  0  0
    3.5475   -3.7482    5.4531 O   0  0  0  0  0  0  0  0  0  0  0  0
    2.7840   -2.8876    6.1702 C   0  0  0  0  0  0  0  0  0  0  0  0
    1.9969   -3.3855    7.2118 C   0  0  0  0  0  0  0  0  0  0  0  0
    1.1846   -2.5111    7.9378 C   0  0  0  0  0  0  0  0  0  0  0  0
    1.1453   -1.1445    7.6239 C   0  0  0  0  0  0  0  0  0  0  0  0
    1.9104   -0.6580    6.5664 C   0  0  0  0  0  0  0  0  0  0  0  0
    2.7411   -1.5163    5.8186 C   0  0  0  0  0  0  0  0  0  0  0  0
    3.4693   -1.0897    4.6429 C   0  0  0  0  0  0  0  0  0  0  0  0
    4.3793   -1.9184    4.0542 C   0  0  0  0  0  0  0  0  0  0  0  0
    5.1482   -1.6732    2.8527 C   0  0  0  0  0  0  0  0  0  0  0  0
    5.0550   -0.6456    1.9542 N   0  0  0  0  0  0  0  0  0  0  0  0
    4.8523    2.1011   -4.0104 H   0  0  0  0  0  0  0  0  0  0  0  0
    6.5271    2.2853   -5.8307 H   0  0  0  0  0  0  0  0  0  0  0  0
    8.9584    2.4426   -5.2876 H   0  0  0  0  0  0  0  0  0  0  0  0
    9.6933    2.4283   -2.9026 H   0  0  0  0  0  0  0  0  0  0  0  0
    8.0135    2.2798   -1.0811 H   0  0  0  0  0  0  0  0  0  0  0  0
    1.7486    1.6692    2.0950 H   0  0  0  0  0  0  0  0  0  0  0  0
   -0.0053    2.2236    3.8208 H   0  0  0  0  0  0  0  0  0  0  0  0
   -2.0135    3.5608    4.4663 H   0  0  0  0  0  0  0  0  0  0  0  0
   -2.7327    5.4772    3.0354 H   0  0  0  0  0  0  0  0  0  0  0  0
   -1.4326    6.0596    0.9715 H   0  0  0  0  0  0  0  0  0  0  0  0
    2.6457    5.2028    0.4963 H   0  0  0  0  0  0  0  0  0  0  0  0
    2.0583    5.4815   -1.8924 H   0  0  0  0  0  0  0  0  0  0  0  0
    1.6679    3.7545   -2.0137 H   0  0  0  0  0  0  0  0  0  0  0  0
    4.4313    5.0034   -1.4699 H   0  0  0  0  0  0  0  0  0  0  0  0
    3.9609    4.0786   -2.8879 H   0  0  0  0  0  0  0  0  0  0  0  0
    6.9527   -0.1596   -0.8233 H   0  0  0  0  0  0  0  0  0  0  0  0
    7.0121   -4.4795    0.1536 H   0  0  0  0  0  0  0  0  0  0  0  0
    8.9308   -5.3701   -1.1416 H   0  0  0  0  0  0  0  0  0  0  0  0
   10.9371   -3.9435   -1.5534 H   0  0  0  0  0  0  0  0  0  0  0  0
   11.0076   -1.6209   -0.6428 H   0  0  0  0  0  0  0  0  0  0  0  0
    9.1014   -0.7433    0.6837 H   0  0  0  0  0  0  0  0  0  0  0  0
    7.3565   -3.5388    3.9726 H   0  0  0  0  0  0  0  0  0  0  0  0
    6.9847   -4.5572    2.5876 H   0  0  0  0  0  0  0  0  0  0  0  0
    5.5786   -5.1549    4.6240 H   0  0  0  0  0  0  0  0  0  0  0  0
    4.5694   -4.6496    3.2517 H   0  0  0  0  0  0  0  0  0  0  0  0
    5.4290   -2.9342    5.6300 H   0  0  0  0  0  0  0  0  0  0  0  0
    2.0396   -4.4523    7.4400 H   0  0  0  0  0  0  0  0  0  0  0  0
    0.5792   -2.8994    8.7609 H   0  0  0  0  0  0  0  0  0  0  0  0
    0.5103   -0.4674    8.1994 H   0  0  0  0  0  0  0  0  0  0  0  0
    1.8716    0.4007    6.2956 H   0  0  0  0  0  0  0  0  0  0  0  0
    3.2665   -0.0992    4.2425 H   0  0  0  0  0  0  0  0  0  0  0  0
  2  1  1  1
  2  3  1  0
  2  4  1  0
  2 50  1  0
  4  5  1  0
  4 14  1  0
  5  6  2  0
  5 27  1  0
  6  7  1  0
  6 13  1  0
  7  8  2  0
  7 12  1  0
  8  9  1  0
  8 51  1  0
  9 10  2  0
  9 52  1  0
 10 11  1  0
 10 53  1  0
 11 12  2  0
 11 54  1  0
 12 55  1  0
 13 14  2  0
 13 26  1  0
 14 15  1  0
 15 16  2  0
 15 24  1  0
 16 17  1  0
 16 56  1  0
 17 18  2  0
 17 22  1  0
 18 19  1  0
 18 57  1  0
 19 20  2  0
 19 58  1  0
 20 21  1  0
 20 59  1  0
 21 22  2  0
 21 60  1  0
 22 23  1  0
 23 24  1  0
 24 25  1  0
 24 61  1  1
 25 26  1  0
 25 62  1  0
 25 63  1  0
 26 64  1  0
 26 65  1  0
 27 28  2  0
 27 66  1  0
 28 29  1  0
 28 50  1  0
 29 30  1  0
 29 36  2  0
 30 31  2  0
 30 35  1  0
 31 32  1  0
 31 67  1  0
 32 33  2  0
 32 68  1  0
 33 34  1  0
 33 69  1  0
 34 35  2  0
 34 70  1  0
 35 71  1  0
 36 37  1  0
 36 49  1  0
 37 38  1  0
 37 72  1  0
 37 73  1  0
 38 39  1  0
 38 74  1  0
 38 75  1  0
 39 40  1  0
 39 48  1  0
 39 76  1  1
 40 41  1  0
 41 42  2  0
 41 46  1  0
 42 43  1  0
 42 77  1  0
 43 44  2  0
 43 78  1  0
 44 45  1  0
 44 79  1  0
 45 46  2  0
 45 80  1  0
 46 47  1  0
 47 48  2  0
 47 81  1  0
 48 49  1  0
 49 50  2  0
M  CHG  2   2  -1  50   1
M  END

