
     RDKit          3D

 52 55  0  0  0  0  0  0  0  0999 V2000
    0.9566   -0.0558    0.0341 C   0  0  0  0  0  0  0  0  0  0  0  0
    2.4800    0.0845    0.1149 C   0  0  2  0  0  0  0  0  0  0  0  0
    2.8755    1.1608    1.1515 C   0  0  0  0  0  0  0  0  0  0  0  0
    4.4058    1.2930    1.2296 C   0  0  2  0  0  0  0  0  0  0  0  0
    4.9590    1.6978   -0.1483 C   0  0  0  0  0  0  0  0  0  0  0  0
    4.5986    0.6342   -1.2113 C   0  0  2  0  0  0  0  0  0  0  0  0
    5.1468    1.0327   -2.5853 C   0  0  0  0  0  0  0  0  0  0  0  0
    3.0606    0.4930   -1.2578 C   0  0  0  0  0  0  0  0  0  0  0  0
    5.2022   -0.7188   -0.7668 C   0  0  0  0  0  0  0  0  0  0  0  0
    4.6558   -1.1486    0.6203 C   0  0  1  0  0  0  0  0  0  0  0  0
    5.2373   -2.5138    1.0340 C   0  0  0  0  0  0  0  0  0  0  0  0
    4.5414   -3.5002    1.2295 O   0  0  0  0  0  0  0  0  0  0  0  0
    6.5983   -2.5589    1.1759 N   0  0  0  0  0  0  0  0  0  0  0  0
    7.2799   -3.7743    1.5886 C   0  0  1  0  0  0  0  0  0  0  0  0
    7.7318   -4.6503    0.3966 C   0  0  0  0  0  0  0  0  0  0  0  0
    8.8055   -4.0050   -0.4910 C   0  0  0  0  0  0  0  0  0  0  0  0
   10.0991   -3.6836    0.2633 C   0  0  0  0  0  0  0  0  0  0  0  0
    9.7910   -2.5651    1.6603 S   0  0  2  0  0  0  0  0  0  0  0  0
    9.2064   -1.3202    1.1085 O   0  0  0  0  0  0  0  0  0  0  0  0
   10.9805   -2.5057    2.5151 O   0  0  0  0  0  0  0  0  0  0  0  0
    8.4535   -3.4414    2.5255 C   0  0  0  0  0  0  0  0  0  0  0  0
    5.0224   -0.0519    1.6552 C   0  0  0  0  0  0  0  0  0  0  0  0
    3.1194   -1.2572    0.5351 C   0  0  0  0  0  0  0  0  0  0  0  0
    0.4843    0.8946   -0.2660 H   0  0  0  0  0  0  0  0  0  0  0  0
    0.5323   -0.3498    1.0085 H   0  0  0  0  0  0  0  0  0  0  0  0
    0.6662   -0.8235   -0.7024 H   0  0  0  0  0  0  0  0  0  0  0  0
    2.4655    0.8914    2.1408 H   0  0  0  0  0  0  0  0  0  0  0  0
    2.4249    2.1302    0.8744 H   0  0  0  0  0  0  0  0  0  0  0  0
    4.6732    2.0629    1.9735 H   0  0  0  0  0  0  0  0  0  0  0  0
    6.0556    1.8184   -0.0986 H   0  0  0  0  0  0  0  0  0  0  0  0
    4.5458    2.6764   -0.4497 H   0  0  0  0  0  0  0  0  0  0  0  0
    4.7264    1.9974   -2.9148 H   0  0  0  0  0  0  0  0  0  0  0  0
    4.8943    0.2786   -3.3494 H   0  0  0  0  0  0  0  0  0  0  0  0
    6.2446    1.1355   -2.5628 H   0  0  0  0  0  0  0  0  0  0  0  0
    2.7805   -0.2601   -2.0164 H   0  0  0  0  0  0  0  0  0  0  0  0
    2.6120    1.4491   -1.5828 H   0  0  0  0  0  0  0  0  0  0  0  0
    6.3020   -0.6298   -0.7390 H   0  0  0  0  0  0  0  0  0  0  0  0
    4.9642   -1.4966   -1.5137 H   0  0  0  0  0  0  0  0  0  0  0  0
    7.1742   -1.7401    0.9943 H   0  0  0  0  0  0  0  0  0  0  0  0
    6.5428   -4.3565    2.1633 H   0  0  0  0  0  0  0  0  0  0  0  0
    6.8396   -4.8835   -0.2037 H   0  0  0  0  0  0  0  0  0  0  0  0
    8.1055   -5.6124    0.7918 H   0  0  0  0  0  0  0  0  0  0  0  0
    8.4158   -3.0767   -0.9388 H   0  0  0  0  0  0  0  0  0  0  0  0
    9.0521   -4.6764   -1.3297 H   0  0  0  0  0  0  0  0  0  0  0  0
   10.8380   -3.1471   -0.3515 H   0  0  0  0  0  0  0  0  0  0  0  0
   10.5816   -4.5745    0.6951 H   0  0  0  0  0  0  0  0  0  0  0  0
    8.1613   -2.7682    3.3455 H   0  0  0  0  0  0  0  0  0  0  0  0
    8.9113   -4.3465    2.9511 H   0  0  0  0  0  0  0  0  0  0  0  0
    6.1170    0.0528    1.7405 H   0  0  0  0  0  0  0  0  0  0  0  0
    4.6509   -0.3455    2.6520 H   0  0  0  0  0  0  0  0  0  0  0  0
    2.7206   -1.5815    1.5097 H   0  0  0  0  0  0  0  0  0  0  0  0
    2.8481   -2.0497   -0.1808 H   0  0  0  0  0  0  0  0  0  0  0  0
  2  1  1  6
  1 24  1  0
  1 25  1  0
  1 26  1  0
  2  3  1  0
  2  8  1  0
  2 23  1  0
  3  4  1  0
  3 27  1  0
  3 28  1  0
  4  5  1  0
  4 22  1  0
  4 29  1  1
  5  6  1  0
  5 30  1  0
  5 31  1  0
  6  7  1  6
  6  8  1  0
  6  9  1  0
  7 32  1  0
  7 33  1  0
  7 34  1  0
  8 35  1  0
  8 36  1  0
  9 10  1  0
  9 37  1  0
  9 38  1  0
 10 11  1  1
 10 22  1  0
 10 23  1  0
 11 12  2  0
 11 13  1  0
 13 14  1  0
 13 39  1  0
 14 15  1  0
 14 21  1  0
 14 40  1  1
 15 16  1  0
 15 41  1  0
 15 42  1  0
 16 17  1  0
 16 43  1  0
 16 44  1  0
 18 17  1  6
 17 45  1  0
 17 46  1  0
 18 19  2  0
 18 20  2  0
 18 21  1  0
 21 47  1  0
 21 48  1  0
 22 49  1  0
 22 50  1  0
 23 51  1  0
 23 52  1  0
M  END

