
     RDKit          3D

 28 29  0  0  0  0  0  0  0  0999 V2000
    4.7349   -2.4160    0.7229 C   0  0  0  0  0  0  0  0  0  0  0  0
    4.1253   -1.0683    0.4544 C   0  0  0  0  0  0  0  0  0  0  0  0
    4.9113    0.0804    0.3912 C   0  0  0  0  0  0  0  0  0  0  0  0
    4.3039    1.3260    0.1380 C   0  0  0  0  0  0  0  0  0  0  0  0
    5.1101    2.4025    0.0896 O   0  0  0  0  0  0  0  0  0  0  0  0
    4.5204    3.6750   -0.1744 C   0  0  0  0  0  0  0  0  0  0  0  0
    5.5993    4.7294   -0.2203 C   0  0  0  0  0  0  0  0  0  0  0  0
    6.8952    4.4346   -0.6682 C   0  0  0  0  0  0  0  0  0  0  0  0
    7.8627    5.4398   -0.7489 C   0  0  0  0  0  0  0  0  0  0  0  0
    7.5477    6.7536   -0.3887 C   0  0  0  0  0  0  0  0  0  0  0  0
    6.2586    7.0554    0.0597 C   0  0  0  0  0  0  0  0  0  0  0  0
    5.2940    6.0480    0.1477 C   0  0  0  0  0  0  0  0  0  0  0  0
    3.0001    1.4741   -0.0477 N   0  0  0  0  0  0  0  0  0  0  0  0
    2.2287    0.3832    0.0081 C   0  0  0  0  0  0  0  0  0  0  0  0
    2.7371   -0.8891    0.2523 C   0  0  0  0  0  0  0  0  0  0  0  0
    1.5323   -2.3682    0.3087 Br  0  0  0  0  0  0  0  0  0  0  0  0
    5.8230   -2.3389    0.8556 H   0  0  0  0  0  0  0  0  0  0  0  0
    4.5293   -3.1123   -0.1060 H   0  0  0  0  0  0  0  0  0  0  0  0
    4.3005   -2.8703    1.6280 H   0  0  0  0  0  0  0  0  0  0  0  0
    5.9921    0.0340    0.5365 H   0  0  0  0  0  0  0  0  0  0  0  0
    3.7695    3.9088    0.5981 H   0  0  0  0  0  0  0  0  0  0  0  0
    3.9716    3.6268   -1.1322 H   0  0  0  0  0  0  0  0  0  0  0  0
    7.1442    3.4083   -0.9440 H   0  0  0  0  0  0  0  0  0  0  0  0
    8.8702    5.1946   -1.0955 H   0  0  0  0  0  0  0  0  0  0  0  0
    8.3056    7.5386   -0.4526 H   0  0  0  0  0  0  0  0  0  0  0  0
    6.0040    8.0777    0.3511 H   0  0  0  0  0  0  0  0  0  0  0  0
    4.2903    6.2895    0.5104 H   0  0  0  0  0  0  0  0  0  0  0  0
    1.1542    0.5242   -0.1482 H   0  0  0  0  0  0  0  0  0  0  0  0
  1  2  1  0
  1 17  1  0
  1 18  1  0
  1 19  1  0
  2  3  2  0
  2 15  1  0
  3  4  1  0
  3 20  1  0
  4  5  1  0
  4 13  2  0
  5  6  1  0
  6  7  1  0
  6 21  1  0
  6 22  1  0
  7  8  2  0
  7 12  1  0
  8  9  1  0
  8 23  1  0
  9 10  2  0
  9 24  1  0
 10 11  1  0
 10 25  1  0
 11 12  2  0
 11 26  1  0
 12 27  1  0
 13 14  1  0
 14 15  2  0
 14 28  1  0
 15 16  1  0
M  END

