
     RDKit          3D

 40 43  0  0  0  0  0  0  0  0999 V2000
    4.2966   -2.1036   -0.7305 O   0  0  0  0  0  0  0  0  0  0  0  0
    4.0659   -0.9305   -0.4771 C   0  0  0  0  0  0  0  0  0  0  0  0
    3.2180   -0.1537   -1.2117 N   0  0  0  0  0  0  0  0  0  0  0  0
    2.4993   -0.6452   -2.3801 C   0  0  1  0  0  0  0  0  0  0  0  0
    0.9746   -0.3906   -2.2855 C   0  0  1  0  0  0  0  0  0  0  0  0
    0.6732    1.1208   -2.3652 C   0  0  0  0  0  0  0  0  0  0  0  0
    1.2015    1.6901   -3.6980 C   0  0  2  0  0  0  0  0  0  0  0  0
    0.5087    0.9676   -4.8712 C   0  0  0  0  0  0  0  0  0  0  0  0
    0.8072   -0.5434   -4.7997 C   0  0  2  0  0  0  0  0  0  0  0  0
    0.2830   -1.1066   -3.4637 C   0  0  0  0  0  0  0  0  0  0  0  0
    2.3299   -0.7687   -4.8826 C   0  0  0  0  0  0  0  0  0  0  0  0
    3.0289   -0.0505   -3.7106 C   0  0  1  0  0  0  0  0  0  0  0  0
    2.7246    1.4594   -3.7820 C   0  0  0  0  0  0  0  0  0  0  0  0
    4.7284   -0.2414    0.7077 C   0  0  1  0  0  0  0  0  0  0  0  0
    4.6459   -1.0109    2.0633 C   0  0  0  0  0  0  0  0  0  0  0  0
    6.1318   -0.7109    2.2629 C   0  0  2  0  0  0  0  0  0  0  0  0
    6.9070   -1.7027    2.7592 F   0  0  0  0  0  0  0  0  0  0  0  0
    6.3305    0.3829    3.0571 F   0  0  0  0  0  0  0  0  0  0  0  0
    6.2827   -0.3750    0.7787 C   0  0  0  0  0  0  0  0  0  0  0  0
    3.0928    0.8102   -0.9295 H   0  0  0  0  0  0  0  0  0  0  0  0
    2.6857   -1.7291   -2.3821 H   0  0  0  0  0  0  0  0  0  0  0  0
    0.6070   -0.8001   -1.3298 H   0  0  0  0  0  0  0  0  0  0  0  0
    1.1256    1.6597   -1.5130 H   0  0  0  0  0  0  0  0  0  0  0  0
   -0.4145    1.2871   -2.2827 H   0  0  0  0  0  0  0  0  0  0  0  0
    0.9866    2.7711   -3.7494 H   0  0  0  0  0  0  0  0  0  0  0  0
    0.8633    1.3798   -5.8318 H   0  0  0  0  0  0  0  0  0  0  0  0
   -0.5807    1.1421   -4.8331 H   0  0  0  0  0  0  0  0  0  0  0  0
    0.3105   -1.0602   -5.6382 H   0  0  0  0  0  0  0  0  0  0  0  0
    0.4710   -2.1924   -3.4080 H   0  0  0  0  0  0  0  0  0  0  0  0
   -0.8098   -0.9683   -3.3945 H   0  0  0  0  0  0  0  0  0  0  0  0
    2.7200   -0.3861   -5.8415 H   0  0  0  0  0  0  0  0  0  0  0  0
    2.5580   -1.8479   -4.8542 H   0  0  0  0  0  0  0  0  0  0  0  0
    4.1169   -0.2213   -3.7617 H   0  0  0  0  0  0  0  0  0  0  0  0
    3.1222    1.8763   -4.7231 H   0  0  0  0  0  0  0  0  0  0  0  0
    3.2398    1.9984   -2.9671 H   0  0  0  0  0  0  0  0  0  0  0  0
    4.4074    0.8053    0.8158 H   0  0  0  0  0  0  0  0  0  0  0  0
    4.4891   -2.0838    1.8854 H   0  0  0  0  0  0  0  0  0  0  0  0
    3.9628   -0.6330    2.8369 H   0  0  0  0  0  0  0  0  0  0  0  0
    6.6192   -1.2567    0.2159 H   0  0  0  0  0  0  0  0  0  0  0  0
    6.8933    0.5063    0.5371 H   0  0  0  0  0  0  0  0  0  0  0  0
  1  2  2  0
  2  3  1  0
  2 14  1  0
  3  4  1  0
  3 20  1  0
  4  5  1  0
  4 12  1  0
  4 21  1  6
  5  6  1  0
  5 10  1  0
  5 22  1  1
  6  7  1  0
  6 23  1  0
  6 24  1  0
  7  8  1  0
  7 13  1  0
  7 25  1  1
  8  9  1  0
  8 26  1  0
  8 27  1  0
  9 10  1  0
  9 11  1  0
  9 28  1  6
 10 29  1  0
 10 30  1  0
 11 12  1  0
 11 31  1  0
 11 32  1  0
 12 13  1  0
 12 33  1  6
 13 34  1  0
 13 35  1  0
 14 15  1  0
 14 19  1  0
 14 36  1  1
 15 16  1  0
 15 37  1  0
 15 38  1  0
 16 17  1  1
 16 18  1  0
 16 19  1  0
 19 39  1  0
 19 40  1  0
M  END

