
     RDKit          3D

 35 37  0  0  0  0  0  0  0  0999 V2000
    0.7833    2.0024    0.9362 O   0  0  0  0  0  0  0  0  0  0  0  0
    1.5140    1.3500    0.2099 C   0  0  0  0  0  0  0  0  0  0  0  0
    1.7320    1.7713   -1.2426 C   0  0  0  0  0  0  0  0  0  0  0  0
    2.6023    0.8790   -1.9019 O   0  0  0  0  0  0  0  0  0  0  0  0
    2.9222    1.0819   -3.2155 C   0  0  0  0  0  0  0  0  0  0  0  0
    3.7945    0.1392   -3.7880 C   0  0  0  0  0  0  0  0  0  0  0  0
    4.1864    0.2600   -5.1212 C   0  0  0  0  0  0  0  0  0  0  0  0
    3.7125    1.3280   -5.8897 C   0  0  0  0  0  0  0  0  0  0  0  0
    2.8438    2.2644   -5.3135 C   0  0  0  0  0  0  0  0  0  0  0  0
    2.4377    2.1546   -3.9798 C   0  0  0  0  0  0  0  0  0  0  0  0
    2.4435    3.3082   -6.3349 C   0  0  0  0  0  0  0  0  0  0  0  0
    3.5080    3.1391   -7.4456 C   0  0  0  0  0  0  0  0  0  0  0  0
    3.9683    1.6647   -7.3436 C   0  0  0  0  0  0  0  0  0  0  0  0
    2.1776    0.2369    0.6016 N   0  0  0  0  0  0  0  0  0  0  0  0
    2.0565   -0.2657    1.9507 C   0  0  0  0  0  0  0  0  0  0  0  0
    2.9442   -1.4499    2.1573 C   0  0  0  0  0  0  0  0  0  0  0  0
    3.0602   -2.1115    3.3388 N   0  0  0  0  0  0  0  0  0  0  0  0
    3.9087   -3.0782    3.1424 N   0  0  0  0  0  0  0  0  0  0  0  0
    4.2782   -2.9829    1.8777 N   0  0  0  0  0  0  0  0  0  0  0  0
    4.9450   -3.6233    1.4556 H   0  0  0  0  0  0  0  0  0  0  0  0
    3.7097   -1.9876    1.2149 N   0  0  0  0  0  0  0  0  0  0  0  0
    2.1337    2.8010   -1.2312 H   0  0  0  0  0  0  0  0  0  0  0  0
    0.7399    1.8091   -1.7283 H   0  0  0  0  0  0  0  0  0  0  0  0
    4.1569   -0.6796   -3.1630 H   0  0  0  0  0  0  0  0  0  0  0  0
    4.8664   -0.4801   -5.5526 H   0  0  0  0  0  0  0  0  0  0  0  0
    1.7628    2.8966   -3.5513 H   0  0  0  0  0  0  0  0  0  0  0  0
    2.4074    4.3297   -5.9230 H   0  0  0  0  0  0  0  0  0  0  0  0
    1.4297    3.0881   -6.7198 H   0  0  0  0  0  0  0  0  0  0  0  0
    4.3633    3.8005   -7.2290 H   0  0  0  0  0  0  0  0  0  0  0  0
    3.1335    3.4068   -8.4451 H   0  0  0  0  0  0  0  0  0  0  0  0
    5.0181    1.5218   -7.6471 H   0  0  0  0  0  0  0  0  0  0  0  0
    3.3600    1.0141   -8.0004 H   0  0  0  0  0  0  0  0  0  0  0  0
    2.7660   -0.2497   -0.0678 H   0  0  0  0  0  0  0  0  0  0  0  0
    1.0125   -0.5484    2.1788 H   0  0  0  0  0  0  0  0  0  0  0  0
    2.3112    0.5186    2.6851 H   0  0  0  0  0  0  0  0  0  0  0  0
  1  2  2  0
  2  3  1  0
  2 14  1  0
  3  4  1  0
  3 22  1  0
  3 23  1  0
  4  5  1  0
  5  6  2  0
  5 10  1  0
  6  7  1  0
  6 24  1  0
  7  8  2  0
  7 25  1  0
  8  9  1  0
  8 13  1  0
  9 10  2  0
  9 11  1  0
 10 26  1  0
 11 12  1  0
 11 27  1  0
 11 28  1  0
 12 13  1  0
 12 29  1  0
 12 30  1  0
 13 31  1  0
 13 32  1  0
 14 15  1  0
 14 33  1  0
 15 16  1  0
 15 34  1  0
 15 35  1  0
 16 17  1  0
 16 21  2  0
 17 18  2  0
 18 19  1  0
 19 20  1  0
 19 21  1  0
M  END

