
     RDKit          3D

 35 37  0  0  0  0  0  0  0  0999 V2000
    1.5623    0.1045   -0.7950 C   0  0  0  0  0  0  0  0  0  0  0  0
    2.7644    0.0400    0.0273 N   0  0  0  0  0  0  0  0  0  0  0  0
    3.1492   -1.2091    0.5126 C   0  0  0  0  0  0  0  0  0  0  0  0
    2.5433   -2.2249    0.2334 O   0  0  0  0  0  0  0  0  0  0  0  0
    4.3444   -1.2100    1.4475 C   0  0  0  0  0  0  0  0  0  0  0  0
    5.4237   -0.1925    1.0502 C   0  0  1  0  0  0  0  0  0  0  0  0
    6.1272   -0.5538   -0.1728 N   0  0  0  0  0  0  0  0  0  0  0  0
    7.1421   -1.4717   -0.2720 C   0  0  0  0  0  0  0  0  0  0  0  0
    7.6093   -2.2178    0.8356 C   0  0  0  0  0  0  0  0  0  0  0  0
    8.6531   -3.1348    0.7208 C   0  0  0  0  0  0  0  0  0  0  0  0
    9.2679   -3.3428   -0.5141 C   0  0  0  0  0  0  0  0  0  0  0  0
   10.6936   -4.5991   -0.6819 Br  0  0  0  0  0  0  0  0  0  0  0  0
    8.8369   -2.6302   -1.6362 C   0  0  0  0  0  0  0  0  0  0  0  0
    7.7953   -1.7153   -1.5091 C   0  0  0  0  0  0  0  0  0  0  0  0
    7.2408   -0.7526   -3.0703 Br  0  0  0  0  0  0  0  0  0  0  0  0
    4.7713    1.1633    0.8767 C   0  0  0  0  0  0  0  0  0  0  0  0
    5.4532    2.3452    1.1777 C   0  0  0  0  0  0  0  0  0  0  0  0
    4.8651    3.5954    0.9732 C   0  0  0  0  0  0  0  0  0  0  0  0
    3.5711    3.6558    0.4525 C   0  0  0  0  0  0  0  0  0  0  0  0
    2.8716    2.4877    0.1437 C   0  0  0  0  0  0  0  0  0  0  0  0
    3.4596    1.2256    0.3519 C   0  0  0  0  0  0  0  0  0  0  0  0
    1.2812   -0.9233   -1.0489 H   0  0  0  0  0  0  0  0  0  0  0  0
    1.7547    0.6772   -1.7149 H   0  0  0  0  0  0  0  0  0  0  0  0
    0.7247    0.5749   -0.2530 H   0  0  0  0  0  0  0  0  0  0  0  0
    4.7273   -2.2380    1.4755 H   0  0  0  0  0  0  0  0  0  0  0  0
    3.9746   -0.9644    2.4596 H   0  0  0  0  0  0  0  0  0  0  0  0
    6.1594   -0.1216    1.8696 H   0  0  0  0  0  0  0  0  0  0  0  0
    5.8922   -0.0430   -1.0156 H   0  0  0  0  0  0  0  0  0  0  0  0
    7.1438   -2.0826    1.8121 H   0  0  0  0  0  0  0  0  0  0  0  0
    8.9834   -3.6908    1.5997 H   0  0  0  0  0  0  0  0  0  0  0  0
    9.3089   -2.7833   -2.6067 H   0  0  0  0  0  0  0  0  0  0  0  0
    6.4694    2.2770    1.5764 H   0  0  0  0  0  0  0  0  0  0  0  0
    5.4112    4.5095    1.2154 H   0  0  0  0  0  0  0  0  0  0  0  0
    3.0912    4.6234    0.2850 H   0  0  0  0  0  0  0  0  0  0  0  0
    1.8604    2.5643   -0.2537 H   0  0  0  0  0  0  0  0  0  0  0  0
  1  2  1  0
  1 22  1  0
  1 23  1  0
  1 24  1  0
  2  3  1  0
  2 21  1  0
  3  4  2  0
  3  5  1  0
  5  6  1  0
  5 25  1  0
  5 26  1  0
  6  7  1  0
  6 16  1  0
  6 27  1  1
  7  8  1  0
  7 28  1  0
  8  9  2  0
  8 14  1  0
  9 10  1  0
  9 29  1  0
 10 11  2  0
 10 30  1  0
 11 12  1  0
 11 13  1  0
 13 14  2  0
 13 31  1  0
 14 15  1  0
 16 17  1  0
 16 21  2  0
 17 18  2  0
 17 32  1  0
 18 19  1  0
 18 33  1  0
 19 20  2  0
 19 34  1  0
 20 21  1  0
 20 35  1  0
M  END

