
     RDKit          3D

 25 25  0  0  0  0  0  0  0  0999 V2000
    2.6347   -1.5998    1.9083 C   0  0  0  0  0  0  0  0  0  0  0  0
    3.3375   -0.7400    0.8577 C   0  0  0  0  0  0  0  0  0  0  0  0
    3.8892   -1.5566   -0.3097 C   0  0  0  0  0  0  0  0  0  0  0  0
    4.5915   -0.7129   -1.3695 C   0  0  0  0  0  0  0  0  0  0  0  0
    4.6688    0.4979   -1.2513 O   0  0  0  0  0  0  0  0  0  0  0  0
    5.1837   -1.3991   -2.5581 C   0  0  0  0  0  0  0  0  0  0  0  0
    5.8352   -0.6170   -3.5319 C   0  0  0  0  0  0  0  0  0  0  0  0
    6.4032   -1.1927   -4.6553 C   0  0  0  0  0  0  0  0  0  0  0  0
    6.3558   -2.5921   -4.8745 C   0  0  0  0  0  0  0  0  0  0  0  0
    6.9453   -3.1536   -5.9702 N   0  0  0  0  0  0  0  0  0  0  0  0
    5.6946   -3.3664   -3.8896 C   0  0  0  0  0  0  0  0  0  0  0  0
    5.5781   -5.2664   -4.1231 Br  0  0  0  0  0  0  0  0  0  0  0  0
    5.1243   -2.7883   -2.7611 C   0  0  0  0  0  0  0  0  0  0  0  0
    2.2485   -0.9841    2.7359 H   0  0  0  0  0  0  0  0  0  0  0  0
    3.3187   -2.3481    2.3437 H   0  0  0  0  0  0  0  0  0  0  0  0
    1.7801   -2.1488    1.4775 H   0  0  0  0  0  0  0  0  0  0  0  0
    4.1627   -0.1727    1.3185 H   0  0  0  0  0  0  0  0  0  0  0  0
    2.6467    0.0236    0.4645 H   0  0  0  0  0  0  0  0  0  0  0  0
    3.0780   -2.1259   -0.8005 H   0  0  0  0  0  0  0  0  0  0  0  0
    4.5987   -2.3224    0.0545 H   0  0  0  0  0  0  0  0  0  0  0  0
    5.8789    0.4624   -3.3748 H   0  0  0  0  0  0  0  0  0  0  0  0
    6.9063   -0.5664   -5.3975 H   0  0  0  0  0  0  0  0  0  0  0  0
    7.2452   -2.5562   -6.7280 H   0  0  0  0  0  0  0  0  0  0  0  0
    6.7564   -4.1240   -6.1869 H   0  0  0  0  0  0  0  0  0  0  0  0
    4.6288   -3.4394   -2.0407 H   0  0  0  0  0  0  0  0  0  0  0  0
  1  2  1  0
  1 14  1  0
  1 15  1  0
  1 16  1  0
  2  3  1  0
  2 17  1  0
  2 18  1  0
  3  4  1  0
  3 19  1  0
  3 20  1  0
  4  5  2  0
  4  6  1  0
  6  7  2  0
  6 13  1  0
  7  8  1  0
  7 21  1  0
  8  9  2  0
  8 22  1  0
  9 10  1  0
  9 11  1  0
 10 23  1  0
 10 24  1  0
 11 12  1  0
 11 13  2  0
 13 25  1  0
M  END

