
     RDKit          3D

 34 36  0  0  0  0  0  0  0  0999 V2000
    0.8823    0.7553    0.4488 C   0  0  0  0  0  0  0  0  0  0  0  0
    2.2616    0.2573    0.0932 C   0  0  0  0  0  0  0  0  0  0  0  0
    2.7978   -0.9494    0.4266 C   0  0  0  0  0  0  0  0  0  0  0  0
    2.2526   -2.0556    1.2142 C   0  0  0  0  0  0  0  0  0  0  0  0
    2.8912   -3.3108    1.1094 C   0  0  0  0  0  0  0  0  0  0  0  0
    2.4432   -4.4229    1.8190 C   0  0  0  0  0  0  0  0  0  0  0  0
    1.3425   -4.3352    2.6848 C   0  0  0  0  0  0  0  0  0  0  0  0
    0.8468   -5.5301    3.4598 C   0  0  0  0  0  0  0  0  0  0  0  0
    0.7163   -3.0833    2.8129 C   0  0  0  0  0  0  0  0  0  0  0  0
    1.1534   -1.9699    2.0996 C   0  0  0  0  0  0  0  0  0  0  0  0
    3.0651    1.1815   -0.7037 C   0  0  0  0  0  0  0  0  0  0  0  0
    2.7062    2.3522   -1.1488 N   0  0  0  0  0  0  0  0  0  0  0  0
    3.8054    2.8310   -1.8419 C   0  0  0  0  0  0  0  0  0  0  0  0
    4.0220    4.0283   -2.5374 C   0  0  0  0  0  0  0  0  0  0  0  0
    5.2695    4.2064   -3.1391 C   0  0  0  0  0  0  0  0  0  0  0  0
    6.2777    3.2247   -3.0552 C   0  0  0  0  0  0  0  0  0  0  0  0
    6.0767    2.0237   -2.3646 C   0  0  0  0  0  0  0  0  0  0  0  0
    4.8290    1.8673   -1.7737 C   0  0  0  0  0  0  0  0  0  0  0  0
    4.3502    0.8187   -1.0454 O   0  0  0  0  0  0  0  0  0  0  0  0
    0.1338   -0.0460    0.3660 H   0  0  0  0  0  0  0  0  0  0  0  0
    0.5985    1.5812   -0.2154 H   0  0  0  0  0  0  0  0  0  0  0  0
    0.8468    1.1424    1.4819 H   0  0  0  0  0  0  0  0  0  0  0  0
    3.7960   -1.1493    0.0275 H   0  0  0  0  0  0  0  0  0  0  0  0
    3.7562   -3.4102    0.4478 H   0  0  0  0  0  0  0  0  0  0  0  0
    2.9616   -5.3789    1.7023 H   0  0  0  0  0  0  0  0  0  0  0  0
    1.4683   -6.4189    3.2766 H   0  0  0  0  0  0  0  0  0  0  0  0
   -0.1911   -5.7826    3.1839 H   0  0  0  0  0  0  0  0  0  0  0  0
    0.8496   -5.3333    4.5451 H   0  0  0  0  0  0  0  0  0  0  0  0
   -0.1330   -2.9766    3.4947 H   0  0  0  0  0  0  0  0  0  0  0  0
    0.6480   -1.0191    2.2567 H   0  0  0  0  0  0  0  0  0  0  0  0
    3.2380    4.7852   -2.5998 H   0  0  0  0  0  0  0  0  0  0  0  0
    5.4732    5.1281   -3.6897 H   0  0  0  0  0  0  0  0  0  0  0  0
    7.2397    3.4052   -3.5409 H   0  0  0  0  0  0  0  0  0  0  0  0
    6.8498    1.2569   -2.2933 H   0  0  0  0  0  0  0  0  0  0  0  0
  1  2  1  0
  1 20  1  0
  1 21  1  0
  1 22  1  0
  2  3  2  0
  2 11  1  0
  3  4  1  0
  3 23  1  0
  4  5  2  0
  4 10  1  0
  5  6  1  0
  5 24  1  0
  6  7  2  0
  6 25  1  0
  7  8  1  0
  7  9  1  0
  8 26  1  0
  8 27  1  0
  8 28  1  0
  9 10  2  0
  9 29  1  0
 10 30  1  0
 11 12  2  0
 11 19  1  0
 12 13  1  0
 13 14  2  0
 13 18  1  0
 14 15  1  0
 14 31  1  0
 15 16  2  0
 15 32  1  0
 16 17  1  0
 16 33  1  0
 17 18  2  0
 17 34  1  0
 18 19  1  0
M  END

