
     RDKit          3D

 45 48  0  0  0  0  0  0  0  0999 V2000
    1.4803   -0.4327   -1.4786 C   0  0  0  0  0  0  0  0  0  0  0  0
    2.5685   -0.4605   -0.5104 N   0  0  0  0  0  0  0  0  0  0  0  0
    2.6456   -1.7365    0.2041 C   0  0  0  0  0  0  0  0  0  0  0  0
    4.0531   -2.1352    0.6493 C   0  0  0  0  0  0  0  0  0  0  0  0
    4.7878   -1.1952    1.5656 C   0  0  0  0  0  0  0  0  0  0  0  0
    4.7476    0.1871    1.6062 C   0  0  0  0  0  0  0  0  0  0  0  0
    5.7055    0.6594    2.5050 N   0  0  0  0  0  0  0  0  0  0  0  0
    6.0471    2.0540    2.7184 C   0  0  0  0  0  0  0  0  0  0  0  0
    5.1656    2.8051    3.7064 C   0  0  0  0  0  0  0  0  0  0  0  0
    4.4522    2.1426    4.7148 C   0  0  0  0  0  0  0  0  0  0  0  0
    3.6852    2.8655    5.6343 C   0  0  0  0  0  0  0  0  0  0  0  0
    3.6216    4.2595    5.5585 C   0  0  0  0  0  0  0  0  0  0  0  0
    4.3274    4.9282    4.5532 C   0  0  0  0  0  0  0  0  0  0  0  0
    5.0905    4.2049    3.6335 C   0  0  0  0  0  0  0  0  0  0  0  0
    6.3567   -0.4193    3.0689 C   0  0  0  0  0  0  0  0  0  0  0  0
    7.3763   -0.4717    4.0308 C   0  0  0  0  0  0  0  0  0  0  0  0
    7.8555   -1.7211    4.4147 C   0  0  0  0  0  0  0  0  0  0  0  0
    7.3178   -2.8959    3.8482 C   0  0  0  0  0  0  0  0  0  0  0  0
    7.9559   -4.4482    4.3674 Cl  0  0  0  0  0  0  0  0  0  0  0  0
    6.3031   -2.8581    2.8990 C   0  0  0  0  0  0  0  0  0  0  0  0
    5.8069   -1.6026    2.4998 C   0  0  0  0  0  0  0  0  0  0  0  0
    3.9494    1.1690    0.7844 C   0  0  1  0  0  0  0  0  0  0  0  0
    4.6733    1.5796   -0.3695 O   0  0  0  0  0  0  0  0  0  0  0  0
    2.5503    0.6916    0.3860 C   0  0  0  0  0  0  0  0  0  0  0  0
    1.5933   -1.2596   -2.1969 H   0  0  0  0  0  0  0  0  0  0  0  0
    1.5056    0.5089   -2.0480 H   0  0  0  0  0  0  0  0  0  0  0  0
    0.4720   -0.5225   -1.0154 H   0  0  0  0  0  0  0  0  0  0  0  0
    2.2801   -2.5249   -0.4721 H   0  0  0  0  0  0  0  0  0  0  0  0
    1.9623   -1.7334    1.0828 H   0  0  0  0  0  0  0  0  0  0  0  0
    4.6632   -2.3031   -0.2588 H   0  0  0  0  0  0  0  0  0  0  0  0
    3.9741   -3.1199    1.1408 H   0  0  0  0  0  0  0  0  0  0  0  0
    6.0459    2.5677    1.7448 H   0  0  0  0  0  0  0  0  0  0  0  0
    7.0921    2.0829    3.0680 H   0  0  0  0  0  0  0  0  0  0  0  0
    4.4946    1.0529    4.7797 H   0  0  0  0  0  0  0  0  0  0  0  0
    3.1342    2.3338    6.4144 H   0  0  0  0  0  0  0  0  0  0  0  0
    3.0211    4.8231    6.2770 H   0  0  0  0  0  0  0  0  0  0  0  0
    4.2787    6.0179    4.4806 H   0  0  0  0  0  0  0  0  0  0  0  0
    5.6338    4.7347    2.8449 H   0  0  0  0  0  0  0  0  0  0  0  0
    7.7892    0.4329    4.4818 H   0  0  0  0  0  0  0  0  0  0  0  0
    8.6485   -1.8037    5.1594 H   0  0  0  0  0  0  0  0  0  0  0  0
    5.9113   -3.7870    2.4814 H   0  0  0  0  0  0  0  0  0  0  0  0
    3.8037    2.0812    1.3837 H   0  0  0  0  0  0  0  0  0  0  0  0
    4.6101    0.8326   -0.9873 H   0  0  0  0  0  0  0  0  0  0  0  0
    2.0860    1.5349   -0.1465 H   0  0  0  0  0  0  0  0  0  0  0  0
    1.9416    0.5013    1.2966 H   0  0  0  0  0  0  0  0  0  0  0  0
  1  2  1  0
  1 25  1  0
  1 26  1  0
  1 27  1  0
  2  3  1  0
  2 24  1  0
  3  4  1  0
  3 28  1  0
  3 29  1  0
  4  5  1  0
  4 30  1  0
  4 31  1  0
  5  6  2  0
  5 21  1  0
  6  7  1  0
  6 22  1  0
  7  8  1  0
  7 15  1  0
  8  9  1  0
  8 32  1  0
  8 33  1  0
  9 10  2  0
  9 14  1  0
 10 11  1  0
 10 34  1  0
 11 12  2  0
 11 35  1  0
 12 13  1  0
 12 36  1  0
 13 14  2  0
 13 37  1  0
 14 38  1  0
 15 16  1  0
 15 21  2  0
 16 17  2  0
 16 39  1  0
 17 18  1  0
 17 40  1  0
 18 19  1  0
 18 20  2  0
 20 21  1  0
 20 41  1  0
 22 23  1  0
 22 24  1  0
 22 42  1  1
 23 43  1  0
 24 44  1  0
 24 45  1  0
M  END

