
     RDKit          3D

 68 71  0  0  0  0  0  0  0  0999 V2000
    6.1750    0.1883   -7.1100 C   0  0  0  0  0  0  0  0  0  0  0  0
    5.8824    0.9585   -5.8212 C   0  0  0  0  0  0  0  0  0  0  0  0
    6.2043    2.4544   -5.9228 C   0  0  0  0  0  0  0  0  0  0  0  0
    5.8641    3.2840   -4.6770 C   0  0  0  0  0  0  0  0  0  0  0  0
    6.7015    2.9663   -3.4325 C   0  0  0  0  0  0  0  0  0  0  0  0
    6.3757    3.8676   -2.2384 C   0  0  0  0  0  0  0  0  0  0  0  0
    7.2025    3.5887   -0.9793 C   0  0  0  0  0  0  0  0  0  0  0  0
    8.6461    3.8032   -1.1605 N   0  0  0  0  0  0  0  0  0  0  0  0
    9.5286    2.6523   -0.9822 C   0  0  0  0  0  0  0  0  0  0  0  0
    9.7009    2.2350    0.4509 C   0  0  0  0  0  0  0  0  0  0  0  0
   10.0393    3.2489    1.3028 O   0  0  0  0  0  0  0  0  0  0  0  0
   10.2385    2.6953    2.5299 C   0  0  0  0  0  0  0  0  0  0  0  0
   10.5777    3.3723    3.6984 C   0  0  0  0  0  0  0  0  0  0  0  0
   10.7225    2.5968    4.8471 C   0  0  0  0  0  0  0  0  0  0  0  0
   10.5281    1.1922    4.8426 C   0  0  0  0  0  0  0  0  0  0  0  0
   10.6929    0.4130    6.1268 C   0  0  0  0  0  0  0  0  0  0  0  0
   10.1826    0.5491    3.6502 C   0  0  0  0  0  0  0  0  0  0  0  0
   10.0402    1.3054    2.4727 C   0  0  0  0  0  0  0  0  0  0  0  0
    9.6762    1.0197    1.0922 C   0  0  0  0  0  0  0  0  0  0  0  0
    9.3823   -0.3118    0.5204 C   0  0  0  0  0  0  0  0  0  0  0  0
    8.2181   -0.5600   -0.2299 C   0  0  0  0  0  0  0  0  0  0  0  0
    7.9540   -1.8208   -0.7681 C   0  0  0  0  0  0  0  0  0  0  0  0
    8.8571   -2.8641   -0.5484 C   0  0  0  0  0  0  0  0  0  0  0  0
    8.5323   -4.4477   -1.2140 Cl  0  0  0  0  0  0  0  0  0  0  0  0
   10.0154   -2.6520    0.2050 C   0  0  0  0  0  0  0  0  0  0  0  0
   10.2692   -1.3852    0.7317 C   0  0  0  0  0  0  0  0  0  0  0  0
    9.0776    5.1152   -1.0382 C   0  0  0  0  0  0  0  0  0  0  0  0
    8.3260    6.0333   -0.7745 O   0  0  0  0  0  0  0  0  0  0  0  0
   10.4486    5.3182   -1.2623 N   0  0  0  0  0  0  0  0  0  0  0  0
   11.0242    6.5881   -1.1189 C   0  0  0  0  0  0  0  0  0  0  0  0
   10.9400    7.3308    0.0713 C   0  0  0  0  0  0  0  0  0  0  0  0
   10.3054    6.8026    1.1161 F   0  0  0  0  0  0  0  0  0  0  0  0
   11.5162    8.5914    0.2033 C   0  0  0  0  0  0  0  0  0  0  0  0
   12.2307    9.1098   -0.8740 C   0  0  0  0  0  0  0  0  0  0  0  0
   12.8017   10.3140   -0.7547 F   0  0  0  0  0  0  0  0  0  0  0  0
   12.3783    8.4085   -2.0682 C   0  0  0  0  0  0  0  0  0  0  0  0
   11.7591    7.1670   -2.1630 C   0  0  0  0  0  0  0  0  0  0  0  0
   11.8782    6.4588   -3.2995 F   0  0  0  0  0  0  0  0  0  0  0  0
    5.9319   -0.8815   -7.0081 H   0  0  0  0  0  0  0  0  0  0  0  0
    7.2400    0.2619   -7.3877 H   0  0  0  0  0  0  0  0  0  0  0  0
    5.5878    0.5840   -7.9558 H   0  0  0  0  0  0  0  0  0  0  0  0
    6.4544    0.5061   -4.9921 H   0  0  0  0  0  0  0  0  0  0  0  0
    4.8166    0.8371   -5.5526 H   0  0  0  0  0  0  0  0  0  0  0  0
    5.6559    2.8733   -6.7858 H   0  0  0  0  0  0  0  0  0  0  0  0
    7.2773    2.5799   -6.1627 H   0  0  0  0  0  0  0  0  0  0  0  0
    4.7918    3.1573   -4.4365 H   0  0  0  0  0  0  0  0  0  0  0  0
    5.9902    4.3544   -4.9184 H   0  0  0  0  0  0  0  0  0  0  0  0
    7.7728    3.0695   -3.6848 H   0  0  0  0  0  0  0  0  0  0  0  0
    6.5559    1.9100   -3.1404 H   0  0  0  0  0  0  0  0  0  0  0  0
    5.3095    3.7551   -1.9701 H   0  0  0  0  0  0  0  0  0  0  0  0
    6.5089    4.9271   -2.5137 H   0  0  0  0  0  0  0  0  0  0  0  0
    7.0635    2.5443   -0.6595 H   0  0  0  0  0  0  0  0  0  0  0  0
    6.8490    4.2324   -0.1605 H   0  0  0  0  0  0  0  0  0  0  0  0
   10.5210    2.8771   -1.4008 H   0  0  0  0  0  0  0  0  0  0  0  0
    9.1445    1.8017   -1.5610 H   0  0  0  0  0  0  0  0  0  0  0  0
   10.7174    4.4548    3.6998 H   0  0  0  0  0  0  0  0  0  0  0  0
   10.9912    3.0880    5.7866 H   0  0  0  0  0  0  0  0  0  0  0  0
   10.0016    0.7736    6.9070 H   0  0  0  0  0  0  0  0  0  0  0  0
   11.7140    0.5162    6.5314 H   0  0  0  0  0  0  0  0  0  0  0  0
   10.4989   -0.6592    5.9772 H   0  0  0  0  0  0  0  0  0  0  0  0
   10.0193   -0.5314    3.6376 H   0  0  0  0  0  0  0  0  0  0  0  0
    7.4909    0.2412   -0.3778 H   0  0  0  0  0  0  0  0  0  0  0  0
    7.0456   -2.0013   -1.3453 H   0  0  0  0  0  0  0  0  0  0  0  0
   10.7132   -3.4747    0.3702 H   0  0  0  0  0  0  0  0  0  0  0  0
   11.1832   -1.2206    1.3069 H   0  0  0  0  0  0  0  0  0  0  0  0
   10.9027    4.7214   -1.9432 H   0  0  0  0  0  0  0  0  0  0  0  0
   11.4221    9.1453    1.1374 H   0  0  0  0  0  0  0  0  0  0  0  0
   12.9451    8.8178   -2.9041 H   0  0  0  0  0  0  0  0  0  0  0  0
  1  2  1  0
  1 39  1  0
  1 40  1  0
  1 41  1  0
  2  3  1  0
  2 42  1  0
  2 43  1  0
  3  4  1  0
  3 44  1  0
  3 45  1  0
  4  5  1  0
  4 46  1  0
  4 47  1  0
  5  6  1  0
  5 48  1  0
  5 49  1  0
  6  7  1  0
  6 50  1  0
  6 51  1  0
  7  8  1  0
  7 52  1  0
  7 53  1  0
  8  9  1  0
  8 27  1  0
  9 10  1  0
  9 54  1  0
  9 55  1  0
 10 11  1  0
 10 19  2  0
 11 12  1  0
 12 13  2  0
 12 18  1  0
 13 14  1  0
 13 56  1  0
 14 15  2  0
 14 57  1  0
 15 16  1  0
 15 17  1  0
 16 58  1  0
 16 59  1  0
 16 60  1  0
 17 18  2  0
 17 61  1  0
 18 19  1  0
 19 20  1  0
 20 21  2  0
 20 26  1  0
 21 22  1  0
 21 62  1  0
 22 23  2  0
 22 63  1  0
 23 24  1  0
 23 25  1  0
 25 26  2  0
 25 64  1  0
 26 65  1  0
 27 28  2  0
 27 29  1  0
 29 30  1  0
 29 66  1  0
 30 31  2  0
 30 37  1  0
 31 32  1  0
 31 33  1  0
 33 34  2  0
 33 67  1  0
 34 35  1  0
 34 36  1  0
 36 37  2  0
 36 68  1  0
 37 38  1  0
M  END

