
     RDKit          3D

 32 33  0  0  0  0  0  0  0  0999 V2000
    3.0040   -0.0925   -1.1838 C   0  0  0  0  0  0  0  0  0  0  0  0
    2.5978    0.0520    0.2919 C   0  0  1  0  0  0  0  0  0  0  0  0
    1.0891    0.3048    0.4448 C   0  0  0  0  0  0  0  0  0  0  0  0
    3.0115   -1.1628    1.0748 C   0  0  0  0  0  0  0  0  0  0  0  0
    3.8682   -1.1027    2.0673 N   0  0  0  0  0  0  0  0  0  0  0  0
    3.9628   -2.4223    2.4997 O   0  0  0  0  0  0  0  0  0  0  0  0
    3.1462   -3.1528    1.7191 C   0  0  0  0  0  0  0  0  0  0  0  0
    3.0650   -4.5764    1.9712 C   0  0  0  0  0  0  0  0  0  0  0  0
    2.2702   -5.3899    1.2410 C   0  0  0  0  0  0  0  0  0  0  0  0
    2.1003   -6.8358    1.3947 C   0  0  0  0  0  0  0  0  0  0  0  0
    2.7875   -7.5912    2.3682 C   0  0  0  0  0  0  0  0  0  0  0  0
    2.5725   -8.9652    2.4484 C   0  0  0  0  0  0  0  0  0  0  0  0
    1.6883   -9.6118    1.5820 C   0  0  0  0  0  0  0  0  0  0  0  0
    0.9888   -8.8807    0.6012 C   0  0  0  0  0  0  0  0  0  0  0  0
    0.0732   -9.4996   -0.2332 N   0  0  0  0  0  0  0  0  0  0  0  0
    1.2114   -7.4927    0.5256 C   0  0  0  0  0  0  0  0  0  0  0  0
    2.5356   -2.4236    0.8207 N   0  0  0  0  0  0  0  0  0  0  0  0
    2.7139    0.8049   -1.7530 H   0  0  0  0  0  0  0  0  0  0  0  0
    2.5089   -0.9647   -1.6389 H   0  0  0  0  0  0  0  0  0  0  0  0
    4.0920   -0.2263   -1.2885 H   0  0  0  0  0  0  0  0  0  0  0  0
    3.1477    0.8996    0.7318 H   0  0  0  0  0  0  0  0  0  0  0  0
    0.5113   -0.5503    0.0600 H   0  0  0  0  0  0  0  0  0  0  0  0
    0.7902    1.2040   -0.1169 H   0  0  0  0  0  0  0  0  0  0  0  0
    0.8128    0.4541    1.5002 H   0  0  0  0  0  0  0  0  0  0  0  0
    3.6881   -4.9440    2.7891 H   0  0  0  0  0  0  0  0  0  0  0  0
    1.6852   -4.9188    0.4439 H   0  0  0  0  0  0  0  0  0  0  0  0
    3.4843   -7.1093    3.0556 H   0  0  0  0  0  0  0  0  0  0  0  0
    3.1048   -9.5530    3.2009 H   0  0  0  0  0  0  0  0  0  0  0  0
    1.5321  -10.6911    1.6645 H   0  0  0  0  0  0  0  0  0  0  0  0
    0.1579  -10.5023   -0.3472 H   0  0  0  0  0  0  0  0  0  0  0  0
   -0.1778   -9.0133   -1.0854 H   0  0  0  0  0  0  0  0  0  0  0  0
    0.6758   -6.9070   -0.2274 H   0  0  0  0  0  0  0  0  0  0  0  0
  1  2  1  0
  1 18  1  0
  1 19  1  0
  1 20  1  0
  2  3  1  0
  2  4  1  0
  2 21  1  1
  3 22  1  0
  3 23  1  0
  3 24  1  0
  4  5  2  0
  4 17  1  0
  5  6  1  0
  6  7  1  0
  7  8  1  0
  7 17  2  0
  8  9  2  0
  8 25  1  0
  9 10  1  0
  9 26  1  0
 10 11  2  0
 10 16  1  0
 11 12  1  0
 11 27  1  0
 12 13  2  0
 12 28  1  0
 13 14  1  0
 13 29  1  0
 14 15  1  0
 14 16  2  0
 15 30  1  0
 15 31  1  0
 16 32  1  0
M  END

