
     RDKit          3D

 52 55  0  0  0  0  0  0  0  0999 V2000
    1.5682   -0.4983    0.1634 C   0  0  0  0  0  0  0  0  0  0  0  0
    3.0165   -0.8613    0.4458 C   0  0  0  0  0  0  0  0  0  0  0  0
    3.5629   -0.0101    1.4716 O   0  0  0  0  0  0  0  0  0  0  0  0
    4.1764    1.1101    1.0882 C   0  0  0  0  0  0  0  0  0  0  0  0
    4.3635    1.4440   -0.0595 O   0  0  0  0  0  0  0  0  0  0  0  0
    4.6329    1.9368    2.2408 C   0  0  0  0  0  0  0  0  0  0  0  0
    4.6250    3.3636    2.2582 C   0  0  0  0  0  0  0  0  0  0  0  0
    4.0532    4.3020    1.2792 C   0  0  0  0  0  0  0  0  0  0  0  0
    4.6705    5.4781    0.9752 C   0  0  0  0  0  0  0  0  0  0  0  0
    4.0994    6.4073    0.0376 C   0  0  0  0  0  0  0  0  0  0  0  0
    4.6982    7.6311   -0.3292 C   0  0  0  0  0  0  0  0  0  0  0  0
    4.0899    8.4642   -1.2603 C   0  0  0  0  0  0  0  0  0  0  0  0
    2.8687    8.0865   -1.8457 C   0  0  0  0  0  0  0  0  0  0  0  0
    2.2561    6.8836   -1.5017 C   0  0  0  0  0  0  0  0  0  0  0  0
    2.8733    6.0517   -0.5618 C   0  0  0  0  0  0  0  0  0  0  0  0
    2.2529    4.8893   -0.2351 O   0  0  0  0  0  0  0  0  0  0  0  0
    2.7382    3.9834    0.6888 C   0  0  0  0  0  0  0  0  0  0  0  0
    2.0552    3.0279    0.9526 O   0  0  0  0  0  0  0  0  0  0  0  0
    5.2330    3.8266    3.3469 N   0  0  0  0  0  0  0  0  0  0  0  0
    5.6606    2.7496    4.0257 N   0  0  0  0  0  0  0  0  0  0  0  0
    6.2610    2.9420    5.3034 C   0  0  0  0  0  0  0  0  0  0  0  0
    5.8683    2.1642    6.3981 C   0  0  0  0  0  0  0  0  0  0  0  0
    6.4609    2.3883    7.6426 C   0  0  0  0  0  0  0  0  0  0  0  0
    7.4225    3.3876    7.8085 C   0  0  0  0  0  0  0  0  0  0  0  0
    7.7863    4.1666    6.7049 C   0  0  0  0  0  0  0  0  0  0  0  0
    8.9822    5.4260    6.8959 Cl  0  0  0  0  0  0  0  0  0  0  0  0
    7.2164    3.9537    5.4494 C   0  0  0  0  0  0  0  0  0  0  0  0
    5.3161    1.5743    3.3983 C   0  0  0  0  0  0  0  0  0  0  0  0
    5.7987    0.2240    3.8254 C   0  0  0  0  0  0  0  0  0  0  0  0
    5.1343   -0.7801    3.8154 O   0  0  0  0  0  0  0  0  0  0  0  0
    7.0969    0.2765    4.1757 O   0  0  0  0  0  0  0  0  0  0  0  0
    7.7344   -0.9612    4.5561 C   0  0  0  0  0  0  0  0  0  0  0  0
    7.5074   -1.3021    6.0190 C   0  0  0  0  0  0  0  0  0  0  0  0
    1.1563   -1.1729   -0.6046 H   0  0  0  0  0  0  0  0  0  0  0  0
    1.4887    0.5378   -0.1968 H   0  0  0  0  0  0  0  0  0  0  0  0
    0.9564   -0.5931    1.0736 H   0  0  0  0  0  0  0  0  0  0  0  0
    3.6341   -0.7716   -0.4595 H   0  0  0  0  0  0  0  0  0  0  0  0
    3.1084   -1.8800    0.8497 H   0  0  0  0  0  0  0  0  0  0  0  0
    5.6279    5.7168    1.4447 H   0  0  0  0  0  0  0  0  0  0  0  0
    5.6492    7.9116    0.1310 H   0  0  0  0  0  0  0  0  0  0  0  0
    4.5594    9.4102   -1.5387 H   0  0  0  0  0  0  0  0  0  0  0  0
    2.3915    8.7414   -2.5788 H   0  0  0  0  0  0  0  0  0  0  0  0
    1.3081    6.5702   -1.9420 H   0  0  0  0  0  0  0  0  0  0  0  0
    5.0914    1.4066    6.2831 H   0  0  0  0  0  0  0  0  0  0  0  0
    6.1557    1.7863    8.5017 H   0  0  0  0  0  0  0  0  0  0  0  0
    7.8821    3.5731    8.7802 H   0  0  0  0  0  0  0  0  0  0  0  0
    7.5004    4.5641    4.5934 H   0  0  0  0  0  0  0  0  0  0  0  0
    8.7999   -0.7923    4.3458 H   0  0  0  0  0  0  0  0  0  0  0  0
    7.3612   -1.7634    3.9026 H   0  0  0  0  0  0  0  0  0  0  0  0
    7.8486   -0.4861    6.6740 H   0  0  0  0  0  0  0  0  0  0  0  0
    8.0741   -2.2112    6.2766 H   0  0  0  0  0  0  0  0  0  0  0  0
    6.4433   -1.4984    6.2165 H   0  0  0  0  0  0  0  0  0  0  0  0
  1  2  1  0
  1 34  1  0
  1 35  1  0
  1 36  1  0
  2  3  1  0
  2 37  1  0
  2 38  1  0
  3  4  1  0
  4  5  2  0
  4  6  1  0
  6  7  1  0
  6 28  2  0
  7  8  1  0
  7 19  2  0
  8  9  2  0
  8 17  1  0
  9 10  1  0
  9 39  1  0
 10 11  2  0
 10 15  1  0
 11 12  1  0
 11 40  1  0
 12 13  2  0
 12 41  1  0
 13 14  1  0
 13 42  1  0
 14 15  2  0
 14 43  1  0
 15 16  1  0
 16 17  1  0
 17 18  2  0
 19 20  1  0
 20 21  1  0
 20 28  1  0
 21 22  2  0
 21 27  1  0
 22 23  1  0
 22 44  1  0
 23 24  2  0
 23 45  1  0
 24 25  1  0
 24 46  1  0
 25 26  1  0
 25 27  2  0
 27 47  1  0
 28 29  1  0
 29 30  2  0
 29 31  1  0
 31 32  1  0
 32 33  1  0
 32 48  1  0
 32 49  1  0
 33 50  1  0
 33 51  1  0
 33 52  1  0
M  END

