
     RDKit          3D

 27 27  0  0  0  0  0  0  0  0999 V2000
    5.5813    2.0676   -0.0200 Cl  0  0  0  0  0  0  0  0  0  0  0  0
    6.0943    0.4004   -0.5267 C   0  0  0  0  0  0  0  0  0  0  0  0
    6.1118   -0.5804    0.6349 C   0  0  0  0  0  0  0  0  0  0  0  0
    4.7330   -0.8347    1.2635 C   0  0  0  0  0  0  0  0  0  0  0  0
    4.7634   -1.7554    2.3838 N   0  0  0  0  0  0  0  0  0  0  0  0
    4.5711   -3.1022    2.2331 C   0  0  0  0  0  0  0  0  0  0  0  0
    4.9491   -3.9671    3.2191 C   0  0  0  0  0  0  0  0  0  0  0  0
    5.7394   -3.5228    4.2716 N   0  0  0  0  0  0  0  0  0  0  0  0
    5.8141   -2.2607    4.5032 C   0  0  0  0  0  0  0  0  0  0  0  0
    6.7837   -1.7559    5.5459 C   0  0  0  0  0  0  0  0  0  0  0  0
    8.1634   -1.3592    5.0246 C   0  0  0  0  0  0  0  0  0  0  0  0
    8.1519    0.1539    4.0126 Cl  0  0  0  0  0  0  0  0  0  0  0  0
    4.9154   -1.2804    3.7537 C   0  0  0  0  0  0  0  0  0  0  0  0
    7.0928    0.5097   -0.9698 H   0  0  0  0  0  0  0  0  0  0  0  0
    5.3941    0.0913   -1.3169 H   0  0  0  0  0  0  0  0  0  0  0  0
    6.8122   -0.2297    1.4098 H   0  0  0  0  0  0  0  0  0  0  0  0
    6.5142   -1.5376    0.2564 H   0  0  0  0  0  0  0  0  0  0  0  0
    4.0485   -1.2415    0.4977 H   0  0  0  0  0  0  0  0  0  0  0  0
    4.2993    0.1227    1.5932 H   0  0  0  0  0  0  0  0  0  0  0  0
    4.1536   -3.4421    1.2800 H   0  0  0  0  0  0  0  0  0  0  0  0
    4.7710   -5.0404    3.1389 H   0  0  0  0  0  0  0  0  0  0  0  0
    6.9491   -2.5854    6.2529 H   0  0  0  0  0  0  0  0  0  0  0  0
    6.3531   -0.9105    6.1111 H   0  0  0  0  0  0  0  0  0  0  0  0
    8.5885   -2.1523    4.3954 H   0  0  0  0  0  0  0  0  0  0  0  0
    8.8515   -1.1485    5.8544 H   0  0  0  0  0  0  0  0  0  0  0  0
    5.3510   -0.2729    3.7507 H   0  0  0  0  0  0  0  0  0  0  0  0
    3.9234   -1.2191    4.2631 H   0  0  0  0  0  0  0  0  0  0  0  0
  1  2  1  0
  2  3  1  0
  2 14  1  0
  2 15  1  0
  3  4  1  0
  3 16  1  0
  3 17  1  0
  4  5  1  0
  4 18  1  0
  4 19  1  0
  5  6  1  0
  5 13  1  0
  6  7  2  0
  6 20  1  0
  7  8  1  0
  7 21  1  0
  8  9  2  0
  9 10  1  0
  9 13  1  0
 10 11  1  0
 10 22  1  0
 10 23  1  0
 11 12  1  0
 11 24  1  0
 11 25  1  0
 13 26  1  0
 13 27  1  0
M  END

