
     RDKit          3D

 23 23  0  0  0  0  0  0  0  0999 V2000
    2.1881    1.4004   -0.3008 C   0  0  0  0  0  0  0  0  0  0  0  0
    2.1741   -0.0331   -0.2034 O   0  0  0  0  0  0  0  0  0  0  0  0
    2.7245   -0.7589   -1.2063 C   0  0  0  0  0  0  0  0  0  0  0  0
    3.2640   -0.0999   -2.2073 N   0  0  0  0  0  0  0  0  0  0  0  0
    3.8338   -0.7520   -3.2064 N   0  0  0  0  0  0  0  0  0  0  0  0
    3.9518   -2.0787   -3.1806 C   0  0  0  0  0  0  0  0  0  0  0  0
    4.6677   -2.6696   -4.3658 C   0  0  0  0  0  0  0  0  0  0  0  0
    3.4032   -2.8597   -2.1141 C   0  0  0  0  0  0  0  0  0  0  0  0
    3.7508   -4.3547   -2.1303 C   0  0  0  0  0  0  0  0  0  0  0  0
    4.8921   -4.6681   -2.3597 O   0  0  0  0  0  0  0  0  0  0  0  0
    2.7850   -5.2378   -1.9634 O   0  0  0  0  0  0  0  0  0  0  0  0
    2.6979   -2.1799   -1.1100 C   0  0  0  0  0  0  0  0  0  0  0  0
    1.8855   -2.8717   -0.0365 C   0  0  0  0  0  0  0  0  0  0  0  0
    1.4743   -4.0101   -0.1656 O   0  0  0  0  0  0  0  0  0  0  0  0
    1.5977   -2.1900    1.0571 O   0  0  0  0  0  0  0  0  0  0  0  0
    1.6801    1.7580    0.6030 H   0  0  0  0  0  0  0  0  0  0  0  0
    1.6552    1.7270   -1.2039 H   0  0  0  0  0  0  0  0  0  0  0  0
    3.2205    1.7738   -0.3436 H   0  0  0  0  0  0  0  0  0  0  0  0
    4.7718   -1.8865   -5.1272 H   0  0  0  0  0  0  0  0  0  0  0  0
    4.1259   -3.5287   -4.7885 H   0  0  0  0  0  0  0  0  0  0  0  0
    5.6620   -3.0363   -4.0742 H   0  0  0  0  0  0  0  0  0  0  0  0
    2.0549   -4.8420   -1.4134 H   0  0  0  0  0  0  0  0  0  0  0  0
    1.8520   -1.2480    0.9488 H   0  0  0  0  0  0  0  0  0  0  0  0
  1  2  1  0
  1 16  1  0
  1 17  1  0
  1 18  1  0
  2  3  1  0
  3  4  2  0
  3 12  1  0
  4  5  1  0
  5  6  2  0
  6  7  1  0
  6  8  1  0
  7 19  1  0
  7 20  1  0
  7 21  1  0
  8  9  1  0
  8 12  2  0
  9 10  2  0
  9 11  1  0
 11 22  1  0
 12 13  1  0
 13 14  2  0
 13 15  1  0
 15 23  1  0
M  END

