
     RDKit          3D

 32 34  0  0  0  0  0  0  0  0999 V2000
    3.5292   -1.1225   -1.9989 O   0  0  0  0  0  0  0  0  0  0  0  0
    3.7292    0.0576   -1.7718 C   0  0  0  0  0  0  0  0  0  0  0  0
    2.8517    0.8540   -0.7921 C   0  0  0  0  0  0  0  0  0  0  0  0
    1.9655    1.8196   -1.4482 N   0  0  0  0  0  0  0  0  0  0  0  0
    2.4342    3.1014   -1.5927 C   0  0  0  0  0  0  0  0  0  0  0  0
    3.5891    3.4156   -1.3384 O   0  0  0  0  0  0  0  0  0  0  0  0
    1.4010    4.1386   -2.0043 C   0  0  0  0  0  0  0  0  0  0  0  0
    0.4252    3.6489   -2.9001 O   0  0  0  0  0  0  0  0  0  0  0  0
   -0.0800    2.4123   -2.6274 C   0  0  0  0  0  0  0  0  0  0  0  0
   -1.3419    2.0860   -3.1228 C   0  0  0  0  0  0  0  0  0  0  0  0
   -1.8706    0.8078   -2.9398 C   0  0  0  0  0  0  0  0  0  0  0  0
   -1.1117   -0.1448   -2.2581 C   0  0  0  0  0  0  0  0  0  0  0  0
   -1.7409   -1.7603   -2.0376 Cl  0  0  0  0  0  0  0  0  0  0  0  0
    0.1558    0.1629   -1.7555 C   0  0  0  0  0  0  0  0  0  0  0  0
    0.6772    1.4533   -1.9202 C   0  0  0  0  0  0  0  0  0  0  0  0
    4.7190    0.8112   -2.3361 N   0  0  0  0  0  0  0  0  0  0  0  0
    5.6414    0.3654   -3.2906 C   0  0  0  0  0  0  0  0  0  0  0  0
    5.7851   -0.9239   -3.8768 C   0  0  0  0  0  0  0  0  0  0  0  0
    6.7913   -0.9392   -4.7472 N   0  0  0  0  0  0  0  0  0  0  0  0
    7.2901    0.2986   -4.7313 N   0  0  0  0  0  0  0  0  0  0  0  0
    8.0781    0.5262   -5.3248 H   0  0  0  0  0  0  0  0  0  0  0  0
    6.6415    1.1339   -3.8732 C   0  0  0  0  0  0  0  0  0  0  0  0
    3.4870    1.4245   -0.1009 H   0  0  0  0  0  0  0  0  0  0  0  0
    2.2578    0.1383   -0.2150 H   0  0  0  0  0  0  0  0  0  0  0  0
    1.9234    4.9664   -2.4992 H   0  0  0  0  0  0  0  0  0  0  0  0
    0.9285    4.5306   -1.0795 H   0  0  0  0  0  0  0  0  0  0  0  0
   -1.8960    2.8551   -3.6642 H   0  0  0  0  0  0  0  0  0  0  0  0
   -2.8566    0.5494   -3.3274 H   0  0  0  0  0  0  0  0  0  0  0  0
    0.7425   -0.6250   -1.2876 H   0  0  0  0  0  0  0  0  0  0  0  0
    4.7590    1.7908   -2.0554 H   0  0  0  0  0  0  0  0  0  0  0  0
    5.1885   -1.8098   -3.6810 H   0  0  0  0  0  0  0  0  0  0  0  0
    6.9240    2.1761   -3.7412 H   0  0  0  0  0  0  0  0  0  0  0  0
  1  2  2  0
  2  3  1  0
  2 16  1  0
  3  4  1  0
  3 23  1  0
  3 24  1  0
  4  5  1  0
  4 15  1  0
  5  6  2  0
  5  7  1  0
  7  8  1  0
  7 25  1  0
  7 26  1  0
  8  9  1  0
  9 10  2  0
  9 15  1  0
 10 11  1  0
 10 27  1  0
 11 12  2  0
 11 28  1  0
 12 13  1  0
 12 14  1  0
 14 15  2  0
 14 29  1  0
 16 17  1  0
 16 30  1  0
 17 18  1  0
 17 22  2  0
 18 19  2  0
 18 31  1  0
 19 20  1  0
 20 21  1  0
 20 22  1  0
 22 32  1  0
M  END

