
     RDKit          3D

 34 37  0  0  0  0  0  0  0  0999 V2000
    3.8285    0.7927   -4.2921 F   0  0  0  0  0  0  0  0  0  0  0  0
    3.4268    1.1463   -3.0237 B   0  0  1  0  0  0  0  0  0  0  0  0
    2.1838    0.6472   -2.7036 F   0  0  0  0  0  0  0  0  0  0  0  0
    4.4133    0.6368   -2.0469 O   0  0  0  0  0  0  0  0  0  0  0  0
    5.1457    1.3461   -1.2320 C   0  0  0  0  0  0  0  0  0  0  0  0
    6.0556    0.5622   -0.3596 C   0  0  0  0  0  0  0  0  0  0  0  0
    6.9150    1.1684    0.5753 C   0  0  0  0  0  0  0  0  0  0  0  0
    7.7510    0.3889    1.3728 C   0  0  0  0  0  0  0  0  0  0  0  0
    7.7506   -1.0050    1.2584 C   0  0  0  0  0  0  0  0  0  0  0  0
    6.8963   -1.6045    0.3290 C   0  0  0  0  0  0  0  0  0  0  0  0
    6.8829   -3.5040    0.1599 Br  0  0  0  0  0  0  0  0  0  0  0  0
    6.0536   -0.8400   -0.4768 C   0  0  0  0  0  0  0  0  0  0  0  0
    5.0534    2.7210   -1.2105 C   0  0  0  0  0  0  0  0  0  0  0  0
    4.1588    3.4231   -2.0694 C   0  0  0  0  0  0  0  0  0  0  0  0
    4.1040    4.8533   -2.0038 C   0  0  0  0  0  0  0  0  0  0  0  0
    3.2581    5.5511   -2.8141 C   0  0  0  0  0  0  0  0  0  0  0  0
    2.4172    4.8618   -3.7368 C   0  0  0  0  0  0  0  0  0  0  0  0
    1.5259    5.5500   -4.5964 C   0  0  0  0  0  0  0  0  0  0  0  0
    0.7241    4.8556   -5.4803 C   0  0  0  0  0  0  0  0  0  0  0  0
    0.7983    3.4467   -5.5211 C   0  0  0  0  0  0  0  0  0  0  0  0
    1.6577    2.7436   -4.6951 C   0  0  0  0  0  0  0  0  0  0  0  0
    2.4909    3.4363   -3.7809 C   0  0  0  0  0  0  0  0  0  0  0  0
    3.3657    2.7555   -2.9405 N   0  0  0  0  0  0  0  0  0  0  0  0
    6.9379    2.2528    0.6878 H   0  0  0  0  0  0  0  0  0  0  0  0
    8.4149    0.8687    2.0959 H   0  0  0  0  0  0  0  0  0  0  0  0
    8.4041   -1.6172    1.8818 H   0  0  0  0  0  0  0  0  0  0  0  0
    5.3897   -1.3123   -1.1996 H   0  0  0  0  0  0  0  0  0  0  0  0
    5.6637    3.3112   -0.5329 H   0  0  0  0  0  0  0  0  0  0  0  0
    4.7562    5.3590   -1.2907 H   0  0  0  0  0  0  0  0  0  0  0  0
    3.2137    6.6425   -2.7671 H   0  0  0  0  0  0  0  0  0  0  0  0
    1.4877    6.6412   -4.5437 H   0  0  0  0  0  0  0  0  0  0  0  0
    0.0380    5.3883   -6.1425 H   0  0  0  0  0  0  0  0  0  0  0  0
    0.1651    2.8929   -6.2185 H   0  0  0  0  0  0  0  0  0  0  0  0
    1.6938    1.6589   -4.7449 H   0  0  0  0  0  0  0  0  0  0  0  0
  2  1  1  6
  2  3  1  0
  2  4  1  0
  2 23  1  0
  4  5  1  0
  5  6  1  0
  5 13  2  0
  6  7  2  0
  6 12  1  0
  7  8  1  0
  7 24  1  0
  8  9  2  0
  8 25  1  0
  9 10  1  0
  9 26  1  0
 10 11  1  0
 10 12  2  0
 12 27  1  0
 13 14  1  0
 13 28  1  0
 14 15  1  0
 14 23  2  0
 15 16  2  0
 15 29  1  0
 16 17  1  0
 16 30  1  0
 17 18  1  0
 17 22  2  0
 18 19  2  0
 18 31  1  0
 19 20  1  0
 19 32  1  0
 20 21  2  0
 20 33  1  0
 21 22  1  0
 21 34  1  0
 22 23  1  0
M  CHG  2   2  -1  23   1
M  END

