
     RDKit          3D

 42 44  0  0  0  0  0  0  0  0999 V2000
    6.4257    1.0223   -1.8723 C   0  0  0  0  0  0  0  0  0  0  0  0
    5.2489    0.8323   -0.9141 C   0  0  0  0  0  0  0  0  0  0  0  0
    5.6732    0.3569    0.4784 C   0  0  0  0  0  0  0  0  0  0  0  0
    4.4811    0.1744    1.4218 C   0  0  0  0  0  0  0  0  0  0  0  0
    4.8716   -0.2819    2.7639 N   0  0  0  0  0  0  0  0  0  0  0  0
    4.9451   -1.6641    2.9802 C   0  0  0  0  0  0  0  0  0  0  0  0
    4.6978   -2.4513    2.0826 O   0  0  0  0  0  0  0  0  0  0  0  0
    5.3281   -2.1128    4.3476 C   0  0  0  0  0  0  0  0  0  0  0  0
    5.3384   -3.4698    4.6325 C   0  0  0  0  0  0  0  0  0  0  0  0
    5.6511   -3.9144    5.9320 C   0  0  0  0  0  0  0  0  0  0  0  0
    5.9964   -3.0068    6.9190 C   0  0  0  0  0  0  0  0  0  0  0  0
    6.0540   -1.6129    6.6521 C   0  0  0  0  0  0  0  0  0  0  0  0
    6.4209   -0.6322    7.6503 C   0  0  0  0  0  0  0  0  0  0  0  0
    6.8847   -1.0551    8.9039 N   0  0  0  0  0  0  0  0  0  0  0  0
    8.1231   -1.8278    8.9630 C   0  0  0  0  0  0  0  0  0  0  0  0
    6.7444   -0.1503   10.0289 C   0  0  0  0  0  0  0  0  0  0  0  0
    6.2608    0.7212    7.3426 C   0  0  0  0  0  0  0  0  0  0  0  0
    5.8403    1.1417    6.0692 C   0  0  0  0  0  0  0  0  0  0  0  0
    5.5668    0.2248    5.0664 C   0  0  0  0  0  0  0  0  0  0  0  0
    5.6612   -1.1635    5.3511 C   0  0  0  0  0  0  0  0  0  0  0  0
    5.1640    0.7034    3.7242 C   0  0  0  0  0  0  0  0  0  0  0  0
    5.0830    1.8870    3.4421 O   0  0  0  0  0  0  0  0  0  0  0  0
    6.0888    1.3637   -2.8641 H   0  0  0  0  0  0  0  0  0  0  0  0
    6.9814    0.0803   -2.0150 H   0  0  0  0  0  0  0  0  0  0  0  0
    7.1387    1.7701   -1.4868 H   0  0  0  0  0  0  0  0  0  0  0  0
    4.5359    0.1061   -1.3453 H   0  0  0  0  0  0  0  0  0  0  0  0
    4.6925    1.7827   -0.8206 H   0  0  0  0  0  0  0  0  0  0  0  0
    6.3721    1.0869    0.9220 H   0  0  0  0  0  0  0  0  0  0  0  0
    6.2133   -0.6019    0.3938 H   0  0  0  0  0  0  0  0  0  0  0  0
    3.7904   -0.5759    1.0157 H   0  0  0  0  0  0  0  0  0  0  0  0
    3.9522    1.1277    1.5494 H   0  0  0  0  0  0  0  0  0  0  0  0
    5.0742   -4.1699    3.8376 H   0  0  0  0  0  0  0  0  0  0  0  0
    5.6061   -4.9807    6.1655 H   0  0  0  0  0  0  0  0  0  0  0  0
    6.1975   -3.3600    7.9307 H   0  0  0  0  0  0  0  0  0  0  0  0
    8.2514   -2.4409    8.0639 H   0  0  0  0  0  0  0  0  0  0  0  0
    8.1187   -2.4947    9.8412 H   0  0  0  0  0  0  0  0  0  0  0  0
    9.0080   -1.1631    9.0453 H   0  0  0  0  0  0  0  0  0  0  0  0
    5.7431    0.3030   10.0348 H   0  0  0  0  0  0  0  0  0  0  0  0
    7.4992    0.6643   10.0387 H   0  0  0  0  0  0  0  0  0  0  0  0
    6.8664   -0.7208   10.9634 H   0  0  0  0  0  0  0  0  0  0  0  0
    6.5090    1.4794    8.0853 H   0  0  0  0  0  0  0  0  0  0  0  0
    5.7508    2.2049    5.8372 H   0  0  0  0  0  0  0  0  0  0  0  0
  1  2  1  0
  1 23  1  0
  1 24  1  0
  1 25  1  0
  2  3  1  0
  2 26  1  0
  2 27  1  0
  3  4  1  0
  3 28  1  0
  3 29  1  0
  4  5  1  0
  4 30  1  0
  4 31  1  0
  5  6  1  0
  5 21  1  0
  6  7  2  0
  6  8  1  0
  8  9  1  0
  8 20  2  0
  9 10  2  0
  9 32  1  0
 10 11  1  0
 10 33  1  0
 11 12  2  0
 11 34  1  0
 12 13  1  0
 12 20  1  0
 13 14  1  0
 13 17  2  0
 14 15  1  0
 14 16  1  0
 15 35  1  0
 15 36  1  0
 15 37  1  0
 16 38  1  0
 16 39  1  0
 16 40  1  0
 17 18  1  0
 17 41  1  0
 18 19  2  0
 18 42  1  0
 19 20  1  0
 19 21  1  0
 21 22  2  0
M  END

