
     RDKit          3D

 31 32  0  0  0  0  0  0  0  0999 V2000
    4.7255    0.4899    0.9759 O   0  0  0  0  0  0  0  0  0  0  0  0
    4.1464   -0.6912    1.4862 C   0  0  2  0  0  0  0  0  0  0  0  0
    3.9264   -0.5210    2.5496 H   0  0  0  0  0  0  0  0  0  0  0  0
    5.0634   -1.8919    1.2398 C   0  0  0  0  0  0  0  0  0  0  0  0
    4.8620   -2.0513   -0.2003 N   0  0  0  0  0  0  0  0  0  0  0  0
    3.4104   -2.0652   -0.3956 C   0  0  0  0  0  0  0  0  0  0  0  0
    2.8670   -1.0910    0.6885 C   0  0  1  0  0  0  0  0  0  0  0  0
    2.4661   -0.1650    0.2265 H   0  0  0  0  0  0  0  0  0  0  0  0
    1.8838   -1.7594    1.5317 N   0  0  0  0  0  0  0  0  0  0  0  0
    1.0448   -0.8742    2.3273 C   0  0  0  0  0  0  0  0  0  0  0  0
    0.0702   -1.6599    3.1985 C   0  0  1  0  0  0  0  0  0  0  0  0
    0.7064   -2.5665    4.2629 C   0  0  0  0  0  0  0  0  0  0  0  0
   -0.4565   -2.7727    5.2349 C   0  0  0  0  0  0  0  0  0  0  0  0
   -1.2375   -1.5825    5.1764 O   0  0  0  0  0  0  0  0  0  0  0  0
   -0.8491   -0.7865    4.0665 C   0  0  0  0  0  0  0  0  0  0  0  0
    5.0945    0.2389    0.1133 H   0  0  0  0  0  0  0  0  0  0  0  0
    4.7270   -2.7622    1.8422 H   0  0  0  0  0  0  0  0  0  0  0  0
    6.1143   -1.6716    1.4824 H   0  0  0  0  0  0  0  0  0  0  0  0
    5.3344   -2.8561   -0.6049 H   0  0  0  0  0  0  0  0  0  0  0  0
    2.9655   -3.0678   -0.2220 H   0  0  0  0  0  0  0  0  0  0  0  0
    3.1476   -1.7549   -1.4198 H   0  0  0  0  0  0  0  0  0  0  0  0
    1.2908   -2.3602    0.9603 H   0  0  0  0  0  0  0  0  0  0  0  0
    0.4803   -0.1472    1.6986 H   0  0  0  0  0  0  0  0  0  0  0  0
    1.6932   -0.2638    2.9799 H   0  0  0  0  0  0  0  0  0  0  0  0
   -0.5655   -2.2849    2.5418 H   0  0  0  0  0  0  0  0  0  0  0  0
    1.5367   -2.0315    4.7556 H   0  0  0  0  0  0  0  0  0  0  0  0
    1.1104   -3.5029    3.8534 H   0  0  0  0  0  0  0  0  0  0  0  0
   -0.1290   -2.9398    6.2750 H   0  0  0  0  0  0  0  0  0  0  0  0
   -1.0751   -3.6427    4.9364 H   0  0  0  0  0  0  0  0  0  0  0  0
   -0.3083    0.1168    4.4173 H   0  0  0  0  0  0  0  0  0  0  0  0
   -1.7498   -0.4447    3.5278 H   0  0  0  0  0  0  0  0  0  0  0  0
  1  2  1  0
  1 16  1  0
  2  3  1  1
  2  4  1  0
  2  7  1  0
  4  5  1  0
  4 17  1  0
  4 18  1  0
  5  6  1  0
  5 19  1  0
  6  7  1  0
  6 20  1  0
  6 21  1  0
  7  8  1  6
  7  9  1  0
  9 10  1  0
  9 22  1  0
 10 11  1  0
 10 23  1  0
 10 24  1  0
 11 12  1  0
 11 15  1  0
 11 25  1  6
 12 13  1  0
 12 26  1  0
 12 27  1  0
 13 14  1  0
 13 28  1  0
 13 29  1  0
 14 15  1  0
 15 30  1  0
 15 31  1  0
M  END

