
     RDKit          3D

 50 51  0  0  0  0  0  0  0  0999 V2000
    1.7919    0.8942   -0.6986 C   0  0  0  0  0  0  0  0  0  0  0  0
    3.1715    0.3784   -0.2904 C   0  0  0  0  0  0  0  0  0  0  0  0
    3.2807    0.0539    1.1994 C   0  0  0  0  0  0  0  0  0  0  0  0
    4.5961   -0.4750    1.5295 N   0  0  0  0  0  0  0  0  0  0  0  0
    4.8678   -0.6863    2.9501 C   0  0  1  0  0  0  0  0  0  0  0  0
    4.0334   -1.8466    3.5265 C   0  0  0  0  0  0  0  0  0  0  0  0
    4.3889   -3.1956    2.8904 C   0  0  0  0  0  0  0  0  0  0  0  0
    5.8830   -3.5059    3.0461 C   0  0  0  0  0  0  0  0  0  0  0  0
    6.7621   -2.3653    2.5151 C   0  0  0  0  0  0  0  0  0  0  0  0
    6.3851   -0.9947    3.1124 C   0  0  2  0  0  0  0  0  0  0  0  0
    6.8348   -0.8506    4.5370 C   0  0  0  0  0  0  0  0  0  0  0  0
    7.5500   -1.6561    5.2650 N   0  0  0  0  0  0  0  0  0  0  0  0
    7.6793   -0.9696    6.4505 C   0  0  0  0  0  0  0  0  0  0  0  0
    8.4669   -1.4746    7.6368 C   0  0  1  0  0  0  0  0  0  0  0  0
    8.0954   -2.9147    7.9894 C   0  0  0  0  0  0  0  0  0  0  0  0
    8.8045   -3.4379    9.2410 C   0  0  0  0  0  0  0  0  0  0  0  0
    8.4561   -4.8917    9.5618 C   0  0  0  0  0  0  0  0  0  0  0  0
    9.8570   -1.4333    7.3663 O   0  0  0  0  0  0  0  0  0  0  0  0
   10.4371   -0.1517    7.4023 C   0  0  0  0  0  0  0  0  0  0  0  0
    7.0824    0.1952    6.4591 N   0  0  0  0  0  0  0  0  0  0  0  0
    6.5158    0.2809    5.1909 O   0  0  0  0  0  0  0  0  0  0  0  0
    1.7519    1.1226   -1.7752 H   0  0  0  0  0  0  0  0  0  0  0  0
    1.5268    1.8156   -0.1536 H   0  0  0  0  0  0  0  0  0  0  0  0
    1.0065    0.1489   -0.4886 H   0  0  0  0  0  0  0  0  0  0  0  0
    3.9383    1.1321   -0.5517 H   0  0  0  0  0  0  0  0  0  0  0  0
    3.4278   -0.5287   -0.8639 H   0  0  0  0  0  0  0  0  0  0  0  0
    2.5144   -0.6980    1.4551 H   0  0  0  0  0  0  0  0  0  0  0  0
    3.0261    0.9622    1.7949 H   0  0  0  0  0  0  0  0  0  0  0  0
    5.3057    0.1490    1.1452 H   0  0  0  0  0  0  0  0  0  0  0  0
    4.6394    0.2266    3.5409 H   0  0  0  0  0  0  0  0  0  0  0  0
    2.9597   -1.6292    3.4087 H   0  0  0  0  0  0  0  0  0  0  0  0
    4.2100   -1.8875    4.6161 H   0  0  0  0  0  0  0  0  0  0  0  0
    4.1261   -3.1675    1.8197 H   0  0  0  0  0  0  0  0  0  0  0  0
    3.7840   -3.9967    3.3475 H   0  0  0  0  0  0  0  0  0  0  0  0
    6.1376   -4.4394    2.5168 H   0  0  0  0  0  0  0  0  0  0  0  0
    6.1177   -3.6776    4.1100 H   0  0  0  0  0  0  0  0  0  0  0  0
    6.6403   -2.2894    1.4237 H   0  0  0  0  0  0  0  0  0  0  0  0
    7.8237   -2.5739    2.7177 H   0  0  0  0  0  0  0  0  0  0  0  0
    6.9333   -0.2058    2.5617 H   0  0  0  0  0  0  0  0  0  0  0  0
    8.2279   -0.8044    8.4865 H   0  0  0  0  0  0  0  0  0  0  0  0
    8.3377   -3.5460    7.1182 H   0  0  0  0  0  0  0  0  0  0  0  0
    7.0005   -2.9678    8.1218 H   0  0  0  0  0  0  0  0  0  0  0  0
    8.5451   -2.7956   10.1027 H   0  0  0  0  0  0  0  0  0  0  0  0
    9.8916   -3.3329    9.0972 H   0  0  0  0  0  0  0  0  0  0  0  0
    7.3746   -5.0195    9.7387 H   0  0  0  0  0  0  0  0  0  0  0  0
    8.9836   -5.2428   10.4631 H   0  0  0  0  0  0  0  0  0  0  0  0
    8.7343   -5.5618    8.7313 H   0  0  0  0  0  0  0  0  0  0  0  0
   11.5061   -0.2704    7.1737 H   0  0  0  0  0  0  0  0  0  0  0  0
   10.3367    0.3159    8.4020 H   0  0  0  0  0  0  0  0  0  0  0  0
    9.9908    0.5375    6.6606 H   0  0  0  0  0  0  0  0  0  0  0  0
  1  2  1  0
  1 22  1  0
  1 23  1  0
  1 24  1  0
  2  3  1  0
  2 25  1  0
  2 26  1  0
  3  4  1  0
  3 27  1  0
  3 28  1  0
  4  5  1  0
  4 29  1  0
  5  6  1  0
  5 10  1  0
  5 30  1  1
  6  7  1  0
  6 31  1  0
  6 32  1  0
  7  8  1  0
  7 33  1  0
  7 34  1  0
  8  9  1  0
  8 35  1  0
  8 36  1  0
  9 10  1  0
  9 37  1  0
  9 38  1  0
 10 11  1  0
 10 39  1  6
 11 12  2  0
 11 21  1  0
 12 13  1  0
 13 14  1  0
 13 20  2  0
 14 15  1  0
 14 18  1  0
 14 40  1  1
 15 16  1  0
 15 41  1  0
 15 42  1  0
 16 17  1  0
 16 43  1  0
 16 44  1  0
 17 45  1  0
 17 46  1  0
 17 47  1  0
 18 19  1  0
 19 48  1  0
 19 49  1  0
 19 50  1  0
 20 21  1  0
M  END

