
     RDKit          3D

 34 35  0  0  0  0  0  0  0  0999 V2000
    4.0557   -2.4401   -2.2331 F   0  0  0  0  0  0  0  0  0  0  0  0
    3.9245   -1.2591   -1.6027 C   0  0  0  0  0  0  0  0  0  0  0  0
    4.7205   -0.1966   -2.0163 C   0  0  0  0  0  0  0  0  0  0  0  0
    4.5972    1.0352   -1.3677 C   0  0  0  0  0  0  0  0  0  0  0  0
    3.6897    1.1769   -0.3136 C   0  0  0  0  0  0  0  0  0  0  0  0
    2.9018    0.0944    0.0843 C   0  0  0  0  0  0  0  0  0  0  0  0
    2.9849   -1.1563   -0.5603 C   0  0  0  0  0  0  0  0  0  0  0  0
    2.2037   -2.3459   -0.1749 C   0  0  0  0  0  0  0  0  0  0  0  0
    0.9338   -2.4106    0.2705 C   0  0  0  0  0  0  0  0  0  0  0  0
   -0.0804   -1.3143    0.4316 C   0  0  0  0  0  0  0  0  0  0  0  0
   -1.4674   -1.7207   -0.1436 C   0  0  1  0  0  0  0  0  0  0  0  0
   -2.5459   -0.6510    0.1096 C   0  0  0  0  0  0  0  0  0  0  0  0
   -2.4074    0.5609   -0.8234 C   0  0  0  0  0  0  0  0  0  0  0  0
   -2.3411    0.1101   -2.2877 C   0  0  0  0  0  0  0  0  0  0  0  0
   -1.2445   -0.9401   -2.4781 C   0  0  0  0  0  0  0  0  0  0  0  0
   -1.4649   -2.0593   -1.5674 N   0  0  0  0  0  0  0  0  0  0  0  0
    5.4217   -0.3502   -2.8389 H   0  0  0  0  0  0  0  0  0  0  0  0
    5.2172    1.8783   -1.6819 H   0  0  0  0  0  0  0  0  0  0  0  0
    3.6030    2.1315    0.2106 H   0  0  0  0  0  0  0  0  0  0  0  0
    2.2272    0.2046    0.9346 H   0  0  0  0  0  0  0  0  0  0  0  0
    2.7365   -3.2948   -0.2949 H   0  0  0  0  0  0  0  0  0  0  0  0
    0.5645   -3.4136    0.5247 H   0  0  0  0  0  0  0  0  0  0  0  0
    0.2738   -0.3827   -0.0329 H   0  0  0  0  0  0  0  0  0  0  0  0
   -0.2142   -1.0937    1.5084 H   0  0  0  0  0  0  0  0  0  0  0  0
   -1.7737   -2.6359    0.3962 H   0  0  0  0  0  0  0  0  0  0  0  0
   -2.5194   -0.3353    1.1661 H   0  0  0  0  0  0  0  0  0  0  0  0
   -3.5297   -1.1193   -0.0620 H   0  0  0  0  0  0  0  0  0  0  0  0
   -1.4934    1.1299   -0.5742 H   0  0  0  0  0  0  0  0  0  0  0  0
   -3.2506    1.2545   -0.6677 H   0  0  0  0  0  0  0  0  0  0  0  0
   -2.1612    0.9698   -2.9548 H   0  0  0  0  0  0  0  0  0  0  0  0
   -3.3089   -0.3345   -2.5787 H   0  0  0  0  0  0  0  0  0  0  0  0
   -0.2522   -0.4505   -2.3503 H   0  0  0  0  0  0  0  0  0  0  0  0
   -1.2664   -1.3282   -3.5099 H   0  0  0  0  0  0  0  0  0  0  0  0
   -0.8028   -2.8096   -1.7541 H   0  0  0  0  0  0  0  0  0  0  0  0
  1  2  1  0
  2  3  2  0
  2  7  1  0
  3  4  1  0
  3 17  1  0
  4  5  2  0
  4 18  1  0
  5  6  1  0
  5 19  1  0
  6  7  2  0
  6 20  1  0
  7  8  1  0
  8  9  2  0
  8 21  1  0
  9 10  1  0
  9 22  1  0
 10 11  1  0
 10 23  1  0
 10 24  1  0
 11 12  1  0
 11 16  1  0
 11 25  1  1
 12 13  1  0
 12 26  1  0
 12 27  1  0
 13 14  1  0
 13 28  1  0
 13 29  1  0
 14 15  1  0
 14 30  1  0
 14 31  1  0
 15 16  1  0
 15 32  1  0
 15 33  1  0
 16 34  1  0
M  END

