
     RDKit          3D

 54 56  0  0  0  0  0  0  0  0999 V2000
    0.9097    1.5175    6.4178 C   0  0  0  0  0  0  0  0  0  0  0  0
    2.4282    1.6749    6.3291 C   0  0  0  0  0  0  0  0  0  0  0  0
    2.9090    2.2498    4.9921 C   0  0  0  0  0  0  0  0  0  0  0  0
    4.4295    2.4151    4.9191 C   0  0  0  0  0  0  0  0  0  0  0  0
    4.9692    2.8845    3.5561 C   0  0  1  0  0  0  0  0  0  0  0  0
    4.3920    4.2376    3.0600 C   0  0  0  0  0  0  0  0  0  0  0  0
    4.5643    5.4240    4.0116 C   0  0  0  0  0  0  0  0  0  0  0  0
    6.4993    2.9650    3.6056 C   0  0  0  0  0  0  0  0  0  0  0  0
    7.1001    3.4700    4.5438 O   0  0  0  0  0  0  0  0  0  0  0  0
    7.1471    2.4563    2.5134 N   0  0  0  0  0  0  0  0  0  0  0  0
    8.5934    2.5037    2.3561 C   0  0  2  0  0  0  0  0  0  0  0  0
    9.0564    3.7738    1.6125 C   0  0  0  0  0  0  0  0  0  0  0  0
   10.5895    3.8972    1.5915 C   0  0  0  0  0  0  0  0  0  0  0  0
   11.1941    2.5740    1.2416 C   0  0  0  0  0  0  0  0  0  0  0  0
   12.5070    2.3805    0.8538 N   0  0  0  0  0  0  0  0  0  0  0  0
   13.1963    3.1125    0.7521 H   0  0  0  0  0  0  0  0  0  0  0  0
   12.7250    1.0341    0.6275 C   0  0  0  0  0  0  0  0  0  0  0  0
   13.8975    0.3727    0.2186 C   0  0  0  0  0  0  0  0  0  0  0  0
   15.1723    1.1330   -0.0421 C   0  0  0  0  0  0  0  0  0  0  0  0
   13.7998   -1.0137    0.0748 C   0  0  0  0  0  0  0  0  0  0  0  0
   12.5987   -1.7116    0.3242 C   0  0  0  0  0  0  0  0  0  0  0  0
   11.4475   -1.0427    0.7274 C   0  0  0  0  0  0  0  0  0  0  0  0
   11.4984    0.3556    0.8854 C   0  0  0  0  0  0  0  0  0  0  0  0
   10.5423    1.3612    1.2772 C   0  0  0  0  0  0  0  0  0  0  0  0
    9.0987    1.2238    1.6657 C   0  0  0  0  0  0  0  0  0  0  0  0
    0.6014    1.1018    7.3904 H   0  0  0  0  0  0  0  0  0  0  0  0
    0.5295    0.8424    5.6324 H   0  0  0  0  0  0  0  0  0  0  0  0
    0.3976    2.4866    6.2934 H   0  0  0  0  0  0  0  0  0  0  0  0
    2.9117    0.6954    6.4977 H   0  0  0  0  0  0  0  0  0  0  0  0
    2.7814    2.3261    7.1491 H   0  0  0  0  0  0  0  0  0  0  0  0
    2.4119    3.2219    4.8243 H   0  0  0  0  0  0  0  0  0  0  0  0
    2.5665    1.5919    4.1706 H   0  0  0  0  0  0  0  0  0  0  0  0
    4.9054    1.4479    5.1605 H   0  0  0  0  0  0  0  0  0  0  0  0
    4.7785    3.1126    5.6974 H   0  0  0  0  0  0  0  0  0  0  0  0
    4.6913    2.1265    2.8006 H   0  0  0  0  0  0  0  0  0  0  0  0
    3.3215    4.0959    2.8335 H   0  0  0  0  0  0  0  0  0  0  0  0
    4.8691    4.4735    2.0920 H   0  0  0  0  0  0  0  0  0  0  0  0
    3.9948    5.2850    4.9443 H   0  0  0  0  0  0  0  0  0  0  0  0
    4.2003    6.3512    3.5404 H   0  0  0  0  0  0  0  0  0  0  0  0
    5.6186    5.5670    4.2909 H   0  0  0  0  0  0  0  0  0  0  0  0
    6.5955    2.0791    1.7518 H   0  0  0  0  0  0  0  0  0  0  0  0
    9.0024    2.5501    3.3779 H   0  0  0  0  0  0  0  0  0  0  0  0
    8.6134    4.6544    2.1013 H   0  0  0  0  0  0  0  0  0  0  0  0
    8.6709    3.7436    0.5773 H   0  0  0  0  0  0  0  0  0  0  0  0
   10.9512    4.2320    2.5826 H   0  0  0  0  0  0  0  0  0  0  0  0
   10.9006    4.6774    0.8741 H   0  0  0  0  0  0  0  0  0  0  0  0
   15.0426    1.8868   -0.8393 H   0  0  0  0  0  0  0  0  0  0  0  0
   15.9831    0.4591   -0.3542 H   0  0  0  0  0  0  0  0  0  0  0  0
   15.5176    1.6718    0.8586 H   0  0  0  0  0  0  0  0  0  0  0  0
   14.6854   -1.5729   -0.2406 H   0  0  0  0  0  0  0  0  0  0  0  0
   12.5793   -2.7970    0.1969 H   0  0  0  0  0  0  0  0  0  0  0  0
   10.5223   -1.5926    0.9183 H   0  0  0  0  0  0  0  0  0  0  0  0
    8.9466    0.3618    2.3377 H   0  0  0  0  0  0  0  0  0  0  0  0
    8.4769    1.0223    0.7693 H   0  0  0  0  0  0  0  0  0  0  0  0
  1  2  1  0
  1 26  1  0
  1 27  1  0
  1 28  1  0
  2  3  1  0
  2 29  1  0
  2 30  1  0
  3  4  1  0
  3 31  1  0
  3 32  1  0
  4  5  1  0
  4 33  1  0
  4 34  1  0
  5  6  1  0
  5  8  1  0
  5 35  1  6
  6  7  1  0
  6 36  1  0
  6 37  1  0
  7 38  1  0
  7 39  1  0
  7 40  1  0
  8  9  2  0
  8 10  1  0
 10 11  1  0
 10 41  1  0
 11 12  1  0
 11 25  1  0
 11 42  1  1
 12 13  1  0
 12 43  1  0
 12 44  1  0
 13 14  1  0
 13 45  1  0
 13 46  1  0
 14 15  1  0
 14 24  2  0
 15 16  1  0
 15 17  1  0
 17 18  1  0
 17 23  2  0
 18 19  1  0
 18 20  2  0
 19 47  1  0
 19 48  1  0
 19 49  1  0
 20 21  1  0
 20 50  1  0
 21 22  2  0
 21 51  1  0
 22 23  1  0
 22 52  1  0
 23 24  1  0
 24 25  1  0
 25 53  1  0
 25 54  1  0
M  END

