
     RDKit          3D

 58 60  0  0  0  0  0  0  0  0999 V2000
    1.5463    0.6213    0.1028 C   0  0  0  0  0  0  0  0  0  0  0  0
    2.3436   -0.6619   -0.1356 C   0  0  0  0  0  0  0  0  0  0  0  0
    3.3044   -1.0623    1.0111 C   0  0  2  0  0  0  0  0  0  0  0  0
    3.7609   -2.0272    0.7419 H   0  0  0  0  0  0  0  0  0  0  0  0
    2.5642   -1.3320    2.2324 N   0  0  0  0  0  0  0  0  0  0  0  0
    2.6182   -2.5187    2.8879 C   0  0  0  0  0  0  0  0  0  0  0  0
    3.2716   -3.4856    2.5312 O   0  0  0  0  0  0  0  0  0  0  0  0
    1.7552   -2.6095    4.1619 C   0  0  1  0  0  0  0  0  0  0  0  0
    0.9544   -3.3291    3.9151 H   0  0  0  0  0  0  0  0  0  0  0  0
    2.5846   -3.1300    5.3322 C   0  0  0  0  0  0  0  0  0  0  0  0
    1.1869   -1.3293    4.4328 O   0  0  0  0  0  0  0  0  0  0  0  0
    0.0328   -1.1910    5.1537 C   0  0  0  0  0  0  0  0  0  0  0  0
   -0.7279   -2.2633    5.6450 C   0  0  0  0  0  0  0  0  0  0  0  0
   -1.9101   -2.0179    6.3581 C   0  0  0  0  0  0  0  0  0  0  0  0
   -2.7357   -3.1635    6.8946 C   0  0  0  0  0  0  0  0  0  0  0  0
   -2.3165   -0.6931    6.5742 C   0  0  0  0  0  0  0  0  0  0  0  0
   -1.5638    0.3874    6.0934 C   0  0  0  0  0  0  0  0  0  0  0  0
   -2.0052    1.8129    6.3259 C   0  0  0  0  0  0  0  0  0  0  0  0
   -0.3856    0.1253    5.3831 C   0  0  0  0  0  0  0  0  0  0  0  0
    4.4380   -0.0540    1.2099 C   0  0  0  0  0  0  0  0  0  0  0  0
    4.5586    0.7405    2.3583 C   0  0  0  0  0  0  0  0  0  0  0  0
    5.6030    1.6584    2.4748 C   0  0  0  0  0  0  0  0  0  0  0  0
    6.5637    1.8165    1.4659 C   0  0  0  0  0  0  0  0  0  0  0  0
    6.4627    1.0121    0.3115 C   0  0  0  0  0  0  0  0  0  0  0  0
    5.4049    0.0974    0.2079 C   0  0  0  0  0  0  0  0  0  0  0  0
    7.5029    1.0849   -0.7935 C   0  0  0  0  0  0  0  0  0  0  0  0
    8.3505    2.3601   -0.7528 C   0  0  0  0  0  0  0  0  0  0  0  0
    8.8466    2.6287    0.6701 C   0  0  0  0  0  0  0  0  0  0  0  0
    7.6627    2.8538    1.6156 C   0  0  0  0  0  0  0  0  0  0  0  0
    0.9059    0.8493   -0.7637 H   0  0  0  0  0  0  0  0  0  0  0  0
    2.2086    1.4863    0.2668 H   0  0  0  0  0  0  0  0  0  0  0  0
    0.8798    0.5353    0.9774 H   0  0  0  0  0  0  0  0  0  0  0  0
    2.9374   -0.5578   -1.0586 H   0  0  0  0  0  0  0  0  0  0  0  0
    1.6539   -1.5064   -0.3044 H   0  0  0  0  0  0  0  0  0  0  0  0
    1.9765   -0.6168    2.6454 H   0  0  0  0  0  0  0  0  0  0  0  0
    3.0646   -4.0738    5.0397 H   0  0  0  0  0  0  0  0  0  0  0  0
    1.9590   -3.2996    6.2204 H   0  0  0  0  0  0  0  0  0  0  0  0
    3.3690   -2.4023    5.5911 H   0  0  0  0  0  0  0  0  0  0  0  0
   -0.4127   -3.2946    5.4852 H   0  0  0  0  0  0  0  0  0  0  0  0
   -2.3068   -4.1391    6.6223 H   0  0  0  0  0  0  0  0  0  0  0  0
   -3.7670   -3.1282    6.5060 H   0  0  0  0  0  0  0  0  0  0  0  0
   -2.8067   -3.1226    7.9945 H   0  0  0  0  0  0  0  0  0  0  0  0
   -3.2374   -0.4989    7.1319 H   0  0  0  0  0  0  0  0  0  0  0  0
   -2.9168    1.8596    6.9393 H   0  0  0  0  0  0  0  0  0  0  0  0
   -2.2146    2.3264    5.3723 H   0  0  0  0  0  0  0  0  0  0  0  0
   -1.2220    2.3958    6.8383 H   0  0  0  0  0  0  0  0  0  0  0  0
    0.2290    0.9418    4.9961 H   0  0  0  0  0  0  0  0  0  0  0  0
    3.8461    0.6315    3.1783 H   0  0  0  0  0  0  0  0  0  0  0  0
    5.6788    2.2688    3.3802 H   0  0  0  0  0  0  0  0  0  0  0  0
    5.3460   -0.5278   -0.6896 H   0  0  0  0  0  0  0  0  0  0  0  0
    7.0095    0.9780   -1.7741 H   0  0  0  0  0  0  0  0  0  0  0  0
    8.1711    0.2076   -0.7005 H   0  0  0  0  0  0  0  0  0  0  0  0
    7.7479    3.2209   -1.0960 H   0  0  0  0  0  0  0  0  0  0  0  0
    9.1965    2.2711   -1.4540 H   0  0  0  0  0  0  0  0  0  0  0  0
    9.5184    3.5023    0.6939 H   0  0  0  0  0  0  0  0  0  0  0  0
    9.4424    1.7645    1.0164 H   0  0  0  0  0  0  0  0  0  0  0  0
    7.2310    3.8533    1.4161 H   0  0  0  0  0  0  0  0  0  0  0  0
    8.0032    2.8828    2.6643 H   0  0  0  0  0  0  0  0  0  0  0  0
  1  2  1  0
  1 30  1  0
  1 31  1  0
  1 32  1  0
  2  3  1  0
  2 33  1  0
  2 34  1  0
  3  4  1  6
  3  5  1  0
  3 20  1  0
  5  6  1  0
  5 35  1  0
  6  7  2  0
  6  8  1  0
  8  9  1  6
  8 10  1  0
  8 11  1  0
 10 36  1  0
 10 37  1  0
 10 38  1  0
 11 12  1  0
 12 13  2  0
 12 19  1  0
 13 14  1  0
 13 39  1  0
 14 15  1  0
 14 16  2  0
 15 40  1  0
 15 41  1  0
 15 42  1  0
 16 17  1  0
 16 43  1  0
 17 18  1  0
 17 19  2  0
 18 44  1  0
 18 45  1  0
 18 46  1  0
 19 47  1  0
 20 21  2  0
 20 25  1  0
 21 22  1  0
 21 48  1  0
 22 23  2  0
 22 49  1  0
 23 24  1  0
 23 29  1  0
 24 25  2  0
 24 26  1  0
 25 50  1  0
 26 27  1  0
 26 51  1  0
 26 52  1  0
 27 28  1  0
 27 53  1  0
 27 54  1  0
 28 29  1  0
 28 55  1  0
 28 56  1  0
 29 57  1  0
 29 58  1  0
M  END

