
     RDKit          3D

 29 30  0  0  0  0  0  0  0  0999 V2000
    3.4511    2.6710   -0.4671 O   0  0  0  0  0  0  0  0  0  0  0  0
    3.1513    1.6873    0.1591 C   0  0  0  0  0  0  0  0  0  0  0  0
    1.9380    1.1046   -0.0211 O   0  0  0  0  0  0  0  0  0  0  0  0
    4.0745    1.0537    1.1366 C   0  0  0  0  0  0  0  0  0  0  0  0
    4.0107   -0.2335    1.5447 C   0  0  0  0  0  0  0  0  0  0  0  0
    4.9309   -0.8959    2.4488 C   0  0  0  0  0  0  0  0  0  0  0  0
    6.0326   -0.3983    3.1261 C   0  0  0  0  0  0  0  0  0  0  0  0
    6.6850   -1.3707    3.9236 C   0  0  0  0  0  0  0  0  0  0  0  0
    6.0982   -2.6200    3.8624 C   0  0  0  0  0  0  0  0  0  0  0  0
    6.5140   -3.8628    4.5784 C   0  0  0  0  0  0  0  0  0  0  0  0
    5.4158   -4.1476    6.0398 S   0  0  0  0  0  0  0  0  0  0  0  0
    6.0274   -5.7240    6.5838 C   0  0  0  0  0  0  0  0  0  0  0  0
    7.0273   -6.2985    5.9185 N   0  0  0  0  0  0  0  0  0  0  0  0
    7.4957   -7.4840    6.3178 C   0  0  0  0  0  0  0  0  0  0  0  0
    6.9871   -8.1700    7.4192 C   0  0  0  0  0  0  0  0  0  0  0  0
    5.9362   -7.5814    8.1320 C   0  0  0  0  0  0  0  0  0  0  0  0
    5.4478   -6.3476    7.7151 C   0  0  0  0  0  0  0  0  0  0  0  0
    4.0197   -5.5192    8.6588 Br  0  0  0  0  0  0  0  0  0  0  0  0
    4.7135   -2.5916    2.8146 S   0  0  0  0  0  0  0  0  0  0  0  0
    1.7750    0.4458    0.6681 H   0  0  0  0  0  0  0  0  0  0  0  0
    4.8955    1.7063    1.4426 H   0  0  0  0  0  0  0  0  0  0  0  0
    3.2077   -0.8709    1.1538 H   0  0  0  0  0  0  0  0  0  0  0  0
    6.3600    0.6393    3.0497 H   0  0  0  0  0  0  0  0  0  0  0  0
    7.5684   -1.1666    4.5313 H   0  0  0  0  0  0  0  0  0  0  0  0
    7.5495   -3.7697    4.9326 H   0  0  0  0  0  0  0  0  0  0  0  0
    6.4636   -4.7578    3.9437 H   0  0  0  0  0  0  0  0  0  0  0  0
    8.3182   -7.9040    5.7281 H   0  0  0  0  0  0  0  0  0  0  0  0
    7.3963   -9.1371    7.7174 H   0  0  0  0  0  0  0  0  0  0  0  0
    5.4986   -8.0737    9.0028 H   0  0  0  0  0  0  0  0  0  0  0  0
  1  2  2  0
  2  3  1  0
  2  4  1  0
  3 20  1  0
  4  5  2  0
  4 21  1  0
  5  6  1  0
  5 22  1  0
  6  7  2  0
  6 19  1  0
  7  8  1  0
  7 23  1  0
  8  9  2  0
  8 24  1  0
  9 10  1  0
  9 19  1  0
 10 11  1  0
 10 25  1  0
 10 26  1  0
 11 12  1  0
 12 13  2  0
 12 17  1  0
 13 14  1  0
 14 15  2  0
 14 27  1  0
 15 16  1  0
 15 28  1  0
 16 17  2  0
 16 29  1  0
 17 18  1  0
M  END

