
     RDKit          3D

 50 51  0  0  0  0  0  0  0  0999 V2000
    3.6397   -4.6799    2.8945 C   0  0  0  0  0  0  0  0  0  0  0  0
    2.7160   -3.4799    3.1669 C   0  0  1  0  0  0  0  0  0  0  0  0
    1.3867   -3.9321    3.7964 C   0  0  0  0  0  0  0  0  0  0  0  0
    3.4051   -2.4048    3.9972 C   0  0  0  0  0  0  0  0  0  0  0  0
    3.6169   -1.1179    3.4834 C   0  0  0  0  0  0  0  0  0  0  0  0
    4.2462   -0.1112    4.2207 C   0  0  0  0  0  0  0  0  0  0  0  0
    4.6901   -0.3852    5.5239 C   0  0  0  0  0  0  0  0  0  0  0  0
    5.3529    0.5654    6.3348 N   0  0  0  0  0  0  0  0  0  0  0  0
    5.5515    1.8930    6.0925 C   0  0  0  0  0  0  0  0  0  0  0  0
    5.1661    2.5123    5.1180 O   0  0  0  0  0  0  0  0  0  0  0  0
    6.2923    2.6614    7.1952 C   0  0  0  0  0  0  0  0  0  0  0  0
    7.0328    1.8336    8.1061 O   0  0  0  0  0  0  0  0  0  0  0  0
    8.3804    1.8149    7.9714 C   0  0  0  0  0  0  0  0  0  0  0  0
    8.9896    2.4280    7.1378 O   0  0  0  0  0  0  0  0  0  0  0  0
    9.0810    0.9418    9.0097 C   0  0  0  0  0  0  0  0  0  0  0  0
    8.2647    0.1421    9.8869 N   0  0  0  0  0  0  0  0  0  0  0  0
    7.9876    0.4931   11.4818 S   0  0  1  0  0  0  0  0  0  0  0  0
    7.5615   -0.7553   12.1031 O   0  0  0  0  0  0  0  0  0  0  0  0
    9.1293    1.2747   11.9567 O   0  0  0  0  0  0  0  0  0  0  0  0
    6.5572    1.6070   11.5606 C   0  0  0  0  0  0  0  0  0  0  0  0
    6.6938    2.7931   12.2784 C   0  0  0  0  0  0  0  0  0  0  0  0
    5.5889    3.6349   12.4510 C   0  0  0  0  0  0  0  0  0  0  0  0
    4.3491    3.2900   11.9085 C   0  0  0  0  0  0  0  0  0  0  0  0
    4.2076    2.1059   11.1819 C   0  0  0  0  0  0  0  0  0  0  0  0
    5.3095    1.2522   11.0023 C   0  0  0  0  0  0  0  0  0  0  0  0
    5.1589    0.0699   10.2034 C   0  0  0  0  0  0  0  0  0  0  0  0
    5.0515   -0.8552    9.5107 N   0  0  0  0  0  0  0  0  0  0  0  0
    4.4804   -1.6679    6.0613 C   0  0  0  0  0  0  0  0  0  0  0  0
    3.8508   -2.6548    5.3064 C   0  0  0  0  0  0  0  0  0  0  0  0
    3.1446   -5.4147    2.2383 H   0  0  0  0  0  0  0  0  0  0  0  0
    3.9101   -5.1996    3.8287 H   0  0  0  0  0  0  0  0  0  0  0  0
    4.5747   -4.3625    2.4068 H   0  0  0  0  0  0  0  0  0  0  0  0
    2.4776   -3.0214    2.1913 H   0  0  0  0  0  0  0  0  0  0  0  0
    1.5486   -4.4146    4.7745 H   0  0  0  0  0  0  0  0  0  0  0  0
    0.8740   -4.6616    3.1479 H   0  0  0  0  0  0  0  0  0  0  0  0
    0.7081   -3.0792    3.9537 H   0  0  0  0  0  0  0  0  0  0  0  0
    3.2793   -0.8866    2.4686 H   0  0  0  0  0  0  0  0  0  0  0  0
    4.3911    0.8812    3.8006 H   0  0  0  0  0  0  0  0  0  0  0  0
    5.6783    0.2190    7.2324 H   0  0  0  0  0  0  0  0  0  0  0  0
    5.5520    3.2099    7.7976 H   0  0  0  0  0  0  0  0  0  0  0  0
    6.9617    3.3755    6.7002 H   0  0  0  0  0  0  0  0  0  0  0  0
    9.7040    1.6090    9.6261 H   0  0  0  0  0  0  0  0  0  0  0  0
    9.7906    0.3060    8.4547 H   0  0  0  0  0  0  0  0  0  0  0  0
    7.7412   -0.6560    9.5380 H   0  0  0  0  0  0  0  0  0  0  0  0
    7.6690    3.0437   12.6986 H   0  0  0  0  0  0  0  0  0  0  0  0
    5.7016    4.5631   13.0160 H   0  0  0  0  0  0  0  0  0  0  0  0
    3.4863    3.9453   12.0461 H   0  0  0  0  0  0  0  0  0  0  0  0
    3.2451    1.8328   10.7452 H   0  0  0  0  0  0  0  0  0  0  0  0
    4.7983   -1.8823    7.0848 H   0  0  0  0  0  0  0  0  0  0  0  0
    3.7030   -3.6400    5.7570 H   0  0  0  0  0  0  0  0  0  0  0  0
  1  2  1  0
  1 30  1  0
  1 31  1  0
  1 32  1  0
  2  3  1  0
  2  4  1  0
  2 33  1  6
  3 34  1  0
  3 35  1  0
  3 36  1  0
  4  5  2  0
  4 29  1  0
  5  6  1  0
  5 37  1  0
  6  7  2  0
  6 38  1  0
  7  8  1  0
  7 28  1  0
  8  9  1  0
  8 39  1  0
  9 10  2  0
  9 11  1  0
 11 12  1  0
 11 40  1  0
 11 41  1  0
 12 13  1  0
 13 14  2  0
 13 15  1  0
 15 16  1  0
 15 42  1  0
 15 43  1  0
 17 16  1  6
 16 44  1  0
 17 18  2  0
 17 19  2  0
 17 20  1  0
 20 21  2  0
 20 25  1  0
 21 22  1  0
 21 45  1  0
 22 23  2  0
 22 46  1  0
 23 24  1  0
 23 47  1  0
 24 25  2  0
 24 48  1  0
 25 26  1  0
 26 27  3  0
 28 29  2  0
 28 49  1  0
 29 50  1  0
M  END

