
     RDKit          3D

 58 61  0  0  0  0  0  0  0  0999 V2000
    8.6119   -4.3257    3.4230 C   0  0  0  0  0  0  0  0  0  0  0  0
    8.9644   -3.5083    2.1794 C   0  0  0  0  0  0  0  0  0  0  0  0
    7.9409   -3.6627    1.0500 C   0  0  0  0  0  0  0  0  0  0  0  0
    8.3050   -2.8447   -0.1790 C   0  0  0  0  0  0  0  0  0  0  0  0
    7.3314   -3.0698   -1.1954 O   0  0  0  0  0  0  0  0  0  0  0  0
    7.5162   -2.5735   -2.4390 C   0  0  0  0  0  0  0  0  0  0  0  0
    8.6063   -1.7620   -2.7905 C   0  0  0  0  0  0  0  0  0  0  0  0
    8.7809   -1.3427   -4.1117 C   0  0  0  0  0  0  0  0  0  0  0  0
    7.8814   -1.7365   -5.1050 C   0  0  0  0  0  0  0  0  0  0  0  0
    6.7962   -2.5360   -4.7558 C   0  0  0  0  0  0  0  0  0  0  0  0
    6.5599   -2.9459   -3.4262 C   0  0  0  0  0  0  0  0  0  0  0  0
    5.3585   -3.7348   -3.1801 C   0  0  0  0  0  0  0  0  0  0  0  0
    4.5421   -3.8883   -2.1066 C   0  0  0  0  0  0  0  0  0  0  0  0
    4.5780   -3.1576   -0.5005 S   0  0  0  0  0  0  0  0  0  0  0  0
    3.0158   -3.8558   -0.0477 C   0  0  0  0  0  0  0  0  0  0  0  0
    2.3330   -3.6389    1.4242 S   0  0  0  0  0  0  0  0  0  0  0  0
    2.5155   -4.6213   -1.0932 N   0  0  0  0  0  0  0  0  0  0  0  0
    1.2299   -5.1998   -1.0511 C   0  0  0  0  0  0  0  0  0  0  0  0
    0.9240   -6.5270   -0.9783 C   0  0  0  0  0  0  0  0  0  0  0  0
    1.8482   -7.6974   -0.9931 C   0  0  0  0  0  0  0  0  0  0  0  0
   -0.4500   -6.6875   -0.9418 N   0  0  0  0  0  0  0  0  0  0  0  0
   -1.0781   -7.7436   -1.7373 C   0  0  0  0  0  0  0  0  0  0  0  0
   -1.0199   -5.4125   -1.0827 N   0  0  0  0  0  0  0  0  0  0  0  0
   -2.3435   -5.1752   -0.6380 C   0  0  0  0  0  0  0  0  0  0  0  0
   -3.0568   -4.0850   -1.1634 C   0  0  0  0  0  0  0  0  0  0  0  0
   -4.3555   -3.8332   -0.7185 C   0  0  0  0  0  0  0  0  0  0  0  0
   -4.9616   -4.6629    0.2303 C   0  0  0  0  0  0  0  0  0  0  0  0
   -4.2478   -5.7459    0.7504 C   0  0  0  0  0  0  0  0  0  0  0  0
   -2.9398   -5.9993    0.3312 C   0  0  0  0  0  0  0  0  0  0  0  0
   -0.0042   -4.4209   -1.1430 C   0  0  0  0  0  0  0  0  0  0  0  0
   -0.1913   -3.2249   -1.2233 O   0  0  0  0  0  0  0  0  0  0  0  0
    3.3075   -4.7116   -2.2600 C   0  0  0  0  0  0  0  0  0  0  0  0
    2.9961   -5.3740   -3.2243 O   0  0  0  0  0  0  0  0  0  0  0  0
    9.3635   -4.1941    4.2172 H   0  0  0  0  0  0  0  0  0  0  0  0
    8.5558   -5.4023    3.1913 H   0  0  0  0  0  0  0  0  0  0  0  0
    7.6342   -4.0257    3.8346 H   0  0  0  0  0  0  0  0  0  0  0  0
    9.9646   -3.8060    1.8144 H   0  0  0  0  0  0  0  0  0  0  0  0
    9.0494   -2.4410    2.4541 H   0  0  0  0  0  0  0  0  0  0  0  0
    6.9407   -3.3623    1.4023 H   0  0  0  0  0  0  0  0  0  0  0  0
    7.8593   -4.7228    0.7538 H   0  0  0  0  0  0  0  0  0  0  0  0
    9.3021   -3.1407   -0.5542 H   0  0  0  0  0  0  0  0  0  0  0  0
    8.3473   -1.7665    0.0649 H   0  0  0  0  0  0  0  0  0  0  0  0
    9.3308   -1.4586   -2.0359 H   0  0  0  0  0  0  0  0  0  0  0  0
    9.6373   -0.7114   -4.3621 H   0  0  0  0  0  0  0  0  0  0  0  0
    8.0242   -1.4236   -6.1413 H   0  0  0  0  0  0  0  0  0  0  0  0
    6.0831   -2.8471   -5.5237 H   0  0  0  0  0  0  0  0  0  0  0  0
    4.9747   -4.2608   -4.0624 H   0  0  0  0  0  0  0  0  0  0  0  0
    2.8544   -7.3769   -0.6919 H   0  0  0  0  0  0  0  0  0  0  0  0
    1.9297   -8.1258   -2.0058 H   0  0  0  0  0  0  0  0  0  0  0  0
    1.5118   -8.4855   -0.3031 H   0  0  0  0  0  0  0  0  0  0  0  0
   -0.6101   -8.7034   -1.4841 H   0  0  0  0  0  0  0  0  0  0  0  0
   -0.9709   -7.5545   -2.8205 H   0  0  0  0  0  0  0  0  0  0  0  0
   -2.1447   -7.8062   -1.4874 H   0  0  0  0  0  0  0  0  0  0  0  0
   -2.5794   -3.4377   -1.8973 H   0  0  0  0  0  0  0  0  0  0  0  0
   -4.9018   -2.9791   -1.1267 H   0  0  0  0  0  0  0  0  0  0  0  0
   -5.9822   -4.4636    0.5658 H   0  0  0  0  0  0  0  0  0  0  0  0
   -4.7041   -6.3941    1.5031 H   0  0  0  0  0  0  0  0  0  0  0  0
   -2.3684   -6.8208    0.7663 H   0  0  0  0  0  0  0  0  0  0  0  0
  1  2  1  0
  1 34  1  0
  1 35  1  0
  1 36  1  0
  2  3  1  0
  2 37  1  0
  2 38  1  0
  3  4  1  0
  3 39  1  0
  3 40  1  0
  4  5  1  0
  4 41  1  0
  4 42  1  0
  5  6  1  0
  6  7  2  0
  6 11  1  0
  7  8  1  0
  7 43  1  0
  8  9  2  0
  8 44  1  0
  9 10  1  0
  9 45  1  0
 10 11  2  0
 10 46  1  0
 11 12  1  0
 12 13  2  0
 12 47  1  0
 13 14  1  0
 13 32  1  0
 14 15  1  0
 15 16  2  0
 15 17  1  0
 17 18  1  0
 17 32  1  0
 18 19  2  0
 18 30  1  0
 19 20  1  0
 19 21  1  0
 20 48  1  0
 20 49  1  0
 20 50  1  0
 21 22  1  0
 21 23  1  0
 22 51  1  0
 22 52  1  0
 22 53  1  0
 23 24  1  0
 23 30  1  0
 24 25  2  0
 24 29  1  0
 25 26  1  0
 25 54  1  0
 26 27  2  0
 26 55  1  0
 27 28  1  0
 27 56  1  0
 28 29  2  0
 28 57  1  0
 29 58  1  0
 30 31  2  0
 32 33  2  0
M  END

