
     RDKit          3D

 46 48  0  0  0  0  0  0  0  0999 V2000
    1.6652    1.1502   -0.8313 C   0  0  0  0  0  0  0  0  0  0  0  0
    2.8361    0.4695   -1.4990 C   0  0  0  0  0  0  0  0  0  0  0  0
    3.5007    1.0550   -2.5867 C   0  0  0  0  0  0  0  0  0  0  0  0
    4.5942    0.4229   -3.1886 C   0  0  0  0  0  0  0  0  0  0  0  0
    5.0451   -0.8066   -2.7125 C   0  0  0  0  0  0  0  0  0  0  0  0
    4.3775   -1.4259   -1.6435 C   0  0  0  0  0  0  0  0  0  0  0  0
    4.9458   -2.7068   -1.1019 C   0  0  0  0  0  0  0  0  0  0  0  0
    6.1681   -2.8193   -0.9665 O   0  0  0  0  0  0  0  0  0  0  0  0
    4.0957   -3.7196   -0.7421 N   0  0  0  0  0  0  0  0  0  0  0  0
    2.7352   -3.9176   -1.2490 C   0  0  0  0  0  0  0  0  0  0  0  0
    2.6447   -5.2133   -2.0687 C   0  0  0  0  0  0  0  0  0  0  0  0
    3.1665   -6.4252   -1.2891 C   0  0  0  0  0  0  0  0  0  0  0  0
    4.5931   -6.1776   -0.7569 C   0  0  1  0  0  0  0  0  0  0  0  0
    4.8311   -6.9823   -0.0386 H   0  0  0  0  0  0  0  0  0  0  0  0
    5.6269   -6.3930   -1.8883 C   0  0  0  0  0  0  0  0  0  0  0  0
    5.5396   -7.4014   -2.5725 O   0  0  0  0  0  0  0  0  0  0  0  0
    6.6111   -5.4517   -2.0277 N   0  0  0  0  0  0  0  0  0  0  0  0
    7.6771   -5.4438   -2.9498 C   0  0  0  0  0  0  0  0  0  0  0  0
    7.9719   -6.5091   -3.8205 C   0  0  0  0  0  0  0  0  0  0  0  0
    9.0613   -6.4018   -4.6883 C   0  0  0  0  0  0  0  0  0  0  0  0
    9.8684   -5.2627   -4.7191 C   0  0  0  0  0  0  0  0  0  0  0  0
    9.5598   -4.2123   -3.8502 C   0  0  0  0  0  0  0  0  0  0  0  0
   10.5465   -2.7629   -3.8642 Cl  0  0  0  0  0  0  0  0  0  0  0  0
    8.4815   -4.2864   -2.9716 C   0  0  0  0  0  0  0  0  0  0  0  0
    4.6221   -4.8544    0.0227 C   0  0  0  0  0  0  0  0  0  0  0  0
    3.2874   -0.7795   -1.0436 C   0  0  0  0  0  0  0  0  0  0  0  0
    1.5177    2.1700   -1.2156 H   0  0  0  0  0  0  0  0  0  0  0  0
    1.8087    1.2173    0.2595 H   0  0  0  0  0  0  0  0  0  0  0  0
    0.7283    0.5920   -0.9993 H   0  0  0  0  0  0  0  0  0  0  0  0
    3.1636    2.0254   -2.9617 H   0  0  0  0  0  0  0  0  0  0  0  0
    5.1037    0.9015   -4.0286 H   0  0  0  0  0  0  0  0  0  0  0  0
    5.9147   -1.2953   -3.1555 H   0  0  0  0  0  0  0  0  0  0  0  0
    2.4453   -3.0564   -1.8611 H   0  0  0  0  0  0  0  0  0  0  0  0
    2.0367   -3.9673   -0.3920 H   0  0  0  0  0  0  0  0  0  0  0  0
    3.2251   -5.0890   -2.9994 H   0  0  0  0  0  0  0  0  0  0  0  0
    1.5958   -5.3720   -2.3694 H   0  0  0  0  0  0  0  0  0  0  0  0
    3.1710   -7.3258   -1.9187 H   0  0  0  0  0  0  0  0  0  0  0  0
    2.4997   -6.6255   -0.4318 H   0  0  0  0  0  0  0  0  0  0  0  0
    6.5455   -4.5930   -1.4708 H   0  0  0  0  0  0  0  0  0  0  0  0
    7.3449   -7.3963   -3.8089 H   0  0  0  0  0  0  0  0  0  0  0  0
    9.2860   -7.2335   -5.3614 H   0  0  0  0  0  0  0  0  0  0  0  0
   10.7180   -5.1825   -5.3984 H   0  0  0  0  0  0  0  0  0  0  0  0
    8.2560   -3.4508   -2.3067 H   0  0  0  0  0  0  0  0  0  0  0  0
    5.6254   -4.5945    0.3798 H   0  0  0  0  0  0  0  0  0  0  0  0
    3.9813   -4.9789    0.9146 H   0  0  0  0  0  0  0  0  0  0  0  0
    2.7921   -1.2429   -0.1857 H   0  0  0  0  0  0  0  0  0  0  0  0
  1  2  1  0
  1 27  1  0
  1 28  1  0
  1 29  1  0
  2  3  2  0
  2 26  1  0
  3  4  1  0
  3 30  1  0
  4  5  2  0
  4 31  1  0
  5  6  1  0
  5 32  1  0
  6  7  1  0
  6 26  2  0
  7  8  2  0
  7  9  1  0
  9 10  1  0
  9 25  1  0
 10 11  1  0
 10 33  1  0
 10 34  1  0
 11 12  1  0
 11 35  1  0
 11 36  1  0
 12 13  1  0
 12 37  1  0
 12 38  1  0
 13 14  1  1
 13 15  1  0
 13 25  1  0
 15 16  2  0
 15 17  1  0
 17 18  1  0
 17 39  1  0
 18 19  2  0
 18 24  1  0
 19 20  1  0
 19 40  1  0
 20 21  2  0
 20 41  1  0
 21 22  1  0
 21 42  1  0
 22 23  1  0
 22 24  2  0
 24 43  1  0
 25 44  1  0
 25 45  1  0
 26 46  1  0
M  END

