
     RDKit          3D

 47 49  0  0  0  0  0  0  0  0999 V2000
    0.8117   -0.1890    0.2570 O   0  0  0  0  0  0  0  0  0  0  0  0
    1.9991   -0.4282    0.0964 C   0  0  0  0  0  0  0  0  0  0  0  0
    2.5228   -1.6846    0.2109 N   0  0  0  0  0  0  0  0  0  0  0  0
    1.7073   -2.8469    0.5210 C   0  0  0  0  0  0  0  0  0  0  0  0
    2.0361   -4.0475   -0.3446 C   0  0  0  0  0  0  0  0  0  0  0  0
    2.2133   -5.3129    0.2324 C   0  0  0  0  0  0  0  0  0  0  0  0
    2.4852   -6.4313   -0.5622 C   0  0  0  0  0  0  0  0  0  0  0  0
    2.5912   -6.2959   -1.9486 C   0  0  0  0  0  0  0  0  0  0  0  0
    2.4217   -5.0367   -2.5348 C   0  0  0  0  0  0  0  0  0  0  0  0
    2.1454   -3.9228   -1.7394 C   0  0  0  0  0  0  0  0  0  0  0  0
    2.9740    0.6782   -0.2390 C   0  0  0  0  0  0  0  0  0  0  0  0
    2.5262    1.9959   -0.0650 C   0  0  0  0  0  0  0  0  0  0  0  0
    3.3533    3.0795   -0.3707 C   0  0  0  0  0  0  0  0  0  0  0  0
    4.6416    2.8643   -0.8624 C   0  0  0  0  0  0  0  0  0  0  0  0
    5.0842    1.5489   -1.0342 C   0  0  0  0  0  0  0  0  0  0  0  0
    6.7279    1.2583   -1.7023 S   0  0  1  0  0  0  0  0  0  0  0  0
    6.8330   -0.1907   -1.9323 O   0  0  0  0  0  0  0  0  0  0  0  0
    6.9643    2.2349   -2.7658 O   0  0  0  0  0  0  0  0  0  0  0  0
    7.7656    1.6993   -0.4637 N   0  0  0  0  0  0  0  0  0  0  0  0
    8.3360    0.7201    0.4647 C   0  0  0  0  0  0  0  0  0  0  0  0
    9.7628    0.3125    0.1464 C   0  0  0  0  0  0  0  0  0  0  0  0
   10.7965    0.5746    1.0561 C   0  0  0  0  0  0  0  0  0  0  0  0
   12.1158    0.2019    0.7802 C   0  0  0  0  0  0  0  0  0  0  0  0
   12.3912   -0.4363   -0.4253 C   0  0  0  0  0  0  0  0  0  0  0  0
   13.6525   -0.7968   -0.7022 F   0  0  0  0  0  0  0  0  0  0  0  0
   11.3866   -0.7098   -1.3538 C   0  0  0  0  0  0  0  0  0  0  0  0
   10.0754   -0.3342   -1.0628 C   0  0  0  0  0  0  0  0  0  0  0  0
    4.2657    0.4579   -0.7418 C   0  0  0  0  0  0  0  0  0  0  0  0
    3.5255   -1.8138    0.1652 H   0  0  0  0  0  0  0  0  0  0  0  0
    0.6625   -2.5285    0.3805 H   0  0  0  0  0  0  0  0  0  0  0  0
    1.8113   -3.1223    1.5860 H   0  0  0  0  0  0  0  0  0  0  0  0
    2.1375   -5.4249    1.3182 H   0  0  0  0  0  0  0  0  0  0  0  0
    2.6205   -7.4100   -0.0944 H   0  0  0  0  0  0  0  0  0  0  0  0
    2.8080   -7.1674   -2.5715 H   0  0  0  0  0  0  0  0  0  0  0  0
    2.5034   -4.9222   -3.6188 H   0  0  0  0  0  0  0  0  0  0  0  0
    2.0143   -2.9418   -2.2038 H   0  0  0  0  0  0  0  0  0  0  0  0
    1.5102    2.1436    0.3056 H   0  0  0  0  0  0  0  0  0  0  0  0
    2.9881    4.1002   -0.2345 H   0  0  0  0  0  0  0  0  0  0  0  0
    5.2932    3.7001   -1.1240 H   0  0  0  0  0  0  0  0  0  0  0  0
    8.3791    2.4472   -0.7829 H   0  0  0  0  0  0  0  0  0  0  0  0
    7.6784   -0.1624    0.4453 H   0  0  0  0  0  0  0  0  0  0  0  0
    8.2889    1.1325    1.4860 H   0  0  0  0  0  0  0  0  0  0  0  0
   10.5719    1.0775    2.0013 H   0  0  0  0  0  0  0  0  0  0  0  0
   12.9283    0.4012    1.4816 H   0  0  0  0  0  0  0  0  0  0  0  0
   11.6432   -1.2144   -2.2873 H   0  0  0  0  0  0  0  0  0  0  0  0
    9.2772   -0.5448   -1.7789 H   0  0  0  0  0  0  0  0  0  0  0  0
    4.6511   -0.5418   -0.9496 H   0  0  0  0  0  0  0  0  0  0  0  0
  1  2  2  0
  2  3  1  0
  2 11  1  0
  3  4  1  0
  3 29  1  0
  4  5  1  0
  4 30  1  0
  4 31  1  0
  5  6  2  0
  5 10  1  0
  6  7  1  0
  6 32  1  0
  7  8  2  0
  7 33  1  0
  8  9  1  0
  8 34  1  0
  9 10  2  0
  9 35  1  0
 10 36  1  0
 11 12  2  0
 11 28  1  0
 12 13  1  0
 12 37  1  0
 13 14  2  0
 13 38  1  0
 14 15  1  0
 14 39  1  0
 15 16  1  0
 15 28  2  0
 16 17  2  0
 16 18  2  0
 16 19  1  1
 19 20  1  0
 19 40  1  0
 20 21  1  0
 20 41  1  0
 20 42  1  0
 21 22  2  0
 21 27  1  0
 22 23  1  0
 22 43  1  0
 23 24  2  0
 23 44  1  0
 24 25  1  0
 24 26  1  0
 26 27  2  0
 26 45  1  0
 27 46  1  0
 28 47  1  0
M  END

