
     RDKit          3D

 41 44  0  0  0  0  0  0  0  0999 V2000
    2.5971    1.6842   -0.7654 O   0  0  0  0  0  0  0  0  0  0  0  0
    2.2834    0.8923    0.1072 C   0  0  0  0  0  0  0  0  0  0  0  0
    0.8705    0.5891    0.4635 C   0  0  0  0  0  0  0  0  0  0  0  0
   -0.1329    1.2048   -0.1938 C   0  0  0  0  0  0  0  0  0  0  0  0
   -1.5740    1.0492    0.0011 C   0  0  0  0  0  0  0  0  0  0  0  0
   -2.1399    0.1871    0.9644 C   0  0  0  0  0  0  0  0  0  0  0  0
   -3.5185    0.0727    1.1107 C   0  0  0  0  0  0  0  0  0  0  0  0
   -4.3652    0.8270    0.2871 C   0  0  0  0  0  0  0  0  0  0  0  0
   -6.0940    0.6843    0.4691 Cl  0  0  0  0  0  0  0  0  0  0  0  0
   -3.8365    1.6905   -0.6762 C   0  0  0  0  0  0  0  0  0  0  0  0
   -2.4528    1.7942   -0.8106 C   0  0  0  0  0  0  0  0  0  0  0  0
    3.2035    0.1831    0.8685 N   0  0  0  0  0  0  0  0  0  0  0  0
    4.6005    0.2073    0.8206 C   0  0  0  0  0  0  0  0  0  0  0  0
    5.3306    1.0187   -0.0848 C   0  0  0  0  0  0  0  0  0  0  0  0
    6.7151    0.9805   -0.0644 C   0  0  0  0  0  0  0  0  0  0  0  0
    7.4269    0.1585    0.8300 C   0  0  0  0  0  0  0  0  0  0  0  0
    8.9009    0.1257    0.8425 C   0  0  0  0  0  0  0  0  0  0  0  0
    9.5957    0.7972    0.0944 O   0  0  0  0  0  0  0  0  0  0  0  0
    9.4789   -0.8006    1.8524 C   0  0  0  0  0  0  0  0  0  0  0  0
   10.8724   -0.9361    1.9770 C   0  0  0  0  0  0  0  0  0  0  0  0
   11.4144   -1.8004    2.9189 C   0  0  0  0  0  0  0  0  0  0  0  0
   10.5685   -2.5463    3.7548 C   0  0  0  0  0  0  0  0  0  0  0  0
    9.1864   -2.4248    3.6455 C   0  0  0  0  0  0  0  0  0  0  0  0
    8.1335   -3.3489    4.6815 Cl  0  0  0  0  0  0  0  0  0  0  0  0
    8.6314   -1.5485    2.6906 C   0  0  0  0  0  0  0  0  0  0  0  0
    7.2799   -1.4660    2.6243 O   0  0  0  0  0  0  0  0  0  0  0  0
    6.6848   -0.6379    1.7197 C   0  0  0  0  0  0  0  0  0  0  0  0
    5.2896   -0.6190    1.7210 C   0  0  0  0  0  0  0  0  0  0  0  0
    0.6754   -0.1357    1.2602 H   0  0  0  0  0  0  0  0  0  0  0  0
    0.1774    1.9101   -0.9730 H   0  0  0  0  0  0  0  0  0  0  0  0
   -1.4940   -0.4067    1.6145 H   0  0  0  0  0  0  0  0  0  0  0  0
   -3.9477   -0.5963    1.8582 H   0  0  0  0  0  0  0  0  0  0  0  0
   -4.5061    2.2729   -1.3109 H   0  0  0  0  0  0  0  0  0  0  0  0
   -2.0386    2.4695   -1.5638 H   0  0  0  0  0  0  0  0  0  0  0  0
    2.8117   -0.4429    1.5622 H   0  0  0  0  0  0  0  0  0  0  0  0
    4.7891    1.6563   -0.7783 H   0  0  0  0  0  0  0  0  0  0  0  0
    7.3005    1.5954   -0.7514 H   0  0  0  0  0  0  0  0  0  0  0  0
   11.4956   -0.3389    1.3088 H   0  0  0  0  0  0  0  0  0  0  0  0
   12.4970   -1.9068    3.0168 H   0  0  0  0  0  0  0  0  0  0  0  0
   10.9774   -3.2303    4.5005 H   0  0  0  0  0  0  0  0  0  0  0  0
    4.7614   -1.2568    2.4331 H   0  0  0  0  0  0  0  0  0  0  0  0
  1  2  2  0
  2  3  1  0
  2 12  1  0
  3  4  2  0
  3 29  1  0
  4  5  1  0
  4 30  1  0
  5  6  2  0
  5 11  1  0
  6  7  1  0
  6 31  1  0
  7  8  2  0
  7 32  1  0
  8  9  1  0
  8 10  1  0
 10 11  2  0
 10 33  1  0
 11 34  1  0
 12 13  1  0
 12 35  1  0
 13 14  2  0
 13 28  1  0
 14 15  1  0
 14 36  1  0
 15 16  2  0
 15 37  1  0
 16 17  1  0
 16 27  1  0
 17 18  2  0
 17 19  1  0
 19 20  2  0
 19 25  1  0
 20 21  1  0
 20 38  1  0
 21 22  2  0
 21 39  1  0
 22 23  1  0
 22 40  1  0
 23 24  1  0
 23 25  2  0
 25 26  1  0
 26 27  1  0
 27 28  2  0
 28 41  1  0
M  END

