
     RDKit          3D

 44 46  0  0  0  0  0  0  0  0999 V2000
    4.8080   -2.4244   -0.0622 C   0  0  0  0  0  0  0  0  0  0  0  0
    4.1393   -1.0923    0.1900 C   0  0  0  0  0  0  0  0  0  0  0  0
    4.9075    0.0636    0.3047 C   0  0  0  0  0  0  0  0  0  0  0  0
    4.3021    1.3121    0.5356 C   0  0  0  0  0  0  0  0  0  0  0  0
    4.7782    2.6603    0.7000 C   0  0  0  0  0  0  0  0  0  0  0  0
    3.6724    3.4511    0.9011 C   0  0  0  0  0  0  0  0  0  0  0  0
    2.5330    2.6690    0.8707 N   0  0  0  0  0  0  0  0  0  0  0  0
    1.5875    3.0053    0.9913 H   0  0  0  0  0  0  0  0  0  0  0  0
    2.8855    1.3557    0.6487 C   0  0  0  0  0  0  0  0  0  0  0  0
    2.0793    0.2167    0.5419 C   0  0  0  0  0  0  0  0  0  0  0  0
    2.7128   -1.0074    0.3106 C   0  0  0  0  0  0  0  0  0  0  0  0
    1.9892   -2.2133    0.1793 N   0  0  0  0  0  0  0  0  0  0  0  0
    0.6209   -2.4159    0.2511 C   0  0  0  0  0  0  0  0  0  0  0  0
   -0.2001   -1.5437    0.4912 O   0  0  0  0  0  0  0  0  0  0  0  0
    0.2539   -3.7365    0.0453 N   0  0  0  0  0  0  0  0  0  0  0  0
   -1.1642   -4.1000   -0.0597 C   0  0  1  0  0  0  0  0  0  0  0  0
   -1.3011   -5.4711   -0.7387 C   0  0  0  0  0  0  0  0  0  0  0  0
   -0.8185   -6.6370    0.1397 C   0  0  0  0  0  0  0  0  0  0  0  0
   -1.4828   -6.6394    1.5271 C   0  0  2  0  0  0  0  0  0  0  0  0
   -2.9443   -7.1030    1.4418 C   0  0  0  0  0  0  0  0  0  0  0  0
   -3.4748   -7.5065    0.4419 O   0  0  0  0  0  0  0  0  0  0  0  0
   -3.6375   -7.0662    2.6035 O   0  0  0  0  0  0  0  0  0  0  0  0
   -1.3215   -5.2579    2.2043 C   0  0  0  0  0  0  0  0  0  0  0  0
   -1.8422   -4.1174    1.3245 C   0  0  0  0  0  0  0  0  0  0  0  0
    5.8979   -2.3054   -0.1377 H   0  0  0  0  0  0  0  0  0  0  0  0
    4.4696   -2.8930   -1.0049 H   0  0  0  0  0  0  0  0  0  0  0  0
    4.6221   -3.1509    0.7510 H   0  0  0  0  0  0  0  0  0  0  0  0
    5.9948   -0.0082    0.2116 H   0  0  0  0  0  0  0  0  0  0  0  0
    5.8111    3.0010    0.6725 H   0  0  0  0  0  0  0  0  0  0  0  0
    3.6027    4.5249    1.0657 H   0  0  0  0  0  0  0  0  0  0  0  0
    0.9966    0.2548    0.6350 H   0  0  0  0  0  0  0  0  0  0  0  0
    2.5580   -3.0435    0.0838 H   0  0  0  0  0  0  0  0  0  0  0  0
    0.9046   -4.3267   -0.4612 H   0  0  0  0  0  0  0  0  0  0  0  0
   -1.6714   -3.3363   -0.6735 H   0  0  0  0  0  0  0  0  0  0  0  0
   -0.7600   -5.4698   -1.7013 H   0  0  0  0  0  0  0  0  0  0  0  0
   -2.3623   -5.6305   -0.9816 H   0  0  0  0  0  0  0  0  0  0  0  0
    0.2741   -6.5807    0.2859 H   0  0  0  0  0  0  0  0  0  0  0  0
   -1.0243   -7.5897   -0.3694 H   0  0  0  0  0  0  0  0  0  0  0  0
   -0.9801   -7.3961    2.1593 H   0  0  0  0  0  0  0  0  0  0  0  0
   -3.0845   -6.7163    3.3165 H   0  0  0  0  0  0  0  0  0  0  0  0
   -0.2492   -5.0995    2.4047 H   0  0  0  0  0  0  0  0  0  0  0  0
   -1.8116   -5.2275    3.1940 H   0  0  0  0  0  0  0  0  0  0  0  0
   -1.6836   -3.1442    1.8106 H   0  0  0  0  0  0  0  0  0  0  0  0
   -2.9312   -4.2226    1.1728 H   0  0  0  0  0  0  0  0  0  0  0  0
  1  2  1  0
  1 25  1  0
  1 26  1  0
  1 27  1  0
  2  3  2  0
  2 11  1  0
  3  4  1  0
  3 28  1  0
  4  5  1  0
  4  9  2  0
  5  6  2  0
  5 29  1  0
  6  7  1  0
  6 30  1  0
  7  8  1  0
  7  9  1  0
  9 10  1  0
 10 11  2  0
 10 31  1  0
 11 12  1  0
 12 13  1  0
 12 32  1  0
 13 14  2  0
 13 15  1  0
 15 16  1  0
 15 33  1  0
 16 17  1  0
 16 24  1  0
 16 34  1  6
 17 18  1  0
 17 35  1  0
 17 36  1  0
 18 19  1  0
 18 37  1  0
 18 38  1  0
 19 20  1  0
 19 23  1  0
 19 39  1  1
 20 21  2  0
 20 22  1  0
 22 40  1  0
 23 24  1  0
 23 41  1  0
 23 42  1  0
 24 43  1  0
 24 44  1  0
M  END

