
     RDKit          3D

 46 48  0  0  0  0  0  0  0  0999 V2000
    6.1320    2.5107   -6.6397 C   0  0  0  0  0  0  0  0  0  0  0  0
    5.0542    2.2148   -5.6102 C   0  0  0  0  0  0  0  0  0  0  0  0
    5.4845    2.4599   -4.2543 O   0  0  0  0  0  0  0  0  0  0  0  0
    5.3416    3.7167   -3.7890 C   0  0  0  0  0  0  0  0  0  0  0  0
    4.9812    4.6365   -4.4929 O   0  0  0  0  0  0  0  0  0  0  0  0
    5.5473    3.8532   -2.3129 C   0  0  0  0  0  0  0  0  0  0  0  0
    4.9040    4.9642   -1.7452 C   0  0  0  0  0  0  0  0  0  0  0  0
    4.7747    5.0923   -0.3656 C   0  0  0  0  0  0  0  0  0  0  0  0
    5.2741    4.0459    0.4135 C   0  0  0  0  0  0  0  0  0  0  0  0
    5.9603    3.0258   -0.0875 N   0  0  0  0  0  0  0  0  0  0  0  0
    6.1707    2.9273   -1.4114 C   0  0  0  0  0  0  0  0  0  0  0  0
    7.0122    1.9047   -1.8159 N   0  0  0  0  0  0  0  0  0  0  0  0
    7.3617    0.8586   -0.8542 C   0  0  0  0  0  0  0  0  0  0  0  0
    7.6846   -0.4440   -1.5889 C   0  0  0  0  0  0  0  0  0  0  0  0
    8.7844   -0.2450   -2.6351 C   0  0  0  0  0  0  0  0  0  0  0  0
    8.4297    0.9008   -3.5939 C   0  0  2  0  0  0  0  0  0  0  0  0
    7.5328    0.6157   -4.1685 H   0  0  0  0  0  0  0  0  0  0  0  0
    9.5658    1.2137   -4.5884 C   0  0  0  0  0  0  0  0  0  0  0  0
    9.7898    0.1283   -5.5904 C   0  0  0  0  0  0  0  0  0  0  0  0
   10.8781   -0.5981   -5.6284 N   0  0  0  0  0  0  0  0  0  0  0  0
   10.6535   -1.4691   -6.6936 O   0  0  0  0  0  0  0  0  0  0  0  0
    9.4444   -1.1781   -7.1923 C   0  0  0  0  0  0  0  0  0  0  0  0
    8.9529   -1.9617   -8.3564 C   0  0  0  0  0  0  0  0  0  0  0  0
    8.8623   -0.2057   -6.5555 N   0  0  0  0  0  0  0  0  0  0  0  0
    8.0669    2.1584   -2.7953 C   0  0  0  0  0  0  0  0  0  0  0  0
    5.7253    2.3323   -7.6488 H   0  0  0  0  0  0  0  0  0  0  0  0
    7.0061    1.8535   -6.5171 H   0  0  0  0  0  0  0  0  0  0  0  0
    6.4431    3.5643   -6.5856 H   0  0  0  0  0  0  0  0  0  0  0  0
    4.7792    1.1500   -5.6203 H   0  0  0  0  0  0  0  0  0  0  0  0
    4.1568    2.8204   -5.8035 H   0  0  0  0  0  0  0  0  0  0  0  0
    4.4619    5.6918   -2.4287 H   0  0  0  0  0  0  0  0  0  0  0  0
    4.2616    5.9422    0.0874 H   0  0  0  0  0  0  0  0  0  0  0  0
    5.1222    4.0401    1.5004 H   0  0  0  0  0  0  0  0  0  0  0  0
    6.5237    0.7292   -0.1604 H   0  0  0  0  0  0  0  0  0  0  0  0
    8.2301    1.1735   -0.2384 H   0  0  0  0  0  0  0  0  0  0  0  0
    6.7668   -0.8123   -2.0791 H   0  0  0  0  0  0  0  0  0  0  0  0
    7.9867   -1.2078   -0.8532 H   0  0  0  0  0  0  0  0  0  0  0  0
    8.9641   -1.1775   -3.1946 H   0  0  0  0  0  0  0  0  0  0  0  0
    9.7359   -0.0023   -2.1254 H   0  0  0  0  0  0  0  0  0  0  0  0
   10.5104    1.3919   -4.0515 H   0  0  0  0  0  0  0  0  0  0  0  0
    9.3208    2.1351   -5.1432 H   0  0  0  0  0  0  0  0  0  0  0  0
    9.6147   -1.8193   -9.2252 H   0  0  0  0  0  0  0  0  0  0  0  0
    7.9398   -1.6313   -8.6147 H   0  0  0  0  0  0  0  0  0  0  0  0
    8.9402   -3.0375   -8.1223 H   0  0  0  0  0  0  0  0  0  0  0  0
    7.7617    2.9590   -3.4766 H   0  0  0  0  0  0  0  0  0  0  0  0
    8.9754    2.5178   -2.2623 H   0  0  0  0  0  0  0  0  0  0  0  0
  1  2  1  0
  1 26  1  0
  1 27  1  0
  1 28  1  0
  2  3  1  0
  2 29  1  0
  2 30  1  0
  3  4  1  0
  4  5  2  0
  4  6  1  0
  6  7  2  0
  6 11  1  0
  7  8  1  0
  7 31  1  0
  8  9  2  0
  8 32  1  0
  9 10  1  0
  9 33  1  0
 10 11  2  0
 11 12  1  0
 12 13  1  0
 12 25  1  0
 13 14  1  0
 13 34  1  0
 13 35  1  0
 14 15  1  0
 14 36  1  0
 14 37  1  0
 15 16  1  0
 15 38  1  0
 15 39  1  0
 16 17  1  6
 16 18  1  0
 16 25  1  0
 18 19  1  0
 18 40  1  0
 18 41  1  0
 19 20  2  0
 19 24  1  0
 20 21  1  0
 21 22  1  0
 22 23  1  0
 22 24  2  0
 23 42  1  0
 23 43  1  0
 23 44  1  0
 25 45  1  0
 25 46  1  0
M  END

