
     RDKit          3D

 44 44  0  0  0  0  0  0  0  0999 V2000
    1.7483    0.5910   -1.4976 C   0  0  0  0  0  0  0  0  0  0  0  0
    2.1369   -0.4006   -0.5812 O   0  0  0  0  0  0  0  0  0  0  0  0
    2.8996   -0.0404    0.4930 C   0  0  0  0  0  0  0  0  0  0  0  0
    3.3351    1.2593    0.7733 C   0  0  0  0  0  0  0  0  0  0  0  0
    4.1134    1.5237    1.9066 C   0  0  0  0  0  0  0  0  0  0  0  0
    4.4960    0.5055    2.8069 C   0  0  0  0  0  0  0  0  0  0  0  0
    5.2686    0.7730    3.9391 N   0  0  0  0  0  0  0  0  0  0  0  0
    5.9046    2.0722    4.1354 C   0  0  0  0  0  0  0  0  0  0  0  0
    5.0391    3.1237    4.8567 C   0  0  0  0  0  0  0  0  0  0  0  0
    4.6275    2.7748    6.2929 C   0  0  0  0  0  0  0  0  0  0  0  0
    5.7646    2.7686    7.3183 C   0  0  0  0  0  0  0  0  0  0  0  0
    5.3202    2.3988    8.6096 O   0  0  0  0  0  0  0  0  0  0  0  0
    5.6809   -0.2812    4.8443 C   0  0  0  0  0  0  0  0  0  0  0  0
    6.9806   -1.0044    4.4187 C   0  0  0  0  0  0  0  0  0  0  0  0
    7.6079   -1.7142    5.5201 N   0  0  0  0  0  0  0  0  0  0  0  0
    8.3143   -1.0377    6.4749 C   0  0  0  0  0  0  0  0  0  0  0  0
    8.8846   -1.8777    7.6046 C   0  0  0  0  0  0  0  0  0  0  0  0
    8.4724    0.1742    6.4250 O   0  0  0  0  0  0  0  0  0  0  0  0
    4.0466   -0.8041    2.4985 C   0  0  0  0  0  0  0  0  0  0  0  0
    3.2684   -1.0654    1.3761 C   0  0  0  0  0  0  0  0  0  0  0  0
    1.1536    0.0901   -2.2742 H   0  0  0  0  0  0  0  0  0  0  0  0
    2.6180    1.0792   -1.9766 H   0  0  0  0  0  0  0  0  0  0  0  0
    1.1260    1.3742   -1.0247 H   0  0  0  0  0  0  0  0  0  0  0  0
    3.0732    2.0927    0.1203 H   0  0  0  0  0  0  0  0  0  0  0  0
    4.4109    2.5564    2.0841 H   0  0  0  0  0  0  0  0  0  0  0  0
    6.2215    2.4790    3.1603 H   0  0  0  0  0  0  0  0  0  0  0  0
    6.8343    1.9060    4.7026 H   0  0  0  0  0  0  0  0  0  0  0  0
    4.1278    3.3034    4.2632 H   0  0  0  0  0  0  0  0  0  0  0  0
    5.5986    4.0778    4.8541 H   0  0  0  0  0  0  0  0  0  0  0  0
    4.1237    1.7934    6.3163 H   0  0  0  0  0  0  0  0  0  0  0  0
    3.8701    3.5087    6.6279 H   0  0  0  0  0  0  0  0  0  0  0  0
    6.2590    3.7636    7.3261 H   0  0  0  0  0  0  0  0  0  0  0  0
    6.5447    2.0380    7.0504 H   0  0  0  0  0  0  0  0  0  0  0  0
    4.6427    3.0313    8.8829 H   0  0  0  0  0  0  0  0  0  0  0  0
    4.8658   -1.0076    4.9885 H   0  0  0  0  0  0  0  0  0  0  0  0
    5.8660    0.1646    5.8303 H   0  0  0  0  0  0  0  0  0  0  0  0
    7.6923   -0.2496    4.0520 H   0  0  0  0  0  0  0  0  0  0  0  0
    6.7955   -1.7120    3.5970 H   0  0  0  0  0  0  0  0  0  0  0  0
    7.4703   -2.7119    5.6167 H   0  0  0  0  0  0  0  0  0  0  0  0
    8.7816   -2.9620    7.4503 H   0  0  0  0  0  0  0  0  0  0  0  0
    8.3785   -1.5988    8.5421 H   0  0  0  0  0  0  0  0  0  0  0  0
    9.9485   -1.6264    7.7249 H   0  0  0  0  0  0  0  0  0  0  0  0
    4.3108   -1.6443    3.1403 H   0  0  0  0  0  0  0  0  0  0  0  0
    2.9353   -2.0826    1.1584 H   0  0  0  0  0  0  0  0  0  0  0  0
  1  2  1  0
  1 21  1  0
  1 22  1  0
  1 23  1  0
  2  3  1  0
  3  4  2  0
  3 20  1  0
  4  5  1  0
  4 24  1  0
  5  6  2  0
  5 25  1  0
  6  7  1  0
  6 19  1  0
  7  8  1  0
  7 13  1  0
  8  9  1  0
  8 26  1  0
  8 27  1  0
  9 10  1  0
  9 28  1  0
  9 29  1  0
 10 11  1  0
 10 30  1  0
 10 31  1  0
 11 12  1  0
 11 32  1  0
 11 33  1  0
 12 34  1  0
 13 14  1  0
 13 35  1  0
 13 36  1  0
 14 15  1  0
 14 37  1  0
 14 38  1  0
 15 16  1  0
 15 39  1  0
 16 17  1  0
 16 18  2  0
 17 40  1  0
 17 41  1  0
 17 42  1  0
 19 20  2  0
 19 43  1  0
 20 44  1  0
M  END

