
     RDKit          3D

 70 73  0  0  0  0  0  0  0  0999 V2000
    5.2969   -0.0277    3.5053 C   0  0  0  0  0  0  0  0  0  0  0  0
    4.7594   -0.7536    2.3695 N   0  0  0  0  0  0  0  0  0  0  0  0
    5.2678   -0.6301    1.1242 C   0  0  0  0  0  0  0  0  0  0  0  0
    6.1738    0.1453    0.8348 O   0  0  0  0  0  0  0  0  0  0  0  0
    4.5660   -1.5011    0.0402 C   0  0  1  0  0  0  0  0  0  0  0  0
    5.2288   -1.3629   -1.3586 C   0  0  0  0  0  0  0  0  0  0  0  0
    4.6977   -0.2256   -2.2130 C   0  0  0  0  0  0  0  0  0  0  0  0
    5.0482    1.1119   -1.9577 C   0  0  0  0  0  0  0  0  0  0  0  0
    4.5486    2.1438   -2.7571 C   0  0  0  0  0  0  0  0  0  0  0  0
    3.6939    1.8616   -3.8273 C   0  0  0  0  0  0  0  0  0  0  0  0
    3.3422    0.5359   -4.0940 C   0  0  0  0  0  0  0  0  0  0  0  0
    3.8404   -0.4952   -3.2922 C   0  0  0  0  0  0  0  0  0  0  0  0
    4.3581   -2.8897    0.4894 N   0  0  0  0  0  0  0  0  0  0  0  0
    3.0136   -3.4743    0.3309 C   0  0  0  0  0  0  0  0  0  0  0  0
    1.8887   -2.7361    1.0305 C   0  0  0  0  0  0  0  0  0  0  0  0
    0.8933   -2.0267    0.3253 C   0  0  0  0  0  0  0  0  0  0  0  0
    0.9456   -1.9124   -1.4259 Cl  0  0  0  0  0  0  0  0  0  0  0  0
   -0.1740   -1.3885    0.9646 C   0  0  0  0  0  0  0  0  0  0  0  0
   -0.2757   -1.4454    2.3530 C   0  0  0  0  0  0  0  0  0  0  0  0
    0.6804   -2.1378    3.0957 C   0  0  0  0  0  0  0  0  0  0  0  0
    1.7357   -2.7671    2.4330 C   0  0  0  0  0  0  0  0  0  0  0  0
    2.9083   -3.6281    3.4107 Cl  0  0  0  0  0  0  0  0  0  0  0  0
    5.3801   -3.7804    0.7761 C   0  0  0  0  0  0  0  0  0  0  0  0
    5.1654   -4.9372    1.0904 O   0  0  0  0  0  0  0  0  0  0  0  0
    6.8320   -3.2984    0.6007 C   0  0  0  0  0  0  0  0  0  0  0  0
    7.7761   -4.0891    1.3747 N   0  0  0  0  0  0  0  0  0  0  0  0
    8.3622   -5.2727    0.8476 C   0  0  0  0  0  0  0  0  0  0  0  0
    7.9325   -6.5328    1.2896 C   0  0  0  0  0  0  0  0  0  0  0  0
    8.5136   -7.6903    0.7741 C   0  0  0  0  0  0  0  0  0  0  0  0
    7.9736   -9.2526    1.3391 Cl  0  0  0  0  0  0  0  0  0  0  0  0
    9.5127   -7.6192   -0.2020 C   0  0  0  0  0  0  0  0  0  0  0  0
    9.9357   -6.3717   -0.6591 C   0  0  0  0  0  0  0  0  0  0  0  0
    9.3733   -5.2059   -0.1326 C   0  0  0  0  0  0  0  0  0  0  0  0
    9.9330   -3.6561   -0.7166 Cl  0  0  0  0  0  0  0  0  0  0  0  0
    8.0704   -3.6299    2.9780 S   0  0  1  0  0  0  0  0  0  0  0  0
    6.9312   -2.7858    3.3541 O   0  0  0  0  0  0  0  0  0  0  0  0
    8.4259   -4.8319    3.7293 O   0  0  0  0  0  0  0  0  0  0  0  0
    9.5269   -2.5804    2.9110 C   0  0  0  0  0  0  0  0  0  0  0  0
    9.4021   -1.2419    2.5179 C   0  0  0  0  0  0  0  0  0  0  0  0
   10.5521   -0.4520    2.4544 C   0  0  0  0  0  0  0  0  0  0  0  0
   11.7999   -0.9915    2.7869 C   0  0  0  0  0  0  0  0  0  0  0  0
   11.9053   -2.3268    3.1879 C   0  0  0  0  0  0  0  0  0  0  0  0
   10.7651   -3.1320    3.2528 C   0  0  0  0  0  0  0  0  0  0  0  0
    4.4851    0.2159    4.2075 H   0  0  0  0  0  0  0  0  0  0  0  0
    5.7512    0.9037    3.1438 H   0  0  0  0  0  0  0  0  0  0  0  0
    6.0622   -0.6215    4.0299 H   0  0  0  0  0  0  0  0  0  0  0  0
    4.2065   -1.5811    2.5683 H   0  0  0  0  0  0  0  0  0  0  0  0
    3.5551   -1.0747   -0.0358 H   0  0  0  0  0  0  0  0  0  0  0  0
    5.0606   -2.3092   -1.8945 H   0  0  0  0  0  0  0  0  0  0  0  0
    6.3134   -1.2386   -1.2288 H   0  0  0  0  0  0  0  0  0  0  0  0
    5.7155    1.3311   -1.1221 H   0  0  0  0  0  0  0  0  0  0  0  0
    4.8344    3.1775   -2.5440 H   0  0  0  0  0  0  0  0  0  0  0  0
    3.3075    2.6705   -4.4529 H   0  0  0  0  0  0  0  0  0  0  0  0
    2.6797    0.3010   -4.9315 H   0  0  0  0  0  0  0  0  0  0  0  0
    3.5629   -1.5300   -3.5129 H   0  0  0  0  0  0  0  0  0  0  0  0
    3.0877   -4.4932    0.7314 H   0  0  0  0  0  0  0  0  0  0  0  0
    2.7720   -3.5477   -0.7395 H   0  0  0  0  0  0  0  0  0  0  0  0
   -0.9125   -0.8540    0.3661 H   0  0  0  0  0  0  0  0  0  0  0  0
   -1.1069   -0.9498    2.8598 H   0  0  0  0  0  0  0  0  0  0  0  0
    0.6169   -2.2006    4.1827 H   0  0  0  0  0  0  0  0  0  0  0  0
    6.9643   -2.2347    0.8228 H   0  0  0  0  0  0  0  0  0  0  0  0
    7.0888   -3.4149   -0.4634 H   0  0  0  0  0  0  0  0  0  0  0  0
    7.1330   -6.5818    2.0253 H   0  0  0  0  0  0  0  0  0  0  0  0
    9.9523   -8.5344   -0.6016 H   0  0  0  0  0  0  0  0  0  0  0  0
   10.7125   -6.2948   -1.4214 H   0  0  0  0  0  0  0  0  0  0  0  0
    8.4289   -0.8153    2.2666 H   0  0  0  0  0  0  0  0  0  0  0  0
   10.4694    0.5933    2.1473 H   0  0  0  0  0  0  0  0  0  0  0  0
   12.6942   -0.3652    2.7375 H   0  0  0  0  0  0  0  0  0  0  0  0
   12.8785   -2.7450    3.4562 H   0  0  0  0  0  0  0  0  0  0  0  0
   10.8209   -4.1729    3.5748 H   0  0  0  0  0  0  0  0  0  0  0  0
  1  2  1  0
  1 44  1  0
  1 45  1  0
  1 46  1  0
  2  3  1  0
  2 47  1  0
  3  4  2  0
  3  5  1  0
  5  6  1  0
  5 13  1  0
  5 48  1  6
  6  7  1  0
  6 49  1  0
  6 50  1  0
  7  8  2  0
  7 12  1  0
  8  9  1  0
  8 51  1  0
  9 10  2  0
  9 52  1  0
 10 11  1  0
 10 53  1  0
 11 12  2  0
 11 54  1  0
 12 55  1  0
 13 14  1  0
 13 23  1  0
 14 15  1  0
 14 56  1  0
 14 57  1  0
 15 16  2  0
 15 21  1  0
 16 17  1  0
 16 18  1  0
 18 19  2  0
 18 58  1  0
 19 20  1  0
 19 59  1  0
 20 21  2  0
 20 60  1  0
 21 22  1  0
 23 24  2  0
 23 25  1  0
 25 26  1  0
 25 61  1  0
 25 62  1  0
 26 27  1  0
 35 26  1  6
 27 28  2  0
 27 33  1  0
 28 29  1  0
 28 63  1  0
 29 30  1  0
 29 31  2  0
 31 32  1  0
 31 64  1  0
 32 33  2  0
 32 65  1  0
 33 34  1  0
 35 36  2  0
 35 37  2  0
 35 38  1  0
 38 39  2  0
 38 43  1  0
 39 40  1  0
 39 66  1  0
 40 41  2  0
 40 67  1  0
 41 42  1  0
 41 68  1  0
 42 43  2  0
 42 69  1  0
 43 70  1  0
M  END

