
     RDKit          3D

 24 24  0  0  0  0  0  0  0  0999 V2000
    1.2246   -0.0638   -0.4208 C   0  0  0  0  0  0  0  0  0  0  0  0
    2.5263   -0.0525    0.1175 O   0  0  0  0  0  0  0  0  0  0  0  0
    3.0788    1.1284    0.4790 C   0  0  0  0  0  0  0  0  0  0  0  0
    2.4658    2.3720    0.3672 C   0  0  0  0  0  0  0  0  0  0  0  0
    3.1226    3.5605    0.7725 C   0  0  0  0  0  0  0  0  0  0  0  0
    2.5106    4.8799    0.6693 C   0  0  0  0  0  0  0  0  0  0  0  0
    1.2875    5.2111    0.2022 C   0  0  0  0  0  0  0  0  0  0  0  0
    0.8598    6.6340    0.1864 C   0  0  0  0  0  0  0  0  0  0  0  0
    1.5332    7.5588    0.5661 O   0  0  0  0  0  0  0  0  0  0  0  0
   -0.3886    6.8614   -0.2997 O   0  0  0  0  0  0  0  0  0  0  0  0
    4.4203    3.4567    1.2956 C   0  0  0  0  0  0  0  0  0  0  0  0
    5.0464    2.2131    1.4126 C   0  0  0  0  0  0  0  0  0  0  0  0
    4.3970    1.0455    1.0127 C   0  0  0  0  0  0  0  0  0  0  0  0
    4.9480   -0.1844    1.1003 O   0  0  0  0  0  0  0  0  0  0  0  0
    0.9855   -1.1132   -0.6385 H   0  0  0  0  0  0  0  0  0  0  0  0
    1.1622    0.5192   -1.3579 H   0  0  0  0  0  0  0  0  0  0  0  0
    0.4804    0.3319    0.2944 H   0  0  0  0  0  0  0  0  0  0  0  0
    1.4579    2.4345   -0.0408 H   0  0  0  0  0  0  0  0  0  0  0  0
    3.1221    5.7207    1.0163 H   0  0  0  0  0  0  0  0  0  0  0  0
    0.5926    4.4510   -0.1706 H   0  0  0  0  0  0  0  0  0  0  0  0
   -0.8042    6.0288   -0.5620 H   0  0  0  0  0  0  0  0  0  0  0  0
    4.9472    4.3587    1.6151 H   0  0  0  0  0  0  0  0  0  0  0  0
    6.0590    2.1441    1.8220 H   0  0  0  0  0  0  0  0  0  0  0  0
    5.8356   -0.1105    1.4761 H   0  0  0  0  0  0  0  0  0  0  0  0
  1  2  1  0
  1 15  1  0
  1 16  1  0
  1 17  1  0
  2  3  1  0
  3  4  2  0
  3 13  1  0
  4  5  1  0
  4 18  1  0
  5  6  1  0
  5 11  2  0
  6  7  2  0
  6 19  1  0
  7  8  1  0
  7 20  1  0
  8  9  2  0
  8 10  1  0
 10 21  1  0
 11 12  1  0
 11 22  1  0
 12 13  2  0
 12 23  1  0
 13 14  1  0
 14 24  1  0
M  END

