
     RDKit          3D

 90 93  0  0  0  0  0  0  0  0999 V2000
    7.4397   -3.4046    2.2345 C   0  0  0  0  0  0  0  0  0  0  0  0
    6.6799   -2.5907    1.2037 C   0  0  0  0  0  0  0  0  0  0  0  0
    6.9554   -1.2193    1.4181 O   0  0  0  0  0  0  0  0  0  0  0  0
    6.3689   -0.3073    0.5117 C   0  0  1  0  0  0  0  0  0  0  0  0
    5.1433    0.3319    1.1785 C   0  0  0  0  0  0  0  0  0  0  0  0
    4.4964    1.3570    0.3782 N   0  0  0  0  0  0  0  0  0  0  0  0
    4.7176    2.7351    0.7354 C   0  0  0  0  0  0  0  0  0  0  0  0
    5.1771    3.0796    1.8093 O   0  0  0  0  0  0  0  0  0  0  0  0
    4.3218    3.4739   -0.4555 C   0  0  0  0  0  0  0  0  0  0  0  0
    4.0237    4.7540   -0.8950 C   0  0  0  0  0  0  0  0  0  0  0  0
    4.1179    6.0032   -0.1383 C   0  0  0  0  0  0  0  0  0  0  0  0
    5.0872    6.1281    0.8684 C   0  0  0  0  0  0  0  0  0  0  0  0
    5.1795    7.2980    1.6281 C   0  0  0  0  0  0  0  0  0  0  0  0
    4.3008    8.3642    1.4188 C   0  0  0  0  0  0  0  0  0  0  0  0
    4.3134    9.5284    2.1020 O   0  0  0  0  0  0  0  0  0  0  0  0
    5.2650    9.7139    3.1262 C   0  0  0  0  0  0  0  0  0  0  0  0
    3.2896    8.2399    0.4225 C   0  0  0  0  0  0  0  0  0  0  0  0
    2.4521    9.2990    0.3060 O   0  0  0  0  0  0  0  0  0  0  0  0
    1.3994    9.2416   -0.6264 C   0  0  0  0  0  0  0  0  0  0  0  0
    3.2123    7.0763   -0.3371 C   0  0  0  0  0  0  0  0  0  0  0  0
    3.5167    4.6455   -2.1975 N   0  0  0  0  0  0  0  0  0  0  0  0
    3.4667    5.6712   -3.2249 C   0  0  0  0  0  0  0  0  0  0  0  0
    4.8248    6.3129   -3.5401 C   0  0  1  0  0  0  0  0  0  0  0  0
    5.6905    5.2971   -3.9094 O   0  0  0  0  0  0  0  0  0  0  0  0
    7.0459    5.6791   -4.0803 C   0  0  0  0  0  0  0  0  0  0  0  0
    7.8611    4.4405   -4.3983 C   0  0  0  0  0  0  0  0  0  0  0  0
    4.6596    7.2273   -4.6048 O   0  0  0  0  0  0  0  0  0  0  0  0
    4.5953    8.5978   -4.2583 C   0  0  0  0  0  0  0  0  0  0  0  0
    4.4827    9.4150   -5.5317 C   0  0  0  0  0  0  0  0  0  0  0  0
    3.4456    3.2677   -2.6117 C   0  0  0  0  0  0  0  0  0  0  0  0
    3.0762    2.9231   -3.7198 O   0  0  0  0  0  0  0  0  0  0  0  0
    3.9410    2.5289   -1.4587 C   0  0  0  0  0  0  0  0  0  0  0  0
    4.0107    1.2487   -0.9324 C   0  0  0  0  0  0  0  0  0  0  0  0
    3.5793   -0.0004   -1.5612 C   0  0  0  0  0  0  0  0  0  0  0  0
    3.6348   -0.1240   -2.9578 C   0  0  0  0  0  0  0  0  0  0  0  0
    3.2001   -1.2937   -3.5879 C   0  0  0  0  0  0  0  0  0  0  0  0
    2.6834   -2.3611   -2.8487 C   0  0  0  0  0  0  0  0  0  0  0  0
    2.2399   -3.5252   -3.3686 O   0  0  0  0  0  0  0  0  0  0  0  0
    2.2719   -3.7103   -4.7663 C   0  0  0  0  0  0  0  0  0  0  0  0
    2.5893   -2.2379   -1.4321 C   0  0  0  0  0  0  0  0  0  0  0  0
    2.0414   -3.2980   -0.7897 O   0  0  0  0  0  0  0  0  0  0  0  0
    1.8706   -3.2408    0.6061 C   0  0  0  0  0  0  0  0  0  0  0  0
    3.0355   -1.0746   -0.8119 C   0  0  0  0  0  0  0  0  0  0  0  0
    7.2584    0.7106    0.2114 O   0  0  0  0  0  0  0  0  0  0  0  0
    8.3867    0.3307   -0.5600 C   0  0  0  0  0  0  0  0  0  0  0  0
    9.2031    1.5716   -0.8657 C   0  0  0  0  0  0  0  0  0  0  0  0
    7.2468   -4.4801    2.0966 H   0  0  0  0  0  0  0  0  0  0  0  0
    7.1330   -3.1216    3.2532 H   0  0  0  0  0  0  0  0  0  0  0  0
    8.5229   -3.2292    2.1444 H   0  0  0  0  0  0  0  0  0  0  0  0
    5.5924   -2.7922    1.2880 H   0  0  0  0  0  0  0  0  0  0  0  0
    6.9768   -2.8869    0.1770 H   0  0  0  0  0  0  0  0  0  0  0  0
    6.0836   -0.8545   -0.4136 H   0  0  0  0  0  0  0  0  0  0  0  0
    5.4912    0.8392    2.0891 H   0  0  0  0  0  0  0  0  0  0  0  0
    4.4473   -0.4624    1.4812 H   0  0  0  0  0  0  0  0  0  0  0  0
    5.7621    5.2989    1.0790 H   0  0  0  0  0  0  0  0  0  0  0  0
    5.9469    7.3646    2.3991 H   0  0  0  0  0  0  0  0  0  0  0  0
    5.0850   10.7149    3.5405 H   0  0  0  0  0  0  0  0  0  0  0  0
    6.2991    9.6660    2.7397 H   0  0  0  0  0  0  0  0  0  0  0  0
    5.1521    8.9661    3.9315 H   0  0  0  0  0  0  0  0  0  0  0  0
    0.8538   10.1910   -0.5417 H   0  0  0  0  0  0  0  0  0  0  0  0
    0.7038    8.4092   -0.4143 H   0  0  0  0  0  0  0  0  0  0  0  0
    1.7703    9.1356   -1.6629 H   0  0  0  0  0  0  0  0  0  0  0  0
    2.4105    6.9707   -1.0631 H   0  0  0  0  0  0  0  0  0  0  0  0
    2.7442    6.4641   -2.9881 H   0  0  0  0  0  0  0  0  0  0  0  0
    3.1226    5.1638   -4.1369 H   0  0  0  0  0  0  0  0  0  0  0  0
    5.2259    6.8583   -2.6577 H   0  0  0  0  0  0  0  0  0  0  0  0
    7.4159    6.1652   -3.1539 H   0  0  0  0  0  0  0  0  0  0  0  0
    7.1254    6.4213   -4.8954 H   0  0  0  0  0  0  0  0  0  0  0  0
    7.7956    3.7102   -3.5769 H   0  0  0  0  0  0  0  0  0  0  0  0
    8.9197    4.7047   -4.5488 H   0  0  0  0  0  0  0  0  0  0  0  0
    7.4871    3.9592   -5.3149 H   0  0  0  0  0  0  0  0  0  0  0  0
    5.4975    8.8924   -3.6844 H   0  0  0  0  0  0  0  0  0  0  0  0
    3.7244    8.7977   -3.6011 H   0  0  0  0  0  0  0  0  0  0  0  0
    5.3547    9.2417   -6.1813 H   0  0  0  0  0  0  0  0  0  0  0  0
    4.4288   10.4899   -5.2979 H   0  0  0  0  0  0  0  0  0  0  0  0
    3.5789    9.1330   -6.0935 H   0  0  0  0  0  0  0  0  0  0  0  0
    3.9980    0.7062   -3.5630 H   0  0  0  0  0  0  0  0  0  0  0  0
    3.2614   -1.3592   -4.6741 H   0  0  0  0  0  0  0  0  0  0  0  0
    1.8635   -4.7116   -4.9569 H   0  0  0  0  0  0  0  0  0  0  0  0
    3.3019   -3.6611   -5.1637 H   0  0  0  0  0  0  0  0  0  0  0  0
    1.6522   -2.9630   -5.2935 H   0  0  0  0  0  0  0  0  0  0  0  0
    1.4062   -4.1904    0.9041 H   0  0  0  0  0  0  0  0  0  0  0  0
    1.2086   -2.4087    0.9082 H   0  0  0  0  0  0  0  0  0  0  0  0
    2.8351   -3.1344    1.1369 H   0  0  0  0  0  0  0  0  0  0  0  0
    2.9187   -0.9703    0.2636 H   0  0  0  0  0  0  0  0  0  0  0  0
    8.0500   -0.1583   -1.4975 H   0  0  0  0  0  0  0  0  0  0  0  0
    8.9897   -0.4084   -0.0018 H   0  0  0  0  0  0  0  0  0  0  0  0
    8.6060    2.2990   -1.4373 H   0  0  0  0  0  0  0  0  0  0  0  0
   10.0953    1.3096   -1.4559 H   0  0  0  0  0  0  0  0  0  0  0  0
    9.5307    2.0556    0.0672 H   0  0  0  0  0  0  0  0  0  0  0  0
  1  2  1  0
  1 47  1  0
  1 48  1  0
  1 49  1  0
  2  3  1  0
  2 50  1  0
  2 51  1  0
  3  4  1  0
  4  5  1  0
  4 44  1  0
  4 52  1  6
  5  6  1  0
  5 53  1  0
  5 54  1  0
  6  7  1  0
  6 33  1  0
  7  8  2  0
  7  9  1  0
  9 10  2  0
  9 32  1  0
 10 11  1  0
 10 21  1  0
 11 12  2  0
 11 20  1  0
 12 13  1  0
 12 55  1  0
 13 14  2  0
 13 56  1  0
 14 15  1  0
 14 17  1  0
 15 16  1  0
 16 57  1  0
 16 58  1  0
 16 59  1  0
 17 18  1  0
 17 20  2  0
 18 19  1  0
 19 60  1  0
 19 61  1  0
 19 62  1  0
 20 63  1  0
 21 22  1  0
 21 30  1  0
 22 23  1  0
 22 64  1  0
 22 65  1  0
 23 24  1  0
 23 27  1  0
 23 66  1  1
 24 25  1  0
 25 26  1  0
 25 67  1  0
 25 68  1  0
 26 69  1  0
 26 70  1  0
 26 71  1  0
 27 28  1  0
 28 29  1  0
 28 72  1  0
 28 73  1  0
 29 74  1  0
 29 75  1  0
 29 76  1  0
 30 31  2  0
 30 32  1  0
 32 33  2  0
 33 34  1  0
 34 35  2  0
 34 43  1  0
 35 36  1  0
 35 77  1  0
 36 37  2  0
 36 78  1  0
 37 38  1  0
 37 40  1  0
 38 39  1  0
 39 79  1  0
 39 80  1  0
 39 81  1  0
 40 41  1  0
 40 43  2  0
 41 42  1  0
 42 82  1  0
 42 83  1  0
 42 84  1  0
 43 85  1  0
 44 45  1  0
 45 46  1  0
 45 86  1  0
 45 87  1  0
 46 88  1  0
 46 89  1  0
 46 90  1  0
M  END

