
     RDKit          3D

 45 46  0  0  0  0  0  0  0  0999 V2000
    4.3765   -4.4350    3.8411 C   0  0  0  0  0  0  0  0  0  0  0  0
    5.3616   -3.3903    3.3307 C   0  0  0  0  0  0  0  0  0  0  0  0
    4.7647   -2.7062    1.7481 S   0  0  1  0  0  0  0  0  0  0  0  0
    4.7929   -3.8024    0.7651 O   0  0  0  0  0  0  0  0  0  0  0  0
    3.5170   -1.9778    2.0347 O   0  0  0  0  0  0  0  0  0  0  0  0
    6.0056   -1.5037    1.2707 C   0  0  0  0  0  0  0  0  0  0  0  0
    7.0821   -1.8970    0.4723 C   0  0  0  0  0  0  0  0  0  0  0  0
    8.0446   -0.9636    0.0904 C   0  0  0  0  0  0  0  0  0  0  0  0
    7.9327    0.3825    0.4993 C   0  0  0  0  0  0  0  0  0  0  0  0
    8.8893    1.3347    0.1626 N   0  0  0  0  0  0  0  0  0  0  0  0
    9.8628    1.1326   -0.8895 C   0  0  0  0  0  0  0  0  0  0  0  0
   11.1425    0.3717   -0.4884 C   0  0  0  0  0  0  0  0  0  0  0  0
   11.8704   -0.0902   -1.3473 O   0  0  0  0  0  0  0  0  0  0  0  0
   11.3602    0.3264    0.8604 N   0  0  0  0  0  0  0  0  0  0  0  0
   12.4269   -0.2534    1.5701 C   0  0  0  0  0  0  0  0  0  0  0  0
   13.5153   -0.8863    0.9376 C   0  0  0  0  0  0  0  0  0  0  0  0
   14.5353   -1.4355    1.7167 C   0  0  0  0  0  0  0  0  0  0  0  0
   14.4991   -1.3695    3.1113 C   0  0  0  0  0  0  0  0  0  0  0  0
   13.4165   -0.7397    3.7473 C   0  0  0  0  0  0  0  0  0  0  0  0
   13.2918   -0.6218    5.2430 C   0  0  0  0  0  0  0  0  0  0  0  0
   14.3875   -1.2091    6.1127 C   0  0  0  0  0  0  0  0  0  0  0  0
   12.3311   -0.0663    5.7405 O   0  0  0  0  0  0  0  0  0  0  0  0
   12.3905   -0.1885    2.9689 C   0  0  0  0  0  0  0  0  0  0  0  0
    6.8262    0.7625    1.2924 C   0  0  0  0  0  0  0  0  0  0  0  0
    5.8687   -0.1692    1.6723 C   0  0  0  0  0  0  0  0  0  0  0  0
    4.7297   -4.8521    4.7968 H   0  0  0  0  0  0  0  0  0  0  0  0
    4.2745   -5.2564    3.1169 H   0  0  0  0  0  0  0  0  0  0  0  0
    3.3851   -3.9861    4.0001 H   0  0  0  0  0  0  0  0  0  0  0  0
    6.3575   -3.8110    3.1261 H   0  0  0  0  0  0  0  0  0  0  0  0
    5.4646   -2.5348    4.0150 H   0  0  0  0  0  0  0  0  0  0  0  0
    7.1526   -2.9336    0.1367 H   0  0  0  0  0  0  0  0  0  0  0  0
    8.8793   -1.2895   -0.5315 H   0  0  0  0  0  0  0  0  0  0  0  0
    8.6007    2.2936    0.3154 H   0  0  0  0  0  0  0  0  0  0  0  0
   10.1934    2.1170   -1.2570 H   0  0  0  0  0  0  0  0  0  0  0  0
    9.4479    0.6002   -1.7627 H   0  0  0  0  0  0  0  0  0  0  0  0
   10.6243    0.7545    1.4166 H   0  0  0  0  0  0  0  0  0  0  0  0
   13.5428   -0.9382   -0.1488 H   0  0  0  0  0  0  0  0  0  0  0  0
   15.3758   -1.9254    1.2188 H   0  0  0  0  0  0  0  0  0  0  0  0
   15.3117   -1.8076    3.6928 H   0  0  0  0  0  0  0  0  0  0  0  0
   15.3613   -0.7457    5.8862 H   0  0  0  0  0  0  0  0  0  0  0  0
   14.4934   -2.2917    5.9365 H   0  0  0  0  0  0  0  0  0  0  0  0
   14.1352   -1.0334    7.1659 H   0  0  0  0  0  0  0  0  0  0  0  0
   11.5600    0.2934    3.4913 H   0  0  0  0  0  0  0  0  0  0  0  0
    6.7193    1.8066    1.6007 H   0  0  0  0  0  0  0  0  0  0  0  0
    4.9998    0.1299    2.2619 H   0  0  0  0  0  0  0  0  0  0  0  0
  1  2  1  0
  1 26  1  0
  1 27  1  0
  1 28  1  0
  3  2  1  1
  2 29  1  0
  2 30  1  0
  3  4  2  0
  3  5  2  0
  3  6  1  0
  6  7  2  0
  6 25  1  0
  7  8  1  0
  7 31  1  0
  8  9  2  0
  8 32  1  0
  9 10  1  0
  9 24  1  0
 10 11  1  0
 10 33  1  0
 11 12  1  0
 11 34  1  0
 11 35  1  0
 12 13  2  0
 12 14  1  0
 14 15  1  0
 14 36  1  0
 15 16  2  0
 15 23  1  0
 16 17  1  0
 16 37  1  0
 17 18  2  0
 17 38  1  0
 18 19  1  0
 18 39  1  0
 19 20  1  0
 19 23  2  0
 20 21  1  0
 20 22  2  0
 21 40  1  0
 21 41  1  0
 21 42  1  0
 23 43  1  0
 24 25  2  0
 24 44  1  0
 25 45  1  0
M  END

