
     RDKit          3D

 66 70  0  0  0  0  0  0  0  0999 V2000
    2.6023   -1.7207    0.5515 C   0  0  0  0  0  0  0  0  0  0  0  0
    3.6462   -0.9044    0.3798 C   0  0  0  0  0  0  0  0  0  0  0  0
    3.8363   -0.1675   -0.9122 C   0  0  0  0  0  0  0  0  0  0  0  0
    3.0760   -0.2811   -1.8571 O   0  0  0  0  0  0  0  0  0  0  0  0
    4.9600    0.6343   -0.9322 N   0  0  0  0  0  0  0  0  0  0  0  0
    5.2791    1.5711   -1.9624 C   0  0  0  0  0  0  0  0  0  0  0  0
    5.2440    2.9237   -1.5927 C   0  0  0  0  0  0  0  0  0  0  0  0
    5.5681    3.9252   -2.5161 C   0  0  0  0  0  0  0  0  0  0  0  0
    5.5648    5.2994   -2.2118 N   0  0  0  0  0  0  0  0  0  0  0  0
    5.2775    5.9208   -1.0183 C   0  0  0  0  0  0  0  0  0  0  0  0
    4.9268    5.3204   -0.0120 O   0  0  0  0  0  0  0  0  0  0  0  0
    5.4017    7.4212   -1.0258 C   0  0  0  0  0  0  0  0  0  0  0  0
    6.1367    8.1583   -1.9865 C   0  0  0  0  0  0  0  0  0  0  0  0
    6.2166    9.5441   -1.9272 C   0  0  0  0  0  0  0  0  0  0  0  0
    5.5529   10.2229   -0.8925 C   0  0  0  0  0  0  0  0  0  0  0  0
    5.5125   11.9370   -0.6185 S   0  0  0  0  0  0  0  0  0  0  0  0
    4.4959   11.7153    0.8162 C   0  0  0  0  0  0  0  0  0  0  0  0
    4.2238   10.3813    1.0805 C   0  0  0  0  0  0  0  0  0  0  0  0
    4.8246    9.5009    0.0887 C   0  0  0  0  0  0  0  0  0  0  0  0
    4.7652    8.1022    0.0135 C   0  0  0  0  0  0  0  0  0  0  0  0
    3.4789    9.8739    2.1125 N   0  0  0  0  0  0  0  0  0  0  0  0
    3.1249   10.6298    3.2917 C   0  0  0  0  0  0  0  0  0  0  0  0
    2.3522   11.9267    2.9808 C   0  0  1  0  0  0  0  0  0  0  0  0
    1.5982   11.6754    2.2098 H   0  0  0  0  0  0  0  0  0  0  0  0
    1.6246   12.4282    4.2296 C   0  0  0  0  0  0  0  0  0  0  0  0
    3.2316   12.9860    2.5096 N   0  0  0  0  0  0  0  0  0  0  0  0
    4.1262   12.9874    1.4654 C   0  0  0  0  0  0  0  0  0  0  0  0
    4.6181   14.0415    1.0744 O   0  0  0  0  0  0  0  0  0  0  0  0
    5.9068    3.5380   -3.8223 C   0  0  0  0  0  0  0  0  0  0  0  0
    5.9407    2.1919   -4.1732 C   0  0  0  0  0  0  0  0  0  0  0  0
    5.6498    1.1574   -3.2639 C   0  0  0  0  0  0  0  0  0  0  0  0
    5.7647   -0.3185   -3.6284 C   0  0  1  0  0  0  0  0  0  0  0  0
    4.6535   -0.8267   -4.5867 C   0  0  0  0  0  0  0  0  0  0  0  0
    4.9178   -0.5411   -6.0700 C   0  0  0  0  0  0  0  0  0  0  0  0
    6.2847   -1.0795   -6.5124 C   0  0  0  0  0  0  0  0  0  0  0  0
    7.4214   -0.5213   -5.6459 C   0  0  0  0  0  0  0  0  0  0  0  0
    7.1656   -0.7490   -4.1478 C   0  0  0  0  0  0  0  0  0  0  0  0
    2.4435   -2.2654    1.4853 H   0  0  0  0  0  0  0  0  0  0  0  0
    1.8818   -1.8525   -0.2610 H   0  0  0  0  0  0  0  0  0  0  0  0
    4.3825   -0.7581    1.1781 H   0  0  0  0  0  0  0  0  0  0  0  0
    5.4092    0.8007   -0.0382 H   0  0  0  0  0  0  0  0  0  0  0  0
    4.9486    3.2064   -0.5852 H   0  0  0  0  0  0  0  0  0  0  0  0
    5.7444    5.9059   -3.0018 H   0  0  0  0  0  0  0  0  0  0  0  0
    6.6888    7.6451   -2.7780 H   0  0  0  0  0  0  0  0  0  0  0  0
    6.7967   10.0960   -2.6699 H   0  0  0  0  0  0  0  0  0  0  0  0
    4.2294    7.4985    0.7499 H   0  0  0  0  0  0  0  0  0  0  0  0
    3.4997    8.8682    2.2167 H   0  0  0  0  0  0  0  0  0  0  0  0
    4.0133   10.8989    3.8986 H   0  0  0  0  0  0  0  0  0  0  0  0
    2.4857    9.9809    3.9088 H   0  0  0  0  0  0  0  0  0  0  0  0
    0.8822   11.6926    4.5727 H   0  0  0  0  0  0  0  0  0  0  0  0
    1.0904   13.3683    4.0193 H   0  0  0  0  0  0  0  0  0  0  0  0
    2.3361   12.6146    5.0507 H   0  0  0  0  0  0  0  0  0  0  0  0
    3.0428   13.9280    2.8385 H   0  0  0  0  0  0  0  0  0  0  0  0
    6.1544    4.2965   -4.5711 H   0  0  0  0  0  0  0  0  0  0  0  0
    6.2228    1.9437   -5.1947 H   0  0  0  0  0  0  0  0  0  0  0  0
    5.6249   -0.8593   -2.6842 H   0  0  0  0  0  0  0  0  0  0  0  0
    3.6852   -0.4221   -4.2611 H   0  0  0  0  0  0  0  0  0  0  0  0
    4.5858   -1.9224   -4.4566 H   0  0  0  0  0  0  0  0  0  0  0  0
    4.8611    0.5439   -6.2686 H   0  0  0  0  0  0  0  0  0  0  0  0
    4.1172   -0.9963   -6.6775 H   0  0  0  0  0  0  0  0  0  0  0  0
    6.4679   -0.8514   -7.5764 H   0  0  0  0  0  0  0  0  0  0  0  0
    6.2775   -2.1827   -6.4297 H   0  0  0  0  0  0  0  0  0  0  0  0
    7.5535    0.5535   -5.8573 H   0  0  0  0  0  0  0  0  0  0  0  0
    8.3785   -0.9947   -5.9248 H   0  0  0  0  0  0  0  0  0  0  0  0
    7.9542   -0.2670   -3.5459 H   0  0  0  0  0  0  0  0  0  0  0  0
    7.2549   -1.8339   -3.9559 H   0  0  0  0  0  0  0  0  0  0  0  0
  1  2  2  0
  1 38  1  0
  1 39  1  0
  2  3  1  0
  2 40  1  0
  3  4  2  0
  3  5  1  0
  5  6  1  0
  5 41  1  0
  6  7  2  0
  6 31  1  0
  7  8  1  0
  7 42  1  0
  8  9  1  0
  8 29  2  0
  9 10  1  0
  9 43  1  0
 10 11  2  0
 10 12  1  0
 12 13  1  0
 12 20  2  0
 13 14  2  0
 13 44  1  0
 14 15  1  0
 14 45  1  0
 15 16  2  0
 15 19  1  0
 16 17  1  0
 17 18  1  0
 17 27  2  0
 18 19  2  0
 18 21  1  0
 19 20  1  0
 20 46  1  0
 21 22  1  0
 21 47  1  0
 22 23  1  0
 22 48  1  0
 22 49  1  0
 23 24  1  6
 23 25  1  0
 23 26  1  0
 25 50  1  0
 25 51  1  0
 25 52  1  0
 26 27  1  0
 26 53  1  0
 27 28  1  0
 29 30  1  0
 29 54  1  0
 30 31  2  0
 30 55  1  0
 31 32  1  0
 32 33  1  0
 32 37  1  0
 32 56  1  1
 33 34  1  0
 33 57  1  0
 33 58  1  0
 34 35  1  0
 34 59  1  0
 34 60  1  0
 35 36  1  0
 35 61  1  0
 35 62  1  0
 36 37  1  0
 36 63  1  0
 36 64  1  0
 37 65  1  0
 37 66  1  0
M  CHG  2  16   1  28  -1
M  END

