
     RDKit          3D

 55 56  0  0  0  0  0  0  0  0999 V2000
    3.1006   -0.6950    1.0794 C   0  0  0  0  0  0  0  0  0  0  0  0
    3.0859    0.7985    1.4163 C   0  0  0  0  0  0  0  0  0  0  0  0
    3.0548    1.7068    0.2633 N   0  0  0  0  0  0  0  0  0  0  0  0
    1.7620    2.2595   -0.1367 C   0  0  0  0  0  0  0  0  0  0  0  0
    0.7578    1.2261   -0.6550 C   0  0  0  0  0  0  0  0  0  0  0  0
    4.2473    1.9018   -0.3958 C   0  0  0  0  0  0  0  0  0  0  0  0
    5.2369    1.2309   -0.1220 O   0  0  0  0  0  0  0  0  0  0  0  0
    4.3452    2.9829   -1.4340 C   0  0  0  0  0  0  0  0  0  0  0  0
    3.9523    4.6512   -1.0209 S   0  0  0  0  0  0  0  0  0  0  0  0
    4.5275    5.1974   -2.5606 C   0  0  0  0  0  0  0  0  0  0  0  0
    4.5126    6.5171   -2.9341 N   0  0  0  0  0  0  0  0  0  0  0  0
    4.0342    7.5572   -2.1572 C   0  0  0  0  0  0  0  0  0  0  0  0
    3.5768    7.3563   -1.0392 O   0  0  0  0  0  0  0  0  0  0  0  0
    4.1305    8.8852   -2.7953 C   0  0  0  0  0  0  0  0  0  0  0  0
    3.7005    9.9850   -2.1372 C   0  0  0  0  0  0  0  0  0  0  0  0
    3.7317   11.3335   -2.6279 C   0  0  0  0  0  0  0  0  0  0  0  0
    3.3300   12.5259   -2.0600 C   0  0  0  0  0  0  0  0  0  0  0  0
    3.6052   13.5478   -3.0163 C   0  0  0  0  0  0  0  0  0  0  0  0
    4.1534   12.9096   -4.0969 C   0  0  0  0  0  0  0  0  0  0  0  0
    4.2344   11.5795   -3.8754 O   0  0  0  0  0  0  0  0  0  0  0  0
    5.0033    4.1440   -3.3551 C   0  0  0  0  0  0  0  0  0  0  0  0
    5.5190    4.4336   -4.7016 C   0  0  0  0  0  0  0  0  0  0  0  0
    5.5820    5.5631   -5.1795 O   0  0  0  0  0  0  0  0  0  0  0  0
    5.9197    3.3522   -5.3845 O   0  0  0  0  0  0  0  0  0  0  0  0
    6.4504    3.5378   -6.7244 C   0  0  1  0  0  0  0  0  0  0  0  0
    7.9302    3.8942   -6.6448 C   0  0  0  0  0  0  0  0  0  0  0  0
    6.1723    2.2454   -7.4760 C   0  0  0  0  0  0  0  0  0  0  0  0
    4.9144    2.8641   -2.6824 C   0  0  0  0  0  0  0  0  0  0  0  0
    5.3783    1.5539   -3.2581 C   0  0  0  0  0  0  0  0  0  0  0  0
    3.1275   -1.2861    2.0096 H   0  0  0  0  0  0  0  0  0  0  0  0
    3.9978   -0.9379    0.4937 H   0  0  0  0  0  0  0  0  0  0  0  0
    2.2111   -1.0024    0.5093 H   0  0  0  0  0  0  0  0  0  0  0  0
    3.9895    1.0347    1.9991 H   0  0  0  0  0  0  0  0  0  0  0  0
    2.2135    1.0437    2.0442 H   0  0  0  0  0  0  0  0  0  0  0  0
    1.9319    3.0086   -0.9177 H   0  0  0  0  0  0  0  0  0  0  0  0
    1.3249    2.7992    0.7235 H   0  0  0  0  0  0  0  0  0  0  0  0
    1.1670    0.6748   -1.5163 H   0  0  0  0  0  0  0  0  0  0  0  0
   -0.1629    1.7367   -0.9806 H   0  0  0  0  0  0  0  0  0  0  0  0
    0.4740    0.4947    0.1170 H   0  0  0  0  0  0  0  0  0  0  0  0
    4.8980    6.6658   -3.8746 H   0  0  0  0  0  0  0  0  0  0  0  0
    4.5534    8.9628   -3.8005 H   0  0  0  0  0  0  0  0  0  0  0  0
    3.2875    9.8469   -1.1332 H   0  0  0  0  0  0  0  0  0  0  0  0
    2.8908   12.6421   -1.0713 H   0  0  0  0  0  0  0  0  0  0  0  0
    3.4223   14.6157   -2.9187 H   0  0  0  0  0  0  0  0  0  0  0  0
    4.5201   13.2593   -5.0589 H   0  0  0  0  0  0  0  0  0  0  0  0
    5.9004    4.3746   -7.1808 H   0  0  0  0  0  0  0  0  0  0  0  0
    8.4975    3.0964   -6.1392 H   0  0  0  0  0  0  0  0  0  0  0  0
    8.0741    4.8363   -6.0968 H   0  0  0  0  0  0  0  0  0  0  0  0
    8.3427    4.0226   -7.6581 H   0  0  0  0  0  0  0  0  0  0  0  0
    6.6928    1.3962   -7.0057 H   0  0  0  0  0  0  0  0  0  0  0  0
    6.5223    2.3310   -8.5163 H   0  0  0  0  0  0  0  0  0  0  0  0
    5.0942    2.0251   -7.4915 H   0  0  0  0  0  0  0  0  0  0  0  0
    6.4406    1.6083   -3.5384 H   0  0  0  0  0  0  0  0  0  0  0  0
    4.8266    1.3070   -4.1778 H   0  0  0  0  0  0  0  0  0  0  0  0
    5.2616    0.7457   -2.5273 H   0  0  0  0  0  0  0  0  0  0  0  0
  1  2  1  0
  1 30  1  0
  1 31  1  0
  1 32  1  0
  2  3  1  0
  2 33  1  0
  2 34  1  0
  3  4  1  0
  3  6  1  0
  4  5  1  0
  4 35  1  0
  4 36  1  0
  5 37  1  0
  5 38  1  0
  5 39  1  0
  6  7  2  0
  6  8  1  0
  8  9  1  0
  8 28  2  0
  9 10  2  0
 10 11  1  0
 10 21  1  0
 11 12  1  0
 11 40  1  0
 12 13  2  0
 12 14  1  0
 14 15  2  0
 14 41  1  0
 15 16  1  0
 15 42  1  0
 16 17  2  0
 16 20  1  0
 17 18  1  0
 17 43  1  0
 18 19  2  0
 18 44  1  0
 19 20  1  0
 19 45  1  0
 21 22  2  0
 21 28  1  0
 22 23  1  0
 22 24  1  0
 24 25  1  0
 25 26  1  0
 25 27  1  0
 25 46  1  6
 26 47  1  0
 26 48  1  0
 26 49  1  0
 27 50  1  0
 27 51  1  0
 27 52  1  0
 28 29  1  0
 29 53  1  0
 29 54  1  0
 29 55  1  0
M  CHG  2   9   1  23  -1
M  END

