
     RDKit          3D

 60 63  0  0  0  0  0  0  0  0999 V2000
    3.2231    1.2779    0.4319 C   0  0  0  0  0  0  0  0  0  0  0  0
    2.9119   -0.0910    0.2856 O   0  0  0  0  0  0  0  0  0  0  0  0
    3.5261   -0.8243   -0.6690 C   0  0  0  0  0  0  0  0  0  0  0  0
    4.4781   -0.3120   -1.5627 C   0  0  0  0  0  0  0  0  0  0  0  0
    5.0462   -1.1453   -2.5301 C   0  0  0  0  0  0  0  0  0  0  0  0
    4.6776   -2.4922   -2.6328 C   0  0  0  0  0  0  0  0  0  0  0  0
    5.2435   -3.4613   -3.6319 C   0  0  0  0  0  0  0  0  0  0  0  0
    5.1540   -4.6695   -3.4769 O   0  0  0  0  0  0  0  0  0  0  0  0
    5.8503   -2.8984   -4.7315 N   0  0  0  0  0  0  0  0  0  0  0  0
    6.4587   -3.6021   -5.7768 C   0  0  0  0  0  0  0  0  0  0  0  0
    6.6400   -5.0032   -5.9429 C   0  0  0  0  0  0  0  0  0  0  0  0
    7.2869   -5.2626   -7.0769 N   0  0  0  0  0  0  0  0  0  0  0  0
    7.5362   -4.0747   -7.6389 N   0  0  0  0  0  0  0  0  0  0  0  0
    8.1448   -4.0109   -8.9595 C   0  0  0  0  0  0  0  0  0  0  0  0
    7.1296   -3.9852  -10.0869 C   0  0  0  0  0  0  0  0  0  0  0  0
    6.4883   -5.1763  -10.4656 C   0  0  0  0  0  0  0  0  0  0  0  0
    5.5365   -5.1999  -11.4849 C   0  0  0  0  0  0  0  0  0  0  0  0
    5.2052   -4.0173  -12.1532 C   0  0  0  0  0  0  0  0  0  0  0  0
    5.8203   -2.8174  -11.7943 C   0  0  0  0  0  0  0  0  0  0  0  0
    6.7681   -2.8099  -10.7659 C   0  0  0  0  0  0  0  0  0  0  0  0
    7.4982   -1.2647  -10.3382 Cl  0  0  0  0  0  0  0  0  0  0  0  0
    7.0483   -3.0358   -6.9010 C   0  0  0  0  0  0  0  0  0  0  0  0
    3.7410   -2.9941   -1.7112 C   0  0  0  0  0  0  0  0  0  0  0  0
    3.1518   -2.1890   -0.7426 C   0  0  0  0  0  0  0  0  0  0  0  0
    2.1550   -2.7458    0.2390 C   0  0  0  0  0  0  0  0  0  0  0  0
    2.7951   -2.9094    1.4970 O   0  0  0  0  0  0  0  0  0  0  0  0
    2.0695   -3.3137    2.5762 C   0  0  0  0  0  0  0  0  0  0  0  0
    0.7113   -3.6574    2.5233 C   0  0  0  0  0  0  0  0  0  0  0  0
    0.0262   -4.0726    3.6774 C   0  0  0  0  0  0  0  0  0  0  0  0
   -1.4379   -4.4401    3.6166 C   0  0  0  0  0  0  0  0  0  0  0  0
    0.7317   -4.1369    4.8845 C   0  0  0  0  0  0  0  0  0  0  0  0
    2.0871   -3.7941    4.9305 C   0  0  0  0  0  0  0  0  0  0  0  0
    2.7846   -3.3786    3.7934 C   0  0  0  0  0  0  0  0  0  0  0  0
    4.2430   -3.0062    3.8257 C   0  0  0  0  0  0  0  0  0  0  0  0
    2.6041    1.6506    1.2585 H   0  0  0  0  0  0  0  0  0  0  0  0
    2.9868    1.8517   -0.4820 H   0  0  0  0  0  0  0  0  0  0  0  0
    4.2873    1.4291    0.6850 H   0  0  0  0  0  0  0  0  0  0  0  0
    4.7921    0.7300   -1.5065 H   0  0  0  0  0  0  0  0  0  0  0  0
    5.8105   -0.7196   -3.1861 H   0  0  0  0  0  0  0  0  0  0  0  0
    5.7805   -1.8962   -4.8464 H   0  0  0  0  0  0  0  0  0  0  0  0
    6.3239   -5.7953   -5.2715 H   0  0  0  0  0  0  0  0  0  0  0  0
    8.7753   -4.9058   -9.0441 H   0  0  0  0  0  0  0  0  0  0  0  0
    8.7911   -3.1252   -9.0027 H   0  0  0  0  0  0  0  0  0  0  0  0
    6.7433   -6.0942   -9.9299 H   0  0  0  0  0  0  0  0  0  0  0  0
    5.0537   -6.1409  -11.7584 H   0  0  0  0  0  0  0  0  0  0  0  0
    4.4640   -4.0239  -12.9562 H   0  0  0  0  0  0  0  0  0  0  0  0
    5.5712   -1.8837  -12.3010 H   0  0  0  0  0  0  0  0  0  0  0  0
    7.1487   -2.0032   -7.2282 H   0  0  0  0  0  0  0  0  0  0  0  0
    3.4827   -4.0534   -1.7760 H   0  0  0  0  0  0  0  0  0  0  0  0
    1.7751   -3.7169   -0.1249 H   0  0  0  0  0  0  0  0  0  0  0  0
    1.2990   -2.0565    0.3442 H   0  0  0  0  0  0  0  0  0  0  0  0
    0.1672   -3.6099    1.5794 H   0  0  0  0  0  0  0  0  0  0  0  0
   -1.8343   -4.3684    2.5927 H   0  0  0  0  0  0  0  0  0  0  0  0
   -2.0446   -3.7780    4.2575 H   0  0  0  0  0  0  0  0  0  0  0  0
   -1.6077   -5.4708    3.9706 H   0  0  0  0  0  0  0  0  0  0  0  0
    0.2221   -4.4580    5.7973 H   0  0  0  0  0  0  0  0  0  0  0  0
    2.6237   -3.8507    5.8824 H   0  0  0  0  0  0  0  0  0  0  0  0
    4.6521   -3.0935    4.8429 H   0  0  0  0  0  0  0  0  0  0  0  0
    4.3987   -1.9731    3.4730 H   0  0  0  0  0  0  0  0  0  0  0  0
    4.8361   -3.6503    3.1553 H   0  0  0  0  0  0  0  0  0  0  0  0
  1  2  1  0
  1 35  1  0
  1 36  1  0
  1 37  1  0
  2  3  1  0
  3  4  2  0
  3 24  1  0
  4  5  1  0
  4 38  1  0
  5  6  2  0
  5 39  1  0
  6  7  1  0
  6 23  1  0
  7  8  2  0
  7  9  1  0
  9 10  1  0
  9 40  1  0
 10 11  1  0
 10 22  2  0
 11 12  2  0
 11 41  1  0
 12 13  1  0
 13 14  1  0
 13 22  1  0
 14 15  1  0
 14 42  1  0
 14 43  1  0
 15 16  2  0
 15 20  1  0
 16 17  1  0
 16 44  1  0
 17 18  2  0
 17 45  1  0
 18 19  1  0
 18 46  1  0
 19 20  2  0
 19 47  1  0
 20 21  1  0
 22 48  1  0
 23 24  2  0
 23 49  1  0
 24 25  1  0
 25 26  1  0
 25 50  1  0
 25 51  1  0
 26 27  1  0
 27 28  2  0
 27 33  1  0
 28 29  1  0
 28 52  1  0
 29 30  1  0
 29 31  2  0
 30 53  1  0
 30 54  1  0
 30 55  1  0
 31 32  1  0
 31 56  1  0
 32 33  2  0
 32 57  1  0
 33 34  1  0
 34 58  1  0
 34 59  1  0
 34 60  1  0
M  END

