
     RDKit          3D

 35 38  0  0  0  0  0  0  0  0999 V2000
    1.0073   -0.0619    0.0457 C   0  0  0  0  0  0  0  0  0  0  0  0
    2.5147   -0.0577    0.0510 C   0  0  0  0  0  0  0  0  0  0  0  0
    3.2136   -1.2381    0.0537 C   0  0  0  0  0  0  0  0  0  0  0  0
    4.6426   -1.3131    0.0588 C   0  0  0  0  0  0  0  0  0  0  0  0
    5.3379   -2.5897    0.0616 C   0  0  0  0  0  0  0  0  0  0  0  0
    4.6700   -3.8409    0.0593 C   0  0  0  0  0  0  0  0  0  0  0  0
    5.3617   -5.0381    0.0620 C   0  0  0  0  0  0  0  0  0  0  0  0
    6.7766   -5.0501    0.0672 C   0  0  0  0  0  0  0  0  0  0  0  0
    7.4865   -6.2088    0.0701 O   0  0  0  0  0  0  0  0  0  0  0  0
    7.4639   -3.8472    0.0696 C   0  0  0  0  0  0  0  0  0  0  0  0
    6.7695   -2.6150    0.0668 C   0  0  0  0  0  0  0  0  0  0  0  0
    7.4768   -1.3714    0.0692 C   0  0  0  0  0  0  0  0  0  0  0  0
    6.8124   -0.1771    0.0665 C   0  0  0  0  0  0  0  0  0  0  0  0
    5.3815   -0.1051    0.0613 C   0  0  0  0  0  0  0  0  0  0  0  0
    4.6755    1.1643    0.0584 C   0  0  0  0  0  0  0  0  0  0  0  0
    5.3517    2.4105    0.0605 C   0  0  0  0  0  0  0  0  0  0  0  0
    4.6739    3.6150    0.0577 C   0  0  0  0  0  0  0  0  0  0  0  0
    3.2615    3.6332    0.0526 C   0  0  0  0  0  0  0  0  0  0  0  0
    2.5546    4.7939    0.0497 O   0  0  0  0  0  0  0  0  0  0  0  0
    2.5656    2.4342    0.0504 C   0  0  0  0  0  0  0  0  0  0  0  0
    3.2425    1.1907    0.0532 C   0  0  0  0  0  0  0  0  0  0  0  0
    0.6159   -1.0894    0.0449 H   0  0  0  0  0  0  0  0  0  0  0  0
    0.6009    0.4540   -0.8409 H   0  0  0  0  0  0  0  0  0  0  0  0
    0.5946    0.4552    0.9286 H   0  0  0  0  0  0  0  0  0  0  0  0
    2.6382   -2.1647    0.0519 H   0  0  0  0  0  0  0  0  0  0  0  0
    3.5806   -3.8808    0.0553 H   0  0  0  0  0  0  0  0  0  0  0  0
    4.8129   -5.9857    0.0601 H   0  0  0  0  0  0  0  0  0  0  0  0
    6.8783   -6.9591    0.0677 H   0  0  0  0  0  0  0  0  0  0  0  0
    8.5560   -3.8606    0.0736 H   0  0  0  0  0  0  0  0  0  0  0  0
    8.5698   -1.3912    0.0732 H   0  0  0  0  0  0  0  0  0  0  0  0
    7.3982    0.7424    0.0685 H   0  0  0  0  0  0  0  0  0  0  0  0
    6.4414    2.4387    0.0644 H   0  0  0  0  0  0  0  0  0  0  0  0
    5.2309    4.5577    0.0594 H   0  0  0  0  0  0  0  0  0  0  0  0
    3.1647    5.5427    0.0518 H   0  0  0  0  0  0  0  0  0  0  0  0
    1.4769    2.4784    0.0465 H   0  0  0  0  0  0  0  0  0  0  0  0
  1  2  1  0
  1 22  1  0
  1 23  1  0
  1 24  1  0
  2  3  2  0
  2 21  1  0
  3  4  1  0
  3 25  1  0
  4  5  2  0
  4 14  1  0
  5  6  1  0
  5 11  1  0
  6  7  2  0
  6 26  1  0
  7  8  1  0
  7 27  1  0
  8  9  1  0
  8 10  2  0
  9 28  1  0
 10 11  1  0
 10 29  1  0
 11 12  2  0
 12 13  1  0
 12 30  1  0
 13 14  2  0
 13 31  1  0
 14 15  1  0
 15 16  1  0
 15 21  2  0
 16 17  2  0
 16 32  1  0
 17 18  1  0
 17 33  1  0
 18 19  1  0
 18 20  2  0
 19 34  1  0
 20 21  1  0
 20 35  1  0
M  END

