
     RDKit          3D

 46 47  0  0  0  0  0  0  0  0999 V2000
    0.8740    1.0574   -0.1763 C   0  0  0  0  0  0  0  0  0  0  0  0
    2.3108    0.5225   -0.1031 C   0  0  1  0  0  0  0  0  0  0  0  0
    2.3763   -1.0196   -0.1085 C   0  0  0  0  0  0  0  0  0  0  0  0
    2.0971   -1.6118   -1.4957 C   0  0  2  0  0  0  0  0  0  0  0  0
    2.2446   -3.1312   -1.5167 C   0  0  0  0  0  0  0  0  0  0  0  0
    2.7412   -3.7806   -0.6376 O   0  0  0  0  0  0  0  0  0  0  0  0
    1.7957   -3.7313   -2.6441 O   0  0  0  0  0  0  0  0  0  0  0  0
    3.0376   -0.9592   -2.5357 C   0  0  0  0  0  0  0  0  0  0  0  0
    2.8885    0.4898   -2.5303 N   0  0  0  0  0  0  0  0  0  0  0  0
    2.0335    1.0227   -3.4858 C   0  0  0  0  0  0  0  0  0  0  0  0
    1.4035    0.3166   -4.2589 O   0  0  0  0  0  0  0  0  0  0  0  0
    1.9861    2.4116   -3.5116 N   0  0  0  0  0  0  0  0  0  0  0  0
    1.1652    3.2338   -4.2868 C   0  0  0  0  0  0  0  0  0  0  0  0
    0.1682    2.7573   -5.1683 C   0  0  0  0  0  0  0  0  0  0  0  0
   -0.5826    3.6969   -5.8638 C   0  0  0  0  0  0  0  0  0  0  0  0
   -0.4279    5.0250   -5.7612 N   0  0  0  0  0  0  0  0  0  0  0  0
    0.5112    5.4571   -4.9341 C   0  0  0  0  0  0  0  0  0  0  0  0
    0.7044    6.7896   -4.7954 O   0  0  0  0  0  0  0  0  0  0  0  0
   -0.1044    7.6475   -5.5692 C   0  0  0  0  0  0  0  0  0  0  0  0
    0.2680    9.0730   -5.1998 C   0  0  1  0  0  0  0  0  0  0  0  0
    0.1197    9.2707   -3.8606 F   0  0  0  0  0  0  0  0  0  0  0  0
    1.5637    9.3175   -5.5107 F   0  0  0  0  0  0  0  0  0  0  0  0
   -0.6171   10.1198   -5.8997 C   0  0  1  0  0  0  0  0  0  0  0  0
   -0.0997   11.3474   -5.7098 F   0  0  0  0  0  0  0  0  0  0  0  0
   -0.6527    9.8619   -7.2313 F   0  0  0  0  0  0  0  0  0  0  0  0
    1.3363    4.6189   -4.1716 C   0  0  0  0  0  0  0  0  0  0  0  0
    3.2028    1.0890   -1.2311 C   0  0  0  0  0  0  0  0  0  0  0  0
    0.2718    0.6680    0.6597 H   0  0  0  0  0  0  0  0  0  0  0  0
    0.3634    0.7699   -1.1094 H   0  0  0  0  0  0  0  0  0  0  0  0
    0.8534    2.1576   -0.1163 H   0  0  0  0  0  0  0  0  0  0  0  0
    2.7501    0.8712    0.8481 H   0  0  0  0  0  0  0  0  0  0  0  0
    1.6729   -1.4348    0.6303 H   0  0  0  0  0  0  0  0  0  0  0  0
    3.3779   -1.3554    0.2076 H   0  0  0  0  0  0  0  0  0  0  0  0
    1.0638   -1.3789   -1.8099 H   0  0  0  0  0  0  0  0  0  0  0  0
    1.3899   -3.0846   -3.2409 H   0  0  0  0  0  0  0  0  0  0  0  0
    2.8365   -1.3210   -3.5502 H   0  0  0  0  0  0  0  0  0  0  0  0
    4.0836   -1.2048   -2.2816 H   0  0  0  0  0  0  0  0  0  0  0  0
    2.6837    2.9031   -2.9681 H   0  0  0  0  0  0  0  0  0  0  0  0
    0.0110    1.6911   -5.3021 H   0  0  0  0  0  0  0  0  0  0  0  0
   -1.3613    3.3555   -6.5549 H   0  0  0  0  0  0  0  0  0  0  0  0
   -1.1754    7.4755   -5.3705 H   0  0  0  0  0  0  0  0  0  0  0  0
    0.0581    7.4980   -6.6477 H   0  0  0  0  0  0  0  0  0  0  0  0
   -1.6464   10.0928   -5.5004 H   0  0  0  0  0  0  0  0  0  0  0  0
    2.0854    5.0619   -3.5120 H   0  0  0  0  0  0  0  0  0  0  0  0
    3.1059    2.1827   -1.2677 H   0  0  0  0  0  0  0  0  0  0  0  0
    4.2622    0.8740   -1.0064 H   0  0  0  0  0  0  0  0  0  0  0  0
  1  2  1  0
  1 28  1  0
  1 29  1  0
  1 30  1  0
  2  3  1  0
  2 27  1  0
  2 31  1  1
  3  4  1  0
  3 32  1  0
  3 33  1  0
  4  5  1  0
  4  8  1  0
  4 34  1  6
  5  6  2  0
  5  7  1  0
  7 35  1  0
  8  9  1  0
  8 36  1  0
  8 37  1  0
  9 10  1  0
  9 27  1  0
 10 11  2  0
 10 12  1  0
 12 13  1  0
 12 38  1  0
 13 14  2  0
 13 26  1  0
 14 15  1  0
 14 39  1  0
 15 16  2  0
 15 40  1  0
 16 17  1  0
 17 18  1  0
 17 26  2  0
 18 19  1  0
 19 20  1  0
 19 41  1  0
 19 42  1  0
 20 21  1  1
 20 22  1  0
 20 23  1  0
 23 24  1  0
 23 25  1  0
 23 43  1  1
 26 44  1  0
 27 45  1  0
 27 46  1  0
M  END

