
     RDKit          3D

 31 32  0  0  0  0  0  0  0  0999 V2000
    3.3473    0.6284    1.8028 C   0  0  0  0  0  0  0  0  0  0  0  0
    2.4094    0.7912    0.5969 C   0  0  0  0  0  0  0  0  0  0  0  0
    2.9933    1.6217   -0.5071 C   0  0  0  0  0  0  0  0  0  0  0  0
    2.6557    2.8979   -0.6901 N   0  0  0  0  0  0  0  0  0  0  0  0
    3.3778    3.3518   -1.7253 N   0  0  0  0  0  0  0  0  0  0  0  0
    3.1681    4.7262   -2.1799 C   0  0  0  0  0  0  0  0  0  0  0  0
    1.7822    4.9360   -2.7837 C   0  0  0  0  0  0  0  0  0  0  0  0
    4.2012    2.3921   -2.2433 C   0  0  0  0  0  0  0  0  0  0  0  0
    5.1405    2.5634   -3.3972 C   0  0  0  0  0  0  0  0  0  0  0  0
    4.5056    2.4900   -4.7171 N   0  0  0  0  0  0  0  0  0  0  0  0
    3.9994    1.3167   -5.2665 C   0  0  0  0  0  0  0  0  0  0  0  0
    3.4597    1.4689   -6.4933 C   0  0  0  0  0  0  0  0  0  0  0  0
    3.5577    3.1365   -7.0346 S   0  0  0  0  0  0  0  0  0  0  0  0
    4.3744    3.6269   -5.4999 C   0  0  0  0  0  0  0  0  0  0  0  0
    4.7360    4.7462   -5.2062 O   0  0  0  0  0  0  0  0  0  0  0  0
    3.9674    1.2602   -1.4693 C   0  0  0  0  0  0  0  0  0  0  0  0
    4.7241   -0.2902   -1.6713 Cl  0  0  0  0  0  0  0  0  0  0  0  0
    2.8745    0.0163    2.5874 H   0  0  0  0  0  0  0  0  0  0  0  0
    3.5993    1.6075    2.2396 H   0  0  0  0  0  0  0  0  0  0  0  0
    4.2881    0.1355    1.5112 H   0  0  0  0  0  0  0  0  0  0  0  0
    1.4686    1.2678    0.9126 H   0  0  0  0  0  0  0  0  0  0  0  0
    2.1507   -0.2040    0.1974 H   0  0  0  0  0  0  0  0  0  0  0  0
    3.9455    4.9640   -2.9186 H   0  0  0  0  0  0  0  0  0  0  0  0
    3.3119    5.3823   -1.3071 H   0  0  0  0  0  0  0  0  0  0  0  0
    1.6424    4.3174   -3.6839 H   0  0  0  0  0  0  0  0  0  0  0  0
    1.6574    5.9909   -3.0731 H   0  0  0  0  0  0  0  0  0  0  0  0
    1.0005    4.6752   -2.0554 H   0  0  0  0  0  0  0  0  0  0  0  0
    5.9022    1.7726   -3.3320 H   0  0  0  0  0  0  0  0  0  0  0  0
    5.6548    3.5332   -3.3604 H   0  0  0  0  0  0  0  0  0  0  0  0
    4.0683    0.3960   -4.6877 H   0  0  0  0  0  0  0  0  0  0  0  0
    3.0094    0.6957   -7.1118 H   0  0  0  0  0  0  0  0  0  0  0  0
  1  2  1  0
  1 18  1  0
  1 19  1  0
  1 20  1  0
  2  3  1  0
  2 21  1  0
  2 22  1  0
  3  4  2  0
  3 16  1  0
  4  5  1  0
  5  6  1  0
  5  8  1  0
  6  7  1  0
  6 23  1  0
  6 24  1  0
  7 25  1  0
  7 26  1  0
  7 27  1  0
  8  9  1  0
  8 16  2  0
  9 10  1  0
  9 28  1  0
  9 29  1  0
 10 11  1  0
 10 14  1  0
 11 12  2  0
 11 30  1  0
 12 13  1  0
 12 31  1  0
 13 14  2  0
 14 15  1  0
 16 17  1  0
M  CHG  2  13   1  15  -1
M  END

