
     RDKit          3D

 53 55  0  0  0  0  0  0  0  0999 V2000
    2.7537    3.2178    0.9923 C   0  0  0  0  0  0  0  0  0  0  0  0
    3.0707    3.1215   -0.4924 C   0  0  0  0  0  0  0  0  0  0  0  0
    3.9370    2.0260   -0.7938 O   0  0  0  0  0  0  0  0  0  0  0  0
    5.2530    2.0717   -0.5181 C   0  0  0  0  0  0  0  0  0  0  0  0
    5.9660    3.2433   -0.2146 C   0  0  0  0  0  0  0  0  0  0  0  0
    7.3454    3.2047   -0.0088 C   0  0  0  0  0  0  0  0  0  0  0  0
    8.0398    1.9922   -0.0747 C   0  0  0  0  0  0  0  0  0  0  0  0
    9.4492    1.9646    0.1422 N   0  0  0  0  0  0  0  0  0  0  0  0
   10.3634    1.3297   -0.6975 C   0  0  0  0  0  0  0  0  0  0  0  0
   10.0838    0.8411   -1.7658 O   0  0  0  0  0  0  0  0  0  0  0  0
   11.7660    1.2965   -0.0700 C   0  0  2  0  0  0  0  0  0  0  0  0
   12.0930   -0.1304    0.4003 C   0  0  0  0  0  0  0  0  0  0  0  0
   11.8016    2.3415    1.0526 C   0  0  0  0  0  0  0  0  0  0  0  0
   10.1084    2.4091    1.6962 S   0  0  1  0  0  0  0  0  0  0  0  0
    9.6907    3.7732    2.0091 O   0  0  0  0  0  0  0  0  0  0  0  0
    9.8733    1.3310    2.6534 O   0  0  0  0  0  0  0  0  0  0  0  0
    7.3401    0.8103   -0.3471 C   0  0  0  0  0  0  0  0  0  0  0  0
    5.9692    0.8523   -0.5788 C   0  0  0  0  0  0  0  0  0  0  0  0
    5.1213   -0.7125   -0.8670 S   0  0  1  0  0  0  0  0  0  0  0  0
    6.1672   -1.7426   -0.8769 O   0  0  0  0  0  0  0  0  0  0  0  0
    3.9867   -0.8110    0.0516 O   0  0  0  0  0  0  0  0  0  0  0  0
    4.5080   -0.5387   -2.4240 N   0  0  0  0  0  0  0  0  0  0  0  0
    3.0672   -0.7144   -2.6331 C   0  0  0  0  0  0  0  0  0  0  0  0
    2.6773   -0.0094   -3.9409 C   0  0  0  0  0  0  0  0  0  0  0  0
    3.4682   -0.4235   -5.0923 N   0  0  0  0  0  0  0  0  0  0  0  0
    3.0861   -1.6918   -5.6861 C   0  0  0  0  0  0  0  0  0  0  0  0
    4.8901   -0.2651   -4.8201 C   0  0  0  0  0  0  0  0  0  0  0  0
    5.3614   -0.9703   -3.5373 C   0  0  0  0  0  0  0  0  0  0  0  0
    2.0051    4.0071    1.1659 H   0  0  0  0  0  0  0  0  0  0  0  0
    3.6469    3.4584    1.5886 H   0  0  0  0  0  0  0  0  0  0  0  0
    2.3477    2.2616    1.3550 H   0  0  0  0  0  0  0  0  0  0  0  0
    3.4898    4.0632   -0.8875 H   0  0  0  0  0  0  0  0  0  0  0  0
    2.1586    2.9083   -1.0682 H   0  0  0  0  0  0  0  0  0  0  0  0
    5.4515    4.2017   -0.1506 H   0  0  0  0  0  0  0  0  0  0  0  0
    7.8890    4.1228    0.2161 H   0  0  0  0  0  0  0  0  0  0  0  0
   12.4661    1.5856   -0.8690 H   0  0  0  0  0  0  0  0  0  0  0  0
   11.4229   -0.4360    1.2183 H   0  0  0  0  0  0  0  0  0  0  0  0
   13.1310   -0.1869    0.7625 H   0  0  0  0  0  0  0  0  0  0  0  0
   11.9766   -0.8367   -0.4340 H   0  0  0  0  0  0  0  0  0  0  0  0
   12.0194    3.3565    0.6936 H   0  0  0  0  0  0  0  0  0  0  0  0
   12.4581    2.0888    1.8964 H   0  0  0  0  0  0  0  0  0  0  0  0
    7.8488   -0.1523   -0.3918 H   0  0  0  0  0  0  0  0  0  0  0  0
    2.5317   -0.2777   -1.7813 H   0  0  0  0  0  0  0  0  0  0  0  0
    2.8023   -1.7897   -2.6759 H   0  0  0  0  0  0  0  0  0  0  0  0
    2.8189    1.0767   -3.7946 H   0  0  0  0  0  0  0  0  0  0  0  0
    1.6089   -0.1822   -4.1501 H   0  0  0  0  0  0  0  0  0  0  0  0
    2.0183   -1.6643   -5.9582 H   0  0  0  0  0  0  0  0  0  0  0  0
    3.2400   -2.5880   -5.0460 H   0  0  0  0  0  0  0  0  0  0  0  0
    3.6589   -1.8513   -6.6143 H   0  0  0  0  0  0  0  0  0  0  0  0
    5.1059    0.8137   -4.7163 H   0  0  0  0  0  0  0  0  0  0  0  0
    5.4715   -0.6372   -5.6791 H   0  0  0  0  0  0  0  0  0  0  0  0
    6.4055   -0.7001   -3.3232 H   0  0  0  0  0  0  0  0  0  0  0  0
    5.3299   -2.0708   -3.6521 H   0  0  0  0  0  0  0  0  0  0  0  0
  1  2  1  0
  1 29  1  0
  1 30  1  0
  1 31  1  0
  2  3  1  0
  2 32  1  0
  2 33  1  0
  3  4  1  0
  4  5  2  0
  4 18  1  0
  5  6  1  0
  5 34  1  0
  6  7  2  0
  6 35  1  0
  7  8  1  0
  7 17  1  0
  8  9  1  0
 14  8  1  6
  9 10  2  0
  9 11  1  0
 11 12  1  0
 11 13  1  0
 11 36  1  6
 12 37  1  0
 12 38  1  0
 12 39  1  0
 13 14  1  0
 13 40  1  0
 13 41  1  0
 14 15  2  0
 14 16  2  0
 17 18  2  0
 17 42  1  0
 19 18  1  1
 19 20  2  0
 19 21  2  0
 19 22  1  0
 22 23  1  0
 22 28  1  0
 23 24  1  0
 23 43  1  0
 23 44  1  0
 24 25  1  0
 24 45  1  0
 24 46  1  0
 25 26  1  0
 25 27  1  0
 26 47  1  0
 26 48  1  0
 26 49  1  0
 27 28  1  0
 27 50  1  0
 27 51  1  0
 28 52  1  0
 28 53  1  0
M  END

