
     RDKit          3D

 36 37  0  0  0  0  0  0  0  0999 V2000
    3.2342    0.8540   -0.6081 O   0  0  0  0  0  0  0  0  0  0  0  0
    2.4974   -0.0681    0.2483 S   0  0  1  0  0  0  0  0  0  0  0  0
    1.0592   -0.2957    0.1055 O   0  0  0  0  0  0  0  0  0  0  0  0
    3.2485   -1.5452    0.0930 N   0  0  0  0  0  0  0  0  0  0  0  0
    2.7254   -2.7352    0.7581 C   0  0  0  0  0  0  0  0  0  0  0  0
    3.1910   -4.0053    0.0455 C   0  0  0  0  0  0  0  0  0  0  0  0
    2.6420   -5.2842    0.7013 C   0  0  0  0  0  0  0  0  0  0  0  0
    3.0991   -6.5511    0.0109 C   0  0  0  0  0  0  0  0  0  0  0  0
    4.2656   -7.2159    0.4215 C   0  0  0  0  0  0  0  0  0  0  0  0
    4.7096   -8.3654   -0.2384 C   0  0  0  0  0  0  0  0  0  0  0  0
    3.9911   -8.8721   -1.3252 C   0  0  0  0  0  0  0  0  0  0  0  0
    2.8266   -8.2216   -1.7443 C   0  0  0  0  0  0  0  0  0  0  0  0
    2.3869   -7.0727   -1.0812 C   0  0  0  0  0  0  0  0  0  0  0  0
    2.7534    0.4632    1.9565 C   0  0  0  0  0  0  0  0  0  0  0  0
    1.6543    0.8187    2.7439 C   0  0  0  0  0  0  0  0  0  0  0  0
    1.8508    1.2923    4.0437 C   0  0  0  0  0  0  0  0  0  0  0  0
    3.1469    1.4105    4.5557 C   0  0  0  0  0  0  0  0  0  0  0  0
    4.2525    1.0522    3.7779 C   0  0  0  0  0  0  0  0  0  0  0  0
    4.0426    0.5862    2.4845 C   0  0  0  0  0  0  0  0  0  0  0  0
    5.0992    0.2209    1.7418 F   0  0  0  0  0  0  0  0  0  0  0  0
    4.2613   -1.4369    0.0618 H   0  0  0  0  0  0  0  0  0  0  0  0
    1.6279   -2.6650    0.7247 H   0  0  0  0  0  0  0  0  0  0  0  0
    3.0187   -2.7732    1.8268 H   0  0  0  0  0  0  0  0  0  0  0  0
    4.2951   -4.0450    0.0400 H   0  0  0  0  0  0  0  0  0  0  0  0
    2.8785   -3.9567   -1.0104 H   0  0  0  0  0  0  0  0  0  0  0  0
    1.5393   -5.2407    0.7010 H   0  0  0  0  0  0  0  0  0  0  0  0
    2.9516   -5.3109    1.7603 H   0  0  0  0  0  0  0  0  0  0  0  0
    4.8318   -6.8304    1.2750 H   0  0  0  0  0  0  0  0  0  0  0  0
    5.6185   -8.8696    0.1006 H   0  0  0  0  0  0  0  0  0  0  0  0
    4.3348   -9.7725   -1.8408 H   0  0  0  0  0  0  0  0  0  0  0  0
    2.2548   -8.6128   -2.5899 H   0  0  0  0  0  0  0  0  0  0  0  0
    1.4716   -6.5737   -1.4139 H   0  0  0  0  0  0  0  0  0  0  0  0
    0.6555    0.7157    2.3158 H   0  0  0  0  0  0  0  0  0  0  0  0
    0.9905    1.5713    4.6558 H   0  0  0  0  0  0  0  0  0  0  0  0
    3.3038    1.7813    5.5714 H   0  0  0  0  0  0  0  0  0  0  0  0
    5.2743    1.1285    4.1546 H   0  0  0  0  0  0  0  0  0  0  0  0
  1  2  2  0
  2  3  2  0
  2  4  1  1
  2 14  1  0
  4  5  1  0
  4 21  1  0
  5  6  1  0
  5 22  1  0
  5 23  1  0
  6  7  1  0
  6 24  1  0
  6 25  1  0
  7  8  1  0
  7 26  1  0
  7 27  1  0
  8  9  2  0
  8 13  1  0
  9 10  1  0
  9 28  1  0
 10 11  2  0
 10 29  1  0
 11 12  1  0
 11 30  1  0
 12 13  2  0
 12 31  1  0
 13 32  1  0
 14 15  2  0
 14 19  1  0
 15 16  1  0
 15 33  1  0
 16 17  2  0
 16 34  1  0
 17 18  1  0
 17 35  1  0
 18 19  2  0
 18 36  1  0
 19 20  1  0
M  END

