
     RDKit          3D

 23 24  0  0  0  0  0  0  0  0999 V2000
    0.9481    0.1676   -2.0460 C   0  0  0  0  0  0  0  0  0  0  0  0
    2.4353    0.0404   -2.1023 C   0  0  0  0  0  0  0  0  0  0  0  0
    3.2727   -0.1664   -1.0552 C   0  0  0  0  0  0  0  0  0  0  0  0
    2.6988   -0.3071    0.2610 C   0  0  0  0  0  0  0  0  0  0  0  0
    2.2384   -0.4242    1.3209 N   0  0  0  0  0  0  0  0  0  0  0  0
    4.7549   -0.2734   -1.1517 C   0  0  0  0  0  0  0  0  0  0  0  0
    5.4956   -0.7851   -0.0727 C   0  0  0  0  0  0  0  0  0  0  0  0
    6.8955   -0.9244   -0.1197 C   0  0  0  0  0  0  0  0  0  0  0  0
    7.5285   -0.5295   -1.2828 C   0  0  0  0  0  0  0  0  0  0  0  0
    6.8057   -0.0098   -2.3624 C   0  0  0  0  0  0  0  0  0  0  0  0
    5.4352    0.1349   -2.3299 C   0  0  0  0  0  0  0  0  0  0  0  0
    7.6692    0.3069   -3.3725 O   0  0  0  0  0  0  0  0  0  0  0  0
    8.9812    0.0210   -2.8939 C   0  0  0  0  0  0  0  0  0  0  0  0
    8.8560   -0.5521   -1.5940 O   0  0  0  0  0  0  0  0  0  0  0  0
    0.4699   -0.6014   -2.6779 H   0  0  0  0  0  0  0  0  0  0  0  0
    0.6281    1.1426   -2.4547 H   0  0  0  0  0  0  0  0  0  0  0  0
    0.5536    0.0734   -1.0248 H   0  0  0  0  0  0  0  0  0  0  0  0
    2.8830    0.1161   -3.0980 H   0  0  0  0  0  0  0  0  0  0  0  0
    4.9722   -1.0898    0.8352 H   0  0  0  0  0  0  0  0  0  0  0  0
    7.4570   -1.3252    0.7252 H   0  0  0  0  0  0  0  0  0  0  0  0
    4.9145    0.5667   -3.1841 H   0  0  0  0  0  0  0  0  0  0  0  0
    9.5687    0.9562   -2.8331 H   0  0  0  0  0  0  0  0  0  0  0  0
    9.4769   -0.6970   -3.5707 H   0  0  0  0  0  0  0  0  0  0  0  0
  1  2  1  0
  1 15  1  0
  1 16  1  0
  1 17  1  0
  2  3  2  0
  2 18  1  0
  3  4  1  0
  3  6  1  0
  4  5  3  0
  6  7  2  0
  6 11  1  0
  7  8  1  0
  7 19  1  0
  8  9  2  0
  8 20  1  0
  9 10  1  0
  9 14  1  0
 10 11  2  0
 10 12  1  0
 11 21  1  0
 12 13  1  0
 13 14  1  0
 13 22  1  0
 13 23  1  0
M  END

