
     RDKit          3D

 41 43  0  0  0  0  0  0  0  0999 V2000
    1.1472    0.3974   -0.2821 O   0  0  0  0  0  0  0  0  0  0  0  0
    2.3337    0.1653   -0.0934 C   0  0  0  0  0  0  0  0  0  0  0  0
    2.9273   -1.1692   -0.5748 C   0  0  0  0  0  0  0  0  0  0  0  0
    3.4487   -1.9931    0.5088 N   0  0  0  0  0  0  0  0  0  0  0  0
    2.4655   -2.3835    1.5259 C   0  0  0  0  0  0  0  0  0  0  0  0
    1.6248   -3.5905    1.0986 C   0  0  0  0  0  0  0  0  0  0  0  0
    2.4523   -4.6817    0.7316 O   0  0  0  0  0  0  0  0  0  0  0  0
    3.3397   -4.3461   -0.3177 C   0  0  0  0  0  0  0  0  0  0  0  0
    4.2234   -3.1596    0.0807 C   0  0  0  0  0  0  0  0  0  0  0  0
    3.1636    1.0573    0.5399 N   0  0  0  0  0  0  0  0  0  0  0  0
    4.6068    0.9212    0.7118 C   0  0  0  0  0  0  0  0  0  0  0  0
    5.3456    2.0207   -0.0599 C   0  0  0  0  0  0  0  0  0  0  0  0
    4.8350    3.4128    0.3295 C   0  0  0  0  0  0  0  0  0  0  0  0
    3.2990    3.5076    0.2024 C   0  0  2  0  0  0  0  0  0  0  0  0
    2.7832    4.8292    0.7040 C   0  0  0  0  0  0  0  0  0  0  0  0
    2.9843    5.2861    1.9077 N   0  0  0  0  0  0  0  0  0  0  0  0
    2.3843    6.5033    2.0951 C   0  0  0  0  0  0  0  0  0  0  0  0
    1.7025    7.0040    1.0169 C   0  0  0  0  0  0  0  0  0  0  0  0
    1.8151    5.8927   -0.3036 S   0  0  0  0  0  0  0  0  0  0  0  0
    2.6286    2.3428    0.9710 C   0  0  0  0  0  0  0  0  0  0  0  0
    3.7532   -0.9715   -1.2800 H   0  0  0  0  0  0  0  0  0  0  0  0
    2.1093   -1.6308   -1.1599 H   0  0  0  0  0  0  0  0  0  0  0  0
    1.8122   -1.5297    1.7630 H   0  0  0  0  0  0  0  0  0  0  0  0
    3.0153   -2.6479    2.4469 H   0  0  0  0  0  0  0  0  0  0  0  0
    0.9557   -3.3166    0.2567 H   0  0  0  0  0  0  0  0  0  0  0  0
    0.9902   -3.9357    1.9298 H   0  0  0  0  0  0  0  0  0  0  0  0
    2.7710   -4.1124   -1.2428 H   0  0  0  0  0  0  0  0  0  0  0  0
    3.9525   -5.2391   -0.5195 H   0  0  0  0  0  0  0  0  0  0  0  0
    4.8902   -2.8752   -0.7505 H   0  0  0  0  0  0  0  0  0  0  0  0
    4.8620   -3.4757    0.9256 H   0  0  0  0  0  0  0  0  0  0  0  0
    4.9235   -0.0834    0.4158 H   0  0  0  0  0  0  0  0  0  0  0  0
    4.8384    1.0120    1.7903 H   0  0  0  0  0  0  0  0  0  0  0  0
    5.2022    1.8566   -1.1430 H   0  0  0  0  0  0  0  0  0  0  0  0
    6.4283    1.9442    0.1355 H   0  0  0  0  0  0  0  0  0  0  0  0
    5.3106    4.1905   -0.2899 H   0  0  0  0  0  0  0  0  0  0  0  0
    5.1048    3.6345    1.3760 H   0  0  0  0  0  0  0  0  0  0  0  0
    3.0228    3.4040   -0.8607 H   0  0  0  0  0  0  0  0  0  0  0  0
    2.4716    7.0062    3.0603 H   0  0  0  0  0  0  0  0  0  0  0  0
    1.1565    7.9419    0.9335 H   0  0  0  0  0  0  0  0  0  0  0  0
    1.5458    2.3322    0.8010 H   0  0  0  0  0  0  0  0  0  0  0  0
    2.8170    2.4811    2.0505 H   0  0  0  0  0  0  0  0  0  0  0  0
  1  2  2  0
  2  3  1  0
  2 10  1  0
  3  4  1  0
  3 21  1  0
  3 22  1  0
  4  5  1  0
  4  9  1  0
  5  6  1  0
  5 23  1  0
  5 24  1  0
  6  7  1  0
  6 25  1  0
  6 26  1  0
  7  8  1  0
  8  9  1  0
  8 27  1  0
  8 28  1  0
  9 29  1  0
  9 30  1  0
 10 11  1  0
 10 20  1  0
 11 12  1  0
 11 31  1  0
 11 32  1  0
 12 13  1  0
 12 33  1  0
 12 34  1  0
 13 14  1  0
 13 35  1  0
 13 36  1  0
 14 15  1  0
 14 20  1  0
 14 37  1  6
 15 16  2  0
 15 19  1  0
 16 17  1  0
 17 18  2  0
 17 38  1  0
 18 19  1  0
 18 39  1  0
 20 40  1  0
 20 41  1  0
M  END

