
     RDKit          3D

 97100  0  0  0  0  0  0  0  0999 V2000
    2.8646   -3.3744   -0.0111 C   0  0  0  0  0  0  0  0  0  0  0  0
    3.8550   -2.2480   -0.3357 C   0  0  1  0  0  0  0  0  0  0  0  0
    3.9564   -2.0415   -1.8532 C   0  0  0  0  0  0  0  0  0  0  0  0
    3.4765   -0.9593    0.4222 C   0  0  0  0  0  0  0  0  0  0  0  0
    4.5092    0.1725    0.3425 C   0  0  0  0  0  0  0  0  0  0  0  0
    4.1294    1.4677    1.0945 C   0  0  1  0  0  0  0  0  0  0  0  0
    4.0919    1.2107    2.6137 C   0  0  0  0  0  0  0  0  0  0  0  0
    3.7891    2.4225    3.5180 C   0  0  2  0  0  0  0  0  0  0  0  0
    2.2844    2.7807    3.7264 C   0  0  1  0  0  0  0  0  0  0  0  0
    1.4833    3.2607    2.5060 C   0  0  0  0  0  0  0  0  0  0  0  0
    1.5356    1.6251    4.4122 C   0  0  0  0  0  0  0  0  0  0  0  0
    4.7619    3.5696    3.1389 C   0  0  2  0  0  0  0  0  0  0  0  0
    4.6144    4.8350    4.0061 C   0  0  0  0  0  0  0  0  0  0  0  0
    5.6370    5.9591    3.6808 C   0  0  2  0  0  0  0  0  0  0  0  0
    7.0604    5.4373    4.0011 C   0  0  0  0  0  0  0  0  0  0  0  0
    5.2860    7.2262    4.5013 C   0  0  0  0  0  0  0  0  0  0  0  0
    5.9368    8.5531    4.0344 C   0  0  2  0  0  0  0  0  0  0  0  0
    7.4736    8.4769    4.2632 C   0  0  0  0  0  0  0  0  0  0  0  0
    5.4158    9.7068    4.9290 C   0  0  0  0  0  0  0  0  0  0  0  0
    5.9691   11.0964    4.5563 C   0  0  2  0  0  0  0  0  0  0  0  0
    5.4966   12.1513    5.5668 C   0  0  0  0  0  0  0  0  0  0  0  0
    5.7737   11.4378    3.0453 C   0  0  2  0  0  0  0  0  0  0  0  0
    4.3957   12.1068    2.7371 C   0  0  1  0  0  0  0  0  0  0  0  0
    4.4387   13.6314    2.8637 C   0  0  0  0  0  0  0  0  0  0  0  0
    3.9746   11.7948    1.4007 O   0  0  0  0  0  0  0  0  0  0  0  0
    6.2166   10.2140    2.1538 C   0  0  2  0  0  0  0  0  0  0  0  0
    6.1940   10.5749    0.7906 O   0  0  0  0  0  0  0  0  0  0  0  0
    5.5420    8.8350    2.5189 C   0  0  2  0  0  0  0  0  0  0  0  0
    4.0097    8.9467    2.3307 C   0  0  0  0  0  0  0  0  0  0  0  0
    6.0597    7.6215    1.6374 C   0  0  2  0  0  0  0  0  0  0  0  0
    5.7614    7.7336    0.1291 C   0  0  0  0  0  0  0  0  0  0  0  0
    5.4488    6.2924    2.1586 C   0  0  1  0  0  0  0  0  0  0  0  0
    5.8338    5.0146    1.4219 C   0  0  0  0  0  0  0  0  0  0  0  0
    6.8880    4.8640    0.8403 O   0  0  0  0  0  0  0  0  0  0  0  0
    4.8037    3.8875    1.6115 C   0  0  1  0  0  0  0  0  0  0  0  0
    5.0709    2.6487    0.7297 C   0  0  2  0  0  0  0  0  0  0  0  0
    4.9614    3.0299   -0.7561 C   0  0  0  0  0  0  0  0  0  0  0  0
    3.1449   -4.3149   -0.5127 H   0  0  0  0  0  0  0  0  0  0  0  0
    1.8455   -3.1117   -0.3446 H   0  0  0  0  0  0  0  0  0  0  0  0
    2.8179   -3.5726    1.0723 H   0  0  0  0  0  0  0  0  0  0  0  0
    4.8518   -2.5639    0.0283 H   0  0  0  0  0  0  0  0  0  0  0  0
    2.9920   -1.7001   -2.2686 H   0  0  0  0  0  0  0  0  0  0  0  0
    4.2222   -2.9817   -2.3633 H   0  0  0  0  0  0  0  0  0  0  0  0
    4.7193   -1.2956   -2.1245 H   0  0  0  0  0  0  0  0  0  0  0  0
    3.2989   -1.2287    1.4770 H   0  0  0  0  0  0  0  0  0  0  0  0
    2.5046   -0.5938    0.0375 H   0  0  0  0  0  0  0  0  0  0  0  0
    4.6809    0.4113   -0.7166 H   0  0  0  0  0  0  0  0  0  0  0  0
    5.4801   -0.1901    0.7310 H   0  0  0  0  0  0  0  0  0  0  0  0
    3.1154    1.7531    0.7599 H   0  0  0  0  0  0  0  0  0  0  0  0
    5.0864    0.8229    2.9034 H   0  0  0  0  0  0  0  0  0  0  0  0
    3.3854    0.3978    2.8362 H   0  0  0  0  0  0  0  0  0  0  0  0
    4.1090    2.1179    4.5318 H   0  0  0  0  0  0  0  0  0  0  0  0
    2.2817    3.6141    4.4506 H   0  0  0  0  0  0  0  0  0  0  0  0
    1.3904    2.4774    1.7377 H   0  0  0  0  0  0  0  0  0  0  0  0
    1.9238    4.1479    2.0285 H   0  0  0  0  0  0  0  0  0  0  0  0
    0.4602    3.5337    2.8135 H   0  0  0  0  0  0  0  0  0  0  0  0
    1.4010    0.7632    3.7382 H   0  0  0  0  0  0  0  0  0  0  0  0
    0.5303    1.9469    4.7290 H   0  0  0  0  0  0  0  0  0  0  0  0
    2.0695    1.2679    5.3079 H   0  0  0  0  0  0  0  0  0  0  0  0
    5.7561    3.1434    3.3582 H   0  0  0  0  0  0  0  0  0  0  0  0
    4.7052    4.5517    5.0703 H   0  0  0  0  0  0  0  0  0  0  0  0
    3.6014    5.2535    3.8839 H   0  0  0  0  0  0  0  0  0  0  0  0
    7.2624    5.5122    5.0808 H   0  0  0  0  0  0  0  0  0  0  0  0
    7.8487    5.9790    3.4690 H   0  0  0  0  0  0  0  0  0  0  0  0
    7.1831    4.3835    3.7192 H   0  0  0  0  0  0  0  0  0  0  0  0
    5.5472    7.0511    5.5604 H   0  0  0  0  0  0  0  0  0  0  0  0
    4.1912    7.3530    4.4837 H   0  0  0  0  0  0  0  0  0  0  0  0
    7.6779    8.0138    5.2408 H   0  0  0  0  0  0  0  0  0  0  0  0
    7.9538    9.4620    4.2786 H   0  0  0  0  0  0  0  0  0  0  0  0
    8.0031    7.8917    3.5065 H   0  0  0  0  0  0  0  0  0  0  0  0
    5.6972    9.4923    5.9754 H   0  0  0  0  0  0  0  0  0  0  0  0
    4.3133    9.7264    4.9224 H   0  0  0  0  0  0  0  0  0  0  0  0
    7.0607   11.0497    4.6883 H   0  0  0  0  0  0  0  0  0  0  0  0
    4.4041   12.2962    5.5572 H   0  0  0  0  0  0  0  0  0  0  0  0
    5.9737   13.1293    5.3977 H   0  0  0  0  0  0  0  0  0  0  0  0
    5.7661   11.8317    6.5864 H   0  0  0  0  0  0  0  0  0  0  0  0
    6.5237   12.2057    2.7885 H   0  0  0  0  0  0  0  0  0  0  0  0
    3.6365   11.7101    3.4371 H   0  0  0  0  0  0  0  0  0  0  0  0
    5.1488   14.0449    2.1299 H   0  0  0  0  0  0  0  0  0  0  0  0
    4.7381   13.9680    3.8635 H   0  0  0  0  0  0  0  0  0  0  0  0
    3.4425   14.0611    2.6576 H   0  0  0  0  0  0  0  0  0  0  0  0
    3.1760   12.2975    1.1960 H   0  0  0  0  0  0  0  0  0  0  0  0
    7.2863   10.0826    2.3759 H   0  0  0  0  0  0  0  0  0  0  0  0
    5.3330   10.9907    0.6190 H   0  0  0  0  0  0  0  0  0  0  0  0
    3.5437    9.6478    3.0314 H   0  0  0  0  0  0  0  0  0  0  0  0
    3.4886    7.9901    2.4596 H   0  0  0  0  0  0  0  0  0  0  0  0
    3.7803    9.3113    1.3228 H   0  0  0  0  0  0  0  0  0  0  0  0
    7.1551    7.5695    1.7340 H   0  0  0  0  0  0  0  0  0  0  0  0
    4.6784    7.6849   -0.0756 H   0  0  0  0  0  0  0  0  0  0  0  0
    6.2397    6.9017   -0.4052 H   0  0  0  0  0  0  0  0  0  0  0  0
    6.1397    8.6763   -0.2774 H   0  0  0  0  0  0  0  0  0  0  0  0
    4.3607    6.3795    2.0198 H   0  0  0  0  0  0  0  0  0  0  0  0
    3.8288    4.3169    1.3225 H   0  0  0  0  0  0  0  0  0  0  0  0
    6.1123    2.3323    0.9259 H   0  0  0  0  0  0  0  0  0  0  0  0
    3.9269    3.3215   -1.0091 H   0  0  0  0  0  0  0  0  0  0  0  0
    5.2421    2.1999   -1.4201 H   0  0  0  0  0  0  0  0  0  0  0  0
    5.6260    3.8693   -0.9973 H   0  0  0  0  0  0  0  0  0  0  0  0
  1  2  1  0
  1 38  1  0
  1 39  1  0
  1 40  1  0
  2  3  1  0
  2  4  1  0
  2 41  1  1
  3 42  1  0
  3 43  1  0
  3 44  1  0
  4  5  1  0
  4 45  1  0
  4 46  1  0
  5  6  1  0
  5 47  1  0
  5 48  1  0
  6  7  1  0
  6 36  1  0
  6 49  1  6
  7  8  1  0
  7 50  1  0
  7 51  1  0
  8  9  1  0
  8 12  1  0
  8 52  1  1
  9 10  1  0
  9 11  1  0
  9 53  1  1
 10 54  1  0
 10 55  1  0
 10 56  1  0
 11 57  1  0
 11 58  1  0
 11 59  1  0
 12 13  1  0
 12 35  1  0
 12 60  1  1
 13 14  1  0
 13 61  1  0
 13 62  1  0
 14 15  1  6
 14 16  1  0
 14 32  1  0
 15 63  1  0
 15 64  1  0
 15 65  1  0
 16 17  1  0
 16 66  1  0
 16 67  1  0
 17 18  1  6
 17 19  1  0
 17 28  1  0
 18 68  1  0
 18 69  1  0
 18 70  1  0
 19 20  1  0
 19 71  1  0
 19 72  1  0
 20 21  1  0
 20 22  1  0
 20 73  1  6
 21 74  1  0
 21 75  1  0
 21 76  1  0
 22 23  1  0
 22 26  1  0
 22 77  1  6
 23 24  1  0
 23 25  1  0
 23 78  1  1
 24 79  1  0
 24 80  1  0
 24 81  1  0
 25 82  1  0
 26 27  1  0
 26 28  1  0
 26 83  1  1
 27 84  1  0
 28 29  1  1
 28 30  1  0
 29 85  1  0
 29 86  1  0
 29 87  1  0
 30 31  1  0
 30 32  1  0
 30 88  1  6
 31 89  1  0
 31 90  1  0
 31 91  1  0
 32 33  1  0
 32 92  1  1
 33 34  2  0
 33 35  1  0
 35 36  1  0
 35 93  1  6
 36 37  1  0
 36 94  1  6
 37 95  1  0
 37 96  1  0
 37 97  1  0
M  END

