
     RDKit          3D

 29 30  0  0  0  0  0  0  0  0999 V2000
    0.8667   -0.1411    0.3670 C   0  0  0  0  0  0  0  0  0  0  0  0
    2.2610   -0.0676   -0.2735 C   0  0  1  0  0  0  0  0  0  0  0  0
    2.1651   -0.1479   -1.8015 C   0  0  0  0  0  0  0  0  0  0  0  0
    3.0358    1.1543    0.2670 C   0  0  1  0  0  0  0  0  0  0  0  0
    3.3637    1.0832    1.6641 N   0  0  0  0  0  0  0  0  0  0  0  0
    4.3289    0.2757    2.2269 C   0  0  0  0  0  0  0  0  0  0  0  0
    5.3097   -0.4033    1.4626 C   0  0  0  0  0  0  0  0  0  0  0  0
    6.2621   -1.1684    2.1283 C   0  0  0  0  0  0  0  0  0  0  0  0
    6.2103   -1.2363    3.5189 C   0  0  0  0  0  0  0  0  0  0  0  0
    7.1099   -1.9654    4.2015 F   0  0  0  0  0  0  0  0  0  0  0  0
    5.2113   -0.5433    4.1972 C   0  0  0  0  0  0  0  0  0  0  0  0
    4.2956    0.1897    3.5671 N   0  0  0  0  0  0  0  0  0  0  0  0
    4.0122    1.9409   -0.5886 C   0  0  0  0  0  0  0  0  0  0  0  0
    2.6872    2.5451   -0.2096 C   0  0  0  0  0  0  0  0  0  0  0  0
    0.3483   -1.0702    0.0810 H   0  0  0  0  0  0  0  0  0  0  0  0
    0.2382    0.7068    0.0459 H   0  0  0  0  0  0  0  0  0  0  0  0
    0.9253   -0.1213    1.4662 H   0  0  0  0  0  0  0  0  0  0  0  0
    2.8272   -0.9557    0.0620 H   0  0  0  0  0  0  0  0  0  0  0  0
    1.6450    0.7247   -2.2311 H   0  0  0  0  0  0  0  0  0  0  0  0
    1.5919   -1.0409   -2.0970 H   0  0  0  0  0  0  0  0  0  0  0  0
    3.1541   -0.2236   -2.2782 H   0  0  0  0  0  0  0  0  0  0  0  0
    2.6806    1.4148    2.3370 H   0  0  0  0  0  0  0  0  0  0  0  0
    5.3242   -0.3265    0.3759 H   0  0  0  0  0  0  0  0  0  0  0  0
    7.0396   -1.7107    1.5853 H   0  0  0  0  0  0  0  0  0  0  0  0
    5.1626   -0.5956    5.2913 H   0  0  0  0  0  0  0  0  0  0  0  0
    4.1644    1.6441   -1.6283 H   0  0  0  0  0  0  0  0  0  0  0  0
    4.9065    2.3199   -0.0884 H   0  0  0  0  0  0  0  0  0  0  0  0
    1.9249    2.6434   -0.9871 H   0  0  0  0  0  0  0  0  0  0  0  0
    2.6783    3.3442    0.5365 H   0  0  0  0  0  0  0  0  0  0  0  0
  1  2  1  0
  1 15  1  0
  1 16  1  0
  1 17  1  0
  2  3  1  0
  2  4  1  0
  2 18  1  1
  3 19  1  0
  3 20  1  0
  3 21  1  0
  4  5  1  1
  4 13  1  0
  4 14  1  0
  5  6  1  0
  5 22  1  0
  6  7  2  0
  6 12  1  0
  7  8  1  0
  7 23  1  0
  8  9  2  0
  8 24  1  0
  9 10  1  0
  9 11  1  0
 11 12  2  0
 11 25  1  0
 13 14  1  0
 13 26  1  0
 13 27  1  0
 14 28  1  0
 14 29  1  0
M  END

