
     RDKit          3D

 45 46  0  0  0  0  0  0  0  0999 V2000
    1.9385    0.4922    2.2057 C   0  0  0  0  0  0  0  0  0  0  0  0
    2.7130    0.0086    3.4304 C   0  0  0  0  0  0  0  0  0  0  0  0
    3.7141   -1.1304    3.1421 C   0  0  2  0  0  0  0  0  0  0  0  0
    3.1298   -1.9285    2.6521 H   0  0  0  0  0  0  0  0  0  0  0  0
    4.3082   -1.5602    4.4149 N   0  0  0  0  0  0  0  0  0  0  0  0
    4.8208   -0.6930    2.1851 C   0  0  0  0  0  0  0  0  0  0  0  0
    5.7275    0.2818    2.6306 C   0  0  0  0  0  0  0  0  0  0  0  0
    6.6770    0.8539    1.7836 C   0  0  0  0  0  0  0  0  0  0  0  0
    6.7291    0.4433    0.4492 C   0  0  0  0  0  0  0  0  0  0  0  0
    5.8745   -0.5608   -0.0033 C   0  0  0  0  0  0  0  0  0  0  0  0
    4.9234   -1.1654    0.8487 C   0  0  0  0  0  0  0  0  0  0  0  0
    4.0843   -2.1937    0.3647 N   0  0  0  0  0  0  0  0  0  0  0  0
    3.5625   -2.1723   -0.9944 C   0  0  0  0  0  0  0  0  0  0  0  0
    4.2426   -3.1892   -1.9212 C   0  0  0  0  0  0  0  0  0  0  0  0
    4.2296   -4.5838   -1.2870 C   0  0  0  0  0  0  0  0  0  0  0  0
    4.7891   -4.6036    0.1470 C   0  0  2  0  0  0  0  0  0  0  0  0
    6.3093   -4.4043    0.1621 C   0  0  0  0  0  0  0  0  0  0  0  0
    4.4202   -5.8978    0.6384 O   0  0  0  0  0  0  0  0  0  0  0  0
    4.9091   -6.3200    1.8864 C   0  0  0  0  0  0  0  0  0  0  0  0
    4.0576   -3.5115    0.9812 C   0  0  0  0  0  0  0  0  0  0  0  0
    1.2152    1.2765    2.4800 H   0  0  0  0  0  0  0  0  0  0  0  0
    1.3753   -0.3297    1.7329 H   0  0  0  0  0  0  0  0  0  0  0  0
    2.6137    0.9120    1.4434 H   0  0  0  0  0  0  0  0  0  0  0  0
    2.0008   -0.3603    4.1920 H   0  0  0  0  0  0  0  0  0  0  0  0
    3.2538    0.8463    3.9012 H   0  0  0  0  0  0  0  0  0  0  0  0
    5.0019   -2.2923    4.2614 H   0  0  0  0  0  0  0  0  0  0  0  0
    3.5911   -1.9508    5.0272 H   0  0  0  0  0  0  0  0  0  0  0  0
    5.6611    0.6006    3.6736 H   0  0  0  0  0  0  0  0  0  0  0  0
    7.3609    1.6195    2.1580 H   0  0  0  0  0  0  0  0  0  0  0  0
    7.4552    0.8849   -0.2388 H   0  0  0  0  0  0  0  0  0  0  0  0
    5.9583   -0.9040   -1.0361 H   0  0  0  0  0  0  0  0  0  0  0  0
    3.6404   -1.1510   -1.3926 H   0  0  0  0  0  0  0  0  0  0  0  0
    2.4796   -2.4129   -0.9534 H   0  0  0  0  0  0  0  0  0  0  0  0
    5.2778   -2.8722   -2.1335 H   0  0  0  0  0  0  0  0  0  0  0  0
    3.7187   -3.2140   -2.8919 H   0  0  0  0  0  0  0  0  0  0  0  0
    4.7844   -5.3119   -1.9009 H   0  0  0  0  0  0  0  0  0  0  0  0
    3.1916   -4.9537   -1.2252 H   0  0  0  0  0  0  0  0  0  0  0  0
    6.8049   -5.2187   -0.3899 H   0  0  0  0  0  0  0  0  0  0  0  0
    6.7110   -4.3847    1.1867 H   0  0  0  0  0  0  0  0  0  0  0  0
    6.5883   -3.4495   -0.3044 H   0  0  0  0  0  0  0  0  0  0  0  0
    4.4204   -7.2805    2.1094 H   0  0  0  0  0  0  0  0  0  0  0  0
    4.6689   -5.6213    2.7111 H   0  0  0  0  0  0  0  0  0  0  0  0
    6.0027   -6.4872    1.8890 H   0  0  0  0  0  0  0  0  0  0  0  0
    4.5035   -3.4498    1.9824 H   0  0  0  0  0  0  0  0  0  0  0  0
    3.0125   -3.8576    1.1046 H   0  0  0  0  0  0  0  0  0  0  0  0
  1  2  1  0
  1 21  1  0
  1 22  1  0
  1 23  1  0
  2  3  1  0
  2 24  1  0
  2 25  1  0
  3  4  1  6
  3  5  1  0
  3  6  1  0
  5 26  1  0
  5 27  1  0
  6  7  2  0
  6 11  1  0
  7  8  1  0
  7 28  1  0
  8  9  2  0
  8 29  1  0
  9 10  1  0
  9 30  1  0
 10 11  2  0
 10 31  1  0
 11 12  1  0
 12 13  1  0
 12 20  1  0
 13 14  1  0
 13 32  1  0
 13 33  1  0
 14 15  1  0
 14 34  1  0
 14 35  1  0
 15 16  1  0
 15 36  1  0
 15 37  1  0
 16 17  1  0
 16 18  1  1
 16 20  1  0
 17 38  1  0
 17 39  1  0
 17 40  1  0
 18 19  1  0
 19 41  1  0
 19 42  1  0
 19 43  1  0
 20 44  1  0
 20 45  1  0
M  END

