
     RDKit          3D

 46 47  0  0  0  0  0  0  0  0999 V2000
    6.6979    1.6322    4.7244 C   0  0  0  0  0  0  0  0  0  0  0  0
    6.0767    1.2228    3.3881 C   0  0  0  0  0  0  0  0  0  0  0  0
    6.6678    1.9723    2.1910 C   0  0  0  0  0  0  0  0  0  0  0  0
    6.0516    1.5647    0.8611 C   0  0  0  0  0  0  0  0  0  0  0  0
    6.6480    2.3081   -0.1767 O   0  0  0  0  0  0  0  0  0  0  0  0
    6.1535    2.0242   -1.4667 C   0  0  0  0  0  0  0  0  0  0  0  0
    6.8074    2.9907   -2.4555 C   0  0  1  0  0  0  0  0  0  0  0  0
    6.4689    4.3225   -2.1397 O   0  0  0  0  0  0  0  0  0  0  0  0
    8.3279    2.7461   -2.5304 C   0  0  0  0  0  0  0  0  0  0  0  0
    9.0668    3.8424   -3.1394 N   0  0  0  0  0  0  0  0  0  0  0  0
    8.6924    4.2318   -4.4943 C   0  0  0  0  0  0  0  0  0  0  0  0
    9.2813    3.3084   -5.5743 C   0  0  0  0  0  0  0  0  0  0  0  0
   10.8076    3.2339   -5.4365 C   0  0  0  0  0  0  0  0  0  0  0  0
   11.2257    2.8752   -4.0059 C   0  0  2  0  0  0  0  0  0  0  0  0
   10.5093    3.7821   -2.9851 C   0  0  0  0  0  0  0  0  0  0  0  0
   12.6403    3.0104   -3.8826 O   0  0  0  0  0  0  0  0  0  0  0  0
   13.1754    1.8031   -3.3713 C   0  0  0  0  0  0  0  0  0  0  0  0
   12.1333    0.7712   -3.7959 C   0  0  0  0  0  0  0  0  0  0  0  0
   10.9291    1.5096   -3.7072 O   0  0  0  0  0  0  0  0  0  0  0  0
    6.2520    1.0764    5.5645 H   0  0  0  0  0  0  0  0  0  0  0  0
    6.5519    2.7074    4.9210 H   0  0  0  0  0  0  0  0  0  0  0  0
    7.7839    1.4402    4.7366 H   0  0  0  0  0  0  0  0  0  0  0  0
    4.9850    1.3919    3.4235 H   0  0  0  0  0  0  0  0  0  0  0  0
    6.2073    0.1351    3.2403 H   0  0  0  0  0  0  0  0  0  0  0  0
    7.7578    1.8028    2.1387 H   0  0  0  0  0  0  0  0  0  0  0  0
    6.5302    3.0604    2.3199 H   0  0  0  0  0  0  0  0  0  0  0  0
    4.9543    1.7382    0.8759 H   0  0  0  0  0  0  0  0  0  0  0  0
    6.1968    0.4768    0.6873 H   0  0  0  0  0  0  0  0  0  0  0  0
    5.0556    2.1699   -1.4985 H   0  0  0  0  0  0  0  0  0  0  0  0
    6.3639    0.9707   -1.7489 H   0  0  0  0  0  0  0  0  0  0  0  0
    6.3529    2.7957   -3.4423 H   0  0  0  0  0  0  0  0  0  0  0  0
    6.9022    4.5293   -1.2996 H   0  0  0  0  0  0  0  0  0  0  0  0
    8.4880    1.7613   -3.0195 H   0  0  0  0  0  0  0  0  0  0  0  0
    8.7051    2.6353   -1.5006 H   0  0  0  0  0  0  0  0  0  0  0  0
    9.0653    5.2602   -4.6636 H   0  0  0  0  0  0  0  0  0  0  0  0
    7.5975    4.2928   -4.5664 H   0  0  0  0  0  0  0  0  0  0  0  0
    9.0058    3.6713   -6.5792 H   0  0  0  0  0  0  0  0  0  0  0  0
    8.8552    2.2956   -5.4739 H   0  0  0  0  0  0  0  0  0  0  0  0
   11.2593    4.2123   -5.6737 H   0  0  0  0  0  0  0  0  0  0  0  0
   11.2481    2.5008   -6.1320 H   0  0  0  0  0  0  0  0  0  0  0  0
   10.9323    4.7950   -3.1153 H   0  0  0  0  0  0  0  0  0  0  0  0
   10.7660    3.4396   -1.9705 H   0  0  0  0  0  0  0  0  0  0  0  0
   13.2751    1.8417   -2.2692 H   0  0  0  0  0  0  0  0  0  0  0  0
   14.1714    1.6347   -3.8098 H   0  0  0  0  0  0  0  0  0  0  0  0
   12.0673   -0.1014   -3.1287 H   0  0  0  0  0  0  0  0  0  0  0  0
   12.3178    0.4163   -4.8289 H   0  0  0  0  0  0  0  0  0  0  0  0
  1  2  1  0
  1 20  1  0
  1 21  1  0
  1 22  1  0
  2  3  1  0
  2 23  1  0
  2 24  1  0
  3  4  1  0
  3 25  1  0
  3 26  1  0
  4  5  1  0
  4 27  1  0
  4 28  1  0
  5  6  1  0
  6  7  1  0
  6 29  1  0
  6 30  1  0
  7  8  1  0
  7  9  1  0
  7 31  1  6
  8 32  1  0
  9 10  1  0
  9 33  1  0
  9 34  1  0
 10 11  1  0
 10 15  1  0
 11 12  1  0
 11 35  1  0
 11 36  1  0
 12 13  1  0
 12 37  1  0
 12 38  1  0
 13 14  1  0
 13 39  1  0
 13 40  1  0
 14 15  1  0
 14 16  1  6
 14 19  1  0
 15 41  1  0
 15 42  1  0
 16 17  1  0
 17 18  1  0
 17 43  1  0
 17 44  1  0
 18 19  1  0
 18 45  1  0
 18 46  1  0
M  END

