
     RDKit          3D

 40 42  0  0  0  0  0  0  0  0999 V2000
    1.2846    0.2886   -0.7108 C   0  0  0  0  0  0  0  0  0  0  0  0
    2.7759    0.1271   -0.5254 C   0  0  0  0  0  0  0  0  0  0  0  0
    3.6050    1.2781   -0.4927 C   0  0  0  0  0  0  0  0  0  0  0  0
    4.9865    1.2032   -0.3274 C   0  0  0  0  0  0  0  0  0  0  0  0
    5.5388   -0.0747   -0.1867 C   0  0  0  0  0  0  0  0  0  0  0  0
    4.7414   -1.2425   -0.2199 C   0  0  0  0  0  0  0  0  0  0  0  0
    3.3517   -1.1383   -0.3895 C   0  0  0  0  0  0  0  0  0  0  0  0
    5.5395   -2.3595   -0.0637 N   0  0  0  0  0  0  0  0  0  0  0  0
    6.7630   -1.9077    0.0595 C   0  0  0  0  0  0  0  0  0  0  0  0
    7.9515   -2.8041    0.2735 C   0  0  0  0  0  0  0  0  0  0  0  0
    7.8588   -4.0962   -0.5277 C   0  0  0  0  0  0  0  0  0  0  0  0
    8.1348   -3.8178   -2.2981 Cl  0  0  0  0  0  0  0  0  0  0  0  0
    6.8386   -0.5246    0.0042 N   0  0  0  0  0  0  0  0  0  0  0  0
    8.0109    0.3285    0.1107 C   0  0  0  0  0  0  0  0  0  0  0  0
    8.5052    0.8632   -1.2120 C   0  0  0  0  0  0  0  0  0  0  0  0
    8.6469    0.2074   -2.4065 C   0  0  0  0  0  0  0  0  0  0  0  0
    9.1969    1.0192   -3.4562 C   0  0  0  0  0  0  0  0  0  0  0  0
    9.4072    0.4939   -4.8514 C   0  0  0  0  0  0  0  0  0  0  0  0
    9.4748    2.3038   -3.0342 C   0  0  0  0  0  0  0  0  0  0  0  0
   10.0228    3.4661   -3.8092 C   0  0  0  0  0  0  0  0  0  0  0  0
    9.0495    2.5109   -1.3527 S   0  0  0  0  0  0  0  0  0  0  0  0
    0.8407    0.8940    0.0978 H   0  0  0  0  0  0  0  0  0  0  0  0
    0.7717   -0.6845   -0.7199 H   0  0  0  0  0  0  0  0  0  0  0  0
    1.0493    0.8002   -1.6595 H   0  0  0  0  0  0  0  0  0  0  0  0
    3.1409    2.2621   -0.6077 H   0  0  0  0  0  0  0  0  0  0  0  0
    5.6022    2.1050   -0.3250 H   0  0  0  0  0  0  0  0  0  0  0  0
    2.7404   -2.0436   -0.4137 H   0  0  0  0  0  0  0  0  0  0  0  0
    7.9986   -3.0843    1.3432 H   0  0  0  0  0  0  0  0  0  0  0  0
    8.8953   -2.2910    0.0394 H   0  0  0  0  0  0  0  0  0  0  0  0
    6.8572   -4.5326   -0.4317 H   0  0  0  0  0  0  0  0  0  0  0  0
    8.6202   -4.8185   -0.2063 H   0  0  0  0  0  0  0  0  0  0  0  0
    8.8025   -0.2464    0.6163 H   0  0  0  0  0  0  0  0  0  0  0  0
    7.7687    1.1644    0.7871 H   0  0  0  0  0  0  0  0  0  0  0  0
    8.3677   -0.8393   -2.5480 H   0  0  0  0  0  0  0  0  0  0  0  0
    9.8502   -0.5146   -4.8303 H   0  0  0  0  0  0  0  0  0  0  0  0
   10.0695    1.1397   -5.4456 H   0  0  0  0  0  0  0  0  0  0  0  0
    8.4506    0.4132   -5.3963 H   0  0  0  0  0  0  0  0  0  0  0  0
   10.5692    3.1187   -4.6984 H   0  0  0  0  0  0  0  0  0  0  0  0
   10.7204    4.0670   -3.2047 H   0  0  0  0  0  0  0  0  0  0  0  0
    9.2237    4.1439   -4.1577 H   0  0  0  0  0  0  0  0  0  0  0  0
  1  2  1  0
  1 22  1  0
  1 23  1  0
  1 24  1  0
  2  3  2  0
  2  7  1  0
  3  4  1  0
  3 25  1  0
  4  5  2  0
  4 26  1  0
  5  6  1  0
  5 13  1  0
  6  7  2  0
  6  8  1  0
  7 27  1  0
  8  9  2  0
  9 10  1  0
  9 13  1  0
 10 11  1  0
 10 28  1  0
 10 29  1  0
 11 12  1  0
 11 30  1  0
 11 31  1  0
 13 14  1  0
 14 15  1  0
 14 32  1  0
 14 33  1  0
 15 16  2  0
 15 21  1  0
 16 17  1  0
 16 34  1  0
 17 18  1  0
 17 19  2  0
 18 35  1  0
 18 36  1  0
 18 37  1  0
 19 20  1  0
 19 21  1  0
 20 38  1  0
 20 39  1  0
 20 40  1  0
M  END

