
     RDKit          3D

 36 37  0  0  0  0  0  0  0  0999 V2000
    1.8639    0.9249   -0.3152 C   0  0  0  0  0  0  0  0  0  0  0  0
    2.9586   -0.0608    0.1221 C   0  0  0  0  0  0  0  0  0  0  0  0
    3.1731   -1.1930   -0.8604 C   0  0  0  0  0  0  0  0  0  0  0  0
    4.0959   -1.0682   -1.9027 C   0  0  0  0  0  0  0  0  0  0  0  0
    4.2626   -2.1000   -2.8357 C   0  0  0  0  0  0  0  0  0  0  0  0
    5.1584   -2.0007   -3.8553 O   0  0  0  0  0  0  0  0  0  0  0  0
    3.5063   -3.2838   -2.7459 C   0  0  0  0  0  0  0  0  0  0  0  0
    3.7187   -4.3636   -3.7624 C   0  0  0  0  0  0  0  0  0  0  0  0
    2.9573   -4.3943   -4.9447 C   0  0  0  0  0  0  0  0  0  0  0  0
    3.1654   -5.4050   -5.8846 C   0  0  0  0  0  0  0  0  0  0  0  0
    4.1278   -6.3945   -5.6665 C   0  0  0  0  0  0  0  0  0  0  0  0
    4.8925   -6.3682   -4.4925 C   0  0  0  0  0  0  0  0  0  0  0  0
    5.8473   -7.2978   -4.2196 O   0  0  0  0  0  0  0  0  0  0  0  0
    4.6846   -5.3542   -3.5468 C   0  0  0  0  0  0  0  0  0  0  0  0
    2.5713   -3.4189   -1.6942 C   0  0  0  0  0  0  0  0  0  0  0  0
    1.7569   -4.6990   -1.5884 C   0  0  0  0  0  0  0  0  0  0  0  0
    0.7601   -4.7896   -0.4343 C   0  0  0  0  0  0  0  0  0  0  0  0
    2.4211   -2.3734   -0.7715 C   0  0  0  0  0  0  0  0  0  0  0  0
    1.7362    1.7308    0.4258 H   0  0  0  0  0  0  0  0  0  0  0  0
    0.8946    0.4146   -0.4325 H   0  0  0  0  0  0  0  0  0  0  0  0
    2.1111    1.3898   -1.2832 H   0  0  0  0  0  0  0  0  0  0  0  0
    2.6953   -0.4805    1.1076 H   0  0  0  0  0  0  0  0  0  0  0  0
    3.9057    0.4875    0.2625 H   0  0  0  0  0  0  0  0  0  0  0  0
    4.7020   -0.1598   -1.9948 H   0  0  0  0  0  0  0  0  0  0  0  0
    5.6085   -1.1479   -3.7999 H   0  0  0  0  0  0  0  0  0  0  0  0
    2.2088   -3.6195   -5.1242 H   0  0  0  0  0  0  0  0  0  0  0  0
    2.5737   -5.4260   -6.8036 H   0  0  0  0  0  0  0  0  0  0  0  0
    4.2886   -7.1854   -6.4064 H   0  0  0  0  0  0  0  0  0  0  0  0
    5.8953   -7.9302   -4.9483 H   0  0  0  0  0  0  0  0  0  0  0  0
    5.2967   -5.3497   -2.6426 H   0  0  0  0  0  0  0  0  0  0  0  0
    2.4568   -5.5506   -1.5321 H   0  0  0  0  0  0  0  0  0  0  0  0
    1.2232   -4.8486   -2.5429 H   0  0  0  0  0  0  0  0  0  0  0  0
    1.2565   -4.7149    0.5466 H   0  0  0  0  0  0  0  0  0  0  0  0
    0.2324   -5.7557   -0.4635 H   0  0  0  0  0  0  0  0  0  0  0  0
   -0.0025   -3.9956   -0.4842 H   0  0  0  0  0  0  0  0  0  0  0  0
    1.7051   -2.4734    0.0460 H   0  0  0  0  0  0  0  0  0  0  0  0
  1  2  1  0
  1 19  1  0
  1 20  1  0
  1 21  1  0
  2  3  1  0
  2 22  1  0
  2 23  1  0
  3  4  2  0
  3 18  1  0
  4  5  1  0
  4 24  1  0
  5  6  1  0
  5  7  2  0
  6 25  1  0
  7  8  1  0
  7 15  1  0
  8  9  2  0
  8 14  1  0
  9 10  1  0
  9 26  1  0
 10 11  2  0
 10 27  1  0
 11 12  1  0
 11 28  1  0
 12 13  1  0
 12 14  2  0
 13 29  1  0
 14 30  1  0
 15 16  1  0
 15 18  2  0
 16 17  1  0
 16 31  1  0
 16 32  1  0
 17 33  1  0
 17 34  1  0
 17 35  1  0
 18 36  1  0
M  END

