
     RDKit          3D

 30 31  0  0  0  0  0  0  0  0999 V2000
    0.9554    0.1399   -0.2503 C   0  0  0  0  0  0  0  0  0  0  0  0
    2.3915   -0.0038   -0.1273 N   0  0  0  0  0  0  0  0  0  0  0  0
    2.8202   -0.5511    1.1542 C   0  0  0  0  0  0  0  0  0  0  0  0
    4.3154   -0.5838    1.2836 C   0  0  0  0  0  0  0  0  0  0  0  0
    5.1958    0.5003    1.5478 C   0  0  0  0  0  0  0  0  0  0  0  0
    6.4607   -0.0592    1.5198 C   0  0  0  0  0  0  0  0  0  0  0  0
    6.2936   -1.3828    1.2507 N   0  0  0  0  0  0  0  0  0  0  0  0
    7.3147   -2.4176    1.2049 C   0  0  0  0  0  0  0  0  0  0  0  0
    7.5163   -3.1330    2.5287 C   0  0  0  0  0  0  0  0  0  0  0  0
    6.4872   -3.8823    3.1190 C   0  0  0  0  0  0  0  0  0  0  0  0
    6.6876   -4.5322    4.3373 C   0  0  0  0  0  0  0  0  0  0  0  0
    7.9212   -4.4486    4.9896 C   0  0  0  0  0  0  0  0  0  0  0  0
    8.9551   -3.7056    4.4170 C   0  0  0  0  0  0  0  0  0  0  0  0
   10.5049   -3.5738    5.1983 Cl  0  0  0  0  0  0  0  0  0  0  0  0
    8.7423   -3.0527    3.1960 C   0  0  0  0  0  0  0  0  0  0  0  0
    9.7401   -2.3377    2.6569 F   0  0  0  0  0  0  0  0  0  0  0  0
    4.9998   -1.7148    1.1117 N   0  0  0  0  0  0  0  0  0  0  0  0
    0.7038    0.5999   -1.2189 H   0  0  0  0  0  0  0  0  0  0  0  0
    0.4789    0.7491    0.5528 H   0  0  0  0  0  0  0  0  0  0  0  0
    0.4747   -0.8534   -0.2249 H   0  0  0  0  0  0  0  0  0  0  0  0
    2.8542    0.8891   -0.2920 H   0  0  0  0  0  0  0  0  0  0  0  0
    2.4458   -1.5850    1.2378 H   0  0  0  0  0  0  0  0  0  0  0  0
    2.3966    0.0094    2.0211 H   0  0  0  0  0  0  0  0  0  0  0  0
    4.9415    1.5420    1.7318 H   0  0  0  0  0  0  0  0  0  0  0  0
    7.4486    0.3717    1.6714 H   0  0  0  0  0  0  0  0  0  0  0  0
    8.2541   -1.9569    0.8757 H   0  0  0  0  0  0  0  0  0  0  0  0
    6.9994   -3.1365    0.4347 H   0  0  0  0  0  0  0  0  0  0  0  0
    5.5221   -3.9325    2.6102 H   0  0  0  0  0  0  0  0  0  0  0  0
    5.8788   -5.1121    4.7874 H   0  0  0  0  0  0  0  0  0  0  0  0
    8.0957   -4.9534    5.9411 H   0  0  0  0  0  0  0  0  0  0  0  0
  1  2  1  0
  1 18  1  0
  1 19  1  0
  1 20  1  0
  2  3  1  0
  2 21  1  0
  3  4  1  0
  3 22  1  0
  3 23  1  0
  4  5  1  0
  4 17  2  0
  5  6  2  0
  5 24  1  0
  6  7  1  0
  6 25  1  0
  7  8  1  0
  7 17  1  0
  8  9  1  0
  8 26  1  0
  8 27  1  0
  9 10  2  0
  9 15  1  0
 10 11  1  0
 10 28  1  0
 11 12  2  0
 11 29  1  0
 12 13  1  0
 12 30  1  0
 13 14  1  0
 13 15  2  0
 15 16  1  0
M  END

