
     RDKit          3D

 36 37  0  0  0  0  0  0  0  0999 V2000
    4.4626   -0.3055    5.0132 C   0  0  0  0  0  0  0  0  0  0  0  0
    4.1905   -0.6800    3.6856 O   0  0  0  0  0  0  0  0  0  0  0  0
    3.6825    0.2545    2.8219 C   0  0  0  0  0  0  0  0  0  0  0  0
    3.3997    1.5811    3.1582 C   0  0  0  0  0  0  0  0  0  0  0  0
    2.8781    2.4590    2.1998 C   0  0  0  0  0  0  0  0  0  0  0  0
    2.6306    2.0300    0.8881 C   0  0  0  0  0  0  0  0  0  0  0  0
    2.1612    2.9081   -0.0910 N   0  0  0  0  0  0  0  0  0  0  0  0
    2.9248    0.6885    0.5665 C   0  0  0  0  0  0  0  0  0  0  0  0
    3.4412   -0.1991    1.5065 C   0  0  0  0  0  0  0  0  0  0  0  0
    3.7589   -1.6483    1.1662 C   0  0  0  0  0  0  0  0  0  0  0  0
    3.5775   -2.0244   -0.2242 N   0  0  0  0  0  0  0  0  0  0  0  0
    4.7426   -1.9814   -1.0827 C   0  0  0  0  0  0  0  0  0  0  0  0
    2.4061   -2.6327   -0.6611 C   0  0  0  0  0  0  0  0  0  0  0  0
    1.2152   -2.5755    0.1054 C   0  0  0  0  0  0  0  0  0  0  0  0
    0.0456   -3.1884   -0.3411 C   0  0  0  0  0  0  0  0  0  0  0  0
    0.0050   -3.8710   -1.5613 C   0  0  0  0  0  0  0  0  0  0  0  0
    1.1699   -3.9270   -2.3298 C   0  0  0  0  0  0  0  0  0  0  0  0
    2.3523   -3.3251   -1.8953 C   0  0  0  0  0  0  0  0  0  0  0  0
    4.8613   -1.1960    5.5186 H   0  0  0  0  0  0  0  0  0  0  0  0
    3.5513    0.0269    5.5443 H   0  0  0  0  0  0  0  0  0  0  0  0
    5.2151    0.5031    5.0694 H   0  0  0  0  0  0  0  0  0  0  0  0
    3.5775    1.9513    4.1683 H   0  0  0  0  0  0  0  0  0  0  0  0
    2.6649    3.4938    2.4826 H   0  0  0  0  0  0  0  0  0  0  0  0
    1.6585    3.7172    0.2576 H   0  0  0  0  0  0  0  0  0  0  0  0
    1.6742    2.4700   -0.8657 H   0  0  0  0  0  0  0  0  0  0  0  0
    2.7442    0.3229   -0.4475 H   0  0  0  0  0  0  0  0  0  0  0  0
    3.1622   -2.3110    1.8145 H   0  0  0  0  0  0  0  0  0  0  0  0
    4.8032   -1.8527    1.4567 H   0  0  0  0  0  0  0  0  0  0  0  0
    5.4799   -1.2862   -0.6584 H   0  0  0  0  0  0  0  0  0  0  0  0
    4.4860   -1.6113   -2.0889 H   0  0  0  0  0  0  0  0  0  0  0  0
    5.2323   -2.9694   -1.2032 H   0  0  0  0  0  0  0  0  0  0  0  0
    1.1962   -2.0236    1.0453 H   0  0  0  0  0  0  0  0  0  0  0  0
   -0.8544   -3.1201    0.2768 H   0  0  0  0  0  0  0  0  0  0  0  0
   -0.9160   -4.3463   -1.9059 H   0  0  0  0  0  0  0  0  0  0  0  0
    1.1687   -4.4567   -3.2868 H   0  0  0  0  0  0  0  0  0  0  0  0
    3.2424   -3.4093   -2.5183 H   0  0  0  0  0  0  0  0  0  0  0  0
  1  2  1  0
  1 19  1  0
  1 20  1  0
  1 21  1  0
  2  3  1  0
  3  4  2  0
  3  9  1  0
  4  5  1  0
  4 22  1  0
  5  6  2  0
  5 23  1  0
  6  7  1  0
  6  8  1  0
  7 24  1  0
  7 25  1  0
  8  9  2  0
  8 26  1  0
  9 10  1  0
 10 11  1  0
 10 27  1  0
 10 28  1  0
 11 12  1  0
 11 13  1  0
 12 29  1  0
 12 30  1  0
 12 31  1  0
 13 14  2  0
 13 18  1  0
 14 15  1  0
 14 32  1  0
 15 16  2  0
 15 33  1  0
 16 17  1  0
 16 34  1  0
 17 18  2  0
 17 35  1  0
 18 36  1  0
M  END

