
     RDKit          3D

 42 45  0  0  0  0  0  0  0  0999 V2000
    1.6736    0.6695   -0.7316 C   0  0  0  0  0  0  0  0  0  0  0  0
    2.3687   -0.1783    0.1726 O   0  0  0  0  0  0  0  0  0  0  0  0
    3.0009    0.2824    1.2715 C   0  0  0  0  0  0  0  0  0  0  0  0
    3.6606   -0.6861    2.0353 C   0  0  0  0  0  0  0  0  0  0  0  0
    4.3616   -0.3573    3.2102 C   0  0  0  0  0  0  0  0  0  0  0  0
    4.3995    0.9970    3.6270 C   0  0  0  0  0  0  0  0  0  0  0  0
    3.7355    1.9670    2.8581 C   0  0  0  0  0  0  0  0  0  0  0  0
    3.0515    1.6287    1.7111 C   0  0  0  0  0  0  0  0  0  0  0  0
    2.4277    2.6003    1.0093 F   0  0  0  0  0  0  0  0  0  0  0  0
    5.1161    1.4173    4.8437 C   0  0  0  0  0  0  0  0  0  0  0  0
    5.1593    2.5858    5.2189 O   0  0  0  0  0  0  0  0  0  0  0  0
    5.7769    0.3211    5.5729 C   0  0  0  0  0  0  0  0  0  0  0  0
    6.4877    0.6160    6.7481 C   0  0  0  0  0  0  0  0  0  0  0  0
    7.1232   -0.3710    7.4692 C   0  0  0  0  0  0  0  0  0  0  0  0
    7.7950   -0.0333    8.5918 F   0  0  0  0  0  0  0  0  0  0  0  0
    7.0749   -1.7215    7.0422 C   0  0  0  0  0  0  0  0  0  0  0  0
    7.6519   -2.7759    7.6542 O   0  0  0  0  0  0  0  0  0  0  0  0
    8.3860   -2.6589    8.8653 C   0  0  0  0  0  0  0  0  0  0  0  0
    6.3682   -2.0185    5.8721 C   0  0  0  0  0  0  0  0  0  0  0  0
    5.7154   -1.0218    5.1233 C   0  0  0  0  0  0  0  0  0  0  0  0
    5.0141   -1.3439    3.9567 N   0  0  0  0  0  0  0  0  0  0  0  0
    4.9633   -2.7128    3.5165 C   0  0  0  0  0  0  0  0  0  0  0  0
    3.9285   -3.5489    3.9524 C   0  0  0  0  0  0  0  0  0  0  0  0
    3.8808   -4.8780    3.5229 C   0  0  0  0  0  0  0  0  0  0  0  0
    4.8643   -5.3722    2.6601 C   0  0  0  0  0  0  0  0  0  0  0  0
    5.8973   -4.5355    2.2259 C   0  0  0  0  0  0  0  0  0  0  0  0
    5.9486   -3.2056    2.6525 C   0  0  0  0  0  0  0  0  0  0  0  0
    1.2884    0.0065   -1.5181 H   0  0  0  0  0  0  0  0  0  0  0  0
    2.3405    1.4204   -1.1829 H   0  0  0  0  0  0  0  0  0  0  0  0
    0.8316    1.1852   -0.2452 H   0  0  0  0  0  0  0  0  0  0  0  0
    3.6053   -1.7115    1.6755 H   0  0  0  0  0  0  0  0  0  0  0  0
    3.7719    3.0056    3.1915 H   0  0  0  0  0  0  0  0  0  0  0  0
    6.5277    1.6543    7.0820 H   0  0  0  0  0  0  0  0  0  0  0  0
    8.7114   -3.6789    9.1108 H   0  0  0  0  0  0  0  0  0  0  0  0
    7.7632   -2.2682    9.6849 H   0  0  0  0  0  0  0  0  0  0  0  0
    9.2695   -2.0128    8.7483 H   0  0  0  0  0  0  0  0  0  0  0  0
    6.3477   -3.0627    5.5669 H   0  0  0  0  0  0  0  0  0  0  0  0
    3.1665   -3.1502    4.6255 H   0  0  0  0  0  0  0  0  0  0  0  0
    3.0724   -5.5293    3.8637 H   0  0  0  0  0  0  0  0  0  0  0  0
    4.8256   -6.4118    2.3254 H   0  0  0  0  0  0  0  0  0  0  0  0
    6.6670   -4.9188    1.5517 H   0  0  0  0  0  0  0  0  0  0  0  0
    6.7498   -2.5417    2.3211 H   0  0  0  0  0  0  0  0  0  0  0  0
  1  2  1  0
  1 28  1  0
  1 29  1  0
  1 30  1  0
  2  3  1  0
  3  4  2  0
  3  8  1  0
  4  5  1  0
  4 31  1  0
  5  6  2  0
  5 21  1  0
  6  7  1  0
  6 10  1  0
  7  8  2  0
  7 32  1  0
  8  9  1  0
 10 11  2  0
 10 12  1  0
 12 13  1  0
 12 20  2  0
 13 14  2  0
 13 33  1  0
 14 15  1  0
 14 16  1  0
 16 17  1  0
 16 19  2  0
 17 18  1  0
 18 34  1  0
 18 35  1  0
 18 36  1  0
 19 20  1  0
 19 37  1  0
 20 21  1  0
 21 22  1  0
 22 23  2  0
 22 27  1  0
 23 24  1  0
 23 38  1  0
 24 25  2  0
 24 39  1  0
 25 26  1  0
 25 40  1  0
 26 27  2  0
 26 41  1  0
 27 42  1  0
M  END

