
     RDKit          3D

 51 55  0  0  0  0  0  0  0  0999 V2000
    6.8165    6.3206    4.1385 O   0  0  0  0  0  0  0  0  0  0  0  0
    7.0373    5.4571    3.0484 C   0  0  0  0  0  0  0  0  0  0  0  0
    5.7203    4.9096    2.5560 C   0  0  0  0  0  0  0  0  0  0  0  0
    4.5061    5.2851    3.1229 C   0  0  0  0  0  0  0  0  0  0  0  0
    3.2911    4.7375    2.6728 C   0  0  0  0  0  0  0  0  0  0  0  0
    2.1017    5.2517    3.2635 N   0  0  0  0  0  0  0  0  0  0  0  0
    1.1022    4.5603    3.5261 N   0  0  0  0  0  0  0  0  0  0  0  0
    1.0881    3.1335    3.5088 C   0  0  0  0  0  0  0  0  0  0  0  0
    1.9231    2.3634    4.3351 C   0  0  0  0  0  0  0  0  0  0  0  0
    1.7290    0.9876    4.4612 C   0  0  0  0  0  0  0  0  0  0  0  0
    0.7007    0.3328    3.7614 C   0  0  0  0  0  0  0  0  0  0  0  0
    0.4954   -1.1445    3.8920 C   0  0  0  0  0  0  0  0  0  0  0  0
   -0.5305   -1.6429    4.7336 C   0  0  0  0  0  0  0  0  0  0  0  0
   -1.3895   -0.7839    5.4976 C   0  0  0  0  0  0  0  0  0  0  0  0
   -2.3751   -1.2959    6.3049 C   0  0  0  0  0  0  0  0  0  0  0  0
   -2.5724   -2.7042    6.4092 C   0  0  0  0  0  0  0  0  0  0  0  0
   -1.7694   -3.5635    5.7037 C   0  0  0  0  0  0  0  0  0  0  0  0
   -0.7280   -3.0723    4.8516 C   0  0  0  0  0  0  0  0  0  0  0  0
    0.1037   -3.9430    4.1362 C   0  0  0  0  0  0  0  0  0  0  0  0
    1.1246   -3.4666    3.3044 C   0  0  0  0  0  0  0  0  0  0  0  0
    1.9725   -4.3605    2.5734 C   0  0  0  0  0  0  0  0  0  0  0  0
    2.9639   -3.8862    1.7531 C   0  0  0  0  0  0  0  0  0  0  0  0
    3.1619   -2.4810    1.6139 C   0  0  0  0  0  0  0  0  0  0  0  0
    2.3721   -1.5902    2.2980 C   0  0  0  0  0  0  0  0  0  0  0  0
    1.3273   -2.0392    3.1734 C   0  0  0  0  0  0  0  0  0  0  0  0
   -0.1383    1.1004    2.9353 C   0  0  0  0  0  0  0  0  0  0  0  0
    0.0520    2.4727    2.8318 C   0  0  0  0  0  0  0  0  0  0  0  0
   -0.7459    3.1875    2.0266 F   0  0  0  0  0  0  0  0  0  0  0  0
    3.2929    3.8572    1.5794 C   0  0  0  0  0  0  0  0  0  0  0  0
    4.5002    3.5086    0.9753 C   0  0  0  0  0  0  0  0  0  0  0  0
    5.7104    4.0124    1.4678 C   0  0  0  0  0  0  0  0  0  0  0  0
    6.9157    3.6921    0.9255 O   0  0  0  0  0  0  0  0  0  0  0  0
    7.6651    6.6843    4.4163 H   0  0  0  0  0  0  0  0  0  0  0  0
    7.6952    4.6049    3.3185 H   0  0  0  0  0  0  0  0  0  0  0  0
    7.5427    5.9720    2.2050 H   0  0  0  0  0  0  0  0  0  0  0  0
    4.4997    6.0086    3.9382 H   0  0  0  0  0  0  0  0  0  0  0  0
    2.7165    2.8614    4.8957 H   0  0  0  0  0  0  0  0  0  0  0  0
    2.3831    0.4095    5.1178 H   0  0  0  0  0  0  0  0  0  0  0  0
   -1.2483    0.2957    5.4328 H   0  0  0  0  0  0  0  0  0  0  0  0
   -3.0149   -0.6191    6.8768 H   0  0  0  0  0  0  0  0  0  0  0  0
   -3.3629   -3.0933    7.0559 H   0  0  0  0  0  0  0  0  0  0  0  0
   -1.9093   -4.6452    5.7807 H   0  0  0  0  0  0  0  0  0  0  0  0
   -0.0479   -5.0222    4.2299 H   0  0  0  0  0  0  0  0  0  0  0  0
    1.8095   -5.4361    2.6840 H   0  0  0  0  0  0  0  0  0  0  0  0
    3.6028   -4.5804    1.2014 H   0  0  0  0  0  0  0  0  0  0  0  0
    3.9508   -2.1125    0.9531 H   0  0  0  0  0  0  0  0  0  0  0  0
    2.5340   -0.5180    2.1796 H   0  0  0  0  0  0  0  0  0  0  0  0
   -0.9473    0.6388    2.3657 H   0  0  0  0  0  0  0  0  0  0  0  0
    2.3542    3.4747    1.1775 H   0  0  0  0  0  0  0  0  0  0  0  0
    4.5055    2.8410    0.1077 H   0  0  0  0  0  0  0  0  0  0  0  0
    6.7915    3.0860    0.1832 H   0  0  0  0  0  0  0  0  0  0  0  0
  1  2  1  0
  1 33  1  0
  2  3  1  0
  2 34  1  0
  2 35  1  0
  3  4  2  0
  3 31  1  0
  4  5  1  0
  4 36  1  0
  5  6  1  0
  5 29  2  0
  6  7  2  0
  7  8  1  0
  8  9  2  0
  8 27  1  0
  9 10  1  0
  9 37  1  0
 10 11  2  0
 10 38  1  0
 11 12  1  0
 11 26  1  0
 12 13  1  0
 12 25  2  0
 13 14  2  0
 13 18  1  0
 14 15  1  0
 14 39  1  0
 15 16  2  0
 15 40  1  0
 16 17  1  0
 16 41  1  0
 17 18  2  0
 17 42  1  0
 18 19  1  0
 19 20  2  0
 19 43  1  0
 20 21  1  0
 20 25  1  0
 21 22  2  0
 21 44  1  0
 22 23  1  0
 22 45  1  0
 23 24  2  0
 23 46  1  0
 24 25  1  0
 24 47  1  0
 26 27  2  0
 26 48  1  0
 27 28  1  0
 29 30  1  0
 29 49  1  0
 30 31  2  0
 30 50  1  0
 31 32  1  0
 32 51  1  0
M  END

