
     RDKit          3D

 55 60  0  0  0  0  0  0  0  0999 V2000
    3.5353    0.9962   -2.6392 C   0  0  0  0  0  0  0  0  0  0  0  0
    4.8568    0.9302   -1.9401 C   0  0  0  0  0  0  0  0  0  0  0  0
    5.2742   -0.0499   -1.0338 C   0  0  0  0  0  0  0  0  0  0  0  0
    4.1514   -1.7065   -0.3796 I   0  0  0  0  0  0  0  0  0  0  0  0
    6.5984    0.2388   -0.6117 C   0  0  0  0  0  0  0  0  0  0  0  0
    7.4714   -0.5033    0.3418 C   0  0  0  0  0  0  0  0  0  0  0  0
    6.9973    1.3643   -1.2340 N   0  0  0  0  0  0  0  0  0  0  0  0
    5.9704    1.8265   -2.0551 C   0  0  0  0  0  0  0  0  0  0  0  0
    6.1452    2.9922   -2.8313 C   0  0  0  0  0  0  0  0  0  0  0  0
    5.0325    3.4907   -3.6711 C   0  0  0  0  0  0  0  0  0  0  0  0
    4.6579    3.2644   -4.9994 C   0  0  0  0  0  0  0  0  0  0  0  0
    5.3352    2.3903   -5.9702 C   0  0  0  0  0  0  0  0  0  0  0  0
    4.8438    2.2662   -7.2825 C   0  0  0  0  0  0  0  0  0  0  0  0
    5.5165    1.4259   -8.1674 C   0  0  0  0  0  0  0  0  0  0  0  0
    6.6496    0.7393   -7.7219 C   0  0  0  0  0  0  0  0  0  0  0  0
    7.0592    0.9292   -6.3973 C   0  0  0  0  0  0  0  0  0  0  0  0
    6.4235    1.7301   -5.5440 N   0  0  0  0  0  0  0  0  0  0  0  0
    3.5407    3.9702   -5.3275 N   0  0  0  0  0  0  0  0  0  0  0  0
    3.1936    4.6405   -4.2394 C   0  0  0  0  0  0  0  0  0  0  0  0
    2.1167    5.5308   -3.9984 C   0  0  0  0  0  0  0  0  0  0  0  0
    1.9766    6.1053   -2.7559 C   0  0  0  0  0  0  0  0  0  0  0  0
    2.9071    5.8085   -1.7163 C   0  0  0  0  0  0  0  0  0  0  0  0
    3.9502    4.9498   -1.9405 C   0  0  0  0  0  0  0  0  0  0  0  0
    4.0901    4.3760   -3.1829 N   0  0  0  0  0  0  0  0  0  0  0  0
    7.3441    3.7233   -2.7743 C   0  0  0  0  0  0  0  0  0  0  0  0
    7.7599    4.9230   -3.4507 C   0  0  0  0  0  0  0  0  0  0  0  0
    7.0051    5.7605   -4.4370 C   0  0  0  0  0  0  0  0  0  0  0  0
    9.0584    5.1729   -3.0159 C   0  0  0  0  0  0  0  0  0  0  0  0
    9.4271    4.1569   -2.1029 C   0  0  0  0  0  0  0  0  0  0  0  0
   10.7186    3.9997   -1.3728 C   0  0  0  0  0  0  0  0  0  0  0  0
    8.3993    3.2978   -1.9656 N   0  0  0  0  0  0  0  0  0  0  0  0
    8.3901    2.0467   -1.0390 B   0  0  1  0  0  0  0  0  0  0  0  0
    8.5430    2.4381    0.2900 F   0  0  0  0  0  0  0  0  0  0  0  0
    9.4066    1.1702   -1.4047 F   0  0  0  0  0  0  0  0  0  0  0  0
    3.6520    0.9098   -3.7301 H   0  0  0  0  0  0  0  0  0  0  0  0
    3.0093    1.9432   -2.4441 H   0  0  0  0  0  0  0  0  0  0  0  0
    2.8856    0.1774   -2.3010 H   0  0  0  0  0  0  0  0  0  0  0  0
    7.7874    0.1599    1.1619 H   0  0  0  0  0  0  0  0  0  0  0  0
    6.9482   -1.3738    0.7560 H   0  0  0  0  0  0  0  0  0  0  0  0
    8.3911   -0.8358   -0.1641 H   0  0  0  0  0  0  0  0  0  0  0  0
    3.9543    2.8270   -7.5714 H   0  0  0  0  0  0  0  0  0  0  0  0
    5.1610    1.3066   -9.1942 H   0  0  0  0  0  0  0  0  0  0  0  0
    7.2065    0.0703   -8.3817 H   0  0  0  0  0  0  0  0  0  0  0  0
    7.9425    0.4081   -6.0099 H   0  0  0  0  0  0  0  0  0  0  0  0
    1.4274    5.7307   -4.8195 H   0  0  0  0  0  0  0  0  0  0  0  0
    1.1509    6.7920   -2.5584 H   0  0  0  0  0  0  0  0  0  0  0  0
    2.7999    6.2607   -0.7294 H   0  0  0  0  0  0  0  0  0  0  0  0
    4.6951    4.6803   -1.1913 H   0  0  0  0  0  0  0  0  0  0  0  0
    6.0636    6.1523   -4.0208 H   0  0  0  0  0  0  0  0  0  0  0  0
    6.7415    5.1901   -5.3408 H   0  0  0  0  0  0  0  0  0  0  0  0
    7.6161    6.6215   -4.7453 H   0  0  0  0  0  0  0  0  0  0  0  0
    9.6938    6.0029   -3.3209 H   0  0  0  0  0  0  0  0  0  0  0  0
   11.4095    4.8149   -1.6259 H   0  0  0  0  0  0  0  0  0  0  0  0
   11.1873    3.0345   -1.6212 H   0  0  0  0  0  0  0  0  0  0  0  0
   10.5479    3.9915   -0.2848 H   0  0  0  0  0  0  0  0  0  0  0  0
  1  2  1  0
  1 35  1  0
  1 36  1  0
  1 37  1  0
  2  3  1  0
  2  8  2  0
  3  4  1  0
  3  5  2  0
  5  6  1  0
  5  7  1  0
  6 38  1  0
  6 39  1  0
  6 40  1  0
  7  8  1  0
  7 32  1  0
  8  9  1  0
  9 10  1  0
  9 25  2  0
 10 11  2  0
 10 24  1  0
 11 12  1  0
 11 18  1  0
 12 13  2  0
 12 17  1  0
 13 14  1  0
 13 41  1  0
 14 15  2  0
 14 42  1  0
 15 16  1  0
 15 43  1  0
 16 17  2  0
 16 44  1  0
 18 19  2  0
 19 20  1  0
 19 24  1  0
 20 21  2  0
 20 45  1  0
 21 22  1  0
 21 46  1  0
 22 23  2  0
 22 47  1  0
 23 24  1  0
 23 48  1  0
 25 26  1  0
 25 31  1  0
 26 27  1  0
 26 28  2  0
 27 49  1  0
 27 50  1  0
 27 51  1  0
 28 29  1  0
 28 52  1  0
 29 30  1  0
 29 31  2  0
 30 53  1  0
 30 54  1  0
 30 55  1  0
 31 32  1  0
 32 33  1  1
 32 34  1  0
M  CHG  2  31   1  32  -1
M  END

