
     RDKit          3D

 18 18  0  0  0  0  0  0  0  0999 V2000
    4.4041    2.5963    0.7371 N   0  0  0  0  0  0  0  0  0  0  0  0
    4.1217    1.5193    0.4154 C   0  0  0  0  0  0  0  0  0  0  0  0
    3.7653    0.1468    0.0553 C   0  0  0  0  0  0  0  0  0  0  0  0
    4.2910   -0.9351    1.0568 C   0  0  1  0  0  0  0  0  0  0  0  0
    3.7750   -2.2655    0.7686 N   0  0  0  0  0  0  0  0  0  0  0  0
    5.8047   -0.9491    1.1124 C   0  0  0  0  0  0  0  0  0  0  0  0
    6.5357   -0.5792    2.2145 C   0  0  0  0  0  0  0  0  0  0  0  0
    8.2419   -0.6987    1.9488 S   0  0  0  0  0  0  0  0  0  0  0  0
    7.9791   -1.2570    0.3257 C   0  0  0  0  0  0  0  0  0  0  0  0
    9.4291   -1.6737   -0.7986 Br  0  0  0  0  0  0  0  0  0  0  0  0
    6.6460   -1.3388    0.0158 C   0  0  0  0  0  0  0  0  0  0  0  0
    4.1454   -0.0664   -0.9581 H   0  0  0  0  0  0  0  0  0  0  0  0
    2.6651    0.0799    0.0048 H   0  0  0  0  0  0  0  0  0  0  0  0
    3.9254   -0.6487    2.0565 H   0  0  0  0  0  0  0  0  0  0  0  0
    4.1179   -2.6153   -0.1260 H   0  0  0  0  0  0  0  0  0  0  0  0
    2.7562   -2.2656    0.7226 H   0  0  0  0  0  0  0  0  0  0  0  0
    6.1595   -0.2349    3.1772 H   0  0  0  0  0  0  0  0  0  0  0  0
    6.2918   -1.6673   -0.9623 H   0  0  0  0  0  0  0  0  0  0  0  0
  1  2  3  0
  2  3  1  0
  3  4  1  0
  3 12  1  0
  3 13  1  0
  4  5  1  0
  4  6  1  0
  4 14  1  1
  5 15  1  0
  5 16  1  0
  6  7  2  0
  6 11  1  0
  7  8  1  0
  7 17  1  0
  8  9  1  0
  9 10  1  0
  9 11  2  0
 11 18  1  0
M  END

