
     RDKit          3D

 30 31  0  0  0  0  0  0  0  0999 V2000
    0.8274   -0.0144    0.0146 C   0  0  0  0  0  0  0  0  0  0  0  0
    2.3523    0.0047    0.1212 C   0  0  0  0  0  0  0  0  0  0  0  0
    2.9831   -1.3993    0.0519 C   0  0  0  0  0  0  0  0  0  0  0  0
    4.4893   -1.4184    0.1229 C   0  0  0  0  0  0  0  0  0  0  0  0
    5.1903   -1.4132    1.3158 C   0  0  0  0  0  0  0  0  0  0  0  0
    6.5836   -1.4011    1.3447 N   0  0  0  0  0  0  0  0  0  0  0  0
    7.3526   -1.3750    0.1696 C   0  0  0  0  0  0  0  0  0  0  0  0
    8.5689   -1.3852    0.1955 O   0  0  0  0  0  0  0  0  0  0  0  0
    6.6192   -1.3395   -0.9884 N   0  0  0  0  0  0  0  0  0  0  0  0
    7.1554   -1.3148   -1.8513 H   0  0  0  0  0  0  0  0  0  0  0  0
    5.2155   -1.3638   -1.1270 C   0  0  0  0  0  0  0  0  0  0  0  0
    4.7243   -1.3367   -2.2461 O   0  0  0  0  0  0  0  0  0  0  0  0
    7.3337   -1.5198    2.6028 C   0  0  0  0  0  0  0  0  0  0  0  0
    6.5719   -0.8768    3.7509 C   0  0  0  0  0  0  0  0  0  0  0  0
    5.1782   -1.4838    3.8284 C   0  0  0  0  0  0  0  0  0  0  0  0
    4.5470   -1.3959    2.5246 N   0  0  0  0  0  0  0  0  0  0  0  0
    0.4059    1.0027    0.0550 H   0  0  0  0  0  0  0  0  0  0  0  0
    0.3708   -0.5957    0.8345 H   0  0  0  0  0  0  0  0  0  0  0  0
    0.5008   -0.4734   -0.9332 H   0  0  0  0  0  0  0  0  0  0  0  0
    2.6570    0.5022    1.0600 H   0  0  0  0  0  0  0  0  0  0  0  0
    2.7774    0.6111   -0.6958 H   0  0  0  0  0  0  0  0  0  0  0  0
    2.6974   -1.8635   -0.9049 H   0  0  0  0  0  0  0  0  0  0  0  0
    2.5415   -2.0417    0.8397 H   0  0  0  0  0  0  0  0  0  0  0  0
    8.3113   -1.0524    2.4356 H   0  0  0  0  0  0  0  0  0  0  0  0
    7.5225   -2.5877    2.8190 H   0  0  0  0  0  0  0  0  0  0  0  0
    6.4993    0.2121    3.5925 H   0  0  0  0  0  0  0  0  0  0  0  0
    7.1145   -1.0427    4.6937 H   0  0  0  0  0  0  0  0  0  0  0  0
    4.5517   -0.9456    4.5577 H   0  0  0  0  0  0  0  0  0  0  0  0
    5.2482   -2.5347    4.1756 H   0  0  0  0  0  0  0  0  0  0  0  0
    3.5427   -1.5004    2.4768 H   0  0  0  0  0  0  0  0  0  0  0  0
  1  2  1  0
  1 17  1  0
  1 18  1  0
  1 19  1  0
  2  3  1  0
  2 20  1  0
  2 21  1  0
  3  4  1  0
  3 22  1  0
  3 23  1  0
  4  5  2  0
  4 11  1  0
  5  6  1  0
  5 16  1  0
  6  7  1  0
  6 13  1  0
  7  8  2  0
  7  9  1  0
  9 10  1  0
  9 11  1  0
 11 12  2  0
 13 14  1  0
 13 24  1  0
 13 25  1  0
 14 15  1  0
 14 26  1  0
 14 27  1  0
 15 16  1  0
 15 28  1  0
 15 29  1  0
 16 30  1  0
M  END

