
     RDKit          3D

 69 75  0  0  0  0  0  0  0  0999 V2000
    5.3930    1.0400   -0.6149 C   0  0  0  0  0  0  0  0  0  0  0  0
    4.2611    0.2038   -0.6961 O   0  0  0  0  0  0  0  0  0  0  0  0
    4.3814   -1.0287   -1.2462 C   0  0  0  0  0  0  0  0  0  0  0  0
    5.5730   -1.5549   -1.7687 C   0  0  0  0  0  0  0  0  0  0  0  0
    5.5785   -2.8387   -2.3189 C   0  0  0  0  0  0  0  0  0  0  0  0
    4.4197   -3.6366   -2.3549 C   0  0  0  0  0  0  0  0  0  0  0  0
    4.4900   -4.9648   -2.9840 C   0  0  0  0  0  0  0  0  0  0  0  0
    4.0044   -6.1243   -2.4711 N   0  0  0  0  0  0  0  0  0  0  0  0
    4.3124   -7.1816   -3.3236 C   0  0  0  0  0  0  0  0  0  0  0  0
    4.0067   -8.4946   -2.9843 C   0  0  0  0  0  0  0  0  0  0  0  0
    3.3889   -8.8396   -1.7878 C   0  0  0  0  0  0  0  0  0  0  0  0
    2.9354  -10.1099   -1.3079 C   0  0  0  0  0  0  0  0  0  0  0  0
    3.0244  -11.4256   -1.8080 C   0  0  0  0  0  0  0  0  0  0  0  0
    2.4887  -12.4587   -1.0636 C   0  0  0  0  0  0  0  0  0  0  0  0
    1.8616  -12.2200    0.1939 C   0  0  0  0  0  0  0  0  0  0  0  0
    1.4010  -13.3352    0.8194 O   0  0  0  0  0  0  0  0  0  0  0  0
    0.7764  -13.2059    2.0750 C   0  0  0  0  0  0  0  0  0  0  0  0
    1.7588  -10.9292    0.7024 C   0  0  0  0  0  0  0  0  0  0  0  0
    2.2896   -9.8654   -0.0657 C   0  0  0  0  0  0  0  0  0  0  0  0
    2.3709   -8.4502    0.1803 C   0  0  0  0  0  0  0  0  0  0  0  0
    1.7905   -7.7570    1.3410 C   0  0  0  0  0  0  0  0  0  0  0  0
    0.4772   -8.0735    1.7359 C   0  0  0  0  0  0  0  0  0  0  0  0
   -0.1223   -7.4779    2.8479 C   0  0  0  0  0  0  0  0  0  0  0  0
    0.5994   -6.5459    3.6097 C   0  0  0  0  0  0  0  0  0  0  0  0
    0.1194   -5.9139    4.7080 O   0  0  0  0  0  0  0  0  0  0  0  0
   -1.1971   -6.1759    5.1384 C   0  0  0  0  0  0  0  0  0  0  0  0
    1.9150   -6.2240    3.2309 C   0  0  0  0  0  0  0  0  0  0  0  0
    2.4980   -6.8125    2.1177 C   0  0  0  0  0  0  0  0  0  0  0  0
    3.0454   -7.8724   -0.8466 N   0  0  0  0  0  0  0  0  0  0  0  0
    3.3148   -6.3259   -1.0593 B   0  0  1  0  0  0  0  0  0  0  0  0
    4.1919   -5.8501   -0.0966 F   0  0  0  0  0  0  0  0  0  0  0  0
    2.0889   -5.6802   -1.0207 F   0  0  0  0  0  0  0  0  0  0  0  0
    5.0020   -6.6513   -4.4606 C   0  0  0  0  0  0  0  0  0  0  0  0
    5.5211   -7.2282   -5.6384 C   0  0  0  0  0  0  0  0  0  0  0  0
    6.1236   -6.4075   -6.5721 C   0  0  0  0  0  0  0  0  0  0  0  0
    6.2200   -4.9997   -6.3712 C   0  0  0  0  0  0  0  0  0  0  0  0
    6.8197   -4.3213   -7.3846 O   0  0  0  0  0  0  0  0  0  0  0  0
    6.9495   -2.9223   -7.2878 C   0  0  0  0  0  0  0  0  0  0  0  0
    5.7188   -4.4117   -5.2144 C   0  0  0  0  0  0  0  0  0  0  0  0
    5.1174   -5.2511   -4.2464 C   0  0  0  0  0  0  0  0  0  0  0  0
    3.2319   -3.0908   -1.8191 C   0  0  0  0  0  0  0  0  0  0  0  0
    3.2138   -1.8119   -1.2809 C   0  0  0  0  0  0  0  0  0  0  0  0
    5.0607    1.9714   -0.1370 H   0  0  0  0  0  0  0  0  0  0  0  0
    5.8024    1.2775   -1.6136 H   0  0  0  0  0  0  0  0  0  0  0  0
    6.1941    0.5898   -0.0012 H   0  0  0  0  0  0  0  0  0  0  0  0
    6.5009   -0.9833   -1.7444 H   0  0  0  0  0  0  0  0  0  0  0  0
    6.5193   -3.2419   -2.6990 H   0  0  0  0  0  0  0  0  0  0  0  0
    4.2621   -9.2886   -3.6881 H   0  0  0  0  0  0  0  0  0  0  0  0
    3.5124  -11.6361   -2.7629 H   0  0  0  0  0  0  0  0  0  0  0  0
    2.5386  -13.4927   -1.4109 H   0  0  0  0  0  0  0  0  0  0  0  0
    0.4891  -14.2183    2.3897 H   0  0  0  0  0  0  0  0  0  0  0  0
   -0.1310  -12.5769    2.0202 H   0  0  0  0  0  0  0  0  0  0  0  0
    1.4578  -12.7752    2.8312 H   0  0  0  0  0  0  0  0  0  0  0  0
    1.2983  -10.7299    1.6684 H   0  0  0  0  0  0  0  0  0  0  0  0
   -0.1072   -8.7776    1.1401 H   0  0  0  0  0  0  0  0  0  0  0  0
   -1.1496   -7.7398    3.1016 H   0  0  0  0  0  0  0  0  0  0  0  0
   -1.3642   -5.5565    6.0299 H   0  0  0  0  0  0  0  0  0  0  0  0
   -1.3381   -7.2378    5.4101 H   0  0  0  0  0  0  0  0  0  0  0  0
   -1.9431   -5.9044    4.3698 H   0  0  0  0  0  0  0  0  0  0  0  0
    2.4640   -5.4983    3.8343 H   0  0  0  0  0  0  0  0  0  0  0  0
    3.5141   -6.5400    1.8392 H   0  0  0  0  0  0  0  0  0  0  0  0
    5.4476   -8.3030   -5.8220 H   0  0  0  0  0  0  0  0  0  0  0  0
    6.5358   -6.8111   -7.4992 H   0  0  0  0  0  0  0  0  0  0  0  0
    7.4528   -2.5883   -8.2052 H   0  0  0  0  0  0  0  0  0  0  0  0
    7.5605   -2.6253   -6.4158 H   0  0  0  0  0  0  0  0  0  0  0  0
    5.9666   -2.4219   -7.2154 H   0  0  0  0  0  0  0  0  0  0  0  0
    5.7689   -3.3366   -5.0508 H   0  0  0  0  0  0  0  0  0  0  0  0
    2.3177   -3.6811   -1.8263 H   0  0  0  0  0  0  0  0  0  0  0  0
    2.2944   -1.3880   -0.8721 H   0  0  0  0  0  0  0  0  0  0  0  0
  1  2  1  0
  1 43  1  0
  1 44  1  0
  1 45  1  0
  2  3  1  0
  3  4  2  0
  3 42  1  0
  4  5  1  0
  4 46  1  0
  5  6  2  0
  5 47  1  0
  6  7  1  0
  6 41  1  0
  7  8  1  0
  7 40  2  0
  8  9  1  0
  8 30  1  0
  9 10  1  0
  9 33  2  0
 10 11  2  0
 10 48  1  0
 11 12  1  0
 11 29  1  0
 12 13  2  0
 12 19  1  0
 13 14  1  0
 13 49  1  0
 14 15  2  0
 14 50  1  0
 15 16  1  0
 15 18  1  0
 16 17  1  0
 17 51  1  0
 17 52  1  0
 17 53  1  0
 18 19  2  0
 18 54  1  0
 19 20  1  0
 20 21  1  0
 20 29  2  0
 21 22  2  0
 21 28  1  0
 22 23  1  0
 22 55  1  0
 23 24  2  0
 23 56  1  0
 24 25  1  0
 24 27  1  0
 25 26  1  0
 26 57  1  0
 26 58  1  0
 26 59  1  0
 27 28  2  0
 27 60  1  0
 28 61  1  0
 29 30  1  0
 30 31  1  1
 30 32  1  0
 33 34  1  0
 33 40  1  0
 34 35  2  0
 34 62  1  0
 35 36  1  0
 35 63  1  0
 36 37  1  0
 36 39  2  0
 37 38  1  0
 38 64  1  0
 38 65  1  0
 38 66  1  0
 39 40  1  0
 39 67  1  0
 41 42  2  0
 41 68  1  0
 42 69  1  0
M  CHG  2  29   1  30  -1
M  END

