
     RDKit          3D

 23 23  0  0  0  0  0  0  0  0999 V2000
    0.9143   -0.1082   -0.2104 C   0  0  0  0  0  0  0  0  0  0  0  0
    2.4198    0.0367   -0.3128 C   0  0  0  0  0  0  0  0  0  0  0  0
    2.9863   -1.2690   -0.3555 O   0  0  0  0  0  0  0  0  0  0  0  0
    4.3205   -1.4286   -0.4334 C   0  0  0  0  0  0  0  0  0  0  0  0
    5.2354   -0.3839   -0.4946 C   0  0  0  0  0  0  0  0  0  0  0  0
    6.6271   -0.6358   -0.5850 C   0  0  0  0  0  0  0  0  0  0  0  0
    7.4772    0.4179   -0.6526 N   0  0  0  0  0  0  0  0  0  0  0  0
    7.0811   -1.9953   -0.5633 C   0  0  0  0  0  0  0  0  0  0  0  0
    8.5067   -2.2637   -0.5090 N   0  0  0  0  0  0  0  0  0  0  0  0
    9.2768   -1.4355   -1.0142 O   0  0  0  0  0  0  0  0  0  0  0  0
    8.8991   -3.2745    0.0448 O   0  0  0  0  0  0  0  0  0  0  0  0
    6.1191   -3.0436   -0.5335 C   0  0  0  0  0  0  0  0  0  0  0  0
    6.5710   -4.8863   -0.6935 Br  0  0  0  0  0  0  0  0  0  0  0  0
    4.7665   -2.7692   -0.4774 C   0  0  0  0  0  0  0  0  0  0  0  0
    0.4403    0.8848   -0.1767 H   0  0  0  0  0  0  0  0  0  0  0  0
    0.6373   -0.6584    0.7016 H   0  0  0  0  0  0  0  0  0  0  0  0
    0.5162   -0.6554   -1.0783 H   0  0  0  0  0  0  0  0  0  0  0  0
    2.8242    0.5886    0.5558 H   0  0  0  0  0  0  0  0  0  0  0  0
    2.7020    0.5941   -1.2252 H   0  0  0  0  0  0  0  0  0  0  0  0
    4.9078    0.6550   -0.4905 H   0  0  0  0  0  0  0  0  0  0  0  0
    7.1042    1.3558   -0.6694 H   0  0  0  0  0  0  0  0  0  0  0  0
    8.4478    0.2343   -0.8852 H   0  0  0  0  0  0  0  0  0  0  0  0
    4.0279   -3.5690   -0.4810 H   0  0  0  0  0  0  0  0  0  0  0  0
  1  2  1  0
  1 15  1  0
  1 16  1  0
  1 17  1  0
  2  3  1  0
  2 18  1  0
  2 19  1  0
  3  4  1  0
  4  5  2  0
  4 14  1  0
  5  6  1  0
  5 20  1  0
  6  7  1  0
  6  8  2  0
  7 21  1  0
  7 22  1  0
  8  9  1  0
  8 12  1  0
  9 10  2  0
  9 11  1  0
 12 13  1  0
 12 14  2  0
 14 23  1  0
M  CHG  2   9   1  11  -1
M  END

