
     RDKit          3D

 30 31  0  0  0  0  0  0  0  0999 V2000
    1.3097   -0.9012   -0.2250 C   0  0  0  0  0  0  0  0  0  0  0  0
    2.6373   -0.1422   -0.0712 C   0  0  0  0  0  0  0  0  0  0  0  0
    2.7529    1.0526   -0.9922 C   0  0  0  0  0  0  0  0  0  0  0  0
    2.3363    2.3281   -0.5869 C   0  0  0  0  0  0  0  0  0  0  0  0
    2.4061    3.4237   -1.4502 C   0  0  0  0  0  0  0  0  0  0  0  0
    2.8977    3.2847   -2.7602 C   0  0  0  0  0  0  0  0  0  0  0  0
    2.9896    4.4186   -3.7008 C   0  0  0  0  0  0  0  0  0  0  0  0
    3.4901    4.2262   -4.9325 N   0  0  0  0  0  0  0  0  0  0  0  0
    3.4461    5.4039   -5.5434 N   0  0  0  0  0  0  0  0  0  0  0  0
    3.7737    5.5197   -6.4976 H   0  0  0  0  0  0  0  0  0  0  0  0
    2.9331    6.3870   -4.7693 C   0  0  0  0  0  0  0  0  0  0  0  0
    2.7845    7.7862   -5.2443 C   0  0  0  0  0  0  0  0  0  0  0  0
    3.1195    8.1238   -6.3546 O   0  0  0  0  0  0  0  0  0  0  0  0
    2.2557    8.6173   -4.3457 O   0  0  0  0  0  0  0  0  0  0  0  0
    2.6185    5.7929   -3.5506 C   0  0  0  0  0  0  0  0  0  0  0  0
    2.0472    6.5522   -2.4837 N   0  0  0  0  0  0  0  0  0  0  0  0
    3.3184    2.0036   -3.1684 C   0  0  0  0  0  0  0  0  0  0  0  0
    3.2458    0.9167   -2.3018 C   0  0  0  0  0  0  0  0  0  0  0  0
    1.2659   -1.7641    0.4590 H   0  0  0  0  0  0  0  0  0  0  0  0
    1.1828   -1.2766   -1.2531 H   0  0  0  0  0  0  0  0  0  0  0  0
    0.4504   -0.2480   -0.0034 H   0  0  0  0  0  0  0  0  0  0  0  0
    3.4747   -0.8336   -0.2653 H   0  0  0  0  0  0  0  0  0  0  0  0
    2.7464    0.1911    0.9746 H   0  0  0  0  0  0  0  0  0  0  0  0
    1.9531    2.4726    0.4277 H   0  0  0  0  0  0  0  0  0  0  0  0
    2.0752    4.3967   -1.0875 H   0  0  0  0  0  0  0  0  0  0  0  0
    2.0622    8.1115   -3.5139 H   0  0  0  0  0  0  0  0  0  0  0  0
    1.1316    6.2001   -2.2008 H   0  0  0  0  0  0  0  0  0  0  0  0
    2.6393    6.5634   -1.6520 H   0  0  0  0  0  0  0  0  0  0  0  0
    3.7079    1.8786   -4.1797 H   0  0  0  0  0  0  0  0  0  0  0  0
    3.5853   -0.0644   -2.6476 H   0  0  0  0  0  0  0  0  0  0  0  0
  1  2  1  0
  1 19  1  0
  1 20  1  0
  1 21  1  0
  2  3  1  0
  2 22  1  0
  2 23  1  0
  3  4  2  0
  3 18  1  0
  4  5  1  0
  4 24  1  0
  5  6  2  0
  5 25  1  0
  6  7  1  0
  6 17  1  0
  7  8  2  0
  7 15  1  0
  8  9  1  0
  9 10  1  0
  9 11  1  0
 11 12  1  0
 11 15  2  0
 12 13  2  0
 12 14  1  0
 14 26  1  0
 15 16  1  0
 16 27  1  0
 16 28  1  0
 17 18  2  0
 17 29  1  0
 18 30  1  0
M  END

