
     RDKit          3D

 32 31  0  0  0  0  0  0  0  0999 V2000
    0.8214   -0.3473   -0.3821 C   0  0  0  0  0  0  0  0  0  0  0  0
    2.3346   -0.1680   -0.2454 C   0  0  0  0  0  0  0  0  0  0  0  0
    2.9414   -1.0060    0.8861 C   0  0  0  0  0  0  0  0  0  0  0  0
    4.4796   -0.9513    1.0036 C   0  0  1  0  0  0  0  0  0  0  0  0
    4.9950    0.4454    1.3627 C   0  0  0  0  0  0  0  0  0  0  0  0
    5.0248   -1.9015    1.9842 N   0  0  0  0  0  0  0  0  0  0  0  0
    4.8195   -3.3392    1.7889 C   0  0  1  0  0  0  0  0  0  0  0  0
    5.2395   -3.8152    0.3923 C   0  0  0  0  0  0  0  0  0  0  0  0
    5.6237   -4.1488    2.8294 C   0  0  0  0  0  0  0  0  0  0  0  0
    5.3180   -5.2992    3.1013 O   0  0  0  0  0  0  0  0  0  0  0  0
    6.6923   -3.4901    3.3505 N   0  0  0  0  0  0  0  0  0  0  0  0
    7.6106   -4.0883    4.2911 C   0  0  0  0  0  0  0  0  0  0  0  0
    0.4137    0.2663   -1.2012 H   0  0  0  0  0  0  0  0  0  0  0  0
    0.2984   -0.0553    0.5440 H   0  0  0  0  0  0  0  0  0  0  0  0
    0.5582   -1.3980   -0.5900 H   0  0  0  0  0  0  0  0  0  0  0  0
    2.5588    0.9007   -0.0862 H   0  0  0  0  0  0  0  0  0  0  0  0
    2.8244   -0.4395   -1.1989 H   0  0  0  0  0  0  0  0  0  0  0  0
    2.6351   -2.0569    0.7413 H   0  0  0  0  0  0  0  0  0  0  0  0
    2.5018   -0.6954    1.8539 H   0  0  0  0  0  0  0  0  0  0  0  0
    4.9049   -1.2200    0.0215 H   0  0  0  0  0  0  0  0  0  0  0  0
    4.5927    0.7740    2.3374 H   0  0  0  0  0  0  0  0  0  0  0  0
    4.7020    1.1954    0.6134 H   0  0  0  0  0  0  0  0  0  0  0  0
    6.0929    0.4393    1.4345 H   0  0  0  0  0  0  0  0  0  0  0  0
    4.6756   -1.6444    2.9091 H   0  0  0  0  0  0  0  0  0  0  0  0
    3.7710   -3.6593    1.9509 H   0  0  0  0  0  0  0  0  0  0  0  0
    6.2709   -3.4994    0.1670 H   0  0  0  0  0  0  0  0  0  0  0  0
    4.5755   -3.4261   -0.3940 H   0  0  0  0  0  0  0  0  0  0  0  0
    5.1921   -4.9130    0.3614 H   0  0  0  0  0  0  0  0  0  0  0  0
    6.8264   -2.5423    3.0071 H   0  0  0  0  0  0  0  0  0  0  0  0
    7.2433   -5.0969    4.5244 H   0  0  0  0  0  0  0  0  0  0  0  0
    7.6712   -3.5062    5.2267 H   0  0  0  0  0  0  0  0  0  0  0  0
    8.6286   -4.1730    3.8719 H   0  0  0  0  0  0  0  0  0  0  0  0
  1  2  1  0
  1 13  1  0
  1 14  1  0
  1 15  1  0
  2  3  1  0
  2 16  1  0
  2 17  1  0
  3  4  1  0
  3 18  1  0
  3 19  1  0
  4  5  1  0
  4  6  1  0
  4 20  1  6
  5 21  1  0
  5 22  1  0
  5 23  1  0
  6  7  1  0
  6 24  1  0
  7  8  1  0
  7  9  1  0
  7 25  1  1
  8 26  1  0
  8 27  1  0
  8 28  1  0
  9 10  2  0
  9 11  1  0
 11 12  1  0
 11 29  1  0
 12 30  1  0
 12 31  1  0
 12 32  1  0
M  END

