
     RDKit          3D

 42 44  0  0  0  0  0  0  0  0999 V2000
    1.7499   -0.2731    0.4634 C   0  0  0  0  0  0  0  0  0  0  0  0
    2.4716   -0.2088   -0.8717 C   0  0  0  0  0  0  0  0  0  0  0  0
    3.0372    1.0985   -1.1049 O   0  0  0  0  0  0  0  0  0  0  0  0
    4.2474    1.3439   -0.6158 C   0  0  0  0  0  0  0  0  0  0  0  0
    4.9285    0.5651    0.0094 O   0  0  0  0  0  0  0  0  0  0  0  0
    4.7158    2.7848   -0.9427 C   0  0  0  0  0  0  0  0  0  0  0  0
    3.9621    3.5889   -1.4283 O   0  0  0  0  0  0  0  0  0  0  0  0
    6.1739    3.0542   -0.6285 C   0  0  0  0  0  0  0  0  0  0  0  0
    6.5521    4.5465   -0.6844 C   0  0  1  0  0  0  0  0  0  0  0  0
    6.1010    4.9254   -1.6146 H   0  0  0  0  0  0  0  0  0  0  0  0
    5.9446    5.3702    0.4368 C   0  0  0  0  0  0  0  0  0  0  0  0
    5.7959    6.7378    0.4811 C   0  0  0  0  0  0  0  0  0  0  0  0
    5.1598    7.2100    1.6686 C   0  0  0  0  0  0  0  0  0  0  0  0
    4.8241    6.1965    2.5280 C   0  0  0  0  0  0  0  0  0  0  0  0
    5.2783    4.6513    1.8949 S   0  0  0  0  0  0  0  0  0  0  0  0
    8.0597    4.7211   -0.8634 C   0  0  0  0  0  0  0  0  0  0  0  0
    8.9776    4.9950    0.1241 C   0  0  0  0  0  0  0  0  0  0  0  0
    8.6902    5.1834    1.4169 O   0  0  0  0  0  0  0  0  0  0  0  0
   10.3921    5.1133   -0.1980 C   0  0  0  0  0  0  0  0  0  0  0  0
   11.3796    5.4113    0.7619 C   0  0  0  0  0  0  0  0  0  0  0  0
   12.7142    5.5150    0.3869 C   0  0  0  0  0  0  0  0  0  0  0  0
   13.0833    5.3227   -0.9553 C   0  0  0  0  0  0  0  0  0  0  0  0
   12.1230    5.0273   -1.9187 C   0  0  0  0  0  0  0  0  0  0  0  0
   10.7802    4.9229   -1.5359 C   0  0  0  0  0  0  0  0  0  0  0  0
    9.8700    4.6322   -2.4968 O   0  0  0  0  0  0  0  0  0  0  0  0
    8.5168    4.4963   -2.2357 C   0  0  0  0  0  0  0  0  0  0  0  0
    7.8009    4.1927   -3.1608 O   0  0  0  0  0  0  0  0  0  0  0  0
    1.2613   -1.2544    0.5739 H   0  0  0  0  0  0  0  0  0  0  0  0
    0.9761    0.5071    0.5300 H   0  0  0  0  0  0  0  0  0  0  0  0
    2.4549   -0.1477    1.2986 H   0  0  0  0  0  0  0  0  0  0  0  0
    1.7783   -0.3614   -1.7106 H   0  0  0  0  0  0  0  0  0  0  0  0
    3.2760   -0.9575   -0.9248 H   0  0  0  0  0  0  0  0  0  0  0  0
    6.7466    2.5132   -1.4024 H   0  0  0  0  0  0  0  0  0  0  0  0
    6.4486    2.5704    0.3223 H   0  0  0  0  0  0  0  0  0  0  0  0
    6.1325    7.3888   -0.3280 H   0  0  0  0  0  0  0  0  0  0  0  0
    4.9571    8.2623    1.8738 H   0  0  0  0  0  0  0  0  0  0  0  0
    4.3318    6.2639    3.4971 H   0  0  0  0  0  0  0  0  0  0  0  0
    7.7267    5.1921    1.5543 H   0  0  0  0  0  0  0  0  0  0  0  0
   11.0729    5.5577    1.7981 H   0  0  0  0  0  0  0  0  0  0  0  0
   13.4752    5.7462    1.1353 H   0  0  0  0  0  0  0  0  0  0  0  0
   14.1324    5.4048   -1.2497 H   0  0  0  0  0  0  0  0  0  0  0  0
   12.3825    4.8730   -2.9673 H   0  0  0  0  0  0  0  0  0  0  0  0
  1  2  1  0
  1 28  1  0
  1 29  1  0
  1 30  1  0
  2  3  1  0
  2 31  1  0
  2 32  1  0
  3  4  1  0
  4  5  2  0
  4  6  1  0
  6  7  2  0
  6  8  1  0
  8  9  1  0
  8 33  1  0
  8 34  1  0
  9 10  1  6
  9 11  1  0
  9 16  1  0
 11 12  2  0
 11 15  1  0
 12 13  1  0
 12 35  1  0
 13 14  2  0
 13 36  1  0
 14 15  1  0
 14 37  1  0
 16 17  2  0
 16 26  1  0
 17 18  1  0
 17 19  1  0
 18 38  1  0
 19 20  2  0
 19 24  1  0
 20 21  1  0
 20 39  1  0
 21 22  2  0
 21 40  1  0
 22 23  1  0
 22 41  1  0
 23 24  2  0
 23 42  1  0
 24 25  1  0
 25 26  1  0
 26 27  2  0
M  END

