
     RDKit          3D

 48 50  0  0  0  0  0  0  0  0999 V2000
   -0.5714   -3.9130    4.1261 C   0  0  0  0  0  0  0  0  0  0  0  0
    0.5492   -3.2022    3.4001 C   0  0  0  0  0  0  0  0  0  0  0  0
    0.6280   -1.8027    3.4688 C   0  0  0  0  0  0  0  0  0  0  0  0
    1.6423   -1.1072    2.8127 C   0  0  0  0  0  0  0  0  0  0  0  0
    2.6045   -1.7903    2.0721 C   0  0  0  0  0  0  0  0  0  0  0  0
    2.5400   -3.1905    1.9943 C   0  0  0  0  0  0  0  0  0  0  0  0
    3.4923   -3.9352    1.2589 N   0  0  0  0  0  0  0  0  0  0  0  0
    4.5366   -3.4985    0.4948 C   0  0  0  0  0  0  0  0  0  0  0  0
    4.8532   -2.3396    0.2935 O   0  0  0  0  0  0  0  0  0  0  0  0
    5.4085   -4.6199   -0.1113 C   0  0  1  0  0  0  0  0  0  0  0  0
    6.7493   -4.6813    0.6635 C   0  0  0  0  0  0  0  0  0  0  0  0
    7.3652   -6.3923    0.4802 S   0  0  0  0  0  0  0  0  0  0  0  0
    5.6302   -6.9453    0.6635 C   0  0  0  0  0  0  0  0  0  0  0  0
    4.8334   -5.9748   -0.0901 N   0  0  0  0  0  0  0  0  0  0  0  0
    3.9331   -6.4635   -1.0286 C   0  0  0  0  0  0  0  0  0  0  0  0
    3.6469   -7.6494   -1.0648 O   0  0  0  0  0  0  0  0  0  0  0  0
    3.3141   -5.4817   -2.0245 C   0  0  1  0  0  0  0  0  0  0  0  0
    4.0568   -5.5558   -3.3790 C   0  0  0  0  0  0  0  0  0  0  0  0
    3.8824   -6.9152   -4.0535 C   0  0  0  0  0  0  0  0  0  0  0  0
    2.4810   -7.3029   -4.1003 N   0  0  0  0  0  0  0  0  0  0  0  0
    1.5302   -7.0000   -3.1600 C   0  0  0  0  0  0  0  0  0  0  0  0
    0.4590   -7.5763   -3.1145 O   0  0  0  0  0  0  0  0  0  0  0  0
    1.8282   -5.8096   -2.2510 C   0  0  0  0  0  0  0  0  0  0  0  0
    1.5144   -3.9134    2.6542 C   0  0  0  0  0  0  0  0  0  0  0  0
    1.4750   -5.4215    2.5415 C   0  0  0  0  0  0  0  0  0  0  0  0
   -1.2153   -3.1904    4.6475 H   0  0  0  0  0  0  0  0  0  0  0  0
   -0.1925   -4.6216    4.8815 H   0  0  0  0  0  0  0  0  0  0  0  0
   -1.2123   -4.4882    3.4371 H   0  0  0  0  0  0  0  0  0  0  0  0
   -0.1214   -1.2552    4.0463 H   0  0  0  0  0  0  0  0  0  0  0  0
    1.6879   -0.0171    2.8759 H   0  0  0  0  0  0  0  0  0  0  0  0
    3.4004   -1.2637    1.5513 H   0  0  0  0  0  0  0  0  0  0  0  0
    3.3863   -4.9434    1.2785 H   0  0  0  0  0  0  0  0  0  0  0  0
    5.6168   -4.3066   -1.1446 H   0  0  0  0  0  0  0  0  0  0  0  0
    6.5942   -4.4566    1.7308 H   0  0  0  0  0  0  0  0  0  0  0  0
    7.4746   -3.9622    0.2629 H   0  0  0  0  0  0  0  0  0  0  0  0
    5.3511   -6.9536    1.7307 H   0  0  0  0  0  0  0  0  0  0  0  0
    5.4787   -7.9479    0.2464 H   0  0  0  0  0  0  0  0  0  0  0  0
    3.3862   -4.4539   -1.6448 H   0  0  0  0  0  0  0  0  0  0  0  0
    5.1325   -5.3486   -3.2579 H   0  0  0  0  0  0  0  0  0  0  0  0
    3.6487   -4.7648   -4.0301 H   0  0  0  0  0  0  0  0  0  0  0  0
    4.4782   -7.6782   -3.5196 H   0  0  0  0  0  0  0  0  0  0  0  0
    4.2720   -6.8613   -5.0838 H   0  0  0  0  0  0  0  0  0  0  0  0
    2.2416   -8.1221   -4.6522 H   0  0  0  0  0  0  0  0  0  0  0  0
    1.2932   -5.9919   -1.3086 H   0  0  0  0  0  0  0  0  0  0  0  0
    1.3428   -4.9377   -2.7226 H   0  0  0  0  0  0  0  0  0  0  0  0
    2.3938   -5.8894    2.9394 H   0  0  0  0  0  0  0  0  0  0  0  0
    1.3675   -5.7554    1.4940 H   0  0  0  0  0  0  0  0  0  0  0  0
    0.6371   -5.8578    3.0962 H   0  0  0  0  0  0  0  0  0  0  0  0
  1  2  1  0
  1 26  1  0
  1 27  1  0
  1 28  1  0
  2  3  2  0
  2 24  1  0
  3  4  1  0
  3 29  1  0
  4  5  2  0
  4 30  1  0
  5  6  1  0
  5 31  1  0
  6  7  1  0
  6 24  2  0
  7  8  1  0
  7 32  1  0
  8  9  2  0
  8 10  1  0
 10 11  1  0
 10 14  1  0
 10 33  1  6
 11 12  1  0
 11 34  1  0
 11 35  1  0
 12 13  1  0
 13 14  1  0
 13 36  1  0
 13 37  1  0
 14 15  1  0
 15 16  2  0
 15 17  1  0
 17 18  1  0
 17 23  1  0
 17 38  1  1
 18 19  1  0
 18 39  1  0
 18 40  1  0
 19 20  1  0
 19 41  1  0
 19 42  1  0
 20 21  1  0
 20 43  1  0
 21 22  2  0
 21 23  1  0
 23 44  1  0
 23 45  1  0
 24 25  1  0
 25 46  1  0
 25 47  1  0
 25 48  1  0
M  END

