
     RDKit          3D

 25 25  0  0  0  0  0  0  0  0999 V2000
    1.3578   -0.3822   -0.7381 C   0  0  0  0  0  0  0  0  0  0  0  0
    2.2677    0.1165    0.2168 O   0  0  0  0  0  0  0  0  0  0  0  0
    2.9473   -0.7655    0.9967 C   0  0  0  0  0  0  0  0  0  0  0  0
    3.8409   -0.2168    1.9307 C   0  0  0  0  0  0  0  0  0  0  0  0
    4.5800   -1.0418    2.7711 C   0  0  0  0  0  0  0  0  0  0  0  0
    4.4512   -2.4423    2.7084 C   0  0  0  0  0  0  0  0  0  0  0  0
    5.1620   -3.2769    3.5137 O   0  0  0  0  0  0  0  0  0  0  0  0
    6.0503   -2.7453    4.4712 C   0  0  0  0  0  0  0  0  0  0  0  0
    3.5538   -3.0096    1.7724 C   0  0  0  0  0  0  0  0  0  0  0  0
    3.2930   -4.4844    1.5720 C   0  0  0  0  0  0  0  0  0  0  0  0
    4.0075   -5.5259    2.4065 C   0  0  0  0  0  0  0  0  0  0  0  0
    2.4929   -4.8366    0.7227 O   0  0  0  0  0  0  0  0  0  0  0  0
    2.8175   -2.1523    0.9314 C   0  0  0  0  0  0  0  0  0  0  0  0
    0.9295    0.4911   -1.2483 H   0  0  0  0  0  0  0  0  0  0  0  0
    0.5413   -0.9591   -0.2673 H   0  0  0  0  0  0  0  0  0  0  0  0
    1.8563   -1.0258   -1.4854 H   0  0  0  0  0  0  0  0  0  0  0  0
    3.9431    0.8693    1.9829 H   0  0  0  0  0  0  0  0  0  0  0  0
    5.2654   -0.5829    3.4831 H   0  0  0  0  0  0  0  0  0  0  0  0
    6.4865   -3.6038    4.9994 H   0  0  0  0  0  0  0  0  0  0  0  0
    5.5301   -2.1018    5.2030 H   0  0  0  0  0  0  0  0  0  0  0  0
    6.8640   -2.1645    4.0010 H   0  0  0  0  0  0  0  0  0  0  0  0
    5.0978   -5.4466    2.2820 H   0  0  0  0  0  0  0  0  0  0  0  0
    3.6577   -6.5165    2.0880 H   0  0  0  0  0  0  0  0  0  0  0  0
    3.8126   -5.3746    3.4785 H   0  0  0  0  0  0  0  0  0  0  0  0
    2.1430   -2.6419    0.2299 H   0  0  0  0  0  0  0  0  0  0  0  0
  1  2  1  0
  1 14  1  0
  1 15  1  0
  1 16  1  0
  2  3  1  0
  3  4  2  0
  3 13  1  0
  4  5  1  0
  4 17  1  0
  5  6  2  0
  5 18  1  0
  6  7  1  0
  6  9  1  0
  7  8  1  0
  8 19  1  0
  8 20  1  0
  8 21  1  0
  9 10  1  0
  9 13  2  0
 10 11  1  0
 10 12  2  0
 11 22  1  0
 11 23  1  0
 11 24  1  0
 13 25  1  0
M  END

