
     RDKit          3D

 42 44  0  0  0  0  0  0  0  0999 V2000
    2.1937   -1.9402   -1.0767 C   0  0  0  0  0  0  0  0  0  0  0  0
    1.9774   -0.5574   -0.4942 C   0  0  0  0  0  0  0  0  0  0  0  0
    1.1757   -0.3822    0.4041 O   0  0  0  0  0  0  0  0  0  0  0  0
    2.7709    0.5948   -1.0435 C   0  0  0  0  0  0  0  0  0  0  0  0
    3.7833    0.3995   -2.0316 C   0  0  0  0  0  0  0  0  0  0  0  0
    4.5219    1.3525   -2.5443 N   0  0  0  0  0  0  0  0  0  0  0  0
    4.3152    2.6292   -2.1206 C   0  0  0  0  0  0  0  0  0  0  0  0
    5.1148    3.6658   -2.6751 C   0  0  0  0  0  0  0  0  0  0  0  0
    4.9351    4.9736   -2.2790 C   0  0  0  0  0  0  0  0  0  0  0  0
    3.9484    5.3041   -1.3140 C   0  0  0  0  0  0  0  0  0  0  0  0
    3.1580    4.3232   -0.7551 C   0  0  0  0  0  0  0  0  0  0  0  0
    3.3200    2.9603   -1.1400 C   0  0  0  0  0  0  0  0  0  0  0  0
    2.5448    1.8954   -0.5947 C   0  0  0  0  0  0  0  0  0  0  0  0
    1.4421    2.2361    0.3849 C   0  0  0  0  0  0  0  0  0  0  0  0
    0.3377    2.6098    0.0198 O   0  0  0  0  0  0  0  0  0  0  0  0
    1.8133    2.2435    1.6950 N   0  0  0  0  0  0  0  0  0  0  0  0
    0.7958    2.4226    2.6313 N   0  0  0  0  0  0  0  0  0  0  0  0
    0.9144    1.6579    3.7842 C   0  0  0  0  0  0  0  0  0  0  0  0
    1.9463    1.0607    4.0460 O   0  0  0  0  0  0  0  0  0  0  0  0
   -0.2086    1.7176    4.5828 N   0  0  0  0  0  0  0  0  0  0  0  0
   -0.4278    1.0985    5.8253 C   0  0  0  0  0  0  0  0  0  0  0  0
    0.5193    0.2749    6.4606 C   0  0  0  0  0  0  0  0  0  0  0  0
    0.2058   -0.2990    7.6942 C   0  0  0  0  0  0  0  0  0  0  0  0
   -1.0235   -0.0791    8.3202 C   0  0  0  0  0  0  0  0  0  0  0  0
   -1.9526    0.7416    7.6766 C   0  0  0  0  0  0  0  0  0  0  0  0
   -3.5064    1.0461    8.4234 Cl  0  0  0  0  0  0  0  0  0  0  0  0
   -1.6706    1.3282    6.4440 C   0  0  0  0  0  0  0  0  0  0  0  0
    1.5095   -2.6381   -0.5782 H   0  0  0  0  0  0  0  0  0  0  0  0
    3.2317   -2.2767   -0.9223 H   0  0  0  0  0  0  0  0  0  0  0  0
    2.0045   -1.9498   -2.1620 H   0  0  0  0  0  0  0  0  0  0  0  0
    3.9813   -0.6121   -2.4027 H   0  0  0  0  0  0  0  0  0  0  0  0
    5.8627    3.3810   -3.4172 H   0  0  0  0  0  0  0  0  0  0  0  0
    5.5528    5.7655   -2.7100 H   0  0  0  0  0  0  0  0  0  0  0  0
    3.8148    6.3463   -1.0146 H   0  0  0  0  0  0  0  0  0  0  0  0
    2.3946    4.5861   -0.0210 H   0  0  0  0  0  0  0  0  0  0  0  0
    2.5703    1.6635    2.0564 H   0  0  0  0  0  0  0  0  0  0  0  0
   -0.0988    2.5364    2.1506 H   0  0  0  0  0  0  0  0  0  0  0  0
   -0.9599    2.3172    4.2615 H   0  0  0  0  0  0  0  0  0  0  0  0
    1.4807    0.0995    5.9847 H   0  0  0  0  0  0  0  0  0  0  0  0
    0.9463   -0.9377    8.1824 H   0  0  0  0  0  0  0  0  0  0  0  0
   -1.2625   -0.5295    9.2842 H   0  0  0  0  0  0  0  0  0  0  0  0
   -2.4217    1.9625    5.9680 H   0  0  0  0  0  0  0  0  0  0  0  0
  1  2  1  0
  1 28  1  0
  1 29  1  0
  1 30  1  0
  2  3  2  0
  2  4  1  0
  4  5  2  0
  4 13  1  0
  5  6  1  0
  5 31  1  0
  6  7  2  0
  7  8  1  0
  7 12  1  0
  8  9  2  0
  8 32  1  0
  9 10  1  0
  9 33  1  0
 10 11  2  0
 10 34  1  0
 11 12  1  0
 11 35  1  0
 12 13  2  0
 13 14  1  0
 14 15  2  0
 14 16  1  0
 16 17  1  0
 16 36  1  0
 17 18  1  0
 17 37  1  0
 18 19  2  0
 18 20  1  0
 20 21  1  0
 20 38  1  0
 21 22  2  0
 21 27  1  0
 22 23  1  0
 22 39  1  0
 23 24  2  0
 23 40  1  0
 24 25  1  0
 24 41  1  0
 25 26  1  0
 25 27  2  0
 27 42  1  0
M  END

