
     RDKit          3D

 30 31  0  0  0  0  0  0  0  0999 V2000
    4.9309   -2.2098    0.3234 C   0  0  0  0  0  0  0  0  0  0  0  0
    4.1547   -0.9163    0.2460 C   0  0  0  0  0  0  0  0  0  0  0  0
    4.8281    0.3105    0.2862 C   0  0  0  0  0  0  0  0  0  0  0  0
    4.1416    1.5291    0.2156 C   0  0  0  0  0  0  0  0  0  0  0  0
    4.7751    2.7320    0.2515 O   0  0  0  0  0  0  0  0  0  0  0  0
    2.7471    1.5178    0.1022 C   0  0  0  0  0  0  0  0  0  0  0  0
    2.0546    0.3104    0.0619 C   0  0  0  0  0  0  0  0  0  0  0  0
    2.7440   -0.9133    0.1330 C   0  0  0  0  0  0  0  0  0  0  0  0
    2.0841   -2.1640    0.1046 N   0  0  0  0  0  0  0  0  0  0  0  0
    0.7572   -2.4323   -0.1086 C   0  0  0  0  0  0  0  0  0  0  0  0
   -0.1083   -1.5931   -0.2740 O   0  0  0  0  0  0  0  0  0  0  0  0
    0.4089   -3.9083   -0.1068 C   0  0  0  0  0  0  0  0  0  0  0  0
   -0.7818   -4.3510    0.4981 C   0  0  0  0  0  0  0  0  0  0  0  0
   -1.5320   -3.4864    1.1726 F   0  0  0  0  0  0  0  0  0  0  0  0
   -1.2096   -5.6763    0.4505 C   0  0  0  0  0  0  0  0  0  0  0  0
   -0.4273   -6.6071   -0.2351 C   0  0  0  0  0  0  0  0  0  0  0  0
   -0.9910   -8.4186   -0.3223 Br  0  0  0  0  0  0  0  0  0  0  0  0
    0.7666   -6.2305   -0.8530 C   0  0  0  0  0  0  0  0  0  0  0  0
    1.1522   -4.8962   -0.7686 C   0  0  0  0  0  0  0  0  0  0  0  0
    2.3120   -4.5502   -1.3579 F   0  0  0  0  0  0  0  0  0  0  0  0
    6.0129   -2.0208    0.3543 H   0  0  0  0  0  0  0  0  0  0  0  0
    4.7368   -2.8614   -0.5465 H   0  0  0  0  0  0  0  0  0  0  0  0
    4.6776   -2.7894    1.2297 H   0  0  0  0  0  0  0  0  0  0  0  0
    5.9199    0.3124    0.3728 H   0  0  0  0  0  0  0  0  0  0  0  0
    5.7279    2.5928    0.3274 H   0  0  0  0  0  0  0  0  0  0  0  0
    2.2129    2.4682    0.0456 H   0  0  0  0  0  0  0  0  0  0  0  0
    0.9713    0.2992   -0.0299 H   0  0  0  0  0  0  0  0  0  0  0  0
    2.6878   -2.9711    0.1860 H   0  0  0  0  0  0  0  0  0  0  0  0
   -2.1383   -5.9543    0.9483 H   0  0  0  0  0  0  0  0  0  0  0  0
    1.3924   -6.9403   -1.3934 H   0  0  0  0  0  0  0  0  0  0  0  0
  1  2  1  0
  1 21  1  0
  1 22  1  0
  1 23  1  0
  2  3  2  0
  2  8  1  0
  3  4  1  0
  3 24  1  0
  4  5  1  0
  4  6  2  0
  5 25  1  0
  6  7  1  0
  6 26  1  0
  7  8  2  0
  7 27  1  0
  8  9  1  0
  9 10  1  0
  9 28  1  0
 10 11  2  0
 10 12  1  0
 12 13  2  0
 12 19  1  0
 13 14  1  0
 13 15  1  0
 15 16  2  0
 15 29  1  0
 16 17  1  0
 16 18  1  0
 18 19  2  0
 18 30  1  0
 19 20  1  0
M  END

