
     RDKit          3D

 50 52  0  0  0  0  0  0  0  0999 V2000
    7.6210    0.9783   -4.8779 C   0  0  0  0  0  0  0  0  0  0  0  0
    8.0046    0.2893   -3.6035 C   0  0  0  0  0  0  0  0  0  0  0  0
    9.2580    0.2966   -2.9346 C   0  0  0  0  0  0  0  0  0  0  0  0
    9.0781   -0.4870   -1.8040 C   0  0  0  0  0  0  0  0  0  0  0  0
   10.0274   -0.8555   -0.7078 C   0  0  0  0  0  0  0  0  0  0  0  0
    7.7751   -0.9013   -1.8439 N   0  0  0  0  0  0  0  0  0  0  0  0
    7.0944   -1.8153   -0.9462 C   0  0  0  0  0  0  0  0  0  0  0  0
    7.1118   -3.2632   -1.4448 C   0  0  0  0  0  0  0  0  0  0  0  0
    6.3619   -4.2069   -0.4983 C   0  0  0  0  0  0  0  0  0  0  0  0
    6.4448   -5.6053   -0.8824 N   0  0  0  0  0  0  0  0  0  0  0  0
    7.4777   -6.4380   -0.5507 C   0  0  0  0  0  0  0  0  0  0  0  0
    8.7551   -5.9474    0.4181 S   0  0  0  0  0  0  0  0  0  0  0  0
    7.3316   -7.6932   -1.0807 N   0  0  0  0  0  0  0  0  0  0  0  0
    8.1504   -8.8228   -1.0156 C   0  0  0  0  0  0  0  0  0  0  0  0
    9.4009   -9.0613   -0.3857 C   0  0  0  0  0  0  0  0  0  0  0  0
    9.6745  -10.3820   -0.6947 C   0  0  0  0  0  0  0  0  0  0  0  0
    8.6350  -10.8494   -1.4367 N   0  0  0  0  0  0  0  0  0  0  0  0
    8.5007  -12.1459   -2.0768 C   0  0  0  0  0  0  0  0  0  0  0  0
    8.8643  -12.1248   -3.5476 C   0  0  0  0  0  0  0  0  0  0  0  0
   10.2031  -12.1649   -3.9511 C   0  0  0  0  0  0  0  0  0  0  0  0
   11.1655  -12.2609   -3.0256 F   0  0  0  0  0  0  0  0  0  0  0  0
   10.5559  -12.1147   -5.3007 C   0  0  0  0  0  0  0  0  0  0  0  0
   11.8430  -12.1611   -5.6439 F   0  0  0  0  0  0  0  0  0  0  0  0
    9.5707  -12.0173   -6.2801 C   0  0  0  0  0  0  0  0  0  0  0  0
    8.2349  -11.9777   -5.8927 C   0  0  0  0  0  0  0  0  0  0  0  0
    7.2729  -11.8903   -6.8115 F   0  0  0  0  0  0  0  0  0  0  0  0
    7.8839  -12.0279   -4.5401 C   0  0  0  0  0  0  0  0  0  0  0  0
    6.5931  -12.0001   -4.2055 F   0  0  0  0  0  0  0  0  0  0  0  0
    7.7009   -9.9052   -1.6513 N   0  0  0  0  0  0  0  0  0  0  0  0
    7.1213   -0.4454   -2.9320 N   0  0  0  0  0  0  0  0  0  0  0  0
    8.2566    0.6564   -5.7196 H   0  0  0  0  0  0  0  0  0  0  0  0
    7.7225    2.0733   -4.7939 H   0  0  0  0  0  0  0  0  0  0  0  0
    6.5753    0.7470   -5.1253 H   0  0  0  0  0  0  0  0  0  0  0  0
   10.1719    0.8085   -3.2296 H   0  0  0  0  0  0  0  0  0  0  0  0
   11.0204   -0.4353   -0.9185 H   0  0  0  0  0  0  0  0  0  0  0  0
   10.1405   -1.9473   -0.6008 H   0  0  0  0  0  0  0  0  0  0  0  0
    9.7014   -0.4628    0.2708 H   0  0  0  0  0  0  0  0  0  0  0  0
    6.0595   -1.4531   -0.8422 H   0  0  0  0  0  0  0  0  0  0  0  0
    7.5695   -1.7476    0.0446 H   0  0  0  0  0  0  0  0  0  0  0  0
    8.1534   -3.6110   -1.5292 H   0  0  0  0  0  0  0  0  0  0  0  0
    6.6676   -3.2933   -2.4537 H   0  0  0  0  0  0  0  0  0  0  0  0
    5.2934   -3.9367   -0.4480 H   0  0  0  0  0  0  0  0  0  0  0  0
    6.7772   -4.1237    0.5175 H   0  0  0  0  0  0  0  0  0  0  0  0
    5.7786   -5.9243   -1.5784 H   0  0  0  0  0  0  0  0  0  0  0  0
    6.4839   -7.8872   -1.6083 H   0  0  0  0  0  0  0  0  0  0  0  0
    9.9828   -8.3650    0.2054 H   0  0  0  0  0  0  0  0  0  0  0  0
   10.5255  -11.0120   -0.4451 H   0  0  0  0  0  0  0  0  0  0  0  0
    7.4600  -12.4741   -1.9595 H   0  0  0  0  0  0  0  0  0  0  0  0
    9.1538  -12.8486   -1.5423 H   0  0  0  0  0  0  0  0  0  0  0  0
    9.8422  -11.9761   -7.3357 H   0  0  0  0  0  0  0  0  0  0  0  0
  1  2  1  0
  1 31  1  0
  1 32  1  0
  1 33  1  0
  2  3  1  0
  2 30  2  0
  3  4  2  0
  3 34  1  0
  4  5  1  0
  4  6  1  0
  5 35  1  0
  5 36  1  0
  5 37  1  0
  6  7  1  0
  6 30  1  0
  7  8  1  0
  7 38  1  0
  7 39  1  0
  8  9  1  0
  8 40  1  0
  8 41  1  0
  9 10  1  0
  9 42  1  0
  9 43  1  0
 10 11  1  0
 10 44  1  0
 11 12  2  0
 11 13  1  0
 13 14  1  0
 13 45  1  0
 14 15  1  0
 14 29  2  0
 15 16  2  0
 15 46  1  0
 16 17  1  0
 16 47  1  0
 17 18  1  0
 17 29  1  0
 18 19  1  0
 18 48  1  0
 18 49  1  0
 19 20  2  0
 19 27  1  0
 20 21  1  0
 20 22  1  0
 22 23  1  0
 22 24  2  0
 24 25  1  0
 24 50  1  0
 25 26  1  0
 25 27  2  0
 27 28  1  0
M  END

