
     RDKit          3D

 62 63  0  0  0  0  0  0  0  0999 V2000
    7.3471    1.3904   -1.7001 C   0  0  0  0  0  0  0  0  0  0  0  0
    6.6746    0.0193   -1.7748 C   0  0  0  0  0  0  0  0  0  0  0  0
    5.4535   -0.0828   -0.8514 C   0  0  0  0  0  0  0  0  0  0  0  0
    4.6824   -1.4096   -0.8655 C   0  0  2  0  0  0  0  0  0  0  0  0
    3.9670   -1.4376   -0.0310 H   0  0  0  0  0  0  0  0  0  0  0  0
    5.8523   -2.8072   -0.5002 S   0  0  0  0  0  0  0  0  0  0  0  0
    4.8739   -3.8718    0.5357 C   0  0  0  0  0  0  0  0  0  0  0  0
    3.5880   -3.6932    0.6649 N   0  0  0  0  0  0  0  0  0  0  0  0
    2.8723   -4.5190    1.4967 C   0  0  0  0  0  0  0  0  0  0  0  0
    1.4000   -4.2151    1.5971 C   0  0  0  0  0  0  0  0  0  0  0  0
    3.4605   -5.5599    2.1795 C   0  0  0  0  0  0  0  0  0  0  0  0
    2.7089   -6.5097    3.0901 C   0  0  0  0  0  0  0  0  0  0  0  0
    2.5710   -6.0313    4.5297 C   0  0  0  0  0  0  0  0  0  0  0  0
    1.3128   -5.7329    5.0739 C   0  0  0  0  0  0  0  0  0  0  0  0
    1.1851   -5.2925    6.3962 C   0  0  0  0  0  0  0  0  0  0  0  0
    2.3196   -5.1444    7.1968 C   0  0  0  0  0  0  0  0  0  0  0  0
    3.5795   -5.4461    6.6676 C   0  0  0  0  0  0  0  0  0  0  0  0
    3.7053   -5.8864    5.3483 C   0  0  0  0  0  0  0  0  0  0  0  0
    4.8903   -5.7822    2.0408 C   0  0  0  0  0  0  0  0  0  0  0  0
    5.5277   -6.6584    2.6085 O   0  0  0  0  0  0  0  0  0  0  0  0
    5.5612   -4.8694    1.1668 N   0  0  0  0  0  0  0  0  0  0  0  0
    7.0047   -5.0397    0.9953 C   0  0  0  0  0  0  0  0  0  0  0  0
    3.8980   -1.6534   -2.1738 C   0  0  0  0  0  0  0  0  0  0  0  0
    4.0923   -0.9906   -3.1823 O   0  0  0  0  0  0  0  0  0  0  0  0
    2.9598   -2.6290   -2.0851 N   0  0  0  0  0  0  0  0  0  0  0  0
    2.1388   -3.0145   -3.2230 C   0  0  0  0  0  0  0  0  0  0  0  0
    2.8282   -3.9733   -4.2055 C   0  0  0  0  0  0  0  0  0  0  0  0
    3.3017   -5.3180   -3.6252 C   0  0  1  0  0  0  0  0  0  0  0  0
    2.1467   -6.1714   -3.0837 C   0  0  0  0  0  0  0  0  0  0  0  0
    4.1098   -6.0969   -4.6710 C   0  0  0  0  0  0  0  0  0  0  0  0
    8.2247    1.4421   -2.3637 H   0  0  0  0  0  0  0  0  0  0  0  0
    7.6896    1.6210   -0.6767 H   0  0  0  0  0  0  0  0  0  0  0  0
    6.6539    2.1920   -2.0052 H   0  0  0  0  0  0  0  0  0  0  0  0
    7.4099   -0.7592   -1.5014 H   0  0  0  0  0  0  0  0  0  0  0  0
    6.3546   -0.1899   -2.8059 H   0  0  0  0  0  0  0  0  0  0  0  0
    4.7295    0.7025   -1.1285 H   0  0  0  0  0  0  0  0  0  0  0  0
    5.7602    0.1211    0.1890 H   0  0  0  0  0  0  0  0  0  0  0  0
    1.1642   -3.3030    1.0337 H   0  0  0  0  0  0  0  0  0  0  0  0
    1.0950   -4.0722    2.6449 H   0  0  0  0  0  0  0  0  0  0  0  0
    0.7930   -5.0432    1.1936 H   0  0  0  0  0  0  0  0  0  0  0  0
    3.2544   -7.4660    3.0852 H   0  0  0  0  0  0  0  0  0  0  0  0
    1.7067   -6.7035    2.6799 H   0  0  0  0  0  0  0  0  0  0  0  0
    0.4160   -5.8578    4.4595 H   0  0  0  0  0  0  0  0  0  0  0  0
    0.1943   -5.0681    6.8002 H   0  0  0  0  0  0  0  0  0  0  0  0
    2.2236   -4.8013    8.2302 H   0  0  0  0  0  0  0  0  0  0  0  0
    4.4723   -5.3436    7.2905 H   0  0  0  0  0  0  0  0  0  0  0  0
    4.6887   -6.1359    4.9425 H   0  0  0  0  0  0  0  0  0  0  0  0
    7.2984   -5.9016    1.6043 H   0  0  0  0  0  0  0  0  0  0  0  0
    7.5404   -4.1393    1.3312 H   0  0  0  0  0  0  0  0  0  0  0  0
    7.2478   -5.2279   -0.0613 H   0  0  0  0  0  0  0  0  0  0  0  0
    2.8817   -3.1196   -1.1928 H   0  0  0  0  0  0  0  0  0  0  0  0
    1.8631   -2.0969   -3.7654 H   0  0  0  0  0  0  0  0  0  0  0  0
    1.2088   -3.4543   -2.8299 H   0  0  0  0  0  0  0  0  0  0  0  0
    3.6914   -3.4426   -4.6404 H   0  0  0  0  0  0  0  0  0  0  0  0
    2.1290   -4.1628   -5.0416 H   0  0  0  0  0  0  0  0  0  0  0  0
    3.9814   -5.0903   -2.7829 H   0  0  0  0  0  0  0  0  0  0  0  0
    1.4200   -6.4051   -3.8814 H   0  0  0  0  0  0  0  0  0  0  0  0
    1.5972   -5.6681   -2.2719 H   0  0  0  0  0  0  0  0  0  0  0  0
    2.5155   -7.1290   -2.6815 H   0  0  0  0  0  0  0  0  0  0  0  0
    3.4849   -6.3517   -5.5446 H   0  0  0  0  0  0  0  0  0  0  0  0
    4.5010   -7.0406   -4.2569 H   0  0  0  0  0  0  0  0  0  0  0  0
    4.9668   -5.5085   -5.0369 H   0  0  0  0  0  0  0  0  0  0  0  0
  1  2  1  0
  1 31  1  0
  1 32  1  0
  1 33  1  0
  2  3  1  0
  2 34  1  0
  2 35  1  0
  3  4  1  0
  3 36  1  0
  3 37  1  0
  4  5  1  1
  4  6  1  0
  4 23  1  0
  6  7  2  0
  7  8  1  0
  7 21  1  0
  8  9  2  0
  9 10  1  0
  9 11  1  0
 10 38  1  0
 10 39  1  0
 10 40  1  0
 11 12  1  0
 11 19  2  0
 12 13  1  0
 12 41  1  0
 12 42  1  0
 13 14  2  0
 13 18  1  0
 14 15  1  0
 14 43  1  0
 15 16  2  0
 15 44  1  0
 16 17  1  0
 16 45  1  0
 17 18  2  0
 17 46  1  0
 18 47  1  0
 19 20  1  0
 19 21  1  0
 21 22  1  0
 22 48  1  0
 22 49  1  0
 22 50  1  0
 23 24  2  0
 23 25  1  0
 25 26  1  0
 25 51  1  0
 26 27  1  0
 26 52  1  0
 26 53  1  0
 27 28  1  0
 27 54  1  0
 27 55  1  0
 28 29  1  0
 28 30  1  0
 28 56  1  1
 29 57  1  0
 29 58  1  0
 29 59  1  0
 30 60  1  0
 30 61  1  0
 30 62  1  0
M  CHG  2   6   1  20  -1
M  END

