
     RDKit          3D

 37 39  0  0  0  0  0  0  0  0999 V2000
    1.2208   -1.6087   -2.3642 C   0  0  0  0  0  0  0  0  0  0  0  0
    2.6330   -1.4796   -2.2028 O   0  0  0  0  0  0  0  0  0  0  0  0
    3.0462   -0.8020   -1.1109 C   0  0  0  0  0  0  0  0  0  0  0  0
    2.2810   -0.3008   -0.3247 O   0  0  0  0  0  0  0  0  0  0  0  0
    4.5437   -0.8092   -0.9888 C   0  0  0  0  0  0  0  0  0  0  0  0
    5.2393   -1.9149   -1.4961 C   0  0  0  0  0  0  0  0  0  0  0  0
    6.6157   -2.1144   -1.3051 C   0  0  0  0  0  0  0  0  0  0  0  0
    7.2537   -3.2873   -1.9346 C   0  0  0  0  0  0  0  0  0  0  0  0
    8.3931   -3.3546   -2.7073 C   0  0  0  0  0  0  0  0  0  0  0  0
    8.6620   -4.6602   -3.2087 C   0  0  0  0  0  0  0  0  0  0  0  0
    7.7245   -5.5825   -2.8145 C   0  0  0  0  0  0  0  0  0  0  0  0
    6.5040   -4.8635   -1.8274 S   0  0  0  0  0  0  0  0  0  0  0  0
    7.3198   -1.1353   -0.5551 C   0  0  0  0  0  0  0  0  0  0  0  0
    8.7568   -1.3195   -0.1164 C   0  0  0  0  0  0  0  0  0  0  0  0
    9.6162   -0.0774    0.0648 C   0  0  0  0  0  0  0  0  0  0  0  0
    9.2017   -2.4212    0.1204 O   0  0  0  0  0  0  0  0  0  0  0  0
    6.6350    0.0061   -0.1199 C   0  0  0  0  0  0  0  0  0  0  0  0
    5.2570    0.2108   -0.3116 C   0  0  0  0  0  0  0  0  0  0  0  0
    4.6576    1.4764    0.1517 C   0  0  0  0  0  0  0  0  0  0  0  0
    3.8152    2.3424   -0.5119 C   0  0  0  0  0  0  0  0  0  0  0  0
    3.4995    3.5119    0.2368 C   0  0  0  0  0  0  0  0  0  0  0  0
    4.1026    3.5309    1.4701 C   0  0  0  0  0  0  0  0  0  0  0  0
    5.0617    2.1190    1.7286 S   0  0  0  0  0  0  0  0  0  0  0  0
    1.0700   -2.1790   -3.2889 H   0  0  0  0  0  0  0  0  0  0  0  0
    0.7442   -0.6198   -2.4424 H   0  0  0  0  0  0  0  0  0  0  0  0
    0.7755   -2.1401   -1.5093 H   0  0  0  0  0  0  0  0  0  0  0  0
    4.6771   -2.6559   -2.0643 H   0  0  0  0  0  0  0  0  0  0  0  0
    9.0169   -2.4856   -2.9201 H   0  0  0  0  0  0  0  0  0  0  0  0
    9.5180   -4.9054   -3.8394 H   0  0  0  0  0  0  0  0  0  0  0  0
    7.6887   -6.6474   -3.0402 H   0  0  0  0  0  0  0  0  0  0  0  0
    9.5052    0.6282   -0.7729 H   0  0  0  0  0  0  0  0  0  0  0  0
   10.6629   -0.3930    0.1631 H   0  0  0  0  0  0  0  0  0  0  0  0
    9.3322    0.4577    0.9862 H   0  0  0  0  0  0  0  0  0  0  0  0
    7.1873    0.7835    0.4094 H   0  0  0  0  0  0  0  0  0  0  0  0
    3.4419    2.1510   -1.5184 H   0  0  0  0  0  0  0  0  0  0  0  0
    2.8501    4.3099   -0.1265 H   0  0  0  0  0  0  0  0  0  0  0  0
    4.0270    4.2905    2.2470 H   0  0  0  0  0  0  0  0  0  0  0  0
  1  2  1  0
  1 24  1  0
  1 25  1  0
  1 26  1  0
  2  3  1  0
  3  4  2  0
  3  5  1  0
  5  6  2  0
  5 18  1  0
  6  7  1  0
  6 27  1  0
  7  8  2  0
  7 13  1  0
  8  9  1  0
  8 12  1  0
  9 10  2  0
  9 28  1  0
 10 11  1  0
 10 29  1  0
 11 12  2  0
 11 30  1  0
 13 14  2  0
 13 17  1  0
 14 15  1  0
 14 16  1  0
 15 31  1  0
 15 32  1  0
 15 33  1  0
 17 18  2  0
 17 34  1  0
 18 19  1  0
 19 20  2  0
 19 23  1  0
 20 21  1  0
 20 35  1  0
 21 22  2  0
 21 36  1  0
 22 23  1  0
 22 37  1  0
M  CHG  2  12   1  16  -1
M  END

