
     RDKit          3D

 54 56  0  0  0  0  0  0  0  0999 V2000
    2.1226   -1.1154   -0.9275 C   0  0  0  0  0  0  0  0  0  0  0  0
    2.2590   -1.2958   -2.4051 C   0  0  0  0  0  0  0  0  0  0  0  0
    2.8082   -0.3593   -3.1384 N   0  0  0  0  0  0  0  0  0  0  0  0
    2.7590   -0.8213   -4.4560 O   0  0  0  0  0  0  0  0  0  0  0  0
    2.1726   -2.0191   -4.5061 C   0  0  0  0  0  0  0  0  0  0  0  0
    1.9809   -2.6568   -5.8505 C   0  0  1  0  0  0  0  0  0  0  0  0
    0.6605   -2.1698   -6.4817 C   0  0  0  0  0  0  0  0  0  0  0  0
    3.1842   -2.4189   -6.7745 C   0  0  0  0  0  0  0  0  0  0  0  0
    1.8261   -2.3982   -3.2261 C   0  0  0  0  0  0  0  0  0  0  0  0
    1.1292   -3.6347   -2.8533 C   0  0  0  0  0  0  0  0  0  0  0  0
    0.5767   -4.3855   -3.6278 O   0  0  0  0  0  0  0  0  0  0  0  0
    1.1975   -3.8653   -1.5201 O   0  0  0  0  0  0  0  0  0  0  0  0
    0.3726   -4.8915   -1.0056 C   0  0  0  0  0  0  0  0  0  0  0  0
   -1.0604   -4.3778   -0.7548 C   0  0  0  0  0  0  0  0  0  0  0  0
   -1.3254   -3.2113   -1.0196 O   0  0  0  0  0  0  0  0  0  0  0  0
   -1.9497   -5.3893   -0.2122 C   0  0  0  0  0  0  0  0  0  0  0  0
   -3.2791   -5.2812    0.1308 C   0  0  0  0  0  0  0  0  0  0  0  0
   -3.9823   -6.3515    0.6340 N   0  0  0  0  0  0  0  0  0  0  0  0
   -3.4099   -7.6623    0.8443 C   0  0  0  0  0  0  0  0  0  0  0  0
   -5.3201   -6.0122    0.9132 C   0  0  0  0  0  0  0  0  0  0  0  0
   -6.3436   -6.8069    1.4301 C   0  0  0  0  0  0  0  0  0  0  0  0
   -7.6015   -6.2137    1.6138 C   0  0  0  0  0  0  0  0  0  0  0  0
   -7.8212   -4.8722    1.2900 C   0  0  0  0  0  0  0  0  0  0  0  0
   -6.7759   -4.0903    0.7707 C   0  0  0  0  0  0  0  0  0  0  0  0
   -5.5257   -4.6659    0.5841 C   0  0  0  0  0  0  0  0  0  0  0  0
   -4.2314   -4.0709    0.0474 C   0  0  2  0  0  0  0  0  0  0  0  0
   -4.4127   -3.5998   -1.4139 C   0  0  0  0  0  0  0  0  0  0  0  0
   -3.7501   -2.9103    0.9475 C   0  0  0  0  0  0  0  0  0  0  0  0
    2.4357   -0.1007   -0.6469 H   0  0  0  0  0  0  0  0  0  0  0  0
    2.7407   -1.8489   -0.3877 H   0  0  0  0  0  0  0  0  0  0  0  0
    1.0804   -1.2882   -0.6211 H   0  0  0  0  0  0  0  0  0  0  0  0
    1.8706   -3.7341   -5.6554 H   0  0  0  0  0  0  0  0  0  0  0  0
    0.6789   -1.0807   -6.6478 H   0  0  0  0  0  0  0  0  0  0  0  0
   -0.1940   -2.4121   -5.8330 H   0  0  0  0  0  0  0  0  0  0  0  0
    0.5032   -2.6628   -7.4541 H   0  0  0  0  0  0  0  0  0  0  0  0
    3.3235   -1.3465   -6.9797 H   0  0  0  0  0  0  0  0  0  0  0  0
    3.0279   -2.9341   -7.7349 H   0  0  0  0  0  0  0  0  0  0  0  0
    4.1170   -2.8006   -6.3311 H   0  0  0  0  0  0  0  0  0  0  0  0
    0.8250   -5.2118   -0.0544 H   0  0  0  0  0  0  0  0  0  0  0  0
    0.3410   -5.7507   -1.6941 H   0  0  0  0  0  0  0  0  0  0  0  0
   -1.4821   -6.3658   -0.0673 H   0  0  0  0  0  0  0  0  0  0  0  0
   -3.0313   -8.0851   -0.1014 H   0  0  0  0  0  0  0  0  0  0  0  0
   -4.1727   -8.3400    1.2437 H   0  0  0  0  0  0  0  0  0  0  0  0
   -2.5735   -7.6195    1.5622 H   0  0  0  0  0  0  0  0  0  0  0  0
   -6.1895   -7.8559    1.6884 H   0  0  0  0  0  0  0  0  0  0  0  0
   -8.4193   -6.8160    2.0173 H   0  0  0  0  0  0  0  0  0  0  0  0
   -8.8086   -4.4300    1.4408 H   0  0  0  0  0  0  0  0  0  0  0  0
   -6.9494   -3.0410    0.5175 H   0  0  0  0  0  0  0  0  0  0  0  0
   -4.7587   -4.4251   -2.0548 H   0  0  0  0  0  0  0  0  0  0  0  0
   -3.4677   -3.2049   -1.8070 H   0  0  0  0  0  0  0  0  0  0  0  0
   -5.1713   -2.8021   -1.4500 H   0  0  0  0  0  0  0  0  0  0  0  0
   -3.6205   -3.2446    1.9884 H   0  0  0  0  0  0  0  0  0  0  0  0
   -4.5024   -2.1060    0.9420 H   0  0  0  0  0  0  0  0  0  0  0  0
   -2.8018   -2.5061    0.5725 H   0  0  0  0  0  0  0  0  0  0  0  0
  1  2  1  0
  1 29  1  0
  1 30  1  0
  1 31  1  0
  2  3  2  0
  2  9  1  0
  3  4  1  0
  4  5  1  0
  5  6  1  0
  5  9  2  0
  6  7  1  0
  6  8  1  0
  6 32  1  1
  7 33  1  0
  7 34  1  0
  7 35  1  0
  8 36  1  0
  8 37  1  0
  8 38  1  0
  9 10  1  0
 10 11  2  0
 10 12  1  0
 12 13  1  0
 13 14  1  0
 13 39  1  0
 13 40  1  0
 14 15  2  0
 14 16  1  0
 16 17  2  0
 16 41  1  0
 17 18  1  0
 17 26  1  0
 18 19  1  0
 18 20  1  0
 19 42  1  0
 19 43  1  0
 19 44  1  0
 20 21  1  0
 20 25  2  0
 21 22  2  0
 21 45  1  0
 22 23  1  0
 22 46  1  0
 23 24  2  0
 23 47  1  0
 24 25  1  0
 24 48  1  0
 25 26  1  0
 26 27  1  6
 26 28  1  0
 27 49  1  0
 27 50  1  0
 27 51  1  0
 28 52  1  0
 28 53  1  0
 28 54  1  0
M  END

