
     RDKit          3D

 27 28  0  0  0  0  0  0  0  0999 V2000
    3.4297    0.7925   -1.4795 C   0  0  0  0  0  0  0  0  0  0  0  0
    2.5335    0.3952   -0.2924 C   0  0  2  0  0  0  0  0  0  0  0  0
    1.4889    0.5921   -0.5877 H   0  0  0  0  0  0  0  0  0  0  0  0
    2.8563    1.2127    0.9384 C   0  0  0  0  0  0  0  0  0  0  0  0
    3.5689    0.7079    1.9517 C   0  0  0  0  0  0  0  0  0  0  0  0
    4.0826   -0.7033    1.9316 C   0  0  0  0  0  0  0  0  0  0  0  0
    3.9441   -1.3293    0.6708 O   0  0  0  0  0  0  0  0  0  0  0  0
    2.6834   -1.1042    0.0340 C   0  0  1  0  0  0  0  0  0  0  0  0
    1.5457   -1.7552    0.8250 C   0  0  0  0  0  0  0  0  0  0  0  0
    0.3699   -1.0975    1.2111 C   0  0  0  0  0  0  0  0  0  0  0  0
   -0.6327   -1.7744    1.9160 C   0  0  0  0  0  0  0  0  0  0  0  0
   -0.4734   -3.1200    2.2513 C   0  0  0  0  0  0  0  0  0  0  0  0
    0.6993   -3.7870    1.8789 C   0  0  0  0  0  0  0  0  0  0  0  0
    1.6952   -3.1096    1.1749 C   0  0  0  0  0  0  0  0  0  0  0  0
    4.4731    0.5088   -1.2747 H   0  0  0  0  0  0  0  0  0  0  0  0
    3.3984    1.8792   -1.6571 H   0  0  0  0  0  0  0  0  0  0  0  0
    3.1085    0.2882   -2.4058 H   0  0  0  0  0  0  0  0  0  0  0  0
    2.5079    2.2508    0.9707 H   0  0  0  0  0  0  0  0  0  0  0  0
    3.7878    1.3055    2.8432 H   0  0  0  0  0  0  0  0  0  0  0  0
    3.5773   -1.2944    2.7261 H   0  0  0  0  0  0  0  0  0  0  0  0
    5.1611   -0.7236    2.1653 H   0  0  0  0  0  0  0  0  0  0  0  0
    2.7727   -1.6581   -0.9153 H   0  0  0  0  0  0  0  0  0  0  0  0
    0.2239   -0.0431    0.9715 H   0  0  0  0  0  0  0  0  0  0  0  0
   -1.5420   -1.2413    2.2063 H   0  0  0  0  0  0  0  0  0  0  0  0
   -1.2570   -3.6477    2.8012 H   0  0  0  0  0  0  0  0  0  0  0  0
    0.8362   -4.8405    2.1370 H   0  0  0  0  0  0  0  0  0  0  0  0
    2.6146   -3.6286    0.8916 H   0  0  0  0  0  0  0  0  0  0  0  0
  1  2  1  0
  1 15  1  0
  1 16  1  0
  1 17  1  0
  2  3  1  6
  2  4  1  0
  2  8  1  0
  4  5  2  0
  4 18  1  0
  5  6  1  0
  5 19  1  0
  6  7  1  0
  6 20  1  0
  6 21  1  0
  7  8  1  0
  8  9  1  0
  8 22  1  6
  9 10  2  0
  9 14  1  0
 10 11  1  0
 10 23  1  0
 11 12  2  0
 11 24  1  0
 12 13  1  0
 12 25  1  0
 13 14  2  0
 13 26  1  0
 14 27  1  0
M  END

