
     RDKit          3D

 26 26  0  0  0  0  0  0  0  0999 V2000
    1.8641   -0.3856    1.0114 N   0  0  0  0  0  0  0  0  0  0  0  0
    2.4568   -0.0477   -0.1761 C   0  0  0  0  0  0  0  0  0  0  0  0
    2.3533    1.0916   -0.7708 N   0  0  0  0  0  0  0  0  0  0  0  0
    1.4992    1.9435   -0.0369 O   0  0  0  0  0  0  0  0  0  0  0  0
    3.3575   -1.0848   -0.8138 C   0  0  1  0  0  0  0  0  0  0  0  0
    4.6702   -1.3086   -0.0414 C   0  0  0  0  0  0  0  0  0  0  0  0
    5.1087   -2.6975   -0.5154 C   0  0  0  0  0  0  0  0  0  0  0  0
    3.7827   -3.4588   -0.6939 C   0  0  0  0  0  0  0  0  0  0  0  0
    2.7425   -2.4187   -0.8190 N   0  0  0  0  0  0  0  0  0  0  0  0
    1.7144   -2.6705   -1.8031 C   0  0  0  0  0  0  0  0  0  0  0  0
    0.3676   -2.0250   -1.5049 C   0  0  1  0  0  0  0  0  0  0  0  0
   -0.5101   -2.4158   -2.4713 F   0  0  0  0  0  0  0  0  0  0  0  0
   -0.1131   -2.4674   -0.3068 F   0  0  0  0  0  0  0  0  0  0  0  0
    1.1380    0.2461    1.3311 H   0  0  0  0  0  0  0  0  0  0  0  0
    1.6800   -1.3785    1.1226 H   0  0  0  0  0  0  0  0  0  0  0  0
    1.4713    2.7366   -0.5848 H   0  0  0  0  0  0  0  0  0  0  0  0
    3.5796   -0.7200   -1.8381 H   0  0  0  0  0  0  0  0  0  0  0  0
    4.4618   -1.3063    1.0401 H   0  0  0  0  0  0  0  0  0  0  0  0
    5.4032   -0.5154   -0.2457 H   0  0  0  0  0  0  0  0  0  0  0  0
    5.7947   -3.1984    0.1839 H   0  0  0  0  0  0  0  0  0  0  0  0
    5.6292   -2.6143   -1.4833 H   0  0  0  0  0  0  0  0  0  0  0  0
    3.5671   -4.1160    0.1685 H   0  0  0  0  0  0  0  0  0  0  0  0
    3.8153   -4.1077   -1.5880 H   0  0  0  0  0  0  0  0  0  0  0  0
    1.5110   -3.7520   -1.8441 H   0  0  0  0  0  0  0  0  0  0  0  0
    2.0059   -2.3519   -2.8292 H   0  0  0  0  0  0  0  0  0  0  0  0
    0.3818   -0.9236   -1.4819 H   0  0  0  0  0  0  0  0  0  0  0  0
  1  2  1  0
  1 14  1  0
  1 15  1  0
  2  3  2  0
  2  5  1  0
  3  4  1  0
  4 16  1  0
  5  6  1  0
  5  9  1  0
  5 17  1  6
  6  7  1  0
  6 18  1  0
  6 19  1  0
  7  8  1  0
  7 20  1  0
  7 21  1  0
  8  9  1  0
  8 22  1  0
  8 23  1  0
  9 10  1  0
 10 11  1  0
 10 24  1  0
 10 25  1  0
 11 12  1  0
 11 13  1  0
 11 26  1  1
M  END

