
     RDKit          3D

 65 70  0  0  0  0  0  0  0  0999 V2000
    0.6250    1.4895    3.3767 C   0  0  0  0  0  0  0  0  0  0  0  0
   -0.5862    1.7315    2.8252 C   0  0  0  0  0  0  0  0  0  0  0  0
   -1.6078    0.7263    2.6336 C   0  0  0  0  0  0  0  0  0  0  0  0
   -2.8722    0.7892    2.1005 C   0  0  0  0  0  0  0  0  0  0  0  0
   -3.3649   -0.5497    2.2018 C   0  0  0  0  0  0  0  0  0  0  0  0
   -4.6731   -1.0844    1.7868 C   0  0  0  0  0  0  0  0  0  0  0  0
   -5.6496   -0.2637    1.2017 C   0  0  0  0  0  0  0  0  0  0  0  0
   -6.8906   -0.7624    0.8055 C   0  0  0  0  0  0  0  0  0  0  0  0
   -7.1882   -2.1242    0.9869 C   0  0  0  0  0  0  0  0  0  0  0  0
   -8.4119   -2.7174    0.6505 N   0  0  0  0  0  0  0  0  0  0  0  0
   -9.4691   -2.2914   -0.1082 C   0  0  0  0  0  0  0  0  0  0  0  0
   -9.4054   -1.1306   -0.7668 N   0  0  0  0  0  0  0  0  0  0  0  0
  -10.5095   -0.8298   -1.4682 C   0  0  0  0  0  0  0  0  0  0  0  0
  -10.5771    0.3326   -2.1866 N   0  0  0  0  0  0  0  0  0  0  0  0
   -9.6384    1.3465   -2.4383 C   0  0  0  0  0  0  0  0  0  0  0  0
   -8.2493    1.1840   -2.2899 C   0  0  0  0  0  0  0  0  0  0  0  0
   -7.3905    2.2421   -2.5980 C   0  0  0  0  0  0  0  0  0  0  0  0
   -7.8838    3.4651   -3.0608 C   0  0  0  0  0  0  0  0  0  0  0  0
   -9.2642    3.6236   -3.2183 C   0  0  0  0  0  0  0  0  0  0  0  0
  -10.1333    2.5787   -2.9082 C   0  0  0  0  0  0  0  0  0  0  0  0
  -11.6145   -1.5831   -1.5317 N   0  0  0  0  0  0  0  0  0  0  0  0
  -11.5591   -2.7343   -0.8391 C   0  0  0  0  0  0  0  0  0  0  0  0
  -12.6932   -3.4939   -0.9300 N   0  0  0  0  0  0  0  0  0  0  0  0
  -13.0659   -4.7292   -0.3792 C   0  0  0  0  0  0  0  0  0  0  0  0
  -12.2554   -5.4949    0.4785 C   0  0  0  0  0  0  0  0  0  0  0  0
  -12.7280   -6.7133    0.9729 C   0  0  0  0  0  0  0  0  0  0  0  0
  -13.9953   -7.1938    0.6337 C   0  0  0  0  0  0  0  0  0  0  0  0
  -14.8015   -6.4328   -0.2190 C   0  0  0  0  0  0  0  0  0  0  0  0
  -14.3444   -5.2158   -0.7202 C   0  0  0  0  0  0  0  0  0  0  0  0
  -10.5132   -3.1414   -0.1154 N   0  0  0  0  0  0  0  0  0  0  0  0
   -6.2127   -2.9540    1.5785 C   0  0  0  0  0  0  0  0  0  0  0  0
   -4.9823   -2.4452    1.9713 C   0  0  0  0  0  0  0  0  0  0  0  0
   -2.4579   -1.3372    2.7522 N   0  0  0  0  0  0  0  0  0  0  0  0
   -1.3637   -0.5447    3.0215 O   0  0  0  0  0  0  0  0  0  0  0  0
    1.7056    2.4521    3.6022 C   0  0  0  0  0  0  0  0  0  0  0  0
    1.6152    3.8174    3.2551 C   0  0  0  0  0  0  0  0  0  0  0  0
    2.6763    4.6878    3.4936 C   0  0  0  0  0  0  0  0  0  0  0  0
    3.8573    4.2206    4.0850 C   0  0  0  0  0  0  0  0  0  0  0  0
    3.9653    2.8722    4.4353 C   0  0  0  0  0  0  0  0  0  0  0  0
    2.9020    2.0004    4.1962 C   0  0  0  0  0  0  0  0  0  0  0  0
    0.8354    0.4636    3.6951 H   0  0  0  0  0  0  0  0  0  0  0  0
   -0.8642    2.7323    2.4850 H   0  0  0  0  0  0  0  0  0  0  0  0
   -3.3696    1.6666    1.6981 H   0  0  0  0  0  0  0  0  0  0  0  0
   -5.4504    0.7994    1.0502 H   0  0  0  0  0  0  0  0  0  0  0  0
   -7.6327   -0.1050    0.3610 H   0  0  0  0  0  0  0  0  0  0  0  0
   -8.5689   -3.6458    1.0274 H   0  0  0  0  0  0  0  0  0  0  0  0
  -11.4969    0.4686   -2.5921 H   0  0  0  0  0  0  0  0  0  0  0  0
   -7.8544    0.2332   -1.9412 H   0  0  0  0  0  0  0  0  0  0  0  0
   -6.3132    2.0975   -2.4803 H   0  0  0  0  0  0  0  0  0  0  0  0
   -7.2016    4.2839   -3.3004 H   0  0  0  0  0  0  0  0  0  0  0  0
   -9.6721    4.5702   -3.5820 H   0  0  0  0  0  0  0  0  0  0  0  0
  -11.2125    2.7136   -3.0270 H   0  0  0  0  0  0  0  0  0  0  0  0
  -13.3883   -3.0492   -1.5199 H   0  0  0  0  0  0  0  0  0  0  0  0
  -11.2692   -5.1252    0.7446 H   0  0  0  0  0  0  0  0  0  0  0  0
  -12.0857   -7.2961    1.6387 H   0  0  0  0  0  0  0  0  0  0  0  0
  -14.3515   -8.1483    1.0277 H   0  0  0  0  0  0  0  0  0  0  0  0
  -15.7968   -6.7876   -0.4988 H   0  0  0  0  0  0  0  0  0  0  0  0
  -14.9826   -4.6279   -1.3869 H   0  0  0  0  0  0  0  0  0  0  0  0
   -6.4293   -4.0160    1.7272 H   0  0  0  0  0  0  0  0  0  0  0  0
   -4.2381   -3.1009    2.4262 H   0  0  0  0  0  0  0  0  0  0  0  0
    0.7043    4.2043    2.7930 H   0  0  0  0  0  0  0  0  0  0  0  0
    2.5844    5.7412    3.2168 H   0  0  0  0  0  0  0  0  0  0  0  0
    4.6875    4.9066    4.2704 H   0  0  0  0  0  0  0  0  0  0  0  0
    4.8820    2.4968    4.8972 H   0  0  0  0  0  0  0  0  0  0  0  0
    2.9917    0.9461    4.4723 H   0  0  0  0  0  0  0  0  0  0  0  0
  1  2  2  0
  1 35  1  0
  1 41  1  0
  2  3  1  0
  2 42  1  0
  3  4  2  0
  3 34  1  0
  4  5  1  0
  4 43  1  0
  5  6  1  0
  5 33  2  0
  6  7  2  0
  6 32  1  0
  7  8  1  0
  7 44  1  0
  8  9  2  0
  8 45  1  0
  9 10  1  0
  9 31  1  0
 10 11  1  0
 10 46  1  0
 11 12  2  0
 11 30  1  0
 12 13  1  0
 13 14  1  0
 13 21  2  0
 14 15  1  0
 14 47  1  0
 15 16  2  0
 15 20  1  0
 16 17  1  0
 16 48  1  0
 17 18  2  0
 17 49  1  0
 18 19  1  0
 18 50  1  0
 19 20  2  0
 19 51  1  0
 20 52  1  0
 21 22  1  0
 22 23  1  0
 22 30  2  0
 23 24  1  0
 23 53  1  0
 24 25  2  0
 24 29  1  0
 25 26  1  0
 25 54  1  0
 26 27  2  0
 26 55  1  0
 27 28  1  0
 27 56  1  0
 28 29  2  0
 28 57  1  0
 29 58  1  0
 31 32  2  0
 31 59  1  0
 32 60  1  0
 33 34  1  0
 35 36  2  0
 35 40  1  0
 36 37  1  0
 36 61  1  0
 37 38  2  0
 37 62  1  0
 38 39  1  0
 38 63  1  0
 39 40  2  0
 39 64  1  0
 40 65  1  0
M  END

