
     RDKit          3D

 44 47  0  0  0  0  0  0  0  0999 V2000
    2.3772    2.0276   -6.3359 C   0  0  0  0  0  0  0  0  0  0  0  0
    2.7269    1.4518   -5.0772 O   0  0  0  0  0  0  0  0  0  0  0  0
    3.8174    0.6877   -5.0786 C   0  0  0  0  0  0  0  0  0  0  0  0
    4.5158    0.4378   -6.0203 O   0  0  0  0  0  0  0  0  0  0  0  0
    4.0064    0.2562   -3.8056 O   0  0  0  0  0  0  0  0  0  0  0  0
    4.9950   -0.6705   -3.5826 C   0  0  0  0  0  0  0  0  0  0  0  0
    6.0918   -0.4158   -2.8029 C   0  0  0  0  0  0  0  0  0  0  0  0
    7.0391   -1.8602   -2.6785 S   0  0  0  0  0  0  0  0  0  0  0  0
    5.8687   -2.6827   -3.6988 C   0  0  0  0  0  0  0  0  0  0  0  0
    5.9942   -4.0707   -4.0860 C   0  0  0  0  0  0  0  0  0  0  0  0
    6.9491   -5.0357   -3.8020 C   0  0  0  0  0  0  0  0  0  0  0  0
    6.5627   -6.2306   -4.4884 C   0  0  0  0  0  0  0  0  0  0  0  0
    7.1324   -7.5198   -4.6141 C   0  0  0  0  0  0  0  0  0  0  0  0
    6.4744   -8.4421   -5.4106 C   0  0  0  0  0  0  0  0  0  0  0  0
    5.2566   -8.1401   -6.0676 C   0  0  0  0  0  0  0  0  0  0  0  0
    4.6535   -6.8815   -5.9607 C   0  0  0  0  0  0  0  0  0  0  0  0
    3.4745   -6.4998   -6.5977 N   0  0  0  0  0  0  0  0  0  0  0  0
    2.6586   -7.4031   -7.3802 C   0  0  1  0  0  0  0  0  0  0  0  0
    1.7630   -8.4041   -6.6168 C   0  0  0  0  0  0  0  0  0  0  0  0
    0.8036   -8.9133   -7.7016 C   0  0  0  0  0  0  0  0  0  0  0  0
    0.5657   -7.6953   -8.6419 C   0  0  0  0  0  0  0  0  0  0  0  0
    1.6453   -6.6507   -8.2655 C   0  0  0  0  0  0  0  0  0  0  0  0
    5.3509   -5.9317   -5.1719 C   0  0  0  0  0  0  0  0  0  0  0  0
    5.0271   -4.6215   -4.9044 N   0  0  0  0  0  0  0  0  0  0  0  0
    4.3033   -4.0574   -5.3325 H   0  0  0  0  0  0  0  0  0  0  0  0
    4.8647   -1.9262   -4.0760 N   0  0  0  0  0  0  0  0  0  0  0  0
    1.4729    2.6212   -6.1552 H   0  0  0  0  0  0  0  0  0  0  0  0
    2.1760    1.2442   -7.0821 H   0  0  0  0  0  0  0  0  0  0  0  0
    3.1871    2.6715   -6.7108 H   0  0  0  0  0  0  0  0  0  0  0  0
    6.3707    0.5146   -2.3154 H   0  0  0  0  0  0  0  0  0  0  0  0
    7.8265   -4.8999   -3.1726 H   0  0  0  0  0  0  0  0  0  0  0  0
    8.0635   -7.7735   -4.1029 H   0  0  0  0  0  0  0  0  0  0  0  0
    6.8911   -9.4453   -5.5332 H   0  0  0  0  0  0  0  0  0  0  0  0
    4.7764   -8.9197   -6.6596 H   0  0  0  0  0  0  0  0  0  0  0  0
    2.9322   -5.8059   -6.0913 H   0  0  0  0  0  0  0  0  0  0  0  0
    3.3384   -7.9746   -8.0363 H   0  0  0  0  0  0  0  0  0  0  0  0
    1.2114   -7.8531   -5.8332 H   0  0  0  0  0  0  0  0  0  0  0  0
    2.3281   -9.2042   -6.1155 H   0  0  0  0  0  0  0  0  0  0  0  0
   -0.1310   -9.3207   -7.2870 H   0  0  0  0  0  0  0  0  0  0  0  0
    1.2824   -9.7336   -8.2618 H   0  0  0  0  0  0  0  0  0  0  0  0
   -0.4451   -7.2787   -8.5126 H   0  0  0  0  0  0  0  0  0  0  0  0
    0.6440   -7.9929   -9.6989 H   0  0  0  0  0  0  0  0  0  0  0  0
    1.1991   -5.8355   -7.6680 H   0  0  0  0  0  0  0  0  0  0  0  0
    2.1254   -6.1785   -9.1355 H   0  0  0  0  0  0  0  0  0  0  0  0
  1  2  1  0
  1 27  1  0
  1 28  1  0
  1 29  1  0
  2  3  1  0
  3  4  2  0
  3  5  1  0
  5  6  1  0
  6  7  2  0
  6 26  1  0
  7  8  1  0
  7 30  1  0
  8  9  1  0
  9 10  1  0
  9 26  2  0
 10 11  2  0
 10 24  1  0
 11 12  1  0
 11 31  1  0
 12 13  2  0
 12 23  1  0
 13 14  1  0
 13 32  1  0
 14 15  2  0
 14 33  1  0
 15 16  1  0
 15 34  1  0
 16 17  1  0
 16 23  2  0
 17 18  1  0
 17 35  1  0
 18 19  1  0
 18 22  1  0
 18 36  1  6
 19 20  1  0
 19 37  1  0
 19 38  1  0
 20 21  1  0
 20 39  1  0
 20 40  1  0
 21 22  1  0
 21 41  1  0
 21 42  1  0
 22 43  1  0
 22 44  1  0
 23 24  1  0
 24 25  1  0
M  END

