
     RDKit          3D

 35 38  0  0  0  0  0  0  0  0999 V2000
    1.8963    0.8789    0.7552 O   0  0  0  0  0  0  0  0  0  0  0  0
    1.9730   -0.1952    0.1741 C   0  0  0  0  0  0  0  0  0  0  0  0
    0.8550   -0.7272   -0.6632 C   0  0  0  0  0  0  0  0  0  0  0  0
    0.9073   -1.7338   -1.6871 C   0  0  0  0  0  0  0  0  0  0  0  0
   -0.3102   -1.9505   -2.2774 C   0  0  0  0  0  0  0  0  0  0  0  0
   -1.5371   -0.9352   -1.5957 S   0  0  0  0  0  0  0  0  0  0  0  0
   -0.4139   -0.2064   -0.5188 C   0  0  0  0  0  0  0  0  0  0  0  0
    3.1053   -0.9604    0.2759 N   0  0  0  0  0  0  0  0  0  0  0  0
    4.1977   -0.6860    1.2077 C   0  0  0  0  0  0  0  0  0  0  0  0
    4.4780   -2.2155    1.2721 C   0  0  2  0  0  0  0  0  0  0  0  0
    5.8066   -2.6691    0.9156 N   0  0  0  0  0  0  0  0  0  0  0  0
    6.7095   -3.3361    1.6816 C   0  0  0  0  0  0  0  0  0  0  0  0
    7.8153   -3.4633    0.8605 C   0  0  0  0  0  0  0  0  0  0  0  0
    9.1368   -4.1302    1.1046 C   0  0  0  0  0  0  0  0  0  0  0  0
    9.7354   -3.7769    2.3856 N   0  0  0  0  0  0  0  0  0  0  0  0
   10.8655   -3.0941    2.4782 N   0  0  0  0  0  0  0  0  0  0  0  0
   11.0618   -2.9747    3.7922 C   0  0  0  0  0  0  0  0  0  0  0  0
    9.9979   -3.6141    4.4575 C   0  0  0  0  0  0  0  0  0  0  0  0
    9.1719   -4.1151    3.5370 N   0  0  0  0  0  0  0  0  0  0  0  0
    7.5240   -2.8800   -0.3353 N   0  0  0  0  0  0  0  0  0  0  0  0
    6.3178   -2.4041   -0.2990 N   0  0  0  0  0  0  0  0  0  0  0  0
    3.3667   -2.4044    0.2023 C   0  0  0  0  0  0  0  0  0  0  0  0
    1.8132   -2.2518   -1.9999 H   0  0  0  0  0  0  0  0  0  0  0  0
   -0.5532   -2.6412   -3.0837 H   0  0  0  0  0  0  0  0  0  0  0  0
   -0.7093    0.5797    0.1740 H   0  0  0  0  0  0  0  0  0  0  0  0
    3.8680   -0.2119    2.1456 H   0  0  0  0  0  0  0  0  0  0  0  0
    5.0204   -0.1006    0.7676 H   0  0  0  0  0  0  0  0  0  0  0  0
    4.2315   -2.6622    2.2434 H   0  0  0  0  0  0  0  0  0  0  0  0
    6.5244   -3.6462    2.7058 H   0  0  0  0  0  0  0  0  0  0  0  0
    9.8422   -3.8175    0.3261 H   0  0  0  0  0  0  0  0  0  0  0  0
    9.0398   -5.2275    1.0697 H   0  0  0  0  0  0  0  0  0  0  0  0
   11.9305   -2.4537    4.1895 H   0  0  0  0  0  0  0  0  0  0  0  0
    9.8015   -3.7341    5.5211 H   0  0  0  0  0  0  0  0  0  0  0  0
    2.5215   -3.0439    0.5041 H   0  0  0  0  0  0  0  0  0  0  0  0
    3.7643   -2.7403   -0.7677 H   0  0  0  0  0  0  0  0  0  0  0  0
  1  2  2  0
  2  3  1  0
  2  8  1  0
  3  4  1  0
  3  7  2  0
  4  5  2  0
  4 23  1  0
  5  6  1  0
  5 24  1  0
  6  7  1  0
  7 25  1  0
  8  9  1  0
  8 22  1  0
  9 10  1  0
  9 26  1  0
  9 27  1  0
 10 11  1  0
 10 22  1  0
 10 28  1  1
 11 12  1  0
 11 21  1  0
 12 13  2  0
 12 29  1  0
 13 14  1  0
 13 20  1  0
 14 15  1  0
 14 30  1  0
 14 31  1  0
 15 16  1  0
 15 19  1  0
 16 17  2  0
 17 18  1  0
 17 32  1  0
 18 19  2  0
 18 33  1  0
 20 21  2  0
 22 34  1  0
 22 35  1  0
M  END

