
     RDKit          3D

 48 49  0  0  0  0  0  0  0  0999 V2000
    2.7271   -4.1081   -3.2156 C   0  0  0  0  0  0  0  0  0  0  0  0
    1.8927   -2.9071   -2.7445 C   0  0  0  0  0  0  0  0  0  0  0  0
    2.6908   -1.6206   -2.6591 C   0  0  0  0  0  0  0  0  0  0  0  0
    2.6367   -0.6969   -3.7133 C   0  0  0  0  0  0  0  0  0  0  0  0
    3.4253    0.4542   -3.7031 C   0  0  0  0  0  0  0  0  0  0  0  0
    4.2761    0.7027   -2.6267 C   0  0  0  0  0  0  0  0  0  0  0  0
    4.3436   -0.1798   -1.5382 C   0  0  0  0  0  0  0  0  0  0  0  0
    5.2231    0.1604   -0.3528 C   0  0  0  0  0  0  0  0  0  0  0  0
    4.5034    1.0211    0.6992 C   0  0  0  0  0  0  0  0  0  0  0  0
    3.5445   -1.3479   -1.5618 C   0  0  0  0  0  0  0  0  0  0  0  0
    3.6182   -2.2825   -0.4875 N   0  0  0  0  0  0  0  0  0  0  0  0
    2.7414   -2.3916    0.5835 C   0  0  0  0  0  0  0  0  0  0  0  0
    1.6610   -1.5308    0.5583 N   0  0  0  0  0  0  0  0  0  0  0  0
    3.0085   -3.2341    1.5152 N   0  0  0  0  0  0  0  0  0  0  0  0
    2.1270   -3.3307    2.6456 C   0  0  0  0  0  0  0  0  0  0  0  0
    2.5548   -4.3948    3.6449 C   0  0  0  0  0  0  0  0  0  0  0  0
    3.6698   -5.2077    3.4166 C   0  0  0  0  0  0  0  0  0  0  0  0
    4.0380   -6.1856    4.3469 C   0  0  0  0  0  0  0  0  0  0  0  0
    3.2822   -6.3404    5.5018 C   0  0  0  0  0  0  0  0  0  0  0  0
    3.6354   -7.2856    6.4000 F   0  0  0  0  0  0  0  0  0  0  0  0
    2.1613   -5.5467    5.7727 C   0  0  0  0  0  0  0  0  0  0  0  0
    1.3527   -5.7503    7.0401 C   0  0  0  0  0  0  0  0  0  0  0  0
    0.5547   -4.6397    7.3874 O   0  0  0  0  0  0  0  0  0  0  0  0
    1.8153   -4.5792    4.8235 C   0  0  0  0  0  0  0  0  0  0  0  0
    2.1045   -5.0146   -3.2827 H   0  0  0  0  0  0  0  0  0  0  0  0
    3.5493   -4.3161   -2.5144 H   0  0  0  0  0  0  0  0  0  0  0  0
    3.1656   -3.9221   -4.2090 H   0  0  0  0  0  0  0  0  0  0  0  0
    1.4422   -3.1433   -1.7683 H   0  0  0  0  0  0  0  0  0  0  0  0
    1.0544   -2.7527   -3.4437 H   0  0  0  0  0  0  0  0  0  0  0  0
    1.9764   -0.8969   -4.5620 H   0  0  0  0  0  0  0  0  0  0  0  0
    3.3793    1.1569   -4.5391 H   0  0  0  0  0  0  0  0  0  0  0  0
    4.8975    1.6029   -2.6206 H   0  0  0  0  0  0  0  0  0  0  0  0
    6.1132    0.7007   -0.7157 H   0  0  0  0  0  0  0  0  0  0  0  0
    5.5905   -0.7592    0.1272 H   0  0  0  0  0  0  0  0  0  0  0  0
    4.1853    1.9847    0.2694 H   0  0  0  0  0  0  0  0  0  0  0  0
    5.1666    1.2332    1.5531 H   0  0  0  0  0  0  0  0  0  0  0  0
    3.6046    0.5132    1.0815 H   0  0  0  0  0  0  0  0  0  0  0  0
    4.4902   -2.7729   -0.3216 H   0  0  0  0  0  0  0  0  0  0  0  0
    1.4580   -1.0200   -0.2922 H   0  0  0  0  0  0  0  0  0  0  0  0
    0.8646   -1.7615    1.1368 H   0  0  0  0  0  0  0  0  0  0  0  0
    1.0805   -3.5706    2.3417 H   0  0  0  0  0  0  0  0  0  0  0  0
    2.0492   -2.3630    3.1902 H   0  0  0  0  0  0  0  0  0  0  0  0
    4.2403   -5.0566    2.4998 H   0  0  0  0  0  0  0  0  0  0  0  0
    4.9057   -6.8301    4.1896 H   0  0  0  0  0  0  0  0  0  0  0  0
    2.0301   -6.0500    7.8624 H   0  0  0  0  0  0  0  0  0  0  0  0
    0.6531   -6.5931    6.9008 H   0  0  0  0  0  0  0  0  0  0  0  0
    1.1459   -3.8937    7.5581 H   0  0  0  0  0  0  0  0  0  0  0  0
    0.9396   -3.9566    5.0288 H   0  0  0  0  0  0  0  0  0  0  0  0
  1  2  1  0
  1 25  1  0
  1 26  1  0
  1 27  1  0
  2  3  1  0
  2 28  1  0
  2 29  1  0
  3  4  2  0
  3 10  1  0
  4  5  1  0
  4 30  1  0
  5  6  2  0
  5 31  1  0
  6  7  1  0
  6 32  1  0
  7  8  1  0
  7 10  2  0
  8  9  1  0
  8 33  1  0
  8 34  1  0
  9 35  1  0
  9 36  1  0
  9 37  1  0
 10 11  1  0
 11 12  1  0
 11 38  1  0
 12 13  1  0
 12 14  2  0
 13 39  1  0
 13 40  1  0
 14 15  1  0
 15 16  1  0
 15 41  1  0
 15 42  1  0
 16 17  2  0
 16 24  1  0
 17 18  1  0
 17 43  1  0
 18 19  2  0
 18 44  1  0
 19 20  1  0
 19 21  1  0
 21 22  1  0
 21 24  2  0
 22 23  1  0
 22 45  1  0
 22 46  1  0
 23 47  1  0
 24 48  1  0
M  END

