
     RDKit          3D

 29 29  0  0  0  0  0  0  0  0999 V2000
    0.3357    0.1022   -0.4914 C   0  0  0  0  0  0  0  0  0  0  0  0
    1.8138   -0.1617   -0.1568 C   0  0  1  0  0  0  0  0  0  0  0  0
    2.2665   -1.4745   -0.8367 C   0  0  0  0  0  0  0  0  0  0  0  0
    1.7362   -1.8404   -1.8766 O   0  0  0  0  0  0  0  0  0  0  0  0
    3.2883   -2.1877   -0.2536 N   0  0  0  0  0  0  0  0  0  0  0  0
    3.9605   -1.8271    0.9816 C   0  0  0  0  0  0  0  0  0  0  0  0
    3.6732   -3.4620   -0.8387 C   0  0  0  0  0  0  0  0  0  0  0  0
    2.7038    0.9800   -0.6012 C   0  0  0  0  0  0  0  0  0  0  0  0
    3.3682    1.8355    0.1950 C   0  0  0  0  0  0  0  0  0  0  0  0
    4.0960    2.9038   -0.5861 C   0  0  0  0  0  0  0  0  0  0  0  0
    4.0667    2.3505   -2.0322 C   0  0  0  0  0  0  0  0  0  0  0  0
    2.8827    1.3570   -2.0624 C   0  0  0  0  0  0  0  0  0  0  0  0
   -0.3026   -0.7053   -0.1009 H   0  0  0  0  0  0  0  0  0  0  0  0
    0.1829    0.1421   -1.5781 H   0  0  0  0  0  0  0  0  0  0  0  0
    0.0099    1.0535   -0.0437 H   0  0  0  0  0  0  0  0  0  0  0  0
    1.9056   -0.2575    0.9357 H   0  0  0  0  0  0  0  0  0  0  0  0
    3.4984   -2.3005    1.8694 H   0  0  0  0  0  0  0  0  0  0  0  0
    3.9821   -0.7414    1.1258 H   0  0  0  0  0  0  0  0  0  0  0  0
    5.0074   -2.1675    0.9330 H   0  0  0  0  0  0  0  0  0  0  0  0
    3.0737   -3.6270   -1.7408 H   0  0  0  0  0  0  0  0  0  0  0  0
    3.4984   -4.2909   -0.1289 H   0  0  0  0  0  0  0  0  0  0  0  0
    4.7444   -3.4625   -1.1071 H   0  0  0  0  0  0  0  0  0  0  0  0
    3.3475    1.8069    1.2890 H   0  0  0  0  0  0  0  0  0  0  0  0
    5.1205    3.0897   -0.2204 H   0  0  0  0  0  0  0  0  0  0  0  0
    3.5633    3.8717   -0.5045 H   0  0  0  0  0  0  0  0  0  0  0  0
    5.0036    1.8036   -2.2286 H   0  0  0  0  0  0  0  0  0  0  0  0
    3.9879    3.1400   -2.7949 H   0  0  0  0  0  0  0  0  0  0  0  0
    3.0576    0.4860   -2.7138 H   0  0  0  0  0  0  0  0  0  0  0  0
    1.9579    1.8336   -2.4395 H   0  0  0  0  0  0  0  0  0  0  0  0
  1  2  1  0
  1 13  1  0
  1 14  1  0
  1 15  1  0
  2  3  1  0
  2  8  1  0
  2 16  1  1
  3  4  2  0
  3  5  1  0
  5  6  1  0
  5  7  1  0
  6 17  1  0
  6 18  1  0
  6 19  1  0
  7 20  1  0
  7 21  1  0
  7 22  1  0
  8  9  2  0
  8 12  1  0
  9 10  1  0
  9 23  1  0
 10 11  1  0
 10 24  1  0
 10 25  1  0
 11 12  1  0
 11 26  1  0
 11 27  1  0
 12 28  1  0
 12 29  1  0
M  END

