
     RDKit          3D

 47 49  0  0  0  0  0  0  0  0999 V2000
    2.4399    2.5991    1.6831 C   0  0  0  0  0  0  0  0  0  0  0  0
    2.9585    1.6218    0.7731 O   0  0  0  0  0  0  0  0  0  0  0  0
    3.7410    0.6706    1.2985 C   0  0  0  0  0  0  0  0  0  0  0  0
    4.0493    0.5926    2.4582 O   0  0  0  0  0  0  0  0  0  0  0  0
    4.1547   -0.3228    0.2141 C   0  0  0  0  0  0  0  0  0  0  0  0
    5.1278   -1.2239    0.6677 O   0  0  0  0  0  0  0  0  0  0  0  0
    6.4135   -0.8264    0.8228 C   0  0  0  0  0  0  0  0  0  0  0  0
    6.9279    0.3988    0.3886 C   0  0  0  0  0  0  0  0  0  0  0  0
    8.2868    0.6869    0.5350 C   0  0  0  0  0  0  0  0  0  0  0  0
    8.8533    2.3968   -0.1074 Br  0  0  0  0  0  0  0  0  0  0  0  0
    9.1911   -0.2316    1.1250 C   0  0  0  0  0  0  0  0  0  0  0  0
   10.5996    0.0916    1.2507 C   0  0  0  0  0  0  0  0  0  0  0  0
   11.6392   -0.5920    1.8200 C   0  0  0  0  0  0  0  0  0  0  0  0
   11.5427   -1.8624    2.4748 C   0  0  0  0  0  0  0  0  0  0  0  0
   11.5616   -2.8862    3.0267 N   0  0  0  0  0  0  0  0  0  0  0  0
   12.9916   -0.0121    1.7907 C   0  0  0  0  0  0  0  0  0  0  0  0
   13.3113    1.1395    1.2442 N   0  0  0  0  0  0  0  0  0  0  0  0
   14.6661    1.2811    1.4494 C   0  0  0  0  0  0  0  0  0  0  0  0
   15.5429    2.3135    1.0820 C   0  0  0  0  0  0  0  0  0  0  0  0
   16.8862    2.1893    1.4258 C   0  0  0  0  0  0  0  0  0  0  0  0
   17.3941    1.0666    2.1276 C   0  0  0  0  0  0  0  0  0  0  0  0
   18.8625    0.9792    2.4749 C   0  0  0  0  0  0  0  0  0  0  0  0
   16.5256    0.0321    2.4982 C   0  0  0  0  0  0  0  0  0  0  0  0
   15.1773    0.1557    2.1536 C   0  0  0  0  0  0  0  0  0  0  0  0
   14.0782   -0.6528    2.3562 N   0  0  0  0  0  0  0  0  0  0  0  0
   14.0571   -1.5495    2.8280 H   0  0  0  0  0  0  0  0  0  0  0  0
    8.6277   -1.4544    1.5731 C   0  0  0  0  0  0  0  0  0  0  0  0
    7.2830   -1.7623    1.4407 C   0  0  0  0  0  0  0  0  0  0  0  0
    6.8217   -2.9732    1.8518 O   0  0  0  0  0  0  0  0  0  0  0  0
    5.9887   -2.9743    3.0089 C   0  0  0  0  0  0  0  0  0  0  0  0
    1.8230    3.2777    1.0822 H   0  0  0  0  0  0  0  0  0  0  0  0
    3.2599    3.1516    2.1652 H   0  0  0  0  0  0  0  0  0  0  0  0
    1.8326    2.1180    2.4641 H   0  0  0  0  0  0  0  0  0  0  0  0
    4.4556    0.2167   -0.6997 H   0  0  0  0  0  0  0  0  0  0  0  0
    3.2702   -0.9255   -0.0454 H   0  0  0  0  0  0  0  0  0  0  0  0
    6.2841    1.1439   -0.0756 H   0  0  0  0  0  0  0  0  0  0  0  0
   10.9082    1.0480    0.8225 H   0  0  0  0  0  0  0  0  0  0  0  0
   15.1698    3.1856    0.5415 H   0  0  0  0  0  0  0  0  0  0  0  0
   17.5820    2.9853    1.1468 H   0  0  0  0  0  0  0  0  0  0  0  0
   19.4105    1.8717    2.1392 H   0  0  0  0  0  0  0  0  0  0  0  0
   19.3363    0.1005    2.0055 H   0  0  0  0  0  0  0  0  0  0  0  0
   19.0149    0.8828    3.5631 H   0  0  0  0  0  0  0  0  0  0  0  0
   16.8973   -0.8419    3.0399 H   0  0  0  0  0  0  0  0  0  0  0  0
    9.2513   -2.2148    2.0409 H   0  0  0  0  0  0  0  0  0  0  0  0
    5.6133   -4.0001    3.1254 H   0  0  0  0  0  0  0  0  0  0  0  0
    5.1398   -2.2813    2.9021 H   0  0  0  0  0  0  0  0  0  0  0  0
    6.5690   -2.6989    3.9076 H   0  0  0  0  0  0  0  0  0  0  0  0
  1  2  1  0
  1 31  1  0
  1 32  1  0
  1 33  1  0
  2  3  1  0
  3  4  2  0
  3  5  1  0
  5  6  1  0
  5 34  1  0
  5 35  1  0
  6  7  1  0
  7  8  2  0
  7 28  1  0
  8  9  1  0
  8 36  1  0
  9 10  1  0
  9 11  2  0
 11 12  1  0
 11 27  1  0
 12 13  2  0
 12 37  1  0
 13 14  1  0
 13 16  1  0
 14 15  3  0
 16 17  2  0
 16 25  1  0
 17 18  1  0
 18 19  2  0
 18 24  1  0
 19 20  1  0
 19 38  1  0
 20 21  2  0
 20 39  1  0
 21 22  1  0
 21 23  1  0
 22 40  1  0
 22 41  1  0
 22 42  1  0
 23 24  2  0
 23 43  1  0
 24 25  1  0
 25 26  1  0
 27 28  2  0
 27 44  1  0
 28 29  1  0
 29 30  1  0
 30 45  1  0
 30 46  1  0
 30 47  1  0
M  END

