
     RDKit          3D

 49 49  0  0  0  0  0  0  0  0999 V2000
    6.3863   -1.4021    1.2427 C   0  0  0  0  0  0  0  0  0  0  0  0
    5.1748   -0.9658    0.4255 C   0  0  0  0  0  0  0  0  0  0  0  0
    5.3807    0.3499   -0.1560 N   0  0  0  0  0  0  0  0  0  0  0  0
    4.2760    0.8744   -0.9567 C   0  0  1  0  0  0  0  0  0  0  0  0
    3.1336    1.2326   -0.0360 C   0  0  0  0  0  0  0  0  0  0  0  0
    1.8383    0.8712   -0.1113 C   0  0  0  0  0  0  0  0  0  0  0  0
    1.2280    0.0496   -1.2197 C   0  0  0  0  0  0  0  0  0  0  0  0
    0.8570    1.3074    0.9500 C   0  0  0  0  0  0  0  0  0  0  0  0
    4.8322    2.0411   -1.8557 C   0  0  1  0  0  0  0  0  0  0  0  0
    5.9794    1.5119   -2.5669 O   0  0  0  0  0  0  0  0  0  0  0  0
    5.8168    0.4814   -3.5231 C   0  0  0  0  0  0  0  0  0  0  0  0
    7.1588    0.2633   -4.2033 C   0  0  0  0  0  0  0  0  0  0  0  0
    3.7953    2.5691   -2.8745 C   0  0  0  0  0  0  0  0  0  0  0  0
    2.8498    3.6627   -2.3577 C   0  0  0  0  0  0  0  0  0  0  0  0
    3.6148    4.8112   -1.6979 C   0  0  0  0  0  0  0  0  0  0  0  0
    4.4991    4.3036   -0.5511 C   0  0  2  0  0  0  0  0  0  0  0  0
    5.2867    5.4374    0.1128 C   0  0  0  0  0  0  0  0  0  0  0  0
    5.4543    3.2066   -1.0522 C   0  0  0  0  0  0  0  0  0  0  0  0
    6.2212   -2.3899    1.7012 H   0  0  0  0  0  0  0  0  0  0  0  0
    6.5970   -0.6742    2.0416 H   0  0  0  0  0  0  0  0  0  0  0  0
    7.2883   -1.4757    0.6110 H   0  0  0  0  0  0  0  0  0  0  0  0
    4.2856   -0.9263    1.0775 H   0  0  0  0  0  0  0  0  0  0  0  0
    4.9471   -1.7427   -0.3429 H   0  0  0  0  0  0  0  0  0  0  0  0
    6.2245    0.3609   -0.7281 H   0  0  0  0  0  0  0  0  0  0  0  0
    3.9077    0.1113   -1.6751 H   0  0  0  0  0  0  0  0  0  0  0  0
    3.4456    1.8153    0.8376 H   0  0  0  0  0  0  0  0  0  0  0  0
    1.9689   -0.3655   -1.9156 H   0  0  0  0  0  0  0  0  0  0  0  0
    0.5192    0.6589   -1.8095 H   0  0  0  0  0  0  0  0  0  0  0  0
    0.6420   -0.7884   -0.8033 H   0  0  0  0  0  0  0  0  0  0  0  0
    1.3377    1.9062    1.7376 H   0  0  0  0  0  0  0  0  0  0  0  0
    0.3750    0.4347    1.4262 H   0  0  0  0  0  0  0  0  0  0  0  0
    0.0403    1.9096    0.5118 H   0  0  0  0  0  0  0  0  0  0  0  0
    5.0545    0.7506   -4.2774 H   0  0  0  0  0  0  0  0  0  0  0  0
    5.4806   -0.4614   -3.0476 H   0  0  0  0  0  0  0  0  0  0  0  0
    7.4937    1.1860   -4.7017 H   0  0  0  0  0  0  0  0  0  0  0  0
    7.0855   -0.5364   -4.9573 H   0  0  0  0  0  0  0  0  0  0  0  0
    7.9272   -0.0222   -3.4679 H   0  0  0  0  0  0  0  0  0  0  0  0
    3.2059    1.7352   -3.2900 H   0  0  0  0  0  0  0  0  0  0  0  0
    4.3814    2.9880   -3.7111 H   0  0  0  0  0  0  0  0  0  0  0  0
    2.1381    3.2365   -1.6335 H   0  0  0  0  0  0  0  0  0  0  0  0
    2.2482    4.0386   -3.2028 H   0  0  0  0  0  0  0  0  0  0  0  0
    2.9108    5.5748   -1.3243 H   0  0  0  0  0  0  0  0  0  0  0  0
    4.2522    5.3155   -2.4496 H   0  0  0  0  0  0  0  0  0  0  0  0
    3.8295    3.8725    0.2128 H   0  0  0  0  0  0  0  0  0  0  0  0
    5.9695    5.9194   -0.6080 H   0  0  0  0  0  0  0  0  0  0  0  0
    5.8986    5.0652    0.9506 H   0  0  0  0  0  0  0  0  0  0  0  0
    4.6135    6.2163    0.5071 H   0  0  0  0  0  0  0  0  0  0  0  0
    6.0247    2.7837   -0.2114 H   0  0  0  0  0  0  0  0  0  0  0  0
    6.1889    3.6720   -1.7312 H   0  0  0  0  0  0  0  0  0  0  0  0
  1  2  1  0
  1 19  1  0
  1 20  1  0
  1 21  1  0
  2  3  1  0
  2 22  1  0
  2 23  1  0
  3  4  1  0
  3 24  1  0
  4  5  1  0
  4  9  1  0
  4 25  1  6
  5  6  2  0
  5 26  1  0
  6  7  1  0
  6  8  1  0
  7 27  1  0
  7 28  1  0
  7 29  1  0
  8 30  1  0
  8 31  1  0
  8 32  1  0
  9 10  1  6
  9 13  1  0
  9 18  1  0
 10 11  1  0
 11 12  1  0
 11 33  1  0
 11 34  1  0
 12 35  1  0
 12 36  1  0
 12 37  1  0
 13 14  1  0
 13 38  1  0
 13 39  1  0
 14 15  1  0
 14 40  1  0
 14 41  1  0
 15 16  1  0
 15 42  1  0
 15 43  1  0
 16 17  1  0
 16 18  1  0
 16 44  1  1
 17 45  1  0
 17 46  1  0
 17 47  1  0
 18 48  1  0
 18 49  1  0
M  END

