
     RDKit          3D

 60 59  0  0  0  0  0  0  0  0999 V2000
    8.4157    3.0743    3.8150 C   0  0  0  0  0  0  0  0  0  0  0  0
    7.3804    2.0736    4.3044 C   0  0  0  0  0  0  0  0  0  0  0  0
    7.8291    0.7199    4.1458 O   0  0  0  0  0  0  0  0  0  0  0  0
    7.6195    0.1282    2.9434 C   0  0  0  0  0  0  0  0  0  0  0  0
    7.0722    0.7005    2.0222 O   0  0  0  0  0  0  0  0  0  0  0  0
    8.1462   -1.2505    2.9738 C   0  0  0  0  0  0  0  0  0  0  0  0
    8.1284   -2.1662    1.9666 C   0  0  0  0  0  0  0  0  0  0  0  0
    7.5426   -1.9084    0.6031 C   0  0  0  0  0  0  0  0  0  0  0  0
    8.7200   -3.4808    2.2395 C   0  0  0  0  0  0  0  0  0  0  0  0
    8.7962   -4.5137    1.3777 C   0  0  0  0  0  0  0  0  0  0  0  0
    9.4145   -5.8445    1.6841 C   0  0  0  0  0  0  0  0  0  0  0  0
   10.6042   -6.1907    0.7565 C   0  0  0  0  0  0  0  0  0  0  0  0
   11.1483   -7.5697    1.0041 C   0  0  0  0  0  0  0  0  0  0  0  0
   12.3825   -7.9168    1.4024 C   0  0  0  0  0  0  0  0  0  0  0  0
   13.5205   -6.9680    1.6807 C   0  0  0  0  0  0  0  0  0  0  0  0
   12.7561   -9.3716    1.6073 C   0  0  0  0  0  0  0  0  0  0  0  0
   11.7014  -10.2575    1.3427 O   0  0  0  0  0  0  0  0  0  0  0  0
   11.7418  -11.9431    1.4429 Si  0  0  1  0  0  4  0  0  0  0  0  0
   13.0497  -12.6102    0.2545 C   0  0  0  0  0  0  0  0  0  0  0  0
   12.1865  -12.4558    3.2058 C   0  0  0  0  0  0  0  0  0  0  0  0
    9.9728  -12.4881    0.9542 C   0  0  1  0  0  0  0  0  0  0  0  0
    9.6585  -11.9940   -0.4731 C   0  0  0  0  0  0  0  0  0  0  0  0
    9.8634  -14.0263    0.9989 C   0  0  0  0  0  0  0  0  0  0  0  0
    8.9560  -11.8739    1.9386 C   0  0  0  0  0  0  0  0  0  0  0  0
    8.0765    4.1011    4.0272 H   0  0  0  0  0  0  0  0  0  0  0  0
    8.5643    2.9805    2.7292 H   0  0  0  0  0  0  0  0  0  0  0  0
    9.3820    2.9193    4.3202 H   0  0  0  0  0  0  0  0  0  0  0  0
    6.4291    2.2032    3.7668 H   0  0  0  0  0  0  0  0  0  0  0  0
    7.2006    2.1852    5.3841 H   0  0  0  0  0  0  0  0  0  0  0  0
    8.5941   -1.5313    3.9301 H   0  0  0  0  0  0  0  0  0  0  0  0
    7.1347   -0.8961    0.5266 H   0  0  0  0  0  0  0  0  0  0  0  0
    6.7425   -2.6366    0.3891 H   0  0  0  0  0  0  0  0  0  0  0  0
    8.3128   -2.0470   -0.1741 H   0  0  0  0  0  0  0  0  0  0  0  0
    9.1302   -3.6142    3.2477 H   0  0  0  0  0  0  0  0  0  0  0  0
    8.3950   -4.3972    0.3637 H   0  0  0  0  0  0  0  0  0  0  0  0
    8.6478   -6.6346    1.5701 H   0  0  0  0  0  0  0  0  0  0  0  0
    9.7443   -5.8799    2.7356 H   0  0  0  0  0  0  0  0  0  0  0  0
   11.3806   -5.4180    0.8669 H   0  0  0  0  0  0  0  0  0  0  0  0
   10.2549   -6.1251   -0.2917 H   0  0  0  0  0  0  0  0  0  0  0  0
   10.4414   -8.3918    0.8484 H   0  0  0  0  0  0  0  0  0  0  0  0
   13.2365   -5.9140    1.5657 H   0  0  0  0  0  0  0  0  0  0  0  0
   14.3716   -7.1610    1.0030 H   0  0  0  0  0  0  0  0  0  0  0  0
   13.9043   -7.1018    2.7079 H   0  0  0  0  0  0  0  0  0  0  0  0
   13.1185   -9.4894    2.6515 H   0  0  0  0  0  0  0  0  0  0  0  0
   13.6327   -9.5955    0.9616 H   0  0  0  0  0  0  0  0  0  0  0  0
   14.0565  -12.2637    0.5417 H   0  0  0  0  0  0  0  0  0  0  0  0
   12.8650  -12.2799   -0.7802 H   0  0  0  0  0  0  0  0  0  0  0  0
   13.0719  -13.7125    0.2598 H   0  0  0  0  0  0  0  0  0  0  0  0
   13.2041  -12.1217    3.4687 H   0  0  0  0  0  0  0  0  0  0  0  0
   12.1643  -13.5520    3.3223 H   0  0  0  0  0  0  0  0  0  0  0  0
   11.4912  -12.0229    3.9427 H   0  0  0  0  0  0  0  0  0  0  0  0
   10.3347  -12.4376   -1.2225 H   0  0  0  0  0  0  0  0  0  0  0  0
    9.7444  -10.8990   -0.5521 H   0  0  0  0  0  0  0  0  0  0  0  0
    8.6277  -12.2727   -0.7586 H   0  0  0  0  0  0  0  0  0  0  0  0
   10.5602  -14.5143    0.2973 H   0  0  0  0  0  0  0  0  0  0  0  0
    8.8437  -14.3475    0.7192 H   0  0  0  0  0  0  0  0  0  0  0  0
   10.0647  -14.4291    2.0055 H   0  0  0  0  0  0  0  0  0  0  0  0
    9.0179  -10.7745    1.9528 H   0  0  0  0  0  0  0  0  0  0  0  0
    9.1114  -12.2313    2.9700 H   0  0  0  0  0  0  0  0  0  0  0  0
    7.9254  -12.1499    1.6498 H   0  0  0  0  0  0  0  0  0  0  0  0
  1  2  1  0
  1 25  1  0
  1 26  1  0
  1 27  1  0
  2  3  1  0
  2 28  1  0
  2 29  1  0
  3  4  1  0
  4  5  2  0
  4  6  1  0
  6  7  2  0
  6 30  1  0
  7  8  1  0
  7  9  1  0
  8 31  1  0
  8 32  1  0
  8 33  1  0
  9 10  2  0
  9 34  1  0
 10 11  1  0
 10 35  1  0
 11 12  1  0
 11 36  1  0
 11 37  1  0
 12 13  1  0
 12 38  1  0
 12 39  1  0
 13 14  2  0
 13 40  1  0
 14 15  1  0
 14 16  1  0
 15 41  1  0
 15 42  1  0
 15 43  1  0
 16 17  1  0
 16 44  1  0
 16 45  1  0
 18 17  1  1
 18 19  1  0
 18 20  1  0
 18 21  1  0
 19 46  1  0
 19 47  1  0
 19 48  1  0
 20 49  1  0
 20 50  1  0
 20 51  1  0
 21 22  1  6
 21 23  1  0
 21 24  1  0
 22 52  1  0
 22 53  1  0
 22 54  1  0
 23 55  1  0
 23 56  1  0
 23 57  1  0
 24 58  1  0
 24 59  1  0
 24 60  1  0
M  END

