
     RDKit          3D

 50 51  0  0  0  0  0  0  0  0999 V2000
    1.0230   -0.1463   -0.3306 C   0  0  0  0  0  0  0  0  0  0  0  0
    2.5357    0.1165   -0.3758 C   0  0  1  0  0  0  0  0  0  0  0  0
    3.3624   -1.1817   -0.4961 C   0  0  0  0  0  0  0  0  0  0  0  0
    3.2872   -1.8111   -1.8954 C   0  0  0  0  0  0  0  0  0  0  0  0
    3.6732   -0.8327   -3.0172 C   0  0  2  0  0  0  0  0  0  0  0  0
    5.1308   -0.5696   -2.9213 N   0  0  0  0  0  0  0  0  0  0  0  0
    5.9580    0.0688   -4.2381 S   0  0  1  0  0  0  0  0  0  0  0  0
    7.2204   -0.6835   -4.3334 O   0  0  0  0  0  0  0  0  0  0  0  0
    5.0545    0.1926   -5.3834 O   0  0  0  0  0  0  0  0  0  0  0  0
    6.4067    1.7406   -3.6990 C   0  0  0  0  0  0  0  0  0  0  0  0
    7.1682    2.5432   -4.7633 C   0  0  0  0  0  0  0  0  0  0  0  0
    6.8373    3.6881   -5.0190 O   0  0  0  0  0  0  0  0  0  0  0  0
    8.2384    1.9232   -5.3256 N   0  0  0  0  0  0  0  0  0  0  0  0
    8.9751    2.5598   -6.3918 C   0  0  1  0  0  0  0  0  0  0  0  0
    9.7733    3.8238   -6.0411 C   0  0  0  0  0  0  0  0  0  0  0  0
   10.9046    3.8181   -7.0831 C   0  0  0  0  0  0  0  0  0  0  0  0
   11.1076    2.3897   -7.3329 N   0  0  0  0  0  0  0  0  0  0  0  0
   12.2278    1.8303   -8.0372 C   0  0  0  0  0  0  0  0  0  0  0  0
   13.4993    1.7625   -7.2005 C   0  0  1  0  0  0  0  0  0  0  0  0
   13.3252    1.0539   -6.0804 F   0  0  0  0  0  0  0  0  0  0  0  0
   14.4859    1.1925   -7.9092 F   0  0  0  0  0  0  0  0  0  0  0  0
   13.9228    2.9927   -6.8376 F   0  0  0  0  0  0  0  0  0  0  0  0
   10.0479    1.6111   -6.9371 C   0  0  0  0  0  0  0  0  0  0  0  0
    9.9683    0.4041   -7.0220 O   0  0  0  0  0  0  0  0  0  0  0  0
    2.8598    0.4667   -2.8993 C   0  0  0  0  0  0  0  0  0  0  0  0
    2.9386    1.0942   -1.5010 C   0  0  0  0  0  0  0  0  0  0  0  0
    0.7633   -0.8097    0.5104 H   0  0  0  0  0  0  0  0  0  0  0  0
    0.6440   -0.6208   -1.2501 H   0  0  0  0  0  0  0  0  0  0  0  0
    0.4649    0.7946   -0.1966 H   0  0  0  0  0  0  0  0  0  0  0  0
    2.8057    0.5893    0.5850 H   0  0  0  0  0  0  0  0  0  0  0  0
    3.0297   -1.9154    0.2575 H   0  0  0  0  0  0  0  0  0  0  0  0
    4.4159   -0.9527   -0.2602 H   0  0  0  0  0  0  0  0  0  0  0  0
    2.2612   -2.1580   -2.1017 H   0  0  0  0  0  0  0  0  0  0  0  0
    3.9232   -2.7125   -1.9492 H   0  0  0  0  0  0  0  0  0  0  0  0
    3.4536   -1.2985   -3.9924 H   0  0  0  0  0  0  0  0  0  0  0  0
    5.6809   -1.3583   -2.5810 H   0  0  0  0  0  0  0  0  0  0  0  0
    7.0146    1.6076   -2.7921 H   0  0  0  0  0  0  0  0  0  0  0  0
    5.4849    2.2832   -3.4591 H   0  0  0  0  0  0  0  0  0  0  0  0
    8.3642    0.9145   -5.2051 H   0  0  0  0  0  0  0  0  0  0  0  0
    8.2910    2.7902   -7.2337 H   0  0  0  0  0  0  0  0  0  0  0  0
   10.1952    3.7104   -5.0298 H   0  0  0  0  0  0  0  0  0  0  0  0
    9.1614    4.7334   -6.0618 H   0  0  0  0  0  0  0  0  0  0  0  0
   11.8265    4.2880   -6.7136 H   0  0  0  0  0  0  0  0  0  0  0  0
   10.6094    4.3384   -8.0149 H   0  0  0  0  0  0  0  0  0  0  0  0
   12.4606    2.4056   -8.9492 H   0  0  0  0  0  0  0  0  0  0  0  0
   11.9675    0.7995   -8.3207 H   0  0  0  0  0  0  0  0  0  0  0  0
    1.8140    0.2229   -3.1518 H   0  0  0  0  0  0  0  0  0  0  0  0
    3.1881    1.1785   -3.6729 H   0  0  0  0  0  0  0  0  0  0  0  0
    2.3060    1.9970   -1.4621 H   0  0  0  0  0  0  0  0  0  0  0  0
    3.9731    1.4319   -1.3189 H   0  0  0  0  0  0  0  0  0  0  0  0
  1  2  1  0
  1 27  1  0
  1 28  1  0
  1 29  1  0
  2  3  1  0
  2 26  1  0
  2 30  1  1
  3  4  1  0
  3 31  1  0
  3 32  1  0
  4  5  1  0
  4 33  1  0
  4 34  1  0
  5  6  1  0
  5 25  1  0
  5 35  1  6
  7  6  1  1
  6 36  1  0
  7  8  2  0
  7  9  2  0
  7 10  1  0
 10 11  1  0
 10 37  1  0
 10 38  1  0
 11 12  2  0
 11 13  1  0
 13 14  1  0
 13 39  1  0
 14 15  1  0
 14 23  1  0
 14 40  1  6
 15 16  1  0
 15 41  1  0
 15 42  1  0
 16 17  1  0
 16 43  1  0
 16 44  1  0
 17 18  1  0
 17 23  1  0
 18 19  1  0
 18 45  1  0
 18 46  1  0
 19 20  1  1
 19 21  1  0
 19 22  1  0
 23 24  2  0
 25 26  1  0
 25 47  1  0
 25 48  1  0
 26 49  1  0
 26 50  1  0
M  END

