
     RDKit          3D

 43 43  0  0  0  0  0  0  0  0999 V2000
    2.2976   -1.4597   -3.7657 C   0  0  0  0  0  0  0  0  0  0  0  0
    2.1989   -1.4902   -2.2390 C   0  0  0  0  0  0  0  0  0  0  0  0
    3.0080   -0.3961   -1.5057 C   0  0  1  0  0  0  0  0  0  0  0  0
    2.6469    1.0352   -1.9530 C   0  0  0  0  0  0  0  0  0  0  0  0
    1.1755    1.4029   -1.7661 C   0  0  0  0  0  0  0  0  0  0  0  0
    2.7474   -0.3973   -0.0950 O   0  0  0  0  0  0  0  0  0  0  0  0
    2.7381   -1.6105    0.6277 C   0  0  0  0  0  0  0  0  0  0  0  0
    4.4982   -0.6426   -1.7147 C   0  0  0  0  0  0  0  0  0  0  0  0
    5.3382    0.2967   -2.0668 N   0  0  0  0  0  0  0  0  0  0  0  0
    6.5694   -0.3535   -2.0947 O   0  0  0  0  0  0  0  0  0  0  0  0
    6.3462   -1.6314   -1.7628 C   0  0  0  0  0  0  0  0  0  0  0  0
    7.5206   -2.5551   -1.7012 C   0  0  0  0  0  0  0  0  0  0  0  0
    8.2892   -2.4800   -2.9318 N   0  0  0  0  0  0  0  0  0  0  0  0
    9.4412   -3.3899   -3.0980 C   0  0  1  0  0  0  0  0  0  0  0  0
    8.9393   -4.8430   -3.1571 C   0  0  0  0  0  0  0  0  0  0  0  0
   10.0780   -3.0197   -4.4470 C   0  0  0  0  0  0  0  0  0  0  0  0
   10.4912   -3.2405   -1.9748 C   0  0  0  0  0  0  0  0  0  0  0  0
    5.0944   -1.8740   -1.5198 N   0  0  0  0  0  0  0  0  0  0  0  0
    1.7538   -2.3129   -4.2008 H   0  0  0  0  0  0  0  0  0  0  0  0
    3.3426   -1.5301   -4.1084 H   0  0  0  0  0  0  0  0  0  0  0  0
    1.8668   -0.5419   -4.1946 H   0  0  0  0  0  0  0  0  0  0  0  0
    2.5465   -2.4717   -1.8832 H   0  0  0  0  0  0  0  0  0  0  0  0
    1.1471   -1.3931   -1.9250 H   0  0  0  0  0  0  0  0  0  0  0  0
    2.9541    1.1732   -3.0006 H   0  0  0  0  0  0  0  0  0  0  0  0
    3.2748    1.7191   -1.3627 H   0  0  0  0  0  0  0  0  0  0  0  0
    0.5086    0.8255   -2.4265 H   0  0  0  0  0  0  0  0  0  0  0  0
    1.0167    2.4686   -1.9942 H   0  0  0  0  0  0  0  0  0  0  0  0
    0.8613    1.2265   -0.7269 H   0  0  0  0  0  0  0  0  0  0  0  0
    2.6593   -1.3327    1.6895 H   0  0  0  0  0  0  0  0  0  0  0  0
    3.6584   -2.2007    0.4827 H   0  0  0  0  0  0  0  0  0  0  0  0
    1.8702   -2.2483    0.3778 H   0  0  0  0  0  0  0  0  0  0  0  0
    7.1127   -3.5654   -1.5613 H   0  0  0  0  0  0  0  0  0  0  0  0
    8.0916   -2.3108   -0.7765 H   0  0  0  0  0  0  0  0  0  0  0  0
    8.5899   -1.5179   -3.0850 H   0  0  0  0  0  0  0  0  0  0  0  0
    8.1609   -4.9480   -3.9281 H   0  0  0  0  0  0  0  0  0  0  0  0
    8.5172   -5.1755   -2.1954 H   0  0  0  0  0  0  0  0  0  0  0  0
    9.7678   -5.5262   -3.3998 H   0  0  0  0  0  0  0  0  0  0  0  0
    9.3412   -3.1154   -5.2587 H   0  0  0  0  0  0  0  0  0  0  0  0
   10.9371   -3.6706   -4.6705 H   0  0  0  0  0  0  0  0  0  0  0  0
   10.4417   -1.9780   -4.4383 H   0  0  0  0  0  0  0  0  0  0  0  0
   10.0831   -3.5220   -0.9908 H   0  0  0  0  0  0  0  0  0  0  0  0
   10.8500   -2.1997   -1.9088 H   0  0  0  0  0  0  0  0  0  0  0  0
   11.3648   -3.8854   -2.1613 H   0  0  0  0  0  0  0  0  0  0  0  0
  1  2  1  0
  1 19  1  0
  1 20  1  0
  1 21  1  0
  2  3  1  0
  2 22  1  0
  2 23  1  0
  3  4  1  0
  3  6  1  1
  3  8  1  0
  4  5  1  0
  4 24  1  0
  4 25  1  0
  5 26  1  0
  5 27  1  0
  5 28  1  0
  6  7  1  0
  7 29  1  0
  7 30  1  0
  7 31  1  0
  8  9  2  0
  8 18  1  0
  9 10  1  0
 10 11  1  0
 11 12  1  0
 11 18  2  0
 12 13  1  0
 12 32  1  0
 12 33  1  0
 14 13  1  1
 13 34  1  0
 14 15  1  0
 14 16  1  0
 14 17  1  0
 15 35  1  0
 15 36  1  0
 15 37  1  0
 16 38  1  0
 16 39  1  0
 16 40  1  0
 17 41  1  0
 17 42  1  0
 17 43  1  0
M  END

