
     RDKit          3D

 48 49  0  0  0  0  0  0  0  0999 V2000
    1.4180    2.2120    3.3855 C   0  0  0  0  0  0  0  0  0  0  0  0
    2.6535    2.0783    4.2849 C   0  0  1  0  0  0  0  0  0  0  0  0
    2.4047    2.7304    5.6519 C   0  0  0  0  0  0  0  0  0  0  0  0
    3.1113    0.6165    4.4696 C   0  0  0  0  0  0  0  0  0  0  0  0
    3.5108   -0.1515    3.2099 C   0  0  1  0  0  0  0  0  0  0  0  0
    4.5991    0.4741    2.3389 C   0  0  0  0  0  0  0  0  0  0  0  0
    5.9280    0.8344    3.0368 C   0  0  1  0  0  0  0  0  0  0  0  0
    6.6509   -0.3501    3.7098 C   0  0  0  0  0  0  0  0  0  0  0  0
    7.3017   -1.2860    2.6845 C   0  0  0  0  0  0  0  0  0  0  0  0
    8.1794   -0.5035    1.7030 C   0  0  0  0  0  0  0  0  0  0  0  0
    7.4162    0.5638    1.0683 N   0  0  0  0  0  0  0  0  0  0  0  0
    8.0100    1.1739   -0.1302 C   0  0  1  0  0  0  0  0  0  0  0  0
    9.4057    1.7924    0.0819 C   0  0  0  0  0  0  0  0  0  0  0  0
    8.0071    0.1992   -1.3141 C   0  0  0  0  0  0  0  0  0  0  0  0
    6.9004    1.5096    2.0491 C   0  0  0  0  0  0  0  0  0  0  0  0
    3.4577   -1.6637    3.2954 C   0  0  0  0  0  0  0  0  0  0  0  0
    2.4268   -0.9228    2.4852 C   0  0  0  0  0  0  0  0  0  0  0  0
    1.1209    3.2685    3.2803 H   0  0  0  0  0  0  0  0  0  0  0  0
    0.5575    1.6680    3.8126 H   0  0  0  0  0  0  0  0  0  0  0  0
    1.5958    1.8119    2.3762 H   0  0  0  0  0  0  0  0  0  0  0  0
    3.4784    2.6346    3.8029 H   0  0  0  0  0  0  0  0  0  0  0  0
    1.5852    2.2220    6.1891 H   0  0  0  0  0  0  0  0  0  0  0  0
    2.1236    3.7909    5.5463 H   0  0  0  0  0  0  0  0  0  0  0  0
    3.3003    2.6829    6.2929 H   0  0  0  0  0  0  0  0  0  0  0  0
    2.3035    0.0598    4.9793 H   0  0  0  0  0  0  0  0  0  0  0  0
    3.9617    0.6092    5.1755 H   0  0  0  0  0  0  0  0  0  0  0  0
    4.1998    1.4008    1.8872 H   0  0  0  0  0  0  0  0  0  0  0  0
    4.8092   -0.1923    1.4876 H   0  0  0  0  0  0  0  0  0  0  0  0
    5.7081    1.5817    3.8193 H   0  0  0  0  0  0  0  0  0  0  0  0
    5.9653   -0.9080    4.3665 H   0  0  0  0  0  0  0  0  0  0  0  0
    7.4435    0.0585    4.3631 H   0  0  0  0  0  0  0  0  0  0  0  0
    6.5296   -1.8293    2.1149 H   0  0  0  0  0  0  0  0  0  0  0  0
    7.9130   -2.0474    3.1981 H   0  0  0  0  0  0  0  0  0  0  0  0
    8.5698   -1.1835    0.9307 H   0  0  0  0  0  0  0  0  0  0  0  0
    9.0648   -0.1074    2.2553 H   0  0  0  0  0  0  0  0  0  0  0  0
    7.3250    1.9981   -0.3966 H   0  0  0  0  0  0  0  0  0  0  0  0
   10.1655    1.0203    0.2859 H   0  0  0  0  0  0  0  0  0  0  0  0
    9.4122    2.5034    0.9234 H   0  0  0  0  0  0  0  0  0  0  0  0
    9.7273    2.3406   -0.8182 H   0  0  0  0  0  0  0  0  0  0  0  0
    8.7190   -0.6300   -1.1708 H   0  0  0  0  0  0  0  0  0  0  0  0
    8.2984    0.7186   -2.2410 H   0  0  0  0  0  0  0  0  0  0  0  0
    7.0042   -0.2317   -1.4544 H   0  0  0  0  0  0  0  0  0  0  0  0
    6.3803    2.3208    1.5131 H   0  0  0  0  0  0  0  0  0  0  0  0
    7.7194    1.9896    2.6359 H   0  0  0  0  0  0  0  0  0  0  0  0
    3.1446   -2.1166    4.2416 H   0  0  0  0  0  0  0  0  0  0  0  0
    4.2156   -2.2400    2.7580 H   0  0  0  0  0  0  0  0  0  0  0  0
    1.4062   -0.8712    2.8745 H   0  0  0  0  0  0  0  0  0  0  0  0
    2.4826   -0.9876    1.3940 H   0  0  0  0  0  0  0  0  0  0  0  0
  1  2  1  0
  1 18  1  0
  1 19  1  0
  1 20  1  0
  2  3  1  0
  2  4  1  0
  2 21  1  6
  3 22  1  0
  3 23  1  0
  3 24  1  0
  5  4  1  1
  4 25  1  0
  4 26  1  0
  5  6  1  0
  5 16  1  0
  5 17  1  0
  6  7  1  0
  6 27  1  0
  6 28  1  0
  7  8  1  0
  7 15  1  0
  7 29  1  1
  8  9  1  0
  8 30  1  0
  8 31  1  0
  9 10  1  0
  9 32  1  0
  9 33  1  0
 10 11  1  0
 10 34  1  0
 10 35  1  0
 11 12  1  0
 11 15  1  0
 12 13  1  0
 12 14  1  0
 12 36  1  6
 13 37  1  0
 13 38  1  0
 13 39  1  0
 14 40  1  0
 14 41  1  0
 14 42  1  0
 15 43  1  0
 15 44  1  0
 16 17  1  0
 16 45  1  0
 16 46  1  0
 17 47  1  0
 17 48  1  0
M  END

