
     RDKit          3D

 46 47  0  0  0  0  0  0  0  0999 V2000
    1.0633    0.2548    5.9220 C   0  0  0  0  0  0  0  0  0  0  0  0
    1.8724   -0.6423    4.9763 C   0  0  1  0  0  0  0  0  0  0  0  0
    0.9523   -1.3144    3.9470 C   0  0  0  0  0  0  0  0  0  0  0  0
    3.0149    0.1600    4.3240 C   0  0  0  0  0  0  0  0  0  0  0  0
    4.0047   -0.6816    3.5088 C   0  0  0  0  0  0  0  0  0  0  0  0
    5.1288    0.0814    2.9582 N   0  0  0  0  0  0  0  0  0  0  0  0
    4.8335    0.8250    1.7378 C   0  0  0  0  0  0  0  0  0  0  0  0
    6.4463   -0.2751    3.1407 C   0  0  0  0  0  0  0  0  0  0  0  0
    7.2719   -0.1038    2.2257 O   0  0  0  0  0  0  0  0  0  0  0  0
    6.8367   -0.8226    4.3410 N   0  0  0  0  0  0  0  0  0  0  0  0
    6.3307   -0.4863    5.6822 C   0  0  0  0  0  0  0  0  0  0  0  0
    7.0823   -1.4363    6.6541 C   0  0  1  0  0  0  0  0  0  0  0  0
    6.1825   -2.4916    7.3208 C   0  0  0  0  0  0  0  0  0  0  0  0
    6.0081   -3.5666    6.2383 C   0  0  0  0  0  0  0  0  0  0  0  0
    7.4020   -3.6586    5.5861 C   0  0  0  0  0  0  0  0  0  0  0  0
    8.0581   -2.2562    5.7505 C   0  0  1  0  0  0  0  0  0  0  0  0
    8.1763   -1.4298    4.4698 C   0  0  2  0  0  0  0  0  0  0  0  0
    9.3217   -0.3761    4.5737 C   0  0  0  0  0  0  0  0  0  0  0  0
   10.0629   -0.3195    5.5253 O   0  0  0  0  0  0  0  0  0  0  0  0
    9.4339    0.4371    3.5333 O   0  0  0  0  0  0  0  0  0  0  0  0
    0.2687   -0.3142    6.4307 H   0  0  0  0  0  0  0  0  0  0  0  0
    0.5799    1.0776    5.3677 H   0  0  0  0  0  0  0  0  0  0  0  0
    1.7024    0.7072    6.6976 H   0  0  0  0  0  0  0  0  0  0  0  0
    2.3342   -1.4419    5.5879 H   0  0  0  0  0  0  0  0  0  0  0  0
    0.4865   -0.5629    3.2859 H   0  0  0  0  0  0  0  0  0  0  0  0
    0.1387   -1.8636    4.4473 H   0  0  0  0  0  0  0  0  0  0  0  0
    1.4869   -2.0356    3.3092 H   0  0  0  0  0  0  0  0  0  0  0  0
    3.5750    0.6961    5.1085 H   0  0  0  0  0  0  0  0  0  0  0  0
    2.5775    0.9438    3.6797 H   0  0  0  0  0  0  0  0  0  0  0  0
    3.4815   -1.1624    2.6624 H   0  0  0  0  0  0  0  0  0  0  0  0
    4.4021   -1.5040    4.1184 H   0  0  0  0  0  0  0  0  0  0  0  0
    3.8936    1.3797    1.8693 H   0  0  0  0  0  0  0  0  0  0  0  0
    4.7308    0.1570    0.8629 H   0  0  0  0  0  0  0  0  0  0  0  0
    5.6413    1.5346    1.5253 H   0  0  0  0  0  0  0  0  0  0  0  0
    5.2446   -0.6218    5.7506 H   0  0  0  0  0  0  0  0  0  0  0  0
    6.5426    0.5723    5.9157 H   0  0  0  0  0  0  0  0  0  0  0  0
    7.6310   -0.8386    7.3945 H   0  0  0  0  0  0  0  0  0  0  0  0
    5.2308   -2.0788    7.6941 H   0  0  0  0  0  0  0  0  0  0  0  0
    6.7095   -2.9195    8.1909 H   0  0  0  0  0  0  0  0  0  0  0  0
    5.2588   -3.2382    5.4972 H   0  0  0  0  0  0  0  0  0  0  0  0
    5.6542   -4.5299    6.6380 H   0  0  0  0  0  0  0  0  0  0  0  0
    7.3517   -3.9795    4.5337 H   0  0  0  0  0  0  0  0  0  0  0  0
    8.0116   -4.4089    6.1147 H   0  0  0  0  0  0  0  0  0  0  0  0
    9.0503   -2.3313    6.2100 H   0  0  0  0  0  0  0  0  0  0  0  0
    8.3745   -2.0416    3.5751 H   0  0  0  0  0  0  0  0  0  0  0  0
    8.7003    0.2527    2.8764 H   0  0  0  0  0  0  0  0  0  0  0  0
  1  2  1  0
  1 21  1  0
  1 22  1  0
  1 23  1  0
  2  3  1  0
  2  4  1  0
  2 24  1  1
  3 25  1  0
  3 26  1  0
  3 27  1  0
  4  5  1  0
  4 28  1  0
  4 29  1  0
  5  6  1  0
  5 30  1  0
  5 31  1  0
  6  7  1  0
  6  8  1  0
  7 32  1  0
  7 33  1  0
  7 34  1  0
  8  9  2  0
  8 10  1  0
 10 11  1  0
 10 17  1  0
 11 12  1  0
 11 35  1  0
 11 36  1  0
 12 13  1  0
 12 16  1  0
 12 37  1  1
 13 14  1  0
 13 38  1  0
 13 39  1  0
 14 15  1  0
 14 40  1  0
 14 41  1  0
 15 16  1  0
 15 42  1  0
 15 43  1  0
 16 17  1  0
 16 44  1  1
 17 18  1  0
 17 45  1  6
 18 19  2  0
 18 20  1  0
 20 46  1  0
M  END

