
     RDKit          3D

 45 48  0  0  0  0  0  0  0  0999 V2000
    0.7539   -0.8332   -0.2262 O   0  0  0  0  0  0  0  0  0  0  0  0
    1.3994    0.0742    0.2384 C   0  0  0  0  0  0  0  0  0  0  0  0
    2.0437    0.0290    1.6241 C   0  0  0  0  0  0  0  0  0  0  0  0
    1.5253   -1.1379    2.4754 C   0  0  0  0  0  0  0  0  0  0  0  0
    2.2060   -1.2460    3.8099 C   0  0  0  0  0  0  0  0  0  0  0  0
    2.0118   -0.4464    4.9718 C   0  0  0  0  0  0  0  0  0  0  0  0
    2.8081   -0.8088    5.9659 N   0  0  0  0  0  0  0  0  0  0  0  0
    3.5324   -1.8399    5.4886 N   0  0  0  0  0  0  0  0  0  0  0  0
    4.5016   -2.4752    6.3100 C   0  0  0  0  0  0  0  0  0  0  0  0
    4.9275   -1.8416    7.4869 C   0  0  0  0  0  0  0  0  0  0  0  0
    5.8846   -2.4560    8.2946 C   0  0  0  0  0  0  0  0  0  0  0  0
    6.4284   -3.6954    7.9414 C   0  0  0  0  0  0  0  0  0  0  0  0
    5.9969   -4.3233    6.7701 C   0  0  0  0  0  0  0  0  0  0  0  0
    5.0332   -3.7238    5.9561 C   0  0  0  0  0  0  0  0  0  0  0  0
    3.1995   -2.1304    4.1917 C   0  0  0  0  0  0  0  0  0  0  0  0
    1.6597    1.2726   -0.4371 N   0  0  0  0  0  0  0  0  0  0  0  0
    1.2737    1.6210   -1.7230 C   0  0  0  0  0  0  0  0  0  0  0  0
    0.6155    0.8888   -2.5561 N   0  0  0  0  0  0  0  0  0  0  0  0
    0.3937    1.5374   -3.7538 C   0  0  0  0  0  0  0  0  0  0  0  0
   -0.3513    0.8255   -4.8116 C   0  0  0  0  0  0  0  0  0  0  0  0
   -0.8244   -0.4764   -4.5678 C   0  0  0  0  0  0  0  0  0  0  0  0
   -1.5325   -1.1735   -5.5488 C   0  0  0  0  0  0  0  0  0  0  0  0
   -1.7755   -0.5797   -6.7824 C   0  0  0  0  0  0  0  0  0  0  0  0
   -2.4506   -1.2286   -7.7353 F   0  0  0  0  0  0  0  0  0  0  0  0
   -1.3087    0.7156   -7.0352 C   0  0  0  0  0  0  0  0  0  0  0  0
   -1.5492    1.2743   -8.2264 F   0  0  0  0  0  0  0  0  0  0  0  0
   -0.6047    1.4138   -6.0650 C   0  0  0  0  0  0  0  0  0  0  0  0
    0.9095    2.8110   -3.8222 C   0  0  0  0  0  0  0  0  0  0  0  0
    1.7029    3.2283   -2.3363 S   0  0  0  0  0  0  0  0  0  0  0  0
    1.8840    0.9911    2.1421 H   0  0  0  0  0  0  0  0  0  0  0  0
    3.1371   -0.0609    1.4875 H   0  0  0  0  0  0  0  0  0  0  0  0
    1.6510   -2.0699    1.9049 H   0  0  0  0  0  0  0  0  0  0  0  0
    0.4380   -1.0203    2.6142 H   0  0  0  0  0  0  0  0  0  0  0  0
    1.3074    0.3743    5.1155 H   0  0  0  0  0  0  0  0  0  0  0  0
    4.4942   -0.8769    7.7482 H   0  0  0  0  0  0  0  0  0  0  0  0
    6.2110   -1.9560    9.2101 H   0  0  0  0  0  0  0  0  0  0  0  0
    7.1796   -4.1704    8.5767 H   0  0  0  0  0  0  0  0  0  0  0  0
    6.4048   -5.2967    6.4864 H   0  0  0  0  0  0  0  0  0  0  0  0
    4.6900   -4.2411    5.0592 H   0  0  0  0  0  0  0  0  0  0  0  0
    3.6891   -2.9224    3.6316 H   0  0  0  0  0  0  0  0  0  0  0  0
    2.2004    1.9663    0.0665 H   0  0  0  0  0  0  0  0  0  0  0  0
   -0.6269   -0.9297   -3.5958 H   0  0  0  0  0  0  0  0  0  0  0  0
   -1.9056   -2.1845   -5.3723 H   0  0  0  0  0  0  0  0  0  0  0  0
   -0.2631    2.4195   -6.3150 H   0  0  0  0  0  0  0  0  0  0  0  0
    0.8734    3.5240   -4.6420 H   0  0  0  0  0  0  0  0  0  0  0  0
  1  2  2  0
  2  3  1  0
  2 16  1  0
  3  4  1  0
  3 30  1  0
  3 31  1  0
  4  5  1  0
  4 32  1  0
  4 33  1  0
  5  6  1  0
  5 15  2  0
  6  7  2  0
  6 34  1  0
  7  8  1  0
  8  9  1  0
  8 15  1  0
  9 10  2  0
  9 14  1  0
 10 11  1  0
 10 35  1  0
 11 12  2  0
 11 36  1  0
 12 13  1  0
 12 37  1  0
 13 14  2  0
 13 38  1  0
 14 39  1  0
 15 40  1  0
 16 17  1  0
 16 41  1  0
 17 18  2  0
 17 29  1  0
 18 19  1  0
 19 20  1  0
 19 28  2  0
 20 21  2  0
 20 27  1  0
 21 22  1  0
 21 42  1  0
 22 23  2  0
 22 43  1  0
 23 24  1  0
 23 25  1  0
 25 26  1  0
 25 27  2  0
 27 44  1  0
 28 29  1  0
 28 45  1  0
M  END

