
     RDKit          3D

 29 29  0  0  0  0  0  0  0  0999 V2000
    1.0419    0.0131   -0.1316 C   0  0  0  0  0  0  0  0  0  0  0  0
    2.4832   -0.1697   -0.1014 N   0  0  0  0  0  0  0  0  0  0  0  0
    2.9660   -1.3062    0.6826 C   0  0  1  0  0  0  0  0  0  0  0  0
    2.4769   -2.6211    0.0671 C   0  0  0  0  0  0  0  0  0  0  0  0
    4.5215   -1.2574    0.7384 C   0  0  1  0  0  0  0  0  0  0  0  0
    5.0791    0.0787    1.2698 C   0  0  0  0  0  0  0  0  0  0  0  0
    5.1043   -2.4291    1.5137 C   0  0  0  0  0  0  0  0  0  0  0  0
    5.8718   -3.4185    0.8816 C   0  0  0  0  0  0  0  0  0  0  0  0
    6.0662   -3.3274   -0.4456 F   0  0  0  0  0  0  0  0  0  0  0  0
    6.4434   -4.4988    1.5513 C   0  0  0  0  0  0  0  0  0  0  0  0
    6.2473   -4.6173    2.9280 C   0  0  0  0  0  0  0  0  0  0  0  0
    5.4900   -3.6639    3.6120 C   0  0  0  0  0  0  0  0  0  0  0  0
    4.9415   -2.6028    2.8961 C   0  0  0  0  0  0  0  0  0  0  0  0
    4.2141   -1.6960    3.5783 F   0  0  0  0  0  0  0  0  0  0  0  0
    0.8090    0.9845   -0.5950 H   0  0  0  0  0  0  0  0  0  0  0  0
    0.5562   -0.0100    0.8704 H   0  0  0  0  0  0  0  0  0  0  0  0
    0.5535   -0.7582   -0.7479 H   0  0  0  0  0  0  0  0  0  0  0  0
    2.9056    0.6822    0.2576 H   0  0  0  0  0  0  0  0  0  0  0  0
    2.5888   -1.2587    1.7296 H   0  0  0  0  0  0  0  0  0  0  0  0
    2.8194   -2.7059   -0.9770 H   0  0  0  0  0  0  0  0  0  0  0  0
    1.3787   -2.6824    0.0712 H   0  0  0  0  0  0  0  0  0  0  0  0
    2.8508   -3.4874    0.6315 H   0  0  0  0  0  0  0  0  0  0  0  0
    4.8624   -1.3626   -0.3021 H   0  0  0  0  0  0  0  0  0  0  0  0
    4.6752    0.3257    2.2630 H   0  0  0  0  0  0  0  0  0  0  0  0
    4.8566    0.9069    0.5796 H   0  0  0  0  0  0  0  0  0  0  0  0
    6.1755    0.0281    1.3556 H   0  0  0  0  0  0  0  0  0  0  0  0
    7.0274   -5.2247    0.9835 H   0  0  0  0  0  0  0  0  0  0  0  0
    6.6864   -5.4569    3.4712 H   0  0  0  0  0  0  0  0  0  0  0  0
    5.3145   -3.7237    4.6871 H   0  0  0  0  0  0  0  0  0  0  0  0
  1  2  1  0
  1 15  1  0
  1 16  1  0
  1 17  1  0
  2  3  1  0
  2 18  1  0
  3  4  1  0
  3  5  1  0
  3 19  1  1
  4 20  1  0
  4 21  1  0
  4 22  1  0
  5  6  1  0
  5  7  1  0
  5 23  1  6
  6 24  1  0
  6 25  1  0
  6 26  1  0
  7  8  2  0
  7 13  1  0
  8  9  1  0
  8 10  1  0
 10 11  2  0
 10 27  1  0
 11 12  1  0
 11 28  1  0
 12 13  2  0
 12 29  1  0
 13 14  1  0
M  END

