
     RDKit          3D

 85 89  0  0  0  0  0  0  0  0999 V2000
    2.1760   -0.7508    3.5039 C   0  0  0  0  0  0  0  0  0  0  0  0
    3.3579   -0.7129    2.5670 C   0  0  0  0  0  0  0  0  0  0  0  0
    3.2470   -0.1943    1.2673 C   0  0  0  0  0  0  0  0  0  0  0  0
    4.3430   -0.1634    0.4048 C   0  0  0  0  0  0  0  0  0  0  0  0
    5.5835   -0.6821    0.8035 C   0  0  0  0  0  0  0  0  0  0  0  0
    6.7473   -0.5190   -0.1419 C   0  0  0  0  0  0  0  0  0  0  0  0
    6.8693    0.5295   -0.7602 O   0  0  0  0  0  0  0  0  0  0  0  0
    7.6756   -1.5448   -0.2498 N   0  0  0  0  0  0  0  0  0  0  0  0
    7.4029   -2.9492    0.0838 C   0  0  0  0  0  0  0  0  0  0  0  0
    7.4280   -3.8368   -1.1639 C   0  0  0  0  0  0  0  0  0  0  0  0
    8.7692   -3.7556   -1.9137 C   0  0  2  0  0  0  0  0  0  0  0  0
    9.9057   -4.2939   -1.1400 N   0  0  0  0  0  0  0  0  0  0  0  0
    9.6513   -5.5920   -0.5123 C   0  0  0  0  0  0  0  0  0  0  0  0
   10.7696   -6.0775    0.4302 C   0  0  0  0  0  0  0  0  0  0  0  0
   10.3353   -7.2789    1.2416 C   0  0  0  0  0  0  0  0  0  0  0  0
   10.4550   -8.5785    0.7220 C   0  0  0  0  0  0  0  0  0  0  0  0
   10.0214   -9.6884    1.4526 C   0  0  0  0  0  0  0  0  0  0  0  0
    9.4590   -9.5188    2.7214 C   0  0  0  0  0  0  0  0  0  0  0  0
    9.3347   -8.2315    3.2524 C   0  0  0  0  0  0  0  0  0  0  0  0
    9.7682   -7.1246    2.5171 C   0  0  0  0  0  0  0  0  0  0  0  0
   11.1946   -4.2100   -1.8516 C   0  0  0  0  0  0  0  0  0  0  0  0
   11.3027   -4.9209   -3.1833 C   0  0  0  0  0  0  0  0  0  0  0  0
   11.3411   -4.3566   -4.4358 C   0  0  0  0  0  0  0  0  0  0  0  0
   11.4642   -5.3068   -5.4966 C   0  0  0  0  0  0  0  0  0  0  0  0
   11.5226   -6.6091   -5.0655 C   0  0  0  0  0  0  0  0  0  0  0  0
   11.6470   -7.8618   -5.8794 C   0  0  0  0  0  0  0  0  0  0  0  0
   11.4271   -6.6634   -3.3229 S   0  0  0  0  0  0  0  0  0  0  0  0
    8.9569   -2.2685   -2.2805 C   0  0  0  0  0  0  0  0  0  0  0  0
    8.8559   -1.2990   -1.0907 C   0  0  2  0  0  0  0  0  0  0  0  0
    8.7093   -0.2881   -1.5006 H   0  0  0  0  0  0  0  0  0  0  0  0
   10.1754   -1.1901   -0.2987 C   0  0  0  0  0  0  0  0  0  0  0  0
   11.2540   -1.1988   -0.8778 O   0  0  0  0  0  0  0  0  0  0  0  0
   10.0556   -0.9911    1.0389 N   0  0  0  0  0  0  0  0  0  0  0  0
   11.2077   -0.7183    1.8973 C   0  0  1  0  0  0  0  0  0  0  0  0
   11.6514    0.7581    1.8201 C   0  0  0  0  0  0  0  0  0  0  0  0
   10.6459    1.7079    2.4859 C   0  0  0  0  0  0  0  0  0  0  0  0
   10.3437    1.3252    3.9464 C   0  0  2  0  0  0  0  0  0  0  0  0
   11.4833    1.6608    4.8025 N   0  0  0  0  0  0  0  0  0  0  0  0
    9.8913   -0.1544    4.0171 C   0  0  0  0  0  0  0  0  0  0  0  0
   10.8930   -1.1104    3.3503 C   0  0  0  0  0  0  0  0  0  0  0  0
    5.7047   -1.1926    2.1068 C   0  0  0  0  0  0  0  0  0  0  0  0
    4.6113   -1.2004    2.9733 C   0  0  0  0  0  0  0  0  0  0  0  0
    1.3164   -0.2005    3.0944 H   0  0  0  0  0  0  0  0  0  0  0  0
    2.4261   -0.3116    4.4834 H   0  0  0  0  0  0  0  0  0  0  0  0
    1.8502   -1.7884    3.6912 H   0  0  0  0  0  0  0  0  0  0  0  0
    2.2865    0.2045    0.9288 H   0  0  0  0  0  0  0  0  0  0  0  0
    4.2524    0.2767   -0.5903 H   0  0  0  0  0  0  0  0  0  0  0  0
    6.4207   -3.0172    0.5630 H   0  0  0  0  0  0  0  0  0  0  0  0
    8.1560   -3.3026    0.8086 H   0  0  0  0  0  0  0  0  0  0  0  0
    6.6404   -3.4968   -1.8566 H   0  0  0  0  0  0  0  0  0  0  0  0
    7.1614   -4.8666   -0.8876 H   0  0  0  0  0  0  0  0  0  0  0  0
    8.6539   -4.3193   -2.8643 H   0  0  0  0  0  0  0  0  0  0  0  0
    9.4357   -6.3923   -1.2552 H   0  0  0  0  0  0  0  0  0  0  0  0
    8.7471   -5.5079    0.1047 H   0  0  0  0  0  0  0  0  0  0  0  0
   11.0435   -5.2453    1.0993 H   0  0  0  0  0  0  0  0  0  0  0  0
   11.6729   -6.3435   -0.1402 H   0  0  0  0  0  0  0  0  0  0  0  0
   10.8988   -8.7209   -0.2677 H   0  0  0  0  0  0  0  0  0  0  0  0
   10.1274  -10.6913    1.0304 H   0  0  0  0  0  0  0  0  0  0  0  0
    9.1234  -10.3862    3.2956 H   0  0  0  0  0  0  0  0  0  0  0  0
    8.9022   -8.0885    4.2464 H   0  0  0  0  0  0  0  0  0  0  0  0
    9.6730   -6.1211    2.9432 H   0  0  0  0  0  0  0  0  0  0  0  0
   11.9768   -4.5720   -1.1709 H   0  0  0  0  0  0  0  0  0  0  0  0
   11.4354   -3.1515   -2.0112 H   0  0  0  0  0  0  0  0  0  0  0  0
   11.2976   -3.2769   -4.5935 H   0  0  0  0  0  0  0  0  0  0  0  0
   11.5124   -5.0342   -6.5530 H   0  0  0  0  0  0  0  0  0  0  0  0
   11.7009   -7.6089   -6.9488 H   0  0  0  0  0  0  0  0  0  0  0  0
   10.7853   -8.5357   -5.7361 H   0  0  0  0  0  0  0  0  0  0  0  0
   12.5547   -8.4336   -5.6226 H   0  0  0  0  0  0  0  0  0  0  0  0
    8.1651   -2.0075   -3.0005 H   0  0  0  0  0  0  0  0  0  0  0  0
    9.9114   -2.0776   -2.7844 H   0  0  0  0  0  0  0  0  0  0  0  0
    9.1181   -0.9295    1.4166 H   0  0  0  0  0  0  0  0  0  0  0  0
   12.0254   -1.3445    1.5095 H   0  0  0  0  0  0  0  0  0  0  0  0
   11.8082    1.0289    0.7649 H   0  0  0  0  0  0  0  0  0  0  0  0
   12.6404    0.8466    2.3046 H   0  0  0  0  0  0  0  0  0  0  0  0
    9.7035    1.6932    1.9117 H   0  0  0  0  0  0  0  0  0  0  0  0
   11.0198    2.7432    2.4577 H   0  0  0  0  0  0  0  0  0  0  0  0
    9.5021    1.9498    4.2937 H   0  0  0  0  0  0  0  0  0  0  0  0
   12.3199    1.1458    4.5290 H   0  0  0  0  0  0  0  0  0  0  0  0
   11.2927    1.4033    5.7713 H   0  0  0  0  0  0  0  0  0  0  0  0
    8.8984   -0.2452    3.5370 H   0  0  0  0  0  0  0  0  0  0  0  0
    9.7370   -0.4460    5.0708 H   0  0  0  0  0  0  0  0  0  0  0  0
   10.5299   -2.1509    3.3900 H   0  0  0  0  0  0  0  0  0  0  0  0
   11.8390   -1.0930    3.9181 H   0  0  0  0  0  0  0  0  0  0  0  0
    6.6659   -1.5722    2.4626 H   0  0  0  0  0  0  0  0  0  0  0  0
    4.7349   -1.5896    3.9882 H   0  0  0  0  0  0  0  0  0  0  0  0
  1  2  1  0
  1 43  1  0
  1 44  1  0
  1 45  1  0
  2  3  2  0
  2 42  1  0
  3  4  1  0
  3 46  1  0
  4  5  2  0
  4 47  1  0
  5  6  1  0
  5 41  1  0
  6  7  2  0
  6  8  1  0
  8  9  1  0
  8 29  1  0
  9 10  1  0
  9 48  1  0
  9 49  1  0
 10 11  1  0
 10 50  1  0
 10 51  1  0
 11 12  1  0
 11 28  1  0
 11 52  1  6
 12 13  1  0
 12 21  1  0
 13 14  1  0
 13 53  1  0
 13 54  1  0
 14 15  1  0
 14 55  1  0
 14 56  1  0
 15 16  2  0
 15 20  1  0
 16 17  1  0
 16 57  1  0
 17 18  2  0
 17 58  1  0
 18 19  1  0
 18 59  1  0
 19 20  2  0
 19 60  1  0
 20 61  1  0
 21 22  1  0
 21 62  1  0
 21 63  1  0
 22 23  2  0
 22 27  1  0
 23 24  1  0
 23 64  1  0
 24 25  2  0
 24 65  1  0
 25 26  1  0
 25 27  1  0
 26 66  1  0
 26 67  1  0
 26 68  1  0
 28 29  1  0
 28 69  1  0
 28 70  1  0
 29 30  1  6
 29 31  1  0
 31 32  2  0
 31 33  1  0
 33 34  1  0
 33 71  1  0
 34 35  1  0
 34 40  1  0
 34 72  1  6
 35 36  1  0
 35 73  1  0
 35 74  1  0
 36 37  1  0
 36 75  1  0
 36 76  1  0
 37 38  1  0
 37 39  1  0
 37 77  1  1
 38 78  1  0
 38 79  1  0
 39 40  1  0
 39 80  1  0
 39 81  1  0
 40 82  1  0
 40 83  1  0
 41 42  2  0
 41 84  1  0
 42 85  1  0
M  END

