
     RDKit          3D

 24 25  0  0  0  0  0  0  0  0999 V2000
    0.8362    0.3116    0.0776 C   0  0  0  0  0  0  0  0  0  0  0  0
    2.3521    0.1326    0.0373 C   0  0  1  0  0  0  0  0  0  0  0  0
    2.9692    1.1298    0.8699 O   0  0  0  0  0  0  0  0  0  0  0  0
    3.6865    0.5541    1.8910 B   0  0  0  0  0  0  0  0  0  0  0  0
    4.3296    1.2782    2.8398 O   0  0  0  0  0  0  0  0  0  0  0  0
    3.6257   -0.9941    1.7286 C   0  0  0  0  0  0  0  0  0  0  0  0
    4.1711   -2.0894    2.4112 C   0  0  0  0  0  0  0  0  0  0  0  0
    3.9421   -3.3790    1.9325 C   0  0  0  0  0  0  0  0  0  0  0  0
    3.1842   -3.5446    0.7708 C   0  0  0  0  0  0  0  0  0  0  0  0
    2.9891   -4.8004    0.3214 F   0  0  0  0  0  0  0  0  0  0  0  0
    2.6295   -2.4845    0.0402 C   0  0  0  0  0  0  0  0  0  0  0  0
    1.8407   -2.7551   -1.2245 C   0  0  0  0  0  0  0  0  0  0  0  0
    0.4334   -2.7642   -1.0369 O   0  0  0  0  0  0  0  0  0  0  0  0
    2.8492   -1.2023    0.5741 C   0  0  0  0  0  0  0  0  0  0  0  0
    0.5663    1.3114   -0.2949 H   0  0  0  0  0  0  0  0  0  0  0  0
    0.4810    0.2210    1.1165 H   0  0  0  0  0  0  0  0  0  0  0  0
    0.3321   -0.4577   -0.5236 H   0  0  0  0  0  0  0  0  0  0  0  0
    2.7144    0.2936   -0.9951 H   0  0  0  0  0  0  0  0  0  0  0  0
    4.2194    2.2304    2.7156 H   0  0  0  0  0  0  0  0  0  0  0  0
    4.7773   -1.9405    3.3087 H   0  0  0  0  0  0  0  0  0  0  0  0
    4.3429   -4.2651    2.4288 H   0  0  0  0  0  0  0  0  0  0  0  0
    2.1875   -3.7027   -1.6722 H   0  0  0  0  0  0  0  0  0  0  0  0
    2.0360   -1.9592   -1.9592 H   0  0  0  0  0  0  0  0  0  0  0  0
    0.2235   -3.4295   -0.3676 H   0  0  0  0  0  0  0  0  0  0  0  0
  1  2  1  0
  1 15  1  0
  1 16  1  0
  1 17  1  0
  2  3  1  0
  2 14  1  0
  2 18  1  6
  3  4  1  0
  4  5  1  0
  4  6  1  0
  5 19  1  0
  6  7  2  0
  6 14  1  0
  7  8  1  0
  7 20  1  0
  8  9  2  0
  8 21  1  0
  9 10  1  0
  9 11  1  0
 11 12  1  0
 11 14  2  0
 12 13  1  0
 12 22  1  0
 12 23  1  0
 13 24  1  0
M  END

