
     RDKit          3D

 33 35  0  0  0  0  0  0  0  0999 V2000
    1.4314   -0.5874   -0.1487 Br  0  0  0  0  0  0  0  0  0  0  0  0
    3.3263   -0.4420   -0.1098 C   0  0  0  0  0  0  0  0  0  0  0  0
    3.9715    0.6344   -0.7696 C   0  0  0  0  0  0  0  0  0  0  0  0
    5.3500    0.7394   -0.7402 C   0  0  0  0  0  0  0  0  0  0  0  0
    6.1034   -0.2334   -0.0486 C   0  0  0  0  0  0  0  0  0  0  0  0
    7.4092   -0.4025    0.1533 N   0  0  0  0  0  0  0  0  0  0  0  0
    7.4665   -1.5334    0.9002 C   0  0  0  0  0  0  0  0  0  0  0  0
    8.6313   -2.0772    1.3381 N   0  0  0  0  0  0  0  0  0  0  0  0
    9.9386   -1.4881    1.1306 C   0  0  0  0  0  0  0  0  0  0  0  0
   10.8607   -2.3058    0.1995 C   0  0  1  0  0  0  0  0  0  0  0  0
   10.2842   -2.5054   -1.2166 C   0  0  0  0  0  0  0  0  0  0  0  0
   10.4026   -1.2391   -2.0672 C   0  0  0  0  0  0  0  0  0  0  0  0
   11.7402   -0.7725   -2.1255 O   0  0  0  0  0  0  0  0  0  0  0  0
   12.2560   -0.4489   -0.8517 C   0  0  0  0  0  0  0  0  0  0  0  0
   12.2577   -1.6601    0.0872 C   0  0  0  0  0  0  0  0  0  0  0  0
    6.2814   -2.1028    1.1915 N   0  0  0  0  0  0  0  0  0  0  0  0
    5.4113   -1.2712    0.5820 N   0  0  0  0  0  0  0  0  0  0  0  0
    4.0586   -1.3953    0.5671 C   0  0  0  0  0  0  0  0  0  0  0  0
    3.3716    1.3762   -1.2987 H   0  0  0  0  0  0  0  0  0  0  0  0
    5.8754    1.5550   -1.2374 H   0  0  0  0  0  0  0  0  0  0  0  0
    8.5466   -2.9267    1.8820 H   0  0  0  0  0  0  0  0  0  0  0  0
   10.4454   -1.3694    2.1061 H   0  0  0  0  0  0  0  0  0  0  0  0
    9.7713   -0.4767    0.7367 H   0  0  0  0  0  0  0  0  0  0  0  0
   10.9784   -3.3012    0.6663 H   0  0  0  0  0  0  0  0  0  0  0  0
    9.2313   -2.8271   -1.1648 H   0  0  0  0  0  0  0  0  0  0  0  0
   10.8444   -3.3143   -1.7161 H   0  0  0  0  0  0  0  0  0  0  0  0
    9.7330   -0.4473   -1.6742 H   0  0  0  0  0  0  0  0  0  0  0  0
   10.0982   -1.4408   -3.1059 H   0  0  0  0  0  0  0  0  0  0  0  0
   11.6764    0.3876   -0.4058 H   0  0  0  0  0  0  0  0  0  0  0  0
   13.2823   -0.0823   -1.0104 H   0  0  0  0  0  0  0  0  0  0  0  0
   12.6361   -1.3618    1.0810 H   0  0  0  0  0  0  0  0  0  0  0  0
   12.9647   -2.4056   -0.3141 H   0  0  0  0  0  0  0  0  0  0  0  0
    3.6403   -2.2495    1.0977 H   0  0  0  0  0  0  0  0  0  0  0  0
  1  2  1  0
  2  3  1  0
  2 18  2  0
  3  4  2  0
  3 19  1  0
  4  5  1  0
  4 20  1  0
  5  6  2  0
  5 17  1  0
  6  7  1  0
  7  8  1  0
  7 16  2  0
  8  9  1  0
  8 21  1  0
  9 10  1  0
  9 22  1  0
  9 23  1  0
 10 11  1  0
 10 15  1  0
 10 24  1  1
 11 12  1  0
 11 25  1  0
 11 26  1  0
 12 13  1  0
 12 27  1  0
 12 28  1  0
 13 14  1  0
 14 15  1  0
 14 29  1  0
 14 30  1  0
 15 31  1  0
 15 32  1  0
 16 17  1  0
 17 18  1  0
 18 33  1  0
M  END

