
     RDKit          3D

 35 38  0  0  0  0  0  0  0  0999 V2000
    0.3276   -0.3756   -1.1114 C   0  0  0  0  0  0  0  0  0  0  0  0
    1.7114    0.2105   -1.3028 C   0  0  0  0  0  0  0  0  0  0  0  0
    2.6332   -0.8693   -1.4510 O   0  0  0  0  0  0  0  0  0  0  0  0
    3.9176   -0.5947   -1.6315 C   0  0  0  0  0  0  0  0  0  0  0  0
    4.5394    0.6624   -1.7028 C   0  0  0  0  0  0  0  0  0  0  0  0
    5.9236    0.4605   -1.9050 C   0  0  0  0  0  0  0  0  0  0  0  0
    6.8596    1.4912   -2.0246 C   0  0  0  0  0  0  0  0  0  0  0  0
    8.2351    1.3857   -2.2256 C   0  0  0  0  0  0  0  0  0  0  0  0
    9.0032    0.2223   -2.3548 C   0  0  0  0  0  0  0  0  0  0  0  0
    8.6237   -1.1206   -2.3192 C   0  0  0  0  0  0  0  0  0  0  0  0
    7.3600   -1.7246   -2.1429 C   0  0  0  0  0  0  0  0  0  0  0  0
    7.2545   -3.2117   -2.1469 C   0  0  0  0  0  0  0  0  0  0  0  0
    8.3779   -4.0517   -2.3155 C   0  0  0  0  0  0  0  0  0  0  0  0
    8.2617   -5.4390   -2.3176 C   0  0  0  0  0  0  0  0  0  0  0  0
    7.0102   -6.0442   -2.1500 C   0  0  0  0  0  0  0  0  0  0  0  0
    5.8877   -5.2412   -1.9811 C   0  0  0  0  0  0  0  0  0  0  0  0
    5.9928   -3.8428   -1.9770 C   0  0  0  0  0  0  0  0  0  0  0  0
    4.7204   -3.0662   -1.7851 C   0  0  0  0  0  0  0  0  0  0  0  0
    3.6444   -3.6358   -1.6417 O   0  0  0  0  0  0  0  0  0  0  0  0
    4.9049   -1.6263   -1.7883 C   0  0  0  0  0  0  0  0  0  0  0  0
    6.1559   -1.0068   -1.9593 C   0  0  0  0  0  0  0  0  0  0  0  0
   -0.4121    0.4314   -0.9935 H   0  0  0  0  0  0  0  0  0  0  0  0
    0.2972   -1.0140   -0.2157 H   0  0  0  0  0  0  0  0  0  0  0  0
    0.0429   -0.9893   -1.9792 H   0  0  0  0  0  0  0  0  0  0  0  0
    2.0090    0.8276   -0.4354 H   0  0  0  0  0  0  0  0  0  0  0  0
    1.7545    0.8525   -2.2015 H   0  0  0  0  0  0  0  0  0  0  0  0
    4.0631    1.6365   -1.6194 H   0  0  0  0  0  0  0  0  0  0  0  0
    6.4560    2.5066   -1.9514 H   0  0  0  0  0  0  0  0  0  0  0  0
    8.7849    2.3295   -2.2911 H   0  0  0  0  0  0  0  0  0  0  0  0
   10.0742    0.3888   -2.5086 H   0  0  0  0  0  0  0  0  0  0  0  0
    9.4612   -1.8042   -2.4524 H   0  0  0  0  0  0  0  0  0  0  0  0
    9.3732   -3.6293   -2.4485 H   0  0  0  0  0  0  0  0  0  0  0  0
    9.1566   -6.0522   -2.4510 H   0  0  0  0  0  0  0  0  0  0  0  0
    6.9180   -7.1332   -2.1518 H   0  0  0  0  0  0  0  0  0  0  0  0
    4.8901   -5.6637   -1.8459 H   0  0  0  0  0  0  0  0  0  0  0  0
  1  2  1  0
  1 22  1  0
  1 23  1  0
  1 24  1  0
  2  3  1  0
  2 25  1  0
  2 26  1  0
  3  4  1  0
  4  5  2  0
  4 20  1  0
  5  6  1  0
  5 27  1  0
  6  7  2  0
  6 21  1  0
  7  8  1  0
  7 28  1  0
  8  9  2  0
  8 29  1  0
  9 10  1  0
  9 30  1  0
 10 11  2  0
 10 31  1  0
 11 12  1  0
 11 21  1  0
 12 13  1  0
 12 17  2  0
 13 14  2  0
 13 32  1  0
 14 15  1  0
 14 33  1  0
 15 16  2  0
 15 34  1  0
 16 17  1  0
 16 35  1  0
 17 18  1  0
 18 19  2  0
 18 20  1  0
 20 21  2  0
M  END

