
     RDKit          3D

 41 41  0  0  0  0  0  0  0  0999 V2000
    3.5878    2.0693   -2.3908 C   0  0  0  0  0  0  0  0  0  0  0  0
    3.9230    1.9585   -0.9850 N   0  0  0  0  0  0  0  0  0  0  0  0
    3.7761    0.6181   -0.4457 C   0  0  0  0  0  0  0  0  0  0  0  0
    4.2475    0.5039    0.9897 C   0  0  0  0  0  0  0  0  0  0  0  0
    5.0631    1.4721    1.5808 C   0  0  0  0  0  0  0  0  0  0  0  0
    5.4963    1.3530    2.9074 C   0  0  0  0  0  0  0  0  0  0  0  0
    5.1121    0.2433    3.6571 C   0  0  0  0  0  0  0  0  0  0  0  0
    4.3033   -0.7488    3.0888 C   0  0  0  0  0  0  0  0  0  0  0  0
    3.8768   -0.6233    1.7602 C   0  0  0  0  0  0  0  0  0  0  0  0
    3.1036   -1.5482    1.1233 O   0  0  0  0  0  0  0  0  0  0  0  0
    2.6654   -2.6995    1.8149 C   0  0  0  0  0  0  0  0  0  0  0  0
    1.8226   -3.5170    0.8500 C   0  0  0  0  0  0  0  0  0  0  0  0
    1.3971   -4.6636    1.5386 O   0  0  0  0  0  0  0  0  0  0  0  0
    0.5781   -5.5623    0.8035 C   0  0  1  0  0  0  0  0  0  0  0  0
    1.4245   -6.6366    0.1209 C   0  0  0  0  0  0  0  0  0  0  0  0
   -0.4318   -6.1537    1.7759 C   0  0  0  0  0  0  0  0  0  0  0  0
   -1.3504   -5.1607    2.1487 O   0  0  0  0  0  0  0  0  0  0  0  0
   -2.2694   -5.5724    3.1223 C   0  0  0  0  0  0  0  0  0  0  0  0
    3.6667    3.1191   -2.7144 H   0  0  0  0  0  0  0  0  0  0  0  0
    2.5679    1.7070   -2.6539 H   0  0  0  0  0  0  0  0  0  0  0  0
    4.3025    1.4848   -2.9952 H   0  0  0  0  0  0  0  0  0  0  0  0
    3.3592    2.6086   -0.4379 H   0  0  0  0  0  0  0  0  0  0  0  0
    4.3737   -0.0703   -1.0744 H   0  0  0  0  0  0  0  0  0  0  0  0
    2.7368    0.2291   -0.5127 H   0  0  0  0  0  0  0  0  0  0  0  0
    5.3595    2.3282    0.9717 H   0  0  0  0  0  0  0  0  0  0  0  0
    6.1327    2.1249    3.3470 H   0  0  0  0  0  0  0  0  0  0  0  0
    5.4404    0.1355    4.6943 H   0  0  0  0  0  0  0  0  0  0  0  0
    4.0143   -1.6138    3.6857 H   0  0  0  0  0  0  0  0  0  0  0  0
    2.0590   -2.4306    2.6988 H   0  0  0  0  0  0  0  0  0  0  0  0
    3.5216   -3.3052    2.1644 H   0  0  0  0  0  0  0  0  0  0  0  0
    2.4313   -3.7633   -0.0435 H   0  0  0  0  0  0  0  0  0  0  0  0
    0.9614   -2.9105    0.5056 H   0  0  0  0  0  0  0  0  0  0  0  0
    0.0036   -4.9977    0.0436 H   0  0  0  0  0  0  0  0  0  0  0  0
    1.9549   -7.2446    0.8713 H   0  0  0  0  0  0  0  0  0  0  0  0
    2.1794   -6.1774   -0.5354 H   0  0  0  0  0  0  0  0  0  0  0  0
    0.8036   -7.3046   -0.4969 H   0  0  0  0  0  0  0  0  0  0  0  0
    0.1139   -6.5463    2.6598 H   0  0  0  0  0  0  0  0  0  0  0  0
   -0.9499   -7.0130    1.2987 H   0  0  0  0  0  0  0  0  0  0  0  0
   -2.9384   -4.7255    3.3350 H   0  0  0  0  0  0  0  0  0  0  0  0
   -1.7703   -5.8722    4.0667 H   0  0  0  0  0  0  0  0  0  0  0  0
   -2.8865   -6.4295    2.7802 H   0  0  0  0  0  0  0  0  0  0  0  0
  1  2  1  0
  1 19  1  0
  1 20  1  0
  1 21  1  0
  2  3  1  0
  2 22  1  0
  3  4  1  0
  3 23  1  0
  3 24  1  0
  4  5  2  0
  4  9  1  0
  5  6  1  0
  5 25  1  0
  6  7  2  0
  6 26  1  0
  7  8  1  0
  7 27  1  0
  8  9  2  0
  8 28  1  0
  9 10  1  0
 10 11  1  0
 11 12  1  0
 11 29  1  0
 11 30  1  0
 12 13  1  0
 12 31  1  0
 12 32  1  0
 13 14  1  0
 14 15  1  0
 14 16  1  0
 14 33  1  6
 15 34  1  0
 15 35  1  0
 15 36  1  0
 16 17  1  0
 16 37  1  0
 16 38  1  0
 17 18  1  0
 18 39  1  0
 18 40  1  0
 18 41  1  0
M  END

