
     RDKit          3D

 54 56  0  0  0  0  0  0  0  0999 V2000
    1.0472    1.7029    7.5604 O   0  0  0  0  0  0  0  0  0  0  0  0
    0.9777    1.4446    6.3880 C   0  0  0  0  0  0  0  0  0  0  0  0
   -0.0406    1.9341    5.6414 O   0  0  0  0  0  0  0  0  0  0  0  0
    1.9768    0.5778    5.6733 C   0  0  0  0  0  0  0  0  0  0  0  0
    2.8115   -0.2420    6.4519 C   0  0  0  0  0  0  0  0  0  0  0  0
    3.7627   -1.0614    5.8509 C   0  0  0  0  0  0  0  0  0  0  0  0
    3.9173   -1.0722    4.4517 C   0  0  0  0  0  0  0  0  0  0  0  0
    4.9485   -1.9760    3.7980 C   0  0  0  0  0  0  0  0  0  0  0  0
    4.6467   -3.3976    3.8946 N   0  0  0  0  0  0  0  0  0  0  0  0
    5.1364   -4.1442    4.9516 C   0  0  0  0  0  0  0  0  0  0  0  0
    5.8601   -3.6517    5.8101 O   0  0  0  0  0  0  0  0  0  0  0  0
    4.7833   -5.4829    4.9684 N   0  0  0  0  0  0  0  0  0  0  0  0
    4.0530   -6.1915    3.9260 C   0  0  0  0  0  0  0  0  0  0  0  0
    4.7156   -7.5401    3.6192 C   0  0  0  0  0  0  0  0  0  0  0  0
    4.9268   -8.3143    4.8353 N   0  0  0  0  0  0  0  0  0  0  0  0
    4.4097   -9.5945    4.9158 C   0  0  0  0  0  0  0  0  0  0  0  0
    3.7514  -10.0572    3.9935 O   0  0  0  0  0  0  0  0  0  0  0  0
    4.7095  -10.4114    6.1796 C   0  0  1  0  0  0  0  0  0  0  0  0
    3.6766  -11.5386    6.3997 C   0  0  0  0  0  0  0  0  0  0  0  0
    3.8472  -12.7469    5.4666 C   0  0  0  0  0  0  0  0  0  0  0  0
    5.2867  -13.2750    5.4704 C   0  0  0  0  0  0  0  0  0  0  0  0
    6.2883  -12.1575    5.1547 C   0  0  0  0  0  0  0  0  0  0  0  0
    6.1482  -10.9912    6.1416 C   0  0  0  0  0  0  0  0  0  0  0  0
    5.7098   -7.5982    5.8353 C   0  0  0  0  0  0  0  0  0  0  0  0
    5.0499   -6.2588    6.1725 C   0  0  0  0  0  0  0  0  0  0  0  0
    3.1004   -0.2362    3.6789 C   0  0  0  0  0  0  0  0  0  0  0  0
    2.1405    0.5821    4.2804 C   0  0  0  0  0  0  0  0  0  0  0  0
   -0.0376    1.5317    4.7621 H   0  0  0  0  0  0  0  0  0  0  0  0
    2.6961   -0.2147    7.5371 H   0  0  0  0  0  0  0  0  0  0  0  0
    4.4086   -1.7008    6.4576 H   0  0  0  0  0  0  0  0  0  0  0  0
    5.9254   -1.8328    4.2802 H   0  0  0  0  0  0  0  0  0  0  0  0
    5.0530   -1.7088    2.7341 H   0  0  0  0  0  0  0  0  0  0  0  0
    3.8020   -3.7103    3.4328 H   0  0  0  0  0  0  0  0  0  0  0  0
    4.0506   -5.5995    3.0014 H   0  0  0  0  0  0  0  0  0  0  0  0
    3.0013   -6.3617    4.2312 H   0  0  0  0  0  0  0  0  0  0  0  0
    5.6906   -7.3553    3.1296 H   0  0  0  0  0  0  0  0  0  0  0  0
    4.0895   -8.1367    2.9449 H   0  0  0  0  0  0  0  0  0  0  0  0
    4.6392   -9.7348    7.0461 H   0  0  0  0  0  0  0  0  0  0  0  0
    2.6578  -11.1305    6.3055 H   0  0  0  0  0  0  0  0  0  0  0  0
    3.7852  -11.8758    7.4468 H   0  0  0  0  0  0  0  0  0  0  0  0
    3.5694  -12.4463    4.4456 H   0  0  0  0  0  0  0  0  0  0  0  0
    3.1487  -13.5443    5.7725 H   0  0  0  0  0  0  0  0  0  0  0  0
    5.3925  -14.0991    4.7449 H   0  0  0  0  0  0  0  0  0  0  0  0
    5.5257  -13.7027    6.4629 H   0  0  0  0  0  0  0  0  0  0  0  0
    6.1202  -11.7957    4.1250 H   0  0  0  0  0  0  0  0  0  0  0  0
    7.3214  -12.5434    5.1866 H   0  0  0  0  0  0  0  0  0  0  0  0
    6.8802  -10.2009    5.9063 H   0  0  0  0  0  0  0  0  0  0  0  0
    6.3957  -11.3489    7.1573 H   0  0  0  0  0  0  0  0  0  0  0  0
    6.7272   -7.4129    5.4410 H   0  0  0  0  0  0  0  0  0  0  0  0
    5.8138   -8.1922    6.7493 H   0  0  0  0  0  0  0  0  0  0  0  0
    5.6988   -5.6568    6.8202 H   0  0  0  0  0  0  0  0  0  0  0  0
    4.1002   -6.4550    6.7092 H   0  0  0  0  0  0  0  0  0  0  0  0
    3.2226   -0.2127    2.5921 H   0  0  0  0  0  0  0  0  0  0  0  0
    1.5462    1.2466    3.6454 H   0  0  0  0  0  0  0  0  0  0  0  0
  1  2  2  0
  2  3  1  0
  2  4  1  0
  3 28  1  0
  4  5  2  0
  4 27  1  0
  5  6  1  0
  5 29  1  0
  6  7  2  0
  6 30  1  0
  7  8  1  0
  7 26  1  0
  8  9  1  0
  8 31  1  0
  8 32  1  0
  9 10  1  0
  9 33  1  0
 10 11  2  0
 10 12  1  0
 12 13  1  0
 12 25  1  0
 13 14  1  0
 13 34  1  0
 13 35  1  0
 14 15  1  0
 14 36  1  0
 14 37  1  0
 15 16  1  0
 15 24  1  0
 16 17  2  0
 16 18  1  0
 18 19  1  0
 18 23  1  0
 18 38  1  1
 19 20  1  0
 19 39  1  0
 19 40  1  0
 20 21  1  0
 20 41  1  0
 20 42  1  0
 21 22  1  0
 21 43  1  0
 21 44  1  0
 22 23  1  0
 22 45  1  0
 22 46  1  0
 23 47  1  0
 23 48  1  0
 24 25  1  0
 24 49  1  0
 24 50  1  0
 25 51  1  0
 25 52  1  0
 26 27  2  0
 26 53  1  0
 27 54  1  0
M  END

