
     RDKit          3D

 65 67  0  0  0  0  0  0  0  0999 V2000
    3.6580    0.2046   -2.4930 C   0  0  0  0  0  0  0  0  0  0  0  0
    3.7176    0.1162   -0.9680 C   0  0  0  0  0  0  0  0  0  0  0  0
    4.6880    1.1194   -0.3629 C   0  0  0  0  0  0  0  0  0  0  0  0
    4.6585    0.9774    1.0483 O   0  0  0  0  0  0  0  0  0  0  0  0
    5.4096    1.8003    1.8236 C   0  0  0  0  0  0  0  0  0  0  0  0
    6.2840    2.7784    1.3353 C   0  0  0  0  0  0  0  0  0  0  0  0
    7.0000    3.5988    2.2167 C   0  0  0  0  0  0  0  0  0  0  0  0
    6.8590    3.4729    3.6006 C   0  0  0  0  0  0  0  0  0  0  0  0
    7.6298    4.3718    4.5520 C   0  0  1  0  0  0  0  0  0  0  0  0
    6.7219    5.2213    5.4548 C   0  0  0  0  0  0  0  0  0  0  0  0
    8.5645    3.5636    5.3474 N   0  0  0  0  0  0  0  0  0  0  0  0
    9.6901    4.1060    5.8989 C   0  0  0  0  0  0  0  0  0  0  0  0
    9.9596    5.2958    5.7957 O   0  0  0  0  0  0  0  0  0  0  0  0
   10.5958    3.1547    6.6411 C   0  0  0  0  0  0  0  0  0  0  0  0
   11.9260    3.5522    6.8439 C   0  0  0  0  0  0  0  0  0  0  0  0
   12.8189    2.7243    7.5227 C   0  0  0  0  0  0  0  0  0  0  0  0
   12.3980    1.4836    8.0283 C   0  0  0  0  0  0  0  0  0  0  0  0
   13.3630    0.5911    8.7854 C   0  0  0  0  0  0  0  0  0  0  0  0
   13.3883    0.8601   10.2224 N   0  0  0  0  0  0  0  0  0  0  0  0
   12.5282    0.2384   11.1266 C   0  0  0  0  0  0  0  0  0  0  0  0
   11.6979   -0.5864   10.8270 O   0  0  0  0  0  0  0  0  0  0  0  0
   12.8417    0.7846   12.5162 C   0  0  0  0  0  0  0  0  0  0  0  0
   13.9811    1.7908   12.3081 C   0  0  0  0  0  0  0  0  0  0  0  0
   14.2680    1.7701   10.8098 C   0  0  0  0  0  0  0  0  0  0  0  0
   15.0994    2.4059   10.2077 O   0  0  0  0  0  0  0  0  0  0  0  0
   11.0617    1.0963    7.8495 C   0  0  0  0  0  0  0  0  0  0  0  0
   10.1704    1.9231    7.1629 C   0  0  0  0  0  0  0  0  0  0  0  0
    5.9849    2.4825    4.0848 C   0  0  0  0  0  0  0  0  0  0  0  0
    5.2688    1.6482    3.2277 C   0  0  0  0  0  0  0  0  0  0  0  0
    4.3908    0.7510    3.7617 O   0  0  0  0  0  0  0  0  0  0  0  0
    4.6830   -0.6390    3.6121 C   0  0  0  0  0  0  0  0  0  0  0  0
    3.5710   -1.4320    4.2790 C   0  0  0  0  0  0  0  0  0  0  0  0
    3.7908   -2.9424    4.1961 C   0  0  0  0  0  0  0  0  0  0  0  0
    2.9512   -0.5323   -2.9039 H   0  0  0  0  0  0  0  0  0  0  0  0
    4.6425    0.0090   -2.9502 H   0  0  0  0  0  0  0  0  0  0  0  0
    3.3283    1.2019   -2.8289 H   0  0  0  0  0  0  0  0  0  0  0  0
    4.0197   -0.8977   -0.6551 H   0  0  0  0  0  0  0  0  0  0  0  0
    2.7198    0.2921   -0.5322 H   0  0  0  0  0  0  0  0  0  0  0  0
    4.4031    2.1515   -0.6439 H   0  0  0  0  0  0  0  0  0  0  0  0
    5.7134    0.9455   -0.7431 H   0  0  0  0  0  0  0  0  0  0  0  0
    6.4120    2.9155    0.2615 H   0  0  0  0  0  0  0  0  0  0  0  0
    7.6767    4.3538    1.8079 H   0  0  0  0  0  0  0  0  0  0  0  0
    8.2430    5.0676    3.9565 H   0  0  0  0  0  0  0  0  0  0  0  0
    6.0932    4.5887    6.1010 H   0  0  0  0  0  0  0  0  0  0  0  0
    6.0606    5.8546    4.8433 H   0  0  0  0  0  0  0  0  0  0  0  0
    7.3391    5.8719    6.0910 H   0  0  0  0  0  0  0  0  0  0  0  0
    8.4814    2.5566    5.2883 H   0  0  0  0  0  0  0  0  0  0  0  0
   12.2380    4.5242    6.4570 H   0  0  0  0  0  0  0  0  0  0  0  0
   13.8533    3.0424    7.6762 H   0  0  0  0  0  0  0  0  0  0  0  0
   14.3884    0.7387    8.4196 H   0  0  0  0  0  0  0  0  0  0  0  0
   13.0834   -0.4646    8.6651 H   0  0  0  0  0  0  0  0  0  0  0  0
   13.1065   -0.0583   13.1728 H   0  0  0  0  0  0  0  0  0  0  0  0
   11.9245    1.2313   12.9294 H   0  0  0  0  0  0  0  0  0  0  0  0
   14.9062    1.5341   12.8464 H   0  0  0  0  0  0  0  0  0  0  0  0
   13.7221    2.8207   12.5976 H   0  0  0  0  0  0  0  0  0  0  0  0
   10.7169    0.1482    8.2694 H   0  0  0  0  0  0  0  0  0  0  0  0
    9.1282    1.6093    7.0635 H   0  0  0  0  0  0  0  0  0  0  0  0
    5.8206    2.3438    5.1564 H   0  0  0  0  0  0  0  0  0  0  0  0
    5.6593   -0.8621    4.0864 H   0  0  0  0  0  0  0  0  0  0  0  0
    4.7600   -0.9008    2.5434 H   0  0  0  0  0  0  0  0  0  0  0  0
    2.6165   -1.1550    3.8002 H   0  0  0  0  0  0  0  0  0  0  0  0
    3.4941   -1.1111    5.3318 H   0  0  0  0  0  0  0  0  0  0  0  0
    3.8472   -3.2868    3.1498 H   0  0  0  0  0  0  0  0  0  0  0  0
    2.9677   -3.4904    4.6804 H   0  0  0  0  0  0  0  0  0  0  0  0
    4.7272   -3.2445    4.6945 H   0  0  0  0  0  0  0  0  0  0  0  0
  1  2  1  0
  1 34  1  0
  1 35  1  0
  1 36  1  0
  2  3  1  0
  2 37  1  0
  2 38  1  0
  3  4  1  0
  3 39  1  0
  3 40  1  0
  4  5  1  0
  5  6  2  0
  5 29  1  0
  6  7  1  0
  6 41  1  0
  7  8  2  0
  7 42  1  0
  8  9  1  0
  8 28  1  0
  9 10  1  0
  9 11  1  0
  9 43  1  6
 10 44  1  0
 10 45  1  0
 10 46  1  0
 11 12  1  0
 11 47  1  0
 12 13  2  0
 12 14  1  0
 14 15  2  0
 14 27  1  0
 15 16  1  0
 15 48  1  0
 16 17  2  0
 16 49  1  0
 17 18  1  0
 17 26  1  0
 18 19  1  0
 18 50  1  0
 18 51  1  0
 19 20  1  0
 19 24  1  0
 20 21  2  0
 20 22  1  0
 22 23  1  0
 22 52  1  0
 22 53  1  0
 23 24  1  0
 23 54  1  0
 23 55  1  0
 24 25  2  0
 26 27  2  0
 26 56  1  0
 27 57  1  0
 28 29  2  0
 28 58  1  0
 29 30  1  0
 30 31  1  0
 31 32  1  0
 31 59  1  0
 31 60  1  0
 32 33  1  0
 32 61  1  0
 32 62  1  0
 33 63  1  0
 33 64  1  0
 33 65  1  0
M  END

