
     RDKit          3D

 43 43  0  0  0  0  0  0  0  0999 V2000
    1.2300   -1.4070   -2.9717 C   0  0  0  0  0  0  0  0  0  0  0  0
    2.6270   -1.0604   -2.4560 C   0  0  0  0  0  0  0  0  0  0  0  0
    2.6692    0.2248   -1.6244 C   0  0  0  0  0  0  0  0  0  0  0  0
    4.0784    0.6253   -1.1627 C   0  0  0  0  0  0  0  0  0  0  0  0
    4.9777    0.9608   -2.2606 N   0  0  0  0  0  0  0  0  0  0  0  0
    4.7084    2.2370   -2.9207 C   0  0  0  0  0  0  0  0  0  0  0  0
    4.7477    2.1546   -4.4506 C   0  0  0  0  0  0  0  0  0  0  0  0
    4.5700    3.5110   -5.1382 C   0  0  0  0  0  0  0  0  0  0  0  0
    4.5868    3.4257   -6.6652 C   0  0  0  0  0  0  0  0  0  0  0  0
    6.4075    0.6684   -2.1176 C   0  0  1  0  0  0  0  0  0  0  0  0
    7.1192    1.1973   -0.8396 C   0  0  0  0  0  0  0  0  0  0  0  0
    7.1400    0.2330    0.3551 C   0  0  0  0  0  0  0  0  0  0  0  0
    7.6851   -1.1389   -0.0554 C   0  0  0  0  0  0  0  0  0  0  0  0
    6.8553   -1.7599   -1.1903 C   0  0  0  0  0  0  0  0  0  0  0  0
    6.6769   -0.8351   -2.3867 C   0  0  0  0  0  0  0  0  0  0  0  0
    6.7331   -1.2470   -3.5234 O   0  0  0  0  0  0  0  0  0  0  0  0
    1.2357   -2.3401   -3.5575 H   0  0  0  0  0  0  0  0  0  0  0  0
    0.8348   -0.6096   -3.6237 H   0  0  0  0  0  0  0  0  0  0  0  0
    0.5125   -1.5386   -2.1437 H   0  0  0  0  0  0  0  0  0  0  0  0
    3.3284   -0.9599   -3.3006 H   0  0  0  0  0  0  0  0  0  0  0  0
    3.0109   -1.8980   -1.8440 H   0  0  0  0  0  0  0  0  0  0  0  0
    2.0358    0.1105   -0.7255 H   0  0  0  0  0  0  0  0  0  0  0  0
    2.2160    1.0514   -2.2007 H   0  0  0  0  0  0  0  0  0  0  0  0
    4.5024   -0.2276   -0.6133 H   0  0  0  0  0  0  0  0  0  0  0  0
    3.9957    1.4517   -0.4210 H   0  0  0  0  0  0  0  0  0  0  0  0
    5.4135    3.0251   -2.5746 H   0  0  0  0  0  0  0  0  0  0  0  0
    3.7104    2.5876   -2.6124 H   0  0  0  0  0  0  0  0  0  0  0  0
    3.9611    1.4546   -4.7830 H   0  0  0  0  0  0  0  0  0  0  0  0
    5.7008    1.6971   -4.7699 H   0  0  0  0  0  0  0  0  0  0  0  0
    5.3661    4.1997   -4.7998 H   0  0  0  0  0  0  0  0  0  0  0  0
    3.6198    3.9693   -4.8061 H   0  0  0  0  0  0  0  0  0  0  0  0
    5.5380    3.0044   -7.0314 H   0  0  0  0  0  0  0  0  0  0  0  0
    4.4606    4.4173   -7.1288 H   0  0  0  0  0  0  0  0  0  0  0  0
    3.7767    2.7773   -7.0388 H   0  0  0  0  0  0  0  0  0  0  0  0
    6.8830    1.1532   -2.9815 H   0  0  0  0  0  0  0  0  0  0  0  0
    6.6791    2.1677   -0.5549 H   0  0  0  0  0  0  0  0  0  0  0  0
    8.1687    1.4115   -1.1113 H   0  0  0  0  0  0  0  0  0  0  0  0
    6.1311    0.1169    0.7853 H   0  0  0  0  0  0  0  0  0  0  0  0
    7.7634    0.6605    1.1583 H   0  0  0  0  0  0  0  0  0  0  0  0
    7.7070   -1.8246    0.8075 H   0  0  0  0  0  0  0  0  0  0  0  0
    8.7329   -1.0297   -0.3893 H   0  0  0  0  0  0  0  0  0  0  0  0
    5.8410   -1.9935   -0.8148 H   0  0  0  0  0  0  0  0  0  0  0  0
    7.2812   -2.7056   -1.5579 H   0  0  0  0  0  0  0  0  0  0  0  0
  1  2  1  0
  1 17  1  0
  1 18  1  0
  1 19  1  0
  2  3  1  0
  2 20  1  0
  2 21  1  0
  3  4  1  0
  3 22  1  0
  3 23  1  0
  4  5  1  0
  4 24  1  0
  4 25  1  0
  5  6  1  0
  5 10  1  0
  6  7  1  0
  6 26  1  0
  6 27  1  0
  7  8  1  0
  7 28  1  0
  7 29  1  0
  8  9  1  0
  8 30  1  0
  8 31  1  0
  9 32  1  0
  9 33  1  0
  9 34  1  0
 10 11  1  0
 10 15  1  0
 10 35  1  6
 11 12  1  0
 11 36  1  0
 11 37  1  0
 12 13  1  0
 12 38  1  0
 12 39  1  0
 13 14  1  0
 13 40  1  0
 13 41  1  0
 14 15  1  0
 14 42  1  0
 14 43  1  0
 15 16  2  0
M  END

