
     RDKit          3D

 41 43  0  0  0  0  0  0  0  0999 V2000
    0.9763    0.1392    0.1016 C   0  0  0  0  0  0  0  0  0  0  0  0
    2.5035    0.0314    0.0004 C   0  0  1  0  0  0  0  0  0  0  0  0
    2.9826   -1.3723   -0.4217 C   0  0  0  0  0  0  0  0  0  0  0  0
    2.7331   -1.6562   -1.9087 C   0  0  2  0  0  0  0  0  0  0  0  0
    3.2963   -3.0157   -2.3264 C   0  0  0  0  0  0  0  0  0  0  0  0
    3.9473   -3.7288   -1.6135 O   0  0  0  0  0  0  0  0  0  0  0  0
    3.0260   -3.3854   -3.5998 O   0  0  0  0  0  0  0  0  0  0  0  0
    3.3268   -0.5219   -2.7737 C   0  0  0  0  0  0  0  0  0  0  0  0
    2.8131    0.7731   -2.3465 N   0  0  0  0  0  0  0  0  0  0  0  0
    2.0551    1.5033   -3.2287 C   0  0  0  0  0  0  0  0  0  0  0  0
    1.7969    1.0842   -4.3507 O   0  0  0  0  0  0  0  0  0  0  0  0
    1.5525    2.8910   -2.7994 C   0  0  0  0  0  0  0  0  0  0  0  0
    2.6050    3.9754   -2.8291 C   0  0  0  0  0  0  0  0  0  0  0  0
    2.9502    4.7415   -1.7507 C   0  0  0  0  0  0  0  0  0  0  0  0
    4.1595    5.9505   -2.0879 S   0  0  0  0  0  0  0  0  0  0  0  0
    4.2350    5.4411   -3.7616 C   0  0  0  0  0  0  0  0  0  0  0  0
    5.0379    5.9831   -4.7740 C   0  0  0  0  0  0  0  0  0  0  0  0
    4.9481    5.4538   -6.0566 C   0  0  0  0  0  0  0  0  0  0  0  0
    4.0610    4.3906   -6.3180 C   0  0  0  0  0  0  0  0  0  0  0  0
    3.9747    3.7509   -7.9456 Cl  0  0  0  0  0  0  0  0  0  0  0  0
    3.2607    3.8396   -5.3246 C   0  0  0  0  0  0  0  0  0  0  0  0
    3.3429    4.3669   -4.0180 C   0  0  0  0  0  0  0  0  0  0  0  0
    3.0986    1.0911   -0.9507 C   0  0  0  0  0  0  0  0  0  0  0  0
    0.5724   -0.6252    0.7840 H   0  0  0  0  0  0  0  0  0  0  0  0
    0.4828    0.0051   -0.8745 H   0  0  0  0  0  0  0  0  0  0  0  0
    0.6726    1.1245    0.4919 H   0  0  0  0  0  0  0  0  0  0  0  0
    2.9214    0.2363    1.0015 H   0  0  0  0  0  0  0  0  0  0  0  0
    2.5034   -2.1479    0.1955 H   0  0  0  0  0  0  0  0  0  0  0  0
    4.0654   -1.4672   -0.2364 H   0  0  0  0  0  0  0  0  0  0  0  0
    1.6459   -1.6858   -2.1095 H   0  0  0  0  0  0  0  0  0  0  0  0
    2.4776   -2.7233   -4.0457 H   0  0  0  0  0  0  0  0  0  0  0  0
    3.0819   -0.6315   -3.8371 H   0  0  0  0  0  0  0  0  0  0  0  0
    4.4277   -0.5265   -2.6702 H   0  0  0  0  0  0  0  0  0  0  0  0
    1.0858    2.8564   -1.8047 H   0  0  0  0  0  0  0  0  0  0  0  0
    0.7574    3.1257   -3.5227 H   0  0  0  0  0  0  0  0  0  0  0  0
    2.5367    4.6763   -0.7439 H   0  0  0  0  0  0  0  0  0  0  0  0
    5.7219    6.8092   -4.5672 H   0  0  0  0  0  0  0  0  0  0  0  0
    5.5586    5.8545   -6.8671 H   0  0  0  0  0  0  0  0  0  0  0  0
    2.5956    3.0041   -5.5471 H   0  0  0  0  0  0  0  0  0  0  0  0
    2.7227    2.0899   -0.7068 H   0  0  0  0  0  0  0  0  0  0  0  0
    4.1960    1.1252   -0.8192 H   0  0  0  0  0  0  0  0  0  0  0  0
  1  2  1  0
  1 24  1  0
  1 25  1  0
  1 26  1  0
  2  3  1  0
  2 23  1  0
  2 27  1  1
  3  4  1  0
  3 28  1  0
  3 29  1  0
  4  5  1  0
  4  8  1  0
  4 30  1  1
  5  6  2  0
  5  7  1  0
  7 31  1  0
  8  9  1  0
  8 32  1  0
  8 33  1  0
  9 10  1  0
  9 23  1  0
 10 11  2  0
 10 12  1  0
 12 13  1  0
 12 34  1  0
 12 35  1  0
 13 14  2  0
 13 22  1  0
 14 15  1  0
 14 36  1  0
 15 16  1  0
 16 17  1  0
 16 22  2  0
 17 18  2  0
 17 37  1  0
 18 19  1  0
 18 38  1  0
 19 20  1  0
 19 21  2  0
 21 22  1  0
 21 39  1  0
 23 40  1  0
 23 41  1  0
M  END

