
     RDKit          3D

 60 64  0  0  0  0  0  0  0  0999 V2000
    2.4981    1.5335   -1.6891 N   0  0  0  0  0  0  0  0  0  0  0  0
    1.9979    0.4209   -1.0543 C   0  0  0  0  0  0  0  0  0  0  0  0
    0.9219    0.4738   -0.4653 O   0  0  0  0  0  0  0  0  0  0  0  0
    2.8177   -0.8023   -1.1695 C   0  0  0  0  0  0  0  0  0  0  0  0
    3.9531   -0.9853   -2.0168 C   0  0  0  0  0  0  0  0  0  0  0  0
    4.3429   -2.3129   -1.9838 C   0  0  0  0  0  0  0  0  0  0  0  0
    5.4510   -2.9573   -2.6915 C   0  0  0  0  0  0  0  0  0  0  0  0
    6.5760   -2.1543   -2.9959 C   0  0  0  0  0  0  0  0  0  0  0  0
    7.6845   -2.7272   -3.5957 C   0  0  0  0  0  0  0  0  0  0  0  0
    7.7445   -4.0094   -3.9625 N   0  0  0  0  0  0  0  0  0  0  0  0
    6.6874   -4.7902   -3.7344 C   0  0  0  0  0  0  0  0  0  0  0  0
    6.7851   -6.1299   -4.1586 N   0  0  0  0  0  0  0  0  0  0  0  0
    8.1426   -6.6467   -4.3615 C   0  0  0  0  0  0  0  0  0  0  0  0
    8.1333   -8.1770   -4.3866 C   0  0  0  0  0  0  0  0  0  0  0  0
    7.1742   -8.7146   -5.4536 C   0  0  0  0  0  0  0  0  0  0  0  0
    5.7825   -8.0990   -5.2768 C   0  0  0  0  0  0  0  0  0  0  0  0
    5.8620   -6.5729   -5.2136 C   0  0  0  0  0  0  0  0  0  0  0  0
    5.5126   -4.3264   -3.0621 C   0  0  0  0  0  0  0  0  0  0  0  0
    4.4281   -5.2926   -2.7384 C   0  0  0  0  0  0  0  0  0  0  0  0
    4.6618   -6.4227   -1.9335 C   0  0  0  0  0  0  0  0  0  0  0  0
    3.7097   -7.3086   -1.6372 N   0  0  0  0  0  0  0  0  0  0  0  0
    2.4966   -7.0735   -2.1422 C   0  0  0  0  0  0  0  0  0  0  0  0
    2.1459   -6.0370   -2.9060 N   0  0  0  0  0  0  0  0  0  0  0  0
    3.1091   -5.1623   -3.2055 C   0  0  0  0  0  0  0  0  0  0  0  0
    3.4627   -2.9479   -1.1089 N   0  0  0  0  0  0  0  0  0  0  0  0
    3.5752   -3.8963   -0.7789 H   0  0  0  0  0  0  0  0  0  0  0  0
    2.5399   -2.0693   -0.6001 C   0  0  0  0  0  0  0  0  0  0  0  0
    1.5713   -2.4965    0.2760 N   0  0  0  0  0  0  0  0  0  0  0  0
    1.2816   -1.7331    1.4950 C   0  0  0  0  0  0  0  0  0  0  0  0
   -0.1508   -1.9860    1.9478 C   0  0  0  0  0  0  0  0  0  0  0  0
   -0.3686   -3.4191    2.1111 N   0  0  0  0  0  0  0  0  0  0  0  0
   -0.1657   -4.1266    0.8581 C   0  0  0  0  0  0  0  0  0  0  0  0
    1.2714   -3.9217    0.3758 C   0  0  0  0  0  0  0  0  0  0  0  0
    1.9865    2.3956   -1.5442 H   0  0  0  0  0  0  0  0  0  0  0  0
    3.4679    1.6017   -1.9641 H   0  0  0  0  0  0  0  0  0  0  0  0
    4.3968   -0.2345   -2.6670 H   0  0  0  0  0  0  0  0  0  0  0  0
    6.5979   -1.1063   -2.6961 H   0  0  0  0  0  0  0  0  0  0  0  0
    8.5792   -2.1227   -3.7877 H   0  0  0  0  0  0  0  0  0  0  0  0
    8.7827   -6.2710   -3.5522 H   0  0  0  0  0  0  0  0  0  0  0  0
    8.5760   -6.2528   -5.3037 H   0  0  0  0  0  0  0  0  0  0  0  0
    7.8284   -8.5505   -3.3932 H   0  0  0  0  0  0  0  0  0  0  0  0
    9.1591   -8.5400   -4.5658 H   0  0  0  0  0  0  0  0  0  0  0  0
    7.1214   -9.8152   -5.4139 H   0  0  0  0  0  0  0  0  0  0  0  0
    7.5619   -8.4543   -6.4559 H   0  0  0  0  0  0  0  0  0  0  0  0
    5.3247   -8.4720   -4.3442 H   0  0  0  0  0  0  0  0  0  0  0  0
    5.1155   -8.3924   -6.1046 H   0  0  0  0  0  0  0  0  0  0  0  0
    4.8663   -6.1475   -5.0374 H   0  0  0  0  0  0  0  0  0  0  0  0
    6.2052   -6.1789   -6.1955 H   0  0  0  0  0  0  0  0  0  0  0  0
    5.6601   -6.6046   -1.5214 H   0  0  0  0  0  0  0  0  0  0  0  0
    1.7109   -7.8005   -1.9023 H   0  0  0  0  0  0  0  0  0  0  0  0
    2.8301   -4.3137   -3.8412 H   0  0  0  0  0  0  0  0  0  0  0  0
    1.4090   -0.6675    1.2829 H   0  0  0  0  0  0  0  0  0  0  0  0
    1.9807   -2.0427    2.2990 H   0  0  0  0  0  0  0  0  0  0  0  0
   -0.8290   -1.5228    1.1991 H   0  0  0  0  0  0  0  0  0  0  0  0
   -0.3153   -1.4797    2.9125 H   0  0  0  0  0  0  0  0  0  0  0  0
   -1.2991   -3.6041    2.4800 H   0  0  0  0  0  0  0  0  0  0  0  0
   -0.8492   -3.7853    0.0484 H   0  0  0  0  0  0  0  0  0  0  0  0
   -0.3384   -5.2047    1.0090 H   0  0  0  0  0  0  0  0  0  0  0  0
    1.3800   -4.3868   -0.6153 H   0  0  0  0  0  0  0  0  0  0  0  0
    1.9603   -4.4313    1.0843 H   0  0  0  0  0  0  0  0  0  0  0  0
  1  2  1  0
  1 34  1  0
  1 35  1  0
  2  3  2  0
  2  4  1  0
  4  5  1  0
  4 27  2  0
  5  6  2  0
  5 36  1  0
  6  7  1  0
  6 25  1  0
  7  8  2  0
  7 18  1  0
  8  9  1  0
  8 37  1  0
  9 10  2  0
  9 38  1  0
 10 11  1  0
 11 12  1  0
 11 18  2  0
 12 13  1  0
 12 17  1  0
 13 14  1  0
 13 39  1  0
 13 40  1  0
 14 15  1  0
 14 41  1  0
 14 42  1  0
 15 16  1  0
 15 43  1  0
 15 44  1  0
 16 17  1  0
 16 45  1  0
 16 46  1  0
 17 47  1  0
 17 48  1  0
 18 19  1  0
 19 20  2  0
 19 24  1  0
 20 21  1  0
 20 49  1  0
 21 22  2  0
 22 23  1  0
 22 50  1  0
 23 24  2  0
 24 51  1  0
 25 26  1  0
 25 27  1  0
 27 28  1  0
 28 29  1  0
 28 33  1  0
 29 30  1  0
 29 52  1  0
 29 53  1  0
 30 31  1  0
 30 54  1  0
 30 55  1  0
 31 32  1  0
 31 56  1  0
 32 33  1  0
 32 57  1  0
 32 58  1  0
 33 59  1  0
 33 60  1  0
M  END

