
     RDKit          3D

 49 52  0  0  0  0  0  0  0  0999 V2000
    5.1749    2.6948   -4.4152 C   0  0  0  0  0  0  0  0  0  0  0  0
    4.5359    2.4838   -5.7935 C   0  0  1  0  0  0  0  0  0  0  0  0
    4.8130    1.0839   -6.3760 C   0  0  0  0  0  0  0  0  0  0  0  0
    3.9819   -0.0195   -5.6763 C   0  0  2  0  0  0  0  0  0  0  0  0
    4.1868   -1.3640   -6.3684 C   0  0  0  0  0  0  0  0  0  0  0  0
    3.3625   -1.9135   -7.0466 O   0  0  0  0  0  0  0  0  0  0  0  0
    5.4127   -1.9188   -6.2029 O   0  0  0  0  0  0  0  0  0  0  0  0
    2.4947    0.3618   -5.6526 C   0  0  0  0  0  0  0  0  0  0  0  0
    2.3073    1.6857   -5.0664 N   0  0  0  0  0  0  0  0  0  0  0  0
    1.5730    1.7853   -3.9082 C   0  0  0  0  0  0  0  0  0  0  0  0
    1.1016    0.7914   -3.3607 O   0  0  0  0  0  0  0  0  0  0  0  0
    1.2969    3.1047   -3.2497 C   0  0  0  0  0  0  0  0  0  0  0  0
    1.6400    4.3272   -3.6771 N   0  0  0  0  0  0  0  0  0  0  0  0
    1.1716    5.2039   -2.7615 N   0  0  0  0  0  0  0  0  0  0  0  0
    1.3501    6.5989   -2.9561 C   0  0  0  0  0  0  0  0  0  0  0  0
    1.5008    7.1058   -4.2554 C   0  0  0  0  0  0  0  0  0  0  0  0
    1.6731    8.4769   -4.4460 C   0  0  0  0  0  0  0  0  0  0  0  0
    1.6880    9.3522   -3.3547 C   0  0  0  0  0  0  0  0  0  0  0  0
    1.5373    8.8416   -2.0629 C   0  0  0  0  0  0  0  0  0  0  0  0
    1.3753    7.4693   -1.8571 C   0  0  0  0  0  0  0  0  0  0  0  0
    0.5181    4.5461   -1.7529 C   0  0  0  0  0  0  0  0  0  0  0  0
    0.5752    3.2030   -2.0298 C   0  0  0  0  0  0  0  0  0  0  0  0
   -0.1216    2.3949   -0.9752 C   0  0  0  0  0  0  0  0  0  0  0  0
   -0.9067    3.4955   -0.1912 C   0  0  0  0  0  0  0  0  0  0  0  0
   -0.2203    4.8701   -0.4872 C   0  0  0  0  0  0  0  0  0  0  0  0
    3.0157    2.7474   -5.7744 C   0  0  0  0  0  0  0  0  0  0  0  0
    6.2633    2.5236   -4.4524 H   0  0  0  0  0  0  0  0  0  0  0  0
    4.7540    2.0165   -3.6559 H   0  0  0  0  0  0  0  0  0  0  0  0
    5.0069    3.7229   -4.0586 H   0  0  0  0  0  0  0  0  0  0  0  0
    4.9768    3.2220   -6.4866 H   0  0  0  0  0  0  0  0  0  0  0  0
    5.8919    0.8571   -6.3212 H   0  0  0  0  0  0  0  0  0  0  0  0
    4.5499    1.0794   -7.4484 H   0  0  0  0  0  0  0  0  0  0  0  0
    4.3294   -0.1235   -4.6317 H   0  0  0  0  0  0  0  0  0  0  0  0
    5.9522   -1.3756   -5.6110 H   0  0  0  0  0  0  0  0  0  0  0  0
    1.9112   -0.3597   -5.0715 H   0  0  0  0  0  0  0  0  0  0  0  0
    2.1103    0.3579   -6.6874 H   0  0  0  0  0  0  0  0  0  0  0  0
    1.4767    6.4166   -5.0990 H   0  0  0  0  0  0  0  0  0  0  0  0
    1.7885    8.8657   -5.4609 H   0  0  0  0  0  0  0  0  0  0  0  0
    1.8183   10.4256   -3.5107 H   0  0  0  0  0  0  0  0  0  0  0  0
    1.5569    9.5131   -1.2010 H   0  0  0  0  0  0  0  0  0  0  0  0
    1.2875    7.0783   -0.8434 H   0  0  0  0  0  0  0  0  0  0  0  0
    0.6091    1.8701   -0.3346 H   0  0  0  0  0  0  0  0  0  0  0  0
   -0.7772    1.6173   -1.3918 H   0  0  0  0  0  0  0  0  0  0  0  0
   -0.9656    3.2899    0.8880 H   0  0  0  0  0  0  0  0  0  0  0  0
   -1.9413    3.5330   -0.5678 H   0  0  0  0  0  0  0  0  0  0  0  0
    0.4757    5.1581    0.3221 H   0  0  0  0  0  0  0  0  0  0  0  0
   -0.9471    5.6916   -0.5891 H   0  0  0  0  0  0  0  0  0  0  0  0
    2.7926    3.7122   -5.3111 H   0  0  0  0  0  0  0  0  0  0  0  0
    2.6423    2.7770   -6.8158 H   0  0  0  0  0  0  0  0  0  0  0  0
  1  2  1  0
  1 27  1  0
  1 28  1  0
  1 29  1  0
  2  3  1  0
  2 26  1  0
  2 30  1  6
  3  4  1  0
  3 31  1  0
  3 32  1  0
  4  5  1  0
  4  8  1  0
  4 33  1  1
  5  6  2  0
  5  7  1  0
  7 34  1  0
  8  9  1  0
  8 35  1  0
  8 36  1  0
  9 10  1  0
  9 26  1  0
 10 11  2  0
 10 12  1  0
 12 13  2  0
 12 22  1  0
 13 14  1  0
 14 15  1  0
 14 21  1  0
 15 16  2  0
 15 20  1  0
 16 17  1  0
 16 37  1  0
 17 18  2  0
 17 38  1  0
 18 19  1  0
 18 39  1  0
 19 20  2  0
 19 40  1  0
 20 41  1  0
 21 22  2  0
 21 25  1  0
 22 23  1  0
 23 24  1  0
 23 42  1  0
 23 43  1  0
 24 25  1  0
 24 44  1  0
 24 45  1  0
 25 46  1  0
 25 47  1  0
 26 48  1  0
 26 49  1  0
M  END

