
     RDKit          3D

 65 67  0  0  0  0  0  0  0  0999 V2000
    5.2686   -1.4393   -6.3903 C   0  0  0  0  0  0  0  0  0  0  0  0
    4.7981   -0.9044   -5.0370 C   0  0  0  0  0  0  0  0  0  0  0  0
    5.3170   -1.7150   -3.8453 C   0  0  0  0  0  0  0  0  0  0  0  0
    4.8509   -1.1806   -2.4886 C   0  0  0  0  0  0  0  0  0  0  0  0
    5.3345   -2.0022   -1.2861 C   0  0  0  0  0  0  0  0  0  0  0  0
    6.7891   -2.0388   -1.1334 N   0  0  0  0  0  0  0  0  0  0  0  0
    7.4179   -0.8036   -0.6969 C   0  0  0  0  0  0  0  0  0  0  0  0
    7.4243   -3.2637   -1.2052 C   0  0  0  0  0  0  0  0  0  0  0  0
    6.8016   -4.3148   -1.2845 O   0  0  0  0  0  0  0  0  0  0  0  0
    8.9322   -3.3022   -1.2081 C   0  0  0  0  0  0  0  0  0  0  0  0
    9.5589   -4.3513   -0.5236 C   0  0  0  0  0  0  0  0  0  0  0  0
   10.9433   -4.5070   -0.5549 C   0  0  0  0  0  0  0  0  0  0  0  0
   11.7520   -3.6344   -1.3074 C   0  0  0  0  0  0  0  0  0  0  0  0
   13.1716   -3.7877   -1.2968 N   0  0  0  0  0  0  0  0  0  0  0  0
   13.7517   -4.4503   -0.1286 C   0  0  0  0  0  0  0  0  0  0  0  0
   13.9247   -3.4952   -2.4287 C   0  0  0  0  0  0  0  0  0  0  0  0
   13.4290   -3.1763   -3.4918 O   0  0  0  0  0  0  0  0  0  0  0  0
   15.4628   -3.5568   -2.3236 C   0  0  0  0  0  0  0  0  0  0  0  0
   16.0337   -2.4611   -1.5403 N   0  0  0  0  0  0  0  0  0  0  0  0
   15.6817   -1.2159   -1.9923 N   0  0  0  0  0  0  0  0  0  0  0  0
   16.3135   -0.1648   -1.5959 C   0  0  0  0  0  0  0  0  0  0  0  0
   15.8981    1.1332   -2.1821 C   0  0  0  0  0  0  0  0  0  0  0  0
   14.8355    1.1800   -3.1102 C   0  0  0  0  0  0  0  0  0  0  0  0
   14.4337    2.3804   -3.6848 C   0  0  0  0  0  0  0  0  0  0  0  0
   15.0948    3.5673   -3.3416 C   0  0  0  0  0  0  0  0  0  0  0  0
   14.5918    5.0772   -4.0597 Cl  0  0  0  0  0  0  0  0  0  0  0  0
   16.1527    3.5505   -2.4316 C   0  0  0  0  0  0  0  0  0  0  0  0
   16.5461    2.3388   -1.8588 C   0  0  0  0  0  0  0  0  0  0  0  0
   17.4724   -0.2711   -0.6300 C   0  0  0  0  0  0  0  0  0  0  0  0
   17.2643   -1.4594    0.3063 C   0  0  0  0  0  0  0  0  0  0  0  0
   16.8226   -2.7079   -0.4286 C   0  0  0  0  0  0  0  0  0  0  0  0
   17.0728   -3.8388   -0.0471 O   0  0  0  0  0  0  0  0  0  0  0  0
   11.1228   -2.5969   -2.0218 C   0  0  0  0  0  0  0  0  0  0  0  0
    9.7399   -2.4378   -1.9643 C   0  0  0  0  0  0  0  0  0  0  0  0
    4.8784   -0.8336   -7.2239 H   0  0  0  0  0  0  0  0  0  0  0  0
    4.9342   -2.4783   -6.5482 H   0  0  0  0  0  0  0  0  0  0  0  0
    6.3693   -1.4355   -6.4622 H   0  0  0  0  0  0  0  0  0  0  0  0
    3.6930   -0.8868   -5.0115 H   0  0  0  0  0  0  0  0  0  0  0  0
    5.1151    0.1492   -4.9262 H   0  0  0  0  0  0  0  0  0  0  0  0
    6.4215   -1.7340   -3.8718 H   0  0  0  0  0  0  0  0  0  0  0  0
    5.0006   -2.7688   -3.9490 H   0  0  0  0  0  0  0  0  0  0  0  0
    3.7466   -1.1685   -2.4552 H   0  0  0  0  0  0  0  0  0  0  0  0
    5.1606   -0.1248   -2.3784 H   0  0  0  0  0  0  0  0  0  0  0  0
    5.0025   -3.0444   -1.3761 H   0  0  0  0  0  0  0  0  0  0  0  0
    4.8921   -1.5911   -0.3593 H   0  0  0  0  0  0  0  0  0  0  0  0
    6.7935   -0.3304    0.0813 H   0  0  0  0  0  0  0  0  0  0  0  0
    7.5389   -0.0714   -1.5151 H   0  0  0  0  0  0  0  0  0  0  0  0
    8.4050   -0.9975   -0.2624 H   0  0  0  0  0  0  0  0  0  0  0  0
    8.9418   -5.0614    0.0303 H   0  0  0  0  0  0  0  0  0  0  0  0
   11.3857   -5.3346   -0.0014 H   0  0  0  0  0  0  0  0  0  0  0  0
   13.3144   -4.0321    0.7898 H   0  0  0  0  0  0  0  0  0  0  0  0
   14.8353   -4.3158   -0.0813 H   0  0  0  0  0  0  0  0  0  0  0  0
   13.5566   -5.5366   -0.1354 H   0  0  0  0  0  0  0  0  0  0  0  0
   15.8097   -3.4708   -3.3620 H   0  0  0  0  0  0  0  0  0  0  0  0
   15.8420   -4.4916   -1.8948 H   0  0  0  0  0  0  0  0  0  0  0  0
   14.3334    0.2487   -3.3764 H   0  0  0  0  0  0  0  0  0  0  0  0
   13.6114    2.4064   -4.4017 H   0  0  0  0  0  0  0  0  0  0  0  0
   16.6638    4.4794   -2.1738 H   0  0  0  0  0  0  0  0  0  0  0  0
   17.3781    2.3522   -1.1531 H   0  0  0  0  0  0  0  0  0  0  0  0
   17.6038    0.6506   -0.0484 H   0  0  0  0  0  0  0  0  0  0  0  0
   18.4004   -0.4012   -1.2190 H   0  0  0  0  0  0  0  0  0  0  0  0
   16.4706   -1.2302    1.0409 H   0  0  0  0  0  0  0  0  0  0  0  0
   18.1668   -1.7110    0.8790 H   0  0  0  0  0  0  0  0  0  0  0  0
   11.7144   -1.9229   -2.6353 H   0  0  0  0  0  0  0  0  0  0  0  0
    9.2865   -1.6306   -2.5435 H   0  0  0  0  0  0  0  0  0  0  0  0
  1  2  1  0
  1 35  1  0
  1 36  1  0
  1 37  1  0
  2  3  1  0
  2 38  1  0
  2 39  1  0
  3  4  1  0
  3 40  1  0
  3 41  1  0
  4  5  1  0
  4 42  1  0
  4 43  1  0
  5  6  1  0
  5 44  1  0
  5 45  1  0
  6  7  1  0
  6  8  1  0
  7 46  1  0
  7 47  1  0
  7 48  1  0
  8  9  2  0
  8 10  1  0
 10 11  2  0
 10 34  1  0
 11 12  1  0
 11 49  1  0
 12 13  2  0
 12 50  1  0
 13 14  1  0
 13 33  1  0
 14 15  1  0
 14 16  1  0
 15 51  1  0
 15 52  1  0
 15 53  1  0
 16 17  2  0
 16 18  1  0
 18 19  1  0
 18 54  1  0
 18 55  1  0
 19 20  1  0
 19 31  1  0
 20 21  2  0
 21 22  1  0
 21 29  1  0
 22 23  2  0
 22 28  1  0
 23 24  1  0
 23 56  1  0
 24 25  2  0
 24 57  1  0
 25 26  1  0
 25 27  1  0
 27 28  2  0
 27 58  1  0
 28 59  1  0
 29 30  1  0
 29 60  1  0
 29 61  1  0
 30 31  1  0
 30 62  1  0
 30 63  1  0
 31 32  2  0
 33 34  2  0
 33 64  1  0
 34 65  1  0
M  END

