
     RDKit          3D

 39 39  0  0  0  0  0  0  0  0999 V2000
    0.7407    0.0235    0.2634 C   0  0  0  0  0  0  0  0  0  0  0  0
    2.2583   -0.0597    0.1414 C   0  0  0  0  0  0  0  0  0  0  0  0
    2.9063    0.9663    0.9417 N   0  0  0  0  0  0  0  0  0  0  0  0
    4.3629    0.9579    0.9180 C   0  0  1  0  0  0  0  0  0  0  0  0
    4.8843    1.4355   -0.4164 C   0  0  0  0  0  0  0  0  0  0  0  0
    4.3660    2.4619   -1.2515 C   0  0  0  0  0  0  0  0  0  0  0  0
    5.0835    2.6106   -2.3617 N   0  0  0  0  0  0  0  0  0  0  0  0
    6.0650    1.7020   -2.2716 N   0  0  0  0  0  0  0  0  0  0  0  0
    7.0159    1.5617   -3.3533 C   0  0  0  0  0  0  0  0  0  0  0  0
    5.9810    0.9666   -1.1278 C   0  0  0  0  0  0  0  0  0  0  0  0
    4.8981    1.7719    2.1553 C   0  0  1  0  0  0  0  0  0  0  0  0
    6.4255    1.6716    2.2439 C   0  0  0  0  0  0  0  0  0  0  0  0
    4.4323    3.2409    2.1046 C   0  0  0  0  0  0  0  0  0  0  0  0
    4.7825    4.0778    3.3362 C   0  0  0  0  0  0  0  0  0  0  0  0
    4.2645    1.2370    3.3364 O   0  0  0  0  0  0  0  0  0  0  0  0
    4.6870   -0.0030    3.8482 C   0  0  0  0  0  0  0  0  0  0  0  0
    0.2506   -0.7420   -0.3586 H   0  0  0  0  0  0  0  0  0  0  0  0
    0.3797    1.0148   -0.0520 H   0  0  0  0  0  0  0  0  0  0  0  0
    0.4141   -0.1360    1.3056 H   0  0  0  0  0  0  0  0  0  0  0  0
    2.5513    0.0806   -0.9128 H   0  0  0  0  0  0  0  0  0  0  0  0
    2.5978   -1.0873    0.4142 H   0  0  0  0  0  0  0  0  0  0  0  0
    2.6103    0.8939    1.9150 H   0  0  0  0  0  0  0  0  0  0  0  0
    4.7596   -0.0752    1.0550 H   0  0  0  0  0  0  0  0  0  0  0  0
    3.4879    3.0814   -1.0756 H   0  0  0  0  0  0  0  0  0  0  0  0
    7.4417    2.5442   -3.6039 H   0  0  0  0  0  0  0  0  0  0  0  0
    6.5300    1.1508   -4.2529 H   0  0  0  0  0  0  0  0  0  0  0  0
    7.8241    0.8866   -3.0414 H   0  0  0  0  0  0  0  0  0  0  0  0
    6.6929    0.1732   -0.9062 H   0  0  0  0  0  0  0  0  0  0  0  0
    6.8915    2.2441    1.4297 H   0  0  0  0  0  0  0  0  0  0  0  0
    6.7781    0.6316    2.1618 H   0  0  0  0  0  0  0  0  0  0  0  0
    6.7860    2.0786    3.1999 H   0  0  0  0  0  0  0  0  0  0  0  0
    3.3413    3.2344    1.9614 H   0  0  0  0  0  0  0  0  0  0  0  0
    4.8587    3.7025    1.2003 H   0  0  0  0  0  0  0  0  0  0  0  0
    4.3928    3.6077    4.2511 H   0  0  0  0  0  0  0  0  0  0  0  0
    4.3400    5.0834    3.2541 H   0  0  0  0  0  0  0  0  0  0  0  0
    5.8694    4.2114    3.4600 H   0  0  0  0  0  0  0  0  0  0  0  0
    4.0150   -0.2452    4.6855 H   0  0  0  0  0  0  0  0  0  0  0  0
    5.7206    0.0253    4.2395 H   0  0  0  0  0  0  0  0  0  0  0  0
    4.6217   -0.8257    3.1105 H   0  0  0  0  0  0  0  0  0  0  0  0
  1  2  1  0
  1 17  1  0
  1 18  1  0
  1 19  1  0
  2  3  1  0
  2 20  1  0
  2 21  1  0
  3  4  1  0
  3 22  1  0
  4  5  1  0
  4 11  1  0
  4 23  1  1
  5  6  1  0
  5 10  2  0
  6  7  2  0
  6 24  1  0
  7  8  1  0
  8  9  1  0
  8 10  1  0
  9 25  1  0
  9 26  1  0
  9 27  1  0
 10 28  1  0
 11 12  1  0
 11 13  1  0
 11 15  1  1
 12 29  1  0
 12 30  1  0
 12 31  1  0
 13 14  1  0
 13 32  1  0
 13 33  1  0
 14 34  1  0
 14 35  1  0
 14 36  1  0
 15 16  1  0
 16 37  1  0
 16 38  1  0
 16 39  1  0
M  END

