
     RDKit          3D

 19 19  0  0  0  0  0  0  0  0999 V2000
    1.1384    0.1793   -0.0481 O   0  0  0  0  0  0  0  0  0  0  0  0
    2.3365    0.1476   -0.0843 C   0  0  0  0  0  0  0  0  0  0  0  0
    3.0970    1.2503   -0.0525 O   0  0  0  0  0  0  0  0  0  0  0  0
    3.1019   -1.1732   -0.1571 C   0  0  0  0  0  0  0  0  0  0  0  0
    4.4946   -0.9006   -0.1795 O   0  0  0  0  0  0  0  0  0  0  0  0
    5.2359   -2.0678   -0.2472 N   0  0  0  0  0  0  0  0  0  0  0  0
    6.4959   -1.8269   -0.2672 C   0  0  0  0  0  0  0  0  0  0  0  0
    7.4611   -2.9095   -0.3367 C   0  0  0  0  0  0  0  0  0  0  0  0
    7.2439   -4.2742   -0.3899 C   0  0  0  0  0  0  0  0  0  0  0  0
    8.4416   -5.0336   -0.4512 C   0  0  0  0  0  0  0  0  0  0  0  0
    9.5638   -4.2356   -0.4441 C   0  0  0  0  0  0  0  0  0  0  0  0
   11.3537   -4.7997   -0.5110 Br  0  0  0  0  0  0  0  0  0  0  0  0
    9.1721   -2.5488   -0.3624 S   0  0  0  0  0  0  0  0  0  0  0  0
    4.0325    0.9810   -0.0878 H   0  0  0  0  0  0  0  0  0  0  0  0
    2.7869   -1.7138   -1.0656 H   0  0  0  0  0  0  0  0  0  0  0  0
    2.8301   -1.7876    0.7178 H   0  0  0  0  0  0  0  0  0  0  0  0
    6.8640   -0.7902   -0.2316 H   0  0  0  0  0  0  0  0  0  0  0  0
    6.2417   -4.7036   -0.3842 H   0  0  0  0  0  0  0  0  0  0  0  0
    8.4836   -6.1217   -0.4987 H   0  0  0  0  0  0  0  0  0  0  0  0
  1  2  2  0
  2  3  1  0
  2  4  1  0
  3 14  1  0
  4  5  1  0
  4 15  1  0
  4 16  1  0
  5  6  1  0
  6  7  2  0
  7  8  1  0
  7 17  1  0
  8  9  2  0
  8 13  1  0
  9 10  1  0
  9 18  1  0
 10 11  2  0
 10 19  1  0
 11 12  1  0
 11 13  1  0
M  END

