
     RDKit          3D

 27 27  0  0  0  0  0  0  0  0999 V2000
    2.7131    1.3032   -0.8564 C   0  0  0  0  0  0  0  0  0  0  0  0
    2.3412    0.0617   -0.0359 C   0  0  1  0  0  0  0  0  0  0  0  0
    2.7514   -1.2265   -0.7607 C   0  0  0  0  0  0  0  0  0  0  0  0
    2.9399    0.1242    1.3724 C   0  0  1  0  0  0  0  0  0  0  0  0
    2.4646    1.2393    2.3428 C   0  0  0  0  0  0  0  0  0  0  0  0
    2.4179    0.1975    3.5057 C   0  0  2  0  0  0  0  0  0  0  0  0
    1.1603    0.2115    4.3718 C   0  0  0  0  0  0  0  0  0  0  0  0
    3.6763    0.2497    4.3778 C   0  0  0  0  0  0  0  0  0  0  0  0
    2.4972   -0.9277    2.4254 C   0  0  0  0  0  0  0  0  0  0  0  0
    2.2420    1.2817   -1.8528 H   0  0  0  0  0  0  0  0  0  0  0  0
    3.8051    1.3632   -1.0069 H   0  0  0  0  0  0  0  0  0  0  0  0
    2.3947    2.2321   -0.3566 H   0  0  0  0  0  0  0  0  0  0  0  0
    1.2394    0.0494    0.0786 H   0  0  0  0  0  0  0  0  0  0  0  0
    3.8450   -1.2652   -0.9066 H   0  0  0  0  0  0  0  0  0  0  0  0
    2.2817   -1.2941   -1.7557 H   0  0  0  0  0  0  0  0  0  0  0  0
    2.4597   -2.1242   -0.1922 H   0  0  0  0  0  0  0  0  0  0  0  0
    4.0410    0.1375    1.2844 H   0  0  0  0  0  0  0  0  0  0  0  0
    1.4572    1.6035    2.0808 H   0  0  0  0  0  0  0  0  0  0  0  0
    3.1225    2.1124    2.4823 H   0  0  0  0  0  0  0  0  0  0  0  0
    1.1120    1.1253    4.9889 H   0  0  0  0  0  0  0  0  0  0  0  0
    1.1387   -0.6539    5.0563 H   0  0  0  0  0  0  0  0  0  0  0  0
    0.2467    0.1745    3.7562 H   0  0  0  0  0  0  0  0  0  0  0  0
    3.6925    1.1656    4.9926 H   0  0  0  0  0  0  0  0  0  0  0  0
    4.5956    0.2403    3.7700 H   0  0  0  0  0  0  0  0  0  0  0  0
    3.7193   -0.6155    5.0608 H   0  0  0  0  0  0  0  0  0  0  0  0
    1.5014   -1.3409    2.1932 H   0  0  0  0  0  0  0  0  0  0  0  0
    3.1809   -1.7674    2.6301 H   0  0  0  0  0  0  0  0  0  0  0  0
  1  2  1  0
  1 10  1  0
  1 11  1  0
  1 12  1  0
  2  3  1  0
  2  4  1  0
  2 13  1  1
  3 14  1  0
  3 15  1  0
  3 16  1  0
  4  5  1  0
  4  9  1  0
  4 17  1  6
  5  6  1  0
  5 18  1  0
  5 19  1  0
  6  7  1  1
  6  8  1  0
  6  9  1  0
  7 20  1  0
  7 21  1  0
  7 22  1  0
  8 23  1  0
  8 24  1  0
  8 25  1  0
  9 26  1  0
  9 27  1  0
M  END

