
     RDKit          3D

 42 43  0  0  0  0  0  0  0  0999 V2000
    4.9443   -0.7719   -2.5607 C   0  0  0  0  0  0  0  0  0  0  0  0
    4.4501   -0.4243   -1.2463 N   0  0  0  0  0  0  0  0  0  0  0  0
    5.0492   -1.1655   -0.1573 C   0  0  0  0  0  0  0  0  0  0  0  0
    4.3322   -0.8309    1.1561 C   0  0  1  0  0  0  0  0  0  0  0  0
    2.9352   -1.1302    1.0340 O   0  0  0  0  0  0  0  0  0  0  0  0
    4.9458   -1.4723    2.3835 C   0  0  0  0  0  0  0  0  0  0  0  0
    5.2148   -0.7171    3.5332 C   0  0  0  0  0  0  0  0  0  0  0  0
    5.7460   -1.2887    4.6884 C   0  0  0  0  0  0  0  0  0  0  0  0
    6.0282   -2.6738    4.7528 C   0  0  0  0  0  0  0  0  0  0  0  0
    6.5481   -3.2548    5.9035 N   0  0  0  0  0  0  0  0  0  0  0  0
    6.6663   -2.4845    7.1248 C   0  0  0  0  0  0  0  0  0  0  0  0
    7.2184   -4.5405    5.8675 C   0  0  0  0  0  0  0  0  0  0  0  0
    6.3948   -5.7385    6.3295 C   0  0  0  0  0  0  0  0  0  0  0  0
    5.0093   -5.6574    6.5153 C   0  0  0  0  0  0  0  0  0  0  0  0
    4.2776   -6.7794    6.9211 C   0  0  0  0  0  0  0  0  0  0  0  0
    4.9227   -7.9974    7.1468 C   0  0  0  0  0  0  0  0  0  0  0  0
    6.3075   -8.0876    6.9657 C   0  0  0  0  0  0  0  0  0  0  0  0
    7.0352   -6.9665    6.5626 C   0  0  0  0  0  0  0  0  0  0  0  0
    5.7434   -3.4420    3.5976 C   0  0  0  0  0  0  0  0  0  0  0  0
    5.2247   -2.8482    2.4492 C   0  0  0  0  0  0  0  0  0  0  0  0
    4.3999   -0.2035   -3.3317 H   0  0  0  0  0  0  0  0  0  0  0  0
    4.8625   -1.8546   -2.8157 H   0  0  0  0  0  0  0  0  0  0  0  0
    6.0116   -0.5038   -2.6510 H   0  0  0  0  0  0  0  0  0  0  0  0
    3.4391   -0.5453   -1.1914 H   0  0  0  0  0  0  0  0  0  0  0  0
    6.1179   -0.8983   -0.0661 H   0  0  0  0  0  0  0  0  0  0  0  0
    5.0209   -2.2709   -0.3200 H   0  0  0  0  0  0  0  0  0  0  0  0
    4.3720    0.2642    1.2699 H   0  0  0  0  0  0  0  0  0  0  0  0
    2.8217   -2.0699    1.2314 H   0  0  0  0  0  0  0  0  0  0  0  0
    5.0104    0.3576    3.5249 H   0  0  0  0  0  0  0  0  0  0  0  0
    5.9536   -0.6436    5.5418 H   0  0  0  0  0  0  0  0  0  0  0  0
    5.7328   -1.9433    7.3463 H   0  0  0  0  0  0  0  0  0  0  0  0
    7.4891   -1.7417    7.0936 H   0  0  0  0  0  0  0  0  0  0  0  0
    6.8548   -3.1660    7.9662 H   0  0  0  0  0  0  0  0  0  0  0  0
    8.1294   -4.4804    6.4896 H   0  0  0  0  0  0  0  0  0  0  0  0
    7.5848   -4.7272    4.8445 H   0  0  0  0  0  0  0  0  0  0  0  0
    4.5033   -4.7054    6.3404 H   0  0  0  0  0  0  0  0  0  0  0  0
    3.1964   -6.6982    7.0613 H   0  0  0  0  0  0  0  0  0  0  0  0
    4.3515   -8.8732    7.4649 H   0  0  0  0  0  0  0  0  0  0  0  0
    6.8228   -9.0352    7.1438 H   0  0  0  0  0  0  0  0  0  0  0  0
    8.1189   -7.0449    6.4279 H   0  0  0  0  0  0  0  0  0  0  0  0
    5.9045   -4.5205    3.6017 H   0  0  0  0  0  0  0  0  0  0  0  0
    5.0270   -3.4899    1.5855 H   0  0  0  0  0  0  0  0  0  0  0  0
  1  2  1  0
  1 21  1  0
  1 22  1  0
  1 23  1  0
  2  3  1  0
  2 24  1  0
  3  4  1  0
  3 25  1  0
  3 26  1  0
  4  5  1  0
  4  6  1  0
  4 27  1  1
  5 28  1  0
  6  7  2  0
  6 20  1  0
  7  8  1  0
  7 29  1  0
  8  9  2  0
  8 30  1  0
  9 10  1  0
  9 19  1  0
 10 11  1  0
 10 12  1  0
 11 31  1  0
 11 32  1  0
 11 33  1  0
 12 13  1  0
 12 34  1  0
 12 35  1  0
 13 14  2  0
 13 18  1  0
 14 15  1  0
 14 36  1  0
 15 16  2  0
 15 37  1  0
 16 17  1  0
 16 38  1  0
 17 18  2  0
 17 39  1  0
 18 40  1  0
 19 20  2  0
 19 41  1  0
 20 42  1  0
M  END

