
     RDKit          3D

 44 45  0  0  0  0  0  0  0  0999 V2000
    2.0811   -1.3693   -0.2687 C   0  0  0  0  0  0  0  0  0  0  0  0
    3.0227   -0.1897   -0.0550 C   0  0  0  0  0  0  0  0  0  0  0  0
    3.9389   -0.4378    1.0490 N   0  0  0  0  0  0  0  0  0  0  0  0
    4.8832    0.6339    1.3102 C   0  0  0  0  0  0  0  0  0  0  0  0
    5.5717    0.4623    2.6777 C   0  0  1  0  0  0  0  0  0  0  0  0
    6.3610   -0.8486    2.8571 C   0  0  0  0  0  0  0  0  0  0  0  0
    7.6780   -0.8669    2.0698 C   0  0  0  0  0  0  0  0  0  0  0  0
    8.5353    0.3550    2.4235 C   0  0  0  0  0  0  0  0  0  0  0  0
    7.7446    1.6524    2.2308 C   0  0  0  0  0  0  0  0  0  0  0  0
    6.4500    1.6280    2.9327 N   0  0  0  0  0  0  0  0  0  0  0  0
    6.4181    2.3392    4.4511 S   0  0  1  0  0  0  0  0  0  0  0  0
    5.1653    1.9377    5.0899 O   0  0  0  0  0  0  0  0  0  0  0  0
    7.6994    2.1536    5.1584 O   0  0  0  0  0  0  0  0  0  0  0  0
    6.3944    4.0683    4.0920 C   0  0  0  0  0  0  0  0  0  0  0  0
    5.5838    4.8968    3.3409 C   0  0  0  0  0  0  0  0  0  0  0  0
    5.9826    6.1926    3.4905 N   0  0  0  0  0  0  0  0  0  0  0  0
    7.0141    6.1762    4.3223 C   0  0  0  0  0  0  0  0  0  0  0  0
    7.7620    7.3786    4.8193 C   0  0  0  0  0  0  0  0  0  0  0  0
    7.8250    8.5113    3.7926 C   0  0  0  0  0  0  0  0  0  0  0  0
    7.3000    4.9033    4.7130 N   0  0  0  0  0  0  0  0  0  0  0  0
    8.0337    4.5724    5.3326 H   0  0  0  0  0  0  0  0  0  0  0  0
    1.3601   -1.1592   -1.0740 H   0  0  0  0  0  0  0  0  0  0  0  0
    1.5232   -1.5910    0.6543 H   0  0  0  0  0  0  0  0  0  0  0  0
    2.6380   -2.2790   -0.5531 H   0  0  0  0  0  0  0  0  0  0  0  0
    2.4340    0.7130    0.1877 H   0  0  0  0  0  0  0  0  0  0  0  0
    3.5506    0.0418   -1.0098 H   0  0  0  0  0  0  0  0  0  0  0  0
    4.4358   -1.3120    0.8808 H   0  0  0  0  0  0  0  0  0  0  0  0
    4.3246    1.5834    1.3498 H   0  0  0  0  0  0  0  0  0  0  0  0
    5.6337    0.7590    0.4974 H   0  0  0  0  0  0  0  0  0  0  0  0
    4.7747    0.4921    3.4302 H   0  0  0  0  0  0  0  0  0  0  0  0
    5.7198   -1.7043    2.5899 H   0  0  0  0  0  0  0  0  0  0  0  0
    6.5818   -0.9593    3.9328 H   0  0  0  0  0  0  0  0  0  0  0  0
    7.4733   -0.8736    0.9832 H   0  0  0  0  0  0  0  0  0  0  0  0
    8.2315   -1.7962    2.2822 H   0  0  0  0  0  0  0  0  0  0  0  0
    9.4488    0.3880    1.8061 H   0  0  0  0  0  0  0  0  0  0  0  0
    8.8531    0.2964    3.4777 H   0  0  0  0  0  0  0  0  0  0  0  0
    7.5444    1.8268    1.1598 H   0  0  0  0  0  0  0  0  0  0  0  0
    8.3194    2.5196    2.5860 H   0  0  0  0  0  0  0  0  0  0  0  0
    4.7475    4.6117    2.7045 H   0  0  0  0  0  0  0  0  0  0  0  0
    8.7763    7.0701    5.1255 H   0  0  0  0  0  0  0  0  0  0  0  0
    7.2674    7.7433    5.7389 H   0  0  0  0  0  0  0  0  0  0  0  0
    8.3841    8.2049    2.8948 H   0  0  0  0  0  0  0  0  0  0  0  0
    8.3178    9.3972    4.2211 H   0  0  0  0  0  0  0  0  0  0  0  0
    6.8121    8.7922    3.4706 H   0  0  0  0  0  0  0  0  0  0  0  0
  1  2  1  0
  1 22  1  0
  1 23  1  0
  1 24  1  0
  2  3  1  0
  2 25  1  0
  2 26  1  0
  3  4  1  0
  3 27  1  0
  4  5  1  0
  4 28  1  0
  4 29  1  0
  5  6  1  0
  5 10  1  0
  5 30  1  1
  6  7  1  0
  6 31  1  0
  6 32  1  0
  7  8  1  0
  7 33  1  0
  7 34  1  0
  8  9  1  0
  8 35  1  0
  8 36  1  0
  9 10  1  0
  9 37  1  0
  9 38  1  0
 10 11  1  0
 11 12  2  0
 11 13  2  0
 11 14  1  6
 14 15  2  0
 14 20  1  0
 15 16  1  0
 15 39  1  0
 16 17  2  0
 17 18  1  0
 17 20  1  0
 18 19  1  0
 18 40  1  0
 18 41  1  0
 19 42  1  0
 19 43  1  0
 19 44  1  0
 20 21  1  0
M  END

