
     RDKit          3D

 55 58  0  0  0  0  0  0  0  0999 V2000
    3.8497    5.9511   -6.0267 C   0  0  0  0  0  0  0  0  0  0  0  0
    3.3295    4.8181   -5.2834 N   0  0  0  0  0  0  0  0  0  0  0  0
    3.2581    3.5627   -6.0244 C   0  0  0  0  0  0  0  0  0  0  0  0
    4.6049    2.8179   -6.0896 C   0  0  0  0  0  0  0  0  0  0  0  0
    5.2050    2.6058   -4.7590 N   0  0  0  0  0  0  0  0  0  0  0  0
    4.6294    1.4849   -3.9977 C   0  0  0  0  0  0  0  0  0  0  0  0
    5.0971    0.1034   -4.4839 C   0  0  0  0  0  0  0  0  0  0  0  0
    6.5827   -0.2342   -4.3190 C   0  0  0  0  0  0  0  0  0  0  0  0
    6.9435   -1.3581   -4.0176 O   0  0  0  0  0  0  0  0  0  0  0  0
    7.4230    0.8251   -4.5748 N   0  0  0  0  0  0  0  0  0  0  0  0
    8.8224    0.8688   -4.5504 C   0  0  0  0  0  0  0  0  0  0  0  0
    9.6257   -0.2680   -4.2423 C   0  0  0  0  0  0  0  0  0  0  0  0
   10.9991   -0.1615   -4.2337 C   0  0  0  0  0  0  0  0  0  0  0  0
   11.6560    1.0622   -4.5265 C   0  0  0  0  0  0  0  0  0  0  0  0
   13.0201    1.1156   -4.5010 N   0  0  0  0  0  0  0  0  0  0  0  0
   13.5592    2.2747   -4.7796 C   0  0  0  0  0  0  0  0  0  0  0  0
   12.9193    3.4257   -5.0933 N   0  0  0  0  0  0  0  0  0  0  0  0
   11.5996    3.4127   -5.1294 C   0  0  0  0  0  0  0  0  0  0  0  0
   10.9034    4.5550   -5.4466 N   0  0  0  0  0  0  0  0  0  0  0  0
   11.3288    5.8529   -5.7635 C   0  0  0  0  0  0  0  0  0  0  0  0
   12.6743    6.2626   -5.8208 C   0  0  0  0  0  0  0  0  0  0  0  0
   12.9739    7.5864   -6.1479 C   0  0  0  0  0  0  0  0  0  0  0  0
   11.9771    8.5265   -6.4226 C   0  0  0  0  0  0  0  0  0  0  0  0
   10.6466    8.1059   -6.3623 C   0  0  0  0  0  0  0  0  0  0  0  0
    9.2439    9.3505   -6.7291 Br  0  0  0  0  0  0  0  0  0  0  0  0
   10.3139    6.7934   -6.0391 C   0  0  0  0  0  0  0  0  0  0  0  0
   10.8558    2.2012   -4.8383 C   0  0  0  0  0  0  0  0  0  0  0  0
    9.4473    2.0803   -4.8425 C   0  0  0  0  0  0  0  0  0  0  0  0
    5.2712    3.8796   -4.0216 C   0  0  0  0  0  0  0  0  0  0  0  0
    3.9187    4.6115   -3.9641 C   0  0  0  0  0  0  0  0  0  0  0  0
    3.2568    6.0929   -6.9447 H   0  0  0  0  0  0  0  0  0  0  0  0
    4.9172    5.8803   -6.3339 H   0  0  0  0  0  0  0  0  0  0  0  0
    3.7456    6.8671   -5.4231 H   0  0  0  0  0  0  0  0  0  0  0  0
    2.8887    3.7608   -7.0439 H   0  0  0  0  0  0  0  0  0  0  0  0
    2.5043    2.9159   -5.5387 H   0  0  0  0  0  0  0  0  0  0  0  0
    5.3226    3.3998   -6.6942 H   0  0  0  0  0  0  0  0  0  0  0  0
    4.4860    1.8474   -6.5965 H   0  0  0  0  0  0  0  0  0  0  0  0
    3.5217    1.4919   -3.9978 H   0  0  0  0  0  0  0  0  0  0  0  0
    4.9327    1.6108   -2.9458 H   0  0  0  0  0  0  0  0  0  0  0  0
    4.8391   -0.0383   -5.5487 H   0  0  0  0  0  0  0  0  0  0  0  0
    4.5524   -0.6789   -3.9365 H   0  0  0  0  0  0  0  0  0  0  0  0
    6.9193    1.6990   -4.7902 H   0  0  0  0  0  0  0  0  0  0  0  0
    9.1279   -1.2084   -4.0164 H   0  0  0  0  0  0  0  0  0  0  0  0
   11.6279   -1.0224   -3.9985 H   0  0  0  0  0  0  0  0  0  0  0  0
   14.6544    2.3383   -4.7622 H   0  0  0  0  0  0  0  0  0  0  0  0
    9.8989    4.4463   -5.4577 H   0  0  0  0  0  0  0  0  0  0  0  0
   13.4555    5.5380   -5.6093 H   0  0  0  0  0  0  0  0  0  0  0  0
   14.0218    7.8948   -6.1898 H   0  0  0  0  0  0  0  0  0  0  0  0
   12.2247    9.5576   -6.6771 H   0  0  0  0  0  0  0  0  0  0  0  0
    9.2633    6.4958   -6.0004 H   0  0  0  0  0  0  0  0  0  0  0  0
    8.8083    2.9371   -5.0747 H   0  0  0  0  0  0  0  0  0  0  0  0
    6.0128    4.5231   -4.5288 H   0  0  0  0  0  0  0  0  0  0  0  0
    5.6574    3.6866   -3.0076 H   0  0  0  0  0  0  0  0  0  0  0  0
    4.0349    5.5846   -3.4595 H   0  0  0  0  0  0  0  0  0  0  0  0
    3.2104    4.0212   -3.3532 H   0  0  0  0  0  0  0  0  0  0  0  0
  1  2  1  0
  1 31  1  0
  1 32  1  0
  1 33  1  0
  2  3  1  0
  2 30  1  0
  3  4  1  0
  3 34  1  0
  3 35  1  0
  4  5  1  0
  4 36  1  0
  4 37  1  0
  5  6  1  0
  5 29  1  0
  6  7  1  0
  6 38  1  0
  6 39  1  0
  7  8  1  0
  7 40  1  0
  7 41  1  0
  8  9  2  0
  8 10  1  0
 10 11  1  0
 10 42  1  0
 11 12  2  0
 11 28  1  0
 12 13  1  0
 12 43  1  0
 13 14  2  0
 13 44  1  0
 14 15  1  0
 14 27  1  0
 15 16  2  0
 16 17  1  0
 16 45  1  0
 17 18  2  0
 18 19  1  0
 18 27  1  0
 19 20  1  0
 19 46  1  0
 20 21  2  0
 20 26  1  0
 21 22  1  0
 21 47  1  0
 22 23  2  0
 22 48  1  0
 23 24  1  0
 23 49  1  0
 24 25  1  0
 24 26  2  0
 26 50  1  0
 27 28  2  0
 28 51  1  0
 29 30  1  0
 29 52  1  0
 29 53  1  0
 30 54  1  0
 30 55  1  0
M  END

