
     RDKit          3D

 39 41  0  0  0  0  0  0  0  0999 V2000
    1.8764   -0.8891    2.0741 N   0  0  0  0  0  0  0  0  0  0  0  0
    3.0404   -1.0659    1.3389 C   0  0  0  0  0  0  0  0  0  0  0  0
    4.0466   -0.1556    1.5045 N   0  0  0  0  0  0  0  0  0  0  0  0
    5.0788   -0.4536    0.7493 C   0  0  0  0  0  0  0  0  0  0  0  0
    6.2234    0.2784    0.7090 N   0  0  0  0  0  0  0  0  0  0  0  0
    6.4518    1.4764    1.4781 C   0  0  1  0  0  0  0  0  0  0  0  0
    7.7139    1.5776    2.3764 C   0  0  0  0  0  0  0  0  0  0  0  0
    7.8165    3.0723    1.9756 C   0  0  0  0  0  0  0  0  0  0  0  0
    6.9099    2.7707    0.7541 C   0  0  0  0  0  0  0  0  0  0  0  0
    4.8893   -1.8817   -0.2558 S   0  0  0  0  0  0  0  0  0  0  0  0
    3.2920   -2.1101    0.4592 C   0  0  0  0  0  0  0  0  0  0  0  0
    2.5108   -3.2838    0.0611 C   0  0  0  0  0  0  0  0  0  0  0  0
    2.7960   -3.9622   -0.9195 O   0  0  0  0  0  0  0  0  0  0  0  0
    1.4281   -3.5707    0.8731 N   0  0  0  0  0  0  0  0  0  0  0  0
    0.5517   -4.6882    0.6053 C   0  0  0  0  0  0  0  0  0  0  0  0
   -0.9330   -4.3571    0.8546 C   0  0  0  0  0  0  0  0  0  0  0  0
   -1.4668   -3.2157    0.0326 C   0  0  0  0  0  0  0  0  0  0  0  0
   -1.7767   -3.1869   -1.3058 C   0  0  0  0  0  0  0  0  0  0  0  0
   -2.2187   -1.9064   -1.7635 C   0  0  0  0  0  0  0  0  0  0  0  0
   -2.2425   -0.9647   -0.7683 C   0  0  0  0  0  0  0  0  0  0  0  0
   -1.7307   -1.6419    0.7423 S   0  0  0  0  0  0  0  0  0  0  0  0
    1.8564    0.0113    2.5440 H   0  0  0  0  0  0  0  0  0  0  0  0
    1.0130   -1.0791    1.5679 H   0  0  0  0  0  0  0  0  0  0  0  0
    6.9612   -0.0383    0.0914 H   0  0  0  0  0  0  0  0  0  0  0  0
    5.5383    1.6522    2.0612 H   0  0  0  0  0  0  0  0  0  0  0  0
    8.5462    0.9889    1.9560 H   0  0  0  0  0  0  0  0  0  0  0  0
    7.6059    1.3191    3.4410 H   0  0  0  0  0  0  0  0  0  0  0  0
    8.8199    3.4752    1.7746 H   0  0  0  0  0  0  0  0  0  0  0  0
    7.3176    3.7285    2.7054 H   0  0  0  0  0  0  0  0  0  0  0  0
    7.5068    2.5320   -0.1420 H   0  0  0  0  0  0  0  0  0  0  0  0
    6.1358    3.5014    0.4733 H   0  0  0  0  0  0  0  0  0  0  0  0
    1.4087   -3.1482    1.7964 H   0  0  0  0  0  0  0  0  0  0  0  0
    0.8201   -5.5705    1.2191 H   0  0  0  0  0  0  0  0  0  0  0  0
    0.7195   -4.9720   -0.4432 H   0  0  0  0  0  0  0  0  0  0  0  0
   -1.0874   -4.1475    1.9272 H   0  0  0  0  0  0  0  0  0  0  0  0
   -1.5214   -5.2655    0.6398 H   0  0  0  0  0  0  0  0  0  0  0  0
   -1.6879   -4.0627   -1.9520 H   0  0  0  0  0  0  0  0  0  0  0  0
   -2.5115   -1.6965   -2.7936 H   0  0  0  0  0  0  0  0  0  0  0  0
   -2.5433    0.0801   -0.8306 H   0  0  0  0  0  0  0  0  0  0  0  0
  1  2  1  0
  1 22  1  0
  1 23  1  0
  2  3  2  0
  2 11  1  0
  3  4  1  0
  4  5  1  0
  4 10  2  0
  5  6  1  0
  5 24  1  0
  6  7  1  0
  6  9  1  0
  6 25  1  1
  7  8  1  0
  7 26  1  0
  7 27  1  0
  8  9  1  0
  8 28  1  0
  8 29  1  0
  9 30  1  0
  9 31  1  0
 10 11  1  0
 11 12  2  0
 12 13  1  0
 12 14  1  0
 14 15  1  0
 14 32  1  0
 15 16  1  0
 15 33  1  0
 15 34  1  0
 16 17  1  0
 16 35  1  0
 16 36  1  0
 17 18  2  0
 17 21  1  0
 18 19  1  0
 18 37  1  0
 19 20  2  0
 19 38  1  0
 20 21  1  0
 20 39  1  0
M  CHG  2  10   1  13  -1
M  END

