
     RDKit          3D

 50 54  0  0  0  0  0  0  0  0999 V2000
    1.5886   -0.6502   -0.5476 O   0  0  0  0  0  0  0  0  0  0  0  0
    2.1207    0.2901    0.0305 C   0  0  0  0  0  0  0  0  0  0  0  0
    2.0016    0.4823    1.3919 N   0  0  0  0  0  0  0  0  0  0  0  0
    1.2141   -0.3924    2.2577 C   0  0  2  0  0  0  0  0  0  0  0  0
    1.7151   -1.8445    2.2863 C   0  0  0  0  0  0  0  0  0  0  0  0
    1.0521   -2.5850    3.3019 O   0  0  0  0  0  0  0  0  0  0  0  0
   -0.3076   -2.4834    3.3612 C   0  0  0  0  0  0  0  0  0  0  0  0
   -0.9818   -3.4515    4.1209 C   0  0  0  0  0  0  0  0  0  0  0  0
   -2.3678   -3.3987    4.2486 C   0  0  0  0  0  0  0  0  0  0  0  0
   -3.0925   -2.3799    3.6177 C   0  0  0  0  0  0  0  0  0  0  0  0
   -2.4129   -1.4176    2.8702 C   0  0  0  0  0  0  0  0  0  0  0  0
   -1.0172   -1.4447    2.7274 C   0  0  0  0  0  0  0  0  0  0  0  0
   -0.2828   -0.3906    1.9242 C   0  0  0  0  0  0  0  0  0  0  0  0
    2.8668    1.2394   -0.6570 N   0  0  0  0  0  0  0  0  0  0  0  0
    3.2611    0.9517   -2.0310 C   0  0  0  0  0  0  0  0  0  0  0  0
    2.9473    2.1269   -2.9542 C   0  0  0  0  0  0  0  0  0  0  0  0
    3.5109    3.3526   -2.3978 N   0  0  0  0  0  0  0  0  0  0  0  0
    4.0508    4.3338   -3.1648 C   0  0  0  0  0  0  0  0  0  0  0  0
    4.4002    5.5301   -2.7880 N   0  0  0  0  0  0  0  0  0  0  0  0
    4.9357    6.1045   -3.9356 C   0  0  0  0  0  0  0  0  0  0  0  0
    5.4848    7.3680   -4.1776 C   0  0  0  0  0  0  0  0  0  0  0  0
    5.9391    7.6421   -5.4736 C   0  0  0  0  0  0  0  0  0  0  0  0
    5.8523    6.6917   -6.5052 C   0  0  0  0  0  0  0  0  0  0  0  0
    5.3033    5.4199   -6.2782 C   0  0  0  0  0  0  0  0  0  0  0  0
    4.8631    5.1742   -4.9886 C   0  0  0  0  0  0  0  0  0  0  0  0
    4.2855    4.0301   -4.4785 O   0  0  0  0  0  0  0  0  0  0  0  0
    3.1136    3.6580   -1.0322 C   0  0  0  0  0  0  0  0  0  0  0  0
    3.4130    2.4717   -0.1088 C   0  0  0  0  0  0  0  0  0  0  0  0
    2.6830    1.0660    1.8563 H   0  0  0  0  0  0  0  0  0  0  0  0
    1.3440    0.0064    3.2778 H   0  0  0  0  0  0  0  0  0  0  0  0
    2.7871   -1.8836    2.5304 H   0  0  0  0  0  0  0  0  0  0  0  0
    1.5596   -2.3110    1.2995 H   0  0  0  0  0  0  0  0  0  0  0  0
   -0.3909   -4.2355    4.5991 H   0  0  0  0  0  0  0  0  0  0  0  0
   -2.8857   -4.1577    4.8407 H   0  0  0  0  0  0  0  0  0  0  0  0
   -4.1799   -2.3341    3.7125 H   0  0  0  0  0  0  0  0  0  0  0  0
   -2.9728   -0.6132    2.3832 H   0  0  0  0  0  0  0  0  0  0  0  0
   -0.7110    0.6063    2.1194 H   0  0  0  0  0  0  0  0  0  0  0  0
   -0.3958   -0.5870    0.8459 H   0  0  0  0  0  0  0  0  0  0  0  0
    2.7204    0.0533   -2.3518 H   0  0  0  0  0  0  0  0  0  0  0  0
    4.3486    0.7447   -2.0708 H   0  0  0  0  0  0  0  0  0  0  0  0
    1.8496    2.2306   -3.0627 H   0  0  0  0  0  0  0  0  0  0  0  0
    3.3734    1.9515   -3.9493 H   0  0  0  0  0  0  0  0  0  0  0  0
    5.5523    8.1077   -3.3778 H   0  0  0  0  0  0  0  0  0  0  0  0
    6.3729    8.6216   -5.6906 H   0  0  0  0  0  0  0  0  0  0  0  0
    6.2181    6.9448   -7.5030 H   0  0  0  0  0  0  0  0  0  0  0  0
    5.2280    4.6701   -7.0676 H   0  0  0  0  0  0  0  0  0  0  0  0
    2.0286    3.8800   -0.9964 H   0  0  0  0  0  0  0  0  0  0  0  0
    3.6555    4.5549   -0.7058 H   0  0  0  0  0  0  0  0  0  0  0  0
    2.9569    2.6880    0.8660 H   0  0  0  0  0  0  0  0  0  0  0  0
    4.5089    2.3858    0.0325 H   0  0  0  0  0  0  0  0  0  0  0  0
  1  2  2  0
  2  3  1  0
  2 14  1  0
  3  4  1  0
  3 29  1  0
  4  5  1  0
  4 13  1  0
  4 30  1  1
  5  6  1  0
  5 31  1  0
  5 32  1  0
  6  7  1  0
  7  8  2  0
  7 12  1  0
  8  9  1  0
  8 33  1  0
  9 10  2  0
  9 34  1  0
 10 11  1  0
 10 35  1  0
 11 12  2  0
 11 36  1  0
 12 13  1  0
 13 37  1  0
 13 38  1  0
 14 15  1  0
 14 28  1  0
 15 16  1  0
 15 39  1  0
 15 40  1  0
 16 17  1  0
 16 41  1  0
 16 42  1  0
 17 18  1  0
 17 27  1  0
 18 19  2  0
 18 26  1  0
 19 20  1  0
 20 21  2  0
 20 25  1  0
 21 22  1  0
 21 43  1  0
 22 23  2  0
 22 44  1  0
 23 24  1  0
 23 45  1  0
 24 25  2  0
 24 46  1  0
 25 26  1  0
 27 28  1  0
 27 47  1  0
 27 48  1  0
 28 49  1  0
 28 50  1  0
M  END

