
     RDKit          3D

 34 34  0  0  0  0  0  0  0  0999 V2000
    2.8907   -0.6604    1.4345 C   0  0  0  0  0  0  0  0  0  0  0  0
    2.5514   -0.0608    0.0565 C   0  0  1  0  0  0  0  0  0  0  0  0
    3.1480   -0.9480   -1.0528 C   0  0  0  0  0  0  0  0  0  0  0  0
    1.0190   -0.0238   -0.1054 C   0  0  0  0  0  0  0  0  0  0  0  0
    3.0729    1.3970   -0.0578 C   0  0  0  0  0  0  0  0  0  0  0  0
    4.5965    1.6063    0.0408 C   0  0  0  0  0  0  0  0  0  0  0  0
    5.0052    3.0625   -0.0036 C   0  0  0  0  0  0  0  0  0  0  0  0
    5.5135    3.6150   -1.1198 C   0  0  0  0  0  0  0  0  0  0  0  0
    5.9267    5.0533   -1.2312 C   0  0  2  0  0  0  0  0  0  0  0  0
    7.5111    5.1688   -2.1606 Cl  0  0  0  0  0  0  0  0  0  0  0  0
    6.0749    5.7384    0.1251 C   0  0  0  0  0  0  0  0  0  0  0  0
    4.8865    5.3848    1.0250 C   0  0  0  0  0  0  0  0  0  0  0  0
    4.8138    3.8722    1.2627 C   0  0  0  0  0  0  0  0  0  0  0  0
    2.4576   -1.6688    1.5379 H   0  0  0  0  0  0  0  0  0  0  0  0
    2.4865   -0.0393    2.2513 H   0  0  0  0  0  0  0  0  0  0  0  0
    3.9772   -0.7553    1.5891 H   0  0  0  0  0  0  0  0  0  0  0  0
    2.7122   -1.9601   -1.0189 H   0  0  0  0  0  0  0  0  0  0  0  0
    4.2391   -1.0587   -0.9517 H   0  0  0  0  0  0  0  0  0  0  0  0
    2.9426   -0.5301   -2.0525 H   0  0  0  0  0  0  0  0  0  0  0  0
    0.5872   -1.0353   -0.0295 H   0  0  0  0  0  0  0  0  0  0  0  0
    0.7306    0.3914   -1.0851 H   0  0  0  0  0  0  0  0  0  0  0  0
    0.5496    0.5999    0.6735 H   0  0  0  0  0  0  0  0  0  0  0  0
    2.5726    1.9971    0.7230 H   0  0  0  0  0  0  0  0  0  0  0  0
    2.7318    1.8148   -1.0215 H   0  0  0  0  0  0  0  0  0  0  0  0
    5.0985    1.0679   -0.7779 H   0  0  0  0  0  0  0  0  0  0  0  0
    4.9696    1.1672    0.9833 H   0  0  0  0  0  0  0  0  0  0  0  0
    5.6310    3.0090   -2.0241 H   0  0  0  0  0  0  0  0  0  0  0  0
    5.2218    5.6062   -1.8726 H   0  0  0  0  0  0  0  0  0  0  0  0
    6.1723    6.8263   -0.0121 H   0  0  0  0  0  0  0  0  0  0  0  0
    7.0107    5.3864    0.5906 H   0  0  0  0  0  0  0  0  0  0  0  0
    3.9493    5.7265    0.5500 H   0  0  0  0  0  0  0  0  0  0  0  0
    4.9638    5.9218    1.9843 H   0  0  0  0  0  0  0  0  0  0  0  0
    3.8526    3.6051    1.7346 H   0  0  0  0  0  0  0  0  0  0  0  0
    5.5889    3.5649    1.9918 H   0  0  0  0  0  0  0  0  0  0  0  0
  2  1  1  1
  1 14  1  0
  1 15  1  0
  1 16  1  0
  2  3  1  0
  2  4  1  0
  2  5  1  0
  3 17  1  0
  3 18  1  0
  3 19  1  0
  4 20  1  0
  4 21  1  0
  4 22  1  0
  5  6  1  0
  5 23  1  0
  5 24  1  0
  6  7  1  0
  6 25  1  0
  6 26  1  0
  7  8  2  0
  7 13  1  0
  8  9  1  0
  8 27  1  0
  9 10  1  0
  9 11  1  0
  9 28  1  6
 11 12  1  0
 11 29  1  0
 11 30  1  0
 12 13  1  0
 12 31  1  0
 12 32  1  0
 13 33  1  0
 13 34  1  0
M  END

