
     RDKit          3D

 47 50  0  0  0  0  0  0  0  0999 V2000
    0.7799   -0.4311   -1.0608 N   0  0  0  0  0  0  0  0  0  0  0  0
    1.9392   -0.4077   -1.1333 C   0  0  0  0  0  0  0  0  0  0  0  0
    3.3707   -0.3811   -1.2227 C   0  0  0  0  0  0  0  0  0  0  0  0
    4.0491    0.8282   -1.4639 C   0  0  0  0  0  0  0  0  0  0  0  0
    5.4370    0.8423   -1.5481 C   0  0  0  0  0  0  0  0  0  0  0  0
    6.2004   -0.3364   -1.3975 C   0  0  0  0  0  0  0  0  0  0  0  0
    7.6554   -0.2546   -1.4973 C   0  0  0  0  0  0  0  0  0  0  0  0
    8.5480   -1.2724   -1.3896 C   0  0  0  0  0  0  0  0  0  0  0  0
    9.9755   -1.1054   -1.5009 C   0  0  0  0  0  0  0  0  0  0  0  0
   10.8635   -2.1274   -1.3921 C   0  0  0  0  0  0  0  0  0  0  0  0
   12.3180   -2.0575   -1.4894 C   0  0  0  0  0  0  0  0  0  0  0  0
   13.0228   -0.8379   -1.7286 C   0  0  0  0  0  0  0  0  0  0  0  0
   14.3939   -0.8107   -1.8136 C   0  0  0  0  0  0  0  0  0  0  0  0
   15.1638   -1.9987   -1.6666 C   0  0  0  0  0  0  0  0  0  0  0  0
   16.5206   -1.9262   -1.7584 N   0  0  0  0  0  0  0  0  0  0  0  0
   17.1688   -3.0577   -1.6143 C   0  0  0  0  0  0  0  0  0  0  0  0
   16.6503   -4.2824   -1.3855 N   0  0  0  0  0  0  0  0  0  0  0  0
   15.3345   -4.3958   -1.2892 C   0  0  0  0  0  0  0  0  0  0  0  0
   14.7618   -5.6153   -1.0576 N   0  0  0  0  0  0  0  0  0  0  0  0
   15.3128   -6.8994   -0.8838 C   0  0  0  0  0  0  0  0  0  0  0  0
   16.6892   -7.1883   -0.9152 C   0  0  0  0  0  0  0  0  0  0  0  0
   17.1202   -8.5046   -0.7292 C   0  0  0  0  0  0  0  0  0  0  0  0
   16.2134   -9.5449   -0.5118 C   0  0  0  0  0  0  0  0  0  0  0  0
   14.8451   -9.2569   -0.4803 C   0  0  0  0  0  0  0  0  0  0  0  0
   14.3990   -7.9501   -0.6640 C   0  0  0  0  0  0  0  0  0  0  0  0
   14.4791   -3.2280   -1.4273 C   0  0  0  0  0  0  0  0  0  0  0  0
   13.0688   -3.2261   -1.3446 C   0  0  0  0  0  0  0  0  0  0  0  0
    5.5025   -1.5419   -1.1555 C   0  0  0  0  0  0  0  0  0  0  0  0
    4.1172   -1.5680   -1.0693 C   0  0  0  0  0  0  0  0  0  0  0  0
    3.4798    1.7519   -1.5839 H   0  0  0  0  0  0  0  0  0  0  0  0
    5.9518    1.7880   -1.7360 H   0  0  0  0  0  0  0  0  0  0  0  0
    8.0525    0.7503   -1.6807 H   0  0  0  0  0  0  0  0  0  0  0  0
    8.1920   -2.2926   -1.2076 H   0  0  0  0  0  0  0  0  0  0  0  0
   10.3336   -0.0865   -1.6830 H   0  0  0  0  0  0  0  0  0  0  0  0
   10.4574   -3.1295   -1.2091 H   0  0  0  0  0  0  0  0  0  0  0  0
   12.4638    0.0924   -1.8465 H   0  0  0  0  0  0  0  0  0  0  0  0
   14.9392    0.1171   -1.9961 H   0  0  0  0  0  0  0  0  0  0  0  0
   18.2633   -3.0188   -1.6843 H   0  0  0  0  0  0  0  0  0  0  0  0
   13.7524   -5.6053   -1.0013 H   0  0  0  0  0  0  0  0  0  0  0  0
   17.3957   -6.3806   -1.0841 H   0  0  0  0  0  0  0  0  0  0  0  0
   18.1928   -8.7145   -0.7562 H   0  0  0  0  0  0  0  0  0  0  0  0
   16.5668  -10.5685   -0.3682 H   0  0  0  0  0  0  0  0  0  0  0  0
   14.1167  -10.0540   -0.3117 H   0  0  0  0  0  0  0  0  0  0  0  0
   13.3256   -7.7358   -0.6373 H   0  0  0  0  0  0  0  0  0  0  0  0
   12.5192   -4.1541   -1.1614 H   0  0  0  0  0  0  0  0  0  0  0  0
    6.0531   -2.4762   -1.0318 H   0  0  0  0  0  0  0  0  0  0  0  0
    3.5964   -2.5090   -0.8817 H   0  0  0  0  0  0  0  0  0  0  0  0
  1  2  3  0
  2  3  1  0
  3  4  2  0
  3 29  1  0
  4  5  1  0
  4 30  1  0
  5  6  2  0
  5 31  1  0
  6  7  1  0
  6 28  1  0
  7  8  2  0
  7 32  1  0
  8  9  1  0
  8 33  1  0
  9 10  2  0
  9 34  1  0
 10 11  1  0
 10 35  1  0
 11 12  2  0
 11 27  1  0
 12 13  1  0
 12 36  1  0
 13 14  2  0
 13 37  1  0
 14 15  1  0
 14 26  1  0
 15 16  2  0
 16 17  1  0
 16 38  1  0
 17 18  2  0
 18 19  1  0
 18 26  1  0
 19 20  1  0
 19 39  1  0
 20 21  2  0
 20 25  1  0
 21 22  1  0
 21 40  1  0
 22 23  2  0
 22 41  1  0
 23 24  1  0
 23 42  1  0
 24 25  2  0
 24 43  1  0
 25 44  1  0
 26 27  2  0
 27 45  1  0
 28 29  2  0
 28 46  1  0
 29 47  1  0
M  END

