
     RDKit          3D

 46 48  0  0  0  0  0  0  0  0999 V2000
    0.5494    1.8218    2.1333 C   0  0  0  0  0  0  0  0  0  0  0  0
    2.0334    1.7142    2.4929 C   0  0  1  0  0  0  0  0  0  0  0  0
    2.4074    2.7075    2.7769 H   0  0  0  0  0  0  0  0  0  0  0  0
    2.2515    0.9046    3.6478 O   0  0  0  0  0  0  0  0  0  0  0  0
    2.0652   -0.4820    3.4506 C   0  0  0  0  0  0  0  0  0  0  0  0
    3.0021   -0.9945    2.3620 C   0  0  0  0  0  0  0  0  0  0  0  0
    2.8803   -0.2321    1.1130 N   0  0  0  0  0  0  0  0  0  0  0  0
    2.9029    1.2223    1.3126 C   0  0  2  0  0  0  0  0  0  0  0  0
    2.5140    1.6866    0.3892 H   0  0  0  0  0  0  0  0  0  0  0  0
    4.3535    1.7605    1.4252 C   0  0  0  0  0  0  0  0  0  0  0  0
    4.5858    2.8604    1.8980 O   0  0  0  0  0  0  0  0  0  0  0  0
    5.2760    0.9130    0.8851 N   0  0  0  0  0  0  0  0  0  0  0  0
    6.6629    1.0875    0.7347 C   0  0  0  0  0  0  0  0  0  0  0  0
    7.3531    2.2278    1.1686 C   0  0  0  0  0  0  0  0  0  0  0  0
    8.7384    2.3239    0.9860 C   0  0  0  0  0  0  0  0  0  0  0  0
    9.4730    1.3037    0.3695 C   0  0  0  0  0  0  0  0  0  0  0  0
   10.8072    1.2956    0.1311 O   0  0  0  0  0  0  0  0  0  0  0  0
   11.6164    2.4098    0.4781 C   0  0  1  0  0  0  0  0  0  0  0  0
   12.0453    2.4654    1.9522 C   0  0  0  0  0  0  0  0  0  0  0  0
   13.2512    3.4140    1.9169 C   0  0  0  0  0  0  0  0  0  0  0  0
   13.9763    3.0923    0.5802 C   0  0  0  0  0  0  0  0  0  0  0  0
   12.9480    2.3163   -0.2828 C   0  0  0  0  0  0  0  0  0  0  0  0
    8.7580    0.1666   -0.0575 C   0  0  0  0  0  0  0  0  0  0  0  0
    9.4294   -0.8291   -0.6515 F   0  0  0  0  0  0  0  0  0  0  0  0
    7.3894    0.0510    0.1165 C   0  0  0  0  0  0  0  0  0  0  0  0
   -0.0349    2.0726    3.0313 H   0  0  0  0  0  0  0  0  0  0  0  0
    0.1412    0.8885    1.7117 H   0  0  0  0  0  0  0  0  0  0  0  0
    0.3942    2.6181    1.3882 H   0  0  0  0  0  0  0  0  0  0  0  0
    1.0122   -0.7170    3.1904 H   0  0  0  0  0  0  0  0  0  0  0  0
    2.2810   -0.9686    4.4151 H   0  0  0  0  0  0  0  0  0  0  0  0
    2.8188   -2.0602    2.1489 H   0  0  0  0  0  0  0  0  0  0  0  0
    4.0421   -0.9067    2.7214 H   0  0  0  0  0  0  0  0  0  0  0  0
    2.0436   -0.5094    0.6034 H   0  0  0  0  0  0  0  0  0  0  0  0
    4.8566    0.0509    0.5353 H   0  0  0  0  0  0  0  0  0  0  0  0
    6.8022    3.0319    1.6507 H   0  0  0  0  0  0  0  0  0  0  0  0
    9.2457    3.2203    1.3427 H   0  0  0  0  0  0  0  0  0  0  0  0
   11.0911    3.3443    0.2048 H   0  0  0  0  0  0  0  0  0  0  0  0
   12.3497    1.4484    2.2544 H   0  0  0  0  0  0  0  0  0  0  0  0
   11.2487    2.7909    2.6380 H   0  0  0  0  0  0  0  0  0  0  0  0
   13.9036    3.3044    2.7964 H   0  0  0  0  0  0  0  0  0  0  0  0
   12.8989    4.4593    1.9144 H   0  0  0  0  0  0  0  0  0  0  0  0
   14.8741    2.4796    0.7551 H   0  0  0  0  0  0  0  0  0  0  0  0
   14.3215    4.0121    0.0838 H   0  0  0  0  0  0  0  0  0  0  0  0
   13.2089    1.2486   -0.3517 H   0  0  0  0  0  0  0  0  0  0  0  0
   12.8632    2.6942   -1.3124 H   0  0  0  0  0  0  0  0  0  0  0  0
    6.8984   -0.8578   -0.2393 H   0  0  0  0  0  0  0  0  0  0  0  0
  1  2  1  0
  1 26  1  0
  1 27  1  0
  1 28  1  0
  2  3  1  1
  2  4  1  0
  2  8  1  0
  4  5  1  0
  5  6  1  0
  5 29  1  0
  5 30  1  0
  6  7  1  0
  6 31  1  0
  6 32  1  0
  7  8  1  0
  7 33  1  0
  8  9  1  6
  8 10  1  0
 10 11  2  0
 10 12  1  0
 12 13  1  0
 12 34  1  0
 13 14  2  0
 13 25  1  0
 14 15  1  0
 14 35  1  0
 15 16  2  0
 15 36  1  0
 16 17  1  0
 16 23  1  0
 17 18  1  0
 18 19  1  0
 18 22  1  0
 18 37  1  6
 19 20  1  0
 19 38  1  0
 19 39  1  0
 20 21  1  0
 20 40  1  0
 20 41  1  0
 21 22  1  0
 21 42  1  0
 21 43  1  0
 22 44  1  0
 22 45  1  0
 23 24  1  0
 23 25  2  0
 25 46  1  0
M  END

