
     RDKit          3D

 44 45  0  0  0  0  0  0  0  0999 V2000
    1.0070   -2.4285    0.8502 C   0  0  0  0  0  0  0  0  0  0  0  0
    2.1403   -1.9439    1.5209 O   0  0  0  0  0  0  0  0  0  0  0  0
    3.0606   -1.2687    0.6911 C   0  0  0  0  0  0  0  0  0  0  0  0
    4.2487   -0.8588    1.5442 C   0  0  0  0  0  0  0  0  0  0  0  0
    4.8587   -2.0119    2.1702 N   0  0  0  0  0  0  0  0  0  0  0  0
    6.2114   -2.2068    2.2127 C   0  0  0  0  0  0  0  0  0  0  0  0
    7.0039   -1.4020    1.7376 O   0  0  0  0  0  0  0  0  0  0  0  0
    6.6848   -3.4610    2.8811 C   0  0  0  0  0  0  0  0  0  0  0  0
    8.0527   -3.5837    3.1846 C   0  0  0  0  0  0  0  0  0  0  0  0
    8.5420   -4.7240    3.7959 C   0  0  0  0  0  0  0  0  0  0  0  0
    7.6426   -5.7875    4.0974 C   0  0  0  0  0  0  0  0  0  0  0  0
    8.0409   -6.9740    4.6866 N   0  0  0  0  0  0  0  0  0  0  0  0
    7.0312   -7.8969    5.2090 C   0  0  0  0  0  0  0  0  0  0  0  0
    7.2398   -9.3332    4.7433 C   0  0  0  0  0  0  0  0  0  0  0  0
    8.8631   -9.9997    5.2613 S   0  0  0  0  0  0  0  0  0  0  0  0
    9.8741   -8.6421    4.5360 C   0  0  2  0  0  0  0  0  0  0  0  0
   11.3522   -8.9477    4.7730 C   0  0  0  0  0  0  0  0  0  0  0  0
    9.4439   -7.2394    5.0365 C   0  0  2  0  0  0  0  0  0  0  0  0
    9.7360   -6.9690    6.5198 C   0  0  0  0  0  0  0  0  0  0  0  0
    6.3352   -5.6650    3.8000 N   0  0  0  0  0  0  0  0  0  0  0  0
    5.8844   -4.5581    3.2209 C   0  0  0  0  0  0  0  0  0  0  0  0
    0.3684   -2.9356    1.5883 H   0  0  0  0  0  0  0  0  0  0  0  0
    1.2733   -3.1538    0.0548 H   0  0  0  0  0  0  0  0  0  0  0  0
    0.4225   -1.6107    0.3822 H   0  0  0  0  0  0  0  0  0  0  0  0
    2.5951   -0.3701    0.2352 H   0  0  0  0  0  0  0  0  0  0  0  0
    3.3937   -1.9294   -0.1360 H   0  0  0  0  0  0  0  0  0  0  0  0
    3.9080   -0.1320    2.3055 H   0  0  0  0  0  0  0  0  0  0  0  0
    5.0170   -0.3642    0.9338 H   0  0  0  0  0  0  0  0  0  0  0  0
    4.2297   -2.6489    2.6425 H   0  0  0  0  0  0  0  0  0  0  0  0
    8.7140   -2.7521    2.9318 H   0  0  0  0  0  0  0  0  0  0  0  0
    9.6000   -4.7758    4.0459 H   0  0  0  0  0  0  0  0  0  0  0  0
    6.0585   -7.5293    4.8613 H   0  0  0  0  0  0  0  0  0  0  0  0
    7.0305   -7.8705    6.3145 H   0  0  0  0  0  0  0  0  0  0  0  0
    7.1489   -9.4035    3.6467 H   0  0  0  0  0  0  0  0  0  0  0  0
    6.4785   -9.9893    5.1919 H   0  0  0  0  0  0  0  0  0  0  0  0
    9.6784   -8.6574    3.4504 H   0  0  0  0  0  0  0  0  0  0  0  0
   11.5846   -9.0485    5.8442 H   0  0  0  0  0  0  0  0  0  0  0  0
   11.9852   -8.1447    4.3600 H   0  0  0  0  0  0  0  0  0  0  0  0
   11.6341   -9.8895    4.2787 H   0  0  0  0  0  0  0  0  0  0  0  0
   10.0552   -6.5486    4.4409 H   0  0  0  0  0  0  0  0  0  0  0  0
    9.2658   -7.7234    7.1676 H   0  0  0  0  0  0  0  0  0  0  0  0
    9.3575   -5.9755    6.8047 H   0  0  0  0  0  0  0  0  0  0  0  0
   10.8182   -6.9851    6.7181 H   0  0  0  0  0  0  0  0  0  0  0  0
    4.8101   -4.5616    2.9948 H   0  0  0  0  0  0  0  0  0  0  0  0
  1  2  1  0
  1 22  1  0
  1 23  1  0
  1 24  1  0
  2  3  1  0
  3  4  1  0
  3 25  1  0
  3 26  1  0
  4  5  1  0
  4 27  1  0
  4 28  1  0
  5  6  1  0
  5 29  1  0
  6  7  2  0
  6  8  1  0
  8  9  2  0
  8 21  1  0
  9 10  1  0
  9 30  1  0
 10 11  2  0
 10 31  1  0
 11 12  1  0
 11 20  1  0
 12 13  1  0
 12 18  1  0
 13 14  1  0
 13 32  1  0
 13 33  1  0
 14 15  1  0
 14 34  1  0
 14 35  1  0
 15 16  1  0
 16 17  1  0
 16 18  1  0
 16 36  1  6
 17 37  1  0
 17 38  1  0
 17 39  1  0
 18 19  1  0
 18 40  1  6
 19 41  1  0
 19 42  1  0
 19 43  1  0
 20 21  2  0
 21 44  1  0
M  END

