
     RDKit          3D

 68 72  0  0  0  0  0  0  0  0999 V2000
    7.4822   -2.7184    1.5486 N   0  0  0  0  0  0  0  0  0  0  0  0
    6.6794   -3.0495    2.3153 C   0  0  0  0  0  0  0  0  0  0  0  0
    5.6879   -3.4982    3.3190 C   0  0  2  0  0  0  0  0  0  0  0  0
    5.1769   -2.6000    3.6975 H   0  0  0  0  0  0  0  0  0  0  0  0
    6.3358   -4.3527    4.4293 C   0  0  0  0  0  0  0  0  0  0  0  0
    6.3069   -5.7651    3.8295 C   0  0  0  0  0  0  0  0  0  0  0  0
    4.9641   -5.8170    3.0822 C   0  0  0  0  0  0  0  0  0  0  0  0
    4.6997   -4.4127    2.7392 N   0  0  0  0  0  0  0  0  0  0  0  0
    3.5731   -3.9070    2.1454 C   0  0  0  0  0  0  0  0  0  0  0  0
    3.3999   -2.7050    2.0202 O   0  0  0  0  0  0  0  0  0  0  0  0
    2.5210   -4.9204    1.6969 C   0  0  0  0  0  0  0  0  0  0  0  0
    1.5855   -4.2944    0.7994 N   0  0  0  0  0  0  0  0  0  0  0  0
    0.2672   -4.9066    0.7223 C   0  0  1  0  0  0  0  0  0  0  0  0
   -3.0250   -6.9023    0.4489 C   0  0  0  0  0  0  0  0  0  0  0  0
   -2.0936   -6.1292   -0.1256 C   0  0  0  0  0  0  0  0  0  0  0  0
   -2.1293   -4.6188    0.0325 C   0  0  0  0  0  0  0  0  0  0  0  0
   -0.7298   -3.9576    0.0250 C   0  0  2  0  0  0  0  0  0  0  0  0
   -0.2864   -3.5060   -1.3787 C   0  0  0  0  0  0  0  0  0  0  0  0
    0.1660   -4.6445   -2.2960 C   0  0  0  0  0  0  0  0  0  0  0  0
   -0.6999   -5.9102   -2.2693 C   0  0  0  0  0  0  0  0  0  0  0  0
   -0.8612   -6.6505   -0.8784 C   0  0  2  0  0  0  0  0  0  0  0  0
   -0.9574   -8.1531   -1.1874 C   0  0  0  0  0  0  0  0  0  0  0  0
   -0.0212   -9.1015   -0.7601 C   0  0  0  0  0  0  0  0  0  0  0  0
   -0.1237  -10.4552   -1.1058 C   0  0  0  0  0  0  0  0  0  0  0  0
   -1.1729  -10.9061   -1.9173 C   0  0  0  0  0  0  0  0  0  0  0  0
   -1.2809  -12.2603   -2.2962 N   0  0  0  0  0  0  0  0  0  0  0  0
   -0.2396  -13.2430   -2.0320 C   0  0  0  0  0  0  0  0  0  0  0  0
   -0.7191  -14.5495   -2.6788 C   0  0  0  0  0  0  0  0  0  0  0  0
   -2.1961  -14.6697   -2.3217 C   0  0  0  0  0  0  0  0  0  0  0  0
   -2.8457  -12.9753   -2.4890 S   0  0  1  0  0  0  0  0  0  0  0  0
   -3.7120  -12.6265   -1.3629 O   0  0  0  0  0  0  0  0  0  0  0  0
   -3.3155  -12.7464   -3.8564 O   0  0  0  0  0  0  0  0  0  0  0  0
   -2.1096   -9.9608   -2.3811 C   0  0  0  0  0  0  0  0  0  0  0  0
   -2.0001   -8.6263   -2.0109 C   0  0  0  0  0  0  0  0  0  0  0  0
    0.3379   -6.3160    0.0565 C   0  0  0  0  0  0  0  0  0  0  0  0
    5.7001   -4.2950    5.3273 H   0  0  0  0  0  0  0  0  0  0  0  0
    7.3429   -4.0068    4.6992 H   0  0  0  0  0  0  0  0  0  0  0  0
    6.3944   -6.5585    4.5856 H   0  0  0  0  0  0  0  0  0  0  0  0
    7.1402   -5.8873    3.1194 H   0  0  0  0  0  0  0  0  0  0  0  0
    4.1602   -6.2148    3.7274 H   0  0  0  0  0  0  0  0  0  0  0  0
    5.0138   -6.4526    2.1839 H   0  0  0  0  0  0  0  0  0  0  0  0
    2.0449   -5.3125    2.6313 H   0  0  0  0  0  0  0  0  0  0  0  0
    3.0126   -5.7930    1.2317 H   0  0  0  0  0  0  0  0  0  0  0  0
    1.5290   -3.3044    1.0414 H   0  0  0  0  0  0  0  0  0  0  0  0
   -3.0290   -7.9894    0.3564 H   0  0  0  0  0  0  0  0  0  0  0  0
   -3.8327   -6.4540    1.0363 H   0  0  0  0  0  0  0  0  0  0  0  0
   -0.1439   -5.0681    1.7466 H   0  0  0  0  0  0  0  0  0  0  0  0
   -2.6549   -4.3774    0.9698 H   0  0  0  0  0  0  0  0  0  0  0  0
   -2.7365   -4.1746   -0.7760 H   0  0  0  0  0  0  0  0  0  0  0  0
   -0.7972   -3.0466    0.6457 H   0  0  0  0  0  0  0  0  0  0  0  0
    0.5392   -2.7822   -1.2878 H   0  0  0  0  0  0  0  0  0  0  0  0
   -1.1274   -2.9557   -1.8371 H   0  0  0  0  0  0  0  0  0  0  0  0
    1.2019   -4.9106   -2.0347 H   0  0  0  0  0  0  0  0  0  0  0  0
    0.2086   -4.2795   -3.3367 H   0  0  0  0  0  0  0  0  0  0  0  0
   -0.2494   -6.6271   -2.9727 H   0  0  0  0  0  0  0  0  0  0  0  0
   -1.7039   -5.6921   -2.6717 H   0  0  0  0  0  0  0  0  0  0  0  0
    0.8223   -8.8047   -0.1366 H   0  0  0  0  0  0  0  0  0  0  0  0
    0.6285  -11.1509   -0.7313 H   0  0  0  0  0  0  0  0  0  0  0  0
   -0.0727  -13.3887   -0.9452 H   0  0  0  0  0  0  0  0  0  0  0  0
    0.7104  -12.9007   -2.4722 H   0  0  0  0  0  0  0  0  0  0  0  0
   -0.1426  -15.4132   -2.3157 H   0  0  0  0  0  0  0  0  0  0  0  0
   -0.6018  -14.4915   -3.7719 H   0  0  0  0  0  0  0  0  0  0  0  0
   -2.3637  -14.9492   -1.2715 H   0  0  0  0  0  0  0  0  0  0  0  0
   -2.7924  -15.3078   -2.9869 H   0  0  0  0  0  0  0  0  0  0  0  0
   -2.9193  -10.2761   -3.0408 H   0  0  0  0  0  0  0  0  0  0  0  0
   -2.7514   -7.9261   -2.3817 H   0  0  0  0  0  0  0  0  0  0  0  0
    1.2823   -6.4041   -0.5021 H   0  0  0  0  0  0  0  0  0  0  0  0
    0.3665   -7.0670    0.8590 H   0  0  0  0  0  0  0  0  0  0  0  0
  1  2  3  0
  2  3  1  0
  3  4  1  1
  3  5  1  0
  3  8  1  0
  5  6  1  0
  5 36  1  0
  5 37  1  0
  6  7  1  0
  6 38  1  0
  6 39  1  0
  7  8  1  0
  7 40  1  0
  7 41  1  0
  8  9  1  0
  9 10  2  0
  9 11  1  0
 11 12  1  0
 11 42  1  0
 11 43  1  0
 12 13  1  0
 12 44  1  0
 13 17  1  0
 13 35  1  0
 13 47  1  1
 14 15  2  0
 14 45  1  0
 14 46  1  0
 15 16  1  0
 15 21  1  0
 16 17  1  0
 16 48  1  0
 16 49  1  0
 17 18  1  0
 17 50  1  1
 18 19  1  0
 18 51  1  0
 18 52  1  0
 19 20  1  0
 19 53  1  0
 19 54  1  0
 20 21  1  0
 20 55  1  0
 20 56  1  0
 21 22  1  6
 21 35  1  0
 22 23  2  0
 22 34  1  0
 23 24  1  0
 23 57  1  0
 24 25  2  0
 24 58  1  0
 25 26  1  0
 25 33  1  0
 26 27  1  0
 30 26  1  1
 27 28  1  0
 27 59  1  0
 27 60  1  0
 28 29  1  0
 28 61  1  0
 28 62  1  0
 29 30  1  0
 29 63  1  0
 29 64  1  0
 30 31  2  0
 30 32  2  0
 33 34  2  0
 33 65  1  0
 34 66  1  0
 35 67  1  0
 35 68  1  0
M  END

