
     RDKit          3D

 36 35  0  0  0  0  0  0  0  0999 V2000
    0.5094    1.2819   -0.7571 C   0  0  0  0  0  0  0  0  0  0  0  0
    1.6839    0.3338   -0.4704 C   0  0  1  0  0  0  0  0  0  0  0  0
    1.9926   -0.5734   -1.6902 C   0  0  0  0  0  0  0  0  0  0  0  0
    2.2257   -2.0821   -1.4043 C   0  0  1  0  0  0  0  0  0  0  0  0
    3.4045   -2.3105   -0.4405 C   0  0  0  0  0  0  0  0  0  0  0  0
    0.9571   -2.7244   -0.8085 C   0  0  0  0  0  0  0  0  0  0  0  0
    2.5677   -2.7852   -2.7446 C   0  0  0  0  0  0  0  0  0  0  0  0
    1.5056   -2.6844   -3.7422 N   0  0  0  0  0  0  0  0  0  0  0  0
    2.9637    1.0831    0.0210 C   0  0  1  0  0  0  0  0  0  0  0  0
    3.3256    2.3592   -0.7531 C   0  0  0  0  0  0  0  0  0  0  0  0
    2.9099    1.3326    1.8224 P   0  0  1  0  0  0  0  0  0  0  0  0
    2.5597    0.1585    2.6755 O   0  0  0  0  0  0  0  0  0  0  0  0
    4.3927    1.9451    2.1235 O   0  0  0  0  0  0  0  0  0  0  0  0
    1.8986    2.6002    2.0502 O   0  0  0  0  0  0  0  0  0  0  0  0
   -0.4039    0.7002   -0.9585 H   0  0  0  0  0  0  0  0  0  0  0  0
    0.6973    1.9092   -1.6436 H   0  0  0  0  0  0  0  0  0  0  0  0
    0.3076    1.9510    0.0930 H   0  0  0  0  0  0  0  0  0  0  0  0
    1.3724   -0.3156    0.3631 H   0  0  0  0  0  0  0  0  0  0  0  0
    2.8768   -0.1825   -2.2262 H   0  0  0  0  0  0  0  0  0  0  0  0
    1.1701   -0.5145   -2.4189 H   0  0  0  0  0  0  0  0  0  0  0  0
    3.2218   -1.8586    0.5469 H   0  0  0  0  0  0  0  0  0  0  0  0
    4.3415   -1.8890   -0.8435 H   0  0  0  0  0  0  0  0  0  0  0  0
    3.5726   -3.3884   -0.2790 H   0  0  0  0  0  0  0  0  0  0  0  0
    0.7134   -2.3066    0.1805 H   0  0  0  0  0  0  0  0  0  0  0  0
    1.0951   -3.8108   -0.6740 H   0  0  0  0  0  0  0  0  0  0  0  0
    0.0829   -2.5672   -1.4605 H   0  0  0  0  0  0  0  0  0  0  0  0
    2.8593   -3.8332   -2.5135 H   0  0  0  0  0  0  0  0  0  0  0  0
    3.4687   -2.3039   -3.1627 H   0  0  0  0  0  0  0  0  0  0  0  0
    0.7674   -3.3626   -3.5565 H   0  0  0  0  0  0  0  0  0  0  0  0
    1.8649   -2.9040   -4.6700 H   0  0  0  0  0  0  0  0  0  0  0  0
    3.8096    0.3813   -0.0665 H   0  0  0  0  0  0  0  0  0  0  0  0
    2.5812    3.1542   -0.6026 H   0  0  0  0  0  0  0  0  0  0  0  0
    3.3839    2.1467   -1.8325 H   0  0  0  0  0  0  0  0  0  0  0  0
    4.3031    2.7471   -0.4313 H   0  0  0  0  0  0  0  0  0  0  0  0
    4.6843    1.6958    3.0136 H   0  0  0  0  0  0  0  0  0  0  0  0
    1.3256    2.4251    2.8123 H   0  0  0  0  0  0  0  0  0  0  0  0
  1  2  1  0
  1 15  1  0
  1 16  1  0
  1 17  1  0
  2  3  1  0
  2  9  1  0
  2 18  1  1
  4  3  1  6
  3 19  1  0
  3 20  1  0
  4  5  1  0
  4  6  1  0
  4  7  1  0
  5 21  1  0
  5 22  1  0
  5 23  1  0
  6 24  1  0
  6 25  1  0
  6 26  1  0
  7  8  1  0
  7 27  1  0
  7 28  1  0
  8 29  1  0
  8 30  1  0
  9 10  1  0
  9 11  1  0
  9 31  1  1
 10 32  1  0
 10 33  1  0
 10 34  1  0
 11 12  2  0
 11 13  1  1
 11 14  1  0
 13 35  1  0
 14 36  1  0
M  END

