
     RDKit          3D

 46 47  0  0  0  0  0  0  0  0999 V2000
    8.0089    1.1652   -0.9231 C   0  0  0  0  0  0  0  0  0  0  0  0
    6.8553    0.1740   -0.7628 C   0  0  0  0  0  0  0  0  0  0  0  0
    5.5524    0.7991   -0.5211 N   0  0  0  0  0  0  0  0  0  0  0  0
    4.7924    1.3484   -1.6493 C   0  0  0  0  0  0  0  0  0  0  0  0
    3.9545    0.3111   -2.3964 C   0  0  0  0  0  0  0  0  0  0  0  0
    4.8518    0.7645    0.9934 S   0  0  1  0  0  0  0  0  0  0  0  0
    3.3988    0.7649    0.8006 O   0  0  0  0  0  0  0  0  0  0  0  0
    5.5351   -0.2740    1.7689 O   0  0  0  0  0  0  0  0  0  0  0  0
    5.2574    2.3420    1.7722 C   0  0  0  0  0  0  0  0  0  0  0  0
    4.3727    3.4190    1.6546 C   0  0  0  0  0  0  0  0  0  0  0  0
    4.7049    4.6393    2.2419 C   0  0  0  0  0  0  0  0  0  0  0  0
    5.9103    4.7925    2.9436 C   0  0  0  0  0  0  0  0  0  0  0  0
    6.1835    6.1477    3.5508 C   0  0  0  0  0  0  0  0  0  0  0  0
    5.2877    6.9745    3.6825 O   0  0  0  0  0  0  0  0  0  0  0  0
    7.4714    6.3844    3.9248 N   0  0  0  0  0  0  0  0  0  0  0  0
    7.9447    7.5930    4.5498 C   0  0  1  0  0  0  0  0  0  0  0  0
    9.4486    7.3807    4.7797 C   0  0  0  0  0  0  0  0  0  0  0  0
   10.0265    6.3798    4.4395 O   0  0  0  0  0  0  0  0  0  0  0  0
   10.1154    8.3776    5.3821 O   0  0  0  0  0  0  0  0  0  0  0  0
    7.6304    8.9756    3.8693 C   0  0  0  0  0  0  0  0  0  0  0  0
    7.2230    9.5529    5.2490 C   0  0  0  0  0  0  0  0  0  0  0  0
    7.2005    8.1157    5.8299 C   0  0  0  0  0  0  0  0  0  0  0  0
    6.7686    3.6885    3.0815 C   0  0  0  0  0  0  0  0  0  0  0  0
    6.4449    2.4617    2.5010 C   0  0  0  0  0  0  0  0  0  0  0  0
    8.9463    0.6256   -1.1340 H   0  0  0  0  0  0  0  0  0  0  0  0
    8.1556    1.7583   -0.0073 H   0  0  0  0  0  0  0  0  0  0  0  0
    7.8347    1.8668   -1.7549 H   0  0  0  0  0  0  0  0  0  0  0  0
    7.0519   -0.5179    0.0670 H   0  0  0  0  0  0  0  0  0  0  0  0
    6.7644   -0.4514   -1.6682 H   0  0  0  0  0  0  0  0  0  0  0  0
    5.5175    1.8270   -2.3290 H   0  0  0  0  0  0  0  0  0  0  0  0
    4.1429    2.1564   -1.2815 H   0  0  0  0  0  0  0  0  0  0  0  0
    4.5798   -0.5063   -2.7902 H   0  0  0  0  0  0  0  0  0  0  0  0
    3.4372    0.7789   -3.2499 H   0  0  0  0  0  0  0  0  0  0  0  0
    3.2007   -0.1194   -1.7220 H   0  0  0  0  0  0  0  0  0  0  0  0
    3.4253    3.2860    1.1298 H   0  0  0  0  0  0  0  0  0  0  0  0
    4.0320    5.4965    2.1805 H   0  0  0  0  0  0  0  0  0  0  0  0
    8.2063    5.7130    3.7188 H   0  0  0  0  0  0  0  0  0  0  0  0
    9.5299    9.1176    5.6007 H   0  0  0  0  0  0  0  0  0  0  0  0
    6.7644    8.8734    3.2061 H   0  0  0  0  0  0  0  0  0  0  0  0
    8.4565    9.4566    3.3234 H   0  0  0  0  0  0  0  0  0  0  0  0
    6.2683   10.0957    5.2784 H   0  0  0  0  0  0  0  0  0  0  0  0
    7.9804   10.2163    5.7050 H   0  0  0  0  0  0  0  0  0  0  0  0
    6.1823    7.7120    5.8595 H   0  0  0  0  0  0  0  0  0  0  0  0
    7.6931    7.9323    6.7973 H   0  0  0  0  0  0  0  0  0  0  0  0
    7.6845    3.7605    3.6730 H   0  0  0  0  0  0  0  0  0  0  0  0
    7.0911    1.5923    2.6324 H   0  0  0  0  0  0  0  0  0  0  0  0
  1  2  1  0
  1 25  1  0
  1 26  1  0
  1 27  1  0
  2  3  1  0
  2 28  1  0
  2 29  1  0
  3  4  1  0
  6  3  1  6
  4  5  1  0
  4 30  1  0
  4 31  1  0
  5 32  1  0
  5 33  1  0
  5 34  1  0
  6  7  2  0
  6  8  2  0
  6  9  1  0
  9 10  2  0
  9 24  1  0
 10 11  1  0
 10 35  1  0
 11 12  2  0
 11 36  1  0
 12 13  1  0
 12 23  1  0
 13 14  2  0
 13 15  1  0
 15 16  1  0
 15 37  1  0
 16 17  1  1
 16 20  1  0
 16 22  1  0
 17 18  2  0
 17 19  1  0
 19 38  1  0
 20 21  1  0
 20 39  1  0
 20 40  1  0
 21 22  1  0
 21 41  1  0
 21 42  1  0
 22 43  1  0
 22 44  1  0
 23 24  2  0
 23 45  1  0
 24 46  1  0
M  END

