
     RDKit          3D

 65 69  0  0  0  0  0  0  0  0999 V2000
    0.9756   -0.2506   -0.1130 C   0  0  0  0  0  0  0  0  0  0  0  0
    2.4793   -0.1231   -0.0426 C   0  0  0  0  0  0  0  0  0  0  0  0
    3.0872    1.1192   -0.2501 C   0  0  0  0  0  0  0  0  0  0  0  0
    4.4728    1.2572   -0.1774 C   0  0  0  0  0  0  0  0  0  0  0  0
    5.2928    0.1603    0.1028 C   0  0  0  0  0  0  0  0  0  0  0  0
    6.7943    0.3579    0.1563 C   0  0  0  0  0  0  0  0  0  0  0  0
    7.4390   -0.1489   -1.0446 N   0  0  0  0  0  0  0  0  0  0  0  0
    8.8023   -0.0368   -1.2717 C   0  0  0  0  0  0  0  0  0  0  0  0
    9.3130   -0.3053   -2.5657 C   0  0  0  0  0  0  0  0  0  0  0  0
   10.6826   -0.2323   -2.8292 C   0  0  0  0  0  0  0  0  0  0  0  0
   11.5706    0.0975   -1.8065 C   0  0  0  0  0  0  0  0  0  0  0  0
   11.0565    0.3645   -0.5334 C   0  0  0  0  0  0  0  0  0  0  0  0
    9.6971    0.3126   -0.2354 C   0  0  0  0  0  0  0  0  0  0  0  0
   12.0146    0.6974    0.3687 O   0  0  0  0  0  0  0  0  0  0  0  0
   13.3000    0.4649   -0.2387 C   0  0  0  0  0  0  0  0  0  0  0  0
   13.0688    0.3235   -1.7686 C   0  0  1  0  0  0  0  0  0  0  0  0
   13.3224    1.2785   -2.2648 H   0  0  0  0  0  0  0  0  0  0  0  0
   13.9100   -0.7744   -2.4220 C   0  0  0  0  0  0  0  0  0  0  0  0
   15.4003   -0.5392   -2.3700 C   0  0  0  0  0  0  0  0  0  0  0  0
   15.9317    0.3828   -1.8016 O   0  0  0  0  0  0  0  0  0  0  0  0
    4.7056   -1.1114    0.3106 C   0  0  0  0  0  0  0  0  0  0  0  0
    5.5919   -2.2982    0.6189 C   0  0  0  0  0  0  0  0  0  0  0  0
    3.2994   -1.2437    0.2416 C   0  0  0  0  0  0  0  0  0  0  0  0
    2.6478   -2.5717    0.4781 C   0  0  0  0  0  0  0  0  0  0  0  0
    2.2824   -3.4228   -0.5708 C   0  0  0  0  0  0  0  0  0  0  0  0
    1.6690   -4.5953   -0.4060 N   0  0  0  0  0  0  0  0  0  0  0  0
    1.3732   -5.0542    0.8152 C   0  0  0  0  0  0  0  0  0  0  0  0
    0.7671   -6.2979    0.9187 N   0  0  0  0  0  0  0  0  0  0  0  0
    0.5694   -7.0715   -0.3060 C   0  0  0  0  0  0  0  0  0  0  0  0
    0.4508   -8.5533    0.0384 C   0  0  0  0  0  0  0  0  0  0  0  0
   -0.5707   -8.7968    0.9846 O   0  0  0  0  0  0  0  0  0  0  0  0
   -0.3472   -8.0770    2.1774 C   0  0  0  0  0  0  0  0  0  0  0  0
   -0.2633   -6.5747    1.9226 C   0  0  0  0  0  0  0  0  0  0  0  0
    1.7522   -4.2718    1.9391 C   0  0  0  0  0  0  0  0  0  0  0  0
    1.5577   -4.7250    3.1958 F   0  0  0  0  0  0  0  0  0  0  0  0
    2.3622   -3.0434    1.7730 C   0  0  0  0  0  0  0  0  0  0  0  0
    0.5063    0.7248   -0.3076 H   0  0  0  0  0  0  0  0  0  0  0  0
    0.5575   -0.6488    0.8255 H   0  0  0  0  0  0  0  0  0  0  0  0
    0.6614   -0.9432   -0.9104 H   0  0  0  0  0  0  0  0  0  0  0  0
    2.4657    1.9922   -0.4668 H   0  0  0  0  0  0  0  0  0  0  0  0
    4.9277    2.2393   -0.3358 H   0  0  0  0  0  0  0  0  0  0  0  0
    7.2133   -0.1651    1.0330 H   0  0  0  0  0  0  0  0  0  0  0  0
    7.0122    1.4343    0.3079 H   0  0  0  0  0  0  0  0  0  0  0  0
    6.8603   -0.1259   -1.8763 H   0  0  0  0  0  0  0  0  0  0  0  0
    8.6182   -0.5774   -3.3648 H   0  0  0  0  0  0  0  0  0  0  0  0
   11.0432   -0.4341   -3.8423 H   0  0  0  0  0  0  0  0  0  0  0  0
    9.3598    0.5347    0.7760 H   0  0  0  0  0  0  0  0  0  0  0  0
   13.7177   -0.4662    0.1871 H   0  0  0  0  0  0  0  0  0  0  0  0
   13.9677    1.2940    0.0267 H   0  0  0  0  0  0  0  0  0  0  0  0
   13.6366   -0.9091   -3.4856 H   0  0  0  0  0  0  0  0  0  0  0  0
   13.7124   -1.7603   -1.9571 H   0  0  0  0  0  0  0  0  0  0  0  0
   16.0158   -1.3075   -2.9106 H   0  0  0  0  0  0  0  0  0  0  0  0
    6.4708   -2.3120   -0.0417 H   0  0  0  0  0  0  0  0  0  0  0  0
    5.0593   -3.2506    0.5081 H   0  0  0  0  0  0  0  0  0  0  0  0
    5.9687   -2.2525    1.6562 H   0  0  0  0  0  0  0  0  0  0  0  0
    2.4983   -3.1321   -1.6059 H   0  0  0  0  0  0  0  0  0  0  0  0
    1.4150   -6.8973   -0.9829 H   0  0  0  0  0  0  0  0  0  0  0  0
   -0.3447   -6.7368   -0.8373 H   0  0  0  0  0  0  0  0  0  0  0  0
    1.4252   -8.9189    0.4245 H   0  0  0  0  0  0  0  0  0  0  0  0
    0.1985   -9.1312   -0.8637 H   0  0  0  0  0  0  0  0  0  0  0  0
    0.5915   -8.4153    2.6637 H   0  0  0  0  0  0  0  0  0  0  0  0
   -1.1874   -8.2995    2.8530 H   0  0  0  0  0  0  0  0  0  0  0  0
   -0.0395   -6.0559    2.8599 H   0  0  0  0  0  0  0  0  0  0  0  0
   -1.2491   -6.2168    1.5585 H   0  0  0  0  0  0  0  0  0  0  0  0
    2.6353   -2.4725    2.6636 H   0  0  0  0  0  0  0  0  0  0  0  0
  1  2  1  0
  1 37  1  0
  1 38  1  0
  1 39  1  0
  2  3  2  0
  2 23  1  0
  3  4  1  0
  3 40  1  0
  4  5  2  0
  4 41  1  0
  5  6  1  0
  5 21  1  0
  6  7  1  0
  6 42  1  0
  6 43  1  0
  7  8  1  0
  7 44  1  0
  8  9  2  0
  8 13  1  0
  9 10  1  0
  9 45  1  0
 10 11  2  0
 10 46  1  0
 11 12  1  0
 11 16  1  0
 12 13  2  0
 12 14  1  0
 13 47  1  0
 14 15  1  0
 15 16  1  0
 15 48  1  0
 15 49  1  0
 16 17  1  6
 16 18  1  0
 18 19  1  0
 18 50  1  0
 18 51  1  0
 19 20  2  0
 19 52  1  0
 21 22  1  0
 21 23  2  0
 22 53  1  0
 22 54  1  0
 22 55  1  0
 23 24  1  0
 24 25  2  0
 24 36  1  0
 25 26  1  0
 25 56  1  0
 26 27  2  0
 27 28  1  0
 27 34  1  0
 28 29  1  0
 28 33  1  0
 29 30  1  0
 29 57  1  0
 29 58  1  0
 30 31  1  0
 30 59  1  0
 30 60  1  0
 31 32  1  0
 32 33  1  0
 32 61  1  0
 32 62  1  0
 33 63  1  0
 33 64  1  0
 34 35  1  0
 34 36  2  0
 36 65  1  0
M  END

