
     RDKit          3D

 14 13  0  0  0  0  0  0  0  0999 V2000
    1.0337    0.0233   -0.0629 C   0  0  0  0  0  0  0  0  0  0  0  0
    2.5472    0.0890    0.0332 C   0  0  1  0  0  0  0  0  0  0  0  0
    3.3360    0.5386   -1.7346 Br  0  0  0  0  0  0  0  0  0  0  0  0
    3.0647    1.1117    1.0399 C   0  0  0  0  0  0  0  0  0  0  0  0
    2.5894    0.7001    2.3101 O   0  0  0  0  0  0  0  0  0  0  0  0
    3.0251    1.6229    3.3083 N   0  0  0  0  0  0  0  0  0  0  0  0
    0.7094   -0.7402   -0.7845 H   0  0  0  0  0  0  0  0  0  0  0  0
    0.6141    0.9942   -0.3693 H   0  0  0  0  0  0  0  0  0  0  0  0
    0.6295   -0.2314    0.9298 H   0  0  0  0  0  0  0  0  0  0  0  0
    2.9673   -0.8985    0.2681 H   0  0  0  0  0  0  0  0  0  0  0  0
    2.6932    2.1226    0.7880 H   0  0  0  0  0  0  0  0  0  0  0  0
    4.1684    1.1439    1.0268 H   0  0  0  0  0  0  0  0  0  0  0  0
    3.5302    1.0421    3.9847 H   0  0  0  0  0  0  0  0  0  0  0  0
    2.1626    1.8996    3.7868 H   0  0  0  0  0  0  0  0  0  0  0  0
  1  2  1  0
  1  7  1  0
  1  8  1  0
  1  9  1  0
  2  3  1  0
  2  4  1  0
  2 10  1  1
  4  5  1  0
  4 11  1  0
  4 12  1  0
  5  6  1  0
  6 13  1  0
  6 14  1  0
M  END

