
     RDKit          3D

 41 43  0  0  0  0  0  0  0  0999 V2000
   10.2594   -2.9179    5.9933 O   0  0  0  0  0  0  0  0  0  0  0  0
    9.0848   -3.0188    6.2283 C   0  0  0  0  0  0  0  0  0  0  0  0
    8.6577   -3.3577    7.4627 O   0  0  0  0  0  0  0  0  0  0  0  0
    8.0270   -2.7788    5.1841 C   0  0  0  0  0  0  0  0  0  0  0  0
    8.4088   -2.1067    4.0105 C   0  0  0  0  0  0  0  0  0  0  0  0
    7.4871   -1.8604    2.9962 C   0  0  0  0  0  0  0  0  0  0  0  0
    6.1726   -2.3007    3.1455 C   0  0  0  0  0  0  0  0  0  0  0  0
    5.2949   -2.0700    2.1757 F   0  0  0  0  0  0  0  0  0  0  0  0
    5.7799   -2.9996    4.2931 C   0  0  0  0  0  0  0  0  0  0  0  0
    4.0761   -3.5224    4.5296 S   0  0  1  0  0  0  0  0  0  0  0  0
    4.0611   -4.3209    5.7577 O   0  0  0  0  0  0  0  0  0  0  0  0
    3.2220   -2.3536    4.3548 O   0  0  0  0  0  0  0  0  0  0  0  0
    3.7609   -4.5068    3.1995 N   0  0  0  0  0  0  0  0  0  0  0  0
    3.8150   -5.9151    3.2144 C   0  0  0  0  0  0  0  0  0  0  0  0
    4.9056   -6.6035    3.7703 C   0  0  0  0  0  0  0  0  0  0  0  0
    4.9449   -7.9965    3.7503 C   0  0  0  0  0  0  0  0  0  0  0  0
    3.9116   -8.7301    3.1585 C   0  0  0  0  0  0  0  0  0  0  0  0
    2.8313   -8.0544    2.5915 C   0  0  0  0  0  0  0  0  0  0  0  0
    2.7613   -6.6549    2.6274 C   0  0  0  0  0  0  0  0  0  0  0  0
    1.3849   -5.8123    1.8449 S   0  0  0  0  0  0  0  0  0  0  0  0
    0.1557   -5.6970    3.1550 C   0  0  0  0  0  0  0  0  0  0  0  0
    0.4755   -5.6131    4.5173 C   0  0  0  0  0  0  0  0  0  0  0  0
   -0.5479   -5.4817    5.4603 C   0  0  0  0  0  0  0  0  0  0  0  0
   -1.8852   -5.4190    5.0577 C   0  0  0  0  0  0  0  0  0  0  0  0
   -2.1992   -5.4942    3.6976 C   0  0  0  0  0  0  0  0  0  0  0  0
   -1.1859   -5.6400    2.7470 C   0  0  0  0  0  0  0  0  0  0  0  0
    6.7072   -3.2314    5.3106 C   0  0  0  0  0  0  0  0  0  0  0  0
    7.6981   -3.2653    7.5426 H   0  0  0  0  0  0  0  0  0  0  0  0
    9.4469   -1.7835    3.9144 H   0  0  0  0  0  0  0  0  0  0  0  0
    7.7644   -1.3317    2.0822 H   0  0  0  0  0  0  0  0  0  0  0  0
    2.9819   -4.1199    2.6576 H   0  0  0  0  0  0  0  0  0  0  0  0
    5.7257   -6.0438    4.2199 H   0  0  0  0  0  0  0  0  0  0  0  0
    5.8005   -8.5128    4.1924 H   0  0  0  0  0  0  0  0  0  0  0  0
    3.9497   -9.8213    3.1343 H   0  0  0  0  0  0  0  0  0  0  0  0
    2.0168   -8.6064    2.1178 H   0  0  0  0  0  0  0  0  0  0  0  0
    1.5135   -5.6411    4.8528 H   0  0  0  0  0  0  0  0  0  0  0  0
   -0.2900   -5.4186    6.5205 H   0  0  0  0  0  0  0  0  0  0  0  0
   -2.6790   -5.3123    5.8009 H   0  0  0  0  0  0  0  0  0  0  0  0
   -3.2413   -5.4506    3.3704 H   0  0  0  0  0  0  0  0  0  0  0  0
   -1.4353   -5.7181    1.6857 H   0  0  0  0  0  0  0  0  0  0  0  0
    6.3585   -3.7958    6.1792 H   0  0  0  0  0  0  0  0  0  0  0  0
  1  2  2  0
  2  3  1  0
  2  4  1  0
  3 28  1  0
  4  5  2  0
  4 27  1  0
  5  6  1  0
  5 29  1  0
  6  7  2  0
  6 30  1  0
  7  8  1  0
  7  9  1  0
  9 10  1  0
  9 27  2  0
 10 11  2  0
 10 12  2  0
 10 13  1  6
 13 14  1  0
 13 31  1  0
 14 15  2  0
 14 19  1  0
 15 16  1  0
 15 32  1  0
 16 17  2  0
 16 33  1  0
 17 18  1  0
 17 34  1  0
 18 19  2  0
 18 35  1  0
 19 20  1  0
 20 21  1  0
 21 22  2  0
 21 26  1  0
 22 23  1  0
 22 36  1  0
 23 24  2  0
 23 37  1  0
 24 25  1  0
 24 38  1  0
 25 26  2  0
 25 39  1  0
 26 40  1  0
 27 41  1  0
M  END

