
     RDKit          3D

 34 36  0  0  0  0  0  0  0  0999 V2000
    1.0363    0.2180    0.3119 Br  0  0  0  0  0  0  0  0  0  0  0  0
    2.9358    0.0896    0.1636 C   0  0  0  0  0  0  0  0  0  0  0  0
    3.7192    1.2463    0.4168 C   0  0  0  0  0  0  0  0  0  0  0  0
    5.0907    1.1754    0.3152 C   0  0  0  0  0  0  0  0  0  0  0  0
    5.7461   -0.0403   -0.0406 C   0  0  0  0  0  0  0  0  0  0  0  0
    7.1536   -0.1369   -0.1513 C   0  0  0  0  0  0  0  0  0  0  0  0
    7.7641   -1.3335   -0.4993 C   0  0  0  0  0  0  0  0  0  0  0  0
    9.1197   -1.3291   -0.5819 O   0  0  0  0  0  0  0  0  0  0  0  0
    9.8219   -2.5103   -0.9411 C   0  0  0  0  0  0  0  0  0  0  0  0
   11.3131   -2.2066   -0.9490 C   0  0  0  0  0  0  0  0  0  0  0  0
   11.8871   -1.8210    0.4075 C   0  0  1  0  0  0  0  0  0  0  0  0
   13.3887   -1.4489    0.5065 C   0  0  0  0  0  0  0  0  0  0  0  0
   13.0301   -0.3801    1.4544 N   0  0  0  0  0  0  0  0  0  0  0  0
   11.6279   -0.4103    0.9978 C   0  0  0  0  0  0  0  0  0  0  0  0
    6.9658   -2.4847   -0.7504 C   0  0  0  0  0  0  0  0  0  0  0  0
    5.5912   -2.4100   -0.6474 C   0  0  0  0  0  0  0  0  0  0  0  0
    4.9379   -1.2006   -0.2932 C   0  0  0  0  0  0  0  0  0  0  0  0
    3.5216   -1.1071   -0.1829 C   0  0  0  0  0  0  0  0  0  0  0  0
    3.2279    2.1816    0.6899 H   0  0  0  0  0  0  0  0  0  0  0  0
    5.6958    2.0648    0.5101 H   0  0  0  0  0  0  0  0  0  0  0  0
    7.7813    0.7367    0.0367 H   0  0  0  0  0  0  0  0  0  0  0  0
    9.4959   -2.8557   -1.9400 H   0  0  0  0  0  0  0  0  0  0  0  0
    9.5995   -3.3182   -0.2178 H   0  0  0  0  0  0  0  0  0  0  0  0
   11.5110   -1.4089   -1.6861 H   0  0  0  0  0  0  0  0  0  0  0  0
   11.8292   -3.1107   -1.3194 H   0  0  0  0  0  0  0  0  0  0  0  0
   11.6403   -2.5952    1.1532 H   0  0  0  0  0  0  0  0  0  0  0  0
   13.7810   -1.0930   -0.4694 H   0  0  0  0  0  0  0  0  0  0  0  0
   14.0831   -2.2139    0.8975 H   0  0  0  0  0  0  0  0  0  0  0  0
   13.5237    0.5045    1.3463 H   0  0  0  0  0  0  0  0  0  0  0  0
   11.3816    0.3202    0.2020 H   0  0  0  0  0  0  0  0  0  0  0  0
   10.8695   -0.3195    1.7938 H   0  0  0  0  0  0  0  0  0  0  0  0
    7.4294   -3.4321   -1.0249 H   0  0  0  0  0  0  0  0  0  0  0  0
    4.9869   -3.3001   -0.8421 H   0  0  0  0  0  0  0  0  0  0  0  0
    2.9096   -1.9905   -0.3754 H   0  0  0  0  0  0  0  0  0  0  0  0
  1  2  1  0
  2  3  2  0
  2 18  1  0
  3  4  1  0
  3 19  1  0
  4  5  2  0
  4 20  1  0
  5  6  1  0
  5 17  1  0
  6  7  2  0
  6 21  1  0
  7  8  1  0
  7 15  1  0
  8  9  1  0
  9 10  1  0
  9 22  1  0
  9 23  1  0
 10 11  1  0
 10 24  1  0
 10 25  1  0
 11 12  1  0
 11 14  1  0
 11 26  1  1
 12 13  1  0
 12 27  1  0
 12 28  1  0
 13 14  1  0
 13 29  1  0
 14 30  1  0
 14 31  1  0
 15 16  2  0
 15 32  1  0
 16 17  1  0
 16 33  1  0
 17 18  2  0
 18 34  1  0
M  END

