
     RDKit          3D

 48 50  0  0  0  0  0  0  0  0999 V2000
    2.7201    1.1042   -0.7375 C   0  0  0  0  0  0  0  0  0  0  0  0
    4.2522    1.2470   -0.7924 C   0  0  1  0  0  0  0  0  0  0  0  0
    4.8681    0.1199   -1.6436 C   0  0  0  0  0  0  0  0  0  0  0  0
    4.6246    2.6148   -1.3844 C   0  0  0  0  0  0  0  0  0  0  0  0
    4.8104    1.2191    0.5773 N   0  0  0  0  0  0  0  0  0  0  0  0
    4.6859    0.1914    1.4684 C   0  0  0  0  0  0  0  0  0  0  0  0
    4.0881   -0.8492    1.2181 O   0  0  0  0  0  0  0  0  0  0  0  0
    5.3442    0.4003    2.8090 C   0  0  0  0  0  0  0  0  0  0  0  0
    5.6840    1.6537    3.3401 C   0  0  0  0  0  0  0  0  0  0  0  0
    6.2773    1.7846    4.5963 C   0  0  0  0  0  0  0  0  0  0  0  0
    6.5448    0.6334    5.3595 C   0  0  0  0  0  0  0  0  0  0  0  0
    7.1482    0.6656    6.6280 N   0  0  0  0  0  0  0  0  0  0  0  0
    7.5572    1.7558    7.3720 C   0  0  0  0  0  0  0  0  0  0  0  0
    7.4133    2.9106    7.0102 O   0  0  0  0  0  0  0  0  0  0  0  0
    8.1299    1.4186    8.7291 C   0  0  0  0  0  0  0  0  0  0  0  0
    7.6796    2.2079    9.7759 C   0  0  0  0  0  0  0  0  0  0  0  0
    8.0841    1.9666   11.1074 C   0  0  0  0  0  0  0  0  0  0  0  0
    8.9573    0.9376   11.3851 C   0  0  0  0  0  0  0  0  0  0  0  0
    9.4878    0.1308   10.3411 C   0  0  0  0  0  0  0  0  0  0  0  0
   10.4291   -0.9005   10.6186 C   0  0  0  0  0  0  0  0  0  0  0  0
   10.9834   -1.6516    9.6052 C   0  0  0  0  0  0  0  0  0  0  0  0
   10.6281   -1.3867    8.2607 C   0  0  0  0  0  0  0  0  0  0  0  0
    9.7108   -0.4015    7.9557 C   0  0  0  0  0  0  0  0  0  0  0  0
    9.0880    0.3754    8.9792 C   0  0  0  0  0  0  0  0  0  0  0  0
    6.1912   -0.6281    4.8395 C   0  0  0  0  0  0  0  0  0  0  0  0
    5.5942   -0.7390    3.5903 C   0  0  0  0  0  0  0  0  0  0  0  0
    2.2982    1.1529   -1.7539 H   0  0  0  0  0  0  0  0  0  0  0  0
    2.2770    1.9172   -0.1405 H   0  0  0  0  0  0  0  0  0  0  0  0
    2.4387    0.1449   -0.2838 H   0  0  0  0  0  0  0  0  0  0  0  0
    4.4677    0.1509   -2.6695 H   0  0  0  0  0  0  0  0  0  0  0  0
    4.6369   -0.8597   -1.2040 H   0  0  0  0  0  0  0  0  0  0  0  0
    5.9633    0.2294   -1.6990 H   0  0  0  0  0  0  0  0  0  0  0  0
    4.2334    2.7069   -2.4084 H   0  0  0  0  0  0  0  0  0  0  0  0
    5.7191    2.7455   -1.4321 H   0  0  0  0  0  0  0  0  0  0  0  0
    4.2008    3.4368   -0.7844 H   0  0  0  0  0  0  0  0  0  0  0  0
    5.4548    1.9619    0.8163 H   0  0  0  0  0  0  0  0  0  0  0  0
    5.4579    2.5689    2.7864 H   0  0  0  0  0  0  0  0  0  0  0  0
    6.5251    2.7623    5.0014 H   0  0  0  0  0  0  0  0  0  0  0  0
    7.2417   -0.2367    7.0805 H   0  0  0  0  0  0  0  0  0  0  0  0
    6.9860    3.0207    9.5516 H   0  0  0  0  0  0  0  0  0  0  0  0
    7.6946    2.5945   11.9122 H   0  0  0  0  0  0  0  0  0  0  0  0
    9.2679    0.7350   12.4136 H   0  0  0  0  0  0  0  0  0  0  0  0
   10.7143   -1.0793   11.6589 H   0  0  0  0  0  0  0  0  0  0  0  0
   11.7074   -2.4376    9.8331 H   0  0  0  0  0  0  0  0  0  0  0  0
   11.0937   -1.9593    7.4545 H   0  0  0  0  0  0  0  0  0  0  0  0
    9.4814   -0.1987    6.9091 H   0  0  0  0  0  0  0  0  0  0  0  0
    6.3859   -1.5290    5.4295 H   0  0  0  0  0  0  0  0  0  0  0  0
    5.3041   -1.7125    3.1908 H   0  0  0  0  0  0  0  0  0  0  0  0
  1  2  1  0
  1 27  1  0
  1 28  1  0
  1 29  1  0
  2  3  1  0
  2  4  1  0
  2  5  1  1
  3 30  1  0
  3 31  1  0
  3 32  1  0
  4 33  1  0
  4 34  1  0
  4 35  1  0
  5  6  1  0
  5 36  1  0
  6  7  2  0
  6  8  1  0
  8  9  2  0
  8 26  1  0
  9 10  1  0
  9 37  1  0
 10 11  2  0
 10 38  1  0
 11 12  1  0
 11 25  1  0
 12 13  1  0
 12 39  1  0
 13 14  2  0
 13 15  1  0
 15 16  2  0
 15 24  1  0
 16 17  1  0
 16 40  1  0
 17 18  2  0
 17 41  1  0
 18 19  1  0
 18 42  1  0
 19 20  1  0
 19 24  2  0
 20 21  2  0
 20 43  1  0
 21 22  1  0
 21 44  1  0
 22 23  2  0
 22 45  1  0
 23 24  1  0
 23 46  1  0
 25 26  2  0
 25 47  1  0
 26 48  1  0
M  END

