
     RDKit          3D

 29 31  0  0  0  0  0  0  0  0999 V2000
    2.3555    0.2911    1.8141 O   0  0  0  0  0  0  0  0  0  0  0  0
    2.9868    0.1543    0.7882 C   0  0  0  0  0  0  0  0  0  0  0  0
    3.3523   -1.2229    0.2466 C   0  0  0  0  0  0  0  0  0  0  0  0
    3.4323   -1.2170   -1.1995 N   0  0  0  0  0  0  0  0  0  0  0  0
    4.1976   -0.2172   -1.7808 C   0  0  0  0  0  0  0  0  0  0  0  0
    4.8985   -0.4014   -2.9814 C   0  0  0  0  0  0  0  0  0  0  0  0
    5.6264    0.6537   -3.5343 C   0  0  0  0  0  0  0  0  0  0  0  0
    6.5613    0.3781   -5.1751 Br  0  0  0  0  0  0  0  0  0  0  0  0
    5.6890    1.8944   -2.9005 C   0  0  0  0  0  0  0  0  0  0  0  0
    4.9926    2.0775   -1.7014 C   0  0  0  0  0  0  0  0  0  0  0  0
    4.2334    1.0463   -1.1395 C   0  0  0  0  0  0  0  0  0  0  0  0
    3.4645    1.2276    0.0436 N   0  0  0  0  0  0  0  0  0  0  0  0
    3.1608    2.5542    0.5067 C   0  0  0  0  0  0  0  0  0  0  0  0
    3.7475    3.0475    1.6778 C   0  0  0  0  0  0  0  0  0  0  0  0
    3.4414    4.3314    2.1312 C   0  0  0  0  0  0  0  0  0  0  0  0
    2.5509    5.1120    1.3967 C   0  0  0  0  0  0  0  0  0  0  0  0
    2.2585    6.3469    1.8252 F   0  0  0  0  0  0  0  0  0  0  0  0
    1.9562    4.6408    0.2275 C   0  0  0  0  0  0  0  0  0  0  0  0
    2.2611    3.3517   -0.2114 C   0  0  0  0  0  0  0  0  0  0  0  0
    2.5645   -1.9082    0.5862 H   0  0  0  0  0  0  0  0  0  0  0  0
    4.3007   -1.5348    0.7397 H   0  0  0  0  0  0  0  0  0  0  0  0
    3.5162   -2.1312   -1.6301 H   0  0  0  0  0  0  0  0  0  0  0  0
    4.8688   -1.3724   -3.4796 H   0  0  0  0  0  0  0  0  0  0  0  0
    6.2694    2.7111   -3.3304 H   0  0  0  0  0  0  0  0  0  0  0  0
    5.0309    3.0474   -1.2047 H   0  0  0  0  0  0  0  0  0  0  0  0
    4.4394    2.4190    2.2406 H   0  0  0  0  0  0  0  0  0  0  0  0
    3.8819    4.7352    3.0446 H   0  0  0  0  0  0  0  0  0  0  0  0
    1.2588    5.2806   -0.3163 H   0  0  0  0  0  0  0  0  0  0  0  0
    1.7994    2.9580   -1.1192 H   0  0  0  0  0  0  0  0  0  0  0  0
  1  2  2  0
  2  3  1  0
  2 12  1  0
  3  4  1  0
  3 20  1  0
  3 21  1  0
  4  5  1  0
  4 22  1  0
  5  6  1  0
  5 11  2  0
  6  7  2  0
  6 23  1  0
  7  8  1  0
  7  9  1  0
  9 10  2  0
  9 24  1  0
 10 11  1  0
 10 25  1  0
 11 12  1  0
 12 13  1  0
 13 14  2  0
 13 19  1  0
 14 15  1  0
 14 26  1  0
 15 16  2  0
 15 27  1  0
 16 17  1  0
 16 18  1  0
 18 19  2  0
 18 28  1  0
 19 29  1  0
M  END

