
     RDKit          3D

 46 47  0  0  0  0  0  0  0  0999 V2000
    1.2888    3.4109   -2.5863 C   0  0  0  0  0  0  0  0  0  0  0  0
    2.2339    2.9818   -1.5817 N   0  0  0  0  0  0  0  0  0  0  0  0
    2.5100    1.6747   -1.3273 C   0  0  0  0  0  0  0  0  0  0  0  0
    2.0099    0.7301   -1.9142 O   0  0  0  0  0  0  0  0  0  0  0  0
    3.4926    1.4588   -0.1654 C   0  0  0  0  0  0  0  0  0  0  0  0
    4.3335    2.6081    0.1340 N   0  0  0  0  0  0  0  0  0  0  0  0
    5.4650    2.7298   -0.7845 C   0  0  0  0  0  0  0  0  0  0  0  0
    6.2151    4.0407   -0.5596 C   0  0  0  0  0  0  0  0  0  0  0  0
    6.5917    4.1448    0.8459 N   0  0  0  0  0  0  0  0  0  0  0  0
    8.0219    4.9041    1.2591 S   0  0  1  0  0  0  0  0  0  0  0  0
    8.1914    4.7279    2.7033 O   0  0  0  0  0  0  0  0  0  0  0  0
    9.0323    4.4183    0.3155 O   0  0  0  0  0  0  0  0  0  0  0  0
    7.8430    6.6719    0.9145 C   0  0  0  0  0  0  0  0  0  0  0  0
    8.6260    7.2239   -0.1063 C   0  0  0  0  0  0  0  0  0  0  0  0
    8.5698    8.5915   -0.4029 C   0  0  0  0  0  0  0  0  0  0  0  0
    9.4254    9.1933   -1.4910 C   0  0  0  0  0  0  0  0  0  0  0  0
    7.6973    9.3913    0.3550 C   0  0  0  0  0  0  0  0  0  0  0  0
    6.9121    8.8482    1.3709 C   0  0  0  0  0  0  0  0  0  0  0  0
    6.9745    7.4801    1.6668 C   0  0  0  0  0  0  0  0  0  0  0  0
    6.1647    6.9365    2.6213 O   0  0  0  0  0  0  0  0  0  0  0  0
    6.5497    7.1460    3.9792 C   0  0  0  0  0  0  0  0  0  0  0  0
    5.4943    3.9990    1.7986 C   0  0  0  0  0  0  0  0  0  0  0  0
    4.7758    2.6794    1.5254 C   0  0  0  0  0  0  0  0  0  0  0  0
    0.4240    3.9322   -2.1398 H   0  0  0  0  0  0  0  0  0  0  0  0
    0.9254    2.5154   -3.1085 H   0  0  0  0  0  0  0  0  0  0  0  0
    1.7566    4.0871   -3.3221 H   0  0  0  0  0  0  0  0  0  0  0  0
    2.7222    3.6520   -0.9937 H   0  0  0  0  0  0  0  0  0  0  0  0
    4.0643    0.5377   -0.3967 H   0  0  0  0  0  0  0  0  0  0  0  0
    2.8753    1.2263    0.7187 H   0  0  0  0  0  0  0  0  0  0  0  0
    5.0920    2.7002   -1.8203 H   0  0  0  0  0  0  0  0  0  0  0  0
    6.1744    1.8828   -0.6585 H   0  0  0  0  0  0  0  0  0  0  0  0
    5.5712    4.8927   -0.8579 H   0  0  0  0  0  0  0  0  0  0  0  0
    7.1252    4.0561   -1.1734 H   0  0  0  0  0  0  0  0  0  0  0  0
    9.2934    6.5598   -0.6587 H   0  0  0  0  0  0  0  0  0  0  0  0
    9.9483    8.4174   -2.0685 H   0  0  0  0  0  0  0  0  0  0  0  0
   10.1901    9.8676   -1.0691 H   0  0  0  0  0  0  0  0  0  0  0  0
    8.8213    9.7908   -2.1931 H   0  0  0  0  0  0  0  0  0  0  0  0
    7.6249   10.4615    0.1403 H   0  0  0  0  0  0  0  0  0  0  0  0
    6.2235    9.4757    1.9417 H   0  0  0  0  0  0  0  0  0  0  0  0
    5.7517    6.7191    4.6017 H   0  0  0  0  0  0  0  0  0  0  0  0
    6.6460    8.2219    4.2070 H   0  0  0  0  0  0  0  0  0  0  0  0
    7.4977    6.6284    4.1930 H   0  0  0  0  0  0  0  0  0  0  0  0
    4.7816    4.8394    1.7109 H   0  0  0  0  0  0  0  0  0  0  0  0
    5.9100    4.0020    2.8132 H   0  0  0  0  0  0  0  0  0  0  0  0
    3.8944    2.6100    2.1830 H   0  0  0  0  0  0  0  0  0  0  0  0
    5.4556    1.8371    1.7819 H   0  0  0  0  0  0  0  0  0  0  0  0
  1  2  1  0
  1 24  1  0
  1 25  1  0
  1 26  1  0
  2  3  1  0
  2 27  1  0
  3  4  2  0
  3  5  1  0
  5  6  1  0
  5 28  1  0
  5 29  1  0
  6  7  1  0
  6 23  1  0
  7  8  1  0
  7 30  1  0
  7 31  1  0
  8  9  1  0
  8 32  1  0
  8 33  1  0
  9 10  1  0
  9 22  1  0
 10 11  2  0
 10 12  2  0
 10 13  1  1
 13 14  2  0
 13 19  1  0
 14 15  1  0
 14 34  1  0
 15 16  1  0
 15 17  2  0
 16 35  1  0
 16 36  1  0
 16 37  1  0
 17 18  1  0
 17 38  1  0
 18 19  2  0
 18 39  1  0
 19 20  1  0
 20 21  1  0
 21 40  1  0
 21 41  1  0
 21 42  1  0
 22 23  1  0
 22 43  1  0
 22 44  1  0
 23 45  1  0
 23 46  1  0
M  END

