
     RDKit          3D

 29 32  0  0  0  0  0  0  0  0999 V2000
    1.3768   -0.8859    1.3187 Br  0  0  0  0  0  0  0  0  0  0  0  0
    3.1265   -0.5455    0.6244 C   0  0  0  0  0  0  0  0  0  0  0  0
    3.9113   -1.6391    0.2000 C   0  0  0  0  0  0  0  0  0  0  0  0
    5.1853   -1.4250   -0.3149 C   0  0  0  0  0  0  0  0  0  0  0  0
    5.6859   -0.1124   -0.4082 C   0  0  0  0  0  0  0  0  0  0  0  0
    6.9167    0.4655   -0.8729 C   0  0  0  0  0  0  0  0  0  0  0  0
    6.8070    1.8230   -0.6981 C   0  0  0  0  0  0  0  0  0  0  0  0
    5.5772    2.1406   -0.1460 N   0  0  0  0  0  0  0  0  0  0  0  0
    5.1075    3.4810    0.1451 C   0  0  0  0  0  0  0  0  0  0  0  0
    4.2790    4.0942   -0.9528 C   0  0  0  0  0  0  0  0  0  0  0  0
    3.9174    3.5381   -2.1672 C   0  0  0  0  0  0  0  0  0  0  0  0
    3.1613    4.5179   -2.7900 N   0  0  0  0  0  0  0  0  0  0  0  0
    2.4719    4.7147   -3.9790 C   0  0  0  0  0  0  0  0  0  0  0  0
    1.8934    5.9397   -4.0360 C   0  0  0  0  0  0  0  0  0  0  0  0
    2.1875    6.9068   -2.5947 S   0  0  0  0  0  0  0  0  0  0  0  0
    3.1212    5.5876   -1.9160 C   0  0  0  0  0  0  0  0  0  0  0  0
    3.7797    5.3695   -0.8059 N   0  0  0  0  0  0  0  0  0  0  0  0
    4.8669    0.9682    0.0357 C   0  0  0  0  0  0  0  0  0  0  0  0
    3.5775    0.7686    0.5522 C   0  0  0  0  0  0  0  0  0  0  0  0
    3.5094   -2.6503    0.2782 H   0  0  0  0  0  0  0  0  0  0  0  0
    5.7900   -2.2740   -0.6436 H   0  0  0  0  0  0  0  0  0  0  0  0
    7.7789   -0.0613   -1.2762 H   0  0  0  0  0  0  0  0  0  0  0  0
    7.5211    2.6148   -0.9197 H   0  0  0  0  0  0  0  0  0  0  0  0
    5.9810    4.1216    0.3467 H   0  0  0  0  0  0  0  0  0  0  0  0
    4.5244    3.4654    1.0809 H   0  0  0  0  0  0  0  0  0  0  0  0
    4.1183    2.5696   -2.6149 H   0  0  0  0  0  0  0  0  0  0  0  0
    2.4374    3.9331   -4.7361 H   0  0  0  0  0  0  0  0  0  0  0  0
    1.2979    6.3413   -4.8531 H   0  0  0  0  0  0  0  0  0  0  0  0
    2.9478    1.5972    0.8771 H   0  0  0  0  0  0  0  0  0  0  0  0
  1  2  1  0
  2  3  2  0
  2 19  1  0
  3  4  1  0
  3 20  1  0
  4  5  2  0
  4 21  1  0
  5  6  1  0
  5 18  1  0
  6  7  2  0
  6 22  1  0
  7  8  1  0
  7 23  1  0
  8  9  1  0
  8 18  1  0
  9 10  1  0
  9 24  1  0
  9 25  1  0
 10 11  2  0
 10 17  1  0
 11 12  1  0
 11 26  1  0
 12 13  1  0
 12 16  1  0
 13 14  2  0
 13 27  1  0
 14 15  1  0
 14 28  1  0
 15 16  1  0
 16 17  2  0
 18 19  2  0
 19 29  1  0
M  END

