
     RDKit          3D

 54 56  0  0  0  0  0  0  0  0999 V2000
    0.5340   -0.1394   -1.7837 C   0  0  0  0  0  0  0  0  0  0  0  0
    1.8068    0.6076   -2.1682 C   0  0  0  0  0  0  0  0  0  0  0  0
    2.9755    0.2842   -1.2392 C   0  0  0  0  0  0  0  0  0  0  0  0
    2.8444   -0.4606   -0.2786 O   0  0  0  0  0  0  0  0  0  0  0  0
    4.1915    0.8679   -1.5382 N   0  0  0  0  0  0  0  0  0  0  0  0
    5.3502    0.5567   -0.6813 C   0  0  0  0  0  0  0  0  0  0  0  0
    5.6018    1.5694    0.4203 C   0  0  0  0  0  0  0  0  0  0  0  0
    4.7630    1.6120    1.5483 C   0  0  0  0  0  0  0  0  0  0  0  0
    4.9833    2.5492    2.5598 C   0  0  0  0  0  0  0  0  0  0  0  0
    6.0453    3.4561    2.4633 C   0  0  0  0  0  0  0  0  0  0  0  0
    6.8862    3.4193    1.3484 C   0  0  0  0  0  0  0  0  0  0  0  0
    6.6632    2.4815    0.3343 C   0  0  0  0  0  0  0  0  0  0  0  0
    4.3846    1.7954   -2.6131 C   0  0  0  0  0  0  0  0  0  0  0  0
    4.1791    3.1702   -2.4229 C   0  0  0  0  0  0  0  0  0  0  0  0
    4.3898    4.0704   -3.4682 C   0  0  0  0  0  0  0  0  0  0  0  0
    4.8206    3.6207   -4.7278 C   0  0  0  0  0  0  0  0  0  0  0  0
    5.0451    4.5967   -5.8670 C   0  0  0  0  0  0  0  0  0  0  0  0
    6.0612    5.6937   -5.5274 C   0  0  0  0  0  0  0  0  0  0  0  0
    5.8426    6.5344   -4.6662 O   0  0  0  0  0  0  0  0  0  0  0  0
    7.2121    5.6655   -6.2435 N   0  0  0  0  0  0  0  0  0  0  0  0
    8.2652    6.6262   -6.0298 C   0  0  0  0  0  0  0  0  0  0  0  0
    9.4343    6.3569   -6.9579 C   0  0  0  0  0  0  0  0  0  0  0  0
   10.5729    7.1790   -6.9277 C   0  0  0  0  0  0  0  0  0  0  0  0
   11.6269    6.8993   -7.7937 C   0  0  0  0  0  0  0  0  0  0  0  0
   11.5169    5.8097   -8.6646 C   0  0  0  0  0  0  0  0  0  0  0  0
   10.3477    5.0510   -8.6222 C   0  0  0  0  0  0  0  0  0  0  0  0
    9.3340    5.3177   -7.7912 N   0  0  0  0  0  0  0  0  0  0  0  0
    5.0374    2.2466   -4.9072 C   0  0  0  0  0  0  0  0  0  0  0  0
    4.8228    1.3422   -3.8643 C   0  0  0  0  0  0  0  0  0  0  0  0
   -0.2900    0.1238   -2.4649 H   0  0  0  0  0  0  0  0  0  0  0  0
    0.2288    0.1035   -0.7554 H   0  0  0  0  0  0  0  0  0  0  0  0
    0.6853   -1.2284   -1.8243 H   0  0  0  0  0  0  0  0  0  0  0  0
    1.6426    1.6985   -2.1540 H   0  0  0  0  0  0  0  0  0  0  0  0
    2.1030    0.3800   -3.2059 H   0  0  0  0  0  0  0  0  0  0  0  0
    6.2362    0.4821   -1.3295 H   0  0  0  0  0  0  0  0  0  0  0  0
    5.1523   -0.4305   -0.2419 H   0  0  0  0  0  0  0  0  0  0  0  0
    3.9373    0.8997    1.6200 H   0  0  0  0  0  0  0  0  0  0  0  0
    4.3255    2.5693    3.4329 H   0  0  0  0  0  0  0  0  0  0  0  0
    6.2173    4.1875    3.2573 H   0  0  0  0  0  0  0  0  0  0  0  0
    7.7186    4.1231    1.2650 H   0  0  0  0  0  0  0  0  0  0  0  0
    7.3247    2.4582   -0.5367 H   0  0  0  0  0  0  0  0  0  0  0  0
    3.8520    3.5286   -1.4446 H   0  0  0  0  0  0  0  0  0  0  0  0
    4.2448    5.1407   -3.3106 H   0  0  0  0  0  0  0  0  0  0  0  0
    4.1019    5.1227   -6.0918 H   0  0  0  0  0  0  0  0  0  0  0  0
    5.3398    4.0521   -6.7765 H   0  0  0  0  0  0  0  0  0  0  0  0
    7.4075    4.9626   -6.9527 H   0  0  0  0  0  0  0  0  0  0  0  0
    8.6084    6.6010   -4.9786 H   0  0  0  0  0  0  0  0  0  0  0  0
    7.8918    7.6553   -6.1871 H   0  0  0  0  0  0  0  0  0  0  0  0
   10.6230    8.0216   -6.2334 H   0  0  0  0  0  0  0  0  0  0  0  0
   12.5250    7.5223   -7.7918 H   0  0  0  0  0  0  0  0  0  0  0  0
   12.3187    5.5538   -9.3605 H   0  0  0  0  0  0  0  0  0  0  0  0
   10.2194    4.1889   -9.2867 H   0  0  0  0  0  0  0  0  0  0  0  0
    5.3747    1.8738   -5.8786 H   0  0  0  0  0  0  0  0  0  0  0  0
    4.9919    0.2732   -4.0160 H   0  0  0  0  0  0  0  0  0  0  0  0
  1  2  1  0
  1 30  1  0
  1 31  1  0
  1 32  1  0
  2  3  1  0
  2 33  1  0
  2 34  1  0
  3  4  2  0
  3  5  1  0
  5  6  1  0
  5 13  1  0
  6  7  1  0
  6 35  1  0
  6 36  1  0
  7  8  2  0
  7 12  1  0
  8  9  1  0
  8 37  1  0
  9 10  2  0
  9 38  1  0
 10 11  1  0
 10 39  1  0
 11 12  2  0
 11 40  1  0
 12 41  1  0
 13 14  2  0
 13 29  1  0
 14 15  1  0
 14 42  1  0
 15 16  2  0
 15 43  1  0
 16 17  1  0
 16 28  1  0
 17 18  1  0
 17 44  1  0
 17 45  1  0
 18 19  2  0
 18 20  1  0
 20 21  1  0
 20 46  1  0
 21 22  1  0
 21 47  1  0
 21 48  1  0
 22 23  2  0
 22 27  1  0
 23 24  1  0
 23 49  1  0
 24 25  2  0
 24 50  1  0
 25 26  1  0
 25 51  1  0
 26 27  2  0
 26 52  1  0
 28 29  2  0
 28 53  1  0
 29 54  1  0
M  END

