
     RDKit          3D

 49 50  0  0  0  0  0  0  0  0999 V2000
    4.7850    2.6271    1.1214 C   0  0  0  0  0  0  0  0  0  0  0  0
    3.6089    2.1031    0.2954 C   0  0  1  0  0  0  0  0  0  0  0  0
    2.7367    3.1748   -0.0649 O   0  0  0  0  0  0  0  0  0  0  0  0
    1.5748    3.3313    0.6225 C   0  0  0  0  0  0  0  0  0  0  0  0
    1.4111    4.4627    1.4339 C   0  0  0  0  0  0  0  0  0  0  0  0
    0.2182    4.7065    2.1137 C   0  0  0  0  0  0  0  0  0  0  0  0
   -0.8348    3.7961    1.9902 C   0  0  0  0  0  0  0  0  0  0  0  0
   -2.3352    4.0783    2.8410 Cl  0  0  0  0  0  0  0  0  0  0  0  0
   -0.7076    2.6620    1.1849 C   0  0  0  0  0  0  0  0  0  0  0  0
    0.4905    2.4382    0.5024 C   0  0  0  0  0  0  0  0  0  0  0  0
    0.6182    1.0440   -0.5439 Cl  0  0  0  0  0  0  0  0  0  0  0  0
    4.1125    1.4546   -0.9879 C   0  0  0  0  0  0  0  0  0  0  0  0
    4.1479    1.9514   -2.0781 O   0  0  0  0  0  0  0  0  0  0  0  0
    4.5724    0.2070   -0.7105 O   0  0  0  0  0  0  0  0  0  0  0  0
    5.2883   -0.4296   -1.7454 C   0  0  0  0  0  0  0  0  0  0  0  0
    6.7113    0.1497   -1.8546 C   0  0  0  0  0  0  0  0  0  0  0  0
    7.1512    0.9230   -1.0290 O   0  0  0  0  0  0  0  0  0  0  0  0
    7.3964   -0.3232   -2.9454 N   0  0  0  0  0  0  0  0  0  0  0  0
    8.7240   -0.0665   -3.3404 C   0  0  0  0  0  0  0  0  0  0  0  0
    9.1997   -0.7188   -4.4938 C   0  0  0  0  0  0  0  0  0  0  0  0
   10.4974   -0.5057   -4.9432 C   0  0  0  0  0  0  0  0  0  0  0  0
   11.3725    0.3373   -4.2397 C   0  0  0  0  0  0  0  0  0  0  0  0
   12.7290    0.5991   -4.8432 C   0  0  0  0  0  0  0  0  0  0  0  0
   12.8333    0.7199   -6.0567 O   0  0  0  0  0  0  0  0  0  0  0  0
   13.8143    0.7327   -4.0023 N   0  0  0  0  0  0  0  0  0  0  0  0
   13.8962    0.2212   -2.6461 C   0  0  0  0  0  0  0  0  0  0  0  0
   15.0788    1.1548   -4.5808 C   0  0  0  0  0  0  0  0  0  0  0  0
   10.8850    0.9958   -3.1011 C   0  0  0  0  0  0  0  0  0  0  0  0
    9.5778    0.8090   -2.6480 C   0  0  0  0  0  0  0  0  0  0  0  0
    4.4202    3.0445    2.0721 H   0  0  0  0  0  0  0  0  0  0  0  0
    5.3105    3.4148    0.5620 H   0  0  0  0  0  0  0  0  0  0  0  0
    5.4976    1.8169    1.3308 H   0  0  0  0  0  0  0  0  0  0  0  0
    3.0630    1.3335    0.8631 H   0  0  0  0  0  0  0  0  0  0  0  0
    2.2487    5.1591    1.5083 H   0  0  0  0  0  0  0  0  0  0  0  0
    0.1033    5.5926    2.7394 H   0  0  0  0  0  0  0  0  0  0  0  0
   -1.5350    1.9610    1.0763 H   0  0  0  0  0  0  0  0  0  0  0  0
    4.7626   -0.3257   -2.7088 H   0  0  0  0  0  0  0  0  0  0  0  0
    5.3446   -1.4951   -1.4736 H   0  0  0  0  0  0  0  0  0  0  0  0
    6.8817   -0.9387   -3.5664 H   0  0  0  0  0  0  0  0  0  0  0  0
    8.5378   -1.3909   -5.0487 H   0  0  0  0  0  0  0  0  0  0  0  0
   10.8500   -0.9854   -5.8582 H   0  0  0  0  0  0  0  0  0  0  0  0
   12.9766   -0.3024   -2.3635 H   0  0  0  0  0  0  0  0  0  0  0  0
   14.0813    1.0277   -1.9132 H   0  0  0  0  0  0  0  0  0  0  0  0
   14.7320   -0.4978   -2.5662 H   0  0  0  0  0  0  0  0  0  0  0  0
   14.8934    1.5940   -5.5674 H   0  0  0  0  0  0  0  0  0  0  0  0
   15.7725    0.3019   -4.7042 H   0  0  0  0  0  0  0  0  0  0  0  0
   15.5638    1.8974   -3.9247 H   0  0  0  0  0  0  0  0  0  0  0  0
   11.5256    1.6963   -2.5607 H   0  0  0  0  0  0  0  0  0  0  0  0
    9.2085    1.3360   -1.7717 H   0  0  0  0  0  0  0  0  0  0  0  0
  1  2  1  0
  1 30  1  0
  1 31  1  0
  1 32  1  0
  2  3  1  0
  2 12  1  0
  2 33  1  1
  3  4  1  0
  4  5  2  0
  4 10  1  0
  5  6  1  0
  5 34  1  0
  6  7  2  0
  6 35  1  0
  7  8  1  0
  7  9  1  0
  9 10  2  0
  9 36  1  0
 10 11  1  0
 12 13  2  0
 12 14  1  0
 14 15  1  0
 15 16  1  0
 15 37  1  0
 15 38  1  0
 16 17  2  0
 16 18  1  0
 18 19  1  0
 18 39  1  0
 19 20  2  0
 19 29  1  0
 20 21  1  0
 20 40  1  0
 21 22  2  0
 21 41  1  0
 22 23  1  0
 22 28  1  0
 23 24  2  0
 23 25  1  0
 25 26  1  0
 25 27  1  0
 26 42  1  0
 26 43  1  0
 26 44  1  0
 27 45  1  0
 27 46  1  0
 27 47  1  0
 28 29  2  0
 28 48  1  0
 29 49  1  0
M  END

