
     RDKit          3D

 43 43  0  0  0  0  0  0  0  0999 V2000
    1.0582   -0.6844   -0.0442 C   0  0  0  0  0  0  0  0  0  0  0  0
    2.5565   -0.3830   -0.0973 C   0  0  0  0  0  0  0  0  0  0  0  0
    2.9155    0.7799   -1.0279 C   0  0  0  0  0  0  0  0  0  0  0  0
    4.4180    1.0696   -1.0825 C   0  0  0  0  0  0  0  0  0  0  0  0
    4.8084    2.2194   -2.0283 C   0  0  1  0  0  0  0  0  0  0  0  0
    4.2905    3.5443   -1.4964 C   0  0  0  0  0  0  0  0  0  0  0  0
    4.6217    4.0316   -0.4412 O   0  0  0  0  0  0  0  0  0  0  0  0
    3.4157    4.1296   -2.3357 O   0  0  0  0  0  0  0  0  0  0  0  0
    2.8982    5.3955   -1.9244 C   0  0  0  0  0  0  0  0  0  0  0  0
    6.3526    2.3112   -2.1926 C   0  0  1  0  0  0  0  0  0  0  0  0
    6.8919    1.0697   -2.6253 O   0  0  0  0  0  0  0  0  0  0  0  0
    6.7974    3.4547   -3.0912 C   0  0  0  0  0  0  0  0  0  0  0  0
    7.6877    4.4315   -2.6244 C   0  0  0  0  0  0  0  0  0  0  0  0
    8.1240    5.4646   -3.4570 C   0  0  0  0  0  0  0  0  0  0  0  0
    7.6902    5.5578   -4.7882 C   0  0  0  0  0  0  0  0  0  0  0  0
    8.1996    6.6503   -5.7035 C   0  0  0  0  0  0  0  0  0  0  0  0
    9.4781    6.2593   -6.4614 C   0  0  0  0  0  0  0  0  0  0  0  0
    6.7958    4.5804   -5.2533 C   0  0  0  0  0  0  0  0  0  0  0  0
    6.3527    3.5518   -4.4201 C   0  0  0  0  0  0  0  0  0  0  0  0
    0.8374   -1.5237    0.6345 H   0  0  0  0  0  0  0  0  0  0  0  0
    0.6665   -0.9506   -1.0405 H   0  0  0  0  0  0  0  0  0  0  0  0
    0.4859    0.1893    0.3106 H   0  0  0  0  0  0  0  0  0  0  0  0
    3.1051   -1.2864   -0.4205 H   0  0  0  0  0  0  0  0  0  0  0  0
    2.9248   -0.1583    0.9201 H   0  0  0  0  0  0  0  0  0  0  0  0
    2.3678    1.6834   -0.7016 H   0  0  0  0  0  0  0  0  0  0  0  0
    2.5463    0.5587   -2.0469 H   0  0  0  0  0  0  0  0  0  0  0  0
    4.9632    0.1719   -1.4132 H   0  0  0  0  0  0  0  0  0  0  0  0
    4.7887    1.3120   -0.0714 H   0  0  0  0  0  0  0  0  0  0  0  0
    4.3540    2.0470   -3.0173 H   0  0  0  0  0  0  0  0  0  0  0  0
    2.2056    5.7142   -2.7132 H   0  0  0  0  0  0  0  0  0  0  0  0
    3.7100    6.1296   -1.8099 H   0  0  0  0  0  0  0  0  0  0  0  0
    2.3694    5.3098   -0.9629 H   0  0  0  0  0  0  0  0  0  0  0  0
    6.7690    2.4804   -1.1876 H   0  0  0  0  0  0  0  0  0  0  0  0
    6.8054    1.0227   -3.5867 H   0  0  0  0  0  0  0  0  0  0  0  0
    8.0393    4.3846   -1.5903 H   0  0  0  0  0  0  0  0  0  0  0  0
    8.8144    6.2162   -3.0624 H   0  0  0  0  0  0  0  0  0  0  0  0
    8.3925    7.5611   -5.1119 H   0  0  0  0  0  0  0  0  0  0  0  0
    7.4129    6.9138   -6.4306 H   0  0  0  0  0  0  0  0  0  0  0  0
   10.2966    6.0209   -5.7633 H   0  0  0  0  0  0  0  0  0  0  0  0
    9.8173    7.0789   -7.1153 H   0  0  0  0  0  0  0  0  0  0  0  0
    9.3112    5.3701   -7.0904 H   0  0  0  0  0  0  0  0  0  0  0  0
    6.4296    4.6329   -6.2831 H   0  0  0  0  0  0  0  0  0  0  0  0
    5.6401    2.8225   -4.8179 H   0  0  0  0  0  0  0  0  0  0  0  0
  1  2  1  0
  1 20  1  0
  1 21  1  0
  1 22  1  0
  2  3  1  0
  2 23  1  0
  2 24  1  0
  3  4  1  0
  3 25  1  0
  3 26  1  0
  4  5  1  0
  4 27  1  0
  4 28  1  0
  5  6  1  0
  5 10  1  0
  5 29  1  6
  6  7  2  0
  6  8  1  0
  8  9  1  0
  9 30  1  0
  9 31  1  0
  9 32  1  0
 10 11  1  0
 10 12  1  0
 10 33  1  1
 11 34  1  0
 12 13  2  0
 12 19  1  0
 13 14  1  0
 13 35  1  0
 14 15  2  0
 14 36  1  0
 15 16  1  0
 15 18  1  0
 16 17  1  0
 16 37  1  0
 16 38  1  0
 17 39  1  0
 17 40  1  0
 17 41  1  0
 18 19  2  0
 18 42  1  0
 19 43  1  0
M  END

