
     RDKit          3D

 50 53  0  0  0  0  0  0  0  0999 V2000
    3.5670    2.6933   -5.4361 C   0  0  0  0  0  0  0  0  0  0  0  0
    4.5244    1.9831   -4.4934 C   0  0  0  0  0  0  0  0  0  0  0  0
    5.1740    1.0149   -4.8456 O   0  0  0  0  0  0  0  0  0  0  0  0
    4.6138    2.5068   -3.2157 N   0  0  0  0  0  0  0  0  0  0  0  0
    3.8130    3.6437   -2.7170 C   0  0  0  0  0  0  0  0  0  0  0  0
    4.4146    3.9847   -1.3344 C   0  0  0  0  0  0  0  0  0  0  0  0
    5.2900    2.7936   -1.0260 C   0  0  0  0  0  0  0  0  0  0  0  0
    5.9626    2.4654    0.1444 C   0  0  0  0  0  0  0  0  0  0  0  0
    6.7588    1.3111    0.1803 C   0  0  0  0  0  0  0  0  0  0  0  0
    6.8617    0.5248   -0.9678 C   0  0  0  0  0  0  0  0  0  0  0  0
    7.8425   -0.9851   -0.8963 S   0  0  1  0  0  0  0  0  0  0  0  0
    8.4044   -1.0580    0.4608 O   0  0  0  0  0  0  0  0  0  0  0  0
    7.0311   -2.0837   -1.4272 O   0  0  0  0  0  0  0  0  0  0  0  0
    9.0646   -0.6965   -2.0189 N   0  0  0  0  0  0  0  0  0  0  0  0
   10.2275    0.0727   -1.5606 C   0  0  0  0  0  0  0  0  0  0  0  0
   11.3514   -0.8381   -1.0567 C   0  0  0  0  0  0  0  0  0  0  0  0
   11.7123   -1.8995   -2.1026 C   0  0  0  0  0  0  0  0  0  0  0  0
   10.4714   -2.6944   -2.5634 C   0  0  2  0  0  0  0  0  0  0  0  0
   10.8067   -3.6637   -3.6572 C   0  0  0  0  0  0  0  0  0  0  0  0
   10.6689   -4.9759   -3.5273 N   0  0  0  0  0  0  0  0  0  0  0  0
   11.0744   -5.4308   -4.7314 N   0  0  0  0  0  0  0  0  0  0  0  0
   11.0721   -6.4252   -4.9280 H   0  0  0  0  0  0  0  0  0  0  0  0
   11.4360   -4.4039   -5.5399 C   0  0  0  0  0  0  0  0  0  0  0  0
   11.9358   -4.5696   -6.9371 C   0  0  0  0  0  0  0  0  0  0  0  0
   11.2763   -3.2701   -4.8805 N   0  0  0  0  0  0  0  0  0  0  0  0
    9.3608   -1.7232   -3.0224 C   0  0  0  0  0  0  0  0  0  0  0  0
    6.1892    0.8255   -2.1607 C   0  0  0  0  0  0  0  0  0  0  0  0
    5.3999    1.9774   -2.1693 C   0  0  0  0  0  0  0  0  0  0  0  0
    3.5689    2.1469   -6.3866 H   0  0  0  0  0  0  0  0  0  0  0  0
    3.8791    3.7342   -5.6191 H   0  0  0  0  0  0  0  0  0  0  0  0
    2.5418    2.7206   -5.0338 H   0  0  0  0  0  0  0  0  0  0  0  0
    2.7528    3.3483   -2.6284 H   0  0  0  0  0  0  0  0  0  0  0  0
    3.8622    4.4928   -3.4129 H   0  0  0  0  0  0  0  0  0  0  0  0
    3.6335    4.1491   -0.5767 H   0  0  0  0  0  0  0  0  0  0  0  0
    5.0186    4.9076   -1.3774 H   0  0  0  0  0  0  0  0  0  0  0  0
    5.8734    3.0968    1.0323 H   0  0  0  0  0  0  0  0  0  0  0  0
    7.2926    1.0125    1.0831 H   0  0  0  0  0  0  0  0  0  0  0  0
    9.9079    0.7776   -0.7799 H   0  0  0  0  0  0  0  0  0  0  0  0
   10.5767    0.6754   -2.4188 H   0  0  0  0  0  0  0  0  0  0  0  0
   11.0117   -1.3208   -0.1258 H   0  0  0  0  0  0  0  0  0  0  0  0
   12.2363   -0.2282   -0.8073 H   0  0  0  0  0  0  0  0  0  0  0  0
   12.4685   -2.5939   -1.7010 H   0  0  0  0  0  0  0  0  0  0  0  0
   12.1645   -1.4196   -2.9889 H   0  0  0  0  0  0  0  0  0  0  0  0
   10.0806   -3.2838   -1.7183 H   0  0  0  0  0  0  0  0  0  0  0  0
   11.8773   -5.6171   -7.2672 H   0  0  0  0  0  0  0  0  0  0  0  0
   12.9836   -4.2388   -7.0156 H   0  0  0  0  0  0  0  0  0  0  0  0
   11.3445   -3.9508   -7.6286 H   0  0  0  0  0  0  0  0  0  0  0  0
    8.4374   -2.2696   -3.2496 H   0  0  0  0  0  0  0  0  0  0  0  0
    9.6863   -1.2081   -3.9425 H   0  0  0  0  0  0  0  0  0  0  0  0
    6.2693    0.1982   -3.0447 H   0  0  0  0  0  0  0  0  0  0  0  0
  1  2  1  0
  1 29  1  0
  1 30  1  0
  1 31  1  0
  2  3  2  0
  2  4  1  0
  4  5  1  0
  4 28  1  0
  5  6  1  0
  5 32  1  0
  5 33  1  0
  6  7  1  0
  6 34  1  0
  6 35  1  0
  7  8  2  0
  7 28  1  0
  8  9  1  0
  8 36  1  0
  9 10  2  0
  9 37  1  0
 11 10  1  1
 10 27  1  0
 11 12  2  0
 11 13  2  0
 11 14  1  0
 14 15  1  0
 14 26  1  0
 15 16  1  0
 15 38  1  0
 15 39  1  0
 16 17  1  0
 16 40  1  0
 16 41  1  0
 17 18  1  0
 17 42  1  0
 17 43  1  0
 18 19  1  0
 18 26  1  0
 18 44  1  1
 19 20  2  0
 19 25  1  0
 20 21  1  0
 21 22  1  0
 21 23  1  0
 23 24  1  0
 23 25  2  0
 24 45  1  0
 24 46  1  0
 24 47  1  0
 26 48  1  0
 26 49  1  0
 27 28  2  0
 27 50  1  0
M  END

