
     RDKit          3D

 38 38  0  0  0  0  0  0  0  0999 V2000
    2.5068    2.0635    2.6687 C   0  0  0  0  0  0  0  0  0  0  0  0
    3.1549    1.2494    1.5853 C   0  0  0  0  0  0  0  0  0  0  0  0
    3.0850   -0.0759    1.3885 C   0  0  0  0  0  0  0  0  0  0  0  0
    2.3395   -1.1095    2.1982 C   0  0  1  0  0  0  0  0  0  0  0  0
    1.2446   -1.7696    1.3433 C   0  0  0  0  0  0  0  0  0  0  0  0
    3.3563   -2.1380    2.7786 C   0  0  0  0  0  0  0  0  0  0  0  0
    2.7751   -3.2050    3.6846 C   0  0  0  0  0  0  0  0  0  0  0  0
    2.4451   -4.4693    3.1466 C   0  0  0  0  0  0  0  0  0  0  0  0
    2.6819   -4.6369    1.8146 O   0  0  0  0  0  0  0  0  0  0  0  0
    2.4051   -5.8755    1.2044 C   0  0  0  0  0  0  0  0  0  0  0  0
    1.9141   -5.4783    3.9568 C   0  0  0  0  0  0  0  0  0  0  0  0
    1.6984   -5.2704    5.3250 C   0  0  0  0  0  0  0  0  0  0  0  0
    1.1242   -6.3686    6.1823 C   0  0  0  0  0  0  0  0  0  0  0  0
    2.0406   -4.0170    5.8532 C   0  0  0  0  0  0  0  0  0  0  0  0
    1.7906   -3.7730    7.5853 Cl  0  0  0  0  0  0  0  0  0  0  0  0
    2.5731   -2.9766    5.0635 C   0  0  0  0  0  0  0  0  0  0  0  0
    2.9647   -1.6509    5.6745 C   0  0  0  0  0  0  0  0  0  0  0  0
    3.2650    2.6085    3.2585 H   0  0  0  0  0  0  0  0  0  0  0  0
    1.9097    1.4585    3.3659 H   0  0  0  0  0  0  0  0  0  0  0  0
    1.8417    2.8324    2.2373 H   0  0  0  0  0  0  0  0  0  0  0  0
    3.7554    1.8278    0.8713 H   0  0  0  0  0  0  0  0  0  0  0  0
    3.6323   -0.4860    0.5285 H   0  0  0  0  0  0  0  0  0  0  0  0
    1.8419   -0.6114    3.0459 H   0  0  0  0  0  0  0  0  0  0  0  0
    1.6775   -2.2790    0.4675 H   0  0  0  0  0  0  0  0  0  0  0  0
    0.5320   -1.0128    0.9792 H   0  0  0  0  0  0  0  0  0  0  0  0
    0.6815   -2.5186    1.9212 H   0  0  0  0  0  0  0  0  0  0  0  0
    4.1295   -1.5746    3.3225 H   0  0  0  0  0  0  0  0  0  0  0  0
    3.8643   -2.6300    1.9357 H   0  0  0  0  0  0  0  0  0  0  0  0
    2.6851   -5.7726    0.1472 H   0  0  0  0  0  0  0  0  0  0  0  0
    1.3328   -6.1356    1.2648 H   0  0  0  0  0  0  0  0  0  0  0  0
    2.9941   -6.6968    1.6513 H   0  0  0  0  0  0  0  0  0  0  0  0
    1.6577   -6.4503    3.5358 H   0  0  0  0  0  0  0  0  0  0  0  0
    0.9178   -7.2682    5.5848 H   0  0  0  0  0  0  0  0  0  0  0  0
    0.1865   -6.0496    6.6657 H   0  0  0  0  0  0  0  0  0  0  0  0
    1.8147   -6.6429    6.9964 H   0  0  0  0  0  0  0  0  0  0  0  0
    2.5699   -1.5446    6.6908 H   0  0  0  0  0  0  0  0  0  0  0  0
    2.6023   -0.8032    5.0767 H   0  0  0  0  0  0  0  0  0  0  0  0
    4.0630   -1.5565    5.7330 H   0  0  0  0  0  0  0  0  0  0  0  0
  1  2  1  0
  1 18  1  0
  1 19  1  0
  1 20  1  0
  2  3  2  0
  2 21  1  0
  3  4  1  0
  3 22  1  0
  4  5  1  0
  4  6  1  0
  4 23  1  1
  5 24  1  0
  5 25  1  0
  5 26  1  0
  6  7  1  0
  6 27  1  0
  6 28  1  0
  7  8  2  0
  7 16  1  0
  8  9  1  0
  8 11  1  0
  9 10  1  0
 10 29  1  0
 10 30  1  0
 10 31  1  0
 11 12  2  0
 11 32  1  0
 12 13  1  0
 12 14  1  0
 13 33  1  0
 13 34  1  0
 13 35  1  0
 14 15  1  0
 14 16  2  0
 16 17  1  0
 17 36  1  0
 17 37  1  0
 17 38  1  0
M  END

