
     RDKit          3D

 66 69  0  0  0  0  0  0  0  0999 V2000
    5.2540    0.1059   -2.4377 N   0  0  0  0  0  0  0  0  0  0  0  0
    4.5130    0.0993   -1.5444 C   0  0  0  0  0  0  0  0  0  0  0  0
    3.6478    0.0721   -0.3213 C   0  0  1  0  0  0  0  0  0  0  0  0
    3.9313    1.4085    0.4481 C   0  0  0  0  0  0  0  0  0  0  0  0
    3.5478    2.7750   -0.2088 C   0  0  1  0  0  0  0  0  0  0  0  0
    3.5256    2.7035   -1.6281 O   0  0  0  0  0  0  0  0  0  0  0  0
    2.0900    3.2150    0.1486 C   0  0  0  0  0  0  0  0  0  0  0  0
    1.8743    3.5043    1.5572 N   0  0  0  0  0  0  0  0  0  0  0  0
    1.8032    4.9253    1.9093 C   0  0  0  0  0  0  0  0  0  0  0  0
    0.4267    5.5545    1.6341 C   0  0  0  0  0  0  0  0  0  0  0  0
   -0.6868    4.7600    2.3294 C   0  0  0  0  0  0  0  0  0  0  0  0
   -0.5951    3.2713    1.9694 C   0  0  0  0  0  0  0  0  0  0  0  0
    0.8241    2.7387    2.2292 C   0  0  0  0  0  0  0  0  0  0  0  0
    4.5370    3.8599    0.2489 C   0  0  0  0  0  0  0  0  0  0  0  0
    4.9286    4.8702   -0.6435 C   0  0  0  0  0  0  0  0  0  0  0  0
    5.7993    5.8909   -0.2529 C   0  0  0  0  0  0  0  0  0  0  0  0
    6.2867    5.9130    1.0552 C   0  0  0  0  0  0  0  0  0  0  0  0
    7.3804    7.1840    1.5564 Cl  0  0  0  0  0  0  0  0  0  0  0  0
    5.9062    4.9256    1.9680 C   0  0  0  0  0  0  0  0  0  0  0  0
    5.0379    3.9108    1.5612 C   0  0  0  0  0  0  0  0  0  0  0  0
    2.1598   -0.0629   -0.7285 C   0  0  0  0  0  0  0  0  0  0  0  0
    1.7029    0.1986   -2.0265 C   0  0  0  0  0  0  0  0  0  0  0  0
    0.3441    0.0834   -2.3382 C   0  0  0  0  0  0  0  0  0  0  0  0
   -0.5763   -0.2967   -1.3588 C   0  0  0  0  0  0  0  0  0  0  0  0
   -0.1261   -0.5700   -0.0629 C   0  0  0  0  0  0  0  0  0  0  0  0
    1.2310   -0.4575    0.2472 C   0  0  0  0  0  0  0  0  0  0  0  0
    3.9973   -1.0788    0.5322 N   0  0  0  0  0  0  0  0  0  0  0  0
    3.8256   -2.4201   -0.0447 C   0  0  0  0  0  0  0  0  0  0  0  0
    5.1023   -3.0205   -0.6610 C   0  0  0  0  0  0  0  0  0  0  0  0
    6.2772   -2.9693    0.3240 C   0  0  0  0  0  0  0  0  0  0  0  0
    6.4491   -1.5539    0.8894 C   0  0  0  0  0  0  0  0  0  0  0  0
    5.1182   -1.0546    1.4742 C   0  0  0  0  0  0  0  0  0  0  0  0
    5.0112    1.4301    0.6416 H   0  0  0  0  0  0  0  0  0  0  0  0
    3.4331    1.3414    1.4268 H   0  0  0  0  0  0  0  0  0  0  0  0
    4.4015    2.4538   -1.9570 H   0  0  0  0  0  0  0  0  0  0  0  0
    1.4165    2.4169   -0.1939 H   0  0  0  0  0  0  0  0  0  0  0  0
    1.8782    4.0861   -0.4960 H   0  0  0  0  0  0  0  0  0  0  0  0
    2.5940    5.4701    1.3749 H   0  0  0  0  0  0  0  0  0  0  0  0
    2.0337    5.0231    2.9869 H   0  0  0  0  0  0  0  0  0  0  0  0
    0.2427    5.5724    0.5444 H   0  0  0  0  0  0  0  0  0  0  0  0
    0.4251    6.6065    1.9678 H   0  0  0  0  0  0  0  0  0  0  0  0
   -1.6788    5.1661    2.0692 H   0  0  0  0  0  0  0  0  0  0  0  0
   -0.5819    4.8736    3.4251 H   0  0  0  0  0  0  0  0  0  0  0  0
   -0.8488    3.1278    0.9034 H   0  0  0  0  0  0  0  0  0  0  0  0
   -1.3276    2.6820    2.5480 H   0  0  0  0  0  0  0  0  0  0  0  0
    0.8999    1.6838    1.9294 H   0  0  0  0  0  0  0  0  0  0  0  0
    1.0225    2.7731    3.3178 H   0  0  0  0  0  0  0  0  0  0  0  0
    4.5405    4.8588   -1.6632 H   0  0  0  0  0  0  0  0  0  0  0  0
    6.1000    6.6673   -0.9586 H   0  0  0  0  0  0  0  0  0  0  0  0
    6.2883    4.9554    2.9899 H   0  0  0  0  0  0  0  0  0  0  0  0
    4.7345    3.1618    2.2933 H   0  0  0  0  0  0  0  0  0  0  0  0
    2.4069    0.5063   -2.7998 H   0  0  0  0  0  0  0  0  0  0  0  0
    0.0072    0.2915   -3.3569 H   0  0  0  0  0  0  0  0  0  0  0  0
   -1.6372   -0.3888   -1.6049 H   0  0  0  0  0  0  0  0  0  0  0  0
   -0.8342   -0.8801    0.7100 H   0  0  0  0  0  0  0  0  0  0  0  0
    1.5897   -0.6985    1.2494 H   0  0  0  0  0  0  0  0  0  0  0  0
    3.0163   -2.3946   -0.7872 H   0  0  0  0  0  0  0  0  0  0  0  0
    3.4783   -3.0855    0.7697 H   0  0  0  0  0  0  0  0  0  0  0  0
    5.3671   -2.4731   -1.5792 H   0  0  0  0  0  0  0  0  0  0  0  0
    4.8946   -4.0615   -0.9624 H   0  0  0  0  0  0  0  0  0  0  0  0
    7.2051   -3.3138   -0.1616 H   0  0  0  0  0  0  0  0  0  0  0  0
    6.0848   -3.6670    1.1611 H   0  0  0  0  0  0  0  0  0  0  0  0
    6.7904   -0.8687    0.0943 H   0  0  0  0  0  0  0  0  0  0  0  0
    7.2222   -1.5400    1.6769 H   0  0  0  0  0  0  0  0  0  0  0  0
    5.2314   -0.0593    1.9183 H   0  0  0  0  0  0  0  0  0  0  0  0
    4.8380   -1.7239    2.3111 H   0  0  0  0  0  0  0  0  0  0  0  0
  1  2  3  0
  3  2  1  6
  3  4  1  0
  3 21  1  0
  3 27  1  0
  4  5  1  0
  4 33  1  0
  4 34  1  0
  5  6  1  6
  5  7  1  0
  5 14  1  0
  6 35  1  0
  7  8  1  0
  7 36  1  0
  7 37  1  0
  8  9  1  0
  8 13  1  0
  9 10  1  0
  9 38  1  0
  9 39  1  0
 10 11  1  0
 10 40  1  0
 10 41  1  0
 11 12  1  0
 11 42  1  0
 11 43  1  0
 12 13  1  0
 12 44  1  0
 12 45  1  0
 13 46  1  0
 13 47  1  0
 14 15  2  0
 14 20  1  0
 15 16  1  0
 15 48  1  0
 16 17  2  0
 16 49  1  0
 17 18  1  0
 17 19  1  0
 19 20  2  0
 19 50  1  0
 20 51  1  0
 21 22  2  0
 21 26  1  0
 22 23  1  0
 22 52  1  0
 23 24  2  0
 23 53  1  0
 24 25  1  0
 24 54  1  0
 25 26  2  0
 25 55  1  0
 26 56  1  0
 27 28  1  0
 27 32  1  0
 28 29  1  0
 28 57  1  0
 28 58  1  0
 29 30  1  0
 29 59  1  0
 29 60  1  0
 30 31  1  0
 30 61  1  0
 30 62  1  0
 31 32  1  0
 31 63  1  0
 31 64  1  0
 32 65  1  0
 32 66  1  0
M  END

