
     RDKit          3D

 40 40  0  0  0  0  0  0  0  0999 V2000
    4.2002    0.7724   -6.8914 C   0  0  0  0  0  0  0  0  0  0  0  0
    4.0481   -0.1100   -5.6643 C   0  0  0  0  0  0  0  0  0  0  0  0
    4.1258    0.6578   -4.4454 O   0  0  0  0  0  0  0  0  0  0  0  0
    5.3373    0.8967   -3.9273 C   0  0  0  0  0  0  0  0  0  0  0  0
    6.3722    0.5024   -4.4183 O   0  0  0  0  0  0  0  0  0  0  0  0
    5.2397    1.6849   -2.6354 C   0  0  0  0  0  0  0  0  0  0  0  0
    6.5892    2.2315   -2.1577 C   0  0  0  0  0  0  0  0  0  0  0  0
    7.0139    3.4839   -2.9293 C   0  0  0  0  0  0  0  0  0  0  0  0
    6.5130    4.5654   -2.6706 O   0  0  0  0  0  0  0  0  0  0  0  0
    7.9600    3.2565   -3.9019 N   0  0  0  0  0  0  0  0  0  0  0  0
    8.5887    4.1711   -4.7573 C   0  0  0  0  0  0  0  0  0  0  0  0
    8.3270    5.5548   -4.6605 C   0  0  0  0  0  0  0  0  0  0  0  0
    8.9676    6.4635   -5.4980 C   0  0  0  0  0  0  0  0  0  0  0  0
    9.8852    6.0313   -6.4612 C   0  0  0  0  0  0  0  0  0  0  0  0
   10.1471    4.6717   -6.5720 C   0  0  0  0  0  0  0  0  0  0  0  0
    9.5214    3.7219   -5.7417 C   0  0  0  0  0  0  0  0  0  0  0  0
    9.9158    2.3057   -6.0235 C   0  0  0  0  0  0  0  0  0  0  0  0
   10.6632    1.9776   -6.9163 O   0  0  0  0  0  0  0  0  0  0  0  0
    9.3520    1.3981   -5.1894 O   0  0  0  0  0  0  0  0  0  0  0  0
    9.5947   -0.0042   -5.4343 C   0  0  0  0  0  0  0  0  0  0  0  0
   10.8511   -0.4853   -4.7300 C   0  0  0  0  0  0  0  0  0  0  0  0
    4.0569    0.1713   -7.8036 H   0  0  0  0  0  0  0  0  0  0  0  0
    5.2043    1.2197   -6.9316 H   0  0  0  0  0  0  0  0  0  0  0  0
    3.4521    1.5802   -6.8907 H   0  0  0  0  0  0  0  0  0  0  0  0
    4.8193   -0.8940   -5.6413 H   0  0  0  0  0  0  0  0  0  0  0  0
    3.0555   -0.5816   -5.6307 H   0  0  0  0  0  0  0  0  0  0  0  0
    4.8095    1.0029   -1.8812 H   0  0  0  0  0  0  0  0  0  0  0  0
    4.5037    2.4946   -2.7599 H   0  0  0  0  0  0  0  0  0  0  0  0
    7.3504    1.4396   -2.2120 H   0  0  0  0  0  0  0  0  0  0  0  0
    6.4921    2.5483   -1.1095 H   0  0  0  0  0  0  0  0  0  0  0  0
    8.2134    2.2845   -4.0712 H   0  0  0  0  0  0  0  0  0  0  0  0
    7.6089    5.8906   -3.9172 H   0  0  0  0  0  0  0  0  0  0  0  0
    8.7416    7.5281   -5.3930 H   0  0  0  0  0  0  0  0  0  0  0  0
   10.3865    6.7459   -7.1175 H   0  0  0  0  0  0  0  0  0  0  0  0
   10.8509    4.2934   -7.3148 H   0  0  0  0  0  0  0  0  0  0  0  0
    9.6683   -0.1580   -6.5201 H   0  0  0  0  0  0  0  0  0  0  0  0
    8.6908   -0.4996   -5.0554 H   0  0  0  0  0  0  0  0  0  0  0  0
   11.7437    0.0133   -5.1357 H   0  0  0  0  0  0  0  0  0  0  0  0
   10.9675   -1.5709   -4.8788 H   0  0  0  0  0  0  0  0  0  0  0  0
   10.7981   -0.2930   -3.6468 H   0  0  0  0  0  0  0  0  0  0  0  0
  1  2  1  0
  1 22  1  0
  1 23  1  0
  1 24  1  0
  2  3  1  0
  2 25  1  0
  2 26  1  0
  3  4  1  0
  4  5  2  0
  4  6  1  0
  6  7  1  0
  6 27  1  0
  6 28  1  0
  7  8  1  0
  7 29  1  0
  7 30  1  0
  8  9  2  0
  8 10  1  0
 10 11  1  0
 10 31  1  0
 11 12  2  0
 11 16  1  0
 12 13  1  0
 12 32  1  0
 13 14  2  0
 13 33  1  0
 14 15  1  0
 14 34  1  0
 15 16  2  0
 15 35  1  0
 16 17  1  0
 17 18  2  0
 17 19  1  0
 19 20  1  0
 20 21  1  0
 20 36  1  0
 20 37  1  0
 21 38  1  0
 21 39  1  0
 21 40  1  0
M  END

