
     RDKit          3D

130138  0  0  0  0  0  0  0  0999 V2000
    5.7464   -1.9527    4.3734 C   0  0  0  0  0  0  0  0  0  0  0  0
    5.5654   -1.6093    2.8766 C   0  0  1  0  0  0  0  0  0  0  0  0
    6.8642   -0.9667    2.3363 C   0  0  0  0  0  0  0  0  0  0  0  0
    5.3252   -2.9229    2.1105 C   0  0  0  0  0  0  0  0  0  0  0  0
    4.3977   -0.6131    2.7151 C   0  0  0  0  0  0  0  0  0  0  0  0
    4.4501    0.6273    3.3672 C   0  0  0  0  0  0  0  0  0  0  0  0
    3.4187    1.5714    3.2337 C   0  0  0  0  0  0  0  0  0  0  0  0
    3.4853    2.8978    3.9127 C   0  0  0  0  0  0  0  0  0  0  0  0
    3.3723    4.0706    3.1197 C   0  0  0  0  0  0  0  0  0  0  0  0
    3.1645    5.4151    3.4858 C   0  0  0  0  0  0  0  0  0  0  0  0
    3.2907    6.1830    2.3009 C   0  0  0  0  0  0  0  0  0  0  0  0
    3.2280    7.5884    2.1351 C   0  0  0  0  0  0  0  0  0  0  0  0
    3.1237    8.1609    0.7682 C   0  0  0  0  0  0  0  0  0  0  0  0
    3.9602    9.2218    0.3636 C   0  0  0  0  0  0  0  0  0  0  0  0
    3.8779    9.7642   -0.9220 C   0  0  0  0  0  0  0  0  0  0  0  0
    4.7900   10.9132   -1.4004 C   0  0  1  0  0  0  0  0  0  0  0  0
    5.6193   10.4402   -2.6169 C   0  0  0  0  0  0  0  0  0  0  0  0
    3.9201   12.1239   -1.8113 C   0  0  0  0  0  0  0  0  0  0  0  0
    5.7682   11.3757   -0.3054 C   0  0  0  0  0  0  0  0  0  0  0  0
    2.9247    9.2184   -1.8045 C   0  0  0  0  0  0  0  0  0  0  0  0
    2.0799    8.1597   -1.4461 C   0  0  0  0  0  0  0  0  0  0  0  0
    1.0565    7.5381   -2.4185 C   0  0  1  0  0  0  0  0  0  0  0  0
    1.4362    6.0591   -2.6653 C   0  0  0  0  0  0  0  0  0  0  0  0
   -0.3589    7.6115   -1.8008 C   0  0  0  0  0  0  0  0  0  0  0  0
    1.0227    8.2620   -3.7764 C   0  0  0  0  0  0  0  0  0  0  0  0
    2.1993    7.6414   -0.1476 C   0  0  0  0  0  0  0  0  0  0  0  0
    3.2915    8.4813    3.2350 C   0  0  0  0  0  0  0  0  0  0  0  0
    2.9561    9.8716    3.2587 C   0  0  0  0  0  0  0  0  0  0  0  0
    3.1520   10.3451    4.5390 C   0  0  0  0  0  0  0  0  0  0  0  0
    3.6230    9.2584    5.3435 C   0  0  0  0  0  0  0  0  0  0  0  0
    3.6763    8.1623    4.5237 N   0  0  0  0  0  0  0  0  0  0  0  0
    4.0285    7.2701    4.8565 H   0  0  0  0  0  0  0  0  0  0  0  0
    3.9617    9.2642    6.7184 C   0  0  0  0  0  0  0  0  0  0  0  0
    3.9506   10.6059    7.3825 C   0  0  0  0  0  0  0  0  0  0  0  0
    3.0221   10.9010    8.3998 C   0  0  0  0  0  0  0  0  0  0  0  0
    2.9990   12.1526    9.0130 C   0  0  0  0  0  0  0  0  0  0  0  0
    3.9175   13.1191    8.6019 C   0  0  0  0  0  0  0  0  0  0  0  0
    3.9003   14.4483    9.2470 N   0  0  0  0  0  0  0  0  0  0  0  0
    3.0776   14.6366   10.1288 O   0  0  0  0  0  0  0  0  0  0  0  0
    4.7097   15.2747    8.8574 O   0  0  0  0  0  0  0  0  0  0  0  0
    4.8508   12.8645    7.5964 C   0  0  0  0  0  0  0  0  0  0  0  0
    4.8585   11.6090    6.9909 C   0  0  0  0  0  0  0  0  0  0  0  0
    4.2766    8.1275    7.4992 C   0  0  0  0  0  0  0  0  0  0  0  0
    4.2343    6.8112    7.1155 N   0  0  0  0  0  0  0  0  0  0  0  0
    4.5563    6.0852    8.2297 C   0  0  0  0  0  0  0  0  0  0  0  0
    4.5380    4.6755    8.3753 C   0  0  0  0  0  0  0  0  0  0  0  0
    4.8776    4.0955    9.7160 C   0  0  0  0  0  0  0  0  0  0  0  0
    3.8774    3.5365   10.5333 C   0  0  0  0  0  0  0  0  0  0  0  0
    4.1878    2.9874   11.7771 C   0  0  0  0  0  0  0  0  0  0  0  0
    5.5161    2.9998   12.2033 C   0  0  0  0  0  0  0  0  0  0  0  0
    5.8542    2.4186   13.5194 N   0  0  0  0  0  0  0  0  0  0  0  0
    4.9428    1.9407   14.1756 O   0  0  0  0  0  0  0  0  0  0  0  0
    7.0236    2.4523   13.8671 O   0  0  0  0  0  0  0  0  0  0  0  0
    6.5339    3.5454   11.4205 C   0  0  0  0  0  0  0  0  0  0  0  0
    6.2068    4.0895   10.1791 C   0  0  0  0  0  0  0  0  0  0  0  0
    4.2066    3.7471    7.3663 C   0  0  0  0  0  0  0  0  0  0  0  0
    4.0934    2.3189    7.4663 C   0  0  0  0  0  0  0  0  0  0  0  0
    3.7779    1.8309    6.2198 C   0  0  0  0  0  0  0  0  0  0  0  0
    3.7086    2.9338    5.3033 C   0  0  0  0  0  0  0  0  0  0  0  0
    3.9522    4.0672    6.0594 N   0  0  0  0  0  0  0  0  0  0  0  0
    4.0276    5.0263    5.7338 H   0  0  0  0  0  0  0  0  0  0  0  0
    4.8553    6.9729    9.3539 C   0  0  0  0  0  0  0  0  0  0  0  0
    4.6861    8.2382    8.9002 C   0  0  0  0  0  0  0  0  0  0  0  0
    3.5539    5.3425    1.1996 N   0  0  0  0  0  0  0  0  0  0  0  0
    3.5970    4.1306    1.6681 C   0  0  0  0  0  0  0  0  0  0  0  0
    2.3168    1.2593    2.4205 C   0  0  0  0  0  0  0  0  0  0  0  0
    2.2187    0.0275    1.7578 C   0  0  0  0  0  0  0  0  0  0  0  0
    0.9805   -0.2740    0.8875 C   0  0  1  0  0  0  0  0  0  0  0  0
    0.8811    0.7767   -0.2427 C   0  0  0  0  0  0  0  0  0  0  0  0
    1.0445   -1.6695    0.2408 C   0  0  0  0  0  0  0  0  0  0  0  0
   -0.2914   -0.2078    1.7646 C   0  0  0  0  0  0  0  0  0  0  0  0
    3.2708   -0.8893    1.9223 C   0  0  0  0  0  0  0  0  0  0  0  0
    6.5804   -2.6610    4.5078 H   0  0  0  0  0  0  0  0  0  0  0  0
    4.8366   -2.4187    4.7848 H   0  0  0  0  0  0  0  0  0  0  0  0
    5.9703   -1.0602    4.9774 H   0  0  0  0  0  0  0  0  0  0  0  0
    7.7119   -1.6632    2.4441 H   0  0  0  0  0  0  0  0  0  0  0  0
    7.1219   -0.0428    2.8760 H   0  0  0  0  0  0  0  0  0  0  0  0
    6.7653   -0.7140    1.2686 H   0  0  0  0  0  0  0  0  0  0  0  0
    6.1794   -3.6016    2.2603 H   0  0  0  0  0  0  0  0  0  0  0  0
    5.2243   -2.7561    1.0268 H   0  0  0  0  0  0  0  0  0  0  0  0
    4.4226   -3.4466    2.4626 H   0  0  0  0  0  0  0  0  0  0  0  0
    5.3187    0.8899    3.9734 H   0  0  0  0  0  0  0  0  0  0  0  0
    2.8196    5.7786    4.4493 H   0  0  0  0  0  0  0  0  0  0  0  0
    4.7012    9.5912    1.0704 H   0  0  0  0  0  0  0  0  0  0  0  0
    4.9787   10.1394   -3.4598 H   0  0  0  0  0  0  0  0  0  0  0  0
    6.2508    9.5774   -2.3521 H   0  0  0  0  0  0  0  0  0  0  0  0
    6.2785   11.2495   -2.9722 H   0  0  0  0  0  0  0  0  0  0  0  0
    3.2234   11.8736   -2.6257 H   0  0  0  0  0  0  0  0  0  0  0  0
    4.5556   12.9543   -2.1609 H   0  0  0  0  0  0  0  0  0  0  0  0
    3.3227   12.4887   -0.9603 H   0  0  0  0  0  0  0  0  0  0  0  0
    6.4444   10.5661    0.0108 H   0  0  0  0  0  0  0  0  0  0  0  0
    5.2419   11.7497    0.5869 H   0  0  0  0  0  0  0  0  0  0  0  0
    6.3939   12.1975   -0.6877 H   0  0  0  0  0  0  0  0  0  0  0  0
    2.8519    9.6352   -2.8083 H   0  0  0  0  0  0  0  0  0  0  0  0
    1.4727    5.4832   -1.7284 H   0  0  0  0  0  0  0  0  0  0  0  0
    2.4289    5.9824   -3.1365 H   0  0  0  0  0  0  0  0  0  0  0  0
    0.7022    5.5784   -3.3334 H   0  0  0  0  0  0  0  0  0  0  0  0
   -0.4220    7.0657   -0.8474 H   0  0  0  0  0  0  0  0  0  0  0  0
   -1.1002    7.1686   -2.4861 H   0  0  0  0  0  0  0  0  0  0  0  0
   -0.6539    8.6559   -1.6100 H   0  0  0  0  0  0  0  0  0  0  0  0
    1.9928    8.2122   -4.2951 H   0  0  0  0  0  0  0  0  0  0  0  0
    0.7438    9.3224   -3.6711 H   0  0  0  0  0  0  0  0  0  0  0  0
    0.2759    7.7875   -4.4324 H   0  0  0  0  0  0  0  0  0  0  0  0
    1.5628    6.8174    0.1730 H   0  0  0  0  0  0  0  0  0  0  0  0
    2.5709   10.4248    2.4068 H   0  0  0  0  0  0  0  0  0  0  0  0
    2.9631   11.3526    4.8991 H   0  0  0  0  0  0  0  0  0  0  0  0
    2.3032   10.1379    8.7045 H   0  0  0  0  0  0  0  0  0  0  0  0
    2.2821   12.3959    9.7968 H   0  0  0  0  0  0  0  0  0  0  0  0
    5.5542   13.6460    7.3101 H   0  0  0  0  0  0  0  0  0  0  0  0
    5.5890   11.3934    6.2083 H   0  0  0  0  0  0  0  0  0  0  0  0
    2.8405    3.5430   10.1903 H   0  0  0  0  0  0  0  0  0  0  0  0
    3.4233    2.5565   12.4232 H   0  0  0  0  0  0  0  0  0  0  0  0
    7.5588    3.5310   11.7906 H   0  0  0  0  0  0  0  0  0  0  0  0
    6.9932    4.5146    9.5518 H   0  0  0  0  0  0  0  0  0  0  0  0
    4.2309    1.7444    8.3781 H   0  0  0  0  0  0  0  0  0  0  0  0
    3.5968    0.7943    5.9499 H   0  0  0  0  0  0  0  0  0  0  0  0
    5.1439    6.6634   10.3549 H   0  0  0  0  0  0  0  0  0  0  0  0
    4.8279    9.1618    9.4549 H   0  0  0  0  0  0  0  0  0  0  0  0
    3.8360    3.2754    1.0313 H   0  0  0  0  0  0  0  0  0  0  0  0
    1.5190    1.9985    2.3272 H   0  0  0  0  0  0  0  0  0  0  0  0
    1.7716    0.7456   -0.8906 H   0  0  0  0  0  0  0  0  0  0  0  0
    0.7905    1.8001    0.1519 H   0  0  0  0  0  0  0  0  0  0  0  0
   -0.0034    0.5826   -0.8715 H   0  0  0  0  0  0  0  0  0  0  0  0
    1.9156   -1.7765   -0.4244 H   0  0  0  0  0  0  0  0  0  0  0  0
    0.1428   -1.8378   -0.3687 H   0  0  0  0  0  0  0  0  0  0  0  0
    1.0871   -2.4719    0.9938 H   0  0  0  0  0  0  0  0  0  0  0  0
   -0.4259    0.7845    2.2211 H   0  0  0  0  0  0  0  0  0  0  0  0
   -0.2491   -0.9487    2.5790 H   0  0  0  0  0  0  0  0  0  0  0  0
   -1.1876   -0.4195    1.1585 H   0  0  0  0  0  0  0  0  0  0  0  0
    3.2131   -1.8473    1.4129 H   0  0  0  0  0  0  0  0  0  0  0  0
  2  1  1  1
  1 73  1  0
  1 74  1  0
  1 75  1  0
  2  3  1  0
  2  4  1  0
  2  5  1  0
  3 76  1  0
  3 77  1  0
  3 78  1  0
  4 79  1  0
  4 80  1  0
  4 81  1  0
  5  6  2  0
  5 72  1  0
  6  7  1  0
  6 82  1  0
  7  8  1  0
  7 66  2  0
  8  9  1  0
  8 59  2  0
  9 10  2  0
  9 65  1  0
 10 11  1  0
 10 83  1  0
 11 12  2  0
 11 64  1  0
 12 13  1  0
 12 27  1  0
 13 14  2  0
 13 26  1  0
 14 15  1  0
 14 84  1  0
 15 16  1  0
 15 20  2  0
 16 17  1  6
 16 18  1  0
 16 19  1  0
 17 85  1  0
 17 86  1  0
 17 87  1  0
 18 88  1  0
 18 89  1  0
 18 90  1  0
 19 91  1  0
 19 92  1  0
 19 93  1  0
 20 21  1  0
 20 94  1  0
 21 22  1  0
 21 26  2  0
 22 23  1  6
 22 24  1  0
 22 25  1  0
 23 95  1  0
 23 96  1  0
 23 97  1  0
 24 98  1  0
 24 99  1  0
 24100  1  0
 25101  1  0
 25102  1  0
 25103  1  0
 26104  1  0
 27 28  2  0
 27 31  1  0
 28 29  1  0
 28105  1  0
 29 30  2  0
 29106  1  0
 30 31  1  0
 30 33  1  0
 31 32  1  0
 33 34  1  0
 33 43  2  0
 34 35  2  0
 34 42  1  0
 35 36  1  0
 35107  1  0
 36 37  2  0
 36108  1  0
 37 38  1  0
 37 41  1  0
 38 39  2  0
 38 40  1  0
 41 42  2  0
 41109  1  0
 42110  1  0
 43 44  1  0
 43 63  1  0
 44 45  2  0
 45 46  1  0
 45 62  1  0
 46 47  1  0
 46 56  2  0
 47 48  2  0
 47 55  1  0
 48 49  1  0
 48111  1  0
 49 50  2  0
 49112  1  0
 50 51  1  0
 50 54  1  0
 51 52  2  0
 51 53  1  0
 54 55  2  0
 54113  1  0
 55114  1  0
 56 57  1  0
 56 60  1  0
 57 58  2  0
 57115  1  0
 58 59  1  0
 58116  1  0
 59 60  1  0
 60 61  1  0
 62 63  2  0
 62117  1  0
 63118  1  0
 64 65  2  0
 65119  1  0
 66 67  1  0
 66120  1  0
 67 68  1  0
 67 72  2  0
 68 69  1  6
 68 70  1  0
 68 71  1  0
 69121  1  0
 69122  1  0
 69123  1  0
 70124  1  0
 70125  1  0
 70126  1  0
 71127  1  0
 71128  1  0
 71129  1  0
 72130  1  0
M  CHG  4  38   1  40  -1  51   1  53  -1
M  END

