
     RDKit          3D

 31 31  0  0  0  0  0  0  0  0999 V2000
    1.1437    0.3034   -0.5961 C   0  0  0  0  0  0  0  0  0  0  0  0
    2.6067   -0.0763   -0.3696 C   0  0  0  0  0  0  0  0  0  0  0  0
    2.9463   -0.3168    1.1007 C   0  0  0  0  0  0  0  0  0  0  0  0
    4.3426   -0.6987    1.2637 N   0  0  0  0  0  0  0  0  0  0  0  0
    4.7826   -0.8843    2.6332 C   0  0  1  0  0  0  0  0  0  0  0  0
    4.3406   -2.2416    3.2397 C   0  0  0  0  0  0  0  0  0  0  0  0
    4.8387   -3.4900    2.5483 C   0  0  0  0  0  0  0  0  0  0  0  0
    5.9201   -4.2280    3.0462 C   0  0  0  0  0  0  0  0  0  0  0  0
    6.3387   -5.3754    2.3712 C   0  0  0  0  0  0  0  0  0  0  0  0
    5.6573   -5.7494    1.2099 C   0  0  0  0  0  0  0  0  0  0  0  0
    4.6201   -5.0644    0.7218 N   0  0  0  0  0  0  0  0  0  0  0  0
    4.2289   -3.9713    1.3768 C   0  0  0  0  0  0  0  0  0  0  0  0
    6.2950   -0.6784    2.7112 C   0  0  1  0  0  0  0  0  0  0  0  0
    6.6146    0.5823    2.3437 F   0  0  0  0  0  0  0  0  0  0  0  0
    6.7403   -0.8509    3.9691 F   0  0  0  0  0  0  0  0  0  0  0  0
    6.9896   -1.5022    1.9172 F   0  0  0  0  0  0  0  0  0  0  0  0
    0.9368    0.4733   -1.6640 H   0  0  0  0  0  0  0  0  0  0  0  0
    0.8757    1.2263   -0.0550 H   0  0  0  0  0  0  0  0  0  0  0  0
    0.4636   -0.4928   -0.2499 H   0  0  0  0  0  0  0  0  0  0  0  0
    3.2616    0.7243   -0.7613 H   0  0  0  0  0  0  0  0  0  0  0  0
    2.8616   -0.9850   -0.9404 H   0  0  0  0  0  0  0  0  0  0  0  0
    2.3039   -1.1269    1.4884 H   0  0  0  0  0  0  0  0  0  0  0  0
    2.6844    0.5888    1.6962 H   0  0  0  0  0  0  0  0  0  0  0  0
    4.9322   -0.0111    0.7971 H   0  0  0  0  0  0  0  0  0  0  0  0
    4.3798   -0.0969    3.3102 H   0  0  0  0  0  0  0  0  0  0  0  0
    3.2393   -2.2409    3.2447 H   0  0  0  0  0  0  0  0  0  0  0  0
    4.6492   -2.2517    4.2960 H   0  0  0  0  0  0  0  0  0  0  0  0
    6.4346   -3.9020    3.9549 H   0  0  0  0  0  0  0  0  0  0  0  0
    7.1784   -5.9707    2.7375 H   0  0  0  0  0  0  0  0  0  0  0  0
    5.9613   -6.6441    0.6533 H   0  0  0  0  0  0  0  0  0  0  0  0
    3.3718   -3.4341    0.9549 H   0  0  0  0  0  0  0  0  0  0  0  0
  1  2  1  0
  1 17  1  0
  1 18  1  0
  1 19  1  0
  2  3  1  0
  2 20  1  0
  2 21  1  0
  3  4  1  0
  3 22  1  0
  3 23  1  0
  4  5  1  0
  4 24  1  0
  5  6  1  0
  5 13  1  0
  5 25  1  1
  6  7  1  0
  6 26  1  0
  6 27  1  0
  7  8  2  0
  7 12  1  0
  8  9  1  0
  8 28  1  0
  9 10  2  0
  9 29  1  0
 10 11  1  0
 10 30  1  0
 11 12  2  0
 12 31  1  0
 13 14  1  6
 13 15  1  0
 13 16  1  0
M  END

