
     RDKit          3D

 80 85  0  0  0  0  0  0  0  0999 V2000
    0.7302    1.8540   -2.9667 C   0  0  0  0  0  0  0  0  0  0  0  0
    2.1846    2.3079   -2.8289 C   0  0  0  0  0  0  0  0  0  0  0  0
    3.1871    1.1501   -2.9053 C   0  0  0  0  0  0  0  0  0  0  0  0
    4.6668    1.5630   -2.8841 C   0  0  0  0  0  0  0  0  0  0  0  0
    5.1540    2.2918   -1.6164 C   0  0  1  0  0  0  0  0  0  0  0  0
    4.9509    1.4922   -0.3096 C   0  0  0  0  0  0  0  0  0  0  0  0
    5.6456    0.1285   -0.2295 C   0  0  0  0  0  0  0  0  0  0  0  0
    6.6280    2.7370   -1.7489 C   0  0  0  0  0  0  0  0  0  0  0  0
    6.8866    3.7129   -2.7985 N   0  0  0  0  0  0  0  0  0  0  0  0
    6.6273    5.0725   -2.7040 C   0  0  0  0  0  0  0  0  0  0  0  0
    6.0797    5.7951   -1.6400 C   0  0  0  0  0  0  0  0  0  0  0  0
    5.9320    7.1835   -1.7966 C   0  0  0  0  0  0  0  0  0  0  0  0
    5.3712    7.9548   -0.7223 C   0  0  0  0  0  0  0  0  0  0  0  0
    4.9173    8.5783    0.1463 N   0  0  0  0  0  0  0  0  0  0  0  0
    6.3232    7.8348   -2.9936 C   0  0  0  0  0  0  0  0  0  0  0  0
    6.8709    7.1064   -4.0431 C   0  0  0  0  0  0  0  0  0  0  0  0
    7.0311    5.7196   -3.9089 C   0  0  0  0  0  0  0  0  0  0  0  0
    7.5668    4.6859   -4.7658 C   0  0  0  0  0  0  0  0  0  0  0  0
    8.1134    4.6876   -6.0540 C   0  0  0  0  0  0  0  0  0  0  0  0
    8.5646    3.5022   -6.6485 C   0  0  0  0  0  0  0  0  0  0  0  0
    9.1379    3.5389   -8.0202 C   0  0  0  0  0  0  0  0  0  0  0  0
   10.0789    4.5247   -8.3735 C   0  0  0  0  0  0  0  0  0  0  0  0
   10.6047    4.6039   -9.6604 C   0  0  0  0  0  0  0  0  0  0  0  0
   10.2147    3.6848  -10.6532 C   0  0  0  0  0  0  0  0  0  0  0  0
   10.7540    3.7537  -11.9587 N   0  0  0  0  0  0  0  0  0  0  0  0
   12.1217    4.0923  -12.1510 C   0  0  0  0  0  0  0  0  0  0  0  0
   13.1218    3.5238  -11.3414 C   0  0  0  0  0  0  0  0  0  0  0  0
   14.4620    3.8642  -11.5325 C   0  0  0  0  0  0  0  0  0  0  0  0
   14.8316    4.7601  -12.5411 C   0  0  0  0  0  0  0  0  0  0  0  0
   13.8411    5.3199  -13.3546 C   0  0  0  0  0  0  0  0  0  0  0  0
   12.4969    4.9981  -13.1595 C   0  0  0  0  0  0  0  0  0  0  0  0
    9.9370    3.4737  -13.0882 C   0  0  0  0  0  0  0  0  0  0  0  0
    8.6348    3.9980  -13.1788 C   0  0  0  0  0  0  0  0  0  0  0  0
    7.8360    3.7164  -14.2883 C   0  0  0  0  0  0  0  0  0  0  0  0
    8.3238    2.9248  -15.3332 C   0  0  0  0  0  0  0  0  0  0  0  0
    9.6214    2.4096  -15.2515 C   0  0  0  0  0  0  0  0  0  0  0  0
   10.4208    2.6722  -14.1378 C   0  0  0  0  0  0  0  0  0  0  0  0
    9.2753    2.6949  -10.3076 C   0  0  0  0  0  0  0  0  0  0  0  0
    8.7470    2.6300   -9.0208 C   0  0  0  0  0  0  0  0  0  0  0  0
    8.4583    2.2924   -5.8912 C   0  0  0  0  0  0  0  0  0  0  0  0
    8.9542    1.0433   -6.4013 C   0  0  0  0  0  0  0  0  0  0  0  0
    9.3433    0.0097   -6.7615 N   0  0  0  0  0  0  0  0  0  0  0  0
    7.9040    2.2682   -4.5994 C   0  0  0  0  0  0  0  0  0  0  0  0
    7.4579    3.4659   -4.0406 C   0  0  0  0  0  0  0  0  0  0  0  0
    0.0333    2.7049   -2.9062 H   0  0  0  0  0  0  0  0  0  0  0  0
    0.4553    1.1421   -2.1702 H   0  0  0  0  0  0  0  0  0  0  0  0
    0.5574    1.3495   -3.9321 H   0  0  0  0  0  0  0  0  0  0  0  0
    2.3037    2.8497   -1.8739 H   0  0  0  0  0  0  0  0  0  0  0  0
    2.4193    3.0421   -3.6214 H   0  0  0  0  0  0  0  0  0  0  0  0
    3.0063    0.5896   -3.8399 H   0  0  0  0  0  0  0  0  0  0  0  0
    2.9788    0.4332   -2.0907 H   0  0  0  0  0  0  0  0  0  0  0  0
    4.8576    2.2140   -3.7546 H   0  0  0  0  0  0  0  0  0  0  0  0
    5.2871    0.6632   -3.0441 H   0  0  0  0  0  0  0  0  0  0  0  0
    4.5592    3.2158   -1.5103 H   0  0  0  0  0  0  0  0  0  0  0  0
    3.8690    1.3525   -0.1504 H   0  0  0  0  0  0  0  0  0  0  0  0
    5.2889    2.1188    0.5354 H   0  0  0  0  0  0  0  0  0  0  0  0
    5.2893   -0.5648   -1.0077 H   0  0  0  0  0  0  0  0  0  0  0  0
    5.4486   -0.3472    0.7440 H   0  0  0  0  0  0  0  0  0  0  0  0
    6.7404    0.2074   -0.3318 H   0  0  0  0  0  0  0  0  0  0  0  0
    7.2778    1.8699   -1.9370 H   0  0  0  0  0  0  0  0  0  0  0  0
    6.9657    3.1730   -0.7936 H   0  0  0  0  0  0  0  0  0  0  0  0
    5.7702    5.3155   -0.7114 H   0  0  0  0  0  0  0  0  0  0  0  0
    6.1900    8.9143   -3.0785 H   0  0  0  0  0  0  0  0  0  0  0  0
    7.1753    7.6137   -4.9614 H   0  0  0  0  0  0  0  0  0  0  0  0
    8.1725    5.6198   -6.6196 H   0  0  0  0  0  0  0  0  0  0  0  0
   10.4161    5.2414   -7.6205 H   0  0  0  0  0  0  0  0  0  0  0  0
   11.3318    5.3812   -9.9009 H   0  0  0  0  0  0  0  0  0  0  0  0
   12.8422    2.8117  -10.5626 H   0  0  0  0  0  0  0  0  0  0  0  0
   15.2258    3.4119  -10.8945 H   0  0  0  0  0  0  0  0  0  0  0  0
   15.8822    5.0188  -12.6924 H   0  0  0  0  0  0  0  0  0  0  0  0
   14.1144    6.0255  -14.1436 H   0  0  0  0  0  0  0  0  0  0  0  0
   11.7273    5.4477  -13.7899 H   0  0  0  0  0  0  0  0  0  0  0  0
    8.2527    4.6284  -12.3735 H   0  0  0  0  0  0  0  0  0  0  0  0
    6.8264    4.1324  -14.3415 H   0  0  0  0  0  0  0  0  0  0  0  0
    7.6983    2.7116  -16.2032 H   0  0  0  0  0  0  0  0  0  0  0  0
   10.0141    1.7839  -16.0574 H   0  0  0  0  0  0  0  0  0  0  0  0
   11.4280    2.2559  -14.0743 H   0  0  0  0  0  0  0  0  0  0  0  0
    8.9565    1.9691  -11.0573 H   0  0  0  0  0  0  0  0  0  0  0  0
    8.0126    1.8543   -8.7961 H   0  0  0  0  0  0  0  0  0  0  0  0
    7.8430    1.3216   -4.0625 H   0  0  0  0  0  0  0  0  0  0  0  0
  1  2  1  0
  1 45  1  0
  1 46  1  0
  1 47  1  0
  2  3  1  0
  2 48  1  0
  2 49  1  0
  3  4  1  0
  3 50  1  0
  3 51  1  0
  4  5  1  0
  4 52  1  0
  4 53  1  0
  5  6  1  0
  5  8  1  0
  5 54  1  1
  6  7  1  0
  6 55  1  0
  6 56  1  0
  7 57  1  0
  7 58  1  0
  7 59  1  0
  8  9  1  0
  8 60  1  0
  8 61  1  0
  9 10  1  0
  9 44  1  0
 10 11  2  0
 10 17  1  0
 11 12  1  0
 11 62  1  0
 12 13  1  0
 12 15  2  0
 13 14  3  0
 15 16  1  0
 15 63  1  0
 16 17  2  0
 16 64  1  0
 17 18  1  0
 18 19  1  0
 18 44  2  0
 19 20  2  0
 19 65  1  0
 20 21  1  0
 20 40  1  0
 21 22  2  0
 21 39  1  0
 22 23  1  0
 22 66  1  0
 23 24  2  0
 23 67  1  0
 24 25  1  0
 24 38  1  0
 25 26  1  0
 25 32  1  0
 26 27  2  0
 26 31  1  0
 27 28  1  0
 27 68  1  0
 28 29  2  0
 28 69  1  0
 29 30  1  0
 29 70  1  0
 30 31  2  0
 30 71  1  0
 31 72  1  0
 32 33  2  0
 32 37  1  0
 33 34  1  0
 33 73  1  0
 34 35  2  0
 34 74  1  0
 35 36  1  0
 35 75  1  0
 36 37  2  0
 36 76  1  0
 37 77  1  0
 38 39  2  0
 38 78  1  0
 39 79  1  0
 40 41  1  0
 40 43  2  0
 41 42  3  0
 43 44  1  0
 43 80  1  0
M  END

