
     RDKit          3D

 44 45  0  0  0  0  0  0  0  0999 V2000
   13.7897   -3.1927   -9.8519 C   0  0  0  0  0  0  0  0  0  0  0  0
   12.6899   -2.7020   -9.2773 C   0  0  0  0  0  0  0  0  0  0  0  0
   11.6453   -3.5346   -8.5974 C   0  0  0  0  0  0  0  0  0  0  0  0
   11.3873   -2.9728   -7.3173 O   0  0  0  0  0  0  0  0  0  0  0  0
   10.4375   -3.5183   -6.5218 C   0  0  0  0  0  0  0  0  0  0  0  0
   10.2235   -2.8767   -5.2853 C   0  0  0  0  0  0  0  0  0  0  0  0
    9.2685   -3.3600   -4.4050 C   0  0  0  0  0  0  0  0  0  0  0  0
    8.5131   -4.5124   -4.7069 C   0  0  0  0  0  0  0  0  0  0  0  0
    7.4621   -4.9384   -3.7236 C   0  0  0  0  0  0  0  0  0  0  0  0
    6.9624   -4.1124   -2.9696 O   0  0  0  0  0  0  0  0  0  0  0  0
    7.0205   -6.3513   -3.6254 C   0  0  0  0  0  0  0  0  0  0  0  0
    7.7468   -7.4481   -3.9397 C   0  0  0  0  0  0  0  0  0  0  0  0
    7.3736   -8.8483   -3.7360 C   0  0  0  0  0  0  0  0  0  0  0  0
    8.2819   -9.8547   -4.0876 C   0  0  0  0  0  0  0  0  0  0  0  0
    7.9684  -11.2082   -3.9126 C   0  0  0  0  0  0  0  0  0  0  0  0
    6.7347  -11.5873   -3.3802 C   0  0  0  0  0  0  0  0  0  0  0  0
    6.3352  -12.8594   -3.1715 O   0  0  0  0  0  0  0  0  0  0  0  0
    7.2069  -13.9170   -3.5010 C   0  0  0  0  0  0  0  0  0  0  0  0
    5.7948  -10.5752   -3.0156 C   0  0  0  0  0  0  0  0  0  0  0  0
    4.6253  -11.0271   -2.5079 O   0  0  0  0  0  0  0  0  0  0  0  0
    3.6434  -10.0951   -2.1163 C   0  0  0  0  0  0  0  0  0  0  0  0
    6.1223   -9.2367   -3.1959 C   0  0  0  0  0  0  0  0  0  0  0  0
    8.7261   -5.1348   -5.9452 C   0  0  0  0  0  0  0  0  0  0  0  0
    9.6739   -4.6488   -6.8524 C   0  0  0  0  0  0  0  0  0  0  0  0
   14.5020   -2.5438  -10.3683 H   0  0  0  0  0  0  0  0  0  0  0  0
   14.0198   -4.2634   -9.8329 H   0  0  0  0  0  0  0  0  0  0  0  0
   12.4853   -1.6252   -9.3004 H   0  0  0  0  0  0  0  0  0  0  0  0
   11.9791   -4.5846   -8.5043 H   0  0  0  0  0  0  0  0  0  0  0  0
   10.7117   -3.5322   -9.1951 H   0  0  0  0  0  0  0  0  0  0  0  0
   10.8217   -1.9938   -5.0513 H   0  0  0  0  0  0  0  0  0  0  0  0
    9.0793   -2.8536   -3.4564 H   0  0  0  0  0  0  0  0  0  0  0  0
    6.0540   -6.4452   -3.1207 H   0  0  0  0  0  0  0  0  0  0  0  0
    8.7411   -7.3034   -4.3736 H   0  0  0  0  0  0  0  0  0  0  0  0
    9.2544   -9.5818   -4.5049 H   0  0  0  0  0  0  0  0  0  0  0  0
    8.6987  -11.9659   -4.1958 H   0  0  0  0  0  0  0  0  0  0  0  0
    6.6791  -14.8462   -3.2483 H   0  0  0  0  0  0  0  0  0  0  0  0
    8.1471  -13.8695   -2.9222 H   0  0  0  0  0  0  0  0  0  0  0  0
    7.4530  -13.9258   -4.5783 H   0  0  0  0  0  0  0  0  0  0  0  0
    2.7937  -10.6781   -1.7369 H   0  0  0  0  0  0  0  0  0  0  0  0
    3.3023   -9.4754   -2.9655 H   0  0  0  0  0  0  0  0  0  0  0  0
    4.0067   -9.4271   -1.3143 H   0  0  0  0  0  0  0  0  0  0  0  0
    5.4039   -8.4677   -2.9169 H   0  0  0  0  0  0  0  0  0  0  0  0
    8.1233   -5.9981   -6.2322 H   0  0  0  0  0  0  0  0  0  0  0  0
    9.7999   -5.1534   -7.8102 H   0  0  0  0  0  0  0  0  0  0  0  0
  1  2  2  0
  1 25  1  0
  1 26  1  0
  2  3  1  0
  2 27  1  0
  3  4  1  0
  3 28  1  0
  3 29  1  0
  4  5  1  0
  5  6  2  0
  5 24  1  0
  6  7  1  0
  6 30  1  0
  7  8  2  0
  7 31  1  0
  8  9  1  0
  8 23  1  0
  9 10  2  0
  9 11  1  0
 11 12  2  0
 11 32  1  0
 12 13  1  0
 12 33  1  0
 13 14  2  0
 13 22  1  0
 14 15  1  0
 14 34  1  0
 15 16  2  0
 15 35  1  0
 16 17  1  0
 16 19  1  0
 17 18  1  0
 18 36  1  0
 18 37  1  0
 18 38  1  0
 19 20  1  0
 19 22  2  0
 20 21  1  0
 21 39  1  0
 21 40  1  0
 21 41  1  0
 22 42  1  0
 23 24  2  0
 23 43  1  0
 24 44  1  0
M  END

