
     RDKit          3D

 25 26  0  0  0  0  0  0  0  0999 V2000
    2.9388   -0.3958   -1.2629 O   0  0  0  0  0  0  0  0  0  0  0  0
    2.4315   -0.0661    0.0129 C   0  0  1  0  0  0  0  0  0  0  0  0
    2.9198    1.3344    0.4824 C   0  0  0  0  0  0  0  0  0  0  0  0
    2.5676    2.4687   -0.4465 C   0  0  0  0  0  0  0  0  0  0  0  0
    1.4013    3.2301   -0.2913 C   0  0  0  0  0  0  0  0  0  0  0  0
    1.1208    4.2476   -1.2045 C   0  0  0  0  0  0  0  0  0  0  0  0
    2.0182    4.4700   -2.2527 C   0  0  0  0  0  0  0  0  0  0  0  0
    3.1358    3.7579   -2.4174 N   0  0  0  0  0  0  0  0  0  0  0  0
    3.3929    2.7910   -1.5376 C   0  0  0  0  0  0  0  0  0  0  0  0
    0.9300   -0.1842   -0.0708 C   0  0  0  0  0  0  0  0  0  0  0  0
    0.1664   -0.3979   -1.1883 C   0  0  0  0  0  0  0  0  0  0  0  0
   -1.2372   -0.4623   -0.9202 C   0  0  0  0  0  0  0  0  0  0  0  0
   -1.5157   -0.2954    0.4097 C   0  0  0  0  0  0  0  0  0  0  0  0
   -3.0656   -0.3013    1.1699 Cl  0  0  0  0  0  0  0  0  0  0  0  0
   -0.0696   -0.0621    1.3593 S   0  0  0  0  0  0  0  0  0  0  0  0
    3.9023   -0.4290   -1.2116 H   0  0  0  0  0  0  0  0  0  0  0  0
    2.7908   -0.7928    0.7715 H   0  0  0  0  0  0  0  0  0  0  0  0
    4.0166    1.2755    0.5985 H   0  0  0  0  0  0  0  0  0  0  0  0
    2.5144    1.5228    1.4901 H   0  0  0  0  0  0  0  0  0  0  0  0
    0.7187    3.0257    0.5380 H   0  0  0  0  0  0  0  0  0  0  0  0
    0.2207    4.8592   -1.1070 H   0  0  0  0  0  0  0  0  0  0  0  0
    1.8262    5.2605   -2.9882 H   0  0  0  0  0  0  0  0  0  0  0  0
    4.3226    2.2292   -1.6952 H   0  0  0  0  0  0  0  0  0  0  0  0
    0.6111   -0.5103   -2.1764 H   0  0  0  0  0  0  0  0  0  0  0  0
   -2.0079   -0.6249   -1.6737 H   0  0  0  0  0  0  0  0  0  0  0  0
  1  2  1  0
  1 16  1  0
  2  3  1  0
  2 10  1  0
  2 17  1  1
  3  4  1  0
  3 18  1  0
  3 19  1  0
  4  5  2  0
  4  9  1  0
  5  6  1  0
  5 20  1  0
  6  7  2  0
  6 21  1  0
  7  8  1  0
  7 22  1  0
  8  9  2  0
  9 23  1  0
 10 11  2  0
 10 15  1  0
 11 12  1  0
 11 24  1  0
 12 13  2  0
 12 25  1  0
 13 14  1  0
 13 15  1  0
M  END

