
     RDKit          3D

 47 49  0  0  0  0  0  0  0  0999 V2000
    2.5371   -0.6112   -0.4725 C   0  0  0  0  0  0  0  0  0  0  0  0
    2.7337    0.0911    0.7514 O   0  0  0  0  0  0  0  0  0  0  0  0
    3.4622    1.2165    0.7170 C   0  0  0  0  0  0  0  0  0  0  0  0
    3.5919    1.8222    2.0893 C   0  0  0  0  0  0  0  0  0  0  0  0
    3.9633    1.6304   -0.3798 N   0  0  0  0  0  0  0  0  0  0  0  0
    4.6799    2.8290   -0.4940 C   0  0  0  0  0  0  0  0  0  0  0  0
    4.1464    4.0023   -0.5209 N   0  0  0  0  0  0  0  0  0  0  0  0
    6.1168    2.6483   -0.6743 C   0  0  0  0  0  0  0  0  0  0  0  0
    6.8819    1.4780   -0.7195 C   0  0  0  0  0  0  0  0  0  0  0  0
    8.1933    1.7239   -0.8984 N   0  0  0  0  0  0  0  0  0  0  0  0
    8.2957    3.0542   -0.9732 C   0  0  0  0  0  0  0  0  0  0  0  0
    9.4308    3.8764   -1.1493 C   0  0  0  0  0  0  0  0  0  0  0  0
    9.2797    5.2434   -1.1904 C   0  0  0  0  0  0  0  0  0  0  0  0
    7.9884    5.8520   -1.0727 C   0  0  0  0  0  0  0  0  0  0  0  0
    7.8312    7.3385   -1.0637 C   0  0  0  0  0  0  0  0  0  0  0  0
    7.2029    7.9018    0.1525 C   0  0  0  0  0  0  0  0  0  0  0  0
    7.4340    9.0081    0.7585 N   0  0  0  0  0  0  0  0  0  0  0  0
    8.2467    8.1349   -2.1067 C   0  0  0  0  0  0  0  0  0  0  0  0
    8.1957    9.5213   -2.0774 N   0  0  0  0  0  0  0  0  0  0  0  0
    8.8107    7.6046   -3.3835 C   0  0  0  0  0  0  0  0  0  0  0  0
    8.1738    6.5806   -4.1077 C   0  0  0  0  0  0  0  0  0  0  0  0
    8.6926    6.1302   -5.3213 C   0  0  0  0  0  0  0  0  0  0  0  0
    9.8612    6.7082   -5.8145 C   0  0  0  0  0  0  0  0  0  0  0  0
   10.3646    6.2754   -6.9774 F   0  0  0  0  0  0  0  0  0  0  0  0
   10.5144    7.7294   -5.1285 C   0  0  0  0  0  0  0  0  0  0  0  0
    9.9805    8.1770   -3.9190 C   0  0  0  0  0  0  0  0  0  0  0  0
    6.8874    5.0375   -0.8969 C   0  0  0  0  0  0  0  0  0  0  0  0
    7.0438    3.6738   -0.8430 N   0  0  0  0  0  0  0  0  0  0  0  0
    1.9130   -1.4797   -0.2268 H   0  0  0  0  0  0  0  0  0  0  0  0
    3.4987   -0.9379   -0.8975 H   0  0  0  0  0  0  0  0  0  0  0  0
    2.0336    0.0264   -1.2154 H   0  0  0  0  0  0  0  0  0  0  0  0
    4.2044    1.1602    2.7219 H   0  0  0  0  0  0  0  0  0  0  0  0
    2.5998    1.8918    2.5598 H   0  0  0  0  0  0  0  0  0  0  0  0
    4.0520    2.8165    2.0486 H   0  0  0  0  0  0  0  0  0  0  0  0
    3.1319    3.9321   -0.4027 H   0  0  0  0  0  0  0  0  0  0  0  0
    6.4917    0.4641   -0.6332 H   0  0  0  0  0  0  0  0  0  0  0  0
   10.4043    3.3927   -1.2375 H   0  0  0  0  0  0  0  0  0  0  0  0
   10.1542    5.8857   -1.3086 H   0  0  0  0  0  0  0  0  0  0  0  0
    6.4314    7.2547    0.6073 H   0  0  0  0  0  0  0  0  0  0  0  0
    8.2329    9.4951    0.3350 H   0  0  0  0  0  0  0  0  0  0  0  0
    7.5906    9.9396   -1.3750 H   0  0  0  0  0  0  0  0  0  0  0  0
    8.1129    9.9627   -2.9879 H   0  0  0  0  0  0  0  0  0  0  0  0
    7.2550    6.1377   -3.7215 H   0  0  0  0  0  0  0  0  0  0  0  0
    8.2027    5.3397   -5.8928 H   0  0  0  0  0  0  0  0  0  0  0  0
   11.4286    8.1572   -5.5445 H   0  0  0  0  0  0  0  0  0  0  0  0
   10.4873    8.9741   -3.3706 H   0  0  0  0  0  0  0  0  0  0  0  0
    5.8566    5.3783   -0.8019 H   0  0  0  0  0  0  0  0  0  0  0  0
  1  2  1  0
  1 29  1  0
  1 30  1  0
  1 31  1  0
  2  3  1  0
  3  4  1  0
  3  5  2  0
  4 32  1  0
  4 33  1  0
  4 34  1  0
  5  6  1  0
  6  7  2  0
  6  8  1  0
  7 35  1  0
  8  9  2  0
  8 28  1  0
  9 10  1  0
  9 36  1  0
 10 11  2  0
 11 12  1  0
 11 28  1  0
 12 13  2  0
 12 37  1  0
 13 14  1  0
 13 38  1  0
 14 15  1  0
 14 27  2  0
 15 16  1  0
 15 18  2  0
 16 17  2  0
 16 39  1  0
 17 40  1  0
 18 19  1  0
 18 20  1  0
 19 41  1  0
 19 42  1  0
 20 21  2  0
 20 26  1  0
 21 22  1  0
 21 43  1  0
 22 23  2  0
 22 44  1  0
 23 24  1  0
 23 25  1  0
 25 26  2  0
 25 45  1  0
 26 46  1  0
 27 28  1  0
 27 47  1  0
M  END

