
     RDKit          3D

 33 34  0  0  0  0  0  0  0  0999 V2000
    6.6319   -1.7766    1.3752 C   0  0  0  0  0  0  0  0  0  0  0  0
    6.9048   -0.3346    0.9514 C   0  0  1  0  0  0  0  0  0  0  0  0
    7.9210   -0.2710   -0.0406 O   0  0  0  0  0  0  0  0  0  0  0  0
    5.6569    0.4161    0.4590 C   0  0  0  0  0  0  0  0  0  0  0  0
    4.5080    0.5952    1.4725 C   0  0  0  0  0  0  0  0  0  0  0  0
    4.8879    1.4000    2.6934 C   0  0  0  0  0  0  0  0  0  0  0  0
    4.9066    2.8038    2.6744 C   0  0  0  0  0  0  0  0  0  0  0  0
    5.2931    3.4430    3.8510 C   0  0  0  0  0  0  0  0  0  0  0  0
    5.6287    2.7742    4.9516 N   0  0  0  0  0  0  0  0  0  0  0  0
    5.5842    1.4340    4.8902 C   0  0  0  0  0  0  0  0  0  0  0  0
    5.9517    0.6754    6.1162 C   0  0  0  0  0  0  0  0  0  0  0  0
    6.3602    1.3579    7.2761 C   0  0  0  0  0  0  0  0  0  0  0  0
    6.7057    0.6496    8.4274 C   0  0  0  0  0  0  0  0  0  0  0  0
    6.6473   -0.7483    8.4380 C   0  0  0  0  0  0  0  0  0  0  0  0
    6.2404   -1.4347    7.2887 C   0  0  0  0  0  0  0  0  0  0  0  0
    5.8950   -0.7293    6.1354 C   0  0  0  0  0  0  0  0  0  0  0  0
    5.2285    0.7327    3.8005 N   0  0  0  0  0  0  0  0  0  0  0  0
    7.5789   -2.2711    1.6391 H   0  0  0  0  0  0  0  0  0  0  0  0
    6.1637   -2.3481    0.5531 H   0  0  0  0  0  0  0  0  0  0  0  0
    5.9643   -1.8229    2.2485 H   0  0  0  0  0  0  0  0  0  0  0  0
    7.3266    0.2070    1.8145 H   0  0  0  0  0  0  0  0  0  0  0  0
    7.6178   -0.7787   -0.8063 H   0  0  0  0  0  0  0  0  0  0  0  0
    5.2565   -0.1174   -0.4240 H   0  0  0  0  0  0  0  0  0  0  0  0
    5.9922    1.4027    0.0974 H   0  0  0  0  0  0  0  0  0  0  0  0
    4.1389   -0.3837    1.8120 H   0  0  0  0  0  0  0  0  0  0  0  0
    3.6733    1.0999    0.9588 H   0  0  0  0  0  0  0  0  0  0  0  0
    4.6281    3.3692    1.7829 H   0  0  0  0  0  0  0  0  0  0  0  0
    5.3298    4.5379    3.9083 H   0  0  0  0  0  0  0  0  0  0  0  0
    6.3999    2.4475    7.2524 H   0  0  0  0  0  0  0  0  0  0  0  0
    7.0227    1.1908    9.3227 H   0  0  0  0  0  0  0  0  0  0  0  0
    6.9181   -1.3021    9.3408 H   0  0  0  0  0  0  0  0  0  0  0  0
    6.1920   -2.5267    7.2921 H   0  0  0  0  0  0  0  0  0  0  0  0
    5.5746   -1.2527    5.2340 H   0  0  0  0  0  0  0  0  0  0  0  0
  1  2  1  0
  1 18  1  0
  1 19  1  0
  1 20  1  0
  2  3  1  0
  2  4  1  0
  2 21  1  1
  3 22  1  0
  4  5  1  0
  4 23  1  0
  4 24  1  0
  5  6  1  0
  5 25  1  0
  5 26  1  0
  6  7  2  0
  6 17  1  0
  7  8  1  0
  7 27  1  0
  8  9  2  0
  8 28  1  0
  9 10  1  0
 10 11  1  0
 10 17  2  0
 11 12  2  0
 11 16  1  0
 12 13  1  0
 12 29  1  0
 13 14  2  0
 13 30  1  0
 14 15  1  0
 14 31  1  0
 15 16  2  0
 15 32  1  0
 16 33  1  0
M  END

