
     RDKit          3D

 60 66  0  0  0  0  0  0  0  0999 V2000
    2.9250    0.6309   -0.1613 C   0  0  0  0  0  0  0  0  0  0  0  0
    2.4316   -0.6480   -0.4972 O   0  0  0  0  0  0  0  0  0  0  0  0
    3.2805   -1.7032   -0.5497 C   0  0  0  0  0  0  0  0  0  0  0  0
    4.6469   -1.6033   -0.2877 C   0  0  0  0  0  0  0  0  0  0  0  0
    5.4998   -2.7190   -0.3513 C   0  0  0  0  0  0  0  0  0  0  0  0
    6.9177   -2.5053   -0.0583 C   0  0  0  0  0  0  0  0  0  0  0  0
    7.4496   -1.3321    0.2615 N   0  0  0  0  0  0  0  0  0  0  0  0
    8.7804   -1.5708    0.4516 C   0  0  0  0  0  0  0  0  0  0  0  0
    9.8191   -0.6431    0.8138 C   0  0  0  0  0  0  0  0  0  0  0  0
    9.5851    0.7288    1.0357 C   0  0  0  0  0  0  0  0  0  0  0  0
   10.6505    1.5418    1.3803 C   0  0  0  0  0  0  0  0  0  0  0  0
   11.9298    0.9579    1.4949 C   0  0  0  0  0  0  0  0  0  0  0  0
   12.1723   -0.3251    1.2917 N   0  0  0  0  0  0  0  0  0  0  0  0
   11.1511   -1.1361    0.9552 C   0  0  0  0  0  0  0  0  0  0  0  0
   11.4417   -2.5660    0.7325 C   0  0  0  0  0  0  0  0  0  0  0  0
   12.7104   -2.9888    0.8764 N   0  0  0  0  0  0  0  0  0  0  0  0
   12.9949   -4.2648    0.6822 C   0  0  0  0  0  0  0  0  0  0  0  0
   12.0343   -5.2334    0.3261 C   0  0  0  0  0  0  0  0  0  0  0  0
   10.7206   -4.8272    0.1710 C   0  0  0  0  0  0  0  0  0  0  0  0
   10.3893   -3.4701    0.3724 C   0  0  0  0  0  0  0  0  0  0  0  0
    9.0741   -2.9219    0.2442 C   0  0  0  0  0  0  0  0  0  0  0  0
    7.8711   -3.4979   -0.0797 N   0  0  0  0  0  0  0  0  0  0  0  0
    7.6518   -4.4616   -0.3044 H   0  0  0  0  0  0  0  0  0  0  0  0
    4.9385   -3.9752   -0.6933 C   0  0  0  0  0  0  0  0  0  0  0  0
    5.7895   -5.0523   -0.7497 O   0  0  0  0  0  0  0  0  0  0  0  0
    5.2803   -6.3266   -1.0839 C   0  0  0  0  0  0  0  0  0  0  0  0
    3.5735   -4.0738   -0.9550 C   0  0  0  0  0  0  0  0  0  0  0  0
    2.7113   -2.9609   -0.8935 C   0  0  0  0  0  0  0  0  0  0  0  0
    1.2817   -3.0462   -1.1638 C   0  0  0  0  0  0  0  0  0  0  0  0
    0.5748   -4.1496   -1.5058 C   0  0  0  0  0  0  0  0  0  0  0  0
   -0.8550   -4.1178   -1.7531 C   0  0  0  0  0  0  0  0  0  0  0  0
   -1.6416   -3.0613   -1.6861 N   0  0  0  0  0  0  0  0  0  0  0  0
   -2.9027   -3.5116   -1.9980 C   0  0  0  0  0  0  0  0  0  0  0  0
   -4.1212   -2.8144   -2.0779 C   0  0  0  0  0  0  0  0  0  0  0  0
   -5.2666   -3.5277   -2.4207 C   0  0  0  0  0  0  0  0  0  0  0  0
   -5.2203   -4.9150   -2.6837 C   0  0  0  0  0  0  0  0  0  0  0  0
   -4.0249   -5.6306   -2.6114 C   0  0  0  0  0  0  0  0  0  0  0  0
   -2.8764   -4.9100   -2.2667 C   0  0  0  0  0  0  0  0  0  0  0  0
   -1.5545   -5.2643   -2.1012 N   0  0  0  0  0  0  0  0  0  0  0  0
   -1.1610   -6.1895   -2.2129 H   0  0  0  0  0  0  0  0  0  0  0  0
    2.0634    1.3110   -0.1847 H   0  0  0  0  0  0  0  0  0  0  0  0
    3.6807    0.9813   -0.8864 H   0  0  0  0  0  0  0  0  0  0  0  0
    3.3686    0.6456    0.8499 H   0  0  0  0  0  0  0  0  0  0  0  0
    5.1096   -0.6546   -0.0228 H   0  0  0  0  0  0  0  0  0  0  0  0
    8.5694    1.1158    0.9300 H   0  0  0  0  0  0  0  0  0  0  0  0
   10.5151    2.6107    1.5615 H   0  0  0  0  0  0  0  0  0  0  0  0
   12.7904    1.5823    1.7671 H   0  0  0  0  0  0  0  0  0  0  0  0
   14.0440   -4.5598    0.8116 H   0  0  0  0  0  0  0  0  0  0  0  0
   12.3276   -6.2752    0.1784 H   0  0  0  0  0  0  0  0  0  0  0  0
    9.9461   -5.5483   -0.1046 H   0  0  0  0  0  0  0  0  0  0  0  0
    6.1318   -7.0201   -1.0647 H   0  0  0  0  0  0  0  0  0  0  0  0
    4.8351   -6.3358   -2.0943 H   0  0  0  0  0  0  0  0  0  0  0  0
    4.5252   -6.6682   -0.3544 H   0  0  0  0  0  0  0  0  0  0  0  0
    3.1475   -5.0403   -1.2172 H   0  0  0  0  0  0  0  0  0  0  0  0
    0.7233   -2.1120   -1.0795 H   0  0  0  0  0  0  0  0  0  0  0  0
    1.0588   -5.1260   -1.6120 H   0  0  0  0  0  0  0  0  0  0  0  0
   -4.1508   -1.7422   -1.8736 H   0  0  0  0  0  0  0  0  0  0  0  0
   -6.2253   -3.0075   -2.4892 H   0  0  0  0  0  0  0  0  0  0  0  0
   -6.1415   -5.4393   -2.9498 H   0  0  0  0  0  0  0  0  0  0  0  0
   -3.9943   -6.7036   -2.8158 H   0  0  0  0  0  0  0  0  0  0  0  0
  1  2  1  0
  1 41  1  0
  1 42  1  0
  1 43  1  0
  2  3  1  0
  3  4  2  0
  3 28  1  0
  4  5  1  0
  4 44  1  0
  5  6  1  0
  5 24  2  0
  6  7  2  0
  6 22  1  0
  7  8  1  0
  8  9  2  0
  8 21  1  0
  9 10  1  0
  9 14  1  0
 10 11  2  0
 10 45  1  0
 11 12  1  0
 11 46  1  0
 12 13  2  0
 12 47  1  0
 13 14  1  0
 14 15  2  0
 15 16  1  0
 15 20  1  0
 16 17  2  0
 17 18  1  0
 17 48  1  0
 18 19  2  0
 18 49  1  0
 19 20  1  0
 19 50  1  0
 20 21  2  0
 21 22  1  0
 22 23  1  0
 24 25  1  0
 24 27  1  0
 25 26  1  0
 26 51  1  0
 26 52  1  0
 26 53  1  0
 27 28  2  0
 27 54  1  0
 28 29  1  0
 29 30  2  0
 29 55  1  0
 30 31  1  0
 30 56  1  0
 31 32  2  0
 31 39  1  0
 32 33  1  0
 33 34  2  0
 33 38  1  0
 34 35  1  0
 34 57  1  0
 35 36  2  0
 35 58  1  0
 36 37  1  0
 36 59  1  0
 37 38  2  0
 37 60  1  0
 38 39  1  0
 39 40  1  0
M  END

