
     RDKit          3D

 43 44  0  0  0  0  0  0  0  0999 V2000
    0.6394   -0.4612   -8.7650 C   0  0  0  0  0  0  0  0  0  0  0  0
    0.4771   -0.7028   -7.3727 O   0  0  0  0  0  0  0  0  0  0  0  0
    1.3352   -1.4523   -6.6553 C   0  0  0  0  0  0  0  0  0  0  0  0
    1.1128   -1.4799   -5.2640 C   0  0  0  0  0  0  0  0  0  0  0  0
    1.9213   -2.2180   -4.4080 C   0  0  0  0  0  0  0  0  0  0  0  0
    2.9837   -2.9604   -4.9382 C   0  0  0  0  0  0  0  0  0  0  0  0
    4.0229   -3.9405   -3.8497 S   0  0  1  0  0  0  0  0  0  0  0  0
    5.2745   -4.1950   -4.5652 O   0  0  0  0  0  0  0  0  0  0  0  0
    3.9705   -3.3167   -2.5287 O   0  0  0  0  0  0  0  0  0  0  0  0
    3.2824   -5.4254   -3.6604 N   0  0  0  0  0  0  0  0  0  0  0  0
    3.2405   -6.4164   -4.7299 C   0  0  0  0  0  0  0  0  0  0  0  0
    3.1291   -7.8236   -4.1777 C   0  0  0  0  0  0  0  0  0  0  0  0
    2.1922   -8.7263   -4.6921 C   0  0  0  0  0  0  0  0  0  0  0  0
    2.1161  -10.0352   -4.2039 C   0  0  0  0  0  0  0  0  0  0  0  0
    2.9661  -10.4819   -3.1833 C   0  0  0  0  0  0  0  0  0  0  0  0
    2.8732  -11.9082   -2.6560 C   0  0  1  0  0  0  0  0  0  0  0  0
    4.1689  -12.6994   -2.9061 C   0  0  0  0  0  0  0  0  0  0  0  0
    2.4721  -11.9484   -1.1711 C   0  0  0  0  0  0  0  0  0  0  0  0
    3.9004   -9.5656   -2.6662 C   0  0  0  0  0  0  0  0  0  0  0  0
    3.9823   -8.2617   -3.1521 C   0  0  0  0  0  0  0  0  0  0  0  0
    3.2412   -2.9461   -6.3098 C   0  0  0  0  0  0  0  0  0  0  0  0
    2.4200   -2.2047   -7.1520 C   0  0  0  0  0  0  0  0  0  0  0  0
    2.6942   -2.2182   -8.4718 F   0  0  0  0  0  0  0  0  0  0  0  0
   -0.1687    0.2297   -9.0391 H   0  0  0  0  0  0  0  0  0  0  0  0
    0.5448   -1.3858   -9.3543 H   0  0  0  0  0  0  0  0  0  0  0  0
    1.6105    0.0087   -8.9855 H   0  0  0  0  0  0  0  0  0  0  0  0
    0.2814   -0.8838   -4.8826 H   0  0  0  0  0  0  0  0  0  0  0  0
    1.7505   -2.2047   -3.3302 H   0  0  0  0  0  0  0  0  0  0  0  0
    2.4931   -5.3917   -3.0185 H   0  0  0  0  0  0  0  0  0  0  0  0
    4.1832   -6.3078   -5.2897 H   0  0  0  0  0  0  0  0  0  0  0  0
    2.4135   -6.2314   -5.4419 H   0  0  0  0  0  0  0  0  0  0  0  0
    1.5107   -8.4066   -5.4863 H   0  0  0  0  0  0  0  0  0  0  0  0
    1.3747  -10.7216   -4.6238 H   0  0  0  0  0  0  0  0  0  0  0  0
    2.0695  -12.4052   -3.2269 H   0  0  0  0  0  0  0  0  0  0  0  0
    5.0180  -12.2675   -2.3512 H   0  0  0  0  0  0  0  0  0  0  0  0
    4.4361  -12.7035   -3.9744 H   0  0  0  0  0  0  0  0  0  0  0  0
    4.0566  -13.7459   -2.5782 H   0  0  0  0  0  0  0  0  0  0  0  0
    3.2403  -11.4802   -0.5338 H   0  0  0  0  0  0  0  0  0  0  0  0
    2.3465  -12.9887   -0.8287 H   0  0  0  0  0  0  0  0  0  0  0  0
    1.5242  -11.4155   -0.9974 H   0  0  0  0  0  0  0  0  0  0  0  0
    4.5808   -9.8747   -1.8679 H   0  0  0  0  0  0  0  0  0  0  0  0
    4.7109   -7.5641   -2.7314 H   0  0  0  0  0  0  0  0  0  0  0  0
    4.0869   -3.4900   -6.7334 H   0  0  0  0  0  0  0  0  0  0  0  0
  1  2  1  0
  1 24  1  0
  1 25  1  0
  1 26  1  0
  2  3  1  0
  3  4  2  0
  3 22  1  0
  4  5  1  0
  4 27  1  0
  5  6  2  0
  5 28  1  0
  6  7  1  0
  6 21  1  0
  7  8  2  0
  7  9  2  0
  7 10  1  1
 10 11  1  0
 10 29  1  0
 11 12  1  0
 11 30  1  0
 11 31  1  0
 12 13  2  0
 12 20  1  0
 13 14  1  0
 13 32  1  0
 14 15  2  0
 14 33  1  0
 15 16  1  0
 15 19  1  0
 16 17  1  0
 16 18  1  0
 16 34  1  6
 17 35  1  0
 17 36  1  0
 17 37  1  0
 18 38  1  0
 18 39  1  0
 18 40  1  0
 19 20  2  0
 19 41  1  0
 20 42  1  0
 21 22  2  0
 21 43  1  0
 22 23  1  0
M  END

