
     RDKit          3D

 47 50  0  0  0  0  0  0  0  0999 V2000
    5.1877   -1.1317   -1.6064 C   0  0  0  0  0  0  0  0  0  0  0  0
    4.2368   -0.4021   -0.6959 C   0  0  0  0  0  0  0  0  0  0  0  0
    4.5100    0.8836   -0.4599 N   0  0  0  0  0  0  0  0  0  0  0  0
    3.7305    1.5968    0.3496 C   0  0  0  0  0  0  0  0  0  0  0  0
    4.1569    3.0448    0.5390 C   0  0  1  0  0  0  0  0  0  0  0  0
    5.3899    3.1257    1.0523 F   0  0  0  0  0  0  0  0  0  0  0  0
    4.1530    3.7062   -0.6254 F   0  0  0  0  0  0  0  0  0  0  0  0
    3.3233    3.6908    1.3763 F   0  0  0  0  0  0  0  0  0  0  0  0
    2.6045    1.0820    0.9887 C   0  0  0  0  0  0  0  0  0  0  0  0
    2.2929   -0.2559    0.7430 C   0  0  0  0  0  0  0  0  0  0  0  0
    3.0993   -1.0207   -0.1070 C   0  0  0  0  0  0  0  0  0  0  0  0
    2.8075   -2.4820   -0.3395 C   0  0  0  0  0  0  0  0  0  0  0  0
    3.6898   -3.3207   -0.3764 O   0  0  0  0  0  0  0  0  0  0  0  0
    1.4652   -2.7701   -0.4933 N   0  0  0  0  0  0  0  0  0  0  0  0
    0.8459   -4.0177   -0.6761 C   0  0  0  0  0  0  0  0  0  0  0  0
    1.5367   -5.2418   -0.6402 C   0  0  0  0  0  0  0  0  0  0  0  0
    0.8434   -6.4374   -0.8253 C   0  0  0  0  0  0  0  0  0  0  0  0
   -0.5456   -6.4534   -1.0528 C   0  0  0  0  0  0  0  0  0  0  0  0
   -1.3413   -7.6707   -1.2453 C   0  0  0  0  0  0  0  0  0  0  0  0
   -2.6629   -7.6956   -1.2322 N   0  0  0  0  0  0  0  0  0  0  0  0
   -3.0373   -8.9959   -1.4542 C   0  0  0  0  0  0  0  0  0  0  0  0
   -4.3174   -9.5756   -1.5338 C   0  0  0  0  0  0  0  0  0  0  0  0
   -4.4101  -10.9416   -1.7690 C   0  0  0  0  0  0  0  0  0  0  0  0
   -3.2421  -11.7179   -1.9216 C   0  0  0  0  0  0  0  0  0  0  0  0
   -3.3829  -13.1641   -2.1705 N   0  0  0  0  0  0  0  0  0  0  0  0
   -4.5125  -13.6253   -2.2219 O   0  0  0  0  0  0  0  0  0  0  0  0
   -2.3587  -13.8161   -2.3127 O   0  0  0  0  0  0  0  0  0  0  0  0
   -1.9532  -11.1891   -1.8486 C   0  0  0  0  0  0  0  0  0  0  0  0
   -1.8911   -9.8195   -1.6150 C   0  0  0  0  0  0  0  0  0  0  0  0
   -0.8346   -8.9415   -1.4882 N   0  0  0  0  0  0  0  0  0  0  0  0
    0.4778   -9.3259   -1.5446 O   0  0  0  0  0  0  0  0  0  0  0  0
   -1.2294   -5.2200   -1.0774 C   0  0  0  0  0  0  0  0  0  0  0  0
   -0.5470   -4.0273   -0.8947 C   0  0  0  0  0  0  0  0  0  0  0  0
    5.8696   -0.4032   -2.0621 H   0  0  0  0  0  0  0  0  0  0  0  0
    4.6580   -1.6907   -2.3926 H   0  0  0  0  0  0  0  0  0  0  0  0
    5.7667   -1.8756   -1.0389 H   0  0  0  0  0  0  0  0  0  0  0  0
    2.0004    1.6982    1.6544 H   0  0  0  0  0  0  0  0  0  0  0  0
    1.4311   -0.7090    1.2405 H   0  0  0  0  0  0  0  0  0  0  0  0
    0.8435   -1.9720   -0.5527 H   0  0  0  0  0  0  0  0  0  0  0  0
    2.6098   -5.2460   -0.4678 H   0  0  0  0  0  0  0  0  0  0  0  0
    1.3970   -7.3734   -0.7721 H   0  0  0  0  0  0  0  0  0  0  0  0
   -5.2084   -8.9574   -1.4119 H   0  0  0  0  0  0  0  0  0  0  0  0
   -5.3741  -11.4437   -1.8402 H   0  0  0  0  0  0  0  0  0  0  0  0
   -1.0775  -11.8252   -1.9643 H   0  0  0  0  0  0  0  0  0  0  0  0
    0.7439   -9.2460   -2.4781 H   0  0  0  0  0  0  0  0  0  0  0  0
   -2.3078   -5.2249   -1.2410 H   0  0  0  0  0  0  0  0  0  0  0  0
   -1.0981   -3.0824   -0.9207 H   0  0  0  0  0  0  0  0  0  0  0  0
  1  2  1  0
  1 34  1  0
  1 35  1  0
  1 36  1  0
  2  3  2  0
  2 11  1  0
  3  4  1  0
  4  5  1  0
  4  9  2  0
  5  6  1  1
  5  7  1  0
  5  8  1  0
  9 10  1  0
  9 37  1  0
 10 11  2  0
 10 38  1  0
 11 12  1  0
 12 13  2  0
 12 14  1  0
 14 15  1  0
 14 39  1  0
 15 16  2  0
 15 33  1  0
 16 17  1  0
 16 40  1  0
 17 18  2  0
 17 41  1  0
 18 19  1  0
 18 32  1  0
 19 20  2  0
 19 30  1  0
 20 21  1  0
 21 22  1  0
 21 29  2  0
 22 23  2  0
 22 42  1  0
 23 24  1  0
 23 43  1  0
 24 25  1  0
 24 28  2  0
 25 26  1  0
 25 27  1  0
 28 29  1  0
 28 44  1  0
 29 30  1  0
 30 31  2  0
 31 45  1  0
 32 33  2  0
 32 46  1  0
 33 47  1  0
M  CHG  4  26  -1  27  -1  30   1  31   1
M  END

