
     RDKit          3D

 59 61  0  0  0  0  0  0  0  0999 V2000
    1.6314    3.3298   -2.5904 C   0  0  0  0  0  0  0  0  0  0  0  0
    1.7564    1.8818   -3.0647 C   0  0  0  0  0  0  0  0  0  0  0  0
    2.5346    0.9559   -2.1101 C   0  0  1  0  0  0  0  0  0  0  0  0
    2.3441   -0.4127   -2.4656 O   0  0  0  0  0  0  0  0  0  0  0  0
    1.2385   -1.1106   -2.0642 C   0  0  0  0  0  0  0  0  0  0  0  0
    0.2261   -0.5932   -1.2423 C   0  0  0  0  0  0  0  0  0  0  0  0
   -0.8449   -1.4193   -0.8874 C   0  0  0  0  0  0  0  0  0  0  0  0
   -0.9218   -2.7373   -1.3385 C   0  0  0  0  0  0  0  0  0  0  0  0
    0.0846   -3.2610   -2.1671 C   0  0  0  0  0  0  0  0  0  0  0  0
    0.0208   -4.6806   -2.6780 C   0  0  0  0  0  0  0  0  0  0  0  0
    1.1570   -2.4339   -2.5214 C   0  0  0  0  0  0  0  0  0  0  0  0
    4.0421    1.2596   -2.1220 C   0  0  0  0  0  0  0  0  0  0  0  0
    4.4537    2.3481   -1.7520 O   0  0  0  0  0  0  0  0  0  0  0  0
    4.8371    0.2558   -2.5793 N   0  0  0  0  0  0  0  0  0  0  0  0
    6.2753    0.3550   -2.6467 C   0  0  1  0  0  0  0  0  0  0  0  0
    7.0396   -0.7670   -1.9246 C   0  0  0  0  0  0  0  0  0  0  0  0
    8.4447   -0.6713   -2.5205 C   0  0  0  0  0  0  0  0  0  0  0  0
    8.2118   -0.1753   -3.8855 N   0  0  0  0  0  0  0  0  0  0  0  0
    9.2225   -0.2396   -4.8093 C   0  0  0  0  0  0  0  0  0  0  0  0
   10.3173   -0.6911   -4.4925 O   0  0  0  0  0  0  0  0  0  0  0  0
    8.9225    0.3016   -6.2108 C   0  0  1  0  0  0  0  0  0  0  0  0
    9.2179    1.8232   -6.2806 C   0  0  0  0  0  0  0  0  0  0  0  0
   10.7200    2.1347   -6.2975 C   0  0  0  0  0  0  0  0  0  0  0  0
   11.4230    1.4116   -7.4532 C   0  0  0  0  0  0  0  0  0  0  0  0
   11.1942   -0.1032   -7.3829 C   0  0  0  0  0  0  0  0  0  0  0  0
    9.7002   -0.4528   -7.3125 C   0  0  0  0  0  0  0  0  0  0  0  0
    6.8416    0.2898   -4.0819 C   0  0  0  0  0  0  0  0  0  0  0  0
    1.0564    3.9238   -3.3180 H   0  0  0  0  0  0  0  0  0  0  0  0
    2.6180    3.7927   -2.4552 H   0  0  0  0  0  0  0  0  0  0  0  0
    1.1032    3.3862   -1.6237 H   0  0  0  0  0  0  0  0  0  0  0  0
    2.2387    1.8352   -4.0563 H   0  0  0  0  0  0  0  0  0  0  0  0
    0.7531    1.4428   -3.1914 H   0  0  0  0  0  0  0  0  0  0  0  0
    2.2097    1.1284   -1.0694 H   0  0  0  0  0  0  0  0  0  0  0  0
    0.2561    0.4339   -0.8793 H   0  0  0  0  0  0  0  0  0  0  0  0
   -1.6339   -1.0181   -0.2460 H   0  0  0  0  0  0  0  0  0  0  0  0
   -1.7682   -3.3653   -1.0493 H   0  0  0  0  0  0  0  0  0  0  0  0
   -0.8408   -5.2216   -2.2606 H   0  0  0  0  0  0  0  0  0  0  0  0
    0.9324   -5.2426   -2.4163 H   0  0  0  0  0  0  0  0  0  0  0  0
   -0.0676   -4.7052   -3.7773 H   0  0  0  0  0  0  0  0  0  0  0  0
    1.9574   -2.8072   -3.1655 H   0  0  0  0  0  0  0  0  0  0  0  0
    4.3751   -0.6143   -2.8248 H   0  0  0  0  0  0  0  0  0  0  0  0
    6.5330    1.3277   -2.2018 H   0  0  0  0  0  0  0  0  0  0  0  0
    6.5822   -1.7417   -2.1706 H   0  0  0  0  0  0  0  0  0  0  0  0
    7.0235   -0.6553   -0.8309 H   0  0  0  0  0  0  0  0  0  0  0  0
    8.9850   -1.6284   -2.5506 H   0  0  0  0  0  0  0  0  0  0  0  0
    9.0820    0.0354   -1.9591 H   0  0  0  0  0  0  0  0  0  0  0  0
    7.8479    0.1599   -6.4077 H   0  0  0  0  0  0  0  0  0  0  0  0
    8.7262    2.3478   -5.4438 H   0  0  0  0  0  0  0  0  0  0  0  0
    8.7578    2.2158   -7.2056 H   0  0  0  0  0  0  0  0  0  0  0  0
   11.1737    1.8217   -5.3416 H   0  0  0  0  0  0  0  0  0  0  0  0
   10.8683    3.2251   -6.3770 H   0  0  0  0  0  0  0  0  0  0  0  0
   12.5033    1.6342   -7.4416 H   0  0  0  0  0  0  0  0  0  0  0  0
   11.0357    1.8034   -8.4135 H   0  0  0  0  0  0  0  0  0  0  0  0
   11.6932   -0.5069   -6.4897 H   0  0  0  0  0  0  0  0  0  0  0  0
   11.6432   -0.5970   -8.2618 H   0  0  0  0  0  0  0  0  0  0  0  0
    9.5717   -1.5396   -7.1803 H   0  0  0  0  0  0  0  0  0  0  0  0
    9.2254   -0.1973   -8.2777 H   0  0  0  0  0  0  0  0  0  0  0  0
    6.2461   -0.4201   -4.6893 H   0  0  0  0  0  0  0  0  0  0  0  0
    6.7948    1.2713   -4.5771 H   0  0  0  0  0  0  0  0  0  0  0  0
  1  2  1  0
  1 28  1  0
  1 29  1  0
  1 30  1  0
  2  3  1  0
  2 31  1  0
  2 32  1  0
  3  4  1  0
  3 12  1  0
  3 33  1  1
  4  5  1  0
  5  6  2  0
  5 11  1  0
  6  7  1  0
  6 34  1  0
  7  8  2  0
  7 35  1  0
  8  9  1  0
  8 36  1  0
  9 10  1  0
  9 11  2  0
 10 37  1  0
 10 38  1  0
 10 39  1  0
 11 40  1  0
 12 13  2  0
 12 14  1  0
 14 15  1  0
 14 41  1  0
 15 16  1  0
 15 27  1  0
 15 42  1  1
 16 17  1  0
 16 43  1  0
 16 44  1  0
 17 18  1  0
 17 45  1  0
 17 46  1  0
 18 19  1  0
 18 27  1  0
 19 20  2  0
 19 21  1  0
 21 22  1  0
 21 26  1  0
 21 47  1  6
 22 23  1  0
 22 48  1  0
 22 49  1  0
 23 24  1  0
 23 50  1  0
 23 51  1  0
 24 25  1  0
 24 52  1  0
 24 53  1  0
 25 26  1  0
 25 54  1  0
 25 55  1  0
 26 56  1  0
 26 57  1  0
 27 58  1  0
 27 59  1  0
M  END

