
     RDKit          3D

 52 52  0  0  0  0  0  0  0  0999 V2000
    3.0050    4.5284   -4.7378 C   0  0  0  0  0  0  0  0  0  0  0  0
    4.4485    4.6087   -4.8329 N   0  0  0  0  0  0  0  0  0  0  0  0
    5.1281    4.2049   -5.9448 C   0  0  0  0  0  0  0  0  0  0  0  0
    4.5977    3.7610   -6.9478 O   0  0  0  0  0  0  0  0  0  0  0  0
    6.5333    4.3519   -5.8764 N   0  0  0  0  0  0  0  0  0  0  0  0
    7.3704    3.7597   -6.9175 C   0  0  0  0  0  0  0  0  0  0  0  0
    8.4656    4.6940   -7.3933 C   0  0  0  0  0  0  0  0  0  0  0  0
    9.7744    4.2243   -7.5734 C   0  0  0  0  0  0  0  0  0  0  0  0
   10.7827    5.0723   -8.0442 C   0  0  0  0  0  0  0  0  0  0  0  0
   10.4958    6.4086   -8.3338 C   0  0  0  0  0  0  0  0  0  0  0  0
    9.1942    6.8897   -8.1534 C   0  0  0  0  0  0  0  0  0  0  0  0
    8.1883    6.0390   -7.6889 C   0  0  0  0  0  0  0  0  0  0  0  0
    7.1313    4.6304   -4.6657 N   0  0  0  0  0  0  0  0  0  0  0  0
    7.3638    3.6499   -3.7288 C   0  0  0  0  0  0  0  0  0  0  0  0
    6.9406    2.5117   -3.8807 O   0  0  0  0  0  0  0  0  0  0  0  0
    8.0966    4.1261   -2.4776 C   0  0  2  0  0  0  0  0  0  0  0  0
    7.7726    5.1659   -2.2920 H   0  0  0  0  0  0  0  0  0  0  0  0
    9.6432    4.1935   -2.6233 C   0  0  0  0  0  0  0  0  0  0  0  0
   10.4622    2.8873   -2.5827 C   0  0  1  0  0  0  0  0  0  0  0  0
   10.2235    1.9589   -3.7811 C   0  0  0  0  0  0  0  0  0  0  0  0
   11.9527    3.2396   -2.4638 C   0  0  0  0  0  0  0  0  0  0  0  0
    7.6612    3.2956   -1.2379 C   0  0  1  0  0  0  0  0  0  0  0  0
    8.4022    3.6681   -0.1111 O   0  0  0  0  0  0  0  0  0  0  0  0
    6.1761    3.5145   -0.9031 C   0  0  0  0  0  0  0  0  0  0  0  0
    5.8545    4.2146    0.0646 O   0  0  0  0  0  0  0  0  0  0  0  0
    5.2443    2.9345   -1.6695 N   0  0  0  0  0  0  0  0  0  0  0  0
    3.9145    3.2142   -1.4099 O   0  0  0  0  0  0  0  0  0  0  0  0
    2.5231    5.5150   -4.8612 H   0  0  0  0  0  0  0  0  0  0  0  0
    2.7161    4.1120   -3.7606 H   0  0  0  0  0  0  0  0  0  0  0  0
    2.6434    3.8692   -5.5375 H   0  0  0  0  0  0  0  0  0  0  0  0
    4.9645    5.0132   -4.0642 H   0  0  0  0  0  0  0  0  0  0  0  0
    6.6787    3.5157   -7.7367 H   0  0  0  0  0  0  0  0  0  0  0  0
    7.8038    2.8099   -6.5600 H   0  0  0  0  0  0  0  0  0  0  0  0
   10.0063    3.1797   -7.3456 H   0  0  0  0  0  0  0  0  0  0  0  0
   11.7967    4.6871   -8.1800 H   0  0  0  0  0  0  0  0  0  0  0  0
   11.2825    7.0740   -8.6983 H   0  0  0  0  0  0  0  0  0  0  0  0
    8.9604    7.9330   -8.3821 H   0  0  0  0  0  0  0  0  0  0  0  0
    7.1706    6.4168   -7.5566 H   0  0  0  0  0  0  0  0  0  0  0  0
    7.5931    5.5333   -4.5797 H   0  0  0  0  0  0  0  0  0  0  0  0
    9.9859    4.8254   -1.7908 H   0  0  0  0  0  0  0  0  0  0  0  0
    9.8837    4.7418   -3.5527 H   0  0  0  0  0  0  0  0  0  0  0  0
   10.1834    2.3472   -1.6613 H   0  0  0  0  0  0  0  0  0  0  0  0
   10.4525    2.4763   -4.7295 H   0  0  0  0  0  0  0  0  0  0  0  0
    9.1871    1.5981   -3.8356 H   0  0  0  0  0  0  0  0  0  0  0  0
   10.8810    1.0764   -3.7225 H   0  0  0  0  0  0  0  0  0  0  0  0
   12.2989    3.8033   -3.3477 H   0  0  0  0  0  0  0  0  0  0  0  0
   12.5694    2.3297   -2.3893 H   0  0  0  0  0  0  0  0  0  0  0  0
   12.1542    3.8558   -1.5729 H   0  0  0  0  0  0  0  0  0  0  0  0
    7.8233    2.2280   -1.4615 H   0  0  0  0  0  0  0  0  0  0  0  0
    7.7737    4.1521    0.4593 H   0  0  0  0  0  0  0  0  0  0  0  0
    5.4262    2.4258   -2.5335 H   0  0  0  0  0  0  0  0  0  0  0  0
    3.9810    3.7297   -0.5776 H   0  0  0  0  0  0  0  0  0  0  0  0
  1  2  1  0
  1 28  1  0
  1 29  1  0
  1 30  1  0
  2  3  1  0
  2 31  1  0
  3  4  2  0
  3  5  1  0
  5  6  1  0
  5 13  1  0
  6  7  1  0
  6 32  1  0
  6 33  1  0
  7  8  2  0
  7 12  1  0
  8  9  1  0
  8 34  1  0
  9 10  2  0
  9 35  1  0
 10 11  1  0
 10 36  1  0
 11 12  2  0
 11 37  1  0
 12 38  1  0
 13 14  1  0
 13 39  1  0
 14 15  2  0
 14 16  1  0
 16 17  1  1
 16 18  1  0
 16 22  1  0
 18 19  1  0
 18 40  1  0
 18 41  1  0
 19 20  1  0
 19 21  1  0
 19 42  1  1
 20 43  1  0
 20 44  1  0
 20 45  1  0
 21 46  1  0
 21 47  1  0
 21 48  1  0
 22 23  1  0
 22 24  1  0
 22 49  1  6
 23 50  1  0
 24 25  2  0
 24 26  1  0
 26 27  1  0
 26 51  1  0
 27 52  1  0
M  END

