
     RDKit          3D

 30 32  0  0  0  0  0  0  0  0999 V2000
    1.7730    0.3488   -1.7786 N   0  0  0  0  0  0  0  0  0  0  0  0
    2.9852    0.1833   -1.1477 C   0  0  0  0  0  0  0  0  0  0  0  0
    3.8101    1.2918   -0.8553 C   0  0  0  0  0  0  0  0  0  0  0  0
    4.9902    1.0553   -0.1604 C   0  0  0  0  0  0  0  0  0  0  0  0
    5.4122   -0.1438    0.2378 N   0  0  0  0  0  0  0  0  0  0  0  0
    4.6491   -1.2136   -0.0511 C   0  0  0  0  0  0  0  0  0  0  0  0
    5.1470   -2.4480    0.3454 N   0  0  0  0  0  0  0  0  0  0  0  0
    4.3761   -3.6692    0.1706 C   0  0  0  0  0  0  0  0  0  0  0  0
    5.3028   -4.8918    0.2198 C   0  0  1  0  0  0  0  0  0  0  0  0
    6.4223   -4.8267   -0.8465 C   0  0  0  0  0  0  0  0  0  0  0  0
    7.5596   -4.0826   -0.1018 C   0  0  0  0  0  0  0  0  0  0  0  0
    6.9429   -3.8258    1.2931 C   0  0  1  0  0  0  0  0  0  0  0  0
    6.1885   -2.4997    1.3732 C   0  0  0  0  0  0  0  0  0  0  0  0
    6.0070   -4.8967    1.4577 O   0  0  0  0  0  0  0  0  0  0  0  0
    3.4159   -1.0861   -0.7294 C   0  0  0  0  0  0  0  0  0  0  0  0
    1.6092    1.2180   -2.2700 H   0  0  0  0  0  0  0  0  0  0  0  0
    1.3329   -0.4639   -2.1908 H   0  0  0  0  0  0  0  0  0  0  0  0
    3.5237    2.3042   -1.1487 H   0  0  0  0  0  0  0  0  0  0  0  0
    5.6427    1.9013    0.0916 H   0  0  0  0  0  0  0  0  0  0  0  0
    3.8709   -3.6527   -0.8063 H   0  0  0  0  0  0  0  0  0  0  0  0
    3.5942   -3.7790    0.9513 H   0  0  0  0  0  0  0  0  0  0  0  0
    4.7000   -5.8110    0.1683 H   0  0  0  0  0  0  0  0  0  0  0  0
    6.0978   -4.3043   -1.7584 H   0  0  0  0  0  0  0  0  0  0  0  0
    6.7295   -5.8437   -1.1314 H   0  0  0  0  0  0  0  0  0  0  0  0
    7.8518   -3.1466   -0.5991 H   0  0  0  0  0  0  0  0  0  0  0  0
    8.4562   -4.7131   -0.0110 H   0  0  0  0  0  0  0  0  0  0  0  0
    7.6717   -3.8882    2.1147 H   0  0  0  0  0  0  0  0  0  0  0  0
    6.8578   -1.6437    1.2271 H   0  0  0  0  0  0  0  0  0  0  0  0
    5.7454   -2.4073    2.3857 H   0  0  0  0  0  0  0  0  0  0  0  0
    2.7776   -1.9486   -0.9197 H   0  0  0  0  0  0  0  0  0  0  0  0
  1  2  1  0
  1 16  1  0
  1 17  1  0
  2  3  2  0
  2 15  1  0
  3  4  1  0
  3 18  1  0
  4  5  2  0
  4 19  1  0
  5  6  1  0
  6  7  1  0
  6 15  2  0
  7  8  1  0
  7 13  1  0
  8  9  1  0
  8 20  1  0
  8 21  1  0
  9 10  1  0
  9 14  1  0
  9 22  1  6
 10 11  1  0
 10 23  1  0
 10 24  1  0
 11 12  1  0
 11 25  1  0
 11 26  1  0
 12 13  1  0
 12 14  1  0
 12 27  1  1
 13 28  1  0
 13 29  1  0
 15 30  1  0
M  END

