
     RDKit          3D

 42 45  0  0  0  0  0  0  0  0999 V2000
    4.4669   -0.4581    1.2306 C   0  0  0  0  0  0  0  0  0  0  0  0
    3.4563    0.0760    0.4017 O   0  0  0  0  0  0  0  0  0  0  0  0
    3.7360    0.3681   -0.8886 C   0  0  0  0  0  0  0  0  0  0  0  0
    4.9885    0.1778   -1.4952 C   0  0  0  0  0  0  0  0  0  0  0  0
    5.1705    0.5216   -2.8383 C   0  0  0  0  0  0  0  0  0  0  0  0
    4.1147    1.0408   -3.5933 C   0  0  0  0  0  0  0  0  0  0  0  0
    4.3069    1.3804   -4.9658 N   0  0  0  0  0  0  0  0  0  0  0  0
    4.5360    0.4697   -6.0084 C   0  0  0  0  0  0  0  0  0  0  0  0
    4.6157   -0.9257   -5.9609 C   0  0  0  0  0  0  0  0  0  0  0  0
    4.8459   -1.5998   -7.1616 C   0  0  0  0  0  0  0  0  0  0  0  0
    4.9907   -0.9062   -8.3779 C   0  0  0  0  0  0  0  0  0  0  0  0
    4.9036    0.4852   -8.4194 C   0  0  0  0  0  0  0  0  0  0  0  0
    4.6728    1.1845   -7.2267 C   0  0  0  0  0  0  0  0  0  0  0  0
    4.5173    2.5910   -6.8997 C   0  0  0  0  0  0  0  0  0  0  0  0
    4.5543    3.7568   -7.6576 C   0  0  0  0  0  0  0  0  0  0  0  0
    4.3716    5.0090   -7.0251 C   0  0  0  0  0  0  0  0  0  0  0  0
    4.3881    6.2847   -7.7063 C   0  0  0  0  0  0  0  0  0  0  0  0
    4.5657    6.6175   -9.0287 C   0  0  0  0  0  0  0  0  0  0  0  0
    4.7901    5.6813  -10.0903 C   0  0  0  0  0  0  0  0  0  0  0  0
    4.9731    4.9299  -10.9579 N   0  0  0  0  0  0  0  0  0  0  0  0
    4.5310    8.0003   -9.4152 C   0  0  0  0  0  0  0  0  0  0  0  0
    4.5015    9.1210   -9.7205 N   0  0  0  0  0  0  0  0  0  0  0  0
    4.1572    5.0389   -5.6147 C   0  0  0  0  0  0  0  0  0  0  0  0
    4.1166    3.8895   -4.8404 C   0  0  0  0  0  0  0  0  0  0  0  0
    4.2934    2.6582   -5.4907 C   0  0  0  0  0  0  0  0  0  0  0  0
    2.8606    1.2214   -2.9859 C   0  0  0  0  0  0  0  0  0  0  0  0
    2.6748    0.8967   -1.6478 C   0  0  0  0  0  0  0  0  0  0  0  0
    4.0111   -0.6123    2.2174 H   0  0  0  0  0  0  0  0  0  0  0  0
    5.3206    0.2351    1.3345 H   0  0  0  0  0  0  0  0  0  0  0  0
    4.8375   -1.4275    0.8521 H   0  0  0  0  0  0  0  0  0  0  0  0
    5.8300   -0.2267   -0.9331 H   0  0  0  0  0  0  0  0  0  0  0  0
    6.1487    0.3864   -3.3048 H   0  0  0  0  0  0  0  0  0  0  0  0
    4.5003   -1.4680   -5.0210 H   0  0  0  0  0  0  0  0  0  0  0  0
    4.9128   -2.6907   -7.1550 H   0  0  0  0  0  0  0  0  0  0  0  0
    5.1706   -1.4658   -9.2986 H   0  0  0  0  0  0  0  0  0  0  0  0
    5.0113    1.0212   -9.3656 H   0  0  0  0  0  0  0  0  0  0  0  0
    4.7257    3.6932   -8.7312 H   0  0  0  0  0  0  0  0  0  0  0  0
    4.2308    7.1476   -7.0523 H   0  0  0  0  0  0  0  0  0  0  0  0
    4.0217    6.0085   -5.1287 H   0  0  0  0  0  0  0  0  0  0  0  0
    3.9536    3.9423   -3.7630 H   0  0  0  0  0  0  0  0  0  0  0  0
    2.0295    1.6157   -3.5748 H   0  0  0  0  0  0  0  0  0  0  0  0
    1.7071    1.0327   -1.1613 H   0  0  0  0  0  0  0  0  0  0  0  0
  1  2  1  0
  1 28  1  0
  1 29  1  0
  1 30  1  0
  2  3  1  0
  3  4  2  0
  3 27  1  0
  4  5  1  0
  4 31  1  0
  5  6  2  0
  5 32  1  0
  6  7  1  0
  6 26  1  0
  7  8  1  0
  7 25  1  0
  8  9  2  0
  8 13  1  0
  9 10  1  0
  9 33  1  0
 10 11  2  0
 10 34  1  0
 11 12  1  0
 11 35  1  0
 12 13  2  0
 12 36  1  0
 13 14  1  0
 14 15  1  0
 14 25  2  0
 15 16  2  0
 15 37  1  0
 16 17  1  0
 16 23  1  0
 17 18  2  0
 17 38  1  0
 18 19  1  0
 18 21  1  0
 19 20  3  0
 21 22  3  0
 23 24  2  0
 23 39  1  0
 24 25  1  0
 24 40  1  0
 26 27  2  0
 26 41  1  0
 27 42  1  0
M  END

