
     RDKit          3D

 48 49  0  0  0  0  0  0  0  0999 V2000
    4.5285   -0.1256    4.0085 C   0  0  0  0  0  0  0  0  0  0  0  0
    3.9703    0.3299    2.6990 C   0  0  0  0  0  0  0  0  0  0  0  0
    4.0573    1.6142    2.5002 O   0  0  0  0  0  0  0  0  0  0  0  0
    3.3896   -0.5045    1.7245 C   0  0  0  0  0  0  0  0  0  0  0  0
    2.9120    0.1358    0.5138 C   0  0  0  0  0  0  0  0  0  0  0  0
    2.9778    1.3486    0.3069 O   0  0  0  0  0  0  0  0  0  0  0  0
    2.3661   -0.6200   -0.4551 O   0  0  0  0  0  0  0  0  0  0  0  0
    2.2063   -2.0146   -0.4201 C   0  0  0  0  0  0  0  0  0  0  0  0
    1.7415   -2.4984   -1.4195 O   0  0  0  0  0  0  0  0  0  0  0  0
    2.6228   -2.7003    0.7995 C   0  0  0  0  0  0  0  0  0  0  0  0
    2.4185   -4.1050    0.9051 C   0  0  0  0  0  0  0  0  0  0  0  0
    1.6603   -4.8982   -0.1208 C   0  0  0  0  0  0  0  0  0  0  0  0
    2.8806   -4.7248    2.0026 N   0  0  0  0  0  0  0  0  0  0  0  0
    2.9122   -6.0921    2.3454 C   0  0  0  0  0  0  0  0  0  0  0  0
    3.2712   -7.0881    1.4248 C   0  0  0  0  0  0  0  0  0  0  0  0
    3.3350   -8.4214    1.8558 C   0  0  0  0  0  0  0  0  0  0  0  0
    3.6832   -9.4669    0.9830 N   0  0  0  0  0  0  0  0  0  0  0  0
    3.9668   -9.4194   -0.3372 C   0  0  0  0  0  0  0  0  0  0  0  0
    3.9903   -8.4440   -1.0771 O   0  0  0  0  0  0  0  0  0  0  0  0
    4.2940  -10.8151   -0.9173 C   0  0  0  0  0  0  0  0  0  0  0  0
    4.2908  -11.8177   -0.2509 O   0  0  0  0  0  0  0  0  0  0  0  0
    4.5687  -10.7496   -2.2089 O   0  0  0  0  0  0  0  0  0  0  0  0
    3.0680   -8.7675    3.1893 C   0  0  0  0  0  0  0  0  0  0  0  0
    2.7344   -7.7593    4.1027 C   0  0  0  0  0  0  0  0  0  0  0  0
    2.4628   -8.0347    5.4536 N   0  0  0  0  0  0  0  0  0  0  0  0
    2.4670   -9.2214    6.0999 C   0  0  0  0  0  0  0  0  0  0  0  0
    2.7109  -10.3332    5.6490 O   0  0  0  0  0  0  0  0  0  0  0  0
    2.1079   -9.0737    7.5966 C   0  0  0  0  0  0  0  0  0  0  0  0
    1.8566   -8.0123    8.1066 O   0  0  0  0  0  0  0  0  0  0  0  0
    2.1164  -10.2423    8.2144 O   0  0  0  0  0  0  0  0  0  0  0  0
    2.6531   -6.4238    3.6819 C   0  0  0  0  0  0  0  0  0  0  0  0
    3.2513   -1.9499    1.8914 C   0  0  0  0  0  0  0  0  0  0  0  0
    3.6474   -2.5086    2.9406 O   0  0  0  0  0  0  0  0  0  0  0  0
    4.9281    0.7443    4.5455 H   0  0  0  0  0  0  0  0  0  0  0  0
    5.3103   -0.8826    3.8541 H   0  0  0  0  0  0  0  0  0  0  0  0
    3.7524   -0.6267    4.6045 H   0  0  0  0  0  0  0  0  0  0  0  0
    3.6440    1.8020    1.5791 H   0  0  0  0  0  0  0  0  0  0  0  0
    0.7875   -4.3324   -0.4648 H   0  0  0  0  0  0  0  0  0  0  0  0
    1.3484   -5.8681    0.2829 H   0  0  0  0  0  0  0  0  0  0  0  0
    2.2718   -5.0648   -1.0213 H   0  0  0  0  0  0  0  0  0  0  0  0
    3.5250   -6.8446    0.3976 H   0  0  0  0  0  0  0  0  0  0  0  0
    3.7319  -10.4093    1.3699 H   0  0  0  0  0  0  0  0  0  0  0  0
    4.4884   -9.8031   -2.4581 H   0  0  0  0  0  0  0  0  0  0  0  0
    3.1234   -9.8023    3.5232 H   0  0  0  0  0  0  0  0  0  0  0  0
    2.2254   -7.2506    6.0609 H   0  0  0  0  0  0  0  0  0  0  0  0
    2.3559  -10.9098    7.5351 H   0  0  0  0  0  0  0  0  0  0  0  0
    2.3803   -5.6368    4.3885 H   0  0  0  0  0  0  0  0  0  0  0  0
    3.2901   -4.0344    2.6808 H   0  0  0  0  0  0  0  0  0  0  0  0
  1  2  1  0
  1 34  1  0
  1 35  1  0
  1 36  1  0
  2  3  1  0
  2  4  2  0
  3 37  1  0
  4  5  1  0
  4 32  1  0
  5  6  2  0
  5  7  1  0
  7  8  1  0
  8  9  2  0
  8 10  1  0
 10 11  2  0
 10 32  1  0
 11 12  1  0
 11 13  1  0
 12 38  1  0
 12 39  1  0
 12 40  1  0
 13 14  1  0
 13 48  1  0
 14 15  2  0
 14 31  1  0
 15 16  1  0
 15 41  1  0
 16 17  1  0
 16 23  2  0
 17 18  1  0
 17 42  1  0
 18 19  2  0
 18 20  1  0
 20 21  2  0
 20 22  1  0
 22 43  1  0
 23 24  1  0
 23 44  1  0
 24 25  1  0
 24 31  2  0
 25 26  1  0
 25 45  1  0
 26 27  2  0
 26 28  1  0
 28 29  2  0
 28 30  1  0
 30 46  1  0
 31 47  1  0
 32 33  2  0
M  END

