
     RDKit          3D

 29 29  0  0  0  0  0  0  0  0999 V2000
    2.4384   -0.1831    0.9769 C   0  0  0  0  0  0  0  0  0  0  0  0
    3.1618    0.0545   -0.3479 C   0  0  1  0  0  0  0  0  0  0  0  0
    2.3734   -0.5233   -1.3522 O   0  0  0  0  0  0  0  0  0  0  0  0
    2.9079   -0.5275   -2.6467 C   0  0  0  0  0  0  0  0  0  0  0  0
    2.1799   -1.5816   -3.4602 C   0  0  1  0  0  0  0  0  0  0  0  0
    0.8669   -1.3408   -3.5371 F   0  0  0  0  0  0  0  0  0  0  0  0
    2.6736   -1.5936   -4.7127 F   0  0  0  0  0  0  0  0  0  0  0  0
    2.3428   -2.8104   -2.9461 F   0  0  0  0  0  0  0  0  0  0  0  0
    3.3784    1.5683   -0.6010 C   0  0  0  0  0  0  0  0  0  0  0  0
    2.6926    2.1883   -1.3905 O   0  0  0  0  0  0  0  0  0  0  0  0
    4.3927    2.1067    0.1524 N   0  0  0  0  0  0  0  0  0  0  0  0
    4.8399    3.4434    0.2268 C   0  0  0  0  0  0  0  0  0  0  0  0
    4.2723    4.4870   -0.5253 C   0  0  0  0  0  0  0  0  0  0  0  0
    4.7771    5.7830   -0.3894 C   0  0  0  0  0  0  0  0  0  0  0  0
    5.8357    6.0628    0.4788 C   0  0  0  0  0  0  0  0  0  0  0  0
    6.3979    5.0224    1.2249 C   0  0  0  0  0  0  0  0  0  0  0  0
    5.9057    3.7239    1.1015 C   0  0  0  0  0  0  0  0  0  0  0  0
    2.2701   -1.2610    1.1156 H   0  0  0  0  0  0  0  0  0  0  0  0
    1.4621    0.3235    0.9586 H   0  0  0  0  0  0  0  0  0  0  0  0
    3.0184    0.1991    1.8299 H   0  0  0  0  0  0  0  0  0  0  0  0
    4.1602   -0.4371   -0.3230 H   0  0  0  0  0  0  0  0  0  0  0  0
    3.9820   -0.7973   -2.6533 H   0  0  0  0  0  0  0  0  0  0  0  0
    2.7855    0.4459   -3.1502 H   0  0  0  0  0  0  0  0  0  0  0  0
    4.8976    1.4600    0.7484 H   0  0  0  0  0  0  0  0  0  0  0  0
    3.4494    4.2710   -1.2024 H   0  0  0  0  0  0  0  0  0  0  0  0
    4.3285    6.5871   -0.9786 H   0  0  0  0  0  0  0  0  0  0  0  0
    6.2198    7.0810    0.5740 H   0  0  0  0  0  0  0  0  0  0  0  0
    7.2264    5.2199    1.9100 H   0  0  0  0  0  0  0  0  0  0  0  0
    6.3508    2.9155    1.6902 H   0  0  0  0  0  0  0  0  0  0  0  0
  1  2  1  0
  1 18  1  0
  1 19  1  0
  1 20  1  0
  2  3  1  0
  2  9  1  0
  2 21  1  1
  3  4  1  0
  4  5  1  0
  4 22  1  0
  4 23  1  0
  5  6  1  6
  5  7  1  0
  5  8  1  0
  9 10  2  0
  9 11  1  0
 11 12  1  0
 11 24  1  0
 12 13  2  0
 12 17  1  0
 13 14  1  0
 13 25  1  0
 14 15  2  0
 14 26  1  0
 15 16  1  0
 15 27  1  0
 16 17  2  0
 16 28  1  0
 17 29  1  0
M  END

