
     RDKit          3D

 48 51  0  0  0  0  0  0  0  0999 V2000
    1.5491    0.4525   -0.0305 C   0  0  0  0  0  0  0  0  0  0  0  0
    2.9690    0.0363    0.1900 C   0  0  0  0  0  0  0  0  0  0  0  0
    3.9297    0.9426    0.1815 N   0  0  0  0  0  0  0  0  0  0  0  0
    5.0916    0.2702    0.3925 N   0  0  0  0  0  0  0  0  0  0  0  0
    6.3003    1.0170    0.4617 C   0  0  0  0  0  0  0  0  0  0  0  0
    6.2851    2.2707    1.0919 C   0  0  0  0  0  0  0  0  0  0  0  0
    7.4559    3.0253    1.1621 C   0  0  0  0  0  0  0  0  0  0  0  0
    8.6480    2.5396    0.6133 C   0  0  0  0  0  0  0  0  0  0  0  0
    8.6565    1.2961   -0.0231 C   0  0  0  0  0  0  0  0  0  0  0  0
    7.4863    0.5367   -0.1103 C   0  0  0  0  0  0  0  0  0  0  0  0
    4.8856   -1.0731    0.5597 C   0  0  0  0  0  0  0  0  0  0  0  0
    5.9585   -2.0638    0.8796 C   0  0  0  0  0  0  0  0  0  0  0  0
    3.5052   -1.2768    0.4255 C   0  0  0  0  0  0  0  0  0  0  0  0
    2.8464   -2.5605    0.5307 C   0  0  0  0  0  0  0  0  0  0  0  0
    1.5363   -2.8635    0.4015 C   0  0  0  0  0  0  0  0  0  0  0  0
    1.0940   -4.2755    0.5556 C   0  0  0  0  0  0  0  0  0  0  0  0
    1.8547   -5.2075    0.7975 O   0  0  0  0  0  0  0  0  0  0  0  0
   -0.2501   -4.4753    0.4065 N   0  0  0  0  0  0  0  0  0  0  0  0
   -0.8217   -5.7913    0.5271 C   0  0  0  0  0  0  0  0  0  0  0  0
   -2.3059   -5.7310    0.2964 C   0  0  0  0  0  0  0  0  0  0  0  0
   -2.9485   -4.6397    0.0420 N   0  0  0  0  0  0  0  0  0  0  0  0
   -4.3037   -4.8663   -0.1255 C   0  0  0  0  0  0  0  0  0  0  0  0
   -5.2696   -3.8875   -0.4114 C   0  0  0  0  0  0  0  0  0  0  0  0
   -6.6000   -4.2722   -0.5518 C   0  0  0  0  0  0  0  0  0  0  0  0
   -6.9813   -5.6201   -0.4112 C   0  0  0  0  0  0  0  0  0  0  0  0
   -6.0389   -6.6083   -0.1274 C   0  0  0  0  0  0  0  0  0  0  0  0
   -4.7016   -6.2212    0.0138 C   0  0  0  0  0  0  0  0  0  0  0  0
   -3.2918   -7.2008    0.3652 S   0  0  0  0  0  0  0  0  0  0  0  0
    1.5047    1.5418   -0.1665 H   0  0  0  0  0  0  0  0  0  0  0  0
    0.9103    0.1798    0.8257 H   0  0  0  0  0  0  0  0  0  0  0  0
    1.1212   -0.0284   -0.9257 H   0  0  0  0  0  0  0  0  0  0  0  0
    5.3473    2.6380    1.5090 H   0  0  0  0  0  0  0  0  0  0  0  0
    7.4371    4.0006    1.6549 H   0  0  0  0  0  0  0  0  0  0  0  0
    9.5639    3.1321    0.6745 H   0  0  0  0  0  0  0  0  0  0  0  0
    9.5770    0.9154   -0.4726 H   0  0  0  0  0  0  0  0  0  0  0  0
    7.4930   -0.4124   -0.6461 H   0  0  0  0  0  0  0  0  0  0  0  0
    6.7233   -1.6323    1.5421 H   0  0  0  0  0  0  0  0  0  0  0  0
    6.4720   -2.4333   -0.0242 H   0  0  0  0  0  0  0  0  0  0  0  0
    5.5234   -2.9374    1.3838 H   0  0  0  0  0  0  0  0  0  0  0  0
    3.4881   -3.4233    0.7437 H   0  0  0  0  0  0  0  0  0  0  0  0
    0.7798   -2.1071    0.1831 H   0  0  0  0  0  0  0  0  0  0  0  0
   -0.8940   -3.7166    0.2050 H   0  0  0  0  0  0  0  0  0  0  0  0
   -0.6143   -6.2245    1.5242 H   0  0  0  0  0  0  0  0  0  0  0  0
   -0.3558   -6.4916   -0.1916 H   0  0  0  0  0  0  0  0  0  0  0  0
   -4.9589   -2.8463   -0.5177 H   0  0  0  0  0  0  0  0  0  0  0  0
   -7.3600   -3.5194   -0.7743 H   0  0  0  0  0  0  0  0  0  0  0  0
   -8.0317   -5.8987   -0.5258 H   0  0  0  0  0  0  0  0  0  0  0  0
   -6.3396   -7.6526   -0.0192 H   0  0  0  0  0  0  0  0  0  0  0  0
  1  2  1  0
  1 29  1  0
  1 30  1  0
  1 31  1  0
  2  3  2  0
  2 13  1  0
  3  4  1  0
  4  5  1  0
  4 11  1  0
  5  6  2  0
  5 10  1  0
  6  7  1  0
  6 32  1  0
  7  8  2  0
  7 33  1  0
  8  9  1  0
  8 34  1  0
  9 10  2  0
  9 35  1  0
 10 36  1  0
 11 12  1  0
 11 13  2  0
 12 37  1  0
 12 38  1  0
 12 39  1  0
 13 14  1  0
 14 15  2  0
 14 40  1  0
 15 16  1  0
 15 41  1  0
 16 17  2  0
 16 18  1  0
 18 19  1  0
 18 42  1  0
 19 20  1  0
 19 43  1  0
 19 44  1  0
 20 21  2  0
 20 28  1  0
 21 22  1  0
 22 23  2  0
 22 27  1  0
 23 24  1  0
 23 45  1  0
 24 25  2  0
 24 46  1  0
 25 26  1  0
 25 47  1  0
 26 27  2  0
 26 48  1  0
 27 28  1  0
M  END

