
     RDKit          3D

 54 60  0  0  0  0  0  0  0  0999 V2000
    0.8691    0.0090    1.3880 C   0  0  0  0  0  0  0  0  0  0  0  0
   -0.0987    0.8474    1.9488 C   0  0  0  0  0  0  0  0  0  0  0  0
   -1.3943    0.5269    2.0074 N   0  0  0  0  0  0  0  0  0  0  0  0
   -1.7724   -0.6475    1.5043 C   0  0  0  0  0  0  0  0  0  0  0  0
   -0.8904   -1.5785    0.9187 C   0  0  0  0  0  0  0  0  0  0  0  0
   -1.4099   -2.8712    0.3927 C   0  0  0  0  0  0  0  0  0  0  0  0
   -0.5719   -3.9822    0.1821 C   0  0  0  0  0  0  0  0  0  0  0  0
   -1.1342   -5.1557   -0.3178 C   0  0  0  0  0  0  0  0  0  0  0  0
   -2.5019   -5.2051   -0.5788 C   0  0  0  0  0  0  0  0  0  0  0  0
   -3.2820   -4.0622   -0.3160 C   0  0  0  0  0  0  0  0  0  0  0  0
   -4.7543   -4.0375   -0.5469 C   0  0  0  0  0  0  0  0  0  0  0  0
   -5.5252   -5.2118   -0.5668 C   0  0  0  0  0  0  0  0  0  0  0  0
   -6.9029   -5.1452   -0.7888 C   0  0  0  0  0  0  0  0  0  0  0  0
   -7.5286   -3.9153   -0.9869 C   0  0  0  0  0  0  0  0  0  0  0  0
   -6.7834   -2.7214   -0.9508 C   0  0  0  0  0  0  0  0  0  0  0  0
   -7.4741   -1.4248   -1.2165 C   0  0  0  0  0  0  0  0  0  0  0  0
   -8.3586   -1.4519   -2.2032 N   0  0  0  0  0  0  0  0  0  0  0  0
   -8.9583   -0.2999   -2.5036 C   0  0  0  0  0  0  0  0  0  0  0  0
   -8.7634    0.9583   -1.9094 C   0  0  0  0  0  0  0  0  0  0  0  0
   -9.5280    1.9217   -2.4948 N   0  0  0  0  0  0  0  0  0  0  0  0
  -10.2041    1.2916   -3.4502 C   0  0  0  0  0  0  0  0  0  0  0  0
  -11.1543    1.7800   -4.3851 C   0  0  0  0  0  0  0  0  0  0  0  0
  -11.7217    0.9144   -5.2922 C   0  0  0  0  0  0  0  0  0  0  0  0
  -11.3669   -0.4697   -5.3072 C   0  0  0  0  0  0  0  0  0  0  0  0
  -10.4529   -0.9506   -4.4089 C   0  0  0  0  0  0  0  0  0  0  0  0
   -9.8937   -0.0870   -3.5059 N   0  0  0  0  0  0  0  0  0  0  0  0
   -7.8480    1.0188   -0.8146 C   0  0  0  0  0  0  0  0  0  0  0  0
   -7.5905    2.2087   -0.0951 C   0  0  0  0  0  0  0  0  0  0  0  0
   -6.7309    2.1950    0.9867 C   0  0  0  0  0  0  0  0  0  0  0  0
   -6.1240    0.9852    1.3916 C   0  0  0  0  0  0  0  0  0  0  0  0
   -6.3592   -0.1886    0.6978 C   0  0  0  0  0  0  0  0  0  0  0  0
   -7.2051   -0.2138   -0.4458 C   0  0  0  0  0  0  0  0  0  0  0  0
   -5.3991   -2.8035   -0.7397 C   0  0  0  0  0  0  0  0  0  0  0  0
   -2.7250   -2.9356    0.1477 N   0  0  0  0  0  0  0  0  0  0  0  0
    0.4657   -1.2197    0.8664 C   0  0  0  0  0  0  0  0  0  0  0  0
    1.9165    0.3176    1.3539 H   0  0  0  0  0  0  0  0  0  0  0  0
    0.1865    1.8210    2.3652 H   0  0  0  0  0  0  0  0  0  0  0  0
   -2.8361   -0.8955    1.5571 H   0  0  0  0  0  0  0  0  0  0  0  0
    0.4923   -3.9373    0.4161 H   0  0  0  0  0  0  0  0  0  0  0  0
   -0.5063   -6.0308   -0.5039 H   0  0  0  0  0  0  0  0  0  0  0  0
   -2.9532   -6.1070   -0.9934 H   0  0  0  0  0  0  0  0  0  0  0  0
   -5.0586   -6.1825   -0.3865 H   0  0  0  0  0  0  0  0  0  0  0  0
   -7.4950   -6.0639   -0.7977 H   0  0  0  0  0  0  0  0  0  0  0  0
   -8.6028   -3.8613   -1.1714 H   0  0  0  0  0  0  0  0  0  0  0  0
  -11.4047    2.8408   -4.3518 H   0  0  0  0  0  0  0  0  0  0  0  0
  -12.4530    1.2857   -6.0138 H   0  0  0  0  0  0  0  0  0  0  0  0
  -11.8168   -1.1515   -6.0301 H   0  0  0  0  0  0  0  0  0  0  0  0
  -10.1172   -1.9866   -4.3445 H   0  0  0  0  0  0  0  0  0  0  0  0
   -8.0943    3.1229   -0.4150 H   0  0  0  0  0  0  0  0  0  0  0  0
   -6.5299    3.1153    1.5409 H   0  0  0  0  0  0  0  0  0  0  0  0
   -5.4629    0.9744    2.2616 H   0  0  0  0  0  0  0  0  0  0  0  0
   -5.8963   -1.1112    1.0458 H   0  0  0  0  0  0  0  0  0  0  0  0
   -4.7825   -1.9056   -0.7487 H   0  0  0  0  0  0  0  0  0  0  0  0
    1.2025   -1.8810    0.4047 H   0  0  0  0  0  0  0  0  0  0  0  0
  1  2  2  0
  1 35  1  0
  1 36  1  0
  2  3  1  0
  2 37  1  0
  3  4  2  0
  4  5  1  0
  4 38  1  0
  5  6  1  0
  5 35  2  0
  6  7  2  0
  6 34  1  0
  7  8  1  0
  7 39  1  0
  8  9  2  0
  8 40  1  0
  9 10  1  0
  9 41  1  0
 10 11  1  0
 10 34  2  0
 11 12  2  0
 11 33  1  0
 12 13  1  0
 12 42  1  0
 13 14  2  0
 13 43  1  0
 14 15  1  0
 14 44  1  0
 15 16  1  0
 15 33  2  0
 16 17  2  0
 16 32  1  0
 17 18  1  0
 18 19  2  0
 18 26  1  0
 19 20  1  0
 19 27  1  0
 20 21  2  0
 21 22  1  0
 21 26  1  0
 22 23  2  0
 22 45  1  0
 23 24  1  0
 23 46  1  0
 24 25  2  0
 24 47  1  0
 25 26  1  0
 25 48  1  0
 27 28  1  0
 27 32  2  0
 28 29  2  0
 28 49  1  0
 29 30  1  0
 29 50  1  0
 30 31  2  0
 30 51  1  0
 31 32  1  0
 31 52  1  0
 33 53  1  0
 35 54  1  0
M  END

