
     RDKit          3D

 39 41  0  0  0  0  0  0  0  0999 V2000
    0.5470   -0.0738   -0.0328 C   0  0  0  0  0  0  0  0  0  0  0  0
    1.7949   -0.8848    0.2804 C   0  0  0  0  0  0  0  0  0  0  0  0
    1.7648   -2.0777    0.5057 O   0  0  0  0  0  0  0  0  0  0  0  0
    2.9601   -0.1331    0.2736 N   0  0  0  0  0  0  0  0  0  0  0  0
    4.2798   -0.5428    0.5020 C   0  0  0  0  0  0  0  0  0  0  0  0
    4.6384   -1.8755    0.7961 C   0  0  0  0  0  0  0  0  0  0  0  0
    5.9724   -2.1986    1.0102 C   0  0  0  0  0  0  0  0  0  0  0  0
    6.9926   -1.2278    0.9431 C   0  0  0  0  0  0  0  0  0  0  0  0
    8.3854   -1.5733    1.1694 C   0  0  0  0  0  0  0  0  0  0  0  0
    8.9952   -2.7586    1.4739 C   0  0  0  0  0  0  0  0  0  0  0  0
   10.4086   -2.5055    1.5912 C   0  0  0  0  0  0  0  0  0  0  0  0
   11.5261   -3.2373    1.8760 C   0  0  0  0  0  0  0  0  0  0  0  0
   11.6971   -4.6516    2.1633 C   0  0  0  0  0  0  0  0  0  0  0  0
   10.6666   -5.6182    2.0872 C   0  0  0  0  0  0  0  0  0  0  0  0
   10.9095   -6.9543    2.3793 C   0  0  0  0  0  0  0  0  0  0  0  0
   12.1985   -7.3784    2.7606 C   0  0  0  0  0  0  0  0  0  0  0  0
   12.4470   -8.7584    3.0642 C   0  0  0  0  0  0  0  0  0  0  0  0
   12.6467   -9.8760    3.3101 N   0  0  0  0  0  0  0  0  0  0  0  0
   13.2391   -6.4322    2.8352 C   0  0  0  0  0  0  0  0  0  0  0  0
   12.9866   -5.0992    2.5381 C   0  0  0  0  0  0  0  0  0  0  0  0
   10.5624   -1.0379    1.3229 C   0  0  0  0  0  0  0  0  0  0  0  0
   11.5328   -0.3386    1.3029 O   0  0  0  0  0  0  0  0  0  0  0  0
    9.2916   -0.5399    1.0702 O   0  0  0  0  0  0  0  0  0  0  0  0
    6.6236    0.1004    0.6479 C   0  0  0  0  0  0  0  0  0  0  0  0
    5.2930    0.4337    0.4322 C   0  0  0  0  0  0  0  0  0  0  0  0
   -0.3273   -0.7263    0.0752 H   0  0  0  0  0  0  0  0  0  0  0  0
    0.5820    0.3116   -1.0653 H   0  0  0  0  0  0  0  0  0  0  0  0
    0.4457    0.7878    0.6471 H   0  0  0  0  0  0  0  0  0  0  0  0
    2.8503    0.8545    0.0727 H   0  0  0  0  0  0  0  0  0  0  0  0
    3.8621   -2.6344    0.8511 H   0  0  0  0  0  0  0  0  0  0  0  0
    6.2234   -3.2373    1.2352 H   0  0  0  0  0  0  0  0  0  0  0  0
    8.4725   -3.6988    1.6123 H   0  0  0  0  0  0  0  0  0  0  0  0
   12.4476   -2.6455    1.8957 H   0  0  0  0  0  0  0  0  0  0  0  0
    9.6637   -5.3265    1.7821 H   0  0  0  0  0  0  0  0  0  0  0  0
   10.1018   -7.6855    2.3120 H   0  0  0  0  0  0  0  0  0  0  0  0
   14.2413   -6.7529    3.1257 H   0  0  0  0  0  0  0  0  0  0  0  0
   13.8012   -4.3734    2.5978 H   0  0  0  0  0  0  0  0  0  0  0  0
    7.3950    0.8689    0.5901 H   0  0  0  0  0  0  0  0  0  0  0  0
    5.0293    1.4710    0.2048 H   0  0  0  0  0  0  0  0  0  0  0  0
  1  2  1  0
  1 26  1  0
  1 27  1  0
  1 28  1  0
  2  3  2  0
  2  4  1  0
  4  5  1  0
  4 29  1  0
  5  6  2  0
  5 25  1  0
  6  7  1  0
  6 30  1  0
  7  8  2  0
  7 31  1  0
  8  9  1  0
  8 24  1  0
  9 10  2  0
  9 23  1  0
 10 11  1  0
 10 32  1  0
 11 12  2  0
 11 21  1  0
 12 13  1  0
 12 33  1  0
 13 14  2  0
 13 20  1  0
 14 15  1  0
 14 34  1  0
 15 16  2  0
 15 35  1  0
 16 17  1  0
 16 19  1  0
 17 18  3  0
 19 20  2  0
 19 36  1  0
 20 37  1  0
 21 22  2  0
 21 23  1  0
 24 25  2  0
 24 38  1  0
 25 39  1  0
M  END

