
     RDKit          3D

 72 78  0  0  0  0  0  0  0  0999 V2000
   -1.2536   -0.8197    1.0664 C   0  0  0  0  0  0  0  0  0  0  0  0
   -1.0224   -0.3949   -0.2454 C   0  0  0  0  0  0  0  0  0  0  0  0
    0.2818   -0.1890   -0.6994 C   0  0  0  0  0  0  0  0  0  0  0  0
    1.3878   -0.4026    0.1459 C   0  0  0  0  0  0  0  0  0  0  0  0
    2.7763   -0.1836   -0.3380 C   0  0  0  0  0  0  0  0  0  0  0  0
    3.0850    0.8613   -1.2289 C   0  0  0  0  0  0  0  0  0  0  0  0
    4.3870    1.0673   -1.6819 C   0  0  0  0  0  0  0  0  0  0  0  0
    5.4450    0.2367   -1.2685 C   0  0  0  0  0  0  0  0  0  0  0  0
    6.8345    0.4552   -1.7532 C   0  0  0  0  0  0  0  0  0  0  0  0
    7.3353    1.7546   -1.9387 C   0  0  0  0  0  0  0  0  0  0  0  0
    8.6446    1.9799   -2.3955 C   0  0  0  0  0  0  0  0  0  0  0  0
    9.1574    3.3635   -2.5854 C   0  0  0  0  0  0  0  0  0  0  0  0
    8.8085    4.4006   -1.7006 C   0  0  0  0  0  0  0  0  0  0  0  0
    9.2905    5.6964   -1.8775 C   0  0  0  0  0  0  0  0  0  0  0  0
   10.1434    6.0205   -2.9491 C   0  0  0  0  0  0  0  0  0  0  0  0
   10.6571    7.4029   -3.1378 C   0  0  0  0  0  0  0  0  0  0  0  0
   10.9907    8.2105   -2.0333 C   0  0  0  0  0  0  0  0  0  0  0  0
   11.4733    9.5088   -2.2099 C   0  0  0  0  0  0  0  0  0  0  0  0
   11.6344   10.0324   -3.4961 C   0  0  0  0  0  0  0  0  0  0  0  0
   11.3079    9.2440   -4.6036 C   0  0  0  0  0  0  0  0  0  0  0  0
   10.8255    7.9458   -4.4263 C   0  0  0  0  0  0  0  0  0  0  0  0
   10.4908    4.9831   -3.8345 C   0  0  0  0  0  0  0  0  0  0  0  0
   10.0109    3.6867   -3.6565 C   0  0  0  0  0  0  0  0  0  0  0  0
    9.4583    0.8678   -2.6689 C   0  0  0  0  0  0  0  0  0  0  0  0
    8.9912   -0.4457   -2.4951 C   0  0  0  0  0  0  0  0  0  0  0  0
    9.8676   -1.6110   -2.7905 C   0  0  0  0  0  0  0  0  0  0  0  0
   11.2434   -1.5848   -2.4960 C   0  0  0  0  0  0  0  0  0  0  0  0
   12.0640   -2.6774   -2.7717 C   0  0  0  0  0  0  0  0  0  0  0  0
   11.5505   -3.8493   -3.3579 C   0  0  0  0  0  0  0  0  0  0  0  0
   12.4260   -5.0140   -3.6531 C   0  0  0  0  0  0  0  0  0  0  0  0
   13.4814   -5.3664   -2.7897 C   0  0  0  0  0  0  0  0  0  0  0  0
   14.3039   -6.4604   -3.0665 C   0  0  0  0  0  0  0  0  0  0  0  0
   14.0916   -7.2296   -4.2144 C   0  0  0  0  0  0  0  0  0  0  0  0
   13.0483   -6.8935   -5.0823 C   0  0  0  0  0  0  0  0  0  0  0  0
   12.2261   -5.7996   -4.8048 C   0  0  0  0  0  0  0  0  0  0  0  0
   10.1747   -3.8743   -3.6533 C   0  0  0  0  0  0  0  0  0  0  0  0
    9.3533   -2.7830   -3.3755 C   0  0  0  0  0  0  0  0  0  0  0  0
    7.6766   -0.6330   -2.0364 C   0  0  0  0  0  0  0  0  0  0  0  0
    5.1369   -0.8090   -0.3787 C   0  0  0  0  0  0  0  0  0  0  0  0
    3.8352   -1.0131    0.0761 C   0  0  0  0  0  0  0  0  0  0  0  0
    1.1371   -0.8303    1.4641 C   0  0  0  0  0  0  0  0  0  0  0  0
   -0.1669   -1.0363    1.9189 C   0  0  0  0  0  0  0  0  0  0  0  0
   -2.2744   -0.9808    1.4221 H   0  0  0  0  0  0  0  0  0  0  0  0
   -1.8634   -0.2304   -0.9241 H   0  0  0  0  0  0  0  0  0  0  0  0
    0.4471    0.1185   -1.7346 H   0  0  0  0  0  0  0  0  0  0  0  0
    2.2940    1.5373   -1.5618 H   0  0  0  0  0  0  0  0  0  0  0  0
    4.5825    1.8805   -2.3847 H   0  0  0  0  0  0  0  0  0  0  0  0
    6.6919    2.6093   -1.7227 H   0  0  0  0  0  0  0  0  0  0  0  0
    8.1607    4.1867   -0.8473 H   0  0  0  0  0  0  0  0  0  0  0  0
    8.9843    6.4768   -1.1771 H   0  0  0  0  0  0  0  0  0  0  0  0
   10.8944    7.8069   -1.0228 H   0  0  0  0  0  0  0  0  0  0  0  0
   11.7332   10.1123   -1.3362 H   0  0  0  0  0  0  0  0  0  0  0  0
   12.0123   11.0486   -3.6346 H   0  0  0  0  0  0  0  0  0  0  0  0
   11.4214    9.6452   -5.6142 H   0  0  0  0  0  0  0  0  0  0  0  0
   10.5509    7.3515   -5.3009 H   0  0  0  0  0  0  0  0  0  0  0  0
   11.1635    5.1900   -4.6700 H   0  0  0  0  0  0  0  0  0  0  0  0
   10.2921    2.9129   -4.3746 H   0  0  0  0  0  0  0  0  0  0  0  0
   10.4775    1.0280   -3.0248 H   0  0  0  0  0  0  0  0  0  0  0  0
   11.6779   -0.6991   -2.0268 H   0  0  0  0  0  0  0  0  0  0  0  0
   13.1299   -2.6121   -2.5416 H   0  0  0  0  0  0  0  0  0  0  0  0
   13.6443   -4.7905   -1.8758 H   0  0  0  0  0  0  0  0  0  0  0  0
   15.1110   -6.7183   -2.3758 H   0  0  0  0  0  0  0  0  0  0  0  0
   14.7351   -8.0859   -4.4313 H   0  0  0  0  0  0  0  0  0  0  0  0
   12.8776   -7.4821   -5.9875 H   0  0  0  0  0  0  0  0  0  0  0  0
   11.4311   -5.5345   -5.5056 H   0  0  0  0  0  0  0  0  0  0  0  0
    9.7342   -4.7715   -4.0943 H   0  0  0  0  0  0  0  0  0  0  0  0
    8.2932   -2.8365   -3.6338 H   0  0  0  0  0  0  0  0  0  0  0  0
    7.3006   -1.6480   -1.8970 H   0  0  0  0  0  0  0  0  0  0  0  0
    5.9335   -1.4661   -0.0220 H   0  0  0  0  0  0  0  0  0  0  0  0
    3.6344   -1.8454    0.7546 H   0  0  0  0  0  0  0  0  0  0  0  0
    1.9743   -0.9795    2.1499 H   0  0  0  0  0  0  0  0  0  0  0  0
   -0.3351   -1.3602    2.9494 H   0  0  0  0  0  0  0  0  0  0  0  0
  1  2  2  0
  1 42  1  0
  1 43  1  0
  2  3  1  0
  2 44  1  0
  3  4  2  0
  3 45  1  0
  4  5  1  0
  4 41  1  0
  5  6  2  0
  5 40  1  0
  6  7  1  0
  6 46  1  0
  7  8  2  0
  7 47  1  0
  8  9  1  0
  8 39  1  0
  9 10  2  0
  9 38  1  0
 10 11  1  0
 10 48  1  0
 11 12  1  0
 11 24  2  0
 12 13  2  0
 12 23  1  0
 13 14  1  0
 13 49  1  0
 14 15  2  0
 14 50  1  0
 15 16  1  0
 15 22  1  0
 16 17  2  0
 16 21  1  0
 17 18  1  0
 17 51  1  0
 18 19  2  0
 18 52  1  0
 19 20  1  0
 19 53  1  0
 20 21  2  0
 20 54  1  0
 21 55  1  0
 22 23  2  0
 22 56  1  0
 23 57  1  0
 24 25  1  0
 24 58  1  0
 25 26  1  0
 25 38  2  0
 26 27  2  0
 26 37  1  0
 27 28  1  0
 27 59  1  0
 28 29  2  0
 28 60  1  0
 29 30  1  0
 29 36  1  0
 30 31  2  0
 30 35  1  0
 31 32  1  0
 31 61  1  0
 32 33  2  0
 32 62  1  0
 33 34  1  0
 33 63  1  0
 34 35  2  0
 34 64  1  0
 35 65  1  0
 36 37  2  0
 36 66  1  0
 37 67  1  0
 38 68  1  0
 39 40  2  0
 39 69  1  0
 40 70  1  0
 41 42  2  0
 41 71  1  0
 42 72  1  0
M  END

