
     RDKit          3D

 53 56  0  0  0  0  0  0  0  0999 V2000
    3.3157    1.2695   -0.4227 C   0  0  0  0  0  0  0  0  0  0  0  0
    2.5005    0.3120    0.4459 C   0  0  0  0  0  0  0  0  0  0  0  0
    3.1476   -0.9891    0.6254 N   0  0  0  0  0  0  0  0  0  0  0  0
    4.1406   -1.2654    1.5326 C   0  0  0  0  0  0  0  0  0  0  0  0
    4.7552   -0.0854    2.6960 S   0  0  0  0  0  0  0  0  0  0  0  0
    6.5073   -0.5781    2.6163 C   0  0  0  0  0  0  0  0  0  0  0  0
    7.1856   -0.1780    1.2929 C   0  0  0  0  0  0  0  0  0  0  0  0
    6.7120    0.6844    0.5699 O   0  0  0  0  0  0  0  0  0  0  0  0
    8.3577   -0.8226    0.9931 N   0  0  0  0  0  0  0  0  0  0  0  0
    8.9303   -1.9566    1.7112 C   0  0  0  0  0  0  0  0  0  0  0  0
    8.6880   -3.2447    0.9211 C   0  0  0  0  0  0  0  0  0  0  0  0
    9.1260   -3.0908   -0.5223 C   0  0  0  0  0  0  0  0  0  0  0  0
    9.3879   -4.2200   -1.3149 C   0  0  0  0  0  0  0  0  0  0  0  0
    9.7853   -4.0930   -2.6454 C   0  0  0  0  0  0  0  0  0  0  0  0
    9.9284   -2.8195   -3.2071 C   0  0  0  0  0  0  0  0  0  0  0  0
    9.6692   -1.6909   -2.4306 C   0  0  0  0  0  0  0  0  0  0  0  0
    9.2653   -1.8108   -1.0919 C   0  0  0  0  0  0  0  0  0  0  0  0
    9.0084   -0.5500   -0.2832 C   0  0  0  0  0  0  0  0  0  0  0  0
    4.5458   -2.5086    1.4135 N   0  0  0  0  0  0  0  0  0  0  0  0
    3.8201   -3.0814    0.4139 N   0  0  0  0  0  0  0  0  0  0  0  0
    2.9776   -2.1812   -0.0592 C   0  0  0  0  0  0  0  0  0  0  0  0
    1.9845   -2.4867   -1.1020 C   0  0  0  0  0  0  0  0  0  0  0  0
    1.4989   -3.8118   -1.1778 C   0  0  0  0  0  0  0  0  0  0  0  0
    0.5838   -4.1871   -2.1490 C   0  0  0  0  0  0  0  0  0  0  0  0
    0.1164   -3.2497   -3.0896 C   0  0  0  0  0  0  0  0  0  0  0  0
   -0.7819   -3.7071   -3.9952 O   0  0  0  0  0  0  0  0  0  0  0  0
   -1.2893   -2.8270   -4.9727 C   0  0  0  0  0  0  0  0  0  0  0  0
    0.5987   -1.9343   -3.0396 C   0  0  0  0  0  0  0  0  0  0  0  0
    1.5259   -1.5675   -2.0574 C   0  0  0  0  0  0  0  0  0  0  0  0
    2.8142    2.2492   -0.4699 H   0  0  0  0  0  0  0  0  0  0  0  0
    3.4231    0.8894   -1.4507 H   0  0  0  0  0  0  0  0  0  0  0  0
    4.3256    1.4047   -0.0076 H   0  0  0  0  0  0  0  0  0  0  0  0
    1.4993    0.1300    0.0309 H   0  0  0  0  0  0  0  0  0  0  0  0
    2.3525    0.7457    1.4463 H   0  0  0  0  0  0  0  0  0  0  0  0
    6.5394   -1.6583    2.7956 H   0  0  0  0  0  0  0  0  0  0  0  0
    7.0005   -0.0698    3.4608 H   0  0  0  0  0  0  0  0  0  0  0  0
    8.5187   -2.0262    2.7239 H   0  0  0  0  0  0  0  0  0  0  0  0
   10.0153   -1.7782    1.8230 H   0  0  0  0  0  0  0  0  0  0  0  0
    7.6107   -3.4890    0.9617 H   0  0  0  0  0  0  0  0  0  0  0  0
    9.2229   -4.0856    1.3932 H   0  0  0  0  0  0  0  0  0  0  0  0
    9.2765   -5.2151   -0.8741 H   0  0  0  0  0  0  0  0  0  0  0  0
    9.9839   -4.9853   -3.2445 H   0  0  0  0  0  0  0  0  0  0  0  0
   10.2373   -2.7076   -4.2495 H   0  0  0  0  0  0  0  0  0  0  0  0
    9.7750   -0.6936   -2.8690 H   0  0  0  0  0  0  0  0  0  0  0  0
    8.3637    0.1455   -0.8362 H   0  0  0  0  0  0  0  0  0  0  0  0
    9.9681   -0.0265   -0.1019 H   0  0  0  0  0  0  0  0  0  0  0  0
    1.8646   -4.5411   -0.4535 H   0  0  0  0  0  0  0  0  0  0  0  0
    0.2048   -5.2096   -2.2048 H   0  0  0  0  0  0  0  0  0  0  0  0
   -1.9920   -3.4092   -5.5838 H   0  0  0  0  0  0  0  0  0  0  0  0
   -0.4900   -2.4324   -5.6258 H   0  0  0  0  0  0  0  0  0  0  0  0
   -1.8297   -1.9761   -4.5197 H   0  0  0  0  0  0  0  0  0  0  0  0
    0.2748   -1.1879   -3.7649 H   0  0  0  0  0  0  0  0  0  0  0  0
    1.9121   -0.5483   -2.0758 H   0  0  0  0  0  0  0  0  0  0  0  0
  1  2  1  0
  1 30  1  0
  1 31  1  0
  1 32  1  0
  2  3  1  0
  2 33  1  0
  2 34  1  0
  3  4  1  0
  3 21  1  0
  4  5  1  0
  4 19  2  0
  5  6  1  0
  6  7  1  0
  6 35  1  0
  6 36  1  0
  7  8  2  0
  7  9  1  0
  9 10  1  0
  9 18  1  0
 10 11  1  0
 10 37  1  0
 10 38  1  0
 11 12  1  0
 11 39  1  0
 11 40  1  0
 12 13  2  0
 12 17  1  0
 13 14  1  0
 13 41  1  0
 14 15  2  0
 14 42  1  0
 15 16  1  0
 15 43  1  0
 16 17  2  0
 16 44  1  0
 17 18  1  0
 18 45  1  0
 18 46  1  0
 19 20  1  0
 20 21  2  0
 21 22  1  0
 22 23  2  0
 22 29  1  0
 23 24  1  0
 23 47  1  0
 24 25  2  0
 24 48  1  0
 25 26  1  0
 25 28  1  0
 26 27  1  0
 27 49  1  0
 27 50  1  0
 27 51  1  0
 28 29  2  0
 28 52  1  0
 29 53  1  0
M  END

