
     RDKit          3D

 36 36  0  0  0  0  0  0  0  0999 V2000
    1.0870   -0.5831    0.1929 C   0  0  0  0  0  0  0  0  0  0  0  0
    2.3970    0.1456   -0.0928 C   0  0  0  0  0  0  0  0  0  0  0  0
    2.8864    0.1191   -1.5293 C   0  0  0  0  0  0  0  0  0  0  0  0
    2.2198   -0.4972   -2.5287 C   0  0  0  0  0  0  0  0  0  0  0  0
    2.5743   -0.5982   -3.9865 C   0  0  0  0  0  0  0  0  0  0  0  0
    1.4338   -1.0865   -4.7535 N   0  0  0  0  0  0  0  0  0  0  0  0
    1.7186   -1.3291   -6.1565 C   0  0  0  0  0  0  0  0  0  0  0  0
    0.5311   -1.9121   -6.8980 C   0  0  0  0  0  0  0  0  0  0  0  0
    0.3017   -1.6040   -8.2465 C   0  0  0  0  0  0  0  0  0  0  0  0
   -0.7670   -2.1753   -8.9411 C   0  0  0  0  0  0  0  0  0  0  0  0
   -1.6226   -3.0561   -8.2861 C   0  0  0  0  0  0  0  0  0  0  0  0
   -2.6488   -3.5967   -8.9478 F   0  0  0  0  0  0  0  0  0  0  0  0
   -1.4152   -3.3696   -6.9370 C   0  0  0  0  0  0  0  0  0  0  0  0
   -2.5044   -4.4683   -6.1364 Cl  0  0  0  0  0  0  0  0  0  0  0  0
   -0.3415   -2.7995   -6.2512 C   0  0  0  0  0  0  0  0  0  0  0  0
    4.1767    0.8110   -1.8219 C   0  0  0  0  0  0  0  0  0  0  0  0
    4.7763    0.7824   -2.8763 O   0  0  0  0  0  0  0  0  0  0  0  0
    4.6368    1.4975   -0.7531 O   0  0  0  0  0  0  0  0  0  0  0  0
    5.8728    2.1853   -0.9297 C   0  0  0  0  0  0  0  0  0  0  0  0
    0.8306   -0.4985    1.2602 H   0  0  0  0  0  0  0  0  0  0  0  0
    1.1514   -1.6568   -0.0471 H   0  0  0  0  0  0  0  0  0  0  0  0
    0.2472   -0.1615   -0.3827 H   0  0  0  0  0  0  0  0  0  0  0  0
    3.1964   -0.2616    0.5512 H   0  0  0  0  0  0  0  0  0  0  0  0
    2.3117    1.2012    0.2186 H   0  0  0  0  0  0  0  0  0  0  0  0
    1.2932   -1.0220   -2.2756 H   0  0  0  0  0  0  0  0  0  0  0  0
    3.4087   -1.3148   -4.1073 H   0  0  0  0  0  0  0  0  0  0  0  0
    2.9867    0.3619   -4.3564 H   0  0  0  0  0  0  0  0  0  0  0  0
    0.6540   -0.4329   -4.6720 H   0  0  0  0  0  0  0  0  0  0  0  0
    2.5604   -2.0464   -6.2042 H   0  0  0  0  0  0  0  0  0  0  0  0
    2.0726   -0.4251   -6.7007 H   0  0  0  0  0  0  0  0  0  0  0  0
    0.9650   -0.9063   -8.7646 H   0  0  0  0  0  0  0  0  0  0  0  0
   -0.9587   -1.9440   -9.9910 H   0  0  0  0  0  0  0  0  0  0  0  0
   -0.1824   -3.0375   -5.1989 H   0  0  0  0  0  0  0  0  0  0  0  0
    6.0932    2.6709    0.0291 H   0  0  0  0  0  0  0  0  0  0  0  0
    5.7928    2.9378   -1.7291 H   0  0  0  0  0  0  0  0  0  0  0  0
    6.6780    1.4838   -1.1970 H   0  0  0  0  0  0  0  0  0  0  0  0
  1  2  1  0
  1 20  1  0
  1 21  1  0
  1 22  1  0
  2  3  1  0
  2 23  1  0
  2 24  1  0
  3  4  2  0
  3 16  1  0
  4  5  1  0
  4 25  1  0
  5  6  1  0
  5 26  1  0
  5 27  1  0
  6  7  1  0
  6 28  1  0
  7  8  1  0
  7 29  1  0
  7 30  1  0
  8  9  2  0
  8 15  1  0
  9 10  1  0
  9 31  1  0
 10 11  2  0
 10 32  1  0
 11 12  1  0
 11 13  1  0
 13 14  1  0
 13 15  2  0
 15 33  1  0
 16 17  2  0
 16 18  1  0
 18 19  1  0
 19 34  1  0
 19 35  1  0
 19 36  1  0
M  END

