
     RDKit          3D

 62 70  0  0  0  0  0  0  0  0999 V2000
   -1.3624    0.4812   -0.6332 C   0  0  0  0  0  0  0  0  0  0  0  0
   -0.6428   -0.2849   -1.5550 C   0  0  0  0  0  0  0  0  0  0  0  0
    0.7421   -0.4241   -1.4240 C   0  0  0  0  0  0  0  0  0  0  0  0
    1.4307    0.2000   -0.3698 C   0  0  0  0  0  0  0  0  0  0  0  0
    2.9156    0.0506   -0.2301 C   0  0  0  0  0  0  0  0  0  0  0  0
    3.7819    0.9733   -0.8616 C   0  0  0  0  0  0  0  0  0  0  0  0
    3.2795    2.0663   -1.6445 C   0  0  0  0  0  0  0  0  0  0  0  0
    4.1244    2.9594   -2.2535 C   0  0  0  0  0  0  0  0  0  0  0  0
    5.5352    2.8189   -2.1192 C   0  0  0  0  0  0  0  0  0  0  0  0
    6.0605    1.7888   -1.3808 C   0  0  0  0  0  0  0  0  0  0  0  0
    5.2171    0.8292   -0.7265 C   0  0  0  0  0  0  0  0  0  0  0  0
    5.7525   -0.2353    0.0358 C   0  0  0  0  0  0  0  0  0  0  0  0
    7.2374   -0.3835    0.1772 C   0  0  0  0  0  0  0  0  0  0  0  0
    7.9175    0.2296    1.2534 C   0  0  0  0  0  0  0  0  0  0  0  0
    9.2974    0.1071    1.4068 C   0  0  0  0  0  0  0  0  0  0  0  0
   10.0160   -0.6418    0.4686 C   0  0  0  0  0  0  0  0  0  0  0  0
   11.7544   -0.9250    0.4700 S   0  0  0  0  0  0  0  0  0  0  0  0
   11.6344   -1.8955   -1.0017 C   0  0  0  0  0  0  0  0  0  0  0  0
   12.7063   -2.5093   -1.6544 C   0  0  0  0  0  0  0  0  0  0  0  0
   12.4212   -3.2413   -2.8116 C   0  0  0  0  0  0  0  0  0  0  0  0
   11.0826   -3.3334   -3.2731 C   0  0  0  0  0  0  0  0  0  0  0  0
   10.0095   -2.7311   -2.6379 C   0  0  0  0  0  0  0  0  0  0  0  0
   10.2926   -1.9945   -1.4743 C   0  0  0  0  0  0  0  0  0  0  0  0
    9.3634   -1.2681   -0.6205 C   0  0  0  0  0  0  0  0  0  0  0  0
    7.9712   -1.1287   -0.7515 C   0  0  0  0  0  0  0  0  0  0  0  0
   11.0007   -4.0878   -4.4146 O   0  0  0  0  0  0  0  0  0  0  0  0
   12.2749   -4.4932   -4.7088 C   0  0  0  0  0  0  0  0  0  0  0  0
   12.6376   -5.2826   -5.7952 C   0  0  0  0  0  0  0  0  0  0  0  0
   13.9950   -5.5914   -5.9259 C   0  0  0  0  0  0  0  0  0  0  0  0
   14.9449   -5.1230   -4.9992 C   0  0  0  0  0  0  0  0  0  0  0  0
   14.5620   -4.3316   -3.9148 C   0  0  0  0  0  0  0  0  0  0  0  0
   13.2056   -4.0093   -3.7638 C   0  0  0  0  0  0  0  0  0  0  0  0
    4.8861   -1.1580    0.6674 C   0  0  0  0  0  0  0  0  0  0  0  0
    5.3881   -2.2520    1.4493 C   0  0  0  0  0  0  0  0  0  0  0  0
    4.5427   -3.1437    2.0598 C   0  0  0  0  0  0  0  0  0  0  0  0
    3.1319   -3.0008    1.9283 C   0  0  0  0  0  0  0  0  0  0  0  0
    2.6070   -1.9705    1.1898 C   0  0  0  0  0  0  0  0  0  0  0  0
    3.4510   -1.0131    0.5331 C   0  0  0  0  0  0  0  0  0  0  0  0
    0.6961    0.9673    0.5502 C   0  0  0  0  0  0  0  0  0  0  0  0
   -0.6888    1.1070    0.4200 C   0  0  0  0  0  0  0  0  0  0  0  0
   -2.4452    0.5902   -0.7353 H   0  0  0  0  0  0  0  0  0  0  0  0
   -1.1614   -0.7777   -2.3816 H   0  0  0  0  0  0  0  0  0  0  0  0
    1.3016   -1.0238   -2.1466 H   0  0  0  0  0  0  0  0  0  0  0  0
    2.1998    2.1792   -1.7505 H   0  0  0  0  0  0  0  0  0  0  0  0
    3.7156    3.7831   -2.8443 H   0  0  0  0  0  0  0  0  0  0  0  0
    6.2002    3.5359   -2.6073 H   0  0  0  0  0  0  0  0  0  0  0  0
    7.1419    1.6867   -1.2819 H   0  0  0  0  0  0  0  0  0  0  0  0
    7.3453    0.8121    1.9795 H   0  0  0  0  0  0  0  0  0  0  0  0
    9.8049    0.5888    2.2457 H   0  0  0  0  0  0  0  0  0  0  0  0
   13.7266   -2.4209   -1.2757 H   0  0  0  0  0  0  0  0  0  0  0  0
    8.9963   -2.8297   -3.0302 H   0  0  0  0  0  0  0  0  0  0  0  0
    7.4509   -1.6053   -1.5859 H   0  0  0  0  0  0  0  0  0  0  0  0
   11.8900   -5.6387   -6.5059 H   0  0  0  0  0  0  0  0  0  0  0  0
   14.3233   -6.2092   -6.7653 H   0  0  0  0  0  0  0  0  0  0  0  0
   15.9974   -5.3840   -5.1327 H   0  0  0  0  0  0  0  0  0  0  0  0
   15.3052   -3.9715   -3.1993 H   0  0  0  0  0  0  0  0  0  0  0  0
    6.4676   -2.3677    1.5530 H   0  0  0  0  0  0  0  0  0  0  0  0
    4.9514   -3.9682    2.6494 H   0  0  0  0  0  0  0  0  0  0  0  0
    2.4667   -3.7164    2.4183 H   0  0  0  0  0  0  0  0  0  0  0  0
    1.5257   -1.8665    1.0921 H   0  0  0  0  0  0  0  0  0  0  0  0
    1.2194    1.4581    1.3749 H   0  0  0  0  0  0  0  0  0  0  0  0
   -1.2437    1.7079    1.1454 H   0  0  0  0  0  0  0  0  0  0  0  0
  1  2  2  0
  1 40  1  0
  1 41  1  0
  2  3  1  0
  2 42  1  0
  3  4  2  0
  3 43  1  0
  4  5  1  0
  4 39  1  0
  5  6  1  0
  5 38  2  0
  6  7  2  0
  6 11  1  0
  7  8  1  0
  7 44  1  0
  8  9  2  0
  8 45  1  0
  9 10  1  0
  9 46  1  0
 10 11  2  0
 10 47  1  0
 11 12  1  0
 12 13  1  0
 12 33  2  0
 13 14  2  0
 13 25  1  0
 14 15  1  0
 14 48  1  0
 15 16  2  0
 15 49  1  0
 16 17  1  0
 16 24  1  0
 17 18  1  0
 18 19  1  0
 18 23  2  0
 19 20  2  0
 19 50  1  0
 20 21  1  0
 20 32  1  0
 21 22  2  0
 21 26  1  0
 22 23  1  0
 22 51  1  0
 23 24  1  0
 24 25  2  0
 25 52  1  0
 26 27  1  0
 27 28  1  0
 27 32  2  0
 28 29  2  0
 28 53  1  0
 29 30  1  0
 29 54  1  0
 30 31  2  0
 30 55  1  0
 31 32  1  0
 31 56  1  0
 33 34  1  0
 33 38  1  0
 34 35  2  0
 34 57  1  0
 35 36  1  0
 35 58  1  0
 36 37  2  0
 36 59  1  0
 37 38  1  0
 37 60  1  0
 39 40  2  0
 39 61  1  0
 40 62  1  0
M  END

