
     RDKit          3D

 55 59  0  0  0  0  0  0  0  0999 V2000
    5.1944    0.5099    0.4291 C   0  0  0  0  0  0  0  0  0  0  0  0
    3.8460   -0.0533    0.8730 C   0  0  0  0  0  0  0  0  0  0  0  0
    3.4514    0.3872    2.2164 N   0  0  0  0  0  0  0  0  0  0  0  0
    2.7147    1.5150    2.4673 C   0  0  0  0  0  0  0  0  0  0  0  0
    2.1163    2.4650    1.6361 C   0  0  0  0  0  0  0  0  0  0  0  0
    1.9468    2.6556    0.2631 C   0  0  0  0  0  0  0  0  0  0  0  0
    1.2487    3.8240   -0.3201 C   0  0  0  0  0  0  0  0  0  0  0  0
    0.7256    4.8000    0.1994 O   0  0  0  0  0  0  0  0  0  0  0  0
    1.4698    3.2741   -1.6829 C   0  0  0  0  0  0  0  0  0  0  0  0
    1.3115    3.4650   -3.0692 C   0  0  0  0  0  0  0  0  0  0  0  0
    0.7392    4.4130   -3.9013 C   0  0  0  0  0  0  0  0  0  0  0  0
    0.0156    5.5310   -3.5884 N   0  0  0  0  0  0  0  0  0  0  0  0
   -0.3500    5.9295   -2.2448 C   0  0  0  0  0  0  0  0  0  0  0  0
   -0.3582    6.2357   -4.7438 C   0  0  0  0  0  0  0  0  0  0  0  0
   -1.0780    7.4272   -4.8575 C   0  0  0  0  0  0  0  0  0  0  0  0
   -1.3291    7.9305   -6.1402 C   0  0  0  0  0  0  0  0  0  0  0  0
   -0.8649    7.2515   -7.2704 C   0  0  0  0  0  0  0  0  0  0  0  0
   -1.1900    7.9012   -8.8633 Cl  0  0  0  0  0  0  0  0  0  0  0  0
   -0.1382    6.0558   -7.1512 C   0  0  0  0  0  0  0  0  0  0  0  0
    0.1105    5.5578   -5.8800 C   0  0  0  0  0  0  0  0  0  0  0  0
    0.8552    4.3110   -5.4366 C   0  0  2  0  0  0  0  0  0  0  0  0
    0.1651    3.0316   -5.9602 C   0  0  0  0  0  0  0  0  0  0  0  0
    2.3318    4.3488   -5.8869 C   0  0  0  0  0  0  0  0  0  0  0  0
    2.1610    2.1119   -1.1016 C   0  0  0  0  0  0  0  0  0  0  0  0
    2.6771    1.1189   -1.6056 O   0  0  0  0  0  0  0  0  0  0  0  0
    2.5384    1.7576    4.2115 S   0  0  0  0  0  0  0  0  0  0  0  0
    3.4859    0.3253    4.5592 C   0  0  0  0  0  0  0  0  0  0  0  0
    3.8277   -0.2071    5.8026 C   0  0  0  0  0  0  0  0  0  0  0  0
    4.6040   -1.3690    5.8405 C   0  0  0  0  0  0  0  0  0  0  0  0
    5.0269   -1.9766    4.6507 C   0  0  0  0  0  0  0  0  0  0  0  0
    4.6855   -1.4453    3.4043 C   0  0  0  0  0  0  0  0  0  0  0  0
    3.9017   -0.2834    3.3577 C   0  0  0  0  0  0  0  0  0  0  0  0
    5.4049    0.1689   -0.5951 H   0  0  0  0  0  0  0  0  0  0  0  0
    6.0185    0.1894    1.0864 H   0  0  0  0  0  0  0  0  0  0  0  0
    5.1707    1.6100    0.4112 H   0  0  0  0  0  0  0  0  0  0  0  0
    3.8602   -1.1529    0.8867 H   0  0  0  0  0  0  0  0  0  0  0  0
    3.0799    0.2379    0.1442 H   0  0  0  0  0  0  0  0  0  0  0  0
    1.6396    3.2774    2.2005 H   0  0  0  0  0  0  0  0  0  0  0  0
    1.7910    2.6465   -3.6195 H   0  0  0  0  0  0  0  0  0  0  0  0
   -0.8260    5.0963   -1.7100 H   0  0  0  0  0  0  0  0  0  0  0  0
   -1.0531    6.7688   -2.2895 H   0  0  0  0  0  0  0  0  0  0  0  0
    0.5263    6.2158   -1.6469 H   0  0  0  0  0  0  0  0  0  0  0  0
   -1.4409    7.9699   -3.9840 H   0  0  0  0  0  0  0  0  0  0  0  0
   -1.8881    8.8593   -6.2639 H   0  0  0  0  0  0  0  0  0  0  0  0
    0.2155    5.5439   -8.0481 H   0  0  0  0  0  0  0  0  0  0  0  0
   -0.8882    2.9894   -5.6450 H   0  0  0  0  0  0  0  0  0  0  0  0
    0.6737    2.1308   -5.5846 H   0  0  0  0  0  0  0  0  0  0  0  0
    0.1951    3.0077   -7.0611 H   0  0  0  0  0  0  0  0  0  0  0  0
    2.8377    5.2536   -5.5182 H   0  0  0  0  0  0  0  0  0  0  0  0
    2.3939    4.3446   -6.9868 H   0  0  0  0  0  0  0  0  0  0  0  0
    2.8783    3.4711   -5.5101 H   0  0  0  0  0  0  0  0  0  0  0  0
    3.4957    0.2753    6.7243 H   0  0  0  0  0  0  0  0  0  0  0  0
    4.8827   -1.8014    6.8039 H   0  0  0  0  0  0  0  0  0  0  0  0
    5.6369   -2.8819    4.6923 H   0  0  0  0  0  0  0  0  0  0  0  0
    5.0294   -1.9286    2.4901 H   0  0  0  0  0  0  0  0  0  0  0  0
  1  2  1  0
  1 33  1  0
  1 34  1  0
  1 35  1  0
  2  3  1  0
  2 36  1  0
  2 37  1  0
  3  4  1  0
  3 32  1  0
  4  5  1  0
  4 26  2  0
  5  6  2  0
  5 38  1  0
  6  7  1  0
  6 24  1  0
  7  8  2  0
  7  9  1  0
  9 10  1  0
  9 24  2  0
 10 11  2  0
 10 39  1  0
 11 12  1  0
 11 21  1  0
 12 13  1  0
 12 14  1  0
 13 40  1  0
 13 41  1  0
 13 42  1  0
 14 15  1  0
 14 20  2  0
 15 16  2  0
 15 43  1  0
 16 17  1  0
 16 44  1  0
 17 18  1  0
 17 19  2  0
 19 20  1  0
 19 45  1  0
 20 21  1  0
 21 22  1  6
 21 23  1  0
 22 46  1  0
 22 47  1  0
 22 48  1  0
 23 49  1  0
 23 50  1  0
 23 51  1  0
 24 25  1  0
 26 27  1  0
 27 28  1  0
 27 32  2  0
 28 29  2  0
 28 52  1  0
 29 30  1  0
 29 53  1  0
 30 31  2  0
 30 54  1  0
 31 32  1  0
 31 55  1  0
M  CHG  2  25  -1  26   1
M  END

