
     RDKit          3D

 55 59  0  0  0  0  0  0  0  0999 V2000
    2.1524    0.2814   -0.5416 O   0  0  0  0  0  0  0  0  0  0  0  0
    2.5454   -0.3563    0.4296 C   0  0  0  0  0  0  0  0  0  0  0  0
    2.7066   -1.8740    0.3700 C   0  0  0  0  0  0  0  0  0  0  0  0
    1.5344   -2.5655   -0.3800 C   0  0  0  0  0  0  0  0  0  0  0  0
    1.9633   -3.5960   -1.3760 C   0  0  0  0  0  0  0  0  0  0  0  0
    1.9750   -4.9971   -1.3990 C   0  0  0  0  0  0  0  0  0  0  0  0
    1.4411   -5.9516   -0.4064 C   0  0  0  0  0  0  0  0  0  0  0  0
    0.2970   -5.6961    0.3714 C   0  0  0  0  0  0  0  0  0  0  0  0
   -0.1747   -6.6295    1.2966 C   0  0  0  0  0  0  0  0  0  0  0  0
    0.4948   -7.8462    1.4466 C   0  0  0  0  0  0  0  0  0  0  0  0
   -0.0879   -9.0201    2.6071 Cl  0  0  0  0  0  0  0  0  0  0  0  0
    1.6192   -8.1382    0.6680 C   0  0  0  0  0  0  0  0  0  0  0  0
    2.0797   -7.1972   -0.2510 C   0  0  0  0  0  0  0  0  0  0  0  0
    2.6119   -5.4687   -2.5130 N   0  0  0  0  0  0  0  0  0  0  0  0
    2.9868   -4.4041   -3.2042 C   0  0  0  0  0  0  0  0  0  0  0  0
    3.6655   -4.2950   -4.4438 C   0  0  0  0  0  0  0  0  0  0  0  0
    3.9394   -3.0485   -4.9593 C   0  0  0  0  0  0  0  0  0  0  0  0
    3.5444   -1.8752   -4.2514 C   0  0  0  0  0  0  0  0  0  0  0  0
    2.8851   -1.9706   -3.0535 C   0  0  0  0  0  0  0  0  0  0  0  0
    2.6091   -3.2196   -2.5427 N   0  0  0  0  0  0  0  0  0  0  0  0
    2.8992    0.2400    1.5987 N   0  0  0  0  0  0  0  0  0  0  0  0
    2.8451    1.6966    1.7914 C   0  0  2  0  0  0  0  0  0  0  0  0
    1.9766    2.0372    1.2067 H   0  0  0  0  0  0  0  0  0  0  0  0
    4.0989    2.3957    1.2409 C   0  0  0  0  0  0  0  0  0  0  0  0
    5.2923    2.2017    2.1752 C   0  0  0  0  0  0  0  0  0  0  0  0
    5.0060    2.8421    3.5356 C   0  0  0  0  0  0  0  0  0  0  0  0
    3.6376    2.4923    4.0923 C   0  0  0  0  0  0  0  0  0  0  0  0
    3.3637    2.7068    5.4550 C   0  0  0  0  0  0  0  0  0  0  0  0
    2.1091    2.4344    5.9968 C   0  0  0  0  0  0  0  0  0  0  0  0
    1.0909    1.9365    5.1751 C   0  0  0  0  0  0  0  0  0  0  0  0
    1.3483    1.7171    3.8237 C   0  0  0  0  0  0  0  0  0  0  0  0
    2.6105    1.9901    3.2678 C   0  0  0  0  0  0  0  0  0  0  0  0
    2.8411   -2.3081    1.3731 H   0  0  0  0  0  0  0  0  0  0  0  0
    3.6541   -2.0510   -0.1671 H   0  0  0  0  0  0  0  0  0  0  0  0
    0.9502   -1.7825   -0.8922 H   0  0  0  0  0  0  0  0  0  0  0  0
    0.8625   -3.0257    0.3536 H   0  0  0  0  0  0  0  0  0  0  0  0
   -0.2638   -4.7704    0.2322 H   0  0  0  0  0  0  0  0  0  0  0  0
   -1.0674   -6.4241    1.8898 H   0  0  0  0  0  0  0  0  0  0  0  0
    2.1252   -9.0981    0.7851 H   0  0  0  0  0  0  0  0  0  0  0  0
    2.9481   -7.4167   -0.8743 H   0  0  0  0  0  0  0  0  0  0  0  0
    3.9496   -5.2171   -4.9523 H   0  0  0  0  0  0  0  0  0  0  0  0
    4.4611   -2.9515   -5.9139 H   0  0  0  0  0  0  0  0  0  0  0  0
    3.7601   -0.8843   -4.6539 H   0  0  0  0  0  0  0  0  0  0  0  0
    2.5651   -1.1087   -2.4630 H   0  0  0  0  0  0  0  0  0  0  0  0
    3.1885   -0.3370    2.3793 H   0  0  0  0  0  0  0  0  0  0  0  0
    3.8808    3.4736    1.1372 H   0  0  0  0  0  0  0  0  0  0  0  0
    4.2994    2.0159    0.2280 H   0  0  0  0  0  0  0  0  0  0  0  0
    6.2072    2.6330    1.7385 H   0  0  0  0  0  0  0  0  0  0  0  0
    5.4875    1.1211    2.2990 H   0  0  0  0  0  0  0  0  0  0  0  0
    5.0654    3.9423    3.4324 H   0  0  0  0  0  0  0  0  0  0  0  0
    5.7830    2.5713    4.2697 H   0  0  0  0  0  0  0  0  0  0  0  0
    4.1582    3.0959    6.0991 H   0  0  0  0  0  0  0  0  0  0  0  0
    1.9229    2.6095    7.0595 H   0  0  0  0  0  0  0  0  0  0  0  0
    0.1017    1.7236    5.5880 H   0  0  0  0  0  0  0  0  0  0  0  0
    0.5580    1.3274    3.1753 H   0  0  0  0  0  0  0  0  0  0  0  0
  1  2  2  0
  2  3  1  0
  2 21  1  0
  3  4  1  0
  3 33  1  0
  3 34  1  0
  4  5  1  0
  4 35  1  0
  4 36  1  0
  5  6  2  0
  5 20  1  0
  6  7  1  0
  6 14  1  0
  7  8  2  0
  7 13  1  0
  8  9  1  0
  8 37  1  0
  9 10  2  0
  9 38  1  0
 10 11  1  0
 10 12  1  0
 12 13  2  0
 12 39  1  0
 13 40  1  0
 14 15  2  0
 15 16  1  0
 15 20  1  0
 16 17  2  0
 16 41  1  0
 17 18  1  0
 17 42  1  0
 18 19  2  0
 18 43  1  0
 19 20  1  0
 19 44  1  0
 21 22  1  0
 21 45  1  0
 22 23  1  6
 22 24  1  0
 22 32  1  0
 24 25  1  0
 24 46  1  0
 24 47  1  0
 25 26  1  0
 25 48  1  0
 25 49  1  0
 26 27  1  0
 26 50  1  0
 26 51  1  0
 27 28  2  0
 27 32  1  0
 28 29  1  0
 28 52  1  0
 29 30  2  0
 29 53  1  0
 30 31  1  0
 30 54  1  0
 31 32  2  0
 31 55  1  0
M  END

