
     RDKit          3D

 39 40  0  0  0  0  0  0  0  0999 V2000
    4.1012   -0.8492    0.5956 C   0  0  0  0  0  0  0  0  0  0  0  0
    2.9225   -0.0370    0.0565 C   0  0  2  0  0  0  0  0  0  0  0  0
    3.0229    0.0466   -1.0351 H   0  0  0  0  0  0  0  0  0  0  0  0
    3.0062    1.3426    0.5352 N   0  0  0  0  0  0  0  0  0  0  0  0
    2.7222    2.4125   -0.2865 C   0  0  0  0  0  0  0  0  0  0  0  0
    2.4894    2.2936   -1.4862 O   0  0  0  0  0  0  0  0  0  0  0  0
    2.7198    3.6331    0.3453 N   0  0  0  0  0  0  0  0  0  0  0  0
    2.5630    4.8542   -0.4245 C   0  0  1  0  0  0  0  0  0  0  0  0
    2.9483    4.6613   -1.4415 H   0  0  0  0  0  0  0  0  0  0  0  0
    1.0836    5.2645   -0.5521 C   0  0  0  0  0  0  0  0  0  0  0  0
    3.4003    5.9147    0.2407 C   0  0  0  0  0  0  0  0  0  0  0  0
    3.8594    5.8288    1.4684 N   0  0  0  0  0  0  0  0  0  0  0  0
    4.5552    6.9734    1.7484 N   0  0  0  0  0  0  0  0  0  0  0  0
    4.4979    7.7247    0.6812 C   0  0  0  0  0  0  0  0  0  0  0  0
    3.7803    7.1092   -0.3157 N   0  0  0  0  0  0  0  0  0  0  0  0
    3.5067    7.6212   -1.6463 C   0  0  0  0  0  0  0  0  0  0  0  0
    1.5424   -0.6415    0.3339 C   0  0  0  0  0  0  0  0  0  0  0  0
    1.3094   -1.5877    1.3429 C   0  0  0  0  0  0  0  0  0  0  0  0
    0.0188   -2.0785    1.5761 C   0  0  0  0  0  0  0  0  0  0  0  0
   -1.0598   -1.6385    0.8082 C   0  0  0  0  0  0  0  0  0  0  0  0
   -0.8150   -0.6998   -0.1939 C   0  0  0  0  0  0  0  0  0  0  0  0
   -1.8425   -0.2714   -0.9450 F   0  0  0  0  0  0  0  0  0  0  0  0
    0.4572   -0.1981   -0.4428 C   0  0  0  0  0  0  0  0  0  0  0  0
    4.1138   -0.8774    1.6978 H   0  0  0  0  0  0  0  0  0  0  0  0
    5.0464   -0.3942    0.2650 H   0  0  0  0  0  0  0  0  0  0  0  0
    4.0668   -1.8877    0.2329 H   0  0  0  0  0  0  0  0  0  0  0  0
    2.9568    1.4850    1.5384 H   0  0  0  0  0  0  0  0  0  0  0  0
    3.1422    3.7556    1.2631 H   0  0  0  0  0  0  0  0  0  0  0  0
    0.5294    4.4538   -1.0464 H   0  0  0  0  0  0  0  0  0  0  0  0
    0.9633    6.1779   -1.1565 H   0  0  0  0  0  0  0  0  0  0  0  0
    0.6481    5.4418    0.4429 H   0  0  0  0  0  0  0  0  0  0  0  0
    4.9558    8.7065    0.5638 H   0  0  0  0  0  0  0  0  0  0  0  0
    4.2665    8.3696   -1.9094 H   0  0  0  0  0  0  0  0  0  0  0  0
    2.5124    8.0916   -1.7034 H   0  0  0  0  0  0  0  0  0  0  0  0
    3.5545    6.8062   -2.3823 H   0  0  0  0  0  0  0  0  0  0  0  0
    2.1338   -1.9560    1.9556 H   0  0  0  0  0  0  0  0  0  0  0  0
   -0.1471   -2.8162    2.3654 H   0  0  0  0  0  0  0  0  0  0  0  0
   -2.0751   -2.0071    0.9663 H   0  0  0  0  0  0  0  0  0  0  0  0
    0.6061    0.5387   -1.2353 H   0  0  0  0  0  0  0  0  0  0  0  0
  1  2  1  0
  1 24  1  0
  1 25  1  0
  1 26  1  0
  2  3  1  6
  2  4  1  0
  2 17  1  0
  4  5  1  0
  4 27  1  0
  5  6  2  0
  5  7  1  0
  7  8  1  0
  7 28  1  0
  8  9  1  6
  8 10  1  0
  8 11  1  0
 10 29  1  0
 10 30  1  0
 10 31  1  0
 11 12  2  0
 11 15  1  0
 12 13  1  0
 13 14  2  0
 14 15  1  0
 14 32  1  0
 15 16  1  0
 16 33  1  0
 16 34  1  0
 16 35  1  0
 17 18  2  0
 17 23  1  0
 18 19  1  0
 18 36  1  0
 19 20  2  0
 19 37  1  0
 20 21  1  0
 20 38  1  0
 21 22  1  0
 21 23  2  0
 23 39  1  0
M  END

