
     RDKit          3D

 52 54  0  0  0  0  0  0  0  0999 V2000
   -1.6045    2.8482    5.1547 O   0  0  0  0  0  0  0  0  0  0  0  0
   -0.7349    2.7220    5.9760 C   0  0  0  0  0  0  0  0  0  0  0  0
   -1.0424    2.6898    7.2939 O   0  0  0  0  0  0  0  0  0  0  0  0
    0.7193    2.5850    5.6209 C   0  0  0  0  0  0  0  0  0  0  0  0
    1.7643    2.7863    6.5374 C   0  0  0  0  0  0  0  0  0  0  0  0
    3.0952    2.6546    6.1406 C   0  0  0  0  0  0  0  0  0  0  0  0
    3.4184    2.3214    4.8168 C   0  0  0  0  0  0  0  0  0  0  0  0
    4.8609    2.2177    4.3605 C   0  0  0  0  0  0  0  0  0  0  0  0
    5.7473    1.6565    5.3594 N   0  0  0  0  0  0  0  0  0  0  0  0
    6.9924    2.2192    5.5897 C   0  0  0  0  0  0  0  0  0  0  0  0
    7.3325    3.2601    5.0440 O   0  0  0  0  0  0  0  0  0  0  0  0
    7.8242    1.5426    6.4697 N   0  0  0  0  0  0  0  0  0  0  0  0
    7.4436    0.4570    7.3646 C   0  0  0  0  0  0  0  0  0  0  0  0
    8.4893   -0.6637    7.3372 C   0  0  0  0  0  0  0  0  0  0  0  0
    9.8908   -0.1172    7.6286 C   0  0  0  0  0  0  0  0  0  0  0  0
   10.2378    1.0548    6.6988 C   0  0  2  0  0  0  0  0  0  0  0  0
   11.5967    1.6900    7.0182 C   0  0  0  0  0  0  0  0  0  0  0  0
   12.6955    0.7380    6.8404 N   0  0  0  0  0  0  0  0  0  0  0  0
   14.1231    0.9130    7.7266 S   0  0  1  0  0  0  0  0  0  0  0  0
   15.2326    0.9853    6.7672 O   0  0  0  0  0  0  0  0  0  0  0  0
   13.8981    1.9555    8.7307 O   0  0  0  0  0  0  0  0  0  0  0  0
   14.2753   -0.6458    8.5847 C   0  0  1  0  0  0  0  0  0  0  0  0
   14.8663   -1.8284    7.8667 C   0  0  0  0  0  0  0  0  0  0  0  0
   15.6644   -1.1186    8.9246 C   0  0  0  0  0  0  0  0  0  0  0  0
    9.1326    2.1212    6.7551 C   0  0  0  0  0  0  0  0  0  0  0  0
    2.3708    2.1284    3.9017 C   0  0  0  0  0  0  0  0  0  0  0  0
    1.0409    2.2687    4.2923 C   0  0  0  0  0  0  0  0  0  0  0  0
   -0.2638    2.4566    7.8179 H   0  0  0  0  0  0  0  0  0  0  0  0
    1.5567    3.0825    7.5707 H   0  0  0  0  0  0  0  0  0  0  0  0
    3.8990    2.8157    6.8620 H   0  0  0  0  0  0  0  0  0  0  0  0
    5.2604    3.2186    4.1309 H   0  0  0  0  0  0  0  0  0  0  0  0
    4.9020    1.6449    3.4153 H   0  0  0  0  0  0  0  0  0  0  0  0
    5.5778    0.6972    5.6294 H   0  0  0  0  0  0  0  0  0  0  0  0
    6.4543    0.0586    7.1066 H   0  0  0  0  0  0  0  0  0  0  0  0
    7.3539    0.8478    8.3997 H   0  0  0  0  0  0  0  0  0  0  0  0
    8.4735   -1.1395    6.3409 H   0  0  0  0  0  0  0  0  0  0  0  0
    8.2148   -1.4395    8.0713 H   0  0  0  0  0  0  0  0  0  0  0  0
   10.6473   -0.9116    7.5368 H   0  0  0  0  0  0  0  0  0  0  0  0
    9.9327    0.2384    8.6760 H   0  0  0  0  0  0  0  0  0  0  0  0
   10.2663    0.6759    5.6592 H   0  0  0  0  0  0  0  0  0  0  0  0
   11.6236    2.0296    8.0642 H   0  0  0  0  0  0  0  0  0  0  0  0
   11.7410    2.5910    6.3935 H   0  0  0  0  0  0  0  0  0  0  0  0
   12.9374    0.5368    5.8712 H   0  0  0  0  0  0  0  0  0  0  0  0
   13.4601   -0.7808    9.3005 H   0  0  0  0  0  0  0  0  0  0  0  0
   15.1772   -1.6772    6.8297 H   0  0  0  0  0  0  0  0  0  0  0  0
   14.4358   -2.8089    8.0878 H   0  0  0  0  0  0  0  0  0  0  0  0
   16.4973   -0.4970    8.5858 H   0  0  0  0  0  0  0  0  0  0  0  0
   15.8002   -1.5898    9.9016 H   0  0  0  0  0  0  0  0  0  0  0  0
    9.3047    2.9243    6.0284 H   0  0  0  0  0  0  0  0  0  0  0  0
    9.1256    2.5846    7.7639 H   0  0  0  0  0  0  0  0  0  0  0  0
    2.6032    1.8657    2.8656 H   0  0  0  0  0  0  0  0  0  0  0  0
    0.2249    2.1298    3.5806 H   0  0  0  0  0  0  0  0  0  0  0  0
  1  2  2  0
  2  3  1  0
  2  4  1  0
  3 28  1  0
  4  5  2  0
  4 27  1  0
  5  6  1  0
  5 29  1  0
  6  7  2  0
  6 30  1  0
  7  8  1  0
  7 26  1  0
  8  9  1  0
  8 31  1  0
  8 32  1  0
  9 10  1  0
  9 33  1  0
 10 11  2  0
 10 12  1  0
 12 13  1  0
 12 25  1  0
 13 14  1  0
 13 34  1  0
 13 35  1  0
 14 15  1  0
 14 36  1  0
 14 37  1  0
 15 16  1  0
 15 38  1  0
 15 39  1  0
 16 17  1  0
 16 25  1  0
 16 40  1  6
 17 18  1  0
 17 41  1  0
 17 42  1  0
 19 18  1  6
 18 43  1  0
 19 20  2  0
 19 21  2  0
 19 22  1  0
 22 23  1  0
 22 24  1  0
 22 44  1  1
 23 24  1  0
 23 45  1  0
 23 46  1  0
 24 47  1  0
 24 48  1  0
 25 49  1  0
 25 50  1  0
 26 27  2  0
 26 51  1  0
 27 52  1  0
M  END

