
     RDKit          3D

 45 48  0  0  0  0  0  0  0  0999 V2000
    2.7220   -2.3099    1.9164 O   0  0  0  0  0  0  0  0  0  0  0  0
    2.3069   -1.8915    0.8466 C   0  0  0  0  0  0  0  0  0  0  0  0
    0.8177   -1.7690    0.5469 C   0  0  0  0  0  0  0  0  0  0  0  0
    0.0355   -1.3226    1.7874 C   0  0  0  0  0  0  0  0  0  0  0  0
   -1.4058   -1.3846    1.6090 N   0  0  0  0  0  0  0  0  0  0  0  0
   -2.0712   -0.4578    0.8561 C   0  0  0  0  0  0  0  0  0  0  0  0
   -1.4868    0.4445    0.2704 O   0  0  0  0  0  0  0  0  0  0  0  0
   -3.5595   -0.6015    0.7799 C   0  0  0  0  0  0  0  0  0  0  0  0
   -4.3805    0.4856    0.3341 C   0  0  0  0  0  0  0  0  0  0  0  0
   -5.7109    0.1675    0.3052 C   0  0  0  0  0  0  0  0  0  0  0  0
   -5.9877   -1.4696    0.8032 S   0  0  0  0  0  0  0  0  0  0  0  0
   -4.3025   -1.7289    1.0636 C   0  0  0  0  0  0  0  0  0  0  0  0
    3.1391   -1.5075   -0.1691 N   0  0  0  0  0  0  0  0  0  0  0  0
    4.5840   -1.6637   -0.0849 C   0  0  0  0  0  0  0  0  0  0  0  0
    5.1170   -2.7889   -0.9111 C   0  0  0  0  0  0  0  0  0  0  0  0
    5.5897   -4.0414   -0.6109 C   0  0  0  0  0  0  0  0  0  0  0  0
    5.9155   -4.6648   -1.8523 C   0  0  0  0  0  0  0  0  0  0  0  0
    5.6134   -3.7474   -2.8314 C   0  0  0  0  0  0  0  0  0  0  0  0
    5.7242   -3.7940   -4.2716 C   0  0  0  0  0  0  0  0  0  0  0  0
    6.1647   -4.8196   -4.9356 N   0  0  0  0  0  0  0  0  0  0  0  0
    6.1581   -4.5821   -6.2911 C   0  0  0  0  0  0  0  0  0  0  0  0
    6.5741   -5.4906   -7.2820 C   0  0  0  0  0  0  0  0  0  0  0  0
    6.5108   -5.1114   -8.6187 C   0  0  0  0  0  0  0  0  0  0  0  0
    6.0381   -3.8368   -8.9882 C   0  0  0  0  0  0  0  0  0  0  0  0
    5.6203   -2.9188   -8.0249 C   0  0  0  0  0  0  0  0  0  0  0  0
    5.6831   -3.2984   -6.6792 C   0  0  0  0  0  0  0  0  0  0  0  0
    5.2403   -2.3881   -5.2527 S   0  0  0  0  0  0  0  0  0  0  0  0
    5.1293   -2.6068   -2.2612 O   0  0  0  0  0  0  0  0  0  0  0  0
    0.4636   -2.7676    0.2342 H   0  0  0  0  0  0  0  0  0  0  0  0
    0.6237   -1.0752   -0.2845 H   0  0  0  0  0  0  0  0  0  0  0  0
    0.3242   -0.2891    2.0411 H   0  0  0  0  0  0  0  0  0  0  0  0
    0.3153   -1.9631    2.6345 H   0  0  0  0  0  0  0  0  0  0  0  0
   -1.9383   -2.0153    2.1934 H   0  0  0  0  0  0  0  0  0  0  0  0
   -3.9636    1.4526    0.0532 H   0  0  0  0  0  0  0  0  0  0  0  0
   -6.5503    0.7992    0.0178 H   0  0  0  0  0  0  0  0  0  0  0  0
   -3.9528   -2.7124    1.3754 H   0  0  0  0  0  0  0  0  0  0  0  0
    2.7358   -1.2072   -1.0485 H   0  0  0  0  0  0  0  0  0  0  0  0
    4.8167   -1.8545    0.9707 H   0  0  0  0  0  0  0  0  0  0  0  0
    5.0736   -0.7212   -0.3843 H   0  0  0  0  0  0  0  0  0  0  0  0
    5.6858   -4.4624    0.3877 H   0  0  0  0  0  0  0  0  0  0  0  0
    6.3212   -5.6582   -2.0252 H   0  0  0  0  0  0  0  0  0  0  0  0
    6.9380   -6.4746   -6.9801 H   0  0  0  0  0  0  0  0  0  0  0  0
    6.8317   -5.8104   -9.3949 H   0  0  0  0  0  0  0  0  0  0  0  0
    5.9974   -3.5611  -10.0448 H   0  0  0  0  0  0  0  0  0  0  0  0
    5.2548   -1.9318   -8.3163 H   0  0  0  0  0  0  0  0  0  0  0  0
  1  2  2  0
  2  3  1  0
  2 13  1  0
  3  4  1  0
  3 29  1  0
  3 30  1  0
  4  5  1  0
  4 31  1  0
  4 32  1  0
  5  6  1  0
  5 33  1  0
  6  7  2  0
  6  8  1  0
  8  9  1  0
  8 12  2  0
  9 10  2  0
  9 34  1  0
 10 11  1  0
 10 35  1  0
 11 12  1  0
 12 36  1  0
 13 14  1  0
 13 37  1  0
 14 15  1  0
 14 38  1  0
 14 39  1  0
 15 16  2  0
 15 28  1  0
 16 17  1  0
 16 40  1  0
 17 18  2  0
 17 41  1  0
 18 19  1  0
 18 28  1  0
 19 20  2  0
 19 27  1  0
 20 21  1  0
 21 22  2  0
 21 26  1  0
 22 23  1  0
 22 42  1  0
 23 24  2  0
 23 43  1  0
 24 25  1  0
 24 44  1  0
 25 26  2  0
 25 45  1  0
 26 27  1  0
M  END

