
     RDKit          3D

 37 39  0  0  0  0  0  0  0  0999 V2000
    2.6002   -1.6975   -1.4584 O   0  0  0  0  0  0  0  0  0  0  0  0
    3.0505   -0.5955   -1.7051 C   0  0  0  0  0  0  0  0  0  0  0  0
    2.5664    0.6403   -0.9239 C   0  0  0  0  0  0  0  0  0  0  0  0
    1.8401    1.5833   -1.7266 O   0  0  0  0  0  0  0  0  0  0  0  0
    2.5241    2.5262   -2.3789 C   0  0  0  0  0  0  0  0  0  0  0  0
    3.7423    2.5380   -2.4310 O   0  0  0  0  0  0  0  0  0  0  0  0
    1.6388    3.5432   -3.0321 C   0  0  0  0  0  0  0  0  0  0  0  0
    0.3609    3.3619   -2.8327 N   0  0  0  0  0  0  0  0  0  0  0  0
   -0.5029    4.2004   -3.3740 N   0  0  0  0  0  0  0  0  0  0  0  0
   -1.4849    4.0048   -3.1844 H   0  0  0  0  0  0  0  0  0  0  0  0
   -0.2407    5.3189   -4.1775 C   0  0  0  0  0  0  0  0  0  0  0  0
   -1.1547    5.9957   -4.6059 O   0  0  0  0  0  0  0  0  0  0  0  0
    1.1979    5.5348   -4.4054 C   0  0  0  0  0  0  0  0  0  0  0  0
    1.5964    6.6268   -5.1929 C   0  0  0  0  0  0  0  0  0  0  0  0
    2.9455    6.8590   -5.4232 C   0  0  0  0  0  0  0  0  0  0  0  0
    3.9036    5.9974   -4.8630 C   0  0  0  0  0  0  0  0  0  0  0  0
    3.5246    4.9119   -4.0813 C   0  0  0  0  0  0  0  0  0  0  0  0
    2.1561    4.6539   -3.8353 C   0  0  0  0  0  0  0  0  0  0  0  0
    4.0199   -0.3211   -2.6369 N   0  0  0  0  0  0  0  0  0  0  0  0
    4.6523   -1.2030   -3.5280 C   0  0  0  0  0  0  0  0  0  0  0  0
    4.3851   -2.5829   -3.5605 C   0  0  0  0  0  0  0  0  0  0  0  0
    5.0673   -3.3753   -4.4857 C   0  0  0  0  0  0  0  0  0  0  0  0
    4.7366   -5.0910   -4.5283 Cl  0  0  0  0  0  0  0  0  0  0  0  0
    6.0052   -2.8500   -5.3777 C   0  0  0  0  0  0  0  0  0  0  0  0
    6.2520   -1.4760   -5.3237 C   0  0  0  0  0  0  0  0  0  0  0  0
    7.4174   -0.7747   -6.4222 Cl  0  0  0  0  0  0  0  0  0  0  0  0
    5.5923   -0.6491   -4.4174 C   0  0  0  0  0  0  0  0  0  0  0  0
    3.4148    1.1457   -0.4357 H   0  0  0  0  0  0  0  0  0  0  0  0
    1.8527    0.2786   -0.1763 H   0  0  0  0  0  0  0  0  0  0  0  0
    0.8195    7.2720   -5.6072 H   0  0  0  0  0  0  0  0  0  0  0  0
    3.2616    7.7068   -6.0354 H   0  0  0  0  0  0  0  0  0  0  0  0
    4.9663    6.1797   -5.0415 H   0  0  0  0  0  0  0  0  0  0  0  0
    4.2749    4.2543   -3.6496 H   0  0  0  0  0  0  0  0  0  0  0  0
    4.3010    0.6583   -2.6928 H   0  0  0  0  0  0  0  0  0  0  0  0
    3.6614   -3.0155   -2.8756 H   0  0  0  0  0  0  0  0  0  0  0  0
    6.5258   -3.4886   -6.0899 H   0  0  0  0  0  0  0  0  0  0  0  0
    5.8064    0.4209   -4.4041 H   0  0  0  0  0  0  0  0  0  0  0  0
  1  2  2  0
  2  3  1  0
  2 19  1  0
  3  4  1  0
  3 28  1  0
  3 29  1  0
  4  5  1  0
  5  6  2  0
  5  7  1  0
  7  8  2  0
  7 18  1  0
  8  9  1  0
  9 10  1  0
  9 11  1  0
 11 12  2  0
 11 13  1  0
 13 14  1  0
 13 18  2  0
 14 15  2  0
 14 30  1  0
 15 16  1  0
 15 31  1  0
 16 17  2  0
 16 32  1  0
 17 18  1  0
 17 33  1  0
 19 20  1  0
 19 34  1  0
 20 21  2  0
 20 27  1  0
 21 22  1  0
 21 35  1  0
 22 23  1  0
 22 24  2  0
 24 25  1  0
 24 36  1  0
 25 26  1  0
 25 27  2  0
 27 37  1  0
M  END

