
     RDKit          3D

104114  0  0  0  0  0  0  0  0999 V2000
    6.2173   -0.2540   -5.1533 C   0  0  0  0  0  0  0  0  0  0  0  0
    6.5524   -0.6127   -3.7048 C   0  0  0  0  0  0  0  0  0  0  0  0
    6.3007   -2.0842   -3.3611 C   0  0  0  0  0  0  0  0  0  0  0  0
    6.6393   -2.4498   -1.9133 C   0  0  0  0  0  0  0  0  0  0  0  0
    6.3965   -3.9235   -1.5689 C   0  0  0  0  0  0  0  0  0  0  0  0
    6.8076   -4.2796   -0.1363 C   0  0  0  0  0  0  0  0  0  0  0  0
    6.4960   -5.7178    0.3085 C   0  0  0  0  0  0  0  0  0  0  0  0
    7.1102   -6.8537   -0.5247 C   0  0  0  0  0  0  0  0  0  0  0  0
    8.6544   -6.9102   -0.5881 C   0  0  0  0  0  0  0  0  0  0  0  0
    9.3624   -7.1324    0.7315 C   0  0  0  0  0  0  0  0  0  0  0  0
    9.4409   -8.4079    1.3861 C   0  0  0  0  0  0  0  0  0  0  0  0
    8.8666   -9.5856    0.8216 C   0  0  0  0  0  0  0  0  0  0  0  0
    8.9487  -10.8060    1.4585 C   0  0  0  0  0  0  0  0  0  0  0  0
    9.6127  -10.9237    2.7054 C   0  0  0  0  0  0  0  0  0  0  0  0
   10.1874   -9.8132    3.2809 C   0  0  0  0  0  0  0  0  0  0  0  0
   10.1285   -8.5344    2.6516 C   0  0  0  0  0  0  0  0  0  0  0  0
   10.7425   -7.4066    3.2571 C   0  0  0  0  0  0  0  0  0  0  0  0
   10.6858   -6.1761    2.6259 C   0  0  0  0  0  0  0  0  0  0  0  0
    9.9896   -6.0896    1.3797 C   0  0  0  0  0  0  0  0  0  0  0  0
   10.0250   -4.8043    0.8919 O   0  0  0  0  0  0  0  0  0  0  0  0
   10.7151   -4.0628    1.8017 C   0  0  0  0  0  0  0  0  0  0  0  0
   10.9596   -2.7034    1.7189 C   0  0  0  0  0  0  0  0  0  0  0  0
   10.5542   -1.8788    0.7208 O   0  0  0  0  0  0  0  0  0  0  0  0
   10.9853   -0.6292    1.0793 C   0  0  0  0  0  0  0  0  0  0  0  0
   10.7959    0.5353    0.3477 C   0  0  0  0  0  0  0  0  0  0  0  0
   10.1639    0.6319   -0.8418 O   0  0  0  0  0  0  0  0  0  0  0  0
   10.1446    2.0313   -1.2419 C   0  0  1  0  0  0  0  0  0  0  0  0
    8.6812    2.4766   -1.3192 C   0  0  0  0  0  0  0  0  0  0  0  0
    8.1418    2.7427    0.0871 C   0  0  2  0  0  0  0  0  0  0  0  0
    6.6180    2.8373    0.2247 C   0  0  0  0  0  0  0  0  0  0  0  0
    6.2265    3.0028    1.7020 C   0  0  0  0  0  0  0  0  0  0  0  0
    6.9551    4.1771    2.3750 C   0  0  0  0  0  0  0  0  0  0  0  0
    8.4768    4.1287    2.1612 C   0  0  0  0  0  0  0  0  0  0  0  0
    8.8036    4.0106    0.6652 C   0  0  1  0  0  0  0  0  0  0  0  0
   10.3057    4.1142    0.2910 C   0  0  0  0  0  0  0  0  0  0  0  0
   10.9981    2.8122   -0.1766 C   0  0  1  0  0  0  0  0  0  0  0  0
   11.3037    1.7293    0.8523 C   0  0  0  0  0  0  0  0  0  0  0  0
   12.0431    1.7725    2.0566 C   0  0  0  0  0  0  0  0  0  0  0  0
   12.6600    3.0857    2.5126 C   0  0  0  0  0  0  0  0  0  0  0  0
   13.7782    2.9133    3.5423 C   0  0  0  0  0  0  0  0  0  0  0  0
   13.3117    1.9865    4.6619 C   0  0  0  0  0  0  0  0  0  0  0  0
   13.0054    0.5918    4.1109 C   0  0  0  0  0  0  0  0  0  0  0  0
   12.2170    0.5918    2.8147 C   0  0  0  0  0  0  0  0  0  0  0  0
   11.6765   -0.6176    2.3086 C   0  0  0  0  0  0  0  0  0  0  0  0
   11.6589   -2.0200    2.7473 C   0  0  0  0  0  0  0  0  0  0  0  0
   12.1321   -2.7626    3.8434 C   0  0  0  0  0  0  0  0  0  0  0  0
   12.7025   -2.4354    5.1797 C   0  0  0  0  0  0  0  0  0  0  0  0
   13.8695   -3.0957    5.4336 C   0  0  0  0  0  0  0  0  0  0  0  0
   13.5212   -4.4650    5.8698 C   0  0  0  0  0  0  0  0  0  0  0  0
   12.5426   -4.9608    5.0434 C   0  0  0  0  0  0  0  0  0  0  0  0
   11.9248   -4.1921    3.9220 C   0  0  0  0  0  0  0  0  0  0  0  0
   11.1711   -4.8222    2.8992 C   0  0  0  0  0  0  0  0  0  0  0  0
    6.4106    0.8102   -5.3645 H   0  0  0  0  0  0  0  0  0  0  0  0
    5.1557   -0.4500   -5.3802 H   0  0  0  0  0  0  0  0  0  0  0  0
    6.8186   -0.8477   -5.8624 H   0  0  0  0  0  0  0  0  0  0  0  0
    5.9620    0.0249   -3.0212 H   0  0  0  0  0  0  0  0  0  0  0  0
    7.6112   -0.3719   -3.4988 H   0  0  0  0  0  0  0  0  0  0  0  0
    6.8914   -2.7216   -4.0459 H   0  0  0  0  0  0  0  0  0  0  0  0
    5.2413   -2.3303   -3.5649 H   0  0  0  0  0  0  0  0  0  0  0  0
    6.0456   -1.8151   -1.2289 H   0  0  0  0  0  0  0  0  0  0  0  0
    7.6959   -2.1963   -1.7085 H   0  0  0  0  0  0  0  0  0  0  0  0
    6.9526   -4.5519   -2.2882 H   0  0  0  0  0  0  0  0  0  0  0  0
    5.3277   -4.1662   -1.7229 H   0  0  0  0  0  0  0  0  0  0  0  0
    6.2917   -3.5927    0.5591 H   0  0  0  0  0  0  0  0  0  0  0  0
    7.8819   -4.0709   -0.0087 H   0  0  0  0  0  0  0  0  0  0  0  0
    5.4000   -5.8612    0.3070 H   0  0  0  0  0  0  0  0  0  0  0  0
    6.8081   -5.8349    1.3615 H   0  0  0  0  0  0  0  0  0  0  0  0
    6.7382   -6.7941   -1.5623 H   0  0  0  0  0  0  0  0  0  0  0  0
    6.7313   -7.8108   -0.1283 H   0  0  0  0  0  0  0  0  0  0  0  0
    8.9388   -7.7152   -1.2860 H   0  0  0  0  0  0  0  0  0  0  0  0
    9.0347   -5.9791   -1.0338 H   0  0  0  0  0  0  0  0  0  0  0  0
    8.3535   -9.5211   -0.1386 H   0  0  0  0  0  0  0  0  0  0  0  0
    8.4997  -11.6898    0.9981 H   0  0  0  0  0  0  0  0  0  0  0  0
    9.6699  -11.8948    3.2033 H   0  0  0  0  0  0  0  0  0  0  0  0
   10.7075   -9.8958    4.2394 H   0  0  0  0  0  0  0  0  0  0  0  0
   11.2491   -7.5415    4.2135 H   0  0  0  0  0  0  0  0  0  0  0  0
   10.6107    2.0729   -2.2385 H   0  0  0  0  0  0  0  0  0  0  0  0
    8.1135    1.6822   -1.8297 H   0  0  0  0  0  0  0  0  0  0  0  0
    8.5984    3.3839   -1.9446 H   0  0  0  0  0  0  0  0  0  0  0  0
    8.4516    1.8854    0.7126 H   0  0  0  0  0  0  0  0  0  0  0  0
    6.1400    1.9351   -0.1944 H   0  0  0  0  0  0  0  0  0  0  0  0
    6.2436    3.6948   -0.3658 H   0  0  0  0  0  0  0  0  0  0  0  0
    6.4764    2.0690    2.2381 H   0  0  0  0  0  0  0  0  0  0  0  0
    5.1351    3.1307    1.7991 H   0  0  0  0  0  0  0  0  0  0  0  0
    6.7195    4.1995    3.4524 H   0  0  0  0  0  0  0  0  0  0  0  0
    6.5716    5.1260    1.9562 H   0  0  0  0  0  0  0  0  0  0  0  0
    8.9104    3.2683    2.7034 H   0  0  0  0  0  0  0  0  0  0  0  0
    8.9438    5.0352    2.5847 H   0  0  0  0  0  0  0  0  0  0  0  0
    8.3053    4.8682    0.1735 H   0  0  0  0  0  0  0  0  0  0  0  0
   10.8736    4.5582    1.1209 H   0  0  0  0  0  0  0  0  0  0  0  0
   10.4060    4.8311   -0.5405 H   0  0  0  0  0  0  0  0  0  0  0  0
   11.9536    3.1167   -0.6403 H   0  0  0  0  0  0  0  0  0  0  0  0
   11.8725    3.7255    2.9524 H   0  0  0  0  0  0  0  0  0  0  0  0
   13.0347    3.6382    1.6348 H   0  0  0  0  0  0  0  0  0  0  0  0
   14.0762    3.8979    3.9385 H   0  0  0  0  0  0  0  0  0  0  0  0
   14.6735    2.4835    3.0573 H   0  0  0  0  0  0  0  0  0  0  0  0
   12.4051    2.4131    5.1287 H   0  0  0  0  0  0  0  0  0  0  0  0
   14.0679    1.9111    5.4600 H   0  0  0  0  0  0  0  0  0  0  0  0
   12.4720   -0.0005    4.8695 H   0  0  0  0  0  0  0  0  0  0  0  0
   13.9555    0.0495    3.9468 H   0  0  0  0  0  0  0  0  0  0  0  0
   11.9378   -2.5790    5.9617 H   0  0  0  0  0  0  0  0  0  0  0  0
   14.6914   -3.0387    4.6996 H   0  0  0  0  0  0  0  0  0  0  0  0
   14.0928   -5.1255    6.5320 H   0  0  0  0  0  0  0  0  0  0  0  0
   12.2847   -6.0207    5.1126 H   0  0  0  0  0  0  0  0  0  0  0  0
  1  2  1  0
  1 53  1  0
  1 54  1  0
  1 55  1  0
  2  3  1  0
  2 56  1  0
  2 57  1  0
  3  4  1  0
  3 58  1  0
  3 59  1  0
  4  5  1  0
  4 60  1  0
  4 61  1  0
  5  6  1  0
  5 62  1  0
  5 63  1  0
  6  7  1  0
  6 64  1  0
  6 65  1  0
  7  8  1  0
  7 66  1  0
  7 67  1  0
  8  9  1  0
  8 68  1  0
  8 69  1  0
  9 10  1  0
  9 70  1  0
  9 71  1  0
 10 11  2  0
 10 19  1  0
 11 12  1  0
 11 16  1  0
 12 13  2  0
 12 72  1  0
 13 14  1  0
 13 73  1  0
 14 15  2  0
 14 74  1  0
 15 16  1  0
 15 75  1  0
 16 17  2  0
 17 18  1  0
 17 76  1  0
 18 19  2  0
 18 52  1  0
 19 20  1  0
 20 21  1  0
 21 22  1  0
 21 52  2  0
 22 23  1  0
 22 45  2  0
 23 24  1  0
 24 25  2  0
 24 44  1  0
 25 26  1  0
 25 37  1  0
 26 27  1  0
 27 28  1  0
 27 36  1  0
 27 77  1  6
 28 29  1  0
 28 78  1  0
 28 79  1  0
 29 30  1  0
 29 34  1  0
 29 80  1  1
 30 31  1  0
 30 81  1  0
 30 82  1  0
 31 32  1  0
 31 83  1  0
 31 84  1  0
 32 33  1  0
 32 85  1  0
 32 86  1  0
 33 34  1  0
 33 87  1  0
 33 88  1  0
 34 35  1  0
 34 89  1  6
 35 36  1  0
 35 90  1  0
 35 91  1  0
 36 37  1  0
 36 92  1  6
 37 38  2  0
 38 39  1  0
 38 43  1  0
 39 40  1  0
 39 93  1  0
 39 94  1  0
 40 41  1  0
 40 95  1  0
 40 96  1  0
 41 42  1  0
 41 97  1  0
 41 98  1  0
 42 43  1  0
 42 99  1  0
 42100  1  0
 43 44  2  0
 44 45  1  0
 45 46  1  0
 46 47  1  0
 46 51  2  0
 47 48  2  0
 47101  1  0
 48 49  1  0
 48102  1  0
 49 50  2  0
 49103  1  0
 50 51  1  0
 50104  1  0
 51 52  1  0
M  END

