
     RDKit          3D

 29 29  0  0  0  0  0  0  0  0999 V2000
    1.7245    0.5734    0.9690 C   0  0  0  0  0  0  0  0  0  0  0  0
    2.4524    0.0156   -0.0991 O   0  0  0  0  0  0  0  0  0  0  0  0
    2.8343    0.8173   -1.1299 C   0  0  0  0  0  0  0  0  0  0  0  0
    2.5519    2.1860   -1.2293 C   0  0  0  0  0  0  0  0  0  0  0  0
    2.9858    2.9310   -2.3326 C   0  0  0  0  0  0  0  0  0  0  0  0
    3.7154    2.3168   -3.3598 C   0  0  0  0  0  0  0  0  0  0  0  0
    4.1932    2.9960   -4.5020 N   0  0  0  0  0  0  0  0  0  0  0  0
    4.0577    4.3299   -4.8233 C   0  0  0  0  0  0  0  0  0  0  0  0
    3.4442    5.1497   -4.1561 O   0  0  0  0  0  0  0  0  0  0  0  0
    4.6728    4.6795   -6.0181 N   0  0  0  0  0  0  0  0  0  0  0  0
    4.6988    6.0687   -6.4178 C   0  0  0  0  0  0  0  0  0  0  0  0
    5.7329    6.9268   -5.6513 C   0  0  0  0  0  0  0  0  0  0  0  0
    7.0997    6.4310   -5.8238 C   0  0  0  0  0  0  0  0  0  0  0  0
    8.1590    5.9910   -5.9905 N   0  0  0  0  0  0  0  0  0  0  0  0
    3.9965    0.9407   -3.2540 C   0  0  0  0  0  0  0  0  0  0  0  0
    3.5642    0.2015   -2.1603 C   0  0  0  0  0  0  0  0  0  0  0  0
    1.5307   -0.2423    1.6789 H   0  0  0  0  0  0  0  0  0  0  0  0
    0.7569    0.9924    0.6364 H   0  0  0  0  0  0  0  0  0  0  0  0
    2.2926    1.3683    1.4864 H   0  0  0  0  0  0  0  0  0  0  0  0
    1.9867    2.6988   -0.4507 H   0  0  0  0  0  0  0  0  0  0  0  0
    2.7563    3.9916   -2.4031 H   0  0  0  0  0  0  0  0  0  0  0  0
    4.6602    2.4059   -5.1798 H   0  0  0  0  0  0  0  0  0  0  0  0
    5.4026    4.0808   -6.3893 H   0  0  0  0  0  0  0  0  0  0  0  0
    3.7046    6.4972   -6.2312 H   0  0  0  0  0  0  0  0  0  0  0  0
    4.8969    6.1184   -7.4994 H   0  0  0  0  0  0  0  0  0  0  0  0
    5.4764    6.9226   -4.5800 H   0  0  0  0  0  0  0  0  0  0  0  0
    5.6854    7.9727   -5.9977 H   0  0  0  0  0  0  0  0  0  0  0  0
    4.5665    0.4407   -4.0435 H   0  0  0  0  0  0  0  0  0  0  0  0
    3.7831   -0.8650   -2.0803 H   0  0  0  0  0  0  0  0  0  0  0  0
  1  2  1  0
  1 17  1  0
  1 18  1  0
  1 19  1  0
  2  3  1  0
  3  4  2  0
  3 16  1  0
  4  5  1  0
  4 20  1  0
  5  6  2  0
  5 21  1  0
  6  7  1  0
  6 15  1  0
  7  8  1  0
  7 22  1  0
  8  9  2  0
  8 10  1  0
 10 11  1  0
 10 23  1  0
 11 12  1  0
 11 24  1  0
 11 25  1  0
 12 13  1  0
 12 26  1  0
 12 27  1  0
 13 14  3  0
 15 16  2  0
 15 28  1  0
 16 29  1  0
M  END

