
     RDKit          3D

 58 57  0  0  0  0  0  0  0  0999 V2000
   16.1419   -1.0557    4.8932 C   0  0  0  0  0  0  0  0  0  0  0  0
   15.0245   -0.0351    4.6707 C   0  0  0  0  0  0  0  0  0  0  0  0
   14.0481   -0.4470    3.5646 C   0  0  0  0  0  0  0  0  0  0  0  0
   12.9095    0.5554    3.3596 C   0  0  0  0  0  0  0  0  0  0  0  0
   11.9107    0.1705    2.2484 C   0  0  0  0  0  0  0  0  0  0  0  0
   11.1292   -1.0971    2.5564 C   0  0  0  0  0  0  0  0  0  0  0  0
   11.5180   -2.2145    2.2277 O   0  0  0  0  0  0  0  0  0  0  0  0
    9.9692   -0.9279    3.2545 N   0  0  0  0  0  0  0  0  0  0  0  0
    9.0741   -2.0339    3.5538 C   0  0  0  0  0  0  0  0  0  0  0  0
    9.4441   -2.8764    4.7869 C   0  0  0  0  0  0  0  0  0  0  0  0
    8.6785   -2.9820    5.7343 O   0  0  0  0  0  0  0  0  0  0  0  0
   10.6511   -3.4989    4.7083 N   0  0  0  0  0  0  0  0  0  0  0  0
   11.1286   -4.3599    5.7635 C   0  0  1  0  0  0  0  0  0  0  0  0
   10.7662   -5.8449    5.5366 C   0  0  0  0  0  0  0  0  0  0  0  0
    9.3596   -5.9985    5.3713 O   0  0  0  0  0  0  0  0  0  0  0  0
    8.6093   -6.0237    6.5017 C   0  0  0  0  0  0  0  0  0  0  0  0
    9.0914   -6.0098    7.6074 O   0  0  0  0  0  0  0  0  0  0  0  0
    7.1357   -6.1048    6.1715 C   0  0  0  0  0  0  0  0  0  0  0  0
    6.2189   -5.9052    7.3792 C   0  0  0  0  0  0  0  0  0  0  0  0
    6.1730   -4.4637    7.8971 C   0  0  0  0  0  0  0  0  0  0  0  0
    5.2585   -4.2848    9.1121 C   0  0  0  0  0  0  0  0  0  0  0  0
    5.2045   -2.8455    9.6268 C   0  0  0  0  0  0  0  0  0  0  0  0
   12.6315   -4.1850    5.9570 C   0  0  0  0  0  0  0  0  0  0  0  0
   13.3294   -3.4227    5.3343 O   0  0  0  0  0  0  0  0  0  0  0  0
   13.0888   -5.0015    6.9159 O   0  0  0  0  0  0  0  0  0  0  0  0
   14.4864   -4.9335    7.2118 C   0  0  0  0  0  0  0  0  0  0  0  0
   16.8237   -0.7416    5.7003 H   0  0  0  0  0  0  0  0  0  0  0  0
   16.7474   -1.1915    3.9811 H   0  0  0  0  0  0  0  0  0  0  0  0
   15.7196   -2.0372    5.1615 H   0  0  0  0  0  0  0  0  0  0  0  0
   15.4604    0.9535    4.4335 H   0  0  0  0  0  0  0  0  0  0  0  0
   14.4632    0.1021    5.6132 H   0  0  0  0  0  0  0  0  0  0  0  0
   13.6353   -1.4399    3.8031 H   0  0  0  0  0  0  0  0  0  0  0  0
   14.5989   -0.5667    2.6131 H   0  0  0  0  0  0  0  0  0  0  0  0
   13.3277    1.5468    3.1103 H   0  0  0  0  0  0  0  0  0  0  0  0
   12.3613    0.6909    4.3102 H   0  0  0  0  0  0  0  0  0  0  0  0
   12.4518   -0.0172    1.3087 H   0  0  0  0  0  0  0  0  0  0  0  0
   11.2127    1.0061    2.0720 H   0  0  0  0  0  0  0  0  0  0  0  0
    9.7028    0.0009    3.5566 H   0  0  0  0  0  0  0  0  0  0  0  0
    9.0443   -2.7011    2.6763 H   0  0  0  0  0  0  0  0  0  0  0  0
    8.0663   -1.6418    3.7383 H   0  0  0  0  0  0  0  0  0  0  0  0
   11.2214   -3.3478    3.8716 H   0  0  0  0  0  0  0  0  0  0  0  0
   10.6364   -4.0547    6.7015 H   0  0  0  0  0  0  0  0  0  0  0  0
   11.1210   -6.4423    6.3865 H   0  0  0  0  0  0  0  0  0  0  0  0
   11.2162   -6.2104    4.6020 H   0  0  0  0  0  0  0  0  0  0  0  0
    6.9720   -7.0939    5.7074 H   0  0  0  0  0  0  0  0  0  0  0  0
    6.9339   -5.3647    5.3807 H   0  0  0  0  0  0  0  0  0  0  0  0
    6.5474   -6.5770    8.1902 H   0  0  0  0  0  0  0  0  0  0  0  0
    5.2002   -6.2268    7.0999 H   0  0  0  0  0  0  0  0  0  0  0  0
    5.8416   -3.7936    7.0827 H   0  0  0  0  0  0  0  0  0  0  0  0
    7.1942   -4.1355    8.1518 H   0  0  0  0  0  0  0  0  0  0  0  0
    5.5998   -4.9530    9.9238 H   0  0  0  0  0  0  0  0  0  0  0  0
    4.2368   -4.6231    8.8566 H   0  0  0  0  0  0  0  0  0  0  0  0
    6.2058   -2.4903    9.9226 H   0  0  0  0  0  0  0  0  0  0  0  0
    4.5440   -2.7512   10.5039 H   0  0  0  0  0  0  0  0  0  0  0  0
    4.8293   -2.1565    8.8513 H   0  0  0  0  0  0  0  0  0  0  0  0
   14.6656   -5.6751    7.9993 H   0  0  0  0  0  0  0  0  0  0  0  0
   14.7596   -3.9282    7.5657 H   0  0  0  0  0  0  0  0  0  0  0  0
   15.0858   -5.1685    6.3197 H   0  0  0  0  0  0  0  0  0  0  0  0
  1  2  1  0
  1 27  1  0
  1 28  1  0
  1 29  1  0
  2  3  1  0
  2 30  1  0
  2 31  1  0
  3  4  1  0
  3 32  1  0
  3 33  1  0
  4  5  1  0
  4 34  1  0
  4 35  1  0
  5  6  1  0
  5 36  1  0
  5 37  1  0
  6  7  2  0
  6  8  1  0
  8  9  1  0
  8 38  1  0
  9 10  1  0
  9 39  1  0
  9 40  1  0
 10 11  2  0
 10 12  1  0
 12 13  1  0
 12 41  1  0
 13 14  1  0
 13 23  1  0
 13 42  1  1
 14 15  1  0
 14 43  1  0
 14 44  1  0
 15 16  1  0
 16 17  2  0
 16 18  1  0
 18 19  1  0
 18 45  1  0
 18 46  1  0
 19 20  1  0
 19 47  1  0
 19 48  1  0
 20 21  1  0
 20 49  1  0
 20 50  1  0
 21 22  1  0
 21 51  1  0
 21 52  1  0
 22 53  1  0
 22 54  1  0
 22 55  1  0
 23 24  2  0
 23 25  1  0
 25 26  1  0
 26 56  1  0
 26 57  1  0
 26 58  1  0
M  END

