
     RDKit          3D

 34 36  0  0  0  0  0  0  0  0999 V2000
    1.1443   -0.2253   -0.7252 N   0  0  0  0  0  0  0  0  0  0  0  0
    2.4942   -0.2605   -0.6739 C   0  0  0  0  0  0  0  0  0  0  0  0
    3.1965    0.8083   -1.0822 N   0  0  0  0  0  0  0  0  0  0  0  0
    4.5348    0.7681   -1.0286 C   0  0  0  0  0  0  0  0  0  0  0  0
    5.3153   -0.2279   -0.6057 N   0  0  0  0  0  0  0  0  0  0  0  0
    4.5993   -1.2830   -0.2030 C   0  0  0  0  0  0  0  0  0  0  0  0
    3.2008   -1.3938   -0.2009 C   0  0  0  0  0  0  0  0  0  0  0  0
    2.8010   -2.6244    0.2719 N   0  0  0  0  0  0  0  0  0  0  0  0
    3.9209   -3.2455    0.5497 C   0  0  0  0  0  0  0  0  0  0  0  0
    5.0522   -2.4881    0.2938 N   0  0  0  0  0  0  0  0  0  0  0  0
    6.4495   -2.8606    0.4503 C   0  0  1  0  0  0  0  0  0  0  0  0
    6.9229   -2.8168   -0.5502 H   0  0  0  0  0  0  0  0  0  0  0  0
    7.2381   -2.0168    1.4532 C   0  0  0  0  0  0  0  0  0  0  0  0
    8.3712   -2.9742    1.8436 C   0  0  0  0  0  0  0  0  0  0  0  0
    7.7630   -4.3874    1.6387 C   0  0  1  0  0  0  0  0  0  0  0  0
    8.5841   -5.3118    0.7693 C   0  0  0  0  0  0  0  0  0  0  0  0
    9.7868   -5.0413    0.4509 N   0  0  0  0  0  0  0  0  0  0  0  0
   10.3628   -6.0248   -0.3247 O   0  0  0  0  0  0  0  0  0  0  0  0
    7.4132   -5.0930    2.9628 C   0  0  0  0  0  0  0  0  0  0  0  0
    6.5689   -4.3137    3.7686 O   0  0  0  0  0  0  0  0  0  0  0  0
    6.4929   -4.1750    0.9648 O   0  0  0  0  0  0  0  0  0  0  0  0
    0.6862    0.6039   -1.0779 H   0  0  0  0  0  0  0  0  0  0  0  0
    0.6057   -1.0264   -0.4276 H   0  0  0  0  0  0  0  0  0  0  0  0
    5.0501    1.6711   -1.3779 H   0  0  0  0  0  0  0  0  0  0  0  0
    4.0094   -4.2612    0.9302 H   0  0  0  0  0  0  0  0  0  0  0  0
    6.5913   -1.8052    2.3177 H   0  0  0  0  0  0  0  0  0  0  0  0
    7.5717   -1.0649    1.0199 H   0  0  0  0  0  0  0  0  0  0  0  0
    8.6906   -2.8274    2.8838 H   0  0  0  0  0  0  0  0  0  0  0  0
    9.2495   -2.8523    1.1966 H   0  0  0  0  0  0  0  0  0  0  0  0
    8.1057   -6.2437    0.4294 H   0  0  0  0  0  0  0  0  0  0  0  0
   11.2524   -5.6859   -0.4933 H   0  0  0  0  0  0  0  0  0  0  0  0
    6.9685   -6.0818    2.7310 H   0  0  0  0  0  0  0  0  0  0  0  0
    8.3425   -5.2708    3.5265 H   0  0  0  0  0  0  0  0  0  0  0  0
    5.7566   -4.1659    3.2636 H   0  0  0  0  0  0  0  0  0  0  0  0
  1  2  1  0
  1 22  1  0
  1 23  1  0
  2  3  2  0
  2  7  1  0
  3  4  1  0
  4  5  2  0
  4 24  1  0
  5  6  1  0
  6  7  2  0
  6 10  1  0
  7  8  1  0
  8  9  2  0
  9 10  1  0
  9 25  1  0
 10 11  1  0
 11 12  1  6
 11 13  1  0
 11 21  1  0
 13 14  1  0
 13 26  1  0
 13 27  1  0
 14 15  1  0
 14 28  1  0
 14 29  1  0
 15 16  1  6
 15 19  1  0
 15 21  1  0
 16 17  2  0
 16 30  1  0
 17 18  1  0
 18 31  1  0
 19 20  1  0
 19 32  1  0
 19 33  1  0
 20 34  1  0
M  END

