
     RDKit          3D

 67 71  0  0  0  0  0  0  0  0999 V2000
    1.7700   -0.4710   -0.4403 C   0  0  0  0  0  0  0  0  0  0  0  0
    3.0359   -0.5462    0.4272 C   0  0  1  0  0  0  0  0  0  0  0  0
    2.6374   -1.0485    1.8281 C   0  0  0  0  0  0  0  0  0  0  0  0
    4.1307   -1.4379   -0.2244 C   0  0  2  0  0  0  0  0  0  0  0  0
    3.9884   -2.9611   -0.2568 C   0  0  0  0  0  0  0  0  0  0  0  0
    5.2111   -3.5813   -0.9583 C   0  0  0  0  0  0  0  0  0  0  0  0
    6.5409   -3.1270   -0.3334 C   0  0  0  0  0  0  0  0  0  0  0  0
    6.6584   -1.5951   -0.2514 C   0  0  0  0  0  0  0  0  0  0  0  0
    5.4376   -1.0094    0.4623 C   0  0  1  0  0  0  0  0  0  0  0  0
    5.3226    0.5243    0.5793 C   0  0  2  0  0  0  0  0  0  0  0  0
    5.9250    1.1127    1.8593 C   0  0  0  0  0  0  0  0  0  0  0  0
    5.6879    2.6306    1.9991 C   0  0  0  0  0  0  0  0  0  0  0  0
    4.2955    3.0835    1.4738 C   0  0  2  0  0  0  0  0  0  0  0  0
    3.6722    4.3656    2.0962 C   0  0  2  0  0  0  0  0  0  0  0  0
    4.5007    5.6522    1.8657 C   0  0  0  0  0  0  0  0  0  0  0  0
    5.5664    5.9413    2.9316 C   0  0  0  0  0  0  0  0  0  0  0  0
    4.9668    5.9443    4.3440 C   0  0  2  0  0  0  0  0  0  0  0  0
    6.0114    6.2722    5.4198 C   0  0  0  0  0  0  0  0  0  0  0  0
    5.4598    6.2307    6.8430 C   0  0  1  0  0  0  0  0  0  0  0  0
    4.2839    7.8240    7.1834 Br  0  0  0  0  0  0  0  0  0  0  0  0
    4.6965    4.9392    7.1297 C   0  0  0  0  0  0  0  0  0  0  0  0
    3.6550    4.6082    6.0556 C   0  0  0  0  0  0  0  0  0  0  0  0
    4.2625    4.6041    4.6434 C   0  0  1  0  0  0  0  0  0  0  0  0
    3.2064    4.2819    3.5716 C   0  0  0  0  0  0  0  0  0  0  0  0
    3.3212    1.8867    1.4752 C   0  0  0  0  0  0  0  0  0  0  0  0
    3.7849    0.8341    0.4579 C   0  0  2  0  0  0  0  0  0  0  0  0
    1.2644   -1.4491   -0.5005 H   0  0  0  0  0  0  0  0  0  0  0  0
    2.0076   -0.1525   -1.4687 H   0  0  0  0  0  0  0  0  0  0  0  0
    1.0424    0.2469   -0.0265 H   0  0  0  0  0  0  0  0  0  0  0  0
    2.1946   -2.0554    1.7698 H   0  0  0  0  0  0  0  0  0  0  0  0
    1.8797   -0.3911    2.2822 H   0  0  0  0  0  0  0  0  0  0  0  0
    3.4884   -1.1002    2.5245 H   0  0  0  0  0  0  0  0  0  0  0  0
    4.2026   -1.1012   -1.2787 H   0  0  0  0  0  0  0  0  0  0  0  0
    3.0622   -3.2661   -0.7737 H   0  0  0  0  0  0  0  0  0  0  0  0
    3.9206   -3.3566    0.7723 H   0  0  0  0  0  0  0  0  0  0  0  0
    5.1964   -3.2898   -2.0247 H   0  0  0  0  0  0  0  0  0  0  0  0
    5.1440   -4.6822   -0.9394 H   0  0  0  0  0  0  0  0  0  0  0  0
    7.3872   -3.5462   -0.9035 H   0  0  0  0  0  0  0  0  0  0  0  0
    6.6199   -3.5456    0.6870 H   0  0  0  0  0  0  0  0  0  0  0  0
    6.7223   -1.1716   -1.2714 H   0  0  0  0  0  0  0  0  0  0  0  0
    7.5928   -1.3127    0.2640 H   0  0  0  0  0  0  0  0  0  0  0  0
    5.4292   -1.4317    1.4855 H   0  0  0  0  0  0  0  0  0  0  0  0
    5.8402    0.9828   -0.2826 H   0  0  0  0  0  0  0  0  0  0  0  0
    7.0058    0.8968    1.9084 H   0  0  0  0  0  0  0  0  0  0  0  0
    5.4790    0.5939    2.7253 H   0  0  0  0  0  0  0  0  0  0  0  0
    5.8092    2.8954    3.0590 H   0  0  0  0  0  0  0  0  0  0  0  0
    6.4754    3.1818    1.4584 H   0  0  0  0  0  0  0  0  0  0  0  0
    4.4353    3.3456    0.4080 H   0  0  0  0  0  0  0  0  0  0  0  0
    2.7475    4.5002    1.5073 H   0  0  0  0  0  0  0  0  0  0  0  0
    3.8017    6.5079    1.8541 H   0  0  0  0  0  0  0  0  0  0  0  0
    4.9600    5.6249    0.8625 H   0  0  0  0  0  0  0  0  0  0  0  0
    6.0336    6.9202    2.7255 H   0  0  0  0  0  0  0  0  0  0  0  0
    6.3809    5.1987    2.8819 H   0  0  0  0  0  0  0  0  0  0  0  0
    4.1947    6.7364    4.3790 H   0  0  0  0  0  0  0  0  0  0  0  0
    6.4820    7.2482    5.2216 H   0  0  0  0  0  0  0  0  0  0  0  0
    6.8224    5.5190    5.3745 H   0  0  0  0  0  0  0  0  0  0  0  0
    6.2616    6.3812    7.5767 H   0  0  0  0  0  0  0  0  0  0  0  0
    4.2387    4.9804    8.1299 H   0  0  0  0  0  0  0  0  0  0  0  0
    5.4537    4.1323    7.1636 H   0  0  0  0  0  0  0  0  0  0  0  0
    2.8376    5.3489    6.0997 H   0  0  0  0  0  0  0  0  0  0  0  0
    3.1996    3.6270    6.2734 H   0  0  0  0  0  0  0  0  0  0  0  0
    5.0408    3.8178    4.6273 H   0  0  0  0  0  0  0  0  0  0  0  0
    2.3832    5.0087    3.7007 H   0  0  0  0  0  0  0  0  0  0  0  0
    2.7604    3.2945    3.7774 H   0  0  0  0  0  0  0  0  0  0  0  0
    2.3019    2.2282    1.2262 H   0  0  0  0  0  0  0  0  0  0  0  0
    3.2619    1.4560    2.4876 H   0  0  0  0  0  0  0  0  0  0  0  0
    3.6267    1.2799   -0.5394 H   0  0  0  0  0  0  0  0  0  0  0  0
  2  1  1  6
  1 27  1  0
  1 28  1  0
  1 29  1  0
  2  3  1  0
  2  4  1  0
  2 26  1  0
  3 30  1  0
  3 31  1  0
  3 32  1  0
  4  5  1  0
  4  9  1  0
  4 33  1  6
  5  6  1  0
  5 34  1  0
  5 35  1  0
  6  7  1  0
  6 36  1  0
  6 37  1  0
  7  8  1  0
  7 38  1  0
  7 39  1  0
  8  9  1  0
  8 40  1  0
  8 41  1  0
  9 10  1  0
  9 42  1  1
 10 11  1  0
 10 26  1  0
 10 43  1  6
 11 12  1  0
 11 44  1  0
 11 45  1  0
 12 13  1  0
 12 46  1  0
 12 47  1  0
 13 14  1  0
 13 25  1  0
 13 48  1  6
 14 15  1  0
 14 24  1  0
 14 49  1  6
 15 16  1  0
 15 50  1  0
 15 51  1  0
 16 17  1  0
 16 52  1  0
 16 53  1  0
 17 18  1  0
 17 23  1  0
 17 54  1  6
 18 19  1  0
 18 55  1  0
 18 56  1  0
 19 20  1  0
 19 21  1  0
 19 57  1  1
 21 22  1  0
 21 58  1  0
 21 59  1  0
 22 23  1  0
 22 60  1  0
 22 61  1  0
 23 24  1  0
 23 62  1  1
 24 63  1  0
 24 64  1  0
 25 26  1  0
 25 65  1  0
 25 66  1  0
 26 67  1  6
M  END

