
     RDKit          3D

 39 41  0  0  0  0  0  0  0  0999 V2000
    4.8211   -3.6853   -1.1595 C   0  0  0  0  0  0  0  0  0  0  0  0
    4.4754   -3.4462    0.2907 C   0  0  0  0  0  0  0  0  0  0  0  0
    5.4547   -3.5871    1.2839 C   0  0  0  0  0  0  0  0  0  0  0  0
    5.1657   -3.3611    2.6325 C   0  0  0  0  0  0  0  0  0  0  0  0
    3.8750   -2.9857    3.0049 C   0  0  0  0  0  0  0  0  0  0  0  0
    2.8868   -2.8418    2.0267 C   0  0  0  0  0  0  0  0  0  0  0  0
    3.1665   -3.0685    0.6742 C   0  0  0  0  0  0  0  0  0  0  0  0
    2.1065   -2.8976   -0.4037 C   0  0  0  0  0  0  0  0  0  0  0  0
    0.7618   -2.5576    0.0622 N   0  0  0  0  0  0  0  0  0  0  0  0
    0.4526   -1.2071    0.1113 C   0  0  0  0  0  0  0  0  0  0  0  0
    1.2523   -0.3505   -0.2232 O   0  0  0  0  0  0  0  0  0  0  0  0
   -0.9403   -0.8444    0.6242 C   0  0  1  0  0  0  0  0  0  0  0  0
   -1.2296    0.6445    0.4924 C   0  0  0  0  0  0  0  0  0  0  0  0
   -2.1830   -1.8228   -0.3180 S   0  0  0  0  0  0  0  0  0  0  0  0
   -1.5591   -3.4150    0.1479 C   0  0  0  0  0  0  0  0  0  0  0  0
   -2.4516   -4.4776    0.3203 C   0  0  0  0  0  0  0  0  0  0  0  0
   -2.0014   -5.7649    0.6629 C   0  0  0  0  0  0  0  0  0  0  0  0
   -2.8980   -6.8048    0.8668 N   0  0  0  0  0  0  0  0  0  0  0  0
   -0.6192   -5.9414    0.8648 C   0  0  0  0  0  0  0  0  0  0  0  0
    0.2686   -4.8797    0.7103 C   0  0  0  0  0  0  0  0  0  0  0  0
   -0.1696   -3.6006    0.3270 C   0  0  0  0  0  0  0  0  0  0  0  0
    5.8825   -3.9471   -1.2771 H   0  0  0  0  0  0  0  0  0  0  0  0
    4.6253   -2.7934   -1.7787 H   0  0  0  0  0  0  0  0  0  0  0  0
    4.2254   -4.5059   -1.5956 H   0  0  0  0  0  0  0  0  0  0  0  0
    6.4676   -3.8776    0.9899 H   0  0  0  0  0  0  0  0  0  0  0  0
    5.9487   -3.4768    3.3863 H   0  0  0  0  0  0  0  0  0  0  0  0
    3.6327   -2.8025    4.0548 H   0  0  0  0  0  0  0  0  0  0  0  0
    1.8766   -2.5487    2.3195 H   0  0  0  0  0  0  0  0  0  0  0  0
    2.0318   -3.8124   -1.0122 H   0  0  0  0  0  0  0  0  0  0  0  0
    2.4190   -2.0841   -1.0756 H   0  0  0  0  0  0  0  0  0  0  0  0
   -1.0228   -1.1622    1.6783 H   0  0  0  0  0  0  0  0  0  0  0  0
   -1.1832    0.9628   -0.5595 H   0  0  0  0  0  0  0  0  0  0  0  0
   -0.4733    1.2209    1.0432 H   0  0  0  0  0  0  0  0  0  0  0  0
   -2.2254    0.8815    0.8954 H   0  0  0  0  0  0  0  0  0  0  0  0
   -3.5218   -4.2911    0.1981 H   0  0  0  0  0  0  0  0  0  0  0  0
   -3.8007   -6.7191    0.4143 H   0  0  0  0  0  0  0  0  0  0  0  0
   -2.5182   -7.7428    0.8162 H   0  0  0  0  0  0  0  0  0  0  0  0
   -0.2351   -6.9215    1.1600 H   0  0  0  0  0  0  0  0  0  0  0  0
    1.3295   -5.0543    0.8922 H   0  0  0  0  0  0  0  0  0  0  0  0
  1  2  1  0
  1 22  1  0
  1 23  1  0
  1 24  1  0
  2  3  2  0
  2  7  1  0
  3  4  1  0
  3 25  1  0
  4  5  2  0
  4 26  1  0
  5  6  1  0
  5 27  1  0
  6  7  2  0
  6 28  1  0
  7  8  1  0
  8  9  1  0
  8 29  1  0
  8 30  1  0
  9 10  1  0
  9 21  1  0
 10 11  2  0
 10 12  1  0
 12 13  1  0
 12 14  1  0
 12 31  1  1
 13 32  1  0
 13 33  1  0
 13 34  1  0
 14 15  1  0
 15 16  2  0
 15 21  1  0
 16 17  1  0
 16 35  1  0
 17 18  1  0
 17 19  2  0
 18 36  1  0
 18 37  1  0
 19 20  1  0
 19 38  1  0
 20 21  2  0
 20 39  1  0
M  END

