
     RDKit          3D

 46 47  0  0  0  0  0  0  0  0999 V2000
    1.5063    4.5038   -0.6600 C   0  0  0  0  0  0  0  0  0  0  0  0
    2.9339    4.0180   -0.7317 C   0  0  0  0  0  0  0  0  0  0  0  0
    3.3019    2.7395   -0.2973 C   0  0  0  0  0  0  0  0  0  0  0  0
    4.6217    2.2907   -0.3775 C   0  0  0  0  0  0  0  0  0  0  0  0
    5.6201    3.1264   -0.9024 C   0  0  0  0  0  0  0  0  0  0  0  0
    6.9632    2.7191   -1.0058 N   0  0  0  0  0  0  0  0  0  0  0  0
    7.5489    1.5389   -0.6432 C   0  0  0  0  0  0  0  0  0  0  0  0
    6.9883    0.5795   -0.1406 O   0  0  0  0  0  0  0  0  0  0  0  0
    9.0553    1.4658   -1.0077 C   0  0  1  0  0  0  0  0  0  0  0  0
    9.1638    0.6481   -2.3012 C   0  0  0  0  0  0  0  0  0  0  0  0
    9.6474    2.8088   -1.0814 N   0  0  0  0  0  0  0  0  0  0  0  0
    9.8880    3.4023    0.2427 C   0  0  0  0  0  0  0  0  0  0  0  0
   11.1839    2.9131    0.9069 C   0  0  0  0  0  0  0  0  0  0  0  0
   12.3866    3.1343   -0.0176 C   0  0  0  0  0  0  0  0  0  0  0  0
   12.1460    2.5288   -1.4107 C   0  0  2  0  0  0  0  0  0  0  0  0
   13.2894    2.8297   -2.3812 C   0  0  0  0  0  0  0  0  0  0  0  0
   10.7960    3.0340   -1.9620 C   0  0  0  0  0  0  0  0  0  0  0  0
    5.2795    4.4282   -1.3497 C   0  0  0  0  0  0  0  0  0  0  0  0
    6.3281    5.3544   -1.9175 C   0  0  0  0  0  0  0  0  0  0  0  0
    3.9468    4.8391   -1.2522 C   0  0  0  0  0  0  0  0  0  0  0  0
    0.8671    3.7954   -0.1121 H   0  0  0  0  0  0  0  0  0  0  0  0
    1.0720    4.6319   -1.6668 H   0  0  0  0  0  0  0  0  0  0  0  0
    1.4353    5.4814   -0.1545 H   0  0  0  0  0  0  0  0  0  0  0  0
    2.5422    2.0702    0.1170 H   0  0  0  0  0  0  0  0  0  0  0  0
    4.8975    1.2955   -0.0355 H   0  0  0  0  0  0  0  0  0  0  0  0
    7.6474    3.3773   -1.3786 H   0  0  0  0  0  0  0  0  0  0  0  0
    9.4977    0.8562   -0.1960 H   0  0  0  0  0  0  0  0  0  0  0  0
    8.7332    1.1911   -3.1575 H   0  0  0  0  0  0  0  0  0  0  0  0
    8.5992   -0.2854   -2.1686 H   0  0  0  0  0  0  0  0  0  0  0  0
   10.2044    0.3830   -2.5390 H   0  0  0  0  0  0  0  0  0  0  0  0
    9.0191    3.2025    0.8887 H   0  0  0  0  0  0  0  0  0  0  0  0
    9.9411    4.4999    0.1179 H   0  0  0  0  0  0  0  0  0  0  0  0
   11.0944    1.8399    1.1511 H   0  0  0  0  0  0  0  0  0  0  0  0
   11.3264    3.4376    1.8668 H   0  0  0  0  0  0  0  0  0  0  0  0
   13.3045    2.7154    0.4292 H   0  0  0  0  0  0  0  0  0  0  0  0
   12.5655    4.2210   -0.1313 H   0  0  0  0  0  0  0  0  0  0  0  0
   12.0728    1.4306   -1.2939 H   0  0  0  0  0  0  0  0  0  0  0  0
   13.3923    3.9159   -2.5484 H   0  0  0  0  0  0  0  0  0  0  0  0
   13.1236    2.3564   -3.3630 H   0  0  0  0  0  0  0  0  0  0  0  0
   14.2525    2.4626   -1.9914 H   0  0  0  0  0  0  0  0  0  0  0  0
   10.5974    2.6003   -2.9518 H   0  0  0  0  0  0  0  0  0  0  0  0
   10.8770    4.1267   -2.1195 H   0  0  0  0  0  0  0  0  0  0  0  0
    7.1286    5.5721   -1.1882 H   0  0  0  0  0  0  0  0  0  0  0  0
    5.8852    6.3161   -2.2125 H   0  0  0  0  0  0  0  0  0  0  0  0
    6.8158    4.9291   -2.8127 H   0  0  0  0  0  0  0  0  0  0  0  0
    3.6893    5.8458   -1.5977 H   0  0  0  0  0  0  0  0  0  0  0  0
  1  2  1  0
  1 21  1  0
  1 22  1  0
  1 23  1  0
  2  3  2  0
  2 20  1  0
  3  4  1  0
  3 24  1  0
  4  5  2  0
  4 25  1  0
  5  6  1  0
  5 18  1  0
  6  7  1  0
  6 26  1  0
  7  8  2  0
  7  9  1  0
  9 10  1  0
  9 11  1  0
  9 27  1  1
 10 28  1  0
 10 29  1  0
 10 30  1  0
 11 12  1  0
 11 17  1  0
 12 13  1  0
 12 31  1  0
 12 32  1  0
 13 14  1  0
 13 33  1  0
 13 34  1  0
 14 15  1  0
 14 35  1  0
 14 36  1  0
 15 16  1  0
 15 17  1  0
 15 37  1  1
 16 38  1  0
 16 39  1  0
 16 40  1  0
 17 41  1  0
 17 42  1  0
 18 19  1  0
 18 20  2  0
 19 43  1  0
 19 44  1  0
 19 45  1  0
 20 46  1  0
M  END

