
     RDKit          3D

102103  0  0  0  0  0  0  0  0999 V2000
    4.9851    2.1020    0.5122 C   0  0  0  0  0  0  0  0  0  0  0  0
    6.1754    1.7550    1.3996 C   0  0  0  0  0  0  0  0  0  0  0  0
    7.4144    2.2941    0.8609 N   0  0  0  0  0  0  0  0  0  0  0  0
    8.5978    2.0168    1.6552 C   0  0  0  0  0  0  0  0  0  0  0  0
    9.8479    2.5348    0.9339 C   0  0  0  0  0  0  0  0  0  0  0  0
   11.0930    2.3336    1.6679 N   0  0  0  0  0  0  0  0  0  0  0  0
   11.9232    1.1511    1.4063 C   0  0  0  0  0  0  0  0  0  0  0  0
   11.6941   -0.0186    2.3649 C   0  0  0  0  0  0  0  0  0  0  0  0
   11.4326    3.2945    2.5737 C   0  0  0  0  0  0  0  0  0  0  0  0
   10.8245    4.3200    2.7773 O   0  0  0  0  0  0  0  0  0  0  0  0
   12.5664    2.9277    3.2614 O   0  0  0  0  0  0  0  0  0  0  0  0
   13.3322    3.8476    3.9483 C   0  0  0  0  0  0  0  0  0  0  0  0
   13.9095    3.3978    5.1391 C   0  0  0  0  0  0  0  0  0  0  0  0
   14.8177    4.2152    5.8245 C   0  0  0  0  0  0  0  0  0  0  0  0
   15.1164    5.4757    5.2931 C   0  0  0  0  0  0  0  0  0  0  0  0
   14.5436    5.9187    4.0875 C   0  0  0  0  0  0  0  0  0  0  0  0
   13.6095    5.1106    3.4212 C   0  0  0  0  0  0  0  0  0  0  0  0
   15.0389    7.1224    3.5321 N   0  0  0  0  0  0  0  0  0  0  0  0
   15.0890    7.3328    2.1391 C   0  0  0  0  0  0  0  0  0  0  0  0
   14.1036    7.2446    1.4384 O   0  0  0  0  0  0  0  0  0  0  0  0
   16.5030    7.3945    1.6190 C   0  0  0  0  0  0  0  0  0  0  0  0
   17.6350    7.8571    2.5082 C   0  0  0  0  0  0  0  0  0  0  0  0
   16.6748    6.6993    0.4745 C   0  0  0  0  0  0  0  0  0  0  0  0
   17.9022    5.9387    0.0631 C   0  0  0  0  0  0  0  0  0  0  0  0
   17.5543    4.4590    0.3775 C   0  0  0  0  0  0  0  0  0  0  0  0
   18.6909    3.4266    0.4875 C   0  0  2  0  0  0  0  0  0  0  0  0
   19.3123    3.7057    1.3580 H   0  0  0  0  0  0  0  0  0  0  0  0
   19.5826    3.3971   -0.7599 C   0  0  0  0  0  0  0  0  0  0  0  0
   18.0307    2.0691    0.8525 C   0  0  1  0  0  0  0  0  0  0  0  0
   17.1053    2.2813    1.4036 H   0  0  0  0  0  0  0  0  0  0  0  0
   17.6346    1.4224   -0.3830 O   0  0  0  0  0  0  0  0  0  0  0  0
   16.4253    0.8020   -0.4045 C   0  0  0  0  0  0  0  0  0  0  0  0
   16.2789    0.1105   -1.5666 N   0  0  0  0  0  0  0  0  0  0  0  0
   15.5994    0.8547    0.4815 O   0  0  0  0  0  0  0  0  0  0  0  0
   18.8300    1.1038    1.7170 C   0  0  0  0  0  0  0  0  0  0  0  0
   20.1948    0.6730    1.2460 C   0  0  0  0  0  0  0  0  0  0  0  0
   18.2327    0.6518    2.8369 C   0  0  0  0  0  0  0  0  0  0  0  0
   18.7334   -0.3888    3.8126 C   0  0  2  0  0  0  0  0  0  0  0  0
   19.8236   -0.2818    3.9464 H   0  0  0  0  0  0  0  0  0  0  0  0
   18.4540   -1.8079    3.2797 C   0  0  0  0  0  0  0  0  0  0  0  0
   18.0798   -0.1962    5.1990 C   0  0  1  0  0  0  0  0  0  0  0  0
   16.9872   -0.3108    5.0523 H   0  0  0  0  0  0  0  0  0  0  0  0
   18.5584   -1.2302    6.0384 O   0  0  0  0  0  0  0  0  0  0  0  0
   18.3202    1.2248    5.8547 C   0  0  2  0  0  0  0  0  0  0  0  0
   18.7216    1.9098    5.0784 H   0  0  0  0  0  0  0  0  0  0  0  0
   19.2366    1.1568    6.9262 O   0  0  0  0  0  0  0  0  0  0  0  0
   20.5837    0.9341    6.5891 C   0  0  0  0  0  0  0  0  0  0  0  0
   16.9980    1.8074    6.3822 C   0  0  0  0  0  0  0  0  0  0  0  0
   16.9844    3.2610    6.8926 C   0  0  2  0  0  0  0  0  0  0  0  0
   17.4383    3.8848    6.0992 H   0  0  0  0  0  0  0  0  0  0  0  0
   17.7742    3.4736    8.1917 C   0  0  0  0  0  0  0  0  0  0  0  0
   15.5180    3.7566    7.0868 C   0  0  0  0  0  0  0  0  0  0  0  0
    4.0568    1.6549    0.9011 H   0  0  0  0  0  0  0  0  0  0  0  0
    5.1480    1.7385   -0.5145 H   0  0  0  0  0  0  0  0  0  0  0  0
    4.8304    3.1936    0.4622 H   0  0  0  0  0  0  0  0  0  0  0  0
    6.2806    0.6564    1.4615 H   0  0  0  0  0  0  0  0  0  0  0  0
    5.9739    2.0966    2.4416 H   0  0  0  0  0  0  0  0  0  0  0  0
    7.3185    3.3030    0.7355 H   0  0  0  0  0  0  0  0  0  0  0  0
    8.6747    0.9237    1.7909 H   0  0  0  0  0  0  0  0  0  0  0  0
    8.5645    2.4599    2.6749 H   0  0  0  0  0  0  0  0  0  0  0  0
    9.7318    3.6150    0.7549 H   0  0  0  0  0  0  0  0  0  0  0  0
    9.9316    2.0405   -0.0455 H   0  0  0  0  0  0  0  0  0  0  0  0
   12.9825    1.4417    1.4272 H   0  0  0  0  0  0  0  0  0  0  0  0
   11.7053    0.8365    0.3733 H   0  0  0  0  0  0  0  0  0  0  0  0
   11.9123    0.2813    3.4008 H   0  0  0  0  0  0  0  0  0  0  0  0
   12.3660   -0.8523    2.1043 H   0  0  0  0  0  0  0  0  0  0  0  0
   10.6576   -0.3893    2.3229 H   0  0  0  0  0  0  0  0  0  0  0  0
   13.6548    2.4017    5.5053 H   0  0  0  0  0  0  0  0  0  0  0  0
   15.8399    6.1165    5.8077 H   0  0  0  0  0  0  0  0  0  0  0  0
   13.1361    5.4593    2.5073 H   0  0  0  0  0  0  0  0  0  0  0  0
   15.8655    7.4402    4.0241 H   0  0  0  0  0  0  0  0  0  0  0  0
   17.3635    8.7704    3.0634 H   0  0  0  0  0  0  0  0  0  0  0  0
   18.5247    8.1031    1.9117 H   0  0  0  0  0  0  0  0  0  0  0  0
   17.9416    7.0962    3.2489 H   0  0  0  0  0  0  0  0  0  0  0  0
   15.7583    6.4342   -0.0638 H   0  0  0  0  0  0  0  0  0  0  0  0
   18.7916    6.2548    0.6318 H   0  0  0  0  0  0  0  0  0  0  0  0
   18.1317    6.0661   -1.0083 H   0  0  0  0  0  0  0  0  0  0  0  0
   16.8214    4.1048   -0.3688 H   0  0  0  0  0  0  0  0  0  0  0  0
   17.0176    4.4549    1.3394 H   0  0  0  0  0  0  0  0  0  0  0  0
   18.9893    3.1757   -1.6600 H   0  0  0  0  0  0  0  0  0  0  0  0
   20.3746    2.6381   -0.6897 H   0  0  0  0  0  0  0  0  0  0  0  0
   20.0741    4.3715   -0.9072 H   0  0  0  0  0  0  0  0  0  0  0  0
   17.0077    0.1056   -2.2664 H   0  0  0  0  0  0  0  0  0  0  0  0
   15.4080   -0.3733   -1.7323 H   0  0  0  0  0  0  0  0  0  0  0  0
   20.1398    0.2611    0.2245 H   0  0  0  0  0  0  0  0  0  0  0  0
   20.6387   -0.0929    1.8954 H   0  0  0  0  0  0  0  0  0  0  0  0
   20.8973    1.5229    1.2065 H   0  0  0  0  0  0  0  0  0  0  0  0
   17.2147    1.0142    3.0271 H   0  0  0  0  0  0  0  0  0  0  0  0
   17.3749   -1.9494    3.1008 H   0  0  0  0  0  0  0  0  0  0  0  0
   18.7848   -2.5617    4.0071 H   0  0  0  0  0  0  0  0  0  0  0  0
   18.9721   -1.9791    2.3242 H   0  0  0  0  0  0  0  0  0  0  0  0
   17.9862   -1.2991    6.8111 H   0  0  0  0  0  0  0  0  0  0  0  0
   20.9402    1.6556    5.8256 H   0  0  0  0  0  0  0  0  0  0  0  0
   20.7560   -0.0914    6.2206 H   0  0  0  0  0  0  0  0  0  0  0  0
   21.1778    1.0801    7.5043 H   0  0  0  0  0  0  0  0  0  0  0  0
   16.2753    1.7294    5.5523 H   0  0  0  0  0  0  0  0  0  0  0  0
   16.6253    1.1399    7.1829 H   0  0  0  0  0  0  0  0  0  0  0  0
   17.3464    2.8711    9.0116 H   0  0  0  0  0  0  0  0  0  0  0  0
   18.8234    3.1783    8.0812 H   0  0  0  0  0  0  0  0  0  0  0  0
   17.7308    4.5311    8.5014 H   0  0  0  0  0  0  0  0  0  0  0  0
   15.5348    4.6031    7.7943 H   0  0  0  0  0  0  0  0  0  0  0  0
   14.9315    2.9602    7.5755 H   0  0  0  0  0  0  0  0  0  0  0  0
  1  2  1  0
  1 53  1  0
  1 54  1  0
  1 55  1  0
  2  3  1  0
  2 56  1  0
  2 57  1  0
  3  4  1  0
  3 58  1  0
  4  5  1  0
  4 59  1  0
  4 60  1  0
  5  6  1  0
  5 61  1  0
  5 62  1  0
  6  7  1  0
  6  9  1  0
  7  8  1  0
  7 63  1  0
  7 64  1  0
  8 65  1  0
  8 66  1  0
  8 67  1  0
  9 10  2  0
  9 11  1  0
 11 12  1  0
 12 13  2  0
 12 17  1  0
 13 14  1  0
 13 68  1  0
 14 15  2  0
 14 52  1  0
 15 16  1  0
 15 69  1  0
 16 17  2  0
 16 18  1  0
 17 70  1  0
 18 19  1  0
 18 71  1  0
 19 20  2  0
 19 21  1  0
 21 22  1  0
 21 23  2  0
 22 72  1  0
 22 73  1  0
 22 74  1  0
 23 24  1  0
 23 75  1  0
 24 25  1  0
 24 76  1  0
 24 77  1  0
 25 26  1  0
 25 78  1  0
 25 79  1  0
 26 27  1  1
 26 28  1  0
 26 29  1  0
 28 80  1  0
 28 81  1  0
 28 82  1  0
 29 30  1  1
 29 31  1  0
 29 35  1  0
 31 32  1  0
 32 33  1  0
 32 34  2  0
 33 83  1  0
 33 84  1  0
 35 36  1  0
 35 37  2  0
 36 85  1  0
 36 86  1  0
 36 87  1  0
 37 38  1  0
 37 88  1  0
 38 39  1  1
 38 40  1  0
 38 41  1  0
 40 89  1  0
 40 90  1  0
 40 91  1  0
 41 42  1  6
 41 43  1  0
 41 44  1  0
 43 92  1  0
 44 45  1  6
 44 46  1  0
 44 48  1  0
 46 47  1  0
 47 93  1  0
 47 94  1  0
 47 95  1  0
 48 49  1  0
 48 96  1  0
 48 97  1  0
 49 50  1  6
 49 51  1  0
 49 52  1  0
 51 98  1  0
 51 99  1  0
 51100  1  0
 52101  1  0
 52102  1  0
M  END

