
     RDKit          3D

 51 51  0  0  0  0  0  0  0  0999 V2000
    2.0734    1.0339    1.1501 C   0  0  0  0  0  0  0  0  0  0  0  0
    2.5363   -0.0183    0.1336 C   0  0  1  0  0  0  0  0  0  0  0  0
    1.4112   -0.9808   -0.2600 C   0  0  0  0  0  0  0  0  0  0  0  0
    3.1777    0.6027   -1.0411 N   0  0  0  0  0  0  0  0  0  0  0  0
    2.3804    1.3713   -1.9947 C   0  0  0  0  0  0  0  0  0  0  0  0
    2.1130    0.6370   -3.3262 C   0  0  0  0  0  0  0  0  0  0  0  0
    1.3050    1.3601   -4.2947 N   0  0  0  0  0  0  0  0  0  0  0  0
    1.9054    2.5451   -4.8921 C   0  0  0  0  0  0  0  0  0  0  0  0
    1.0716    3.0763   -6.0114 C   0  0  0  0  0  0  0  0  0  0  0  0
    1.3043    3.3185   -7.3399 C   0  0  0  0  0  0  0  0  0  0  0  0
    0.0938    3.8608   -7.8794 C   0  0  0  0  0  0  0  0  0  0  0  0
   -0.7844    3.9025   -6.8330 C   0  0  0  0  0  0  0  0  0  0  0  0
   -2.4651    4.4626   -6.7555 S   0  0  1  0  0  0  0  0  0  0  0  0
   -3.4110    3.1085   -6.5074 N   0  0  0  0  0  0  0  0  0  0  0  0
   -2.6137    5.2701   -5.5521 O   0  0  0  0  0  0  0  0  0  0  0  0
   -2.7666    4.9389   -8.0998 O   0  0  0  0  0  0  0  0  0  0  0  0
   -0.2058    3.4334   -5.6963 O   0  0  0  0  0  0  0  0  0  0  0  0
    4.5486    0.5446   -1.1244 C   0  0  0  0  0  0  0  0  0  0  0  0
    5.2631   -0.0318   -0.3247 O   0  0  0  0  0  0  0  0  0  0  0  0
    4.9968    1.2125   -2.2144 O   0  0  0  0  0  0  0  0  0  0  0  0
    6.4275    1.3271   -2.5134 C   0  0  1  0  0  0  0  0  0  0  0  0
    7.0276   -0.0606   -2.7633 C   0  0  0  0  0  0  0  0  0  0  0  0
    6.4429    2.1600   -3.7973 C   0  0  0  0  0  0  0  0  0  0  0  0
    7.1451    2.0705   -1.3816 C   0  0  0  0  0  0  0  0  0  0  0  0
    1.6764    0.5447    2.0538 H   0  0  0  0  0  0  0  0  0  0  0  0
    1.2739    1.6777    0.7466 H   0  0  0  0  0  0  0  0  0  0  0  0
    2.9133    1.6771    1.4537 H   0  0  0  0  0  0  0  0  0  0  0  0
    3.3386   -0.6046    0.6004 H   0  0  0  0  0  0  0  0  0  0  0  0
    0.5603   -0.4608   -0.7310 H   0  0  0  0  0  0  0  0  0  0  0  0
    1.0235   -1.4896    0.6365 H   0  0  0  0  0  0  0  0  0  0  0  0
    1.7740   -1.7518   -0.9569 H   0  0  0  0  0  0  0  0  0  0  0  0
    2.8791    2.3311   -2.1927 H   0  0  0  0  0  0  0  0  0  0  0  0
    1.4162    1.6076   -1.5167 H   0  0  0  0  0  0  0  0  0  0  0  0
    1.6165   -0.3237   -3.1119 H   0  0  0  0  0  0  0  0  0  0  0  0
    3.0812    0.3927   -3.7917 H   0  0  0  0  0  0  0  0  0  0  0  0
    0.3852    1.5846   -3.9178 H   0  0  0  0  0  0  0  0  0  0  0  0
    2.8888    2.2735   -5.3081 H   0  0  0  0  0  0  0  0  0  0  0  0
    2.0924    3.3757   -4.1749 H   0  0  0  0  0  0  0  0  0  0  0  0
    2.2353    3.1323   -7.8710 H   0  0  0  0  0  0  0  0  0  0  0  0
   -0.1131    4.1832   -8.8966 H   0  0  0  0  0  0  0  0  0  0  0  0
   -3.2999    2.7014   -5.5806 H   0  0  0  0  0  0  0  0  0  0  0  0
   -3.3707    2.4327   -7.2682 H   0  0  0  0  0  0  0  0  0  0  0  0
    6.4703   -0.5826   -3.5573 H   0  0  0  0  0  0  0  0  0  0  0  0
    7.0004   -0.6704   -1.8519 H   0  0  0  0  0  0  0  0  0  0  0  0
    8.0736    0.0413   -3.0929 H   0  0  0  0  0  0  0  0  0  0  0  0
    5.8985    1.6438   -4.6030 H   0  0  0  0  0  0  0  0  0  0  0  0
    7.4783    2.3259   -4.1312 H   0  0  0  0  0  0  0  0  0  0  0  0
    5.9708    3.1403   -3.6309 H   0  0  0  0  0  0  0  0  0  0  0  0
    7.1240    1.4879   -0.4523 H   0  0  0  0  0  0  0  0  0  0  0  0
    6.6675    3.0465   -1.2010 H   0  0  0  0  0  0  0  0  0  0  0  0
    8.1941    2.2520   -1.6634 H   0  0  0  0  0  0  0  0  0  0  0  0
  1  2  1  0
  1 25  1  0
  1 26  1  0
  1 27  1  0
  2  3  1  0
  2  4  1  0
  2 28  1  1
  3 29  1  0
  3 30  1  0
  3 31  1  0
  4  5  1  0
  4 18  1  0
  5  6  1  0
  5 32  1  0
  5 33  1  0
  6  7  1  0
  6 34  1  0
  6 35  1  0
  7  8  1  0
  7 36  1  0
  8  9  1  0
  8 37  1  0
  8 38  1  0
  9 10  2  0
  9 17  1  0
 10 11  1  0
 10 39  1  0
 11 12  2  0
 11 40  1  0
 12 13  1  0
 12 17  1  0
 13 14  1  1
 13 15  2  0
 13 16  2  0
 14 41  1  0
 14 42  1  0
 18 19  2  0
 18 20  1  0
 21 20  1  1
 21 22  1  0
 21 23  1  0
 21 24  1  0
 22 43  1  0
 22 44  1  0
 22 45  1  0
 23 46  1  0
 23 47  1  0
 23 48  1  0
 24 49  1  0
 24 50  1  0
 24 51  1  0
M  END

