
     RDKit          3D

 42 44  0  0  0  0  0  0  0  0999 V2000
    1.1750    1.5810    0.4908 C   0  0  0  0  0  0  0  0  0  0  0  0
    2.5467    1.6457    0.0984 O   0  0  0  0  0  0  0  0  0  0  0  0
    3.0342    0.5738   -0.5390 C   0  0  0  0  0  0  0  0  0  0  0  0
    2.3786   -0.4136   -0.7867 O   0  0  0  0  0  0  0  0  0  0  0  0
    4.4745    0.7167   -0.9166 C   0  0  0  0  0  0  0  0  0  0  0  0
    5.2015    1.8412   -0.6197 C   0  0  0  0  0  0  0  0  0  0  0  0
    6.6058    2.0042   -0.9798 C   0  0  0  0  0  0  0  0  0  0  0  0
    7.2637    3.0038   -0.7224 O   0  0  0  0  0  0  0  0  0  0  0  0
    7.1820    0.9049   -1.6647 N   0  0  0  0  0  0  0  0  0  0  0  0
    8.5821    1.0051   -2.0550 C   0  0  0  0  0  0  0  0  0  0  0  0
    6.4661   -0.2334   -1.9689 C   0  0  0  0  0  0  0  0  0  0  0  0
    6.9618   -1.3833   -2.6498 C   0  0  0  0  0  0  0  0  0  0  0  0
    5.9978   -2.3571   -2.8213 C   0  0  0  0  0  0  0  0  0  0  0  0
    6.1072   -3.6444   -3.5343 C   0  0  0  0  0  0  0  0  0  0  0  0
    5.0295   -4.0614   -4.3389 C   0  0  0  0  0  0  0  0  0  0  0  0
    5.0926   -5.2101   -5.1271 C   0  0  0  0  0  0  0  0  0  0  0  0
    6.2617   -5.9704   -5.1246 C   0  0  0  0  0  0  0  0  0  0  0  0
    7.3353   -5.5982   -4.3134 C   0  0  0  0  0  0  0  0  0  0  0  0
    7.2839   -4.4549   -3.4937 C   0  0  0  0  0  0  0  0  0  0  0  0
    8.3735   -4.1079   -2.6624 N   0  0  0  0  0  0  0  0  0  0  0  0
    9.6817   -4.6296   -3.0039 C   0  0  0  0  0  0  0  0  0  0  0  0
    8.1340   -4.1068   -1.2233 C   0  0  0  0  0  0  0  0  0  0  0  0
    4.4626   -1.8845   -2.1163 S   0  0  0  0  0  0  0  0  0  0  0  0
    5.1167   -0.3500   -1.6098 C   0  0  0  0  0  0  0  0  0  0  0  0
    0.9572    2.5311    0.9931 H   0  0  0  0  0  0  0  0  0  0  0  0
    1.0052    0.7368    1.1759 H   0  0  0  0  0  0  0  0  0  0  0  0
    0.5244    1.4535   -0.3876 H   0  0  0  0  0  0  0  0  0  0  0  0
    4.7498    2.6793   -0.0916 H   0  0  0  0  0  0  0  0  0  0  0  0
    8.9461    1.9807   -1.7137 H   0  0  0  0  0  0  0  0  0  0  0  0
    8.6879    0.9320   -3.1490 H   0  0  0  0  0  0  0  0  0  0  0  0
    9.1752    0.2035   -1.5869 H   0  0  0  0  0  0  0  0  0  0  0  0
    7.9811   -1.5047   -3.0068 H   0  0  0  0  0  0  0  0  0  0  0  0
    4.1352   -3.4351   -4.3770 H   0  0  0  0  0  0  0  0  0  0  0  0
    4.2422   -5.4929   -5.7515 H   0  0  0  0  0  0  0  0  0  0  0  0
    6.3399   -6.8682   -5.7433 H   0  0  0  0  0  0  0  0  0  0  0  0
    8.2252   -6.2276   -4.2981 H   0  0  0  0  0  0  0  0  0  0  0  0
    9.8792   -4.5032   -4.0782 H   0  0  0  0  0  0  0  0  0  0  0  0
    9.8181   -5.7031   -2.7491 H   0  0  0  0  0  0  0  0  0  0  0  0
   10.4483   -4.0657   -2.4480 H   0  0  0  0  0  0  0  0  0  0  0  0
    7.1393   -3.7107   -0.9892 H   0  0  0  0  0  0  0  0  0  0  0  0
    8.8784   -3.4712   -0.7160 H   0  0  0  0  0  0  0  0  0  0  0  0
    8.2078   -5.1285   -0.7941 H   0  0  0  0  0  0  0  0  0  0  0  0
  1  2  1  0
  1 25  1  0
  1 26  1  0
  1 27  1  0
  2  3  1  0
  3  4  2  0
  3  5  1  0
  5  6  2  0
  5 24  1  0
  6  7  1  0
  6 28  1  0
  7  8  2  0
  7  9  1  0
  9 10  1  0
  9 11  1  0
 10 29  1  0
 10 30  1  0
 10 31  1  0
 11 12  1  0
 11 24  2  0
 12 13  2  0
 12 32  1  0
 13 14  1  0
 13 23  1  0
 14 15  2  0
 14 19  1  0
 15 16  1  0
 15 33  1  0
 16 17  2  0
 16 34  1  0
 17 18  1  0
 17 35  1  0
 18 19  2  0
 18 36  1  0
 19 20  1  0
 20 21  1  0
 20 22  1  0
 21 37  1  0
 21 38  1  0
 21 39  1  0
 22 40  1  0
 22 41  1  0
 22 42  1  0
 23 24  1  0
M  END

