
     RDKit          3D

 58 60  0  0  0  0  0  0  0  0999 V2000
    2.8517    0.3418   -1.4837 C   0  0  0  0  0  0  0  0  0  0  0  0
    2.4048    1.2779   -0.3553 C   0  0  1  0  0  0  0  0  0  0  0  0
    0.8857    1.2344   -0.1476 C   0  0  0  0  0  0  0  0  0  0  0  0
    3.0993    0.9576    0.9843 C   0  0  0  0  0  0  0  0  0  0  0  0
    4.5678    0.9778    0.9421 N   0  0  0  0  0  0  0  0  0  0  0  0
    5.2886    2.1342    0.9565 C   0  0  0  0  0  0  0  0  0  0  0  0
    6.6575    2.2031    0.8994 C   0  0  0  0  0  0  0  0  0  0  0  0
    7.4388    1.0102    0.7352 C   0  0  0  0  0  0  0  0  0  0  0  0
    8.6416    0.9107    0.5642 O   0  0  0  0  0  0  0  0  0  0  0  0
    6.6263   -0.1530    0.7687 N   0  0  0  0  0  0  0  0  0  0  0  0
    7.1194   -1.0381    0.6802 H   0  0  0  0  0  0  0  0  0  0  0  0
    5.2554   -0.2610    0.8654 C   0  0  0  0  0  0  0  0  0  0  0  0
    4.6676   -1.3208    0.8784 O   0  0  0  0  0  0  0  0  0  0  0  0
    7.0799    3.6522    0.8782 C   0  0  2  0  0  0  0  0  0  0  0  0
    7.8859    4.0651   -0.2504 N   0  0  0  0  0  0  0  0  0  0  0  0
    7.3534    4.0513   -1.5138 C   0  0  0  0  0  0  0  0  0  0  0  0
    6.1699    3.7997   -1.6880 O   0  0  0  0  0  0  0  0  0  0  0  0
    8.2926    4.4317   -2.6490 C   0  0  0  0  0  0  0  0  0  0  0  0
    9.6983    3.8093   -2.6399 C   0  0  0  0  0  0  0  0  0  0  0  0
    9.7624    2.2662   -2.6276 C   0  0  1  0  0  0  0  0  0  0  0  0
    8.9873    1.5942   -3.7822 C   0  0  0  0  0  0  0  0  0  0  0  0
    9.6680    1.7674   -5.1477 C   0  0  0  0  0  0  0  0  0  0  0  0
   11.1163    1.2603   -5.1164 C   0  0  0  0  0  0  0  0  0  0  0  0
   11.9220    1.9211   -3.9896 C   0  0  0  0  0  0  0  0  0  0  0  0
   11.2246    1.7671   -2.6291 C   0  0  0  0  0  0  0  0  0  0  0  0
    7.8274    4.0667    2.1680 C   0  0  1  0  0  0  0  0  0  0  0  0
    7.1058    3.7485    3.2513 F   0  0  0  0  0  0  0  0  0  0  0  0
    9.0096    3.4388    2.2545 F   0  0  0  0  0  0  0  0  0  0  0  0
    8.0684    5.3801    2.2007 F   0  0  0  0  0  0  0  0  0  0  0  0
    5.6824    4.3873    0.8811 C   0  0  0  0  0  0  0  0  0  0  0  0
    5.4714    5.5644    0.8411 O   0  0  0  0  0  0  0  0  0  0  0  0
    4.7176    3.3862    1.0249 N   0  0  0  0  0  0  0  0  0  0  0  0
    2.3179    0.5837   -2.4159 H   0  0  0  0  0  0  0  0  0  0  0  0
    2.6493   -0.7113   -1.2320 H   0  0  0  0  0  0  0  0  0  0  0  0
    3.9286    0.4388   -1.6903 H   0  0  0  0  0  0  0  0  0  0  0  0
    2.6778    2.3086   -0.6510 H   0  0  0  0  0  0  0  0  0  0  0  0
    0.5549    0.2199    0.1317 H   0  0  0  0  0  0  0  0  0  0  0  0
    0.3563    1.5151   -1.0710 H   0  0  0  0  0  0  0  0  0  0  0  0
    0.5582    1.9241    0.6479 H   0  0  0  0  0  0  0  0  0  0  0  0
    2.8251   -0.0535    1.3129 H   0  0  0  0  0  0  0  0  0  0  0  0
    2.7702    1.6594    1.7685 H   0  0  0  0  0  0  0  0  0  0  0  0
    8.8924    4.0785   -0.1289 H   0  0  0  0  0  0  0  0  0  0  0  0
    8.3860    5.5322   -2.6216 H   0  0  0  0  0  0  0  0  0  0  0  0
    7.7508    4.1926   -3.5741 H   0  0  0  0  0  0  0  0  0  0  0  0
   10.2674    4.1852   -1.7687 H   0  0  0  0  0  0  0  0  0  0  0  0
   10.2362    4.2126   -3.5134 H   0  0  0  0  0  0  0  0  0  0  0  0
    9.3112    1.9270   -1.6800 H   0  0  0  0  0  0  0  0  0  0  0  0
    7.9462    1.9546   -3.8182 H   0  0  0  0  0  0  0  0  0  0  0  0
    8.9200    0.5142   -3.5582 H   0  0  0  0  0  0  0  0  0  0  0  0
    9.6584    2.8326   -5.4439 H   0  0  0  0  0  0  0  0  0  0  0  0
    9.0934    1.2336   -5.9236 H   0  0  0  0  0  0  0  0  0  0  0  0
   11.6063    1.4297   -6.0903 H   0  0  0  0  0  0  0  0  0  0  0  0
   11.1086    0.1653   -4.9599 H   0  0  0  0  0  0  0  0  0  0  0  0
   12.0647    2.9917   -4.2238 H   0  0  0  0  0  0  0  0  0  0  0  0
   12.9353    1.4875   -3.9402 H   0  0  0  0  0  0  0  0  0  0  0  0
   11.8006    2.2848   -1.8425 H   0  0  0  0  0  0  0  0  0  0  0  0
   11.2227    0.6987   -2.3495 H   0  0  0  0  0  0  0  0  0  0  0  0
    3.7317    3.5982    0.9314 H   0  0  0  0  0  0  0  0  0  0  0  0
  1  2  1  0
  1 33  1  0
  1 34  1  0
  1 35  1  0
  2  3  1  0
  2  4  1  0
  2 36  1  6
  3 37  1  0
  3 38  1  0
  3 39  1  0
  4  5  1  0
  4 40  1  0
  4 41  1  0
  5  6  1  0
  5 12  1  0
  6  7  2  0
  6 32  1  0
  7  8  1  0
  7 14  1  0
  8  9  2  0
  8 10  1  0
 10 11  1  0
 10 12  1  0
 12 13  2  0
 14 15  1  6
 14 26  1  0
 14 30  1  0
 15 16  1  0
 15 42  1  0
 16 17  2  0
 16 18  1  0
 18 19  1  0
 18 43  1  0
 18 44  1  0
 19 20  1  0
 19 45  1  0
 19 46  1  0
 20 21  1  0
 20 25  1  0
 20 47  1  1
 21 22  1  0
 21 48  1  0
 21 49  1  0
 22 23  1  0
 22 50  1  0
 22 51  1  0
 23 24  1  0
 23 52  1  0
 23 53  1  0
 24 25  1  0
 24 54  1  0
 24 55  1  0
 25 56  1  0
 25 57  1  0
 26 27  1  1
 26 28  1  0
 26 29  1  0
 30 31  2  0
 30 32  1  0
 32 58  1  0
M  END

