
     RDKit          3D

 45 46  0  0  0  0  0  0  0  0999 V2000
    0.8956   -0.0473    0.2254 C   0  0  0  0  0  0  0  0  0  0  0  0
    2.4059   -0.1735    0.0088 C   0  0  0  0  0  0  0  0  0  0  0  0
    3.2788    0.7448    0.8943 C   0  0  1  0  0  0  0  0  0  0  0  0
    4.7701    0.3382    0.8321 C   0  0  0  0  0  0  0  0  0  0  0  0
    5.4553    0.7176   -0.4875 C   0  0  0  0  0  0  0  0  0  0  0  0
    5.2895    2.2114   -0.7901 C   0  0  0  0  0  0  0  0  0  0  0  0
    3.8113    2.6235   -0.7516 C   0  0  0  0  0  0  0  0  0  0  0  0
    3.1022    2.2599    0.5743 C   0  0  2  0  0  0  0  0  0  0  0  0
    3.5702    3.1641    1.7564 C   0  0  1  0  0  0  0  0  0  0  0  0
    3.6187    4.6074    1.4740 N   0  0  0  0  0  0  0  0  0  0  0  0
    2.4412    5.2425    1.0408 N   0  0  0  0  0  0  0  0  0  0  0  0
    2.7827    2.9876    3.0532 C   0  0  0  0  0  0  0  0  0  0  0  0
    1.4336    2.6715    3.0943 C   0  0  0  0  0  0  0  0  0  0  0  0
    0.7775    2.6041    4.3391 C   0  0  0  0  0  0  0  0  0  0  0  0
   -0.6844    2.2614    4.4496 C   0  0  0  0  0  0  0  0  0  0  0  0
    1.4294    2.8376    5.4781 N   0  0  0  0  0  0  0  0  0  0  0  0
    2.7151    3.1579    5.4575 N   0  0  0  0  0  0  0  0  0  0  0  0
    3.3935    3.2467    4.3113 C   0  0  0  0  0  0  0  0  0  0  0  0
    4.8362    3.6565    4.4402 C   0  0  0  0  0  0  0  0  0  0  0  0
    0.3477   -0.7811   -0.3868 H   0  0  0  0  0  0  0  0  0  0  0  0
    0.5127    0.9487   -0.0508 H   0  0  0  0  0  0  0  0  0  0  0  0
    0.6248   -0.2285    1.2791 H   0  0  0  0  0  0  0  0  0  0  0  0
    2.6333   -0.0110   -1.0585 H   0  0  0  0  0  0  0  0  0  0  0  0
    2.7018   -1.2169    0.2161 H   0  0  0  0  0  0  0  0  0  0  0  0
    2.9441    0.5767    1.9323 H   0  0  0  0  0  0  0  0  0  0  0  0
    4.8567   -0.7472    1.0088 H   0  0  0  0  0  0  0  0  0  0  0  0
    5.3151    0.8175    1.6644 H   0  0  0  0  0  0  0  0  0  0  0  0
    5.0251    0.1292   -1.3173 H   0  0  0  0  0  0  0  0  0  0  0  0
    6.5244    0.4493   -0.4470 H   0  0  0  0  0  0  0  0  0  0  0  0
    5.7194    2.4554   -1.7761 H   0  0  0  0  0  0  0  0  0  0  0  0
    5.8691    2.8000   -0.0550 H   0  0  0  0  0  0  0  0  0  0  0  0
    3.2844    2.1179   -1.5789 H   0  0  0  0  0  0  0  0  0  0  0  0
    3.7077    3.7013   -0.9563 H   0  0  0  0  0  0  0  0  0  0  0  0
    2.0274    2.4503    0.4189 H   0  0  0  0  0  0  0  0  0  0  0  0
    4.6141    2.9016    1.9805 H   0  0  0  0  0  0  0  0  0  0  0  0
    4.3761    4.8378    0.8365 H   0  0  0  0  0  0  0  0  0  0  0  0
    1.8619    5.4701    1.8479 H   0  0  0  0  0  0  0  0  0  0  0  0
    1.8819    4.6625    0.4078 H   0  0  0  0  0  0  0  0  0  0  0  0
    0.8713    2.4597    2.1827 H   0  0  0  0  0  0  0  0  0  0  0  0
   -1.3098    2.9960    3.9152 H   0  0  0  0  0  0  0  0  0  0  0  0
   -0.9754    2.2542    5.5082 H   0  0  0  0  0  0  0  0  0  0  0  0
   -0.8986    1.2713    4.0139 H   0  0  0  0  0  0  0  0  0  0  0  0
    5.0513    3.8646    5.4961 H   0  0  0  0  0  0  0  0  0  0  0  0
    5.0370    4.5539    3.8348 H   0  0  0  0  0  0  0  0  0  0  0  0
    5.5199    2.8625    4.0941 H   0  0  0  0  0  0  0  0  0  0  0  0
  1  2  1  0
  1 20  1  0
  1 21  1  0
  1 22  1  0
  2  3  1  0
  2 23  1  0
  2 24  1  0
  3  4  1  0
  3  8  1  0
  3 25  1  1
  4  5  1  0
  4 26  1  0
  4 27  1  0
  5  6  1  0
  5 28  1  0
  5 29  1  0
  6  7  1  0
  6 30  1  0
  6 31  1  0
  7  8  1  0
  7 32  1  0
  7 33  1  0
  8  9  1  0
  8 34  1  6
  9 10  1  0
  9 12  1  0
  9 35  1  1
 10 11  1  0
 10 36  1  0
 11 37  1  0
 11 38  1  0
 12 13  2  0
 12 18  1  0
 13 14  1  0
 13 39  1  0
 14 15  1  0
 14 16  2  0
 15 40  1  0
 15 41  1  0
 15 42  1  0
 16 17  1  0
 17 18  2  0
 18 19  1  0
 19 43  1  0
 19 44  1  0
 19 45  1  0
M  END

