
     RDKit          3D

 70 73  0  0  0  0  0  0  0  0999 V2000
    5.4436    0.9155   -3.6918 C   0  0  0  0  0  0  0  0  0  0  0  0
    4.7605    1.2604   -2.4579 N   0  0  0  0  0  0  0  0  0  0  0  0
    5.2899    1.0056   -1.2429 C   0  0  0  0  0  0  0  0  0  0  0  0
    6.3126    0.3465   -1.0757 O   0  0  0  0  0  0  0  0  0  0  0  0
    4.4903    1.5984   -0.0491 C   0  0  1  0  0  0  0  0  0  0  0  0
    4.8315    0.9099    1.2918 C   0  0  0  0  0  0  0  0  0  0  0  0
    4.2392   -0.4795    1.4310 C   0  0  0  0  0  0  0  0  0  0  0  0
    4.9612   -1.6238    1.0545 C   0  0  0  0  0  0  0  0  0  0  0  0
    4.3985   -2.8969    1.1839 C   0  0  0  0  0  0  0  0  0  0  0  0
    3.1034   -3.0491    1.6878 C   0  0  0  0  0  0  0  0  0  0  0  0
    2.3727   -1.9176    2.0622 C   0  0  0  0  0  0  0  0  0  0  0  0
    2.9381   -0.6461    1.9345 C   0  0  0  0  0  0  0  0  0  0  0  0
    4.5504    3.0743   -0.0001 N   0  0  0  0  0  0  0  0  0  0  0  0
    3.2605    3.7804   -0.0425 C   0  0  0  0  0  0  0  0  0  0  0  0
    2.6559    3.8670   -1.4330 C   0  0  0  0  0  0  0  0  0  0  0  0
    3.3104    4.6314   -2.4195 C   0  0  0  0  0  0  0  0  0  0  0  0
    2.8016    4.7420   -3.7131 C   0  0  0  0  0  0  0  0  0  0  0  0
    1.6122    4.0880   -4.0537 C   0  0  0  0  0  0  0  0  0  0  0  0
    0.9410    3.3236   -3.0996 C   0  0  0  0  0  0  0  0  0  0  0  0
    1.4658    3.2168   -1.8055 C   0  0  0  0  0  0  0  0  0  0  0  0
    0.5779    2.2230   -0.6532 Cl  0  0  0  0  0  0  0  0  0  0  0  0
    5.6827    3.8576    0.0722 C   0  0  0  0  0  0  0  0  0  0  0  0
    5.6227    5.0754   -0.0103 O   0  0  0  0  0  0  0  0  0  0  0  0
    7.0358    3.1793    0.3452 C   0  0  0  0  0  0  0  0  0  0  0  0
    8.1502    3.9668   -0.1650 N   0  0  0  0  0  0  0  0  0  0  0  0
    8.8528    4.8869    0.6636 C   0  0  0  0  0  0  0  0  0  0  0  0
    8.6052    6.2657    0.5808 C   0  0  0  0  0  0  0  0  0  0  0  0
    9.2950    7.1641    1.3943 C   0  0  0  0  0  0  0  0  0  0  0  0
   10.2324    6.6935    2.3190 C   0  0  0  0  0  0  0  0  0  0  0  0
   10.4842    5.3247    2.4295 C   0  0  0  0  0  0  0  0  0  0  0  0
    9.8026    4.4301    1.5999 C   0  0  0  0  0  0  0  0  0  0  0  0
   10.1298    2.7177    1.7497 Cl  0  0  0  0  0  0  0  0  0  0  0  0
    8.4489    3.9212   -1.8291 S   0  0  1  0  0  0  0  0  0  0  0  0
    7.2257    3.3710   -2.4292 O   0  0  0  0  0  0  0  0  0  0  0  0
    8.9821    5.2216   -2.2331 O   0  0  0  0  0  0  0  0  0  0  0  0
    9.7584    2.7113   -2.0491 C   0  0  0  0  0  0  0  0  0  0  0  0
    9.4520    1.3451   -2.0213 C   0  0  0  0  0  0  0  0  0  0  0  0
   10.4920    0.4258   -2.1798 C   0  0  0  0  0  0  0  0  0  0  0  0
   11.8067    0.8669   -2.3685 C   0  0  0  0  0  0  0  0  0  0  0  0
   12.0918    2.2354   -2.4023 C   0  0  0  0  0  0  0  0  0  0  0  0
   11.0649    3.1694   -2.2429 C   0  0  0  0  0  0  0  0  0  0  0  0
    4.7077    0.8223   -4.5033 H   0  0  0  0  0  0  0  0  0  0  0  0
    5.9557   -0.0471   -3.5603 H   0  0  0  0  0  0  0  0  0  0  0  0
    6.1930    1.6789   -3.9569 H   0  0  0  0  0  0  0  0  0  0  0  0
    3.9925    1.9212   -2.5114 H   0  0  0  0  0  0  0  0  0  0  0  0
    3.4356    1.3725   -0.2613 H   0  0  0  0  0  0  0  0  0  0  0  0
    4.4357    1.5537    2.0928 H   0  0  0  0  0  0  0  0  0  0  0  0
    5.9224    0.8600    1.4120 H   0  0  0  0  0  0  0  0  0  0  0  0
    5.9650   -1.5045    0.6423 H   0  0  0  0  0  0  0  0  0  0  0  0
    4.9771   -3.7762    0.8883 H   0  0  0  0  0  0  0  0  0  0  0  0
    2.6654   -4.0454    1.7900 H   0  0  0  0  0  0  0  0  0  0  0  0
    1.3604   -2.0249    2.4609 H   0  0  0  0  0  0  0  0  0  0  0  0
    2.3601    0.2325    2.2374 H   0  0  0  0  0  0  0  0  0  0  0  0
    3.4457    4.7966    0.3272 H   0  0  0  0  0  0  0  0  0  0  0  0
    2.5632    3.2813    0.6428 H   0  0  0  0  0  0  0  0  0  0  0  0
    4.2383    5.1386   -2.1450 H   0  0  0  0  0  0  0  0  0  0  0  0
    3.3326    5.3425   -4.4553 H   0  0  0  0  0  0  0  0  0  0  0  0
    1.2032    4.1710   -5.0637 H   0  0  0  0  0  0  0  0  0  0  0  0
    0.0136    2.8039   -3.3450 H   0  0  0  0  0  0  0  0  0  0  0  0
    7.0848    2.1522   -0.0320 H   0  0  0  0  0  0  0  0  0  0  0  0
    7.1541    3.1143    1.4379 H   0  0  0  0  0  0  0  0  0  0  0  0
    7.8507    6.6021   -0.1285 H   0  0  0  0  0  0  0  0  0  0  0  0
    9.0918    8.2343    1.3132 H   0  0  0  0  0  0  0  0  0  0  0  0
   10.7708    7.3926    2.9639 H   0  0  0  0  0  0  0  0  0  0  0  0
   11.2092    4.9400    3.1485 H   0  0  0  0  0  0  0  0  0  0  0  0
    8.4250    0.9996   -1.8786 H   0  0  0  0  0  0  0  0  0  0  0  0
   10.2700   -0.6440   -2.1588 H   0  0  0  0  0  0  0  0  0  0  0  0
   12.6127    0.1394   -2.4937 H   0  0  0  0  0  0  0  0  0  0  0  0
   13.1172    2.5798   -2.5576 H   0  0  0  0  0  0  0  0  0  0  0  0
   11.2603    4.2422   -2.2778 H   0  0  0  0  0  0  0  0  0  0  0  0
  1  2  1  0
  1 42  1  0
  1 43  1  0
  1 44  1  0
  2  3  1  0
  2 45  1  0
  3  4  2  0
  3  5  1  0
  5  6  1  0
  5 13  1  0
  5 46  1  6
  6  7  1  0
  6 47  1  0
  6 48  1  0
  7  8  2  0
  7 12  1  0
  8  9  1  0
  8 49  1  0
  9 10  2  0
  9 50  1  0
 10 11  1  0
 10 51  1  0
 11 12  2  0
 11 52  1  0
 12 53  1  0
 13 14  1  0
 13 22  1  0
 14 15  1  0
 14 54  1  0
 14 55  1  0
 15 16  2  0
 15 20  1  0
 16 17  1  0
 16 56  1  0
 17 18  2  0
 17 57  1  0
 18 19  1  0
 18 58  1  0
 19 20  2  0
 19 59  1  0
 20 21  1  0
 22 23  2  0
 22 24  1  0
 24 25  1  0
 24 60  1  0
 24 61  1  0
 25 26  1  0
 33 25  1  1
 26 27  2  0
 26 31  1  0
 27 28  1  0
 27 62  1  0
 28 29  2  0
 28 63  1  0
 29 30  1  0
 29 64  1  0
 30 31  2  0
 30 65  1  0
 31 32  1  0
 33 34  2  0
 33 35  2  0
 33 36  1  0
 36 37  2  0
 36 41  1  0
 37 38  1  0
 37 66  1  0
 38 39  2  0
 38 67  1  0
 39 40  1  0
 39 68  1  0
 40 41  2  0
 40 69  1  0
 41 70  1  0
M  END

