
     RDKit          3D

 47 49  0  0  0  0  0  0  0  0999 V2000
    0.3743    0.8082   -0.4478 C   0  0  0  0  0  0  0  0  0  0  0  0
    1.7741    0.1942   -0.4058 C   0  0  1  0  0  0  0  0  0  0  0  0
    2.2951    0.0416   -1.7669 N   0  0  0  0  0  0  0  0  0  0  0  0
    2.9464   -1.0832   -2.1910 C   0  0  0  0  0  0  0  0  0  0  0  0
    3.0934   -2.0544   -1.4609 O   0  0  0  0  0  0  0  0  0  0  0  0
    3.5584   -1.0101   -3.6060 C   0  0  1  0  0  0  0  0  0  0  0  0
    4.1296   -2.3745   -4.0639 C   0  0  0  0  0  0  0  0  0  0  0  0
    3.2383   -3.2166   -5.0047 C   0  0  1  0  0  0  0  0  0  0  0  0
    2.0196   -3.8889   -4.3367 C   0  0  0  0  0  0  0  0  0  0  0  0
    0.9029   -2.9158   -3.9216 C   0  0  0  0  0  0  0  0  0  0  0  0
    0.6090   -1.8480   -4.9872 C   0  0  0  0  0  0  0  0  0  0  0  0
    1.8709   -1.2316   -5.6244 C   0  0  1  0  0  0  0  0  0  0  0  0
    2.7075   -0.3118   -4.7075 C   0  0  0  0  0  0  0  0  0  0  0  0
    2.7560   -2.3681   -6.1970 C   0  0  1  0  0  0  0  0  0  0  0  0
    3.8667   -1.9584   -7.0530 N   0  0  0  0  0  0  0  0  0  0  0  0
    2.7749    0.9307    0.4868 C   0  0  0  0  0  0  0  0  0  0  0  0
    3.9151    0.2436    0.9395 C   0  0  0  0  0  0  0  0  0  0  0  0
    4.8739    0.8845    1.7264 C   0  0  0  0  0  0  0  0  0  0  0  0
    4.7036    2.2223    2.0721 C   0  0  0  0  0  0  0  0  0  0  0  0
    5.6073    2.8535    2.8275 F   0  0  0  0  0  0  0  0  0  0  0  0
    3.5739    2.9141    1.6303 C   0  0  0  0  0  0  0  0  0  0  0  0
    3.4172    4.1979    1.9716 F   0  0  0  0  0  0  0  0  0  0  0  0
    2.6163    2.2771    0.8458 C   0  0  0  0  0  0  0  0  0  0  0  0
   -0.3000    0.1622   -1.0290 H   0  0  0  0  0  0  0  0  0  0  0  0
    0.3726    1.8038   -0.9224 H   0  0  0  0  0  0  0  0  0  0  0  0
   -0.0388    0.9192    0.5660 H   0  0  0  0  0  0  0  0  0  0  0  0
    1.7001   -0.8341   -0.0243 H   0  0  0  0  0  0  0  0  0  0  0  0
    2.3134    0.8677   -2.3533 H   0  0  0  0  0  0  0  0  0  0  0  0
    4.4274   -0.3482   -3.4283 H   0  0  0  0  0  0  0  0  0  0  0  0
    4.3863   -2.9587   -3.1687 H   0  0  0  0  0  0  0  0  0  0  0  0
    5.0797   -2.1866   -4.5912 H   0  0  0  0  0  0  0  0  0  0  0  0
    3.8804   -4.0183   -5.4056 H   0  0  0  0  0  0  0  0  0  0  0  0
    2.3465   -4.4714   -3.4601 H   0  0  0  0  0  0  0  0  0  0  0  0
    1.6104   -4.6167   -5.0606 H   0  0  0  0  0  0  0  0  0  0  0  0
    1.1687   -2.4400   -2.9691 H   0  0  0  0  0  0  0  0  0  0  0  0
   -0.0187   -3.4842   -3.7099 H   0  0  0  0  0  0  0  0  0  0  0  0
   -0.0319   -1.0550   -4.5634 H   0  0  0  0  0  0  0  0  0  0  0  0
    0.0232   -2.3061   -5.8048 H   0  0  0  0  0  0  0  0  0  0  0  0
    1.5335   -0.5997   -6.4668 H   0  0  0  0  0  0  0  0  0  0  0  0
    2.0492    0.4616   -4.2794 H   0  0  0  0  0  0  0  0  0  0  0  0
    3.4065    0.2371   -5.3604 H   0  0  0  0  0  0  0  0  0  0  0  0
    2.1087   -3.0073   -6.8241 H   0  0  0  0  0  0  0  0  0  0  0  0
    4.5189   -1.3491   -6.5613 H   0  0  0  0  0  0  0  0  0  0  0  0
    3.5230   -1.4243   -7.8517 H   0  0  0  0  0  0  0  0  0  0  0  0
    4.0488   -0.8048    0.6631 H   0  0  0  0  0  0  0  0  0  0  0  0
    5.7615    0.3606    2.0873 H   0  0  0  0  0  0  0  0  0  0  0  0
    1.7507    2.8646    0.5356 H   0  0  0  0  0  0  0  0  0  0  0  0
  1  2  1  0
  1 24  1  0
  1 25  1  0
  1 26  1  0
  2  3  1  0
  2 16  1  0
  2 27  1  1
  3  4  1  0
  3 28  1  0
  4  5  2  0
  4  6  1  0
  6  7  1  0
  6 13  1  0
  6 29  1  1
  7  8  1  0
  7 30  1  0
  7 31  1  0
  8  9  1  0
  8 14  1  0
  8 32  1  6
  9 10  1  0
  9 33  1  0
  9 34  1  0
 10 11  1  0
 10 35  1  0
 10 36  1  0
 11 12  1  0
 11 37  1  0
 11 38  1  0
 12 13  1  0
 12 14  1  0
 12 39  1  6
 13 40  1  0
 13 41  1  0
 14 15  1  0
 14 42  1  6
 15 43  1  0
 15 44  1  0
 16 17  2  0
 16 23  1  0
 17 18  1  0
 17 45  1  0
 18 19  2  0
 18 46  1  0
 19 20  1  0
 19 21  1  0
 21 22  1  0
 21 23  2  0
 23 47  1  0
M  END

