
     RDKit          3D

 64 67  0  0  0  0  0  0  0  0999 V2000
    3.6807    2.5745    4.5026 C   0  0  0  0  0  0  0  0  0  0  0  0
    3.7928    3.3346    3.1863 C   0  0  0  0  0  0  0  0  0  0  0  0
    4.3684    2.5011    2.0617 C   0  0  0  0  0  0  0  0  0  0  0  0
    4.7681    1.3676    2.1564 O   0  0  0  0  0  0  0  0  0  0  0  0
    4.3793    3.1986    0.9002 O   0  0  0  0  0  0  0  0  0  0  0  0
    4.9352    2.5421   -0.2528 C   0  0  0  0  0  0  0  0  0  0  0  0
    6.4304    2.7148   -0.3429 C   0  0  0  0  0  0  0  0  0  0  0  0
    7.2884    1.6234   -0.2080 C   0  0  0  0  0  0  0  0  0  0  0  0
    8.6222    1.6999   -0.2952 N   0  0  0  0  0  0  0  0  0  0  0  0
    9.2091    2.8756   -0.5157 C   0  0  0  0  0  0  0  0  0  0  0  0
   10.7078    2.9340   -0.6169 C   0  0  0  0  0  0  0  0  0  0  0  0
    8.4210    4.0376   -0.6484 C   0  0  0  0  0  0  0  0  0  0  0  0
    9.0604    5.2205   -0.8673 O   0  0  0  0  0  0  0  0  0  0  0  0
    8.4145    6.4320   -0.9788 C   0  0  0  0  0  0  0  0  0  0  0  0
    9.0921    7.5069   -1.1182 N   0  0  0  0  0  0  0  0  0  0  0  0
   10.4832    7.6294   -1.2180 C   0  0  0  0  0  0  0  0  0  0  0  0
   11.0736    8.7421   -0.5852 C   0  0  0  0  0  0  0  0  0  0  0  0
   12.4486    8.9621   -0.6665 C   0  0  0  0  0  0  0  0  0  0  0  0
   13.2602    8.0949   -1.4062 C   0  0  0  0  0  0  0  0  0  0  0  0
   12.6794    7.0029   -2.0585 C   0  0  0  0  0  0  0  0  0  0  0  0
   11.3074    6.7617   -1.9629 C   0  0  0  0  0  0  0  0  0  0  0  0
    6.9475    6.4119   -0.8965 C   0  0  0  0  0  0  0  0  0  0  0  0
    6.0480    7.6364   -1.0105 C   0  0  0  0  0  0  0  0  0  0  0  0
    4.8340    7.4883   -0.9146 O   0  0  0  0  0  0  0  0  0  0  0  0
    6.6775    8.8206   -1.2190 N   0  0  0  0  0  0  0  0  0  0  0  0
    6.0901   10.0867   -1.3761 C   0  0  0  0  0  0  0  0  0  0  0  0
    4.7118   10.3474   -1.3018 C   0  0  0  0  0  0  0  0  0  0  0  0
    4.2154   11.6370   -1.4777 C   0  0  0  0  0  0  0  0  0  0  0  0
    5.0850   12.7039   -1.7339 C   0  0  0  0  0  0  0  0  0  0  0  0
    4.5160   13.9287   -1.8938 O   0  0  0  0  0  0  0  0  0  0  0  0
    5.3314   15.0439   -2.1584 C   0  0  0  0  0  0  0  0  0  0  0  0
    6.4684   12.4688   -1.8127 C   0  0  0  0  0  0  0  0  0  0  0  0
    6.9641   11.1718   -1.6331 C   0  0  0  0  0  0  0  0  0  0  0  0
    8.2877   10.8555   -1.6895 O   0  0  0  0  0  0  0  0  0  0  0  0
    9.2323   11.8394   -2.0461 C   0  0  0  0  0  0  0  0  0  0  0  0
    6.3065    5.2274   -0.6941 C   0  0  0  0  0  0  0  0  0  0  0  0
    7.0238    3.9829   -0.5597 C   0  0  0  0  0  0  0  0  0  0  0  0
    3.2705    3.2237    5.2908 H   0  0  0  0  0  0  0  0  0  0  0  0
    4.6639    2.2073    4.8328 H   0  0  0  0  0  0  0  0  0  0  0  0
    3.0231    1.6981    4.4006 H   0  0  0  0  0  0  0  0  0  0  0  0
    4.4322    4.2293    3.2850 H   0  0  0  0  0  0  0  0  0  0  0  0
    2.8162    3.7193    2.8465 H   0  0  0  0  0  0  0  0  0  0  0  0
    4.4291    3.0082   -1.1100 H   0  0  0  0  0  0  0  0  0  0  0  0
    4.6832    1.4735   -0.2232 H   0  0  0  0  0  0  0  0  0  0  0  0
    6.8696    0.6308   -0.0097 H   0  0  0  0  0  0  0  0  0  0  0  0
   11.1220    1.9555   -0.3435 H   0  0  0  0  0  0  0  0  0  0  0  0
   11.1273    3.7136    0.0379 H   0  0  0  0  0  0  0  0  0  0  0  0
   11.0262    3.1785   -1.6444 H   0  0  0  0  0  0  0  0  0  0  0  0
   10.4262    9.4213   -0.0270 H   0  0  0  0  0  0  0  0  0  0  0  0
   12.8894    9.8216   -0.1543 H   0  0  0  0  0  0  0  0  0  0  0  0
   14.3361    8.2716   -1.4780 H   0  0  0  0  0  0  0  0  0  0  0  0
   13.3023    6.3253   -2.6487 H   0  0  0  0  0  0  0  0  0  0  0  0
   10.8684    5.9081   -2.4794 H   0  0  0  0  0  0  0  0  0  0  0  0
    7.7047    8.7696   -1.2687 H   0  0  0  0  0  0  0  0  0  0  0  0
    4.0394    9.5155   -1.1075 H   0  0  0  0  0  0  0  0  0  0  0  0
    3.1442   11.8372   -1.4211 H   0  0  0  0  0  0  0  0  0  0  0  0
    4.6612   15.9095   -2.2498 H   0  0  0  0  0  0  0  0  0  0  0  0
    5.8951   14.9310   -3.1031 H   0  0  0  0  0  0  0  0  0  0  0  0
    6.0492   15.2368   -1.3396 H   0  0  0  0  0  0  0  0  0  0  0  0
    7.1581   13.2854   -2.0098 H   0  0  0  0  0  0  0  0  0  0  0  0
   10.2095   11.3395   -2.0652 H   0  0  0  0  0  0  0  0  0  0  0  0
    9.2646   12.6632   -1.3103 H   0  0  0  0  0  0  0  0  0  0  0  0
    9.0226   12.2616   -3.0451 H   0  0  0  0  0  0  0  0  0  0  0  0
    5.2188    5.2605   -0.6147 H   0  0  0  0  0  0  0  0  0  0  0  0
  1  2  1  0
  1 38  1  0
  1 39  1  0
  1 40  1  0
  2  3  1  0
  2 41  1  0
  2 42  1  0
  3  4  2  0
  3  5  1  0
  5  6  1  0
  6  7  1  0
  6 43  1  0
  6 44  1  0
  7  8  2  0
  7 37  1  0
  8  9  1  0
  8 45  1  0
  9 10  2  0
 10 11  1  0
 10 12  1  0
 11 46  1  0
 11 47  1  0
 11 48  1  0
 12 13  1  0
 12 37  2  0
 13 14  1  0
 14 15  2  0
 14 22  1  0
 15 16  1  0
 16 17  2  0
 16 21  1  0
 17 18  1  0
 17 49  1  0
 18 19  2  0
 18 50  1  0
 19 20  1  0
 19 51  1  0
 20 21  2  0
 20 52  1  0
 21 53  1  0
 22 23  1  0
 22 36  2  0
 23 24  2  0
 23 25  1  0
 25 26  1  0
 25 54  1  0
 26 27  2  0
 26 33  1  0
 27 28  1  0
 27 55  1  0
 28 29  2  0
 28 56  1  0
 29 30  1  0
 29 32  1  0
 30 31  1  0
 31 57  1  0
 31 58  1  0
 31 59  1  0
 32 33  2  0
 32 60  1  0
 33 34  1  0
 34 35  1  0
 35 61  1  0
 35 62  1  0
 35 63  1  0
 36 37  1  0
 36 64  1  0
M  END

