
     RDKit          3D

 60 63  0  0  0  0  0  0  0  0999 V2000
   13.1317    3.9848   10.9509 N   0  0  0  0  0  0  0  0  0  0  0  0
   12.5762    4.9458   11.9133 C   0  0  1  0  0  0  0  0  0  0  0  0
   13.4858    6.1617   12.1124 C   0  0  0  0  0  0  0  0  0  0  0  0
   13.4803    7.2291   11.2006 C   0  0  0  0  0  0  0  0  0  0  0  0
   14.3878    8.2819   11.3371 C   0  0  0  0  0  0  0  0  0  0  0  0
   15.3131    8.2950   12.3846 C   0  0  0  0  0  0  0  0  0  0  0  0
   15.3118    7.2348   13.2943 C   0  0  0  0  0  0  0  0  0  0  0  0
   16.4514    7.2341   14.6222 Cl  0  0  0  0  0  0  0  0  0  0  0  0
   14.4090    6.1757   13.1664 C   0  0  0  0  0  0  0  0  0  0  0  0
   11.1540    5.3135   11.5166 C   0  0  0  0  0  0  0  0  0  0  0  0
   10.4866    4.8102   10.3656 C   0  0  0  0  0  0  0  0  0  0  0  0
    9.1860    5.2608   10.2198 C   0  0  0  0  0  0  0  0  0  0  0  0
    8.1735    5.0800    9.1609 C   0  0  0  0  0  0  0  0  0  0  0  0
    7.2714    5.9235    9.0701 O   0  0  0  0  0  0  0  0  0  0  0  0
    8.2466    3.9392    8.2222 C   0  0  0  0  0  0  0  0  0  0  0  0
    8.9623    2.7604    8.4738 C   0  0  0  0  0  0  0  0  0  0  0  0
    9.0610    1.7467    7.6135 N   0  0  0  0  0  0  0  0  0  0  0  0
    8.4212    1.9193    6.4511 C   0  0  0  0  0  0  0  0  0  0  0  0
    7.6569    2.9399    6.0980 N   0  0  0  0  0  0  0  0  0  0  0  0
    7.5101    3.9511    6.9805 C   0  0  0  0  0  0  0  0  0  0  0  0
    6.6664    4.9490    6.6635 N   0  0  0  0  0  0  0  0  0  0  0  0
    5.9346    5.0259    5.4099 C   0  0  2  0  0  0  0  0  0  0  0  0
    5.6773    3.9961    5.1246 H   0  0  0  0  0  0  0  0  0  0  0  0
    6.7318    5.7247    4.2588 C   0  0  0  0  0  0  0  0  0  0  0  0
    5.7836    6.7880    3.6807 C   0  0  2  0  0  0  0  0  0  0  0  0
    5.0998    6.3107    2.9555 H   0  0  0  0  0  0  0  0  0  0  0  0
    6.4391    7.9689    2.9879 C   0  0  0  0  0  0  0  0  0  0  0  0
    7.3148    7.5838    1.8996 O   0  0  0  0  0  0  0  0  0  0  0  0
    6.6231    6.9296    0.5567 S   0  0  1  0  0  0  0  0  0  0  0  0
    7.8433    7.1444   -0.5345 N   0  0  0  0  0  0  0  0  0  0  0  0
    6.4742    5.4966    0.7617 O   0  0  0  0  0  0  0  0  0  0  0  0
    5.5019    7.7728    0.1763 O   0  0  0  0  0  0  0  0  0  0  0  0
    4.9277    7.2034    4.8972 C   0  0  1  0  0  0  0  0  0  0  0  0
    5.5526    7.8163    5.5750 H   0  0  0  0  0  0  0  0  0  0  0  0
    3.7742    7.9368    4.6030 O   0  0  0  0  0  0  0  0  0  0  0  0
    4.6328    5.8490    5.5769 C   0  0  1  0  0  0  0  0  0  0  0  0
    4.3480    5.9668    6.6330 H   0  0  0  0  0  0  0  0  0  0  0  0
    3.5045    5.2486    4.9511 O   0  0  0  0  0  0  0  0  0  0  0  0
    8.7535    6.3504   11.5180 S   0  0  0  0  0  0  0  0  0  0  0  0
   10.3123    6.1408   12.2392 C   0  0  0  0  0  0  0  0  0  0  0  0
   10.6839    6.9138   13.7351 Cl  0  0  0  0  0  0  0  0  0  0  0  0
   13.9477    3.5265   11.3550 H   0  0  0  0  0  0  0  0  0  0  0  0
   13.4776    4.4829   10.1281 H   0  0  0  0  0  0  0  0  0  0  0  0
   12.5133    4.4238   12.8835 H   0  0  0  0  0  0  0  0  0  0  0  0
   12.7529    7.2427   10.3846 H   0  0  0  0  0  0  0  0  0  0  0  0
   14.3731    9.1101   10.6240 H   0  0  0  0  0  0  0  0  0  0  0  0
   16.0227    9.1153   12.5033 H   0  0  0  0  0  0  0  0  0  0  0  0
   14.4270    5.3657   13.8993 H   0  0  0  0  0  0  0  0  0  0  0  0
   10.9858    4.1358    9.6738 H   0  0  0  0  0  0  0  0  0  0  0  0
    9.4594    2.6233    9.4386 H   0  0  0  0  0  0  0  0  0  0  0  0
    8.5294    1.1154    5.7112 H   0  0  0  0  0  0  0  0  0  0  0  0
    6.5522    5.6551    7.3949 H   0  0  0  0  0  0  0  0  0  0  0  0
    7.0754    5.0136    3.4964 H   0  0  0  0  0  0  0  0  0  0  0  0
    7.6271    6.2054    4.6858 H   0  0  0  0  0  0  0  0  0  0  0  0
    7.1062    8.5098    3.6771 H   0  0  0  0  0  0  0  0  0  0  0  0
    5.6743    8.6672    2.6143 H   0  0  0  0  0  0  0  0  0  0  0  0
    8.6552    6.5626   -0.3326 H   0  0  0  0  0  0  0  0  0  0  0  0
    8.0741    8.1258   -0.6834 H   0  0  0  0  0  0  0  0  0  0  0  0
    3.0818    7.2774    4.4273 H   0  0  0  0  0  0  0  0  0  0  0  0
    3.7737    4.8617    4.1064 H   0  0  0  0  0  0  0  0  0  0  0  0
  1  2  1  0
  1 42  1  0
  1 43  1  0
  2  3  1  0
  2 10  1  0
  2 44  1  1
  3  4  2  0
  3  9  1  0
  4  5  1  0
  4 45  1  0
  5  6  2  0
  5 46  1  0
  6  7  1  0
  6 47  1  0
  7  8  1  0
  7  9  2  0
  9 48  1  0
 10 11  1  0
 10 40  2  0
 11 12  2  0
 11 49  1  0
 12 13  1  0
 12 39  1  0
 13 14  2  0
 13 15  1  0
 15 16  2  0
 15 20  1  0
 16 17  1  0
 16 50  1  0
 17 18  2  0
 18 19  1  0
 18 51  1  0
 19 20  2  0
 20 21  1  0
 21 22  1  0
 21 52  1  0
 22 23  1  6
 22 24  1  0
 22 36  1  0
 24 25  1  0
 24 53  1  0
 24 54  1  0
 25 26  1  6
 25 27  1  0
 25 33  1  0
 27 28  1  0
 27 55  1  0
 27 56  1  0
 29 28  1  1
 29 30  1  0
 29 31  2  0
 29 32  2  0
 30 57  1  0
 30 58  1  0
 33 34  1  1
 33 35  1  0
 33 36  1  0
 35 59  1  0
 36 37  1  1
 36 38  1  0
 38 60  1  0
 39 40  1  0
 40 41  1  0
M  END

