
     RDKit          3D

 35 37  0  0  0  0  0  0  0  0999 V2000
    2.3794    1.0291   -0.7373 C   0  0  0  0  0  0  0  0  0  0  0  0
    2.5604   -0.2288   -0.1279 O   0  0  0  0  0  0  0  0  0  0  0  0
    3.1518   -0.3168    1.0933 C   0  0  0  0  0  0  0  0  0  0  0  0
    3.6184    0.8139    1.8081 C   0  0  0  0  0  0  0  0  0  0  0  0
    4.2065    0.6518    3.0478 C   0  0  0  0  0  0  0  0  0  0  0  0
    4.3511   -0.6282    3.6274 C   0  0  0  0  0  0  0  0  0  0  0  0
    4.9440   -0.8421    4.9237 C   0  0  0  0  0  0  0  0  0  0  0  0
    5.3958    0.2139    5.6738 N   0  0  0  0  0  0  0  0  0  0  0  0
    5.0758   -2.1512    5.3727 C   0  0  0  0  0  0  0  0  0  0  0  0
    4.6099   -3.2043    4.5555 C   0  0  0  0  0  0  0  0  0  0  0  0
    4.7424   -4.5929    5.0294 C   0  0  0  0  0  0  0  0  0  0  0  0
    5.2651   -4.9672    6.1645 N   0  0  0  0  0  0  0  0  0  0  0  0
    5.2334   -6.3237    6.2951 C   0  0  0  0  0  0  0  0  0  0  0  0
    5.7891   -6.9522    7.5440 C   0  0  1  0  0  0  0  0  0  0  0  0
    7.0829   -6.6446    7.7228 F   0  0  0  0  0  0  0  0  0  0  0  0
    5.1301   -6.5461    8.6410 F   0  0  0  0  0  0  0  0  0  0  0  0
    5.6936   -8.2936    7.4866 F   0  0  0  0  0  0  0  0  0  0  0  0
    4.6785   -7.0177    5.2477 C   0  0  0  0  0  0  0  0  0  0  0  0
    4.1648   -5.9156    4.0257 S   0  0  0  0  0  0  0  0  0  0  0  0
    4.0399   -3.0421    3.3752 N   0  0  0  0  0  0  0  0  0  0  0  0
    3.8983   -1.7797    2.8899 C   0  0  0  0  0  0  0  0  0  0  0  0
    3.2849   -1.6077    1.6102 C   0  0  0  0  0  0  0  0  0  0  0  0
    2.7898   -2.7811    0.8114 C   0  0  0  0  0  0  0  0  0  0  0  0
    1.8858    0.8401   -1.7002 H   0  0  0  0  0  0  0  0  0  0  0  0
    3.3408    1.5403   -0.9251 H   0  0  0  0  0  0  0  0  0  0  0  0
    1.7354    1.6930   -0.1327 H   0  0  0  0  0  0  0  0  0  0  0  0
    3.5271    1.8146    1.3864 H   0  0  0  0  0  0  0  0  0  0  0  0
    4.5792    1.5392    3.5641 H   0  0  0  0  0  0  0  0  0  0  0  0
    5.0037    1.1317    5.5122 H   0  0  0  0  0  0  0  0  0  0  0  0
    5.6476    0.0262    6.6361 H   0  0  0  0  0  0  0  0  0  0  0  0
    5.5191   -2.3850    6.3416 H   0  0  0  0  0  0  0  0  0  0  0  0
    4.5566   -8.0943    5.1504 H   0  0  0  0  0  0  0  0  0  0  0  0
    1.7195   -2.6680    0.5731 H   0  0  0  0  0  0  0  0  0  0  0  0
    2.9428   -3.7133    1.3659 H   0  0  0  0  0  0  0  0  0  0  0  0
    3.3143   -2.8456   -0.1565 H   0  0  0  0  0  0  0  0  0  0  0  0
  1  2  1  0
  1 24  1  0
  1 25  1  0
  1 26  1  0
  2  3  1  0
  3  4  2  0
  3 22  1  0
  4  5  1  0
  4 27  1  0
  5  6  2  0
  5 28  1  0
  6  7  1  0
  6 21  1  0
  7  8  1  0
  7  9  2  0
  8 29  1  0
  8 30  1  0
  9 10  1  0
  9 31  1  0
 10 11  1  0
 10 20  2  0
 11 12  2  0
 11 19  1  0
 12 13  1  0
 13 14  1  0
 13 18  2  0
 14 15  1  1
 14 16  1  0
 14 17  1  0
 18 19  1  0
 18 32  1  0
 20 21  1  0
 21 22  2  0
 22 23  1  0
 23 33  1  0
 23 34  1  0
 23 35  1  0
M  END

