
     RDKit          3D

 59 61  0  0  0  0  0  0  0  0999 V2000
   11.4790    4.8996   -3.8478 C   0  0  0  0  0  0  0  0  0  0  0  0
   11.2491    3.4458   -3.4311 C   0  0  0  0  0  0  0  0  0  0  0  0
   10.1575    2.7084   -4.2319 C   0  0  1  0  0  0  0  0  0  0  0  0
   10.4763    2.5773   -5.7256 C   0  0  0  0  0  0  0  0  0  0  0  0
    9.9024    1.3953   -3.6523 N   0  0  0  0  0  0  0  0  0  0  0  0
    8.7278    1.0625   -3.0379 C   0  0  0  0  0  0  0  0  0  0  0  0
    7.7738    1.8193   -2.9189 O   0  0  0  0  0  0  0  0  0  0  0  0
    8.6711   -0.3185   -2.5055 C   0  0  0  0  0  0  0  0  0  0  0  0
    7.6699   -0.9785   -1.8437 C   0  0  0  0  0  0  0  0  0  0  0  0
    8.1655   -2.2898   -1.5687 C   0  0  0  0  0  0  0  0  0  0  0  0
    9.4367   -2.3439   -2.0830 C   0  0  0  0  0  0  0  0  0  0  0  0
   10.5013   -3.3974   -2.0885 C   0  0  0  0  0  0  0  0  0  0  0  0
    9.9786   -4.7354   -2.3356 N   0  0  0  0  0  0  0  0  0  0  0  0
    9.5342   -4.9124   -3.7174 C   0  0  0  0  0  0  0  0  0  0  0  0
    8.6475   -6.1237   -3.9294 C   0  0  0  0  0  0  0  0  0  0  0  0
    7.5097   -6.3230   -3.1298 C   0  0  0  0  0  0  0  0  0  0  0  0
    6.6682   -7.4159   -3.3454 C   0  0  0  0  0  0  0  0  0  0  0  0
    6.9492   -8.3307   -4.3668 C   0  0  0  0  0  0  0  0  0  0  0  0
    8.0779   -8.1436   -5.1679 C   0  0  0  0  0  0  0  0  0  0  0  0
    8.9205   -7.0486   -4.9469 C   0  0  0  0  0  0  0  0  0  0  0  0
   10.9032   -5.7836   -1.9041 C   0  0  0  0  0  0  0  0  0  0  0  0
   11.0973   -5.8496   -0.4026 C   0  0  0  0  0  0  0  0  0  0  0  0
    9.9909   -5.9114    0.4618 C   0  0  0  0  0  0  0  0  0  0  0  0
   10.1653   -6.0111    1.8408 C   0  0  0  0  0  0  0  0  0  0  0  0
   11.4493   -6.0539    2.4139 C   0  0  0  0  0  0  0  0  0  0  0  0
   11.6230   -6.1541    3.9100 C   0  0  0  0  0  0  0  0  0  0  0  0
   12.5496   -5.9922    1.5493 C   0  0  0  0  0  0  0  0  0  0  0  0
   12.3766   -5.8886    0.1643 C   0  0  0  0  0  0  0  0  0  0  0  0
    9.7481   -1.1499   -2.6559 O   0  0  0  0  0  0  0  0  0  0  0  0
   12.2038    5.3894   -3.1786 H   0  0  0  0  0  0  0  0  0  0  0  0
   10.5420    5.4796   -3.8023 H   0  0  0  0  0  0  0  0  0  0  0  0
   11.8733    4.9835   -4.8729 H   0  0  0  0  0  0  0  0  0  0  0  0
   10.9592    3.4115   -2.3677 H   0  0  0  0  0  0  0  0  0  0  0  0
   12.1967    2.8796   -3.5101 H   0  0  0  0  0  0  0  0  0  0  0  0
    9.2100    3.2568   -4.1134 H   0  0  0  0  0  0  0  0  0  0  0  0
   11.4107    2.0107   -5.8848 H   0  0  0  0  0  0  0  0  0  0  0  0
   10.5998    3.5631   -6.1989 H   0  0  0  0  0  0  0  0  0  0  0  0
    9.6643    2.0500   -6.2487 H   0  0  0  0  0  0  0  0  0  0  0  0
   10.6354    0.6952   -3.6888 H   0  0  0  0  0  0  0  0  0  0  0  0
    6.7006   -0.5545   -1.5939 H   0  0  0  0  0  0  0  0  0  0  0  0
    7.6569   -3.0991   -1.0510 H   0  0  0  0  0  0  0  0  0  0  0  0
   10.9992   -3.4096   -1.1043 H   0  0  0  0  0  0  0  0  0  0  0  0
   11.2800   -3.0976   -2.8257 H   0  0  0  0  0  0  0  0  0  0  0  0
   10.3977   -4.9628   -4.4184 H   0  0  0  0  0  0  0  0  0  0  0  0
    8.9658   -4.0088   -3.9947 H   0  0  0  0  0  0  0  0  0  0  0  0
    7.2898   -5.6090   -2.3327 H   0  0  0  0  0  0  0  0  0  0  0  0
    5.7856   -7.5548   -2.7153 H   0  0  0  0  0  0  0  0  0  0  0  0
    6.2903   -9.1863   -4.5354 H   0  0  0  0  0  0  0  0  0  0  0  0
    8.3083   -8.8540   -5.9662 H   0  0  0  0  0  0  0  0  0  0  0  0
    9.8053   -6.9102   -5.5755 H   0  0  0  0  0  0  0  0  0  0  0  0
   11.8960   -5.6808   -2.3982 H   0  0  0  0  0  0  0  0  0  0  0  0
   10.4871   -6.7431   -2.2522 H   0  0  0  0  0  0  0  0  0  0  0  0
    8.9843   -5.8791    0.0384 H   0  0  0  0  0  0  0  0  0  0  0  0
    9.2862   -6.0599    2.4909 H   0  0  0  0  0  0  0  0  0  0  0  0
   11.0818   -7.0231    4.3199 H   0  0  0  0  0  0  0  0  0  0  0  0
   11.2257   -5.2601    4.4202 H   0  0  0  0  0  0  0  0  0  0  0  0
   12.6822   -6.2546    4.1892 H   0  0  0  0  0  0  0  0  0  0  0  0
   13.5618   -6.0211    1.9631 H   0  0  0  0  0  0  0  0  0  0  0  0
   13.2558   -5.8390   -0.4851 H   0  0  0  0  0  0  0  0  0  0  0  0
  1  2  1  0
  1 30  1  0
  1 31  1  0
  1 32  1  0
  2  3  1  0
  2 33  1  0
  2 34  1  0
  3  4  1  0
  3  5  1  0
  3 35  1  6
  4 36  1  0
  4 37  1  0
  4 38  1  0
  5  6  1  0
  5 39  1  0
  6  7  2  0
  6  8  1  0
  8  9  2  0
  8 29  1  0
  9 10  1  0
  9 40  1  0
 10 11  2  0
 10 41  1  0
 11 12  1  0
 11 29  1  0
 12 13  1  0
 12 42  1  0
 12 43  1  0
 13 14  1  0
 13 21  1  0
 14 15  1  0
 14 44  1  0
 14 45  1  0
 15 16  2  0
 15 20  1  0
 16 17  1  0
 16 46  1  0
 17 18  2  0
 17 47  1  0
 18 19  1  0
 18 48  1  0
 19 20  2  0
 19 49  1  0
 20 50  1  0
 21 22  1  0
 21 51  1  0
 21 52  1  0
 22 23  2  0
 22 28  1  0
 23 24  1  0
 23 53  1  0
 24 25  2  0
 24 54  1  0
 25 26  1  0
 25 27  1  0
 26 55  1  0
 26 56  1  0
 26 57  1  0
 27 28  2  0
 27 58  1  0
 28 59  1  0
M  END

