
     RDKit          3D

 36 37  0  0  0  0  0  0  0  0999 V2000
    3.4926    1.5571   -1.2395 C   0  0  0  0  0  0  0  0  0  0  0  0
    3.3909    0.4001   -0.4405 O   0  0  0  0  0  0  0  0  0  0  0  0
    3.5222    0.4979    0.9115 C   0  0  0  0  0  0  0  0  0  0  0  0
    3.8072    1.6766    1.6018 C   0  0  0  0  0  0  0  0  0  0  0  0
    3.9309    1.6828    3.0042 C   0  0  0  0  0  0  0  0  0  0  0  0
    4.2304    2.9722    3.7300 C   0  0  0  0  0  0  0  0  0  0  0  0
    3.7766    0.4741    3.6886 C   0  0  0  0  0  0  0  0  0  0  0  0
    3.5105   -0.7189    3.0060 C   0  0  0  0  0  0  0  0  0  0  0  0
    3.3652   -0.7219    1.6177 C   0  0  0  0  0  0  0  0  0  0  0  0
    3.1209   -1.8897    0.8562 N   0  0  0  0  0  0  0  0  0  0  0  0
    1.9749   -3.0625    1.2300 S   0  0  1  0  0  0  0  0  0  0  0  0
    2.0804   -4.0574    0.1709 O   0  0  0  0  0  0  0  0  0  0  0  0
    2.1564   -3.4249    2.6366 O   0  0  0  0  0  0  0  0  0  0  0  0
    0.3467   -2.2614    1.1146 C   0  0  0  0  0  0  0  0  0  0  0  0
   -0.3822   -2.1976    2.3028 C   0  0  0  0  0  0  0  0  0  0  0  0
   -1.6723   -1.6333    2.3394 C   0  0  0  0  0  0  0  0  0  0  0  0
   -2.3678   -1.5375    3.5271 N   0  0  0  0  0  0  0  0  0  0  0  0
   -2.2051   -1.1344    1.1341 C   0  0  0  0  0  0  0  0  0  0  0  0
   -1.4752   -1.1974   -0.0499 C   0  0  0  0  0  0  0  0  0  0  0  0
   -0.1956   -1.7606   -0.0799 C   0  0  0  0  0  0  0  0  0  0  0  0
    0.7204   -1.7969   -1.7535 Br  0  0  0  0  0  0  0  0  0  0  0  0
    3.3170    1.2376   -2.2752 H   0  0  0  0  0  0  0  0  0  0  0  0
    4.4945    2.0168   -1.1679 H   0  0  0  0  0  0  0  0  0  0  0  0
    2.7335    2.3104   -0.9633 H   0  0  0  0  0  0  0  0  0  0  0  0
    3.9311    2.6119    1.0536 H   0  0  0  0  0  0  0  0  0  0  0  0
    3.4441    3.7260    3.5541 H   0  0  0  0  0  0  0  0  0  0  0  0
    5.1816    3.4155    3.3896 H   0  0  0  0  0  0  0  0  0  0  0  0
    4.3051    2.8140    4.8159 H   0  0  0  0  0  0  0  0  0  0  0  0
    3.8781    0.4514    4.7767 H   0  0  0  0  0  0  0  0  0  0  0  0
    3.4101   -1.6598    3.5455 H   0  0  0  0  0  0  0  0  0  0  0  0
    3.1730   -1.7463   -0.1523 H   0  0  0  0  0  0  0  0  0  0  0  0
    0.0732   -2.6027    3.2078 H   0  0  0  0  0  0  0  0  0  0  0  0
   -2.0670   -2.1244    4.2953 H   0  0  0  0  0  0  0  0  0  0  0  0
   -3.3691   -1.3968    3.4768 H   0  0  0  0  0  0  0  0  0  0  0  0
   -3.2032   -0.6881    1.1248 H   0  0  0  0  0  0  0  0  0  0  0  0
   -1.9069   -0.8060   -0.9728 H   0  0  0  0  0  0  0  0  0  0  0  0
  1  2  1  0
  1 22  1  0
  1 23  1  0
  1 24  1  0
  2  3  1  0
  3  4  2  0
  3  9  1  0
  4  5  1  0
  4 25  1  0
  5  6  1  0
  5  7  2  0
  6 26  1  0
  6 27  1  0
  6 28  1  0
  7  8  1  0
  7 29  1  0
  8  9  2  0
  8 30  1  0
  9 10  1  0
 11 10  1  6
 10 31  1  0
 11 12  2  0
 11 13  2  0
 11 14  1  0
 14 15  2  0
 14 20  1  0
 15 16  1  0
 15 32  1  0
 16 17  1  0
 16 18  2  0
 17 33  1  0
 17 34  1  0
 18 19  1  0
 18 35  1  0
 19 20  2  0
 19 36  1  0
 20 21  1  0
M  END

