
     RDKit          3D

 57 62  0  0  0  0  0  0  0  0999 V2000
    3.0647   -1.0251   -2.2090 O   0  0  0  0  0  0  0  0  0  0  0  0
    2.9470    0.0829   -1.7586 C   0  0  0  0  0  0  0  0  0  0  0  0
    3.7156    1.3342   -2.1429 C   0  0  1  0  0  0  0  0  0  0  0  0
    4.1947    1.4342   -3.8960 S   0  0  0  0  0  0  0  0  0  0  0  0
    4.6074    3.1626   -3.8090 C   0  0  0  0  0  0  0  0  0  0  0  0
    5.3117    3.7023   -4.8792 N   0  0  0  0  0  0  0  0  0  0  0  0
    5.6258    3.1610   -5.6787 H   0  0  0  0  0  0  0  0  0  0  0  0
    5.6352    5.0471   -4.8093 C   0  0  0  0  0  0  0  0  0  0  0  0
    6.2409    5.6852   -5.6306 O   0  0  0  0  0  0  0  0  0  0  0  0
    4.9788    5.6533   -3.2329 S   0  0  0  0  0  0  0  0  0  0  0  0
    4.3244    4.0560   -2.8222 C   0  0  0  0  0  0  0  0  0  0  0  0
    3.5450    3.8365   -1.5437 C   0  0  2  0  0  0  0  0  0  0  0  0
    4.3941    3.9516   -0.2772 C   0  0  0  0  0  0  0  0  0  0  0  0
    5.6787    3.4030   -0.1865 C   0  0  0  0  0  0  0  0  0  0  0  0
    6.4294    3.4725    0.9922 C   0  0  0  0  0  0  0  0  0  0  0  0
    5.8926    4.1220    2.1023 C   0  0  0  0  0  0  0  0  0  0  0  0
    4.6270    4.7129    2.0342 C   0  0  0  0  0  0  0  0  0  0  0  0
    3.8782    4.6413    0.8494 C   0  0  0  0  0  0  0  0  0  0  0  0
    2.6660    5.2279    0.6911 O   0  0  0  0  0  0  0  0  0  0  0  0
    2.0143    5.8359    1.7978 C   0  0  0  0  0  0  0  0  0  0  0  0
    0.6503    6.3164    1.3654 C   0  0  0  0  0  0  0  0  0  0  0  0
    0.2590    7.6440    1.5777 C   0  0  0  0  0  0  0  0  0  0  0  0
   -1.0175    8.0731    1.2000 C   0  0  0  0  0  0  0  0  0  0  0  0
   -1.9118    7.1873    0.5978 C   0  0  0  0  0  0  0  0  0  0  0  0
   -1.5108    5.8638    0.3828 C   0  0  0  0  0  0  0  0  0  0  0  0
   -2.6237    4.7443   -0.3751 Cl  0  0  0  0  0  0  0  0  0  0  0  0
   -0.2444    5.4185    0.7624 C   0  0  0  0  0  0  0  0  0  0  0  0
    2.8123    2.4849   -1.7061 C   0  0  2  0  0  0  0  0  0  0  0  0
    2.0343    1.8787   -0.5420 C   0  0  0  0  0  0  0  0  0  0  0  0
    1.4141    2.4419    0.3214 O   0  0  0  0  0  0  0  0  0  0  0  0
    2.0846    0.4702   -0.7081 N   0  0  0  0  0  0  0  0  0  0  0  0
    1.3238   -0.4488    0.0744 C   0  0  0  0  0  0  0  0  0  0  0  0
    0.6922   -1.5407   -0.5426 C   0  0  0  0  0  0  0  0  0  0  0  0
   -0.0448   -2.4397    0.2253 C   0  0  0  0  0  0  0  0  0  0  0  0
   -0.1479   -2.2310    1.6000 C   0  0  0  0  0  0  0  0  0  0  0  0
   -0.9332   -3.1825    2.4148 N   0  0  0  0  0  0  0  0  0  0  0  0
   -1.4566   -4.1202    1.8360 O   0  0  0  0  0  0  0  0  0  0  0  0
   -1.0070   -2.9687    3.6137 O   0  0  0  0  0  0  0  0  0  0  0  0
    0.4701   -1.1502    2.2284 C   0  0  0  0  0  0  0  0  0  0  0  0
    1.2138   -0.2569    1.4614 C   0  0  0  0  0  0  0  0  0  0  0  0
    4.6351    1.3292   -1.5328 H   0  0  0  0  0  0  0  0  0  0  0  0
    2.7694    4.6123   -1.4749 H   0  0  0  0  0  0  0  0  0  0  0  0
    6.1168    2.9326   -1.0704 H   0  0  0  0  0  0  0  0  0  0  0  0
    7.4284    3.0334    1.0333 H   0  0  0  0  0  0  0  0  0  0  0  0
    6.4641    4.1893    3.0315 H   0  0  0  0  0  0  0  0  0  0  0  0
    4.2358    5.2384    2.9050 H   0  0  0  0  0  0  0  0  0  0  0  0
    2.6121    6.6831    2.1788 H   0  0  0  0  0  0  0  0  0  0  0  0
    1.9195    5.0960    2.6149 H   0  0  0  0  0  0  0  0  0  0  0  0
    0.9554    8.3498    2.0382 H   0  0  0  0  0  0  0  0  0  0  0  0
   -1.3172    9.1103    1.3686 H   0  0  0  0  0  0  0  0  0  0  0  0
   -2.9087    7.5101    0.2933 H   0  0  0  0  0  0  0  0  0  0  0  0
    0.0520    4.3829    0.5891 H   0  0  0  0  0  0  0  0  0  0  0  0
    2.0484    2.6232   -2.4946 H   0  0  0  0  0  0  0  0  0  0  0  0
    0.7867   -1.6928   -1.6162 H   0  0  0  0  0  0  0  0  0  0  0  0
   -0.5446   -3.2965   -0.2254 H   0  0  0  0  0  0  0  0  0  0  0  0
    0.3659   -1.0264    3.3058 H   0  0  0  0  0  0  0  0  0  0  0  0
    1.7011    0.5928    1.9361 H   0  0  0  0  0  0  0  0  0  0  0  0
  1  2  2  0
  2  3  1  0
  2 31  1  0
  3  4  1  0
  3 28  1  0
  3 41  1  1
  4  5  2  0
  5  6  1  0
  5 11  1  0
  6  7  1  0
  6  8  1  0
  8  9  2  0
  8 10  1  0
 10 11  2  0
 11 12  1  0
 12 13  1  0
 12 28  1  0
 12 42  1  1
 13 14  2  0
 13 18  1  0
 14 15  1  0
 14 43  1  0
 15 16  2  0
 15 44  1  0
 16 17  1  0
 16 45  1  0
 17 18  2  0
 17 46  1  0
 18 19  1  0
 19 20  1  0
 20 21  1  0
 20 47  1  0
 20 48  1  0
 21 22  2  0
 21 27  1  0
 22 23  1  0
 22 49  1  0
 23 24  2  0
 23 50  1  0
 24 25  1  0
 24 51  1  0
 25 26  1  0
 25 27  2  0
 27 52  1  0
 28 29  1  0
 28 53  1  6
 29 30  2  0
 29 31  1  0
 31 32  1  0
 32 33  2  0
 32 40  1  0
 33 34  1  0
 33 54  1  0
 34 35  2  0
 34 55  1  0
 35 36  1  0
 35 39  1  0
 36 37  1  0
 36 38  1  0
 39 40  2  0
 39 56  1  0
 40 57  1  0
M  CHG  4   4   1  10   1  37  -1  38  -1
M  END

