
     RDKit          3D

 54 57  0  0  0  0  0  0  0  0999 V2000
    1.6903   -1.7741   -0.5040 C   0  0  0  0  0  0  0  0  0  0  0  0
    2.9543   -1.0338   -0.1302 C   0  0  0  0  0  0  0  0  0  0  0  0
    3.0704    0.2772   -0.4052 C   0  0  0  0  0  0  0  0  0  0  0  0
    4.2363    1.1650   -0.0533 C   0  0  1  0  0  0  0  0  0  0  0  0
    5.1832    0.4551    0.8788 C   0  0  0  0  0  0  0  0  0  0  0  0
    5.0573   -0.8309    1.2242 C   0  0  0  0  0  0  0  0  0  0  0  0
    4.0437   -1.7986    0.6351 C   0  0  1  0  0  0  0  0  0  0  0  0
    3.4143   -2.6477    1.7639 C   0  0  0  0  0  0  0  0  0  0  0  0
    4.9065   -2.7330   -0.2791 C   0  0  0  0  0  0  0  0  0  0  0  0
    4.1473   -3.4985   -1.2134 O   0  0  0  0  0  0  0  0  0  0  0  0
    4.3995   -3.6046   -2.5432 C   0  0  0  0  0  0  0  0  0  0  0  0
    3.6796   -4.3083   -3.2014 O   0  0  0  0  0  0  0  0  0  0  0  0
    5.5521   -2.7935   -3.1825 C   0  0  1  0  0  0  0  0  0  0  0  0
    6.3930   -2.7317   -2.4767 H   0  0  0  0  0  0  0  0  0  0  0  0
    6.0457   -3.5045   -4.4481 C   0  0  0  0  0  0  0  0  0  0  0  0
    5.0364   -1.3725   -3.4214 C   0  0  0  0  0  0  0  0  0  0  0  0
    4.1159   -1.0921   -4.4450 C   0  0  0  0  0  0  0  0  0  0  0  0
    3.5662    0.1851   -4.5567 C   0  0  0  0  0  0  0  0  0  0  0  0
    3.8548    1.1757   -3.6103 C   0  0  0  0  0  0  0  0  0  0  0  0
    4.7449    0.9072   -2.5631 C   0  0  0  0  0  0  0  0  0  0  0  0
    5.3796   -0.3442   -2.5385 C   0  0  0  0  0  0  0  0  0  0  0  0
    4.9710    1.8177   -1.3420 C   0  0  2  0  0  0  0  0  0  0  0  0
    6.3610    1.8254   -1.0247 O   0  0  0  0  0  0  0  0  0  0  0  0
    4.4747    3.2591   -1.5587 C   0  0  0  0  0  0  0  0  0  0  0  0
    3.1047    3.5775   -1.5897 C   0  0  0  0  0  0  0  0  0  0  0  0
    2.6712    4.8907   -1.7889 C   0  0  0  0  0  0  0  0  0  0  0  0
    3.5994    5.9221   -1.9583 C   0  0  0  0  0  0  0  0  0  0  0  0
    4.9624    5.6239   -1.9164 C   0  0  0  0  0  0  0  0  0  0  0  0
    5.3925    4.3083   -1.7149 C   0  0  0  0  0  0  0  0  0  0  0  0
    1.0524   -1.1526   -1.1495 H   0  0  0  0  0  0  0  0  0  0  0  0
    1.1002   -2.0366    0.3910 H   0  0  0  0  0  0  0  0  0  0  0  0
    1.9053   -2.7154   -1.0301 H   0  0  0  0  0  0  0  0  0  0  0  0
    2.2368    0.7528   -0.9309 H   0  0  0  0  0  0  0  0  0  0  0  0
    3.8459    2.0345    0.5053 H   0  0  0  0  0  0  0  0  0  0  0  0
    5.9788    1.0573    1.3222 H   0  0  0  0  0  0  0  0  0  0  0  0
    5.7617   -1.2581    1.9480 H   0  0  0  0  0  0  0  0  0  0  0  0
    2.7763   -2.0289    2.4132 H   0  0  0  0  0  0  0  0  0  0  0  0
    4.2042   -3.0923    2.3910 H   0  0  0  0  0  0  0  0  0  0  0  0
    2.8074   -3.4704    1.3585 H   0  0  0  0  0  0  0  0  0  0  0  0
    5.4445   -3.4473    0.3682 H   0  0  0  0  0  0  0  0  0  0  0  0
    5.6534   -2.1274   -0.7918 H   0  0  0  0  0  0  0  0  0  0  0  0
    5.2237   -3.6776   -5.1552 H   0  0  0  0  0  0  0  0  0  0  0  0
    6.4713   -4.4887   -4.1994 H   0  0  0  0  0  0  0  0  0  0  0  0
    6.8231   -2.9028   -4.9426 H   0  0  0  0  0  0  0  0  0  0  0  0
    3.8173   -1.8747   -5.1454 H   0  0  0  0  0  0  0  0  0  0  0  0
    2.8723    0.4059   -5.3720 H   0  0  0  0  0  0  0  0  0  0  0  0
    3.3666    2.1475   -3.6870 H   0  0  0  0  0  0  0  0  0  0  0  0
    6.1100   -0.5242   -1.7494 H   0  0  0  0  0  0  0  0  0  0  0  0
    6.8521    1.9342   -1.8502 H   0  0  0  0  0  0  0  0  0  0  0  0
    2.3554    2.7960   -1.4544 H   0  0  0  0  0  0  0  0  0  0  0  0
    1.6000    5.1075   -1.8077 H   0  0  0  0  0  0  0  0  0  0  0  0
    3.2616    6.9499   -2.1128 H   0  0  0  0  0  0  0  0  0  0  0  0
    5.7022    6.4204   -2.0322 H   0  0  0  0  0  0  0  0  0  0  0  0
    6.4610    4.1009   -1.6520 H   0  0  0  0  0  0  0  0  0  0  0  0
  1  2  1  0
  1 30  1  0
  1 31  1  0
  1 32  1  0
  2  3  2  0
  2  7  1  0
  3  4  1  0
  3 33  1  0
  4  5  1  0
  4 22  1  0
  4 34  1  1
  5  6  2  0
  5 35  1  0
  6  7  1  0
  6 36  1  0
  7  8  1  1
  7  9  1  0
  8 37  1  0
  8 38  1  0
  8 39  1  0
  9 10  1  0
  9 40  1  0
  9 41  1  0
 10 11  1  0
 11 12  2  0
 11 13  1  0
 13 14  1  1
 13 15  1  0
 13 16  1  0
 15 42  1  0
 15 43  1  0
 15 44  1  0
 16 17  2  0
 16 21  1  0
 17 18  1  0
 17 45  1  0
 18 19  2  0
 18 46  1  0
 19 20  1  0
 19 47  1  0
 20 21  2  0
 20 22  1  0
 21 48  1  0
 22 23  1  1
 22 24  1  0
 23 49  1  0
 24 25  2  0
 24 29  1  0
 25 26  1  0
 25 50  1  0
 26 27  2  0
 26 51  1  0
 27 28  1  0
 27 52  1  0
 28 29  2  0
 28 53  1  0
 29 54  1  0
M  END

