
     RDKit          3D

159170  0  0  0  0  0  0  0  0999 V2000
    3.7407   -1.4016   -5.6363 C   0  0  0  0  0  0  0  0  0  0  0  0
    2.9955   -0.7434   -4.4611 C   0  0  1  0  0  0  0  0  0  0  0  0
    1.4765   -0.8609   -4.7256 C   0  0  0  0  0  0  0  0  0  0  0  0
    3.3522   -1.5163   -3.1700 C   0  0  0  0  0  0  0  0  0  0  0  0
    3.3724    0.7412   -4.2898 C   0  0  0  0  0  0  0  0  0  0  0  0
    4.2886    1.4000   -5.1246 C   0  0  0  0  0  0  0  0  0  0  0  0
    4.6031    2.7514   -4.9485 C   0  0  0  0  0  0  0  0  0  0  0  0
    4.0158    3.5021   -3.9230 C   0  0  0  0  0  0  0  0  0  0  0  0
    4.2485    4.9643   -3.7737 C   0  0  0  0  0  0  0  0  0  0  0  0
    3.4309    5.9776   -4.3051 C   0  0  0  0  0  0  0  0  0  0  0  0
    3.9377    7.2308   -3.8250 C   0  0  0  0  0  0  0  0  0  0  0  0
    3.3213    8.4859   -4.2256 C   0  0  0  0  0  0  0  0  0  0  0  0
    3.7510    9.7600   -3.7922 C   0  0  0  0  0  0  0  0  0  0  0  0
    3.1448   10.9302   -4.2224 C   0  0  0  0  0  0  0  0  0  0  0  0
    2.0587   10.9035   -5.1148 C   0  0  0  0  0  0  0  0  0  0  0  0
    1.3578   12.1764   -5.6266 C   0  0  1  0  0  0  0  0  0  0  0  0
    1.9916   13.4566   -5.0524 C   0  0  0  0  0  0  0  0  0  0  0  0
    1.4613   12.2363   -7.1685 C   0  0  0  0  0  0  0  0  0  0  0  0
   -0.1318   12.1472   -5.2115 C   0  0  0  0  0  0  0  0  0  0  0  0
    1.6190    9.6449   -5.5315 C   0  0  0  0  0  0  0  0  0  0  0  0
    2.2013    8.4303   -5.1188 C   0  0  0  0  0  0  0  0  0  0  0  0
    1.6658    7.1408   -5.5972 C   0  0  0  0  0  0  0  0  0  0  0  0
    0.5506    7.0796   -6.4588 C   0  0  0  0  0  0  0  0  0  0  0  0
    0.0092    5.8871   -6.9445 C   0  0  0  0  0  0  0  0  0  0  0  0
   -1.2146    5.9182   -7.8818 C   0  0  1  0  0  0  0  0  0  0  0  0
   -0.8695    6.7214   -9.1573 C   0  0  0  0  0  0  0  0  0  0  0  0
   -1.6518    4.5051   -8.3092 C   0  0  0  0  0  0  0  0  0  0  0  0
   -2.4032    6.5911   -7.1568 C   0  0  0  0  0  0  0  0  0  0  0  0
    0.6342    4.6954   -6.5359 C   0  0  0  0  0  0  0  0  0  0  0  0
    1.7324    4.7150   -5.6860 C   0  0  0  0  0  0  0  0  0  0  0  0
    2.2746    5.9195   -5.1914 C   0  0  0  0  0  0  0  0  0  0  0  0
    5.0187    6.9988   -3.0250 N   0  0  0  0  0  0  0  0  0  0  0  0
    5.2529    5.6213   -2.9901 C   0  0  0  0  0  0  0  0  0  0  0  0
    6.3409    5.0732   -2.2709 C   0  0  0  0  0  0  0  0  0  0  0  0
    6.6976    3.6272   -2.4302 C   0  0  0  0  0  0  0  0  0  0  0  0
    7.6321    3.2837   -3.4209 C   0  0  0  0  0  0  0  0  0  0  0  0
    8.0109    1.9534   -3.6098 C   0  0  0  0  0  0  0  0  0  0  0  0
    7.4639    0.9501   -2.8053 C   0  0  0  0  0  0  0  0  0  0  0  0
    6.5369    1.2857   -1.8144 C   0  0  0  0  0  0  0  0  0  0  0  0
    6.1541    2.6162   -1.6281 C   0  0  0  0  0  0  0  0  0  0  0  0
    7.1753    5.8934   -1.4785 C   0  0  0  0  0  0  0  0  0  0  0  0
    8.1692    5.5500   -0.5030 C   0  0  0  0  0  0  0  0  0  0  0  0
    8.5682    4.1996   -0.0232 C   0  0  0  0  0  0  0  0  0  0  0  0
    9.6097    3.4745   -0.6149 C   0  0  0  0  0  0  0  0  0  0  0  0
   10.0303    2.2510   -0.0833 C   0  0  0  0  0  0  0  0  0  0  0  0
    9.4337    1.7007    1.0618 C   0  0  0  0  0  0  0  0  0  0  0  0
    9.8756    0.3588    1.6776 C   0  0  1  0  0  0  0  0  0  0  0  0
   11.0300   -0.2901    0.8927 C   0  0  0  0  0  0  0  0  0  0  0  0
   10.3503    0.5910    3.1309 C   0  0  0  0  0  0  0  0  0  0  0  0
    8.6810   -0.6233    1.6793 C   0  0  0  0  0  0  0  0  0  0  0  0
    8.3861    2.4362    1.6481 C   0  0  0  0  0  0  0  0  0  0  0  0
    7.9622    3.6551    1.1227 C   0  0  0  0  0  0  0  0  0  0  0  0
    8.6215    6.7648    0.0502 C   0  0  0  0  0  0  0  0  0  0  0  0
    9.5685    7.0570    1.1147 C   0  0  0  0  0  0  0  0  0  0  0  0
   10.3735    6.1045    1.7716 C   0  0  0  0  0  0  0  0  0  0  0  0
   11.2114    6.4584    2.8247 C   0  0  0  0  0  0  0  0  0  0  0  0
   11.2906    7.7833    3.3082 C   0  0  0  0  0  0  0  0  0  0  0  0
   12.1779    8.1904    4.5015 C   0  0  1  0  0  0  0  0  0  0  0  0
   13.1895    9.2684    4.0483 C   0  0  0  0  0  0  0  0  0  0  0  0
   11.2883    8.7637    5.6289 C   0  0  0  0  0  0  0  0  0  0  0  0
   12.9690    6.9986    5.0708 C   0  0  0  0  0  0  0  0  0  0  0  0
   10.5052    8.7340    2.6582 C   0  0  0  0  0  0  0  0  0  0  0  0
    9.6784    8.4142    1.5574 C   0  0  0  0  0  0  0  0  0  0  0  0
    8.9375    9.4356    0.8830 C   0  0  0  0  0  0  0  0  0  0  0  0
    8.8465   10.8845    1.0625 C   0  0  0  0  0  0  0  0  0  0  0  0
    9.4809   11.6957    0.0857 C   0  0  0  0  0  0  0  0  0  0  0  0
   10.9322   12.1655    0.0183 C   0  0  1  0  0  0  0  0  0  0  0  0
   11.8683   10.9617   -0.2491 C   0  0  0  0  0  0  0  0  0  0  0  0
   11.1131   13.2005   -1.1092 C   0  0  0  0  0  0  0  0  0  0  0  0
   11.3132   12.8209    1.3631 C   0  0  0  0  0  0  0  0  0  0  0  0
    8.6279   11.5748   -1.0612 C   0  0  0  0  0  0  0  0  0  0  0  0
    7.9508   10.3475   -1.1795 C   0  0  0  0  0  0  0  0  0  0  0  0
    8.1673    9.1997   -0.2967 C   0  0  0  0  0  0  0  0  0  0  0  0
    7.9116    7.8212   -0.6253 C   0  0  0  0  0  0  0  0  0  0  0  0
    7.0432    7.2769   -1.5183 N   0  0  0  0  0  0  0  0  0  0  0  0
    5.9814    8.0371   -2.3607 B   0  0  1  0  0  0  0  0  0  0  0  0
    6.5978    8.7748   -3.3774 F   0  0  0  0  0  0  0  0  0  0  0  0
    5.2876    8.8733   -1.4880 F   0  0  0  0  0  0  0  0  0  0  0  0
    3.1020    2.8493   -3.0770 C   0  0  0  0  0  0  0  0  0  0  0  0
    2.7900    1.5035   -3.2594 C   0  0  0  0  0  0  0  0  0  0  0  0
    3.4426   -2.4585   -5.7218 H   0  0  0  0  0  0  0  0  0  0  0  0
    4.8327   -1.3763   -5.4964 H   0  0  0  0  0  0  0  0  0  0  0  0
    3.5073   -0.9143   -6.5959 H   0  0  0  0  0  0  0  0  0  0  0  0
    1.1863   -1.9181   -4.8437 H   0  0  0  0  0  0  0  0  0  0  0  0
    1.1937   -0.3258   -5.6461 H   0  0  0  0  0  0  0  0  0  0  0  0
    0.8815   -0.4426   -3.8995 H   0  0  0  0  0  0  0  0  0  0  0  0
    3.0905   -2.5823   -3.2739 H   0  0  0  0  0  0  0  0  0  0  0  0
    2.8122   -1.1251   -2.2943 H   0  0  0  0  0  0  0  0  0  0  0  0
    4.4308   -1.4490   -2.9564 H   0  0  0  0  0  0  0  0  0  0  0  0
    4.7754    0.8636   -5.9392 H   0  0  0  0  0  0  0  0  0  0  0  0
    5.3096    3.2314   -5.6290 H   0  0  0  0  0  0  0  0  0  0  0  0
    4.5658    9.8440   -3.0867 H   0  0  0  0  0  0  0  0  0  0  0  0
    3.5339   11.8751   -3.8439 H   0  0  0  0  0  0  0  0  0  0  0  0
    3.0520   13.5519   -5.3336 H   0  0  0  0  0  0  0  0  0  0  0  0
    1.9250   13.4914   -3.9539 H   0  0  0  0  0  0  0  0  0  0  0  0
    1.4646   14.3410   -5.4438 H   0  0  0  0  0  0  0  0  0  0  0  0
    2.5136   12.2594   -7.4933 H   0  0  0  0  0  0  0  0  0  0  0  0
    0.9659   13.1436   -7.5519 H   0  0  0  0  0  0  0  0  0  0  0  0
    0.9828   11.3685   -7.6477 H   0  0  0  0  0  0  0  0  0  0  0  0
   -0.2359   12.1051   -4.1157 H   0  0  0  0  0  0  0  0  0  0  0  0
   -0.6595   11.2770   -5.6310 H   0  0  0  0  0  0  0  0  0  0  0  0
   -0.6480   13.0537   -5.5686 H   0  0  0  0  0  0  0  0  0  0  0  0
    0.7754    9.6076   -6.2170 H   0  0  0  0  0  0  0  0  0  0  0  0
    0.0779    8.0098   -6.7668 H   0  0  0  0  0  0  0  0  0  0  0  0
   -0.0260    6.2623   -9.6970 H   0  0  0  0  0  0  0  0  0  0  0  0
   -0.5914    7.7610   -8.9263 H   0  0  0  0  0  0  0  0  0  0  0  0
   -1.7350    6.7524   -9.8398 H   0  0  0  0  0  0  0  0  0  0  0  0
   -0.8563    3.9770   -8.8579 H   0  0  0  0  0  0  0  0  0  0  0  0
   -2.5258    4.5708   -8.9764 H   0  0  0  0  0  0  0  0  0  0  0  0
   -1.9412    3.8854   -7.4461 H   0  0  0  0  0  0  0  0  0  0  0  0
   -2.1726    7.6263   -6.8623 H   0  0  0  0  0  0  0  0  0  0  0  0
   -2.6740    6.0370   -6.2440 H   0  0  0  0  0  0  0  0  0  0  0  0
   -3.2888    6.6211   -7.8131 H   0  0  0  0  0  0  0  0  0  0  0  0
    0.2677    3.7279   -6.8789 H   0  0  0  0  0  0  0  0  0  0  0  0
    2.1783    3.7666   -5.4034 H   0  0  0  0  0  0  0  0  0  0  0  0
    8.0616    4.0692   -4.0476 H   0  0  0  0  0  0  0  0  0  0  0  0
    8.7371    1.7010   -4.3869 H   0  0  0  0  0  0  0  0  0  0  0  0
    7.7600   -0.0922   -2.9489 H   0  0  0  0  0  0  0  0  0  0  0  0
    6.1068    0.5071   -1.1800 H   0  0  0  0  0  0  0  0  0  0  0  0
    5.4300    2.8720   -0.8526 H   0  0  0  0  0  0  0  0  0  0  0  0
   10.1079    3.8751   -1.5003 H   0  0  0  0  0  0  0  0  0  0  0  0
   10.8453    1.7286   -0.5846 H   0  0  0  0  0  0  0  0  0  0  0  0
   11.9267    0.3490    0.8765 H   0  0  0  0  0  0  0  0  0  0  0  0
   10.7471   -0.5089   -0.1489 H   0  0  0  0  0  0  0  0  0  0  0  0
   11.3130   -1.2437    1.3657 H   0  0  0  0  0  0  0  0  0  0  0  0
   11.2082    1.2815    3.1601 H   0  0  0  0  0  0  0  0  0  0  0  0
   10.6636   -0.3607    3.5909 H   0  0  0  0  0  0  0  0  0  0  0  0
    9.5550    1.0190    3.7599 H   0  0  0  0  0  0  0  0  0  0  0  0
    8.3214   -0.8073    0.6544 H   0  0  0  0  0  0  0  0  0  0  0  0
    7.8339   -0.2387    2.2676 H   0  0  0  0  0  0  0  0  0  0  0  0
    8.9779   -1.5912    2.1160 H   0  0  0  0  0  0  0  0  0  0  0  0
    7.8865    2.0554    2.5422 H   0  0  0  0  0  0  0  0  0  0  0  0
    7.1559    4.2051    1.6142 H   0  0  0  0  0  0  0  0  0  0  0  0
   10.3489    5.0639    1.4570 H   0  0  0  0  0  0  0  0  0  0  0  0
   11.8045    5.6698    3.2878 H   0  0  0  0  0  0  0  0  0  0  0  0
   12.6856   10.1706    3.6698 H   0  0  0  0  0  0  0  0  0  0  0  0
   13.8405    8.8868    3.2455 H   0  0  0  0  0  0  0  0  0  0  0  0
   13.8313    9.5737    4.8912 H   0  0  0  0  0  0  0  0  0  0  0  0
   10.7263    9.6499    5.2972 H   0  0  0  0  0  0  0  0  0  0  0  0
   11.9055    9.0632    6.4922 H   0  0  0  0  0  0  0  0  0  0  0  0
   10.5582    8.0150    5.9753 H   0  0  0  0  0  0  0  0  0  0  0  0
   13.6435    6.5564    4.3208 H   0  0  0  0  0  0  0  0  0  0  0  0
   12.3043    6.2040    5.4444 H   0  0  0  0  0  0  0  0  0  0  0  0
   13.5901    7.3339    5.9164 H   0  0  0  0  0  0  0  0  0  0  0  0
   10.4981    9.7739    2.9924 H   0  0  0  0  0  0  0  0  0  0  0  0
    7.7714   11.1065    1.0096 H   0  0  0  0  0  0  0  0  0  0  0  0
   11.6120   10.4660   -1.1983 H   0  0  0  0  0  0  0  0  0  0  0  0
   11.8067   10.2118    0.5529 H   0  0  0  0  0  0  0  0  0  0  0  0
   12.9155   11.3028   -0.3123 H   0  0  0  0  0  0  0  0  0  0  0  0
   10.9440   12.7599   -2.1035 H   0  0  0  0  0  0  0  0  0  0  0  0
   12.1409   13.5969   -1.0945 H   0  0  0  0  0  0  0  0  0  0  0  0
   10.4220   14.0503   -0.9894 H   0  0  0  0  0  0  0  0  0  0  0  0
   10.6692   13.6883    1.5787 H   0  0  0  0  0  0  0  0  0  0  0  0
   12.3600   13.1660    1.3432 H   0  0  0  0  0  0  0  0  0  0  0  0
   11.1987   12.1091    2.1943 H   0  0  0  0  0  0  0  0  0  0  0  0
    8.6881   12.2175   -1.9469 H   0  0  0  0  0  0  0  0  0  0  0  0
    7.4008   10.1647   -2.1016 H   0  0  0  0  0  0  0  0  0  0  0  0
    2.6176    3.4131   -2.2759 H   0  0  0  0  0  0  0  0  0  0  0  0
    2.0691    1.0418   -2.5803 H   0  0  0  0  0  0  0  0  0  0  0  0
  2  1  1  6
  1 81  1  0
  1 82  1  0
  1 83  1  0
  2  3  1  0
  2  4  1  0
  2  5  1  0
  3 84  1  0
  3 85  1  0
  3 86  1  0
  4 87  1  0
  4 88  1  0
  4 89  1  0
  5  6  2  0
  5 80  1  0
  6  7  1  0
  6 90  1  0
  7  8  2  0
  7 91  1  0
  8  9  1  0
  8 79  1  0
  9 10  1  0
  9 33  2  0
 10 11  2  0
 10 31  1  0
 11 12  1  0
 11 32  1  0
 12 13  2  0
 12 21  1  0
 13 14  1  0
 13 92  1  0
 14 15  2  0
 14 93  1  0
 15 16  1  0
 15 20  1  0
 16 17  1  1
 16 18  1  0
 16 19  1  0
 17 94  1  0
 17 95  1  0
 17 96  1  0
 18 97  1  0
 18 98  1  0
 18 99  1  0
 19100  1  0
 19101  1  0
 19102  1  0
 20 21  2  0
 20103  1  0
 21 22  1  0
 22 23  2  0
 22 31  1  0
 23 24  1  0
 23104  1  0
 24 25  1  0
 24 29  2  0
 25 26  1  6
 25 27  1  0
 25 28  1  0
 26105  1  0
 26106  1  0
 26107  1  0
 27108  1  0
 27109  1  0
 27110  1  0
 28111  1  0
 28112  1  0
 28113  1  0
 29 30  1  0
 29114  1  0
 30 31  2  0
 30115  1  0
 32 33  1  0
 32 76  1  0
 33 34  1  0
 34 35  1  0
 34 41  2  0
 35 36  2  0
 35 40  1  0
 36 37  1  0
 36116  1  0
 37 38  2  0
 37117  1  0
 38 39  1  0
 38118  1  0
 39 40  2  0
 39119  1  0
 40120  1  0
 41 42  1  0
 41 75  1  0
 42 43  1  0
 42 53  2  0
 43 44  2  0
 43 52  1  0
 44 45  1  0
 44121  1  0
 45 46  2  0
 45122  1  0
 46 47  1  0
 46 51  1  0
 47 48  1  6
 47 49  1  0
 47 50  1  0
 48123  1  0
 48124  1  0
 48125  1  0
 49126  1  0
 49127  1  0
 49128  1  0
 50129  1  0
 50130  1  0
 50131  1  0
 51 52  2  0
 51132  1  0
 52133  1  0
 53 54  1  0
 53 74  1  0
 54 55  2  0
 54 63  1  0
 55 56  1  0
 55134  1  0
 56 57  2  0
 56135  1  0
 57 58  1  0
 57 62  1  0
 58 59  1  6
 58 60  1  0
 58 61  1  0
 59136  1  0
 59137  1  0
 59138  1  0
 60139  1  0
 60140  1  0
 60141  1  0
 61142  1  0
 61143  1  0
 61144  1  0
 62 63  2  0
 62145  1  0
 63 64  1  0
 64 65  1  0
 64 73  2  0
 65 66  2  0
 65146  1  0
 66 67  1  0
 66 71  1  0
 67 68  1  6
 67 69  1  0
 67 70  1  0
 68147  1  0
 68148  1  0
 68149  1  0
 69150  1  0
 69151  1  0
 69152  1  0
 70153  1  0
 70154  1  0
 70155  1  0
 71 72  2  0
 71156  1  0
 72 73  1  0
 72157  1  0
 73 74  1  0
 74 75  2  0
 75 76  1  0
 76 77  1  6
 76 78  1  0
 79 80  2  0
 79158  1  0
 80159  1  0
M  CHG  2  75   1  76  -1
M  END

