
     RDKit          3D

 49 51  0  0  0  0  0  0  0  0999 V2000
    1.1264    2.4069   -1.1000 C   0  0  0  0  0  0  0  0  0  0  0  0
    1.0144    0.9946   -1.1138 O   0  0  0  0  0  0  0  0  0  0  0  0
    1.7796    0.2683   -1.9470 C   0  0  0  0  0  0  0  0  0  0  0  0
    2.8110    0.8038   -2.7385 C   0  0  0  0  0  0  0  0  0  0  0  0
    3.5684   -0.0237   -3.5636 C   0  0  0  0  0  0  0  0  0  0  0  0
    3.3324   -1.4045   -3.6272 C   0  0  0  0  0  0  0  0  0  0  0  0
    4.2008   -2.2040   -4.5586 C   0  0  0  0  0  0  0  0  0  0  0  0
    4.9414   -1.6793   -5.3580 O   0  0  0  0  0  0  0  0  0  0  0  0
    4.0983   -3.5911   -4.4055 N   0  0  0  0  0  0  0  0  0  0  0  0
    4.7317   -4.5466   -5.1841 C   0  0  0  0  0  0  0  0  0  0  0  0
    5.0366   -4.4279   -6.4394 N   0  0  0  0  0  0  0  0  0  0  0  0
    5.6569   -5.5241   -6.9409 N   0  0  0  0  0  0  0  0  0  0  0  0
    5.8176   -6.4925   -6.0917 C   0  0  0  0  0  0  0  0  0  0  0  0
    6.4427   -7.8085   -6.4224 C   0  0  0  0  0  0  0  0  0  0  0  0
    5.2050   -6.0993   -4.4838 S   0  0  0  0  0  0  0  0  0  0  0  0
    2.2907   -1.9358   -2.8517 C   0  0  0  0  0  0  0  0  0  0  0  0
    1.5309   -1.1221   -2.0150 C   0  0  0  0  0  0  0  0  0  0  0  0
    0.1606   -1.8893   -1.1181 S   0  0  1  0  0  0  0  0  0  0  0  0
   -1.0601   -1.1538   -1.4445 O   0  0  0  0  0  0  0  0  0  0  0  0
    0.2723   -3.3247   -1.4130 O   0  0  0  0  0  0  0  0  0  0  0  0
    0.4824   -1.6630    0.5072 N   0  0  0  0  0  0  0  0  0  0  0  0
   -0.3329   -0.7290    1.2837 C   0  0  0  0  0  0  0  0  0  0  0  0
    0.4697    0.1522    2.2479 C   0  0  0  0  0  0  0  0  0  0  0  0
    1.1342   -0.6012    3.4109 C   0  0  0  0  0  0  0  0  0  0  0  0
    2.4873   -1.2720    3.1121 C   0  0  0  0  0  0  0  0  0  0  0  0
    2.6109   -2.0421    1.7773 C   0  0  0  0  0  0  0  0  0  0  0  0
    1.3193   -2.6438    1.2054 C   0  0  0  0  0  0  0  0  0  0  0  0
    0.3665    2.7676   -0.3956 H   0  0  0  0  0  0  0  0  0  0  0  0
    0.9275    2.8340   -2.0972 H   0  0  0  0  0  0  0  0  0  0  0  0
    2.1227    2.7327   -0.7551 H   0  0  0  0  0  0  0  0  0  0  0  0
    3.0257    1.8719   -2.7133 H   0  0  0  0  0  0  0  0  0  0  0  0
    4.3654    0.3899   -4.1843 H   0  0  0  0  0  0  0  0  0  0  0  0
    3.6019   -3.9352   -3.5934 H   0  0  0  0  0  0  0  0  0  0  0  0
    6.7346   -7.7895   -7.4812 H   0  0  0  0  0  0  0  0  0  0  0  0
    5.7401   -8.6419   -6.2610 H   0  0  0  0  0  0  0  0  0  0  0  0
    7.3379   -7.9996   -5.8092 H   0  0  0  0  0  0  0  0  0  0  0  0
    2.0076   -2.9894   -2.8887 H   0  0  0  0  0  0  0  0  0  0  0  0
   -1.0879   -1.2981    1.8629 H   0  0  0  0  0  0  0  0  0  0  0  0
   -0.8839   -0.1044    0.5716 H   0  0  0  0  0  0  0  0  0  0  0  0
   -0.2439    0.8837    2.6654 H   0  0  0  0  0  0  0  0  0  0  0  0
    1.2158    0.7328    1.6787 H   0  0  0  0  0  0  0  0  0  0  0  0
    0.4189   -1.3565    3.7834 H   0  0  0  0  0  0  0  0  0  0  0  0
    1.2845    0.0931    4.2546 H   0  0  0  0  0  0  0  0  0  0  0  0
    2.7108   -1.9554    3.9493 H   0  0  0  0  0  0  0  0  0  0  0  0
    3.2830   -0.5078    3.1409 H   0  0  0  0  0  0  0  0  0  0  0  0
    3.3424   -2.8573    1.9101 H   0  0  0  0  0  0  0  0  0  0  0  0
    3.0322   -1.3860    0.9980 H   0  0  0  0  0  0  0  0  0  0  0  0
    0.7184   -3.1277    1.9985 H   0  0  0  0  0  0  0  0  0  0  0  0
    1.5633   -3.4375    0.4881 H   0  0  0  0  0  0  0  0  0  0  0  0
  1  2  1  0
  1 28  1  0
  1 29  1  0
  1 30  1  0
  2  3  1  0
  3  4  2  0
  3 17  1  0
  4  5  1  0
  4 31  1  0
  5  6  2  0
  5 32  1  0
  6  7  1  0
  6 16  1  0
  7  8  2  0
  7  9  1  0
  9 10  1  0
  9 33  1  0
 10 11  2  0
 10 15  1  0
 11 12  1  0
 12 13  2  0
 13 14  1  0
 13 15  1  0
 14 34  1  0
 14 35  1  0
 14 36  1  0
 16 17  2  0
 16 37  1  0
 18 17  1  6
 18 19  2  0
 18 20  2  0
 18 21  1  0
 21 22  1  0
 21 27  1  0
 22 23  1  0
 22 38  1  0
 22 39  1  0
 23 24  1  0
 23 40  1  0
 23 41  1  0
 24 25  1  0
 24 42  1  0
 24 43  1  0
 25 26  1  0
 25 44  1  0
 25 45  1  0
 26 27  1  0
 26 46  1  0
 26 47  1  0
 27 48  1  0
 27 49  1  0
M  END

