
     RDKit          3D

 60 63  0  0  0  0  0  0  0  0999 V2000
    1.6447    1.0598    0.5200 C   0  0  0  0  0  0  0  0  0  0  0  0
    2.5601    0.2349   -0.1703 O   0  0  0  0  0  0  0  0  0  0  0  0
    3.2424    0.7400   -1.2119 C   0  0  0  0  0  0  0  0  0  0  0  0
    3.2646    2.0830   -1.5154 N   0  0  0  0  0  0  0  0  0  0  0  0
    2.8057    2.8258   -1.0084 H   0  0  0  0  0  0  0  0  0  0  0  0
    3.9980    2.2492   -2.6734 C   0  0  0  0  0  0  0  0  0  0  0  0
    4.2065    3.4138   -3.4037 C   0  0  0  0  0  0  0  0  0  0  0  0
    4.8784    3.3095   -4.6163 C   0  0  0  0  0  0  0  0  0  0  0  0
    5.4034    2.0794   -5.0760 C   0  0  0  0  0  0  0  0  0  0  0  0
    5.9661    2.0702   -6.4586 C   0  0  0  0  0  0  0  0  0  0  0  0
    6.9328    3.0035   -6.8612 C   0  0  0  0  0  0  0  0  0  0  0  0
    7.3800    3.0594   -8.1840 C   0  0  0  0  0  0  0  0  0  0  0  0
    6.8725    2.1956   -9.1679 C   0  0  0  0  0  0  0  0  0  0  0  0
    7.3332    2.2328  -10.6379 C   0  0  1  0  0  0  0  0  0  0  0  0
    8.4035    3.3110  -10.8864 C   0  0  0  0  0  0  0  0  0  0  0  0
    7.9320    0.8606  -11.0244 C   0  0  0  0  0  0  0  0  0  0  0  0
    6.1206    2.5376  -11.5482 C   0  0  0  0  0  0  0  0  0  0  0  0
    5.8963    1.2685   -8.7564 C   0  0  0  0  0  0  0  0  0  0  0  0
    5.4503    1.2021   -7.4379 C   0  0  0  0  0  0  0  0  0  0  0  0
    5.2893    0.9358   -4.2537 C   0  0  0  0  0  0  0  0  0  0  0  0
    6.2636   -0.5599   -4.5779 S   0  0  1  0  0  0  0  0  0  0  0  0
    6.6303   -1.1042   -3.2626 O   0  0  0  0  0  0  0  0  0  0  0  0
    5.5971   -1.4131   -5.5757 O   0  0  0  0  0  0  0  0  0  0  0  0
    7.8150   -0.0414   -5.2913 C   0  0  0  0  0  0  0  0  0  0  0  0
    8.3131   -0.4862   -6.4913 C   0  0  0  0  0  0  0  0  0  0  0  0
    9.6568   -0.0623   -6.7034 C   0  0  0  0  0  0  0  0  0  0  0  0
   10.1457    0.6825   -5.6571 C   0  0  0  0  0  0  0  0  0  0  0  0
    8.9889    0.8655   -4.3869 S   0  0  0  0  0  0  0  0  0  0  0  0
    4.4961    0.9637   -3.0681 C   0  0  0  0  0  0  0  0  0  0  0  0
    3.9713   -0.0030   -2.1252 C   0  0  0  0  0  0  0  0  0  0  0  0
    3.9673   -1.5108   -2.0926 C   0  0  0  0  0  0  0  0  0  0  0  0
    4.8393   -2.1413   -0.9962 C   0  0  0  0  0  0  0  0  0  0  0  0
    4.6581   -3.5909   -0.9787 N   0  0  0  0  0  0  0  0  0  0  0  0
    1.1609    0.4296    1.2772 H   0  0  0  0  0  0  0  0  0  0  0  0
    0.8692    1.4662   -0.1545 H   0  0  0  0  0  0  0  0  0  0  0  0
    2.1542    1.8940    1.0376 H   0  0  0  0  0  0  0  0  0  0  0  0
    3.8120    4.3741   -3.0617 H   0  0  0  0  0  0  0  0  0  0  0  0
    4.9806    4.1883   -5.2552 H   0  0  0  0  0  0  0  0  0  0  0  0
    7.3581    3.6883   -6.1234 H   0  0  0  0  0  0  0  0  0  0  0  0
    8.1421    3.7965   -8.4377 H   0  0  0  0  0  0  0  0  0  0  0  0
    9.3099    3.1367  -10.2855 H   0  0  0  0  0  0  0  0  0  0  0  0
    8.0304    4.3214  -10.6571 H   0  0  0  0  0  0  0  0  0  0  0  0
    8.7029    3.3024  -11.9464 H   0  0  0  0  0  0  0  0  0  0  0  0
    8.8030    0.6196  -10.3941 H   0  0  0  0  0  0  0  0  0  0  0  0
    8.2638    0.8663  -12.0759 H   0  0  0  0  0  0  0  0  0  0  0  0
    7.2007    0.0461  -10.9105 H   0  0  0  0  0  0  0  0  0  0  0  0
    5.6757    3.5141  -11.2987 H   0  0  0  0  0  0  0  0  0  0  0  0
    5.3320    1.7762  -11.4502 H   0  0  0  0  0  0  0  0  0  0  0  0
    6.4296    2.5641  -12.6064 H   0  0  0  0  0  0  0  0  0  0  0  0
    5.4619    0.5765   -9.4820 H   0  0  0  0  0  0  0  0  0  0  0  0
    4.6972    0.4634   -7.1596 H   0  0  0  0  0  0  0  0  0  0  0  0
    7.7225   -1.0902   -7.1791 H   0  0  0  0  0  0  0  0  0  0  0  0
   10.2373   -0.3005   -7.5958 H   0  0  0  0  0  0  0  0  0  0  0  0
   11.1320    1.1354   -5.5590 H   0  0  0  0  0  0  0  0  0  0  0  0
    4.2678   -1.9276   -3.0614 H   0  0  0  0  0  0  0  0  0  0  0  0
    2.9236   -1.8360   -1.9227 H   0  0  0  0  0  0  0  0  0  0  0  0
    4.6060   -1.6456   -0.0288 H   0  0  0  0  0  0  0  0  0  0  0  0
    5.8902   -1.9226   -1.2289 H   0  0  0  0  0  0  0  0  0  0  0  0
    3.7457   -3.8303   -0.5870 H   0  0  0  0  0  0  0  0  0  0  0  0
    5.3500   -4.0288   -0.3712 H   0  0  0  0  0  0  0  0  0  0  0  0
  1  2  1  0
  1 34  1  0
  1 35  1  0
  1 36  1  0
  2  3  1  0
  3  4  1  0
  3 30  2  0
  4  5  1  0
  4  6  1  0
  6  7  2  0
  6 29  1  0
  7  8  1  0
  7 37  1  0
  8  9  2  0
  8 38  1  0
  9 10  1  0
  9 20  1  0
 10 11  2  0
 10 19  1  0
 11 12  1  0
 11 39  1  0
 12 13  2  0
 12 40  1  0
 13 14  1  0
 13 18  1  0
 14 15  1  1
 14 16  1  0
 14 17  1  0
 15 41  1  0
 15 42  1  0
 15 43  1  0
 16 44  1  0
 16 45  1  0
 16 46  1  0
 17 47  1  0
 17 48  1  0
 17 49  1  0
 18 19  2  0
 18 50  1  0
 19 51  1  0
 21 20  1  1
 20 29  2  0
 21 22  2  0
 21 23  2  0
 21 24  1  0
 24 25  2  0
 24 28  1  0
 25 26  1  0
 25 52  1  0
 26 27  2  0
 26 53  1  0
 27 28  1  0
 27 54  1  0
 29 30  1  0
 30 31  1  0
 31 32  1  0
 31 55  1  0
 31 56  1  0
 32 33  1  0
 32 57  1  0
 32 58  1  0
 33 59  1  0
 33 60  1  0
M  END

