
     RDKit          3D

 42 44  0  0  0  0  0  0  0  0999 V2000
    2.0979   -0.8504    0.5813 C   0  0  0  0  0  0  0  0  0  0  0  0
    3.1998   -0.5564   -0.2429 O   0  0  0  0  0  0  0  0  0  0  0  0
    2.8718   -0.1775   -1.5650 C   0  0  1  0  0  0  0  0  0  0  0  0
    4.1248    0.4721   -2.1939 C   0  0  0  0  0  0  0  0  0  0  0  0
    4.3793   -0.3010   -3.4997 C   0  0  2  0  0  0  0  0  0  0  0  0
    3.7245    0.3688   -4.6886 C   0  0  0  0  0  0  0  0  0  0  0  0
    2.7419    1.2203   -4.7097 N   0  0  0  0  0  0  0  0  0  0  0  0
    2.5391    1.4276   -6.0568 C   0  0  0  0  0  0  0  0  0  0  0  0
    1.4784    2.3252   -6.6044 C   0  0  0  0  0  0  0  0  0  0  0  0
    3.3623    0.7555   -6.8215 N   0  0  0  0  0  0  0  0  0  0  0  0
    4.1557    0.0522   -5.9169 O   0  0  0  0  0  0  0  0  0  0  0  0
    3.8130   -1.6152   -3.1909 N   0  0  0  0  0  0  0  0  0  0  0  0
    3.8500   -2.6617   -4.1858 C   0  0  0  0  0  0  0  0  0  0  0  0
    3.8952   -4.0606   -3.5852 C   0  0  0  0  0  0  0  0  0  0  0  0
    3.4856   -5.1666   -4.3436 C   0  0  0  0  0  0  0  0  0  0  0  0
    3.5626   -6.4599   -3.8187 C   0  0  0  0  0  0  0  0  0  0  0  0
    4.0417   -6.6660   -2.5253 C   0  0  0  0  0  0  0  0  0  0  0  0
    4.4603   -5.5729   -1.7525 C   0  0  0  0  0  0  0  0  0  0  0  0
    4.9526   -5.8560   -0.3568 C   0  0  0  0  0  0  0  0  0  0  0  0
    4.8303   -6.9306    0.1721 O   0  0  0  0  0  0  0  0  0  0  0  0
    5.5430   -4.8372    0.3041 O   0  0  0  0  0  0  0  0  0  0  0  0
    4.3773   -4.2783   -2.2900 C   0  0  0  0  0  0  0  0  0  0  0  0
    2.5620   -1.3821   -2.4841 C   0  0  0  0  0  0  0  0  0  0  0  0
    2.4867   -1.0751    1.5853 H   0  0  0  0  0  0  0  0  0  0  0  0
    1.5241   -1.7293    0.2269 H   0  0  0  0  0  0  0  0  0  0  0  0
    1.4009    0.0084    0.6527 H   0  0  0  0  0  0  0  0  0  0  0  0
    2.0159    0.5230   -1.5528 H   0  0  0  0  0  0  0  0  0  0  0  0
    4.9607    0.3066   -1.5008 H   0  0  0  0  0  0  0  0  0  0  0  0
    4.0106    1.5509   -2.3563 H   0  0  0  0  0  0  0  0  0  0  0  0
    5.4520   -0.4053   -3.7295 H   0  0  0  0  0  0  0  0  0  0  0  0
    1.3070    3.1637   -5.9151 H   0  0  0  0  0  0  0  0  0  0  0  0
    0.5266    1.7794   -6.7129 H   0  0  0  0  0  0  0  0  0  0  0  0
    1.7666    2.7094   -7.5922 H   0  0  0  0  0  0  0  0  0  0  0  0
    4.7579   -2.5185   -4.7982 H   0  0  0  0  0  0  0  0  0  0  0  0
    2.9999   -2.6039   -4.9005 H   0  0  0  0  0  0  0  0  0  0  0  0
    3.0978   -5.0134   -5.3554 H   0  0  0  0  0  0  0  0  0  0  0  0
    3.2390   -7.3117   -4.4223 H   0  0  0  0  0  0  0  0  0  0  0  0
    4.0993   -7.6642   -2.0877 H   0  0  0  0  0  0  0  0  0  0  0  0
    5.6381   -4.0639   -0.2689 H   0  0  0  0  0  0  0  0  0  0  0  0
    4.6590   -3.3879   -1.7189 H   0  0  0  0  0  0  0  0  0  0  0  0
    2.2675   -2.2710   -1.9036 H   0  0  0  0  0  0  0  0  0  0  0  0
    1.7234   -1.1480   -3.1758 H   0  0  0  0  0  0  0  0  0  0  0  0
  1  2  1  0
  1 24  1  0
  1 25  1  0
  1 26  1  0
  2  3  1  0
  3  4  1  0
  3 23  1  0
  3 27  1  1
  4  5  1  0
  4 28  1  0
  4 29  1  0
  5  6  1  0
  5 12  1  0
  5 30  1  6
  6  7  2  0
  6 11  1  0
  7  8  1  0
  8  9  1  0
  8 10  2  0
  9 31  1  0
  9 32  1  0
  9 33  1  0
 10 11  1  0
 12 13  1  0
 12 23  1  0
 13 14  1  0
 13 34  1  0
 13 35  1  0
 14 15  2  0
 14 22  1  0
 15 16  1  0
 15 36  1  0
 16 17  2  0
 16 37  1  0
 17 18  1  0
 17 38  1  0
 18 19  1  0
 18 22  2  0
 19 20  2  0
 19 21  1  0
 21 39  1  0
 22 40  1  0
 23 41  1  0
 23 42  1  0
M  END

