
     RDKit          3D

 35 34  0  0  0  0  0  0  0  0999 V2000
    0.8626    0.4361   -0.1815 C   0  0  0  0  0  0  0  0  0  0  0  0
    2.2786   -0.0925   -0.0261 C   0  0  0  0  0  0  0  0  0  0  0  0
    3.1476    0.7521   -0.7533 O   0  0  0  0  0  0  0  0  0  0  0  0
    4.5814    0.5846   -0.6453 C   0  0  1  0  0  0  0  0  0  0  0  0
    5.0569    1.0650    0.7304 C   0  0  0  0  0  0  0  0  0  0  0  0
    4.9880   -0.8652   -0.9153 C   0  0  0  0  0  0  0  0  0  0  0  0
    5.0740    1.5344   -1.7824 C   0  0  1  0  0  0  0  0  0  0  0  0
    4.4098    2.7758   -1.6898 O   0  0  0  0  0  0  0  0  0  0  0  0
    6.5605    1.8877   -1.7979 C   0  0  0  0  0  0  0  0  0  0  0  0
    7.3541    0.7459   -2.0215 O   0  0  0  0  0  0  0  0  0  0  0  0
    8.7153    0.9853   -2.3616 C   0  0  1  0  0  0  0  0  0  0  0  0
    9.5387    1.4330   -1.1519 C   0  0  0  0  0  0  0  0  0  0  0  0
    9.2470   -0.3007   -2.9822 C   0  0  0  0  0  0  0  0  0  0  0  0
    0.1477   -0.2130    0.3483 H   0  0  0  0  0  0  0  0  0  0  0  0
    0.5784    0.4705   -1.2449 H   0  0  0  0  0  0  0  0  0  0  0  0
    0.7779    1.4545    0.2290 H   0  0  0  0  0  0  0  0  0  0  0  0
    2.3355   -1.1316   -0.4029 H   0  0  0  0  0  0  0  0  0  0  0  0
    2.5547   -0.1222    1.0455 H   0  0  0  0  0  0  0  0  0  0  0  0
    4.5701    0.5014    1.5406 H   0  0  0  0  0  0  0  0  0  0  0  0
    4.8261    2.1332    0.8558 H   0  0  0  0  0  0  0  0  0  0  0  0
    6.1422    0.9216    0.8401 H   0  0  0  0  0  0  0  0  0  0  0  0
    4.6774   -1.5311   -0.0950 H   0  0  0  0  0  0  0  0  0  0  0  0
    6.0777   -0.9302   -1.0258 H   0  0  0  0  0  0  0  0  0  0  0  0
    4.5280   -1.2256   -1.8490 H   0  0  0  0  0  0  0  0  0  0  0  0
    4.8324    1.0271   -2.7395 H   0  0  0  0  0  0  0  0  0  0  0  0
    3.4910    2.5497   -1.4734 H   0  0  0  0  0  0  0  0  0  0  0  0
    6.8241    2.4007   -0.8541 H   0  0  0  0  0  0  0  0  0  0  0  0
    6.7007    2.6269   -2.6112 H   0  0  0  0  0  0  0  0  0  0  0  0
    8.7455    1.7902   -3.1263 H   0  0  0  0  0  0  0  0  0  0  0  0
    9.5184    0.6585   -0.3677 H   0  0  0  0  0  0  0  0  0  0  0  0
    9.1556    2.3702   -0.7201 H   0  0  0  0  0  0  0  0  0  0  0  0
   10.5879    1.6057   -1.4399 H   0  0  0  0  0  0  0  0  0  0  0  0
    9.2273   -1.1201   -2.2454 H   0  0  0  0  0  0  0  0  0  0  0  0
   10.2846   -0.1703   -3.3263 H   0  0  0  0  0  0  0  0  0  0  0  0
    8.6259   -0.5970   -3.8406 H   0  0  0  0  0  0  0  0  0  0  0  0
  1  2  1  0
  1 14  1  0
  1 15  1  0
  1 16  1  0
  2  3  1  0
  2 17  1  0
  2 18  1  0
  4  3  1  1
  4  5  1  0
  4  6  1  0
  4  7  1  0
  5 19  1  0
  5 20  1  0
  5 21  1  0
  6 22  1  0
  6 23  1  0
  6 24  1  0
  7  8  1  0
  7  9  1  0
  7 25  1  6
  8 26  1  0
  9 10  1  0
  9 27  1  0
  9 28  1  0
 10 11  1  0
 11 12  1  0
 11 13  1  0
 11 29  1  6
 12 30  1  0
 12 31  1  0
 12 32  1  0
 13 33  1  0
 13 34  1  0
 13 35  1  0
M  END

