
     RDKit          3D

 47 47  0  0  0  0  0  0  0  0999 V2000
    5.3402    2.4350    0.4439 C   0  0  0  0  0  0  0  0  0  0  0  0
    4.5834    1.1281    0.4134 C   0  0  0  0  0  0  0  0  0  0  0  0
    3.2388    1.0537    0.8000 C   0  0  0  0  0  0  0  0  0  0  0  0
    2.5721   -0.1722    0.7795 C   0  0  0  0  0  0  0  0  0  0  0  0
    3.2223   -1.3358    0.3593 C   0  0  0  0  0  0  0  0  0  0  0  0
    4.5659   -1.2967   -0.0643 C   0  0  0  0  0  0  0  0  0  0  0  0
    5.3416   -2.5543   -0.5110 C   0  0  1  0  0  0  0  0  0  0  0  0
    5.9142   -2.4081   -1.9499 C   0  0  0  0  0  0  0  0  0  0  0  0
    6.8850   -1.4010   -2.1358 O   0  0  0  0  0  0  0  0  0  0  0  0
    6.5226   -2.7746    0.4762 C   0  0  0  0  0  0  0  0  0  0  0  0
    6.1017   -2.9858    1.8025 O   0  0  0  0  0  0  0  0  0  0  0  0
    4.4778   -3.8416   -0.4750 C   0  0  0  0  0  0  0  0  0  0  0  0
    3.3894   -3.9548   -1.5553 C   0  0  0  0  0  0  0  0  0  0  0  0
    2.1235   -5.1321   -0.9725 S   0  0  1  0  0  0  0  0  0  0  0  0
    2.7907   -6.4318   -0.7692 O   0  0  0  0  0  0  0  0  0  0  0  0
    1.4281   -4.4818    0.1607 O   0  0  0  0  0  0  0  0  0  0  0  0
    0.8635   -5.3553   -2.3423 C   0  0  1  0  0  0  0  0  0  0  0  0
    1.5618   -5.9725   -3.5572 C   0  0  0  0  0  0  0  0  0  0  0  0
   -0.1566   -6.3305   -1.7343 C   0  0  0  0  0  0  0  0  0  0  0  0
    0.2201   -4.0013   -2.6529 C   0  0  0  0  0  0  0  0  0  0  0  0
    5.2239   -0.0506   -0.0029 C   0  0  0  0  0  0  0  0  0  0  0  0
    4.7551    3.2301    0.9290 H   0  0  0  0  0  0  0  0  0  0  0  0
    5.5880    2.7801   -0.5746 H   0  0  0  0  0  0  0  0  0  0  0  0
    6.2934    2.3355    0.9885 H   0  0  0  0  0  0  0  0  0  0  0  0
    2.7181    1.9554    1.1344 H   0  0  0  0  0  0  0  0  0  0  0  0
    1.5302   -0.2315    1.1049 H   0  0  0  0  0  0  0  0  0  0  0  0
    2.6623   -2.2710    0.3859 H   0  0  0  0  0  0  0  0  0  0  0  0
    5.0790   -2.2774   -2.6625 H   0  0  0  0  0  0  0  0  0  0  0  0
    6.4102   -3.3599   -2.2078 H   0  0  0  0  0  0  0  0  0  0  0  0
    6.4285   -0.5562   -2.2326 H   0  0  0  0  0  0  0  0  0  0  0  0
    7.2317   -1.9319    0.3929 H   0  0  0  0  0  0  0  0  0  0  0  0
    7.0721   -3.6824    0.1768 H   0  0  0  0  0  0  0  0  0  0  0  0
    5.6362   -2.1908    2.0988 H   0  0  0  0  0  0  0  0  0  0  0  0
    4.0324   -3.9286    0.5253 H   0  0  0  0  0  0  0  0  0  0  0  0
    5.1425   -4.7130   -0.5726 H   0  0  0  0  0  0  0  0  0  0  0  0
    3.7796   -4.3444   -2.5053 H   0  0  0  0  0  0  0  0  0  0  0  0
    2.8660   -3.0076   -1.7400 H   0  0  0  0  0  0  0  0  0  0  0  0
    2.1052   -6.8858   -3.2762 H   0  0  0  0  0  0  0  0  0  0  0  0
    2.2683   -5.2734   -4.0317 H   0  0  0  0  0  0  0  0  0  0  0  0
    0.8058   -6.2368   -4.3144 H   0  0  0  0  0  0  0  0  0  0  0  0
    0.3225   -7.2815   -1.4609 H   0  0  0  0  0  0  0  0  0  0  0  0
   -0.9452   -6.5347   -2.4760 H   0  0  0  0  0  0  0  0  0  0  0  0
   -0.6223   -5.9042   -0.8344 H   0  0  0  0  0  0  0  0  0  0  0  0
    0.9292   -3.3000   -3.1200 H   0  0  0  0  0  0  0  0  0  0  0  0
   -0.1842   -3.5391   -1.7410 H   0  0  0  0  0  0  0  0  0  0  0  0
   -0.6099   -4.1487   -3.3631 H   0  0  0  0  0  0  0  0  0  0  0  0
    6.2829    0.0080   -0.2619 H   0  0  0  0  0  0  0  0  0  0  0  0
  1  2  1  0
  1 22  1  0
  1 23  1  0
  1 24  1  0
  2  3  2  0
  2 21  1  0
  3  4  1  0
  3 25  1  0
  4  5  2  0
  4 26  1  0
  5  6  1  0
  5 27  1  0
  6  7  1  0
  6 21  2  0
  7  8  1  6
  7 10  1  0
  7 12  1  0
  8  9  1  0
  8 28  1  0
  8 29  1  0
  9 30  1  0
 10 11  1  0
 10 31  1  0
 10 32  1  0
 11 33  1  0
 12 13  1  0
 12 34  1  0
 12 35  1  0
 14 13  1  6
 13 36  1  0
 13 37  1  0
 14 15  2  0
 14 16  2  0
 14 17  1  0
 17 18  1  6
 17 19  1  0
 17 20  1  0
 18 38  1  0
 18 39  1  0
 18 40  1  0
 19 41  1  0
 19 42  1  0
 19 43  1  0
 20 44  1  0
 20 45  1  0
 20 46  1  0
 21 47  1  0
M  END

