
     RDKit          3D

 48 51  0  0  0  0  0  0  0  0999 V2000
    1.0816   -0.3421   -1.0658 C   0  0  0  0  0  0  0  0  0  0  0  0
    2.4749    0.0252   -0.6182 C   0  0  0  0  0  0  0  0  0  0  0  0
    2.8543    1.2607   -0.1430 C   0  0  0  0  0  0  0  0  0  0  0  0
    1.9673    2.4152    0.0795 C   0  0  0  0  0  0  0  0  0  0  0  0
    0.5464    2.5152    0.1534 C   0  0  0  0  0  0  0  0  0  0  0  0
    0.2944    3.8481    0.4329 C   0  0  0  0  0  0  0  0  0  0  0  0
    1.5124    4.4564    0.5235 N   0  0  0  0  0  0  0  0  0  0  0  0
    2.5273    3.6151    0.3012 N   0  0  0  0  0  0  0  0  0  0  0  0
    1.7319    5.8826    0.7046 C   0  0  0  0  0  0  0  0  0  0  0  0
    0.4314    6.5396    1.2001 C   0  0  0  0  0  0  0  0  0  0  0  0
   -0.7599    6.0848    0.4886 N   0  0  0  0  0  0  0  0  0  0  0  0
   -0.8547    6.5201   -0.9029 C   0  0  0  0  0  0  0  0  0  0  0  0
   -1.0356    8.0201   -1.0447 C   0  0  0  0  0  0  0  0  0  0  0  0
   -0.3541    8.7361   -2.0379 C   0  0  0  0  0  0  0  0  0  0  0  0
   -0.5592   10.1084   -2.2042 C   0  0  0  0  0  0  0  0  0  0  0  0
   -1.4496   10.7911   -1.3689 C   0  0  0  0  0  0  0  0  0  0  0  0
   -1.6394   12.2820   -1.5108 C   0  0  1  0  0  0  0  0  0  0  0  0
   -1.4289   12.6756   -2.7973 F   0  0  0  0  0  0  0  0  0  0  0  0
   -2.9061   12.6415   -1.1622 F   0  0  0  0  0  0  0  0  0  0  0  0
   -2.1329   10.0844   -0.3693 C   0  0  0  0  0  0  0  0  0  0  0  0
   -1.9270    8.7144   -0.2110 C   0  0  0  0  0  0  0  0  0  0  0  0
   -0.9566    4.6519    0.6944 C   0  0  0  0  0  0  0  0  0  0  0  0
    4.1649    1.4820    0.2448 N   0  0  0  0  0  0  0  0  0  0  0  0
    5.2495    0.7069   -0.3289 C   0  0  0  0  0  0  0  0  0  0  0  0
    4.8096   -0.7338   -0.4112 C   0  0  0  0  0  0  0  0  0  0  0  0
    3.5028   -1.0097   -0.5991 C   0  0  0  0  0  0  0  0  0  0  0  0
    0.6120    0.4464   -1.6737 H   0  0  0  0  0  0  0  0  0  0  0  0
    0.3970   -0.5570   -0.2231 H   0  0  0  0  0  0  0  0  0  0  0  0
    1.1109   -1.2516   -1.6858 H   0  0  0  0  0  0  0  0  0  0  0  0
   -0.1924    1.7284    0.0494 H   0  0  0  0  0  0  0  0  0  0  0  0
    2.0649    6.3192   -0.2529 H   0  0  0  0  0  0  0  0  0  0  0  0
    2.5481    6.0261    1.4291 H   0  0  0  0  0  0  0  0  0  0  0  0
    0.5224    7.6327    1.1144 H   0  0  0  0  0  0  0  0  0  0  0  0
    0.2917    6.3103    2.2704 H   0  0  0  0  0  0  0  0  0  0  0  0
   -1.7397    6.0206   -1.3344 H   0  0  0  0  0  0  0  0  0  0  0  0
    0.0039    6.1985   -1.5305 H   0  0  0  0  0  0  0  0  0  0  0  0
    0.3443    8.2132   -2.6979 H   0  0  0  0  0  0  0  0  0  0  0  0
   -0.0295   10.6505   -2.9899 H   0  0  0  0  0  0  0  0  0  0  0  0
   -0.9472   12.8636   -0.8729 H   0  0  0  0  0  0  0  0  0  0  0  0
   -2.8381   10.6105    0.2775 H   0  0  0  0  0  0  0  0  0  0  0  0
   -2.4560    8.1639    0.5702 H   0  0  0  0  0  0  0  0  0  0  0  0
   -1.7795    4.2941    0.0577 H   0  0  0  0  0  0  0  0  0  0  0  0
   -1.2789    4.4926    1.7407 H   0  0  0  0  0  0  0  0  0  0  0  0
    4.3607    2.4450    0.4969 H   0  0  0  0  0  0  0  0  0  0  0  0
    6.1404    0.8148    0.3128 H   0  0  0  0  0  0  0  0  0  0  0  0
    5.5510    1.0818   -1.3410 H   0  0  0  0  0  0  0  0  0  0  0  0
    5.5619   -1.5260   -0.3723 H   0  0  0  0  0  0  0  0  0  0  0  0
    3.1803   -2.0494   -0.7222 H   0  0  0  0  0  0  0  0  0  0  0  0
  1  2  1  0
  1 27  1  0
  1 28  1  0
  1 29  1  0
  2  3  2  0
  2 26  1  0
  3  4  1  0
  3 23  1  0
  4  5  1  0
  4  8  2  0
  5  6  2  0
  5 30  1  0
  6  7  1  0
  6 22  1  0
  7  8  1  0
  7  9  1  0
  9 10  1  0
  9 31  1  0
  9 32  1  0
 10 11  1  0
 10 33  1  0
 10 34  1  0
 11 12  1  0
 11 22  1  0
 12 13  1  0
 12 35  1  0
 12 36  1  0
 13 14  2  0
 13 21  1  0
 14 15  1  0
 14 37  1  0
 15 16  2  0
 15 38  1  0
 16 17  1  0
 16 20  1  0
 17 18  1  0
 17 19  1  0
 17 39  1  1
 20 21  2  0
 20 40  1  0
 21 41  1  0
 22 42  1  0
 22 43  1  0
 23 24  1  0
 23 44  1  0
 24 25  1  0
 24 45  1  0
 24 46  1  0
 25 26  2  0
 25 47  1  0
 26 48  1  0
M  END

