
     RDKit          3D

 76 81  0  0  0  0  0  0  0  0999 V2000
    5.6897   -2.8403    2.3768 C   0  0  0  0  0  0  0  0  0  0  0  0
    5.8273   -2.0337    1.0760 C   0  0  0  0  0  0  0  0  0  0  0  0
    5.5207   -2.8397   -0.1680 C   0  0  0  0  0  0  0  0  0  0  0  0
    4.2167   -2.9345   -0.6759 C   0  0  0  0  0  0  0  0  0  0  0  0
    3.9027   -3.7035   -1.7985 C   0  0  0  0  0  0  0  0  0  0  0  0
    4.9185   -4.4166   -2.4584 C   0  0  0  0  0  0  0  0  0  0  0  0
    4.7129   -5.2219   -3.5981 N   0  0  0  0  0  0  0  0  0  0  0  0
    3.5312   -5.4469   -4.2854 C   0  0  0  0  0  0  0  0  0  0  0  0
    2.4587   -4.9833   -3.9301 O   0  0  0  0  0  0  0  0  0  0  0  0
    3.6419   -6.2411   -5.4273 N   0  0  0  0  0  0  0  0  0  0  0  0
    2.4073   -6.6625   -6.0772 C   0  0  0  0  0  0  0  0  0  0  0  0
    2.0961   -8.1539   -5.8977 C   0  0  0  0  0  0  0  0  0  0  0  0
    3.0289   -9.1320   -6.6211 C   0  0  0  0  0  0  0  0  0  0  0  0
    4.3105   -9.4046   -5.9486 N   0  0  0  0  0  0  0  0  0  0  0  0
    4.9542  -10.5764   -6.2714 C   0  0  0  0  0  0  0  0  0  0  0  0
    4.4969  -11.2280   -7.3490 N   0  0  0  0  0  0  0  0  0  0  0  0
    5.1166  -12.3256   -7.8040 C   0  0  0  0  0  0  0  0  0  0  0  0
    4.4873  -13.0121   -8.9998 C   0  0  0  0  0  0  0  0  0  0  0  0
    3.3175  -13.8945   -8.5953 C   0  0  0  0  0  0  0  0  0  0  0  0
    1.9950  -13.4991   -8.8419 C   0  0  0  0  0  0  0  0  0  0  0  0
    0.9212  -14.3058   -8.4512 C   0  0  0  0  0  0  0  0  0  0  0  0
    1.1563  -15.5210   -7.8026 C   0  0  0  0  0  0  0  0  0  0  0  0
    2.4717  -15.9234   -7.5476 C   0  0  0  0  0  0  0  0  0  0  0  0
    3.5421  -15.1164   -7.9398 C   0  0  0  0  0  0  0  0  0  0  0  0
    6.2174  -12.8716   -7.2937 N   0  0  0  0  0  0  0  0  0  0  0  0
    6.6421  -12.2802   -6.1706 C   0  0  0  0  0  0  0  0  0  0  0  0
    6.0601  -11.1408   -5.5521 C   0  0  0  0  0  0  0  0  0  0  0  0
    6.7787  -11.0161   -4.3039 C   0  0  0  0  0  0  0  0  0  0  0  0
    6.5956  -10.1077   -3.1240 C   0  0  0  0  0  0  0  0  0  0  0  0
    7.7093  -11.9451   -4.2262 N   0  0  0  0  0  0  0  0  0  0  0  0
    7.6607  -12.7053   -5.3527 N   0  0  0  0  0  0  0  0  0  0  0  0
    8.5639  -13.7972   -5.4942 C   0  0  0  0  0  0  0  0  0  0  0  0
    9.3681  -14.1553   -4.3994 C   0  0  0  0  0  0  0  0  0  0  0  0
   10.2690  -15.2135   -4.5179 C   0  0  0  0  0  0  0  0  0  0  0  0
   10.3800  -15.9254   -5.7164 C   0  0  0  0  0  0  0  0  0  0  0  0
    9.5773  -15.5631   -6.8008 C   0  0  0  0  0  0  0  0  0  0  0  0
    8.6713  -14.5040   -6.7026 C   0  0  0  0  0  0  0  0  0  0  0  0
    5.0291   -8.3390   -5.2541 C   0  0  0  0  0  0  0  0  0  0  0  0
    4.8419   -6.9314   -5.8580 C   0  0  0  0  0  0  0  0  0  0  0  0
    6.2321   -4.3289   -1.9619 C   0  0  0  0  0  0  0  0  0  0  0  0
    6.5231   -3.5564   -0.8392 C   0  0  0  0  0  0  0  0  0  0  0  0
    5.9195   -2.2179    3.2571 H   0  0  0  0  0  0  0  0  0  0  0  0
    6.3747   -3.7036    2.3835 H   0  0  0  0  0  0  0  0  0  0  0  0
    4.6662   -3.2309    2.4951 H   0  0  0  0  0  0  0  0  0  0  0  0
    6.8518   -1.6300    1.0067 H   0  0  0  0  0  0  0  0  0  0  0  0
    5.1547   -1.1602    1.1189 H   0  0  0  0  0  0  0  0  0  0  0  0
    3.4098   -2.3842   -0.1820 H   0  0  0  0  0  0  0  0  0  0  0  0
    2.8842   -3.7579   -2.1739 H   0  0  0  0  0  0  0  0  0  0  0  0
    5.5544   -5.6582   -3.9450 H   0  0  0  0  0  0  0  0  0  0  0  0
    2.4755   -6.4324   -7.1573 H   0  0  0  0  0  0  0  0  0  0  0  0
    1.6000   -6.0539   -5.6542 H   0  0  0  0  0  0  0  0  0  0  0  0
    1.0883   -8.3260   -6.3120 H   0  0  0  0  0  0  0  0  0  0  0  0
    2.0312   -8.3998   -4.8241 H   0  0  0  0  0  0  0  0  0  0  0  0
    3.2023   -8.7822   -7.6570 H   0  0  0  0  0  0  0  0  0  0  0  0
    2.5278  -10.1009   -6.7305 H   0  0  0  0  0  0  0  0  0  0  0  0
    5.2626  -13.6164   -9.4921 H   0  0  0  0  0  0  0  0  0  0  0  0
    4.1402  -12.2415   -9.7028 H   0  0  0  0  0  0  0  0  0  0  0  0
    1.8048  -12.5496   -9.3499 H   0  0  0  0  0  0  0  0  0  0  0  0
   -0.1031  -13.9833   -8.6565 H   0  0  0  0  0  0  0  0  0  0  0  0
    0.3185  -16.1536   -7.4981 H   0  0  0  0  0  0  0  0  0  0  0  0
    2.6652  -16.8729   -7.0413 H   0  0  0  0  0  0  0  0  0  0  0  0
    4.5683  -15.4315   -7.7318 H   0  0  0  0  0  0  0  0  0  0  0  0
    5.5361  -10.0179   -2.8410 H   0  0  0  0  0  0  0  0  0  0  0  0
    6.9810   -9.0917   -3.3038 H   0  0  0  0  0  0  0  0  0  0  0  0
    7.1503  -10.5272   -2.2740 H   0  0  0  0  0  0  0  0  0  0  0  0
    9.2765  -13.5936   -3.4712 H   0  0  0  0  0  0  0  0  0  0  0  0
   10.8897  -15.4837   -3.6597 H   0  0  0  0  0  0  0  0  0  0  0  0
   11.0864  -16.7545   -5.8036 H   0  0  0  0  0  0  0  0  0  0  0  0
    9.6535  -16.1087   -7.7450 H   0  0  0  0  0  0  0  0  0  0  0  0
    8.0402  -14.2284   -7.5444 H   0  0  0  0  0  0  0  0  0  0  0  0
    6.0981   -8.5854   -5.2989 H   0  0  0  0  0  0  0  0  0  0  0  0
    4.7509   -8.2828   -4.1876 H   0  0  0  0  0  0  0  0  0  0  0  0
    4.8347   -6.9956   -6.9590 H   0  0  0  0  0  0  0  0  0  0  0  0
    5.7325   -6.3290   -5.6234 H   0  0  0  0  0  0  0  0  0  0  0  0
    7.0397   -4.8698   -2.4665 H   0  0  0  0  0  0  0  0  0  0  0  0
    7.5563   -3.5068   -0.4825 H   0  0  0  0  0  0  0  0  0  0  0  0
  1  2  1  0
  1 42  1  0
  1 43  1  0
  1 44  1  0
  2  3  1  0
  2 45  1  0
  2 46  1  0
  3  4  2  0
  3 41  1  0
  4  5  1  0
  4 47  1  0
  5  6  2  0
  5 48  1  0
  6  7  1  0
  6 40  1  0
  7  8  1  0
  7 49  1  0
  8  9  2  0
  8 10  1  0
 10 11  1  0
 10 39  1  0
 11 12  1  0
 11 50  1  0
 11 51  1  0
 12 13  1  0
 12 52  1  0
 12 53  1  0
 13 14  1  0
 13 54  1  0
 13 55  1  0
 14 15  1  0
 14 38  1  0
 15 16  2  0
 15 27  1  0
 16 17  1  0
 17 18  1  0
 17 25  2  0
 18 19  1  0
 18 56  1  0
 18 57  1  0
 19 20  2  0
 19 24  1  0
 20 21  1  0
 20 58  1  0
 21 22  2  0
 21 59  1  0
 22 23  1  0
 22 60  1  0
 23 24  2  0
 23 61  1  0
 24 62  1  0
 25 26  1  0
 26 27  2  0
 26 31  1  0
 27 28  1  0
 28 29  1  0
 28 30  2  0
 29 63  1  0
 29 64  1  0
 29 65  1  0
 30 31  1  0
 31 32  1  0
 32 33  2  0
 32 37  1  0
 33 34  1  0
 33 66  1  0
 34 35  2  0
 34 67  1  0
 35 36  1  0
 35 68  1  0
 36 37  2  0
 36 69  1  0
 37 70  1  0
 38 39  1  0
 38 71  1  0
 38 72  1  0
 39 73  1  0
 39 74  1  0
 40 41  2  0
 40 75  1  0
 41 76  1  0
M  END

