
     RDKit          3D

 70 77  0  0  0  0  0  0  0  0999 V2000
    2.7461   -2.7350   -1.3745 C   0  0  0  0  0  0  0  0  0  0  0  0
    2.6162   -3.4983   -2.4855 C   0  0  0  0  0  0  0  0  0  0  0  0
    2.5223   -3.0619   -3.8790 C   0  0  0  0  0  0  0  0  0  0  0  0
    3.0177   -3.9255   -4.8807 C   0  0  0  0  0  0  0  0  0  0  0  0
    3.0389   -3.5520   -6.2211 C   0  0  0  0  0  0  0  0  0  0  0  0
    2.5521   -2.2941   -6.5959 C   0  0  0  0  0  0  0  0  0  0  0  0
    2.0216   -1.4431   -5.6279 C   0  0  0  0  0  0  0  0  0  0  0  0
    1.9735   -1.8143   -4.2722 C   0  0  0  0  0  0  0  0  0  0  0  0
    1.3311   -0.8958   -3.2896 C   0  0  0  0  0  0  0  0  0  0  0  0
    0.0560   -0.4405   -3.3836 C   0  0  0  0  0  0  0  0  0  0  0  0
   -1.0331   -0.7921   -4.3096 C   0  0  0  0  0  0  0  0  0  0  0  0
   -1.1487   -2.0298   -4.9767 C   0  0  0  0  0  0  0  0  0  0  0  0
   -2.2329   -2.3023   -5.8059 C   0  0  0  0  0  0  0  0  0  0  0  0
   -3.2575   -1.3582   -6.0195 C   0  0  0  0  0  0  0  0  0  0  0  0
   -4.4069   -1.6502   -6.9107 C   0  0  0  0  0  0  0  0  0  0  0  0
   -4.9271   -2.9539   -7.0370 C   0  0  0  0  0  0  0  0  0  0  0  0
   -6.0120   -3.2275   -7.8662 C   0  0  0  0  0  0  0  0  0  0  0  0
   -6.6345   -2.2078   -8.6143 C   0  0  0  0  0  0  0  0  0  0  0  0
   -7.7409   -2.4551   -9.5468 C   0  0  0  0  0  0  0  0  0  0  0  0
   -8.8234   -3.2744   -9.4637 C   0  0  0  0  0  0  0  0  0  0  0  0
   -9.7462   -3.4981  -10.6067 C   0  0  0  0  0  0  0  0  0  0  0  0
   -9.7206   -2.9975  -11.9110 C   0  0  0  0  0  0  0  0  0  0  0  0
  -10.7136   -3.3941  -12.8142 C   0  0  0  0  0  0  0  0  0  0  0  0
  -11.7189   -4.2905  -12.4241 C   0  0  0  0  0  0  0  0  0  0  0  0
  -11.7488   -4.8023  -11.1222 C   0  0  0  0  0  0  0  0  0  0  0  0
  -10.7631   -4.4027  -10.2164 C   0  0  0  0  0  0  0  0  0  0  0  0
  -10.5473   -4.7496   -8.8061 C   0  0  0  0  0  0  0  0  0  0  0  0
  -11.3023   -5.5532   -7.9495 C   0  0  0  0  0  0  0  0  0  0  0  0
  -10.9158   -5.6702   -6.6104 C   0  0  0  0  0  0  0  0  0  0  0  0
   -9.7954   -4.9764   -6.1354 C   0  0  0  0  0  0  0  0  0  0  0  0
   -9.0294   -4.1763   -6.9915 C   0  0  0  0  0  0  0  0  0  0  0  0
   -9.3863   -4.0711   -8.3416 C   0  0  0  0  0  0  0  0  0  0  0  0
   -6.0886   -0.9106   -8.5181 C   0  0  0  0  0  0  0  0  0  0  0  0
   -5.0142   -0.6355   -7.6772 C   0  0  0  0  0  0  0  0  0  0  0  0
   -3.1517   -0.1287   -5.3417 C   0  0  0  0  0  0  0  0  0  0  0  0
   -2.0744    0.1397   -4.5014 C   0  0  0  0  0  0  0  0  0  0  0  0
    2.1969   -0.3872   -2.1860 C   0  0  0  0  0  0  0  0  0  0  0  0
    2.3546    0.9983   -2.0045 C   0  0  0  0  0  0  0  0  0  0  0  0
    3.0768    1.5159   -0.9292 C   0  0  0  0  0  0  0  0  0  0  0  0
    3.6523    0.6446    0.0015 C   0  0  0  0  0  0  0  0  0  0  0  0
    3.5112   -0.7299   -0.1671 C   0  0  0  0  0  0  0  0  0  0  0  0
    2.8121   -1.2767   -1.2647 C   0  0  0  0  0  0  0  0  0  0  0  0
    2.9174   -3.2704   -0.4344 H   0  0  0  0  0  0  0  0  0  0  0  0
    2.6957   -4.5818   -2.3460 H   0  0  0  0  0  0  0  0  0  0  0  0
    3.4124   -4.9009   -4.5830 H   0  0  0  0  0  0  0  0  0  0  0  0
    3.4412   -4.2353   -6.9732 H   0  0  0  0  0  0  0  0  0  0  0  0
    2.5727   -1.9830   -7.6433 H   0  0  0  0  0  0  0  0  0  0  0  0
    1.6145   -0.4728   -5.9202 H   0  0  0  0  0  0  0  0  0  0  0  0
   -0.2348    0.3041   -2.6339 H   0  0  0  0  0  0  0  0  0  0  0  0
   -0.3854   -2.7950   -4.8372 H   0  0  0  0  0  0  0  0  0  0  0  0
   -2.2737   -3.2666   -6.3173 H   0  0  0  0  0  0  0  0  0  0  0  0
   -4.4827   -3.7694   -6.4621 H   0  0  0  0  0  0  0  0  0  0  0  0
   -6.3722   -4.2537   -7.9552 H   0  0  0  0  0  0  0  0  0  0  0  0
   -7.6655   -1.8730  -10.4730 H   0  0  0  0  0  0  0  0  0  0  0  0
   -8.9388   -2.3054  -12.2344 H   0  0  0  0  0  0  0  0  0  0  0  0
  -10.7031   -3.0031  -13.8348 H   0  0  0  0  0  0  0  0  0  0  0  0
  -12.4841   -4.5924  -13.1439 H   0  0  0  0  0  0  0  0  0  0  0  0
  -12.5329   -5.5027  -10.8234 H   0  0  0  0  0  0  0  0  0  0  0  0
  -12.1910   -6.0742   -8.3147 H   0  0  0  0  0  0  0  0  0  0  0  0
  -11.4978   -6.2954   -5.9284 H   0  0  0  0  0  0  0  0  0  0  0  0
   -9.5141   -5.0572   -5.0823 H   0  0  0  0  0  0  0  0  0  0  0  0
   -8.1715   -3.6360   -6.5928 H   0  0  0  0  0  0  0  0  0  0  0  0
   -6.5234   -0.1037   -9.1145 H   0  0  0  0  0  0  0  0  0  0  0  0
   -4.6165    0.3810   -7.6381 H   0  0  0  0  0  0  0  0  0  0  0  0
   -3.9423    0.6176   -5.4476 H   0  0  0  0  0  0  0  0  0  0  0  0
   -2.0350    1.0969   -3.9738 H   0  0  0  0  0  0  0  0  0  0  0  0
    1.8956    1.6766   -2.7274 H   0  0  0  0  0  0  0  0  0  0  0  0
    3.1825    2.5975   -0.8133 H   0  0  0  0  0  0  0  0  0  0  0  0
    4.2104    1.0369    0.8553 H   0  0  0  0  0  0  0  0  0  0  0  0
    3.9599   -1.4131    0.5594 H   0  0  0  0  0  0  0  0  0  0  0  0
  1  2  2  0
  1 42  1  0
  1 43  1  0
  2  3  1  0
  2 44  1  0
  3  4  2  0
  3  8  1  0
  4  5  1  0
  4 45  1  0
  5  6  2  0
  5 46  1  0
  6  7  1  0
  6 47  1  0
  7  8  2  0
  7 48  1  0
  8  9  1  0
  9 10  2  0
  9 37  1  0
 10 11  1  0
 10 49  1  0
 11 12  2  0
 11 36  1  0
 12 13  1  0
 12 50  1  0
 13 14  2  0
 13 51  1  0
 14 15  1  0
 14 35  1  0
 15 16  2  0
 15 34  1  0
 16 17  1  0
 16 52  1  0
 17 18  2  0
 17 53  1  0
 18 19  1  0
 18 33  1  0
 19 20  2  0
 19 54  1  0
 20 21  1  0
 20 32  1  0
 21 22  2  0
 21 26  1  0
 22 23  1  0
 22 55  1  0
 23 24  2  0
 23 56  1  0
 24 25  1  0
 24 57  1  0
 25 26  2  0
 25 58  1  0
 26 27  1  0
 27 28  2  0
 27 32  1  0
 28 29  1  0
 28 59  1  0
 29 30  2  0
 29 60  1  0
 30 31  1  0
 30 61  1  0
 31 32  2  0
 31 62  1  0
 33 34  2  0
 33 63  1  0
 34 64  1  0
 35 36  2  0
 35 65  1  0
 36 66  1  0
 37 38  2  0
 37 42  1  0
 38 39  1  0
 38 67  1  0
 39 40  2  0
 39 68  1  0
 40 41  1  0
 40 69  1  0
 41 42  2  0
 41 70  1  0
M  END

