
     RDKit          3D

 30 29  0  0  0  0  0  0  0  0999 V2000
    0.6894    0.0701   -0.0665 C   0  0  0  0  0  0  0  0  0  0  0  0
    2.2154    0.0477   -0.1677 C   0  0  0  0  0  0  0  0  0  0  0  0
    2.7610    1.1732   -1.0518 C   0  0  0  0  0  0  0  0  0  0  0  0
    4.2158    1.2777   -1.0605 N   0  0  0  0  0  0  0  0  0  0  0  0
    4.9368    0.1520   -1.6477 C   0  0  0  0  0  0  0  0  0  0  0  0
    4.7732   -0.0700   -3.1603 C   0  0  0  0  0  0  0  0  0  0  0  0
    4.7049    2.5870   -1.4775 C   0  0  0  0  0  0  0  0  0  0  0  0
    4.4384    3.6574   -0.4523 C   0  0  0  0  0  0  0  0  0  0  0  0
    3.8699    4.8442   -0.7043 C   0  0  0  0  0  0  0  0  0  0  0  0
    3.6587    5.9171    0.3163 C   0  0  0  0  0  0  0  0  0  0  0  0
    4.5636    7.4830   -0.0717 S   0  0  0  0  0  0  0  0  0  0  0  0
    0.3163   -0.7501    0.5669 H   0  0  0  0  0  0  0  0  0  0  0  0
    0.2174   -0.0368   -1.0578 H   0  0  0  0  0  0  0  0  0  0  0  0
    0.3281    1.0169    0.3691 H   0  0  0  0  0  0  0  0  0  0  0  0
    2.5354   -0.9343   -0.5566 H   0  0  0  0  0  0  0  0  0  0  0  0
    2.6685    0.1445    0.8339 H   0  0  0  0  0  0  0  0  0  0  0  0
    2.3703    2.1297   -0.6676 H   0  0  0  0  0  0  0  0  0  0  0  0
    2.3369    1.0704   -2.0782 H   0  0  0  0  0  0  0  0  0  0  0  0
    4.6388   -0.7658   -1.1153 H   0  0  0  0  0  0  0  0  0  0  0  0
    6.0079    0.2910   -1.4190 H   0  0  0  0  0  0  0  0  0  0  0  0
    3.7265   -0.2728   -3.4383 H   0  0  0  0  0  0  0  0  0  0  0  0
    5.3732   -0.9359   -3.4844 H   0  0  0  0  0  0  0  0  0  0  0  0
    5.1114    0.8027   -3.7423 H   0  0  0  0  0  0  0  0  0  0  0  0
    4.3070    2.9161   -2.4641 H   0  0  0  0  0  0  0  0  0  0  0  0
    5.7997    2.4989   -1.6034 H   0  0  0  0  0  0  0  0  0  0  0  0
    4.7586    3.4119    0.5689 H   0  0  0  0  0  0  0  0  0  0  0  0
    3.5489    5.0837   -1.7261 H   0  0  0  0  0  0  0  0  0  0  0  0
    3.9278    5.5740    1.3265 H   0  0  0  0  0  0  0  0  0  0  0  0
    2.6043    6.2385    0.3433 H   0  0  0  0  0  0  0  0  0  0  0  0
    5.8030    6.9394   -0.0748 H   0  0  0  0  0  0  0  0  0  0  0  0
  1  2  1  0
  1 12  1  0
  1 13  1  0
  1 14  1  0
  2  3  1  0
  2 15  1  0
  2 16  1  0
  3  4  1  0
  3 17  1  0
  3 18  1  0
  4  5  1  0
  4  7  1  0
  5  6  1  0
  5 19  1  0
  5 20  1  0
  6 21  1  0
  6 22  1  0
  6 23  1  0
  7  8  1  0
  7 24  1  0
  7 25  1  0
  8  9  2  0
  8 26  1  0
  9 10  1  0
  9 27  1  0
 10 11  1  0
 10 28  1  0
 10 29  1  0
 11 30  1  0
M  END

