
     RDKit          3D

 40 41  0  0  0  0  0  0  0  0999 V2000
    1.1169    4.8077    1.9898 C   0  0  0  0  0  0  0  0  0  0  0  0
   -0.1030    4.4987    2.8670 C   0  0  1  0  0  0  0  0  0  0  0  0
   -0.1774    3.0360    3.3463 C   0  0  0  0  0  0  0  0  0  0  0  0
    0.9659    2.5183    4.1088 N   0  0  0  0  0  0  0  0  0  0  0  0
    2.0663    1.8811    3.4027 C   0  0  0  0  0  0  0  0  0  0  0  0
    0.8412    2.4346    5.4743 C   0  0  0  0  0  0  0  0  0  0  0  0
   -0.0949    2.9722    6.0785 O   0  0  0  0  0  0  0  0  0  0  0  0
    1.8155    1.7406    6.1510 N   0  0  0  0  0  0  0  0  0  0  0  0
    1.7442    1.5664    7.5724 C   0  0  2  0  0  0  0  0  0  0  0  0
    1.0085    0.8300    7.9210 H   0  0  0  0  0  0  0  0  0  0  0  0
    2.0002    2.7338    8.4704 C   0  0  0  0  0  0  0  0  0  0  0  0
    3.0432    1.6411    8.3591 C   0  0  1  0  0  0  0  0  0  0  0  0
    3.9168    1.9065    7.7555 H   0  0  0  0  0  0  0  0  0  0  0  0
    3.3463    0.6868    9.4656 C   0  0  0  0  0  0  0  0  0  0  0  0
    4.6522    0.1919    9.6166 C   0  0  0  0  0  0  0  0  0  0  0  0
    4.9813   -0.7085   10.6324 C   0  0  0  0  0  0  0  0  0  0  0  0
    3.9892   -1.1295   11.5203 C   0  0  0  0  0  0  0  0  0  0  0  0
    4.4219   -2.3602   12.9121 Br  0  0  0  0  0  0  0  0  0  0  0  0
    2.6812   -0.6531   11.3977 C   0  0  0  0  0  0  0  0  0  0  0  0
    2.3704    0.2487   10.3783 C   0  0  0  0  0  0  0  0  0  0  0  0
   -0.2896    5.6318    3.9110 C   0  0  0  0  0  0  0  0  0  0  0  0
   -0.1453    6.7795    3.5626 O   0  0  0  0  0  0  0  0  0  0  0  0
   -0.6859    5.3352    5.1424 O   0  0  0  0  0  0  0  0  0  0  0  0
    1.1640    4.1367    1.1166 H   0  0  0  0  0  0  0  0  0  0  0  0
    2.0558    4.7086    2.5579 H   0  0  0  0  0  0  0  0  0  0  0  0
    1.0555    5.8438    1.6331 H   0  0  0  0  0  0  0  0  0  0  0  0
   -0.9999    4.6209    2.2298 H   0  0  0  0  0  0  0  0  0  0  0  0
   -0.2954    2.3956    2.4563 H   0  0  0  0  0  0  0  0  0  0  0  0
   -1.0782    2.8916    3.9587 H   0  0  0  0  0  0  0  0  0  0  0  0
    2.0542    2.1890    2.3514 H   0  0  0  0  0  0  0  0  0  0  0  0
    2.0039    0.7750    3.4271 H   0  0  0  0  0  0  0  0  0  0  0  0
    3.0384    2.1884    3.8209 H   0  0  0  0  0  0  0  0  0  0  0  0
    2.4047    1.0945    5.6405 H   0  0  0  0  0  0  0  0  0  0  0  0
    1.4143    2.8022    9.3904 H   0  0  0  0  0  0  0  0  0  0  0  0
    2.2212    3.6943    7.9998 H   0  0  0  0  0  0  0  0  0  0  0  0
    5.4346    0.5186    8.9259 H   0  0  0  0  0  0  0  0  0  0  0  0
    6.0027   -1.0793   10.7328 H   0  0  0  0  0  0  0  0  0  0  0  0
    1.9098   -0.9818   12.0961 H   0  0  0  0  0  0  0  0  0  0  0  0
    1.3428    0.6138   10.3054 H   0  0  0  0  0  0  0  0  0  0  0  0
   -0.5716    4.3873    5.4284 H   0  0  0  0  0  0  0  0  0  0  0  0
  1  2  1  0
  1 24  1  0
  1 25  1  0
  1 26  1  0
  2  3  1  0
  2 21  1  0
  2 27  1  6
  3  4  1  0
  3 28  1  0
  3 29  1  0
  4  5  1  0
  4  6  1  0
  5 30  1  0
  5 31  1  0
  5 32  1  0
  6  7  2  0
  6  8  1  0
  8  9  1  0
  8 33  1  0
  9 10  1  6
  9 11  1  0
  9 12  1  0
 11 12  1  0
 11 34  1  0
 11 35  1  0
 12 13  1  6
 12 14  1  0
 14 15  2  0
 14 20  1  0
 15 16  1  0
 15 36  1  0
 16 17  2  0
 16 37  1  0
 17 18  1  0
 17 19  1  0
 19 20  2  0
 19 38  1  0
 20 39  1  0
 21 22  2  0
 21 23  1  0
 23 40  1  0
M  END

