
     RDKit          3D

 56 58  0  0  0  0  0  0  0  0999 V2000
    4.8205    0.8987    5.2982 C   0  0  0  0  0  0  0  0  0  0  0  0
    4.2665    0.0918    4.1431 C   0  0  0  0  0  0  0  0  0  0  0  0
    3.4229    0.5250    3.3916 O   0  0  0  0  0  0  0  0  0  0  0  0
    4.8530   -1.3130    3.9395 C   0  0  0  0  0  0  0  0  0  0  0  0
    6.0813   -1.2650    3.0499 C   0  0  0  0  0  0  0  0  0  0  0  0
    7.3487   -1.6303    3.5328 C   0  0  0  0  0  0  0  0  0  0  0  0
    8.4698   -1.5745    2.7077 C   0  0  0  0  0  0  0  0  0  0  0  0
    8.3602   -1.1440    1.3749 C   0  0  0  0  0  0  0  0  0  0  0  0
    9.6127   -1.1149    0.5407 C   0  0  0  0  0  0  0  0  0  0  0  0
   10.6689   -1.4944    1.0035 O   0  0  0  0  0  0  0  0  0  0  0  0
    9.5016   -0.6096   -0.9034 C   0  0  0  0  0  0  0  0  0  0  0  0
   10.8175   -0.4697   -1.6283 C   0  0  0  0  0  0  0  0  0  0  0  0
   11.3263    0.7957   -1.9530 C   0  0  0  0  0  0  0  0  0  0  0  0
   12.5431    0.9176   -2.6278 C   0  0  0  0  0  0  0  0  0  0  0  0
   13.2641   -0.2242   -2.9828 C   0  0  0  0  0  0  0  0  0  0  0  0
   12.7783   -1.5010   -2.6631 C   0  0  0  0  0  0  0  0  0  0  0  0
   13.5545   -2.7367   -3.0493 C   0  0  0  0  0  0  0  0  0  0  0  0
   12.8721   -3.6434   -4.0870 C   0  0  0  0  0  0  0  0  0  0  0  0
   11.6701   -3.6676   -4.2245 O   0  0  0  0  0  0  0  0  0  0  0  0
   13.7848   -4.5451   -4.9083 C   0  0  0  0  0  0  0  0  0  0  0  0
   14.5611   -5.5816   -4.0796 C   0  0  1  0  0  0  0  0  0  0  0  0
   13.6878   -6.5881   -3.3082 C   0  0  0  0  0  0  0  0  0  0  0  0
   14.6541   -7.7302   -2.9259 C   0  0  0  0  0  0  0  0  0  0  0  0
   15.8083   -7.6765   -3.9717 C   0  0  0  0  0  0  0  0  0  0  0  0
   15.4610   -6.5074   -4.9183 C   0  0  0  0  0  0  0  0  0  0  0  0
   11.5551   -1.6056   -1.9873 C   0  0  0  0  0  0  0  0  0  0  0  0
    7.0927   -0.7736    0.8916 C   0  0  0  0  0  0  0  0  0  0  0  0
    5.9707   -0.8335    1.7175 C   0  0  0  0  0  0  0  0  0  0  0  0
    4.4332    1.9252    5.2609 H   0  0  0  0  0  0  0  0  0  0  0  0
    5.9225    0.9069    5.2698 H   0  0  0  0  0  0  0  0  0  0  0  0
    4.5276    0.4303    6.2534 H   0  0  0  0  0  0  0  0  0  0  0  0
    4.0667   -1.9196    3.4642 H   0  0  0  0  0  0  0  0  0  0  0  0
    5.1110   -1.7666    4.9084 H   0  0  0  0  0  0  0  0  0  0  0  0
    7.4550   -1.9717    4.5665 H   0  0  0  0  0  0  0  0  0  0  0  0
    9.4563   -1.8646    3.0744 H   0  0  0  0  0  0  0  0  0  0  0  0
    8.9642    0.3525   -0.8969 H   0  0  0  0  0  0  0  0  0  0  0  0
    8.8395   -1.3143   -1.4394 H   0  0  0  0  0  0  0  0  0  0  0  0
   10.7654    1.6933   -1.6765 H   0  0  0  0  0  0  0  0  0  0  0  0
   12.9314    1.9082   -2.8788 H   0  0  0  0  0  0  0  0  0  0  0  0
   14.2161   -0.1233   -3.5121 H   0  0  0  0  0  0  0  0  0  0  0  0
   13.7142   -3.3765   -2.1606 H   0  0  0  0  0  0  0  0  0  0  0  0
   14.5621   -2.4695   -3.4048 H   0  0  0  0  0  0  0  0  0  0  0  0
   14.5030   -3.9072   -5.4550 H   0  0  0  0  0  0  0  0  0  0  0  0
   13.1499   -5.0542   -5.6505 H   0  0  0  0  0  0  0  0  0  0  0  0
   15.2064   -5.0518   -3.3532 H   0  0  0  0  0  0  0  0  0  0  0  0
   12.8963   -6.9596   -3.9827 H   0  0  0  0  0  0  0  0  0  0  0  0
   13.1783   -6.1474   -2.4364 H   0  0  0  0  0  0  0  0  0  0  0  0
   14.1451   -8.7061   -2.9122 H   0  0  0  0  0  0  0  0  0  0  0  0
   15.0511   -7.5728   -1.9103 H   0  0  0  0  0  0  0  0  0  0  0  0
   15.9230   -8.6243   -4.5196 H   0  0  0  0  0  0  0  0  0  0  0  0
   16.7708   -7.4890   -3.4694 H   0  0  0  0  0  0  0  0  0  0  0  0
   14.8829   -6.8732   -5.7854 H   0  0  0  0  0  0  0  0  0  0  0  0
   16.3506   -5.9949   -5.3183 H   0  0  0  0  0  0  0  0  0  0  0  0
   11.1670   -2.5953   -1.7402 H   0  0  0  0  0  0  0  0  0  0  0  0
    6.9668   -0.4370   -0.1389 H   0  0  0  0  0  0  0  0  0  0  0  0
    4.9925   -0.5358    1.3319 H   0  0  0  0  0  0  0  0  0  0  0  0
  1  2  1  0
  1 29  1  0
  1 30  1  0
  1 31  1  0
  2  3  2  0
  2  4  1  0
  4  5  1  0
  4 32  1  0
  4 33  1  0
  5  6  2  0
  5 28  1  0
  6  7  1  0
  6 34  1  0
  7  8  2  0
  7 35  1  0
  8  9  1  0
  8 27  1  0
  9 10  2  0
  9 11  1  0
 11 12  1  0
 11 36  1  0
 11 37  1  0
 12 13  2  0
 12 26  1  0
 13 14  1  0
 13 38  1  0
 14 15  2  0
 14 39  1  0
 15 16  1  0
 15 40  1  0
 16 17  1  0
 16 26  2  0
 17 18  1  0
 17 41  1  0
 17 42  1  0
 18 19  2  0
 18 20  1  0
 20 21  1  0
 20 43  1  0
 20 44  1  0
 21 22  1  0
 21 25  1  0
 21 45  1  1
 22 23  1  0
 22 46  1  0
 22 47  1  0
 23 24  1  0
 23 48  1  0
 23 49  1  0
 24 25  1  0
 24 50  1  0
 24 51  1  0
 25 52  1  0
 25 53  1  0
 26 54  1  0
 27 28  2  0
 27 55  1  0
 28 56  1  0
M  END

