
     RDKit          3D

 45 46  0  0  0  0  0  0  0  0999 V2000
    0.6489   -0.5490    0.5430 C   0  0  0  0  0  0  0  0  0  0  0  0
    2.0033   -0.8955    1.0821 C   0  0  0  0  0  0  0  0  0  0  0  0
    2.4503   -0.8391    2.3835 C   0  0  0  0  0  0  0  0  0  0  0  0
    3.8047   -1.2456    2.5415 C   0  0  0  0  0  0  0  0  0  0  0  0
    4.4033   -1.6131    1.3586 C   0  0  0  0  0  0  0  0  0  0  0  0
    5.8138   -2.0762    1.2406 C   0  0  0  0  0  0  0  0  0  0  0  0
    6.5133   -2.2224    2.2341 O   0  0  0  0  0  0  0  0  0  0  0  0
    6.2791   -2.3283   -0.0223 N   0  0  0  0  0  0  0  0  0  0  0  0
    7.6630   -2.7389   -0.2613 C   0  0  1  0  0  0  0  0  0  0  0  0
    7.8861   -4.2266    0.0757 C   0  0  0  0  0  0  0  0  0  0  0  0
    7.1950   -5.1485   -0.9334 C   0  0  0  0  0  0  0  0  0  0  0  0
    7.6062   -4.8349   -2.2996 N   0  0  0  0  0  0  0  0  0  0  0  0
    8.0862   -5.7277   -3.2338 C   0  0  0  0  0  0  0  0  0  0  0  0
    8.3358   -5.3768   -4.3790 O   0  0  0  0  0  0  0  0  0  0  0  0
    8.2823   -7.1795   -2.7880 C   0  0  0  0  0  0  0  0  0  0  0  0
    8.9613   -8.0665   -3.8440 C   0  0  1  0  0  0  0  0  0  0  0  0
   10.4406   -7.7045   -4.0272 C   0  0  0  0  0  0  0  0  0  0  0  0
    8.7936   -9.5485   -3.4860 C   0  0  0  0  0  0  0  0  0  0  0  0
    7.3771   -3.4491   -2.6973 C   0  0  0  0  0  0  0  0  0  0  0  0
    8.0511   -2.4737   -1.7237 C   0  0  0  0  0  0  0  0  0  0  0  0
    3.2735   -1.4619    0.0314 S   0  0  0  0  0  0  0  0  0  0  0  0
   -0.0101   -0.2344    1.3654 H   0  0  0  0  0  0  0  0  0  0  0  0
    0.1746   -1.4073    0.0387 H   0  0  0  0  0  0  0  0  0  0  0  0
    0.6956    0.2759   -0.1874 H   0  0  0  0  0  0  0  0  0  0  0  0
    1.8126   -0.5122    3.2071 H   0  0  0  0  0  0  0  0  0  0  0  0
    4.3494   -1.2759    3.4855 H   0  0  0  0  0  0  0  0  0  0  0  0
    5.6887   -2.1209   -0.8188 H   0  0  0  0  0  0  0  0  0  0  0  0
    8.2950   -2.1379    0.4115 H   0  0  0  0  0  0  0  0  0  0  0  0
    7.5214   -4.4251    1.0945 H   0  0  0  0  0  0  0  0  0  0  0  0
    8.9710   -4.4281    0.0684 H   0  0  0  0  0  0  0  0  0  0  0  0
    6.0972   -5.0274   -0.8469 H   0  0  0  0  0  0  0  0  0  0  0  0
    7.4151   -6.1961   -0.7021 H   0  0  0  0  0  0  0  0  0  0  0  0
    7.2877   -7.5925   -2.5394 H   0  0  0  0  0  0  0  0  0  0  0  0
    8.8624   -7.2124   -1.8488 H   0  0  0  0  0  0  0  0  0  0  0  0
    8.4498   -7.8752   -4.8020 H   0  0  0  0  0  0  0  0  0  0  0  0
   11.0075   -7.8694   -3.0935 H   0  0  0  0  0  0  0  0  0  0  0  0
   10.5538   -6.6524   -4.3245 H   0  0  0  0  0  0  0  0  0  0  0  0
   10.9041   -8.3282   -4.8088 H   0  0  0  0  0  0  0  0  0  0  0  0
    9.2722   -9.7845   -2.5193 H   0  0  0  0  0  0  0  0  0  0  0  0
    9.2574  -10.1945   -4.2487 H   0  0  0  0  0  0  0  0  0  0  0  0
    7.7309   -9.8326   -3.4088 H   0  0  0  0  0  0  0  0  0  0  0  0
    6.2852   -3.2596   -2.7454 H   0  0  0  0  0  0  0  0  0  0  0  0
    7.7666   -3.3302   -3.7155 H   0  0  0  0  0  0  0  0  0  0  0  0
    7.8069   -1.4344   -2.0017 H   0  0  0  0  0  0  0  0  0  0  0  0
    9.1438   -2.5820   -1.8148 H   0  0  0  0  0  0  0  0  0  0  0  0
  1  2  1  0
  1 22  1  0
  1 23  1  0
  1 24  1  0
  2  3  2  0
  2 21  1  0
  3  4  1  0
  3 25  1  0
  4  5  2  0
  4 26  1  0
  5  6  1  0
  5 21  1  0
  6  7  2  0
  6  8  1  0
  8  9  1  0
  8 27  1  0
  9 10  1  0
  9 20  1  0
  9 28  1  1
 10 11  1  0
 10 29  1  0
 10 30  1  0
 11 12  1  0
 11 31  1  0
 11 32  1  0
 12 13  1  0
 12 19  1  0
 13 14  2  0
 13 15  1  0
 15 16  1  0
 15 33  1  0
 15 34  1  0
 16 17  1  0
 16 18  1  0
 16 35  1  6
 17 36  1  0
 17 37  1  0
 17 38  1  0
 18 39  1  0
 18 40  1  0
 18 41  1  0
 19 20  1  0
 19 42  1  0
 19 43  1  0
 20 44  1  0
 20 45  1  0
M  END

