
     RDKit          3D

 43 43  0  0  0  0  0  0  0  0999 V2000
    1.1963   -0.3818   -0.9494 C   0  0  0  0  0  0  0  0  0  0  0  0
    2.6363   -0.4788   -0.4380 C   0  0  0  0  0  0  0  0  0  0  0  0
    2.8516   -0.9608    1.0251 C   0  0  1  0  0  0  0  0  0  0  0  0
    2.1150   -0.0249    2.0040 C   0  0  0  0  0  0  0  0  0  0  0  0
    2.3233   -2.3993    1.1908 C   0  0  0  0  0  0  0  0  0  0  0  0
    4.3832   -0.9126    1.2796 C   0  0  0  0  0  0  0  0  0  0  0  0
    4.8990   -1.4456    2.6253 C   0  0  0  0  0  0  0  0  0  0  0  0
    6.3481   -1.3094    2.7526 N   0  0  0  0  0  0  0  0  0  0  0  0
    6.7776    0.0236    3.1206 C   0  0  0  0  0  0  0  0  0  0  0  0
    7.0584   -2.3867    3.4532 C   0  0  1  0  0  0  0  0  0  0  0  0
    6.6453   -2.5668    4.9313 C   0  0  0  0  0  0  0  0  0  0  0  0
    7.5916   -3.4174    5.6475 N   0  0  0  0  0  0  0  0  0  0  0  0
    6.9854   -3.7030    2.6883 C   0  0  1  0  0  0  0  0  0  0  0  0
    7.7297   -3.8512    1.3902 C   0  0  0  0  0  0  0  0  0  0  0  0
    8.1965   -4.6074    2.6066 C   0  0  0  0  0  0  0  0  0  0  0  0
    1.1864   -0.0432   -1.9980 H   0  0  0  0  0  0  0  0  0  0  0  0
    0.5949    0.3381   -0.3721 H   0  0  0  0  0  0  0  0  0  0  0  0
    0.6748   -1.3517   -0.9190 H   0  0  0  0  0  0  0  0  0  0  0  0
    3.1153    0.5115   -0.5418 H   0  0  0  0  0  0  0  0  0  0  0  0
    3.2050   -1.1533   -1.1030 H   0  0  0  0  0  0  0  0  0  0  0  0
    1.0265   -0.0414    1.8380 H   0  0  0  0  0  0  0  0  0  0  0  0
    2.4556    1.0180    1.8901 H   0  0  0  0  0  0  0  0  0  0  0  0
    2.2842   -0.3187    3.0516 H   0  0  0  0  0  0  0  0  0  0  0  0
    1.2509   -2.4657    0.9503 H   0  0  0  0  0  0  0  0  0  0  0  0
    2.4401   -2.7587    2.2253 H   0  0  0  0  0  0  0  0  0  0  0  0
    2.8597   -3.0998    0.5287 H   0  0  0  0  0  0  0  0  0  0  0  0
    4.7127    0.1337    1.1566 H   0  0  0  0  0  0  0  0  0  0  0  0
    4.8971   -1.4826    0.4866 H   0  0  0  0  0  0  0  0  0  0  0  0
    4.6444   -2.5118    2.7022 H   0  0  0  0  0  0  0  0  0  0  0  0
    4.3708   -0.9445    3.4658 H   0  0  0  0  0  0  0  0  0  0  0  0
    6.3689    0.7670    2.4184 H   0  0  0  0  0  0  0  0  0  0  0  0
    7.8758    0.0967    3.0693 H   0  0  0  0  0  0  0  0  0  0  0  0
    6.4671    0.3411    4.1435 H   0  0  0  0  0  0  0  0  0  0  0  0
    8.1201   -2.0854    3.4711 H   0  0  0  0  0  0  0  0  0  0  0  0
    5.5931   -2.9265    4.9680 H   0  0  0  0  0  0  0  0  0  0  0  0
    6.6483   -1.5765    5.4169 H   0  0  0  0  0  0  0  0  0  0  0  0
    7.5381   -4.3753    5.3012 H   0  0  0  0  0  0  0  0  0  0  0  0
    7.3529   -3.4588    6.6382 H   0  0  0  0  0  0  0  0  0  0  0  0
    6.0188   -4.2177    2.7493 H   0  0  0  0  0  0  0  0  0  0  0  0
    8.3184   -2.9917    1.0569 H   0  0  0  0  0  0  0  0  0  0  0  0
    7.2572   -4.4105    0.5779 H   0  0  0  0  0  0  0  0  0  0  0  0
    9.1116   -4.2746    3.1046 H   0  0  0  0  0  0  0  0  0  0  0  0
    8.0397   -5.6900    2.6376 H   0  0  0  0  0  0  0  0  0  0  0  0
  1  2  1  0
  1 16  1  0
  1 17  1  0
  1 18  1  0
  3  2  1  6
  2 19  1  0
  2 20  1  0
  3  4  1  0
  3  5  1  0
  3  6  1  0
  4 21  1  0
  4 22  1  0
  4 23  1  0
  5 24  1  0
  5 25  1  0
  5 26  1  0
  6  7  1  0
  6 27  1  0
  6 28  1  0
  7  8  1  0
  7 29  1  0
  7 30  1  0
  8  9  1  0
  8 10  1  0
  9 31  1  0
  9 32  1  0
  9 33  1  0
 10 11  1  0
 10 13  1  0
 10 34  1  1
 11 12  1  0
 11 35  1  0
 11 36  1  0
 12 37  1  0
 12 38  1  0
 13 14  1  0
 13 15  1  0
 13 39  1  6
 14 15  1  0
 14 40  1  0
 14 41  1  0
 15 42  1  0
 15 43  1  0
M  END

