
     RDKit          3D

 31 32  0  0  0  0  0  0  0  0999 V2000
    1.4625    1.5375   -0.3316 C   0  0  0  0  0  0  0  0  0  0  0  0
    2.1075    0.4230    0.2398 O   0  0  0  0  0  0  0  0  0  0  0  0
    2.7369    0.5475    1.4329 C   0  0  0  0  0  0  0  0  0  0  0  0
    2.8243    1.7414    2.1505 C   0  0  0  0  0  0  0  0  0  0  0  0
    3.5591    1.8208    3.3449 C   0  0  0  0  0  0  0  0  0  0  0  0
    4.2110    0.6985    3.8292 C   0  0  0  0  0  0  0  0  0  0  0  0
    4.1046   -0.5251    3.1342 C   0  0  0  0  0  0  0  0  0  0  0  0
    4.7604   -1.6923    3.6445 C   0  0  0  0  0  0  0  0  0  0  0  0
    5.2880   -2.6517    4.0368 N   0  0  0  0  0  0  0  0  0  0  0  0
    3.3639   -0.6366    1.9270 C   0  0  0  0  0  0  0  0  0  0  0  0
    3.3367   -1.8337    1.2364 N   0  0  0  0  0  0  0  0  0  0  0  0
    2.2387   -2.4369    0.5739 C   0  0  0  0  0  0  0  0  0  0  0  0
    2.4921   -3.3849   -0.4291 C   0  0  0  0  0  0  0  0  0  0  0  0
    1.4506   -4.0505   -1.0721 C   0  0  0  0  0  0  0  0  0  0  0  0
    0.1073   -3.7771   -0.7499 C   0  0  0  0  0  0  0  0  0  0  0  0
   -0.9351   -4.4689   -1.3594 N   0  0  0  0  0  0  0  0  0  0  0  0
   -0.1416   -2.8212    0.2545 C   0  0  0  0  0  0  0  0  0  0  0  0
    0.9025   -2.1733    0.9113 C   0  0  0  0  0  0  0  0  0  0  0  0
    1.0266    1.1914   -1.2780 H   0  0  0  0  0  0  0  0  0  0  0  0
    2.1713    2.3590   -0.5409 H   0  0  0  0  0  0  0  0  0  0  0  0
    0.6538    1.9220    0.3161 H   0  0  0  0  0  0  0  0  0  0  0  0
    2.3400    2.6387    1.7652 H   0  0  0  0  0  0  0  0  0  0  0  0
    3.6210    2.7707    3.8795 H   0  0  0  0  0  0  0  0  0  0  0  0
    4.7977    0.7376    4.7481 H   0  0  0  0  0  0  0  0  0  0  0  0
    4.0531   -2.4935    1.5250 H   0  0  0  0  0  0  0  0  0  0  0  0
    3.5260   -3.5994   -0.7128 H   0  0  0  0  0  0  0  0  0  0  0  0
    1.6806   -4.7914   -1.8433 H   0  0  0  0  0  0  0  0  0  0  0  0
   -0.7274   -4.8846   -2.2602 H   0  0  0  0  0  0  0  0  0  0  0  0
   -1.8421   -4.0170   -1.3397 H   0  0  0  0  0  0  0  0  0  0  0  0
   -1.1741   -2.5988    0.5399 H   0  0  0  0  0  0  0  0  0  0  0  0
    0.6741   -1.4601    1.7056 H   0  0  0  0  0  0  0  0  0  0  0  0
  1  2  1  0
  1 19  1  0
  1 20  1  0
  1 21  1  0
  2  3  1  0
  3  4  2  0
  3 10  1  0
  4  5  1  0
  4 22  1  0
  5  6  2  0
  5 23  1  0
  6  7  1  0
  6 24  1  0
  7  8  1  0
  7 10  2  0
  8  9  3  0
 10 11  1  0
 11 12  1  0
 11 25  1  0
 12 13  2  0
 12 18  1  0
 13 14  1  0
 13 26  1  0
 14 15  2  0
 14 27  1  0
 15 16  1  0
 15 17  1  0
 16 28  1  0
 16 29  1  0
 17 18  2  0
 17 30  1  0
 18 31  1  0
M  END

