
     RDKit          3D

 35 37  0  0  0  0  0  0  0  0999 V2000
    1.2685    0.7873   -0.0245 N   0  0  0  0  0  0  0  0  0  0  0  0
    2.5425    0.1186    0.1448 C   0  0  1  0  0  0  0  0  0  0  0  0
    2.6072   -1.3196    0.7405 C   0  0  1  0  0  0  0  0  0  0  0  0
    1.7848   -2.2913   -0.1339 C   0  0  0  0  0  0  0  0  0  0  0  0
    2.6760   -2.4701   -1.4047 C   0  0  0  0  0  0  0  0  0  0  0  0
    3.8563   -1.5113   -1.1346 C   0  0  2  0  0  0  0  0  0  0  0  0
    4.0560   -1.7021    0.3845 C   0  0  0  0  0  0  0  0  0  0  0  0
    3.3104   -0.0679   -1.2230 C   0  0  2  0  0  0  0  0  0  0  0  0
    4.3527    1.0178   -1.3976 C   0  0  0  0  0  0  0  0  0  0  0  0
    5.5411    0.8376   -1.2451 O   0  0  0  0  0  0  0  0  0  0  0  0
    3.8001    2.3998   -1.7866 C   0  0  0  0  0  0  0  0  0  0  0  0
    3.7050    2.5180   -3.2927 C   0  0  0  0  0  0  0  0  0  0  0  0
    4.7383    3.1067   -4.0408 C   0  0  0  0  0  0  0  0  0  0  0  0
    4.6261    3.1735   -5.4289 C   0  0  0  0  0  0  0  0  0  0  0  0
    3.4815    2.6399   -6.0238 C   0  0  0  0  0  0  0  0  0  0  0  0
    3.2443    2.6954   -7.9105 Br  0  0  0  0  0  0  0  0  0  0  0  0
    2.5031    2.0576   -5.2100 C   0  0  0  0  0  0  0  0  0  0  0  0
    2.6191    2.0006   -3.8846 N   0  0  0  0  0  0  0  0  0  0  0  0
    0.7841    0.8973    0.8662 H   0  0  0  0  0  0  0  0  0  0  0  0
    0.6483    0.2751   -0.6515 H   0  0  0  0  0  0  0  0  0  0  0  0
    3.1462    0.7594    0.8130 H   0  0  0  0  0  0  0  0  0  0  0  0
    2.3420   -1.3428    1.8094 H   0  0  0  0  0  0  0  0  0  0  0  0
    0.7836   -1.8916   -0.3637 H   0  0  0  0  0  0  0  0  0  0  0  0
    1.6257   -3.2471    0.3887 H   0  0  0  0  0  0  0  0  0  0  0  0
    2.1454   -2.2284   -2.3390 H   0  0  0  0  0  0  0  0  0  0  0  0
    3.0349   -3.5076   -1.4941 H   0  0  0  0  0  0  0  0  0  0  0  0
    4.7412   -1.6804   -1.7623 H   0  0  0  0  0  0  0  0  0  0  0  0
    4.8107   -1.0222    0.8078 H   0  0  0  0  0  0  0  0  0  0  0  0
    4.3184   -2.7364    0.6593 H   0  0  0  0  0  0  0  0  0  0  0  0
    2.5881    0.0497   -2.0485 H   0  0  0  0  0  0  0  0  0  0  0  0
    4.4903    3.1564   -1.3893 H   0  0  0  0  0  0  0  0  0  0  0  0
    2.7962    2.5244   -1.3533 H   0  0  0  0  0  0  0  0  0  0  0  0
    5.6210    3.5074   -3.5382 H   0  0  0  0  0  0  0  0  0  0  0  0
    5.4103    3.6295   -6.0364 H   0  0  0  0  0  0  0  0  0  0  0  0
    1.6000    1.6269   -5.6557 H   0  0  0  0  0  0  0  0  0  0  0  0
  1  2  1  0
  1 19  1  0
  1 20  1  0
  2  3  1  0
  2  8  1  0
  2 21  1  1
  3  4  1  0
  3  7  1  0
  3 22  1  1
  4  5  1  0
  4 23  1  0
  4 24  1  0
  5  6  1  0
  5 25  1  0
  5 26  1  0
  6  7  1  0
  6  8  1  0
  6 27  1  6
  7 28  1  0
  7 29  1  0
  8  9  1  0
  8 30  1  6
  9 10  2  0
  9 11  1  0
 11 12  1  0
 11 31  1  0
 11 32  1  0
 12 13  2  0
 12 18  1  0
 13 14  1  0
 13 33  1  0
 14 15  2  0
 14 34  1  0
 15 16  1  0
 15 17  1  0
 17 18  2  0
 17 35  1  0
M  END

