
     RDKit          3D

 58 60  0  0  0  0  0  0  0  0999 V2000
    1.2800   -0.7784   -0.1492 C   0  0  0  0  0  0  0  0  0  0  0  0
    2.3935   -0.8809    0.7342 O   0  0  0  0  0  0  0  0  0  0  0  0
    3.0658   -2.0711    0.7362 C   0  0  0  0  0  0  0  0  0  0  0  0
    4.3604   -2.1231    0.2199 C   0  0  0  0  0  0  0  0  0  0  0  0
    5.1179   -3.3110    0.2268 C   0  0  0  0  0  0  0  0  0  0  0  0
    6.4730   -3.2496   -0.3638 C   0  0  0  0  0  0  0  0  0  0  0  0
    7.5359   -3.9346   -0.1312 N   0  0  0  0  0  0  0  0  0  0  0  0
    7.5391   -4.8809    0.8295 N   0  0  0  0  0  0  0  0  0  0  0  0
    8.6456   -5.6482    1.0726 C   0  0  0  0  0  0  0  0  0  0  0  0
    9.6927   -5.6476    0.4608 O   0  0  0  0  0  0  0  0  0  0  0  0
    8.3837   -6.5904    2.2704 C   0  0  0  0  0  0  0  0  0  0  0  0
    7.3125   -6.5908    2.8666 O   0  0  0  0  0  0  0  0  0  0  0  0
    9.4455   -7.3730    2.5348 N   0  0  0  0  0  0  0  0  0  0  0  0
    9.4876   -8.3190    3.6403 C   0  0  0  0  0  0  0  0  0  0  0  0
   10.4983   -7.9713    4.6831 C   0  0  0  0  0  0  0  0  0  0  0  0
   10.4099   -7.5018    5.9649 C   0  0  0  0  0  0  0  0  0  0  0  0
   11.7579   -7.3468    6.4329 C   0  0  0  0  0  0  0  0  0  0  0  0
   12.5611   -7.7288    5.3976 C   0  0  0  0  0  0  0  0  0  0  0  0
   11.8091   -8.1113    4.3338 O   0  0  0  0  0  0  0  0  0  0  0  0
    4.5122   -4.4788    0.7360 C   0  0  0  0  0  0  0  0  0  0  0  0
    3.2203   -4.4349    1.2611 C   0  0  0  0  0  0  0  0  0  0  0  0
    2.4953   -3.2411    1.2839 C   0  0  0  0  0  0  0  0  0  0  0  0
    1.2238   -3.2417    1.8004 O   0  0  0  0  0  0  0  0  0  0  0  0
    0.9931   -2.4613    2.9745 C   0  0  0  0  0  0  0  0  0  0  0  0
   -0.4759   -2.5193    3.3933 C   0  0  0  0  0  0  0  0  0  0  0  0
   -0.8480   -1.8619    4.3472 O   0  0  0  0  0  0  0  0  0  0  0  0
   -1.2481   -3.3434    2.6211 N   0  0  0  0  0  0  0  0  0  0  0  0
   -2.6216   -3.6340    2.7319 C   0  0  0  0  0  0  0  0  0  0  0  0
   -3.4332   -3.0485    3.7184 C   0  0  0  0  0  0  0  0  0  0  0  0
   -4.7913   -3.3608    3.7934 C   0  0  0  0  0  0  0  0  0  0  0  0
   -5.3428   -4.2604    2.8822 C   0  0  0  0  0  0  0  0  0  0  0  0
   -7.1993   -4.6957    2.9737 Br  0  0  0  0  0  0  0  0  0  0  0  0
   -4.5452   -4.8487    1.8986 C   0  0  0  0  0  0  0  0  0  0  0  0
   -3.1812   -4.5496    1.8059 C   0  0  0  0  0  0  0  0  0  0  0  0
   -2.3332   -5.1956    0.7368 C   0  0  0  0  0  0  0  0  0  0  0  0
    0.8973    0.2468   -0.0554 H   0  0  0  0  0  0  0  0  0  0  0  0
    0.4811   -1.4907    0.1151 H   0  0  0  0  0  0  0  0  0  0  0  0
    1.5892   -0.9540   -1.1944 H   0  0  0  0  0  0  0  0  0  0  0  0
    4.7776   -1.2012   -0.1922 H   0  0  0  0  0  0  0  0  0  0  0  0
    6.6160   -2.4681   -1.1212 H   0  0  0  0  0  0  0  0  0  0  0  0
    6.7741   -5.0037    1.4986 H   0  0  0  0  0  0  0  0  0  0  0  0
   10.2655   -7.2199    1.9513 H   0  0  0  0  0  0  0  0  0  0  0  0
    9.6930   -9.3296    3.2457 H   0  0  0  0  0  0  0  0  0  0  0  0
    8.4867   -8.3268    4.0918 H   0  0  0  0  0  0  0  0  0  0  0  0
    9.4916   -7.2899    6.5087 H   0  0  0  0  0  0  0  0  0  0  0  0
   12.0827   -6.9967    7.4105 H   0  0  0  0  0  0  0  0  0  0  0  0
   13.6388   -7.7860    5.2687 H   0  0  0  0  0  0  0  0  0  0  0  0
    5.0266   -5.4399    0.7075 H   0  0  0  0  0  0  0  0  0  0  0  0
    2.7514   -5.3337    1.6667 H   0  0  0  0  0  0  0  0  0  0  0  0
    1.2584   -1.4048    2.8125 H   0  0  0  0  0  0  0  0  0  0  0  0
    1.6000   -2.8418    3.8151 H   0  0  0  0  0  0  0  0  0  0  0  0
   -0.7353   -3.8123    1.8814 H   0  0  0  0  0  0  0  0  0  0  0  0
   -2.9870   -2.3498    4.4226 H   0  0  0  0  0  0  0  0  0  0  0  0
   -5.4134   -2.9012    4.5630 H   0  0  0  0  0  0  0  0  0  0  0  0
   -4.9881   -5.5524    1.1912 H   0  0  0  0  0  0  0  0  0  0  0  0
   -2.9328   -5.8752    0.1158 H   0  0  0  0  0  0  0  0  0  0  0  0
   -1.5073   -5.7890    1.1676 H   0  0  0  0  0  0  0  0  0  0  0  0
   -1.8801   -4.4487    0.0609 H   0  0  0  0  0  0  0  0  0  0  0  0
  1  2  1  0
  1 36  1  0
  1 37  1  0
  1 38  1  0
  2  3  1  0
  3  4  2  0
  3 22  1  0
  4  5  1  0
  4 39  1  0
  5  6  1  0
  5 20  2  0
  6  7  2  0
  6 40  1  0
  7  8  1  0
  8  9  1  0
  8 41  1  0
  9 10  2  0
  9 11  1  0
 11 12  2  0
 11 13  1  0
 13 14  1  0
 13 42  1  0
 14 15  1  0
 14 43  1  0
 14 44  1  0
 15 16  2  0
 15 19  1  0
 16 17  1  0
 16 45  1  0
 17 18  2  0
 17 46  1  0
 18 19  1  0
 18 47  1  0
 20 21  1  0
 20 48  1  0
 21 22  2  0
 21 49  1  0
 22 23  1  0
 23 24  1  0
 24 25  1  0
 24 50  1  0
 24 51  1  0
 25 26  2  0
 25 27  1  0
 27 28  1  0
 27 52  1  0
 28 29  2  0
 28 34  1  0
 29 30  1  0
 29 53  1  0
 30 31  2  0
 30 54  1  0
 31 32  1  0
 31 33  1  0
 33 34  2  0
 33 55  1  0
 34 35  1  0
 35 56  1  0
 35 57  1  0
 35 58  1  0
M  END

