
     RDKit          3D

 32 37  0  0  0  0  0  0  0  0999 V2000
    2.2432   -0.7115    0.0563 O   0  0  0  0  0  0  0  0  0  0  0  0
    2.9545   -0.0627    0.7984 C   0  0  0  0  0  0  0  0  0  0  0  0
    3.1457    1.3276    1.0873 C   0  0  0  0  0  0  0  0  0  0  0  0
    2.6655    2.5896    0.7227 C   0  0  0  0  0  0  0  0  0  0  0  0
    1.6984    3.0996   -0.1715 C   0  0  0  0  0  0  0  0  0  0  0  0
    0.6676    2.1824   -1.2350 S   0  0  0  0  0  0  0  0  0  0  0  0
   -0.0554    3.6470   -1.8244 C   0  0  0  0  0  0  0  0  0  0  0  0
    0.4526    4.7784   -1.2426 C   0  0  0  0  0  0  0  0  0  0  0  0
    1.4723    4.4888   -0.2806 C   0  0  0  0  0  0  0  0  0  0  0  0
    2.2376    5.3921    0.5302 C   0  0  0  0  0  0  0  0  0  0  0  0
    3.1689    4.8830    1.3903 C   0  0  0  0  0  0  0  0  0  0  0  0
    3.3680    3.5333    1.4770 N   0  0  0  0  0  0  0  0  0  0  0  0
    4.3531    2.8930    2.3754 C   0  0  0  0  0  0  0  0  0  0  0  0
    5.0637    3.5425    3.1172 O   0  0  0  0  0  0  0  0  0  0  0  0
    4.1645    1.5026    2.0847 C   0  0  0  0  0  0  0  0  0  0  0  0
    4.6415    0.2401    2.4520 C   0  0  0  0  0  0  0  0  0  0  0  0
    5.6081   -0.2698    3.3466 C   0  0  0  0  0  0  0  0  0  0  0  0
    6.6388    0.6489    4.4089 S   0  0  0  0  0  0  0  0  0  0  0  0
    7.3614   -0.8149    5.0007 C   0  0  0  0  0  0  0  0  0  0  0  0
    6.8535   -1.9469    4.4202 C   0  0  0  0  0  0  0  0  0  0  0  0
    5.8335   -1.6587    3.4576 C   0  0  0  0  0  0  0  0  0  0  0  0
    5.0678   -2.5627    2.6480 C   0  0  0  0  0  0  0  0  0  0  0  0
    4.1366   -2.0537    1.7872 C   0  0  0  0  0  0  0  0  0  0  0  0
    3.9378   -0.7040    1.6991 N   0  0  0  0  0  0  0  0  0  0  0  0
   -0.8347    3.5874   -2.5836 H   0  0  0  0  0  0  0  0  0  0  0  0
    0.1179    5.7872   -1.4877 H   0  0  0  0  0  0  0  0  0  0  0  0
    2.0830    6.4696    0.4641 H   0  0  0  0  0  0  0  0  0  0  0  0
    3.8043    5.4754    2.0511 H   0  0  0  0  0  0  0  0  0  0  0  0
    8.1406   -0.7540    5.7600 H   0  0  0  0  0  0  0  0  0  0  0  0
    7.1881   -2.9555    4.6664 H   0  0  0  0  0  0  0  0  0  0  0  0
    5.2223   -3.6400    2.7153 H   0  0  0  0  0  0  0  0  0  0  0  0
    3.5005   -2.6461    1.1270 H   0  0  0  0  0  0  0  0  0  0  0  0
  1  2  2  0
  2  3  1  0
  2 24  1  0
  3  4  2  0
  3 15  1  0
  4  5  1  0
  4 12  1  0
  5  6  1  0
  5  9  2  0
  6  7  1  0
  7  8  2  0
  7 25  1  0
  8  9  1  0
  8 26  1  0
  9 10  1  0
 10 11  2  0
 10 27  1  0
 11 12  1  0
 11 28  1  0
 12 13  1  0
 13 14  2  0
 13 15  1  0
 15 16  2  0
 16 17  1  0
 16 24  1  0
 17 18  1  0
 17 21  2  0
 18 19  1  0
 19 20  2  0
 19 29  1  0
 20 21  1  0
 20 30  1  0
 21 22  1  0
 22 23  2  0
 22 31  1  0
 23 24  1  0
 23 32  1  0
M  END

