
     RDKit          3D

 52 55  0  0  0  0  0  0  0  0999 V2000
    3.1293   -0.6809   -2.4276 C   0  0  0  0  0  0  0  0  0  0  0  0
    4.0160   -0.2433   -1.3626 N   0  0  0  0  0  0  0  0  0  0  0  0
    4.3375    1.0849   -1.2857 C   0  0  0  0  0  0  0  0  0  0  0  0
    3.9654    1.9235   -2.0962 O   0  0  0  0  0  0  0  0  0  0  0  0
    5.1176    1.4634   -0.1651 N   0  0  0  0  0  0  0  0  0  0  0  0
    5.1352    2.8982    0.1463 C   0  0  0  0  0  0  0  0  0  0  0  0
    3.9282    3.3913    0.9371 C   0  0  0  0  0  0  0  0  0  0  0  0
    2.6247    3.1978    0.4619 C   0  0  0  0  0  0  0  0  0  0  0  0
    1.5379    3.6623    1.1967 C   0  0  0  0  0  0  0  0  0  0  0  0
    0.3067    3.4598    0.7201 F   0  0  0  0  0  0  0  0  0  0  0  0
    1.6880    4.3410    2.4064 C   0  0  0  0  0  0  0  0  0  0  0  0
    2.9759    4.5645    2.8774 C   0  0  0  0  0  0  0  0  0  0  0  0
    4.0934    4.0995    2.1539 C   0  0  0  0  0  0  0  0  0  0  0  0
    5.4050    4.3836    2.6594 C   0  0  0  0  0  0  0  0  0  0  0  0
    6.4719    4.6194    3.0553 N   0  0  0  0  0  0  0  0  0  0  0  0
    5.9190    0.5134    0.5186 C   0  0  0  0  0  0  0  0  0  0  0  0
    7.1133    0.9766    1.0617 N   0  0  0  0  0  0  0  0  0  0  0  0
    8.0835    1.6153    0.1515 C   0  0  0  0  0  0  0  0  0  0  0  0
    9.0415    2.5206    0.9263 C   0  0  0  0  0  0  0  0  0  0  0  0
    9.7455    1.7369    2.0390 C   0  0  0  0  0  0  0  0  0  0  0  0
    8.7319    1.0151    2.9572 C   0  0  1  0  0  0  0  0  0  0  0  0
    9.2913    0.2884    3.5728 H   0  0  0  0  0  0  0  0  0  0  0  0
    7.9849    1.8607    3.8782 N   0  0  0  0  0  0  0  0  0  0  0  0
    7.7662    0.1786    2.1033 C   0  0  0  0  0  0  0  0  0  0  0  0
    5.4517   -0.7713    0.5234 C   0  0  0  0  0  0  0  0  0  0  0  0
    6.0451   -2.0611    0.7884 C   0  0  0  0  0  0  0  0  0  0  0  0
    5.2120   -3.0233    0.2979 C   0  0  0  0  0  0  0  0  0  0  0  0
    5.4008   -4.4319    0.3397 C   0  0  0  0  0  0  0  0  0  0  0  0
    5.5340   -5.5869    0.3861 N   0  0  0  0  0  0  0  0  0  0  0  0
    4.0871   -2.4680   -0.3574 N   0  0  0  0  0  0  0  0  0  0  0  0
    4.0982   -1.0301   -0.1241 C   0  0  2  0  0  0  0  0  0  0  0  0
    3.2812   -0.0371   -3.3013 H   0  0  0  0  0  0  0  0  0  0  0  0
    2.0647   -0.6092   -2.1305 H   0  0  0  0  0  0  0  0  0  0  0  0
    3.3583   -1.7235   -2.6837 H   0  0  0  0  0  0  0  0  0  0  0  0
    5.1785    3.4439   -0.8075 H   0  0  0  0  0  0  0  0  0  0  0  0
    6.0442    3.1116    0.7131 H   0  0  0  0  0  0  0  0  0  0  0  0
    2.4493    2.7136   -0.4990 H   0  0  0  0  0  0  0  0  0  0  0  0
    0.8068    4.6878    2.9482 H   0  0  0  0  0  0  0  0  0  0  0  0
    3.1318    5.1030    3.8138 H   0  0  0  0  0  0  0  0  0  0  0  0
    7.5454    2.1771   -0.6232 H   0  0  0  0  0  0  0  0  0  0  0  0
    8.6590    0.8248   -0.3763 H   0  0  0  0  0  0  0  0  0  0  0  0
    8.4798    3.3660    1.3582 H   0  0  0  0  0  0  0  0  0  0  0  0
    9.7777    2.9506    0.2276 H   0  0  0  0  0  0  0  0  0  0  0  0
   10.3838    2.4031    2.6430 H   0  0  0  0  0  0  0  0  0  0  0  0
   10.4165    0.9854    1.5830 H   0  0  0  0  0  0  0  0  0  0  0  0
    7.4686    2.5919    3.3896 H   0  0  0  0  0  0  0  0  0  0  0  0
    8.6218    2.3474    4.5090 H   0  0  0  0  0  0  0  0  0  0  0  0
    6.9932   -0.2482    2.7552 H   0  0  0  0  0  0  0  0  0  0  0  0
    8.3415   -0.6520    1.6464 H   0  0  0  0  0  0  0  0  0  0  0  0
    7.0108   -2.2663    1.2381 H   0  0  0  0  0  0  0  0  0  0  0  0
    3.2037   -2.9406   -0.1908 H   0  0  0  0  0  0  0  0  0  0  0  0
    3.2447   -0.7411    0.5315 H   0  0  0  0  0  0  0  0  0  0  0  0
  1  2  1  0
  1 32  1  0
  1 33  1  0
  1 34  1  0
  2  3  1  0
  2 31  1  0
  3  4  2  0
  3  5  1  0
  5  6  1  0
  5 16  1  0
  6  7  1  0
  6 35  1  0
  6 36  1  0
  7  8  2  0
  7 13  1  0
  8  9  1  0
  8 37  1  0
  9 10  1  0
  9 11  2  0
 11 12  1  0
 11 38  1  0
 12 13  2  0
 12 39  1  0
 13 14  1  0
 14 15  3  0
 16 17  1  0
 16 25  2  0
 17 18  1  0
 17 24  1  0
 18 19  1  0
 18 40  1  0
 18 41  1  0
 19 20  1  0
 19 42  1  0
 19 43  1  0
 20 21  1  0
 20 44  1  0
 20 45  1  0
 21 22  1  1
 21 23  1  0
 21 24  1  0
 23 46  1  0
 23 47  1  0
 24 48  1  0
 24 49  1  0
 25 26  1  0
 25 31  1  0
 26 27  2  0
 26 50  1  0
 27 28  1  0
 27 30  1  0
 28 29  3  0
 30 31  1  0
 30 51  1  0
 31 52  1  1
M  END

