
     RDKit          3D

 86 88  0  0  0  0  0  0  0  0999 V2000
    9.3872   -1.5490    6.8335 C   0  0  0  0  0  0  0  0  0  0  0  0
    8.7850   -2.0928    5.5365 C   0  0  0  0  0  0  0  0  0  0  0  0
    9.8199   -2.5971    4.4936 C   0  0  1  0  0  0  0  0  0  0  0  0
   10.5790   -1.7972    4.3877 H   0  0  0  0  0  0  0  0  0  0  0  0
   10.5356   -3.8410    4.9812 C   0  0  0  0  0  0  0  0  0  0  0  0
   10.5089   -4.9052    4.4148 O   0  0  0  0  0  0  0  0  0  0  0  0
    9.2332   -2.8606    3.1992 N   0  0  0  0  0  0  0  0  0  0  0  0
    8.8912   -1.8537    2.3583 C   0  0  0  0  0  0  0  0  0  0  0  0
    9.0332   -0.6691    2.6355 O   0  0  0  0  0  0  0  0  0  0  0  0
    8.3000   -2.3175    1.0056 C   0  0  2  0  0  0  0  0  0  0  0  0
    8.9733   -3.0773    0.5801 H   0  0  0  0  0  0  0  0  0  0  0  0
    8.0404   -1.1499    0.0539 C   0  0  0  0  0  0  0  0  0  0  0  0
    6.6135   -0.7340    0.3966 C   0  0  1  0  0  0  0  0  0  0  0  0
    6.6005   -0.0951    1.2913 H   0  0  0  0  0  0  0  0  0  0  0  0
    6.0470   -0.0074   -0.6968 O   0  0  0  0  0  0  0  0  0  0  0  0
    4.9083    0.6642   -0.4518 C   0  0  0  0  0  0  0  0  0  0  0  0
    4.2449    0.5623    0.5540 O   0  0  0  0  0  0  0  0  0  0  0  0
    4.5645    1.4861   -1.5069 N   0  0  0  0  0  0  0  0  0  0  0  0
    5.2444    1.6419   -2.7273 C   0  0  0  0  0  0  0  0  0  0  0  0
    4.6052    1.3233   -3.9444 C   0  0  0  0  0  0  0  0  0  0  0  0
    2.9694    0.7046   -3.8994 Cl  0  0  0  0  0  0  0  0  0  0  0  0
    5.2321    1.4939   -5.1791 C   0  0  0  0  0  0  0  0  0  0  0  0
    6.5381    1.9831   -5.2188 C   0  0  0  0  0  0  0  0  0  0  0  0
    7.1977    2.3239   -4.0375 C   0  0  0  0  0  0  0  0  0  0  0  0
    6.5503    2.1730   -2.8089 C   0  0  0  0  0  0  0  0  0  0  0  0
    7.3707    2.7093   -1.3671 Cl  0  0  0  0  0  0  0  0  0  0  0  0
    5.8907   -2.0611    0.6735 C   0  0  0  0  0  0  0  0  0  0  0  0
    6.9639   -2.9296    1.1820 N   0  0  0  0  0  0  0  0  0  0  0  0
    6.8732   -4.2579    1.4592 C   0  0  0  0  0  0  0  0  0  0  0  0
    7.8742   -4.9326    1.6992 O   0  0  0  0  0  0  0  0  0  0  0  0
    5.4733   -4.9069    1.4890 C   0  0  1  0  0  0  0  0  0  0  0  0
    4.7360   -4.1911    1.1009 H   0  0  0  0  0  0  0  0  0  0  0  0
    5.4604   -6.0631    0.6060 N   0  0  0  0  0  0  0  0  0  0  0  0
    5.5655   -5.8967   -0.7300 C   0  0  0  0  0  0  0  0  0  0  0  0
    5.5929   -4.7932   -1.2669 O   0  0  0  0  0  0  0  0  0  0  0  0
    5.6014   -7.1478   -1.6390 C   0  0  1  0  0  0  0  0  0  0  0  0
    6.1298   -6.7608   -2.5208 H   0  0  0  0  0  0  0  0  0  0  0  0
    6.4318   -8.2744   -1.1928 N   0  0  0  0  0  0  0  0  0  0  0  0
    6.3977   -9.0073   -0.0623 C   0  0  0  0  0  0  0  0  0  0  0  0
    5.6588   -8.8252    0.9069 O   0  0  0  0  0  0  0  0  0  0  0  0
    7.4018  -10.1390   -0.0491 C   0  0  0  0  0  0  0  0  0  0  0  0
    7.4916  -10.9829    1.0685 C   0  0  0  0  0  0  0  0  0  0  0  0
    8.3648  -11.9905    1.1109 N   0  0  0  0  0  0  0  0  0  0  0  0
    9.1490  -12.1545    0.0447 C   0  0  0  0  0  0  0  0  0  0  0  0
    9.0633  -11.3141   -1.0738 C   0  0  0  0  0  0  0  0  0  0  0  0
    8.1881  -10.3117   -1.1166 N   0  0  0  0  0  0  0  0  0  0  0  0
    4.1805   -7.5373   -2.1463 C   0  0  1  0  0  0  0  0  0  0  0  0
    4.2785   -8.5512   -3.2928 C   0  0  0  0  0  0  0  0  0  0  0  0
    3.2077   -8.0134   -1.0607 C   0  0  0  0  0  0  0  0  0  0  0  0
    5.0306   -5.2962    2.9255 C   0  0  1  0  0  0  0  0  0  0  0  0
    5.9126   -6.3528    3.6071 C   0  0  0  0  0  0  0  0  0  0  0  0
    4.8848   -4.0477    3.8060 C   0  0  0  0  0  0  0  0  0  0  0  0
    8.5983   -1.1252    7.4741 H   0  0  0  0  0  0  0  0  0  0  0  0
   10.1118   -0.7434    6.6289 H   0  0  0  0  0  0  0  0  0  0  0  0
    9.9031   -2.3220    7.4252 H   0  0  0  0  0  0  0  0  0  0  0  0
    8.2226   -1.2911    5.0352 H   0  0  0  0  0  0  0  0  0  0  0  0
    8.0691   -2.9061    5.7482 H   0  0  0  0  0  0  0  0  0  0  0  0
   11.0973   -3.7139    5.9404 H   0  0  0  0  0  0  0  0  0  0  0  0
    9.1139   -3.8311    2.8934 H   0  0  0  0  0  0  0  0  0  0  0  0
    8.0684   -1.4987   -0.9897 H   0  0  0  0  0  0  0  0  0  0  0  0
    8.7588   -0.3330    0.1895 H   0  0  0  0  0  0  0  0  0  0  0  0
    3.5919    1.7750   -1.4794 H   0  0  0  0  0  0  0  0  0  0  0  0
    4.6960    1.2324   -6.0921 H   0  0  0  0  0  0  0  0  0  0  0  0
    7.0428    2.1096   -6.1792 H   0  0  0  0  0  0  0  0  0  0  0  0
    8.2101    2.7292   -4.0548 H   0  0  0  0  0  0  0  0  0  0  0  0
    5.4805   -2.4734   -0.2632 H   0  0  0  0  0  0  0  0  0  0  0  0
    5.0790   -1.9288    1.4003 H   0  0  0  0  0  0  0  0  0  0  0  0
    5.4536   -7.0143    0.9860 H   0  0  0  0  0  0  0  0  0  0  0  0
    7.1421   -8.5987   -1.8468 H   0  0  0  0  0  0  0  0  0  0  0  0
    6.8363  -10.8206    1.9284 H   0  0  0  0  0  0  0  0  0  0  0  0
    9.8720  -12.9776    0.0692 H   0  0  0  0  0  0  0  0  0  0  0  0
    9.7137  -11.4606   -1.9427 H   0  0  0  0  0  0  0  0  0  0  0  0
    3.7867   -6.5929   -2.5618 H   0  0  0  0  0  0  0  0  0  0  0  0
    4.6847   -9.5139   -2.9412 H   0  0  0  0  0  0  0  0  0  0  0  0
    4.9275   -8.1861   -4.1059 H   0  0  0  0  0  0  0  0  0  0  0  0
    3.2842   -8.7495   -3.7227 H   0  0  0  0  0  0  0  0  0  0  0  0
    3.5317   -8.9605   -0.6043 H   0  0  0  0  0  0  0  0  0  0  0  0
    2.2092   -8.1731   -1.4989 H   0  0  0  0  0  0  0  0  0  0  0  0
    3.1044   -7.2761   -0.2515 H   0  0  0  0  0  0  0  0  0  0  0  0
    4.0227   -5.7322    2.7963 H   0  0  0  0  0  0  0  0  0  0  0  0
    6.9354   -5.9831    3.7667 H   0  0  0  0  0  0  0  0  0  0  0  0
    5.9842   -7.2816    3.0218 H   0  0  0  0  0  0  0  0  0  0  0  0
    5.4798   -6.6161    4.5859 H   0  0  0  0  0  0  0  0  0  0  0  0
    5.8579   -3.5583    3.9771 H   0  0  0  0  0  0  0  0  0  0  0  0
    4.4752   -4.3187    4.7915 H   0  0  0  0  0  0  0  0  0  0  0  0
    4.2063   -3.3038    3.3581 H   0  0  0  0  0  0  0  0  0  0  0  0
  1  2  1  0
  1 53  1  0
  1 54  1  0
  1 55  1  0
  2  3  1  0
  2 56  1  0
  2 57  1  0
  3  4  1  6
  3  5  1  0
  3  7  1  0
  5  6  2  0
  5 58  1  0
  7  8  1  0
  7 59  1  0
  8  9  2  0
  8 10  1  0
 10 11  1  6
 10 12  1  0
 10 28  1  0
 12 13  1  0
 12 60  1  0
 12 61  1  0
 13 14  1  1
 13 15  1  0
 13 27  1  0
 15 16  1  0
 16 17  2  0
 16 18  1  0
 18 19  1  0
 18 62  1  0
 19 20  2  0
 19 25  1  0
 20 21  1  0
 20 22  1  0
 22 23  2  0
 22 63  1  0
 23 24  1  0
 23 64  1  0
 24 25  2  0
 24 65  1  0
 25 26  1  0
 27 28  1  0
 27 66  1  0
 27 67  1  0
 28 29  1  0
 29 30  2  0
 29 31  1  0
 31 32  1  6
 31 33  1  0
 31 50  1  0
 33 34  1  0
 33 68  1  0
 34 35  2  0
 34 36  1  0
 36 37  1  6
 36 38  1  0
 36 47  1  0
 38 39  1  0
 38 69  1  0
 39 40  2  0
 39 41  1  0
 41 42  2  0
 41 46  1  0
 42 43  1  0
 42 70  1  0
 43 44  2  0
 44 45  1  0
 44 71  1  0
 45 46  2  0
 45 72  1  0
 47 48  1  0
 47 49  1  0
 47 73  1  6
 48 74  1  0
 48 75  1  0
 48 76  1  0
 49 77  1  0
 49 78  1  0
 49 79  1  0
 50 51  1  0
 50 52  1  0
 50 80  1  6
 51 81  1  0
 51 82  1  0
 51 83  1  0
 52 84  1  0
 52 85  1  0
 52 86  1  0
M  END

