
     RDKit          3D

 98 98  0  0  0  0  0  0  0  0999 V2000
   20.5149   -8.5284   -3.5690 C   0  0  0  0  0  0  0  0  0  0  0  0
   19.7309   -8.4804   -4.6598 C   0  0  0  0  0  0  0  0  0  0  0  0
   19.6823   -9.5400   -5.6989 C   0  0  0  0  0  0  0  0  0  0  0  0
   20.6189   -9.7580   -6.6380 C   0  0  0  0  0  0  0  0  0  0  0  0
   20.1099  -10.3877   -7.9010 C   0  0  0  0  0  0  0  0  0  0  0  0
   19.3748  -11.3498   -7.9250 O   0  0  0  0  0  0  0  0  0  0  0  0
   20.3093   -9.5951   -9.0617 N   0  0  0  0  0  0  0  0  0  0  0  0
   21.4107   -8.6486   -9.1504 C   0  0  0  0  0  0  0  0  0  0  0  0
   19.0672   -9.1942   -9.7270 C   0  0  0  0  0  0  0  0  0  0  0  0
   18.4024   -8.1054   -8.8677 C   0  0  0  0  0  0  0  0  0  0  0  0
   17.9468   -8.3791   -7.7569 O   0  0  0  0  0  0  0  0  0  0  0  0
   18.4780   -6.8161   -9.2748 N   0  0  0  0  0  0  0  0  0  0  0  0
   17.9561   -5.7985   -8.3803 C   0  0  1  0  0  0  0  0  0  0  0  0
   18.5222   -5.8541   -7.4457 H   0  0  0  0  0  0  0  0  0  0  0  0
   18.1625   -4.3893   -8.9841 C   0  0  0  0  0  0  0  0  0  0  0  0
   17.5632   -4.2700  -10.3740 C   0  0  0  0  0  0  0  0  0  0  0  0
   17.9421   -4.9277  -11.3212 O   0  0  0  0  0  0  0  0  0  0  0  0
   16.5787   -3.3772  -10.4345 O   0  0  0  0  0  0  0  0  0  0  0  0
   15.9025   -3.2503  -11.6923 C   0  0  0  0  0  0  0  0  0  0  0  0
   16.4552   -6.0202   -8.0795 C   0  0  0  0  0  0  0  0  0  0  0  0
   15.7127   -6.4349   -8.9298 O   0  0  0  0  0  0  0  0  0  0  0  0
   15.9804   -5.5052   -6.9365 O   0  0  0  0  0  0  0  0  0  0  0  0
   16.1236   -5.5331   -5.4816 C   0  0  1  0  0  0  0  0  0  0  0  0
   15.6058   -4.5973   -5.2481 H   0  0  0  0  0  0  0  0  0  0  0  0
   15.2303   -6.6411   -4.8814 C   0  0  2  0  0  0  0  0  0  0  0  0
   15.3128   -6.4896   -3.7877 H   0  0  0  0  0  0  0  0  0  0  0  0
   15.6319   -8.0884   -5.1998 C   0  0  0  0  0  0  0  0  0  0  0  0
   13.7475   -6.4297   -5.2715 C   0  0  0  0  0  0  0  0  0  0  0  0
   13.1228   -5.0720   -4.9340 C   0  0  0  0  0  0  0  0  0  0  0  0
   11.6047   -5.0416   -5.1455 C   0  0  0  0  0  0  0  0  0  0  0  0
   10.9638   -3.6845   -4.8403 C   0  0  0  0  0  0  0  0  0  0  0  0
    9.4463   -3.6538   -5.0454 C   0  0  0  0  0  0  0  0  0  0  0  0
    8.8059   -2.2969   -4.7378 C   0  0  0  0  0  0  0  0  0  0  0  0
    7.2881   -2.2654   -4.9403 C   0  0  0  0  0  0  0  0  0  0  0  0
    6.6486   -0.9085   -4.6314 C   0  0  0  0  0  0  0  0  0  0  0  0
    5.1307   -0.8764   -4.8327 C   0  0  0  0  0  0  0  0  0  0  0  0
    4.4917    0.4809   -4.5213 C   0  0  0  0  0  0  0  0  0  0  0  0
    2.9738    0.5034   -4.7291 C   0  0  0  0  0  0  0  0  0  0  0  0
    2.2654    1.8175   -4.3479 C   0  0  1  0  0  0  0  0  0  0  0  0
    2.7147    3.0051   -5.2099 C   0  0  0  0  0  0  0  0  0  0  0  0
    0.7418    1.6485   -4.4117 C   0  0  0  0  0  0  0  0  0  0  0  0
   17.5626   -5.2792   -4.8936 C   0  0  1  0  0  0  0  0  0  0  0  0
   18.1725   -4.9012   -5.7342 H   0  0  0  0  0  0  0  0  0  0  0  0
   17.4420   -4.1179   -3.8876 C   0  0  0  0  0  0  0  0  0  0  0  0
   18.3787   -6.4171   -4.2081 C   0  0  0  0  0  0  0  0  0  0  0  0
   18.6803   -6.3274   -3.0315 O   0  0  0  0  0  0  0  0  0  0  0  0
   18.8286   -7.4386   -5.0130 N   0  0  0  0  0  0  0  0  0  0  0  0
   20.5025   -7.7500   -2.8103 H   0  0  0  0  0  0  0  0  0  0  0  0
   21.1568   -9.4008   -3.4330 H   0  0  0  0  0  0  0  0  0  0  0  0
   18.7104  -10.0244   -5.8413 H   0  0  0  0  0  0  0  0  0  0  0  0
   21.5684   -9.2201   -6.6081 H   0  0  0  0  0  0  0  0  0  0  0  0
   21.5960   -8.4207  -10.2122 H   0  0  0  0  0  0  0  0  0  0  0  0
   21.2373   -7.6896   -8.6248 H   0  0  0  0  0  0  0  0  0  0  0  0
   22.3299   -9.1016   -8.7549 H   0  0  0  0  0  0  0  0  0  0  0  0
   18.3984  -10.0630   -9.7698 H   0  0  0  0  0  0  0  0  0  0  0  0
   19.2797   -8.8472  -10.7503 H   0  0  0  0  0  0  0  0  0  0  0  0
   18.5910   -6.5687  -10.2582 H   0  0  0  0  0  0  0  0  0  0  0  0
   19.2442   -4.2029   -9.0769 H   0  0  0  0  0  0  0  0  0  0  0  0
   17.7307   -3.6272   -8.3168 H   0  0  0  0  0  0  0  0  0  0  0  0
   15.1550   -2.4606  -11.5544 H   0  0  0  0  0  0  0  0  0  0  0  0
   15.4151   -4.1997  -11.9569 H   0  0  0  0  0  0  0  0  0  0  0  0
   16.6118   -2.9785  -12.4875 H   0  0  0  0  0  0  0  0  0  0  0  0
   14.8398   -8.7710   -4.8552 H   0  0  0  0  0  0  0  0  0  0  0  0
   16.5580   -8.3940   -4.6998 H   0  0  0  0  0  0  0  0  0  0  0  0
   15.7595   -8.2516   -6.2805 H   0  0  0  0  0  0  0  0  0  0  0  0
   13.1664   -7.2164   -4.7598 H   0  0  0  0  0  0  0  0  0  0  0  0
   13.6392   -6.6237   -6.3524 H   0  0  0  0  0  0  0  0  0  0  0  0
   13.5744   -4.2778   -5.5542 H   0  0  0  0  0  0  0  0  0  0  0  0
   13.3469   -4.8082   -3.8827 H   0  0  0  0  0  0  0  0  0  0  0  0
   11.1329   -5.8179   -4.5150 H   0  0  0  0  0  0  0  0  0  0  0  0
   11.3789   -5.3269   -6.1895 H   0  0  0  0  0  0  0  0  0  0  0  0
   11.4329   -2.9087   -5.4740 H   0  0  0  0  0  0  0  0  0  0  0  0
   11.1962   -3.3978   -3.7975 H   0  0  0  0  0  0  0  0  0  0  0  0
    8.9774   -4.4300   -4.4124 H   0  0  0  0  0  0  0  0  0  0  0  0
    9.2135   -3.9395   -6.0881 H   0  0  0  0  0  0  0  0  0  0  0  0
    9.2744   -1.5205   -5.3712 H   0  0  0  0  0  0  0  0  0  0  0  0
    9.0403   -2.0115   -3.6952 H   0  0  0  0  0  0  0  0  0  0  0  0
    6.8198   -3.0418   -4.3069 H   0  0  0  0  0  0  0  0  0  0  0  0
    7.0532   -2.5506   -5.9828 H   0  0  0  0  0  0  0  0  0  0  0  0
    7.1170   -0.1320   -5.2648 H   0  0  0  0  0  0  0  0  0  0  0  0
    6.8840   -0.6237   -3.5889 H   0  0  0  0  0  0  0  0  0  0  0  0
    4.6627   -1.6543   -4.2009 H   0  0  0  0  0  0  0  0  0  0  0  0
    4.8952   -1.1593   -5.8757 H   0  0  0  0  0  0  0  0  0  0  0  0
    4.9717    1.2529   -5.1483 H   0  0  0  0  0  0  0  0  0  0  0  0
    4.7201    0.7587   -3.4751 H   0  0  0  0  0  0  0  0  0  0  0  0
    2.5268   -0.3173   -4.1388 H   0  0  0  0  0  0  0  0  0  0  0  0
    2.7451    0.2680   -5.7864 H   0  0  0  0  0  0  0  0  0  0  0  0
    2.5333    2.0441   -3.2977 H   0  0  0  0  0  0  0  0  0  0  0  0
    2.4930    2.8229   -6.2762 H   0  0  0  0  0  0  0  0  0  0  0  0
    3.7948    3.1994   -5.1222 H   0  0  0  0  0  0  0  0  0  0  0  0
    2.1899    3.9288   -4.9161 H   0  0  0  0  0  0  0  0  0  0  0  0
    0.4137    1.4134   -5.4392 H   0  0  0  0  0  0  0  0  0  0  0  0
    0.2207    2.5684   -4.1000 H   0  0  0  0  0  0  0  0  0  0  0  0
    0.3979    0.8299   -3.7586 H   0  0  0  0  0  0  0  0  0  0  0  0
   16.8174   -4.4040   -3.0284 H   0  0  0  0  0  0  0  0  0  0  0  0
   16.9937   -3.2379   -4.3739 H   0  0  0  0  0  0  0  0  0  0  0  0
   18.4230   -3.8367   -3.4851 H   0  0  0  0  0  0  0  0  0  0  0  0
   18.4295   -7.5399   -5.9485 H   0  0  0  0  0  0  0  0  0  0  0  0
  1  2  2  0
  1 48  1  0
  1 49  1  0
  2  3  1  0
  2 47  1  0
  3  4  2  0
  3 50  1  0
  4  5  1  0
  4 51  1  0
  5  6  2  0
  5  7  1  0
  7  8  1  0
  7  9  1  0
  8 52  1  0
  8 53  1  0
  8 54  1  0
  9 10  1  0
  9 55  1  0
  9 56  1  0
 10 11  2  0
 10 12  1  0
 12 13  1  0
 12 57  1  0
 13 14  1  1
 13 15  1  0
 13 20  1  0
 15 16  1  0
 15 58  1  0
 15 59  1  0
 16 17  2  0
 16 18  1  0
 18 19  1  0
 19 60  1  0
 19 61  1  0
 19 62  1  0
 20 21  2  0
 20 22  1  0
 22 23  1  0
 23 24  1  1
 23 25  1  0
 23 42  1  0
 25 26  1  1
 25 27  1  0
 25 28  1  0
 27 63  1  0
 27 64  1  0
 27 65  1  0
 28 29  1  0
 28 66  1  0
 28 67  1  0
 29 30  1  0
 29 68  1  0
 29 69  1  0
 30 31  1  0
 30 70  1  0
 30 71  1  0
 31 32  1  0
 31 72  1  0
 31 73  1  0
 32 33  1  0
 32 74  1  0
 32 75  1  0
 33 34  1  0
 33 76  1  0
 33 77  1  0
 34 35  1  0
 34 78  1  0
 34 79  1  0
 35 36  1  0
 35 80  1  0
 35 81  1  0
 36 37  1  0
 36 82  1  0
 36 83  1  0
 37 38  1  0
 37 84  1  0
 37 85  1  0
 38 39  1  0
 38 86  1  0
 38 87  1  0
 39 40  1  0
 39 41  1  0
 39 88  1  1
 40 89  1  0
 40 90  1  0
 40 91  1  0
 41 92  1  0
 41 93  1  0
 41 94  1  0
 42 43  1  6
 42 44  1  0
 42 45  1  0
 44 95  1  0
 44 96  1  0
 44 97  1  0
 45 46  2  0
 45 47  1  0
 47 98  1  0
M  END

