
     RDKit          3D

 41 42  0  0  0  0  0  0  0  0999 V2000
    0.9962    0.4705   -0.5121 C   0  0  0  0  0  0  0  0  0  0  0  0
    2.4945    0.2260   -0.2599 C   0  0  0  0  0  0  0  0  0  0  0  0
    2.9931   -1.1225   -0.7406 C   0  0  0  0  0  0  0  0  0  0  0  0
    3.6467   -1.2270   -1.9590 C   0  0  0  0  0  0  0  0  0  0  0  0
    4.0984   -2.4670   -2.4650 C   0  0  0  0  0  0  0  0  0  0  0  0
    4.7609   -2.6361   -3.6810 N   0  0  0  0  0  0  0  0  0  0  0  0
    4.9567   -1.5955   -4.3632 N   0  0  0  0  0  0  0  0  0  0  0  0
    5.6275   -1.8004   -5.5867 C   0  0  0  0  0  0  0  0  0  0  0  0
    5.8586   -0.6492   -6.3622 C   0  0  0  0  0  0  0  0  0  0  0  0
    6.5124   -0.7381   -7.5877 C   0  0  0  0  0  0  0  0  0  0  0  0
    6.9336   -1.9934   -8.0313 C   0  0  0  0  0  0  0  0  0  0  0  0
    7.6268   -2.0987   -9.3282 N   0  0  0  0  0  0  0  0  0  0  0  0
    7.8029   -1.0691   -9.9617 O   0  0  0  0  0  0  0  0  0  0  0  0
    7.9833   -3.2094   -9.6912 O   0  0  0  0  0  0  0  0  0  0  0  0
    6.7166   -3.1551   -7.2800 C   0  0  0  0  0  0  0  0  0  0  0  0
    6.0636   -3.0573   -6.0582 C   0  0  0  0  0  0  0  0  0  0  0  0
    3.8768   -3.6241   -1.7001 C   0  0  0  0  0  0  0  0  0  0  0  0
    3.2310   -3.5515   -0.4737 C   0  0  0  0  0  0  0  0  0  0  0  0
    2.7724   -2.3121    0.0315 C   0  0  0  0  0  0  0  0  0  0  0  0
    2.1319   -2.2239    1.2456 N   0  0  0  0  0  0  0  0  0  0  0  0
    1.7545   -3.3370    2.1006 C   0  0  0  0  0  0  0  0  0  0  0  0
    2.8699   -3.7740    3.0578 C   0  0  0  0  0  0  0  0  0  0  0  0
    3.2812   -2.7238    3.9007 O   0  0  0  0  0  0  0  0  0  0  0  0
    0.6892    1.4611   -0.1403 H   0  0  0  0  0  0  0  0  0  0  0  0
    0.3637   -0.2853   -0.0186 H   0  0  0  0  0  0  0  0  0  0  0  0
    0.7720    0.4266   -1.5891 H   0  0  0  0  0  0  0  0  0  0  0  0
    2.7171    0.3538    0.8162 H   0  0  0  0  0  0  0  0  0  0  0  0
    3.0744    1.0118   -0.7684 H   0  0  0  0  0  0  0  0  0  0  0  0
    3.8293   -0.3355   -2.5619 H   0  0  0  0  0  0  0  0  0  0  0  0
    5.5111    0.3102   -5.9745 H   0  0  0  0  0  0  0  0  0  0  0  0
    6.7032    0.1382   -8.2063 H   0  0  0  0  0  0  0  0  0  0  0  0
    7.0650   -4.1108   -7.6709 H   0  0  0  0  0  0  0  0  0  0  0  0
    5.8758   -3.9380   -5.4439 H   0  0  0  0  0  0  0  0  0  0  0  0
    4.2298   -4.5800   -2.0926 H   0  0  0  0  0  0  0  0  0  0  0  0
    3.0831   -4.4644    0.1028 H   0  0  0  0  0  0  0  0  0  0  0  0
    1.7643   -1.3187    1.4997 H   0  0  0  0  0  0  0  0  0  0  0  0
    1.4147   -4.1936    1.4923 H   0  0  0  0  0  0  0  0  0  0  0  0
    0.8925   -3.0100    2.7029 H   0  0  0  0  0  0  0  0  0  0  0  0
    3.7192   -4.1948    2.4834 H   0  0  0  0  0  0  0  0  0  0  0  0
    2.4867   -4.5790    3.7061 H   0  0  0  0  0  0  0  0  0  0  0  0
    3.6727   -2.0418    3.3377 H   0  0  0  0  0  0  0  0  0  0  0  0
  1  2  1  0
  1 24  1  0
  1 25  1  0
  1 26  1  0
  2  3  1  0
  2 27  1  0
  2 28  1  0
  3  4  2  0
  3 19  1  0
  4  5  1  0
  4 29  1  0
  5  6  1  0
  5 17  2  0
  6  7  2  0
  7  8  1  0
  8  9  2  0
  8 16  1  0
  9 10  1  0
  9 30  1  0
 10 11  2  0
 10 31  1  0
 11 12  1  0
 11 15  1  0
 12 13  2  0
 12 14  1  0
 15 16  2  0
 15 32  1  0
 16 33  1  0
 17 18  1  0
 17 34  1  0
 18 19  2  0
 18 35  1  0
 19 20  1  0
 20 21  1  0
 20 36  1  0
 21 22  1  0
 21 37  1  0
 21 38  1  0
 22 23  1  0
 22 39  1  0
 22 40  1  0
 23 41  1  0
M  CHG  2  12   1  14  -1
M  END

