
     RDKit          3D

 43 44  0  0  0  0  0  0  0  0999 V2000
    2.7460    0.6474    0.7506 C   0  0  0  0  0  0  0  0  0  0  0  0
    4.0521    0.1145    0.7812 O   0  0  0  0  0  0  0  0  0  0  0  0
    4.9941    0.5004   -0.2053 C   0  0  1  0  0  0  0  0  0  0  0  0
    5.0760    2.0381   -0.2846 C   0  0  0  0  0  0  0  0  0  0  0  0
    6.2973   -0.1274    0.3158 C   0  0  0  0  0  0  0  0  0  0  0  0
    4.5750   -0.1628   -1.5714 C   0  0  0  0  0  0  0  0  0  0  0  0
    3.5771   -0.8653   -1.5956 O   0  0  0  0  0  0  0  0  0  0  0  0
    5.3124    0.0454   -2.7229 N   0  0  0  0  0  0  0  0  0  0  0  0
    6.5858    0.7364   -2.8948 C   0  0  0  0  0  0  0  0  0  0  0  0
    6.4888    1.7932   -4.0002 C   0  0  0  0  0  0  0  0  0  0  0  0
    5.9509    1.1945   -5.3062 C   0  0  0  0  0  0  0  0  0  0  0  0
    4.6366    0.3947   -5.1106 C   0  0  1  0  0  0  0  0  0  0  0  0
    3.4282    1.3141   -4.7974 C   0  0  0  0  0  0  0  0  0  0  0  0
    2.9510    2.0981   -6.0215 C   0  0  0  0  0  0  0  0  0  0  0  0
    2.6485    1.2490   -7.1099 O   0  0  0  0  0  0  0  0  0  0  0  0
    3.7593    0.4776   -7.5172 C   0  0  0  0  0  0  0  0  0  0  0  0
    4.2817   -0.4083   -6.3846 C   0  0  0  0  0  0  0  0  0  0  0  0
    4.8625   -0.6053   -3.9551 C   0  0  0  0  0  0  0  0  0  0  0  0
    2.1670    0.0852    1.4982 H   0  0  0  0  0  0  0  0  0  0  0  0
    2.2602    0.5160   -0.2286 H   0  0  0  0  0  0  0  0  0  0  0  0
    2.7193    1.7167    1.0360 H   0  0  0  0  0  0  0  0  0  0  0  0
    5.1539    2.4359    0.7393 H   0  0  0  0  0  0  0  0  0  0  0  0
    4.1799    2.4717   -0.7534 H   0  0  0  0  0  0  0  0  0  0  0  0
    5.9487    2.3952   -0.8455 H   0  0  0  0  0  0  0  0  0  0  0  0
    6.5166    0.2886    1.3107 H   0  0  0  0  0  0  0  0  0  0  0  0
    7.1617    0.0468   -0.3377 H   0  0  0  0  0  0  0  0  0  0  0  0
    6.1511   -1.2116    0.4282 H   0  0  0  0  0  0  0  0  0  0  0  0
    7.3573   -0.0101   -3.1720 H   0  0  0  0  0  0  0  0  0  0  0  0
    6.9158    1.1926   -1.9596 H   0  0  0  0  0  0  0  0  0  0  0  0
    7.4864    2.2320   -4.1701 H   0  0  0  0  0  0  0  0  0  0  0  0
    5.8392    2.6148   -3.6540 H   0  0  0  0  0  0  0  0  0  0  0  0
    6.7108    0.5037   -5.7153 H   0  0  0  0  0  0  0  0  0  0  0  0
    5.8300    1.9901   -6.0580 H   0  0  0  0  0  0  0  0  0  0  0  0
    3.6593    2.0138   -3.9782 H   0  0  0  0  0  0  0  0  0  0  0  0
    2.5942    0.6852   -4.4435 H   0  0  0  0  0  0  0  0  0  0  0  0
    3.7093    2.8508   -6.3261 H   0  0  0  0  0  0  0  0  0  0  0  0
    2.0263    2.6480   -5.7874 H   0  0  0  0  0  0  0  0  0  0  0  0
    4.5657    1.1395   -7.8984 H   0  0  0  0  0  0  0  0  0  0  0  0
    3.4200   -0.1397   -8.3633 H   0  0  0  0  0  0  0  0  0  0  0  0
    5.1568   -0.9837   -6.7345 H   0  0  0  0  0  0  0  0  0  0  0  0
    3.4950   -1.1408   -6.1328 H   0  0  0  0  0  0  0  0  0  0  0  0
    5.6285   -1.3426   -4.2672 H   0  0  0  0  0  0  0  0  0  0  0  0
    3.9425   -1.1540   -3.7239 H   0  0  0  0  0  0  0  0  0  0  0  0
  1  2  1  0
  1 19  1  0
  1 20  1  0
  1 21  1  0
  3  2  1  1
  3  4  1  0
  3  5  1  0
  3  6  1  0
  4 22  1  0
  4 23  1  0
  4 24  1  0
  5 25  1  0
  5 26  1  0
  5 27  1  0
  6  7  2  0
  6  8  1  0
  8  9  1  0
  8 18  1  0
  9 10  1  0
  9 28  1  0
  9 29  1  0
 10 11  1  0
 10 30  1  0
 10 31  1  0
 12 11  1  6
 11 32  1  0
 11 33  1  0
 12 13  1  0
 12 17  1  0
 12 18  1  0
 13 14  1  0
 13 34  1  0
 13 35  1  0
 14 15  1  0
 14 36  1  0
 14 37  1  0
 15 16  1  0
 16 17  1  0
 16 38  1  0
 16 39  1  0
 17 40  1  0
 17 41  1  0
 18 42  1  0
 18 43  1  0
M  END

