
     RDKit          3D

 55 59  0  0  0  0  0  0  0  0999 V2000
    5.0470    5.3448    4.8655 C   0  0  0  0  0  0  0  0  0  0  0  0
    5.4044    5.1311    3.3896 C   0  0  0  0  0  0  0  0  0  0  0  0
    6.1814    3.9269    3.0928 N   0  0  0  0  0  0  0  0  0  0  0  0
    5.4189    2.7006    2.8945 C   0  0  0  0  0  0  0  0  0  0  0  0
    4.6679    2.6177    1.5995 N   0  0  0  0  0  0  0  0  0  0  0  0
    5.3592    2.0877    0.4671 C   0  0  0  0  0  0  0  0  0  0  0  0
    5.4998    0.9050    0.2892 O   0  0  0  0  0  0  0  0  0  0  0  0
    6.1501    3.1996   -0.2024 C   0  0  0  0  0  0  0  0  0  0  0  0
    5.7294    4.3112   -0.9431 C   0  0  0  0  0  0  0  0  0  0  0  0
    6.4575    5.5087   -0.8412 C   0  0  0  0  0  0  0  0  0  0  0  0
    7.4568    5.6616    0.1323 C   0  0  0  0  0  0  0  0  0  0  0  0
    7.8482    4.5497    0.8953 C   0  0  0  0  0  0  0  0  0  0  0  0
    7.3169    3.3048    0.5589 C   0  0  0  0  0  0  0  0  0  0  0  0
    8.4670    4.5351    2.2503 C   0  0  0  0  0  0  0  0  0  0  0  0
    9.8020    4.8464    2.5009 C   0  0  0  0  0  0  0  0  0  0  0  0
   10.3220    4.6225    3.7882 C   0  0  0  0  0  0  0  0  0  0  0  0
   11.6206    4.7698    4.4134 C   0  0  0  0  0  0  0  0  0  0  0  0
   12.8185    5.2334    3.6494 C   0  0  0  0  0  0  0  0  0  0  0  0
   12.6968    5.9992    2.7029 O   0  0  0  0  0  0  0  0  0  0  0  0
   14.0244    4.7173    4.0363 N   0  0  0  0  0  0  0  0  0  0  0  0
   15.2664    5.0469    3.3695 C   0  0  0  0  0  0  0  0  0  0  0  0
   11.4594    4.3581    5.7229 C   0  0  0  0  0  0  0  0  0  0  0  0
   12.3267    4.3054    6.9055 C   0  0  0  0  0  0  0  0  0  0  0  0
   13.3566    5.2449    7.1140 C   0  0  0  0  0  0  0  0  0  0  0  0
   14.1592    5.1863    8.2525 C   0  0  0  0  0  0  0  0  0  0  0  0
   13.9227    4.1894    9.1978 C   0  0  0  0  0  0  0  0  0  0  0  0
   14.6899    4.1322   10.2923 F   0  0  0  0  0  0  0  0  0  0  0  0
   12.8997    3.2569    9.0333 C   0  0  0  0  0  0  0  0  0  0  0  0
   12.1052    3.3203    7.8903 C   0  0  0  0  0  0  0  0  0  0  0  0
   10.1723    3.9331    5.9409 O   0  0  0  0  0  0  0  0  0  0  0  0
    9.4827    4.0876    4.7759 C   0  0  0  0  0  0  0  0  0  0  0  0
    8.1346    3.7992    4.5743 C   0  0  0  0  0  0  0  0  0  0  0  0
    7.5996    4.0380    3.3016 C   0  0  0  0  0  0  0  0  0  0  0  0
    4.4225    6.2459    4.9832 H   0  0  0  0  0  0  0  0  0  0  0  0
    5.9495    5.4816    5.4809 H   0  0  0  0  0  0  0  0  0  0  0  0
    4.4815    4.4910    5.2732 H   0  0  0  0  0  0  0  0  0  0  0  0
    5.9599    6.0061    3.0136 H   0  0  0  0  0  0  0  0  0  0  0  0
    4.4730    5.1041    2.7952 H   0  0  0  0  0  0  0  0  0  0  0  0
    4.6595    2.5996    3.6898 H   0  0  0  0  0  0  0  0  0  0  0  0
    6.0772    1.8240    2.9613 H   0  0  0  0  0  0  0  0  0  0  0  0
    4.3305    3.5547    1.3839 H   0  0  0  0  0  0  0  0  0  0  0  0
    4.8222    4.2720   -1.5521 H   0  0  0  0  0  0  0  0  0  0  0  0
    6.1616    6.3700   -1.4464 H   0  0  0  0  0  0  0  0  0  0  0  0
    7.8666    6.6523    0.3460 H   0  0  0  0  0  0  0  0  0  0  0  0
    7.6453    2.4354    1.1307 H   0  0  0  0  0  0  0  0  0  0  0  0
   10.4485    5.2312    1.7116 H   0  0  0  0  0  0  0  0  0  0  0  0
   14.0363    4.0185    4.7689 H   0  0  0  0  0  0  0  0  0  0  0  0
   15.0467    5.8050    2.6069 H   0  0  0  0  0  0  0  0  0  0  0  0
   15.7073    4.1658    2.8725 H   0  0  0  0  0  0  0  0  0  0  0  0
   16.0078    5.4537    4.0781 H   0  0  0  0  0  0  0  0  0  0  0  0
   13.5204    6.0417    6.3877 H   0  0  0  0  0  0  0  0  0  0  0  0
   14.9542    5.9137    8.4276 H   0  0  0  0  0  0  0  0  0  0  0  0
   12.7397    2.4954    9.7988 H   0  0  0  0  0  0  0  0  0  0  0  0
   11.2990    2.5985    7.7514 H   0  0  0  0  0  0  0  0  0  0  0  0
    7.5091    3.4259    5.3857 H   0  0  0  0  0  0  0  0  0  0  0  0
  1  2  1  0
  1 34  1  0
  1 35  1  0
  1 36  1  0
  2  3  1  0
  2 37  1  0
  2 38  1  0
  3  4  1  0
  3 33  1  0
  4  5  1  0
  4 39  1  0
  4 40  1  0
  5  6  1  0
  5 41  1  0
  6  7  2  0
  6  8  1  0
  8  9  2  0
  8 13  1  0
  9 10  1  0
  9 42  1  0
 10 11  2  0
 10 43  1  0
 11 12  1  0
 11 44  1  0
 12 13  2  0
 12 14  1  0
 13 45  1  0
 14 15  2  0
 14 33  1  0
 15 16  1  0
 15 46  1  0
 16 17  1  0
 16 31  2  0
 17 18  1  0
 17 22  2  0
 18 19  2  0
 18 20  1  0
 20 21  1  0
 20 47  1  0
 21 48  1  0
 21 49  1  0
 21 50  1  0
 22 23  1  0
 22 30  1  0
 23 24  2  0
 23 29  1  0
 24 25  1  0
 24 51  1  0
 25 26  2  0
 25 52  1  0
 26 27  1  0
 26 28  1  0
 28 29  2  0
 28 53  1  0
 29 54  1  0
 30 31  1  0
 31 32  1  0
 32 33  2  0
 32 55  1  0
M  END

