
     RDKit          3D

 33 34  0  0  0  0  0  0  0  0999 V2000
    1.2652   -0.8188    0.4645 C   0  0  0  0  0  0  0  0  0  0  0  0
    2.6319   -0.6129    0.6959 O   0  0  0  0  0  0  0  0  0  0  0  0
    2.9125    0.5406    1.4490 C   0  0  0  0  0  0  0  0  0  0  0  0
    4.4274    0.6507    1.6086 C   0  0  0  0  0  0  0  0  0  0  0  0
    4.8339    1.8844    2.3625 C   0  0  0  0  0  0  0  0  0  0  0  0
    4.4256    3.0878    2.0884 N   0  0  0  0  0  0  0  0  0  0  0  0
    4.9678    4.0283    2.9350 C   0  0  0  0  0  0  0  0  0  0  0  0
    5.8138    3.5357    3.9020 C   0  0  0  0  0  0  0  0  0  0  0  0
    5.9368    1.8086    3.7288 S   0  0  0  0  0  0  0  0  0  0  0  0
    6.5113    4.3555    4.9500 C   0  0  0  0  0  0  0  0  0  0  0  0
    5.8502    5.7420    5.0442 C   0  0  0  0  0  0  0  0  0  0  0  0
    5.6013    6.3418    3.6563 C   0  0  0  0  0  0  0  0  0  0  0  0
    4.6258    5.4973    2.8155 C   0  0  1  0  0  0  0  0  0  0  0  0
    4.5588    5.9593    1.3495 C   0  0  0  0  0  0  0  0  0  0  0  0
    4.1144    7.3496    1.2614 N   0  0  0  0  0  0  0  0  0  0  0  0
    1.1581   -1.7349   -0.1349 H   0  0  0  0  0  0  0  0  0  0  0  0
    0.8053    0.0230   -0.0930 H   0  0  0  0  0  0  0  0  0  0  0  0
    0.6968   -0.9480    1.4087 H   0  0  0  0  0  0  0  0  0  0  0  0
    2.4280    0.4899    2.4474 H   0  0  0  0  0  0  0  0  0  0  0  0
    2.5269    1.4517    0.9502 H   0  0  0  0  0  0  0  0  0  0  0  0
    4.8781    0.6680    0.6009 H   0  0  0  0  0  0  0  0  0  0  0  0
    4.8072   -0.2522    2.1103 H   0  0  0  0  0  0  0  0  0  0  0  0
    7.5813    4.4668    4.6919 H   0  0  0  0  0  0  0  0  0  0  0  0
    6.4866    3.8461    5.9281 H   0  0  0  0  0  0  0  0  0  0  0  0
    6.4847    6.4132    5.6456 H   0  0  0  0  0  0  0  0  0  0  0  0
    4.8900    5.6502    5.5826 H   0  0  0  0  0  0  0  0  0  0  0  0
    6.5633    6.4116    3.1148 H   0  0  0  0  0  0  0  0  0  0  0  0
    5.2180    7.3693    3.7278 H   0  0  0  0  0  0  0  0  0  0  0  0
    3.6067    5.6282    3.2363 H   0  0  0  0  0  0  0  0  0  0  0  0
    3.9313    5.2397    0.7894 H   0  0  0  0  0  0  0  0  0  0  0  0
    5.5714    5.8926    0.9136 H   0  0  0  0  0  0  0  0  0  0  0  0
    3.1206    7.4134    1.4888 H   0  0  0  0  0  0  0  0  0  0  0  0
    4.2043    7.6895    0.3044 H   0  0  0  0  0  0  0  0  0  0  0  0
  1  2  1  0
  1 16  1  0
  1 17  1  0
  1 18  1  0
  2  3  1  0
  3  4  1  0
  3 19  1  0
  3 20  1  0
  4  5  1  0
  4 21  1  0
  4 22  1  0
  5  6  2  0
  5  9  1  0
  6  7  1  0
  7  8  2  0
  7 13  1  0
  8  9  1  0
  8 10  1  0
 10 11  1  0
 10 23  1  0
 10 24  1  0
 11 12  1  0
 11 25  1  0
 11 26  1  0
 12 13  1  0
 12 27  1  0
 12 28  1  0
 13 14  1  0
 13 29  1  1
 14 15  1  0
 14 30  1  0
 14 31  1  0
 15 32  1  0
 15 33  1  0
M  END

