
     RDKit          3D

 47 48  0  0  0  0  0  0  0  0999 V2000
    0.8017    0.4566   -0.0113 C   0  0  0  0  0  0  0  0  0  0  0  0
    2.2295    0.6227    0.5132 C   0  0  0  0  0  0  0  0  0  0  0  0
    3.1847    1.3814   -0.4396 C   0  0  1  0  0  0  0  0  0  0  0  0
    3.1555    0.8557   -1.4106 H   0  0  0  0  0  0  0  0  0  0  0  0
    2.7481    2.8358   -0.6900 C   0  0  0  0  0  0  0  0  0  0  0  0
    4.6209    1.3042    0.0564 C   0  0  0  0  0  0  0  0  0  0  0  0
    5.5915    0.5846   -0.6627 C   0  0  0  0  0  0  0  0  0  0  0  0
    6.9068    0.4975   -0.2146 C   0  0  0  0  0  0  0  0  0  0  0  0
    7.2992    1.1299    0.9770 C   0  0  0  0  0  0  0  0  0  0  0  0
    8.7225    1.0013    1.4090 C   0  0  0  0  0  0  0  0  0  0  0  0
    9.5444    0.3878    0.7606 O   0  0  0  0  0  0  0  0  0  0  0  0
    9.1375    1.6806    2.7220 C   0  0  0  0  0  0  0  0  0  0  0  0
   10.4849    1.3770    3.0349 O   0  0  0  0  0  0  0  0  0  0  0  0
   11.4231    2.0633    2.3714 C   0  0  0  0  0  0  0  0  0  0  0  0
   11.2105    2.9862    1.6285 O   0  0  0  0  0  0  0  0  0  0  0  0
   12.8176    1.5138    2.6203 C   0  0  0  0  0  0  0  0  0  0  0  0
   12.9225    0.9920    3.9254 O   0  0  0  0  0  0  0  0  0  0  0  0
   14.0523    0.3673    4.3142 C   0  0  0  0  0  0  0  0  0  0  0  0
   15.1929    0.2099    3.5144 C   0  0  0  0  0  0  0  0  0  0  0  0
   16.3133   -0.4572    4.0193 C   0  0  0  0  0  0  0  0  0  0  0  0
   16.3203   -0.9724    5.3176 C   0  0  0  0  0  0  0  0  0  0  0  0
   15.1906   -0.8167    6.1206 C   0  0  0  0  0  0  0  0  0  0  0  0
   14.0527   -0.1514    5.6348 C   0  0  0  0  0  0  0  0  0  0  0  0
   12.8951    0.0052    6.4667 C   0  0  0  0  0  0  0  0  0  0  0  0
   11.9766    0.1153    7.1685 N   0  0  0  0  0  0  0  0  0  0  0  0
    6.3352    1.8519    1.7032 C   0  0  0  0  0  0  0  0  0  0  0  0
    5.0203    1.9360    1.2473 C   0  0  0  0  0  0  0  0  0  0  0  0
    0.1989   -0.1513    0.6818 H   0  0  0  0  0  0  0  0  0  0  0  0
    0.7910   -0.0506   -0.9909 H   0  0  0  0  0  0  0  0  0  0  0  0
    0.2857    1.4221   -0.1314 H   0  0  0  0  0  0  0  0  0  0  0  0
    2.6598   -0.3741    0.7099 H   0  0  0  0  0  0  0  0  0  0  0  0
    2.2079    1.1387    1.4900 H   0  0  0  0  0  0  0  0  0  0  0  0
    1.7530    2.8784   -1.1584 H   0  0  0  0  0  0  0  0  0  0  0  0
    3.4543    3.3501   -1.3600 H   0  0  0  0  0  0  0  0  0  0  0  0
    2.6982    3.4110    0.2492 H   0  0  0  0  0  0  0  0  0  0  0  0
    5.3057    0.0855   -1.5931 H   0  0  0  0  0  0  0  0  0  0  0  0
    7.6595   -0.0596   -0.7759 H   0  0  0  0  0  0  0  0  0  0  0  0
    8.5346    1.3005    3.5591 H   0  0  0  0  0  0  0  0  0  0  0  0
    8.9905    2.7692    2.6364 H   0  0  0  0  0  0  0  0  0  0  0  0
   13.5360    2.3313    2.4437 H   0  0  0  0  0  0  0  0  0  0  0  0
   12.9887    0.7271    1.8607 H   0  0  0  0  0  0  0  0  0  0  0  0
   15.2162    0.6057    2.4993 H   0  0  0  0  0  0  0  0  0  0  0  0
   17.1935   -0.5713    3.3816 H   0  0  0  0  0  0  0  0  0  0  0  0
   17.1998   -1.4913    5.7035 H   0  0  0  0  0  0  0  0  0  0  0  0
   15.1729   -1.2101    7.1388 H   0  0  0  0  0  0  0  0  0  0  0  0
    6.6004    2.3611    2.6323 H   0  0  0  0  0  0  0  0  0  0  0  0
    4.2941    2.5062    1.8317 H   0  0  0  0  0  0  0  0  0  0  0  0
  1  2  1  0
  1 28  1  0
  1 29  1  0
  1 30  1  0
  2  3  1  0
  2 31  1  0
  2 32  1  0
  3  4  1  6
  3  5  1  0
  3  6  1  0
  5 33  1  0
  5 34  1  0
  5 35  1  0
  6  7  2  0
  6 27  1  0
  7  8  1  0
  7 36  1  0
  8  9  2  0
  8 37  1  0
  9 10  1  0
  9 26  1  0
 10 11  2  0
 10 12  1  0
 12 13  1  0
 12 38  1  0
 12 39  1  0
 13 14  1  0
 14 15  2  0
 14 16  1  0
 16 17  1  0
 16 40  1  0
 16 41  1  0
 17 18  1  0
 18 19  2  0
 18 23  1  0
 19 20  1  0
 19 42  1  0
 20 21  2  0
 20 43  1  0
 21 22  1  0
 21 44  1  0
 22 23  2  0
 22 45  1  0
 23 24  1  0
 24 25  3  0
 26 27  2  0
 26 46  1  0
 27 47  1  0
M  END

