
     RDKit          3D

 45 44  0  0  0  0  0  0  0  0999 V2000
    1.0156   -4.7085   -0.1423 C   0  0  0  0  0  0  0  0  0  0  0  0
    2.5126   -4.4048   -0.0661 C   0  0  0  0  0  0  0  0  0  0  0  0
    2.9708   -3.3215   -1.0485 C   0  0  0  0  0  0  0  0  0  0  0  0
    4.4720   -3.0242   -0.9743 C   0  0  0  0  0  0  0  0  0  0  0  0
    4.9942   -1.9872   -1.9911 C   0  0  1  0  0  0  0  0  0  0  0  0
    4.4418   -0.5618   -1.7591 C   0  0  0  0  0  0  0  0  0  0  0  0
    4.8409    0.1115   -0.4423 C   0  0  0  0  0  0  0  0  0  0  0  0
    6.5381   -2.0084   -2.0509 C   0  0  0  0  0  0  0  0  0  0  0  0
    7.1336   -3.1752   -2.8711 C   0  0  1  0  0  0  0  0  0  0  0  0
    7.1256   -2.8388   -4.3773 C   0  0  0  0  0  0  0  0  0  0  0  0
    7.3175   -4.0319   -5.3167 C   0  0  0  0  0  0  0  0  0  0  0  0
    8.5465   -3.5572   -2.3853 C   0  0  0  0  0  0  0  0  0  0  0  0
    8.6081   -4.2326   -1.0123 C   0  0  0  0  0  0  0  0  0  0  0  0
    7.8419   -5.4698   -0.9800 N   0  0  0  0  0  0  0  0  0  0  0  0
    7.9161   -6.2003    0.2261 N   0  0  0  0  0  0  0  0  0  0  0  0
    0.7225   -5.4904    0.5767 H   0  0  0  0  0  0  0  0  0  0  0  0
    0.7283   -5.0579   -1.1483 H   0  0  0  0  0  0  0  0  0  0  0  0
    0.4122   -3.8115    0.0778 H   0  0  0  0  0  0  0  0  0  0  0  0
    3.0874   -5.3301   -0.2532 H   0  0  0  0  0  0  0  0  0  0  0  0
    2.7736   -4.0946    0.9625 H   0  0  0  0  0  0  0  0  0  0  0  0
    2.3891   -2.4010   -0.8606 H   0  0  0  0  0  0  0  0  0  0  0  0
    2.7122   -3.6336   -2.0781 H   0  0  0  0  0  0  0  0  0  0  0  0
    5.0257   -3.9692   -1.1149 H   0  0  0  0  0  0  0  0  0  0  0  0
    4.7273   -2.6909    0.0487 H   0  0  0  0  0  0  0  0  0  0  0  0
    4.6213   -2.2955   -2.9862 H   0  0  0  0  0  0  0  0  0  0  0  0
    3.3408   -0.5843   -1.8312 H   0  0  0  0  0  0  0  0  0  0  0  0
    4.7773    0.0725   -2.5991 H   0  0  0  0  0  0  0  0  0  0  0  0
    4.4738   -0.4438    0.4359 H   0  0  0  0  0  0  0  0  0  0  0  0
    4.4207    1.1284   -0.3817 H   0  0  0  0  0  0  0  0  0  0  0  0
    5.9345    0.2039   -0.3414 H   0  0  0  0  0  0  0  0  0  0  0  0
    6.9275   -2.0342   -1.0192 H   0  0  0  0  0  0  0  0  0  0  0  0
    6.9082   -1.0598   -2.4820 H   0  0  0  0  0  0  0  0  0  0  0  0
    6.4950   -4.0624   -2.7205 H   0  0  0  0  0  0  0  0  0  0  0  0
    7.9033   -2.0774   -4.5765 H   0  0  0  0  0  0  0  0  0  0  0  0
    6.1661   -2.3527   -4.6254 H   0  0  0  0  0  0  0  0  0  0  0  0
    8.2860   -4.5351   -5.1639 H   0  0  0  0  0  0  0  0  0  0  0  0
    7.2804   -3.7168   -6.3720 H   0  0  0  0  0  0  0  0  0  0  0  0
    6.5271   -4.7868   -5.1681 H   0  0  0  0  0  0  0  0  0  0  0  0
    9.1855   -2.6559   -2.3626 H   0  0  0  0  0  0  0  0  0  0  0  0
    9.0180   -4.2356   -3.1188 H   0  0  0  0  0  0  0  0  0  0  0  0
    8.1990   -3.5653   -0.2329 H   0  0  0  0  0  0  0  0  0  0  0  0
    9.6780   -4.3963   -0.7395 H   0  0  0  0  0  0  0  0  0  0  0  0
    8.1276   -6.0877   -1.7392 H   0  0  0  0  0  0  0  0  0  0  0  0
    7.2480   -5.8036    0.8877 H   0  0  0  0  0  0  0  0  0  0  0  0
    8.8451   -6.1153    0.6595 H   0  0  0  0  0  0  0  0  0  0  0  0
  1  2  1  0
  1 16  1  0
  1 17  1  0
  1 18  1  0
  2  3  1  0
  2 19  1  0
  2 20  1  0
  3  4  1  0
  3 21  1  0
  3 22  1  0
  4  5  1  0
  4 23  1  0
  4 24  1  0
  5  6  1  0
  5  8  1  0
  5 25  1  6
  6  7  1  0
  6 26  1  0
  6 27  1  0
  7 28  1  0
  7 29  1  0
  7 30  1  0
  8  9  1  0
  8 31  1  0
  8 32  1  0
  9 10  1  0
  9 12  1  0
  9 33  1  6
 10 11  1  0
 10 34  1  0
 10 35  1  0
 11 36  1  0
 11 37  1  0
 11 38  1  0
 12 13  1  0
 12 39  1  0
 12 40  1  0
 13 14  1  0
 13 41  1  0
 13 42  1  0
 14 15  1  0
 14 43  1  0
 15 44  1  0
 15 45  1  0
M  END

