
     RDKit          3D

 38 41  0  0  0  0  0  0  0  0999 V2000
    2.2913    0.6933    0.0945 C   0  0  0  0  0  0  0  0  0  0  0  0
    2.0752   -0.6176    0.5862 C   0  0  0  0  0  0  0  0  0  0  0  0
    0.8948   -1.2028    0.5778 N   0  0  0  0  0  0  0  0  0  0  0  0
   -0.1701   -0.5294    0.0776 C   0  0  0  0  0  0  0  0  0  0  0  0
   -1.4513   -1.2086    0.0885 C   0  0  0  0  0  0  0  0  0  0  0  0
   -1.4791   -2.4651    0.6149 N   0  0  0  0  0  0  0  0  0  0  0  0
   -2.6135   -3.3617    0.5838 C   0  0  2  0  0  0  0  0  0  0  0  0
   -3.7558   -2.9909    1.6038 C   0  0  0  0  0  0  0  0  0  0  0  0
   -4.0628   -4.0968    2.5087 N   0  0  0  0  0  0  0  0  0  0  0  0
   -4.5040   -5.2609    1.7382 C   0  0  0  0  0  0  0  0  0  0  0  0
   -3.3969   -5.7294    0.7407 C   0  0  0  0  0  0  0  0  0  0  0  0
   -2.1760   -4.8065    0.9144 C   0  0  2  0  0  0  0  0  0  0  0  0
   -1.6985   -4.8935    2.3794 C   0  0  0  0  0  0  0  0  0  0  0  0
   -2.8768   -4.4412    3.2968 C   0  0  0  0  0  0  0  0  0  0  0  0
   -2.5576   -0.5381   -0.4394 C   0  0  0  0  0  0  0  0  0  0  0  0
   -2.4309    0.7694   -0.9618 C   0  0  0  0  0  0  0  0  0  0  0  0
   -1.2242    1.4398   -0.9748 C   0  0  0  0  0  0  0  0  0  0  0  0
   -0.0686    0.7957   -0.4529 C   0  0  0  0  0  0  0  0  0  0  0  0
    1.2208    1.3920   -0.4232 C   0  0  0  0  0  0  0  0  0  0  0  0
    3.2921    1.1301    0.1281 H   0  0  0  0  0  0  0  0  0  0  0  0
    2.9137   -1.1932    0.9970 H   0  0  0  0  0  0  0  0  0  0  0  0
   -0.5610   -2.8114    0.8799 H   0  0  0  0  0  0  0  0  0  0  0  0
   -3.0338   -3.3604   -0.4410 H   0  0  0  0  0  0  0  0  0  0  0  0
   -4.6800   -2.7137    1.0707 H   0  0  0  0  0  0  0  0  0  0  0  0
   -3.4421   -2.1198    2.1997 H   0  0  0  0  0  0  0  0  0  0  0  0
   -5.4293   -4.9916    1.2036 H   0  0  0  0  0  0  0  0  0  0  0  0
   -4.7670   -6.0645    2.4449 H   0  0  0  0  0  0  0  0  0  0  0  0
   -3.7554   -5.6890   -0.3012 H   0  0  0  0  0  0  0  0  0  0  0  0
   -3.0992   -6.7729    0.9342 H   0  0  0  0  0  0  0  0  0  0  0  0
   -1.3695   -5.1073    0.2262 H   0  0  0  0  0  0  0  0  0  0  0  0
   -0.8074   -4.2668    2.5418 H   0  0  0  0  0  0  0  0  0  0  0  0
   -1.3929   -5.9296    2.5992 H   0  0  0  0  0  0  0  0  0  0  0  0
   -2.5938   -3.5598    3.8940 H   0  0  0  0  0  0  0  0  0  0  0  0
   -3.1532   -5.2356    4.0089 H   0  0  0  0  0  0  0  0  0  0  0  0
   -3.5370   -1.0178   -0.4448 H   0  0  0  0  0  0  0  0  0  0  0  0
   -3.3241    1.2567   -1.3626 H   0  0  0  0  0  0  0  0  0  0  0  0
   -1.1422    2.4518   -1.3777 H   0  0  0  0  0  0  0  0  0  0  0  0
    1.3485    2.4050   -0.8156 H   0  0  0  0  0  0  0  0  0  0  0  0
  1  2  2  0
  1 19  1  0
  1 20  1  0
  2  3  1  0
  2 21  1  0
  3  4  2  0
  4  5  1  0
  4 18  1  0
  5  6  1  0
  5 15  2  0
  6  7  1  0
  6 22  1  0
  7  8  1  0
  7 12  1  0
  7 23  1  6
  8  9  1  0
  8 24  1  0
  8 25  1  0
  9 10  1  0
  9 14  1  0
 10 11  1  0
 10 26  1  0
 10 27  1  0
 11 12  1  0
 11 28  1  0
 11 29  1  0
 12 13  1  0
 12 30  1  6
 13 14  1  0
 13 31  1  0
 13 32  1  0
 14 33  1  0
 14 34  1  0
 15 16  1  0
 15 35  1  0
 16 17  2  0
 16 36  1  0
 17 18  1  0
 17 37  1  0
 18 19  2  0
 19 38  1  0
M  END

