
     RDKit          3D

 14 13  0  0  0  0  0  0  0  0999 V2000
    2.5813   -0.8408    1.3232 C   0  0  0  0  0  0  0  0  0  0  0  0
    2.5407   -0.1113   -0.0085 C   0  0  0  0  0  0  0  0  0  0  0  0
    3.1550   -0.8882   -1.0595 O   0  0  0  0  0  0  0  0  0  0  0  0
    4.4731   -0.7881   -1.2070 C   0  0  0  0  0  0  0  0  0  0  0  0
    5.2093   -0.0976   -0.5420 O   0  0  0  0  0  0  0  0  0  0  0  0
    5.0204   -1.6353   -2.3255 C   0  0  0  0  0  0  0  0  0  0  0  0
    4.2480   -2.3762   -3.0144 N   0  0  0  0  0  0  0  0  0  0  0  0
    5.0670   -3.2890   -4.2629 Cl  0  0  0  0  0  0  0  0  0  0  0  0
    2.0298   -0.2610    2.0804 H   0  0  0  0  0  0  0  0  0  0  0  0
    3.6165   -0.9625    1.6745 H   0  0  0  0  0  0  0  0  0  0  0  0
    2.1132   -1.8338    1.2419 H   0  0  0  0  0  0  0  0  0  0  0  0
    3.0482    0.8625    0.0560 H   0  0  0  0  0  0  0  0  0  0  0  0
    1.5078    0.0411   -0.3511 H   0  0  0  0  0  0  0  0  0  0  0  0
    6.1074   -1.5486   -2.4666 H   0  0  0  0  0  0  0  0  0  0  0  0
  1  2  1  0
  1  9  1  0
  1 10  1  0
  1 11  1  0
  2  3  1  0
  2 12  1  0
  2 13  1  0
  3  4  1  0
  4  5  2  0
  4  6  1  0
  6  7  2  0
  6 14  1  0
  7  8  1  0
M  END

