
     RDKit          3D

 34 34  0  0  0  0  0  0  0  0999 V2000
    0.9207    0.3088   -0.1439 C   0  0  0  0  0  0  0  0  0  0  0  0
    2.3605    0.3796   -0.6133 C   0  0  0  0  0  0  0  0  0  0  0  0
    2.9012   -0.9363   -0.5877 O   0  0  0  0  0  0  0  0  0  0  0  0
    4.1973   -1.1389   -0.9191 C   0  0  0  0  0  0  0  0  0  0  0  0
    5.0672   -0.1361   -1.3590 C   0  0  0  0  0  0  0  0  0  0  0  0
    6.4065   -0.4255   -1.6567 C   0  0  0  0  0  0  0  0  0  0  0  0
    7.4472    1.0874   -2.2303 Br  0  0  0  0  0  0  0  0  0  0  0  0
    6.9293   -1.7203   -1.5376 C   0  0  0  0  0  0  0  0  0  0  0  0
    8.3688   -2.1766   -1.8207 C   0  0  1  0  0  0  0  0  0  0  0  0
    9.0158   -1.7410   -3.0407 N   0  0  0  0  0  0  0  0  0  0  0  0
    9.3099   -1.9074   -0.6349 C   0  0  1  0  0  0  0  0  0  0  0  0
    8.7417   -2.2894    0.5233 F   0  0  0  0  0  0  0  0  0  0  0  0
   10.4529   -2.5934   -0.7635 F   0  0  0  0  0  0  0  0  0  0  0  0
    9.6300   -0.6079   -0.5180 F   0  0  0  0  0  0  0  0  0  0  0  0
    6.0249   -2.7107   -1.1057 C   0  0  0  0  0  0  0  0  0  0  0  0
    4.6917   -2.4616   -0.7972 C   0  0  0  0  0  0  0  0  0  0  0  0
    3.9188   -3.4782   -0.3264 O   0  0  0  0  0  0  0  0  0  0  0  0
    2.8263   -3.9213   -1.1387 C   0  0  0  0  0  0  0  0  0  0  0  0
    2.1274   -5.0490   -0.4069 C   0  0  0  0  0  0  0  0  0  0  0  0
    0.4763    1.3159   -0.1369 H   0  0  0  0  0  0  0  0  0  0  0  0
    0.8640   -0.1046    0.8744 H   0  0  0  0  0  0  0  0  0  0  0  0
    0.3209   -0.3295   -0.8106 H   0  0  0  0  0  0  0  0  0  0  0  0
    2.9566    1.0382    0.0451 H   0  0  0  0  0  0  0  0  0  0  0  0
    2.4208    0.7909   -1.6384 H   0  0  0  0  0  0  0  0  0  0  0  0
    4.7197    0.8895   -1.4659 H   0  0  0  0  0  0  0  0  0  0  0  0
    8.3282   -3.2771   -1.8525 H   0  0  0  0  0  0  0  0  0  0  0  0
    9.0750   -0.7252   -3.0824 H   0  0  0  0  0  0  0  0  0  0  0  0
    8.4839   -2.0493   -3.8523 H   0  0  0  0  0  0  0  0  0  0  0  0
    6.3705   -3.7403   -0.9847 H   0  0  0  0  0  0  0  0  0  0  0  0
    3.2178   -4.2668   -2.1146 H   0  0  0  0  0  0  0  0  0  0  0  0
    2.1330   -3.0858   -1.3280 H   0  0  0  0  0  0  0  0  0  0  0  0
    2.8221   -5.8814   -0.2153 H   0  0  0  0  0  0  0  0  0  0  0  0
    1.2843   -5.4279   -1.0057 H   0  0  0  0  0  0  0  0  0  0  0  0
    1.7378   -4.6976    0.5609 H   0  0  0  0  0  0  0  0  0  0  0  0
  1  2  1  0
  1 20  1  0
  1 21  1  0
  1 22  1  0
  2  3  1  0
  2 23  1  0
  2 24  1  0
  3  4  1  0
  4  5  2  0
  4 16  1  0
  5  6  1  0
  5 25  1  0
  6  7  1  0
  6  8  2  0
  8  9  1  0
  8 15  1  0
  9 10  1  0
  9 11  1  0
  9 26  1  6
 10 27  1  0
 10 28  1  0
 11 12  1  1
 11 13  1  0
 11 14  1  0
 15 16  2  0
 15 29  1  0
 16 17  1  0
 17 18  1  0
 18 19  1  0
 18 30  1  0
 18 31  1  0
 19 32  1  0
 19 33  1  0
 19 34  1  0
M  END

