
     RDKit          3D

 49 51  0  0  0  0  0  0  0  0999 V2000
    3.9931   -3.9012    2.7308 N   0  0  0  0  0  0  0  0  0  0  0  0
    3.5513   -4.6948    1.6797 C   0  0  0  0  0  0  0  0  0  0  0  0
    4.0744   -5.7568    1.3789 O   0  0  0  0  0  0  0  0  0  0  0  0
    2.4871   -4.1641    0.9695 N   0  0  0  0  0  0  0  0  0  0  0  0
    1.9072   -4.9331   -0.1324 C   0  0  0  0  0  0  0  0  0  0  0  0
    1.5200   -3.8610   -1.1510 C   0  0  0  0  0  0  0  0  0  0  0  0
    1.1216   -2.6796   -0.2605 C   0  0  0  0  0  0  0  0  0  0  0  0
    2.1241   -2.7483    0.9232 C   0  0  1  0  0  0  0  0  0  0  0  0
    3.0254   -2.1453    0.7080 H   0  0  0  0  0  0  0  0  0  0  0  0
    1.5016   -2.2298    2.2379 C   0  0  0  0  0  0  0  0  0  0  0  0
    1.2038   -3.0105    3.1352 O   0  0  0  0  0  0  0  0  0  0  0  0
    1.3018   -0.8804    2.3596 N   0  0  0  0  0  0  0  0  0  0  0  0
    1.7048    0.1639    1.4181 C   0  0  0  0  0  0  0  0  0  0  0  0
    0.5077    1.0416    1.0228 C   0  0  0  0  0  0  0  0  0  0  0  0
   -0.2723    1.5949    2.2337 C   0  0  2  0  0  0  0  0  0  0  0  0
    0.4682    2.7487    2.9225 C   0  0  0  0  0  0  0  0  0  0  0  0
    1.6845    2.7753    3.0319 O   0  0  0  0  0  0  0  0  0  0  0  0
   -0.3650    3.7157    3.4336 N   0  0  0  0  0  0  0  0  0  0  0  0
   -0.0488    4.8702    4.1815 C   0  0  0  0  0  0  0  0  0  0  0  0
    1.2651    5.2293    4.5313 C   0  0  0  0  0  0  0  0  0  0  0  0
    1.4836    6.3912    5.2761 C   0  0  0  0  0  0  0  0  0  0  0  0
    0.4222    7.2053    5.6802 C   0  0  0  0  0  0  0  0  0  0  0  0
   -0.8830    6.8463    5.3301 C   0  0  0  0  0  0  0  0  0  0  0  0
   -1.1180    5.6899    4.5877 C   0  0  0  0  0  0  0  0  0  0  0  0
   -0.5651    0.4556    3.2441 C   0  0  0  0  0  0  0  0  0  0  0  0
    0.6864   -0.3599    3.5811 C   0  0  0  0  0  0  0  0  0  0  0  0
    4.7131   -4.3761    3.2666 H   0  0  0  0  0  0  0  0  0  0  0  0
    3.2425   -3.5248    3.3089 H   0  0  0  0  0  0  0  0  0  0  0  0
    1.0187   -5.4976    0.2089 H   0  0  0  0  0  0  0  0  0  0  0  0
    2.6438   -5.6595   -0.4995 H   0  0  0  0  0  0  0  0  0  0  0  0
    0.7119   -4.1787   -1.8271 H   0  0  0  0  0  0  0  0  0  0  0  0
    2.3929   -3.5927   -1.7692 H   0  0  0  0  0  0  0  0  0  0  0  0
    0.0971   -2.8240    0.1206 H   0  0  0  0  0  0  0  0  0  0  0  0
    1.1477   -1.7120   -0.7818 H   0  0  0  0  0  0  0  0  0  0  0  0
    2.1488   -0.2798    0.5213 H   0  0  0  0  0  0  0  0  0  0  0  0
    2.4708    0.7961    1.8940 H   0  0  0  0  0  0  0  0  0  0  0  0
   -0.1903    0.4394    0.4165 H   0  0  0  0  0  0  0  0  0  0  0  0
    0.8613    1.8685    0.3866 H   0  0  0  0  0  0  0  0  0  0  0  0
   -1.2387    1.9829    1.8683 H   0  0  0  0  0  0  0  0  0  0  0  0
   -1.3541    3.5860    3.2562 H   0  0  0  0  0  0  0  0  0  0  0  0
    2.0923    4.5984    4.2160 H   0  0  0  0  0  0  0  0  0  0  0  0
    2.5089    6.6608    5.5428 H   0  0  0  0  0  0  0  0  0  0  0  0
    0.6088    8.1109    6.2619 H   0  0  0  0  0  0  0  0  0  0  0  0
   -1.7274    7.4691    5.6361 H   0  0  0  0  0  0  0  0  0  0  0  0
   -2.1431    5.4160    4.3185 H   0  0  0  0  0  0  0  0  0  0  0  0
   -1.3199   -0.2172    2.8027 H   0  0  0  0  0  0  0  0  0  0  0  0
   -1.0019    0.8654    4.1700 H   0  0  0  0  0  0  0  0  0  0  0  0
    0.4394   -1.2166    4.2189 H   0  0  0  0  0  0  0  0  0  0  0  0
    1.4201    0.2704    4.1138 H   0  0  0  0  0  0  0  0  0  0  0  0
  1  2  1  0
  1 27  1  0
  1 28  1  0
  2  3  2  0
  2  4  1  0
  4  5  1  0
  4  8  1  0
  5  6  1  0
  5 29  1  0
  5 30  1  0
  6  7  1  0
  6 31  1  0
  6 32  1  0
  7  8  1  0
  7 33  1  0
  7 34  1  0
  8  9  1  6
  8 10  1  0
 10 11  2  0
 10 12  1  0
 12 13  1  0
 12 26  1  0
 13 14  1  0
 13 35  1  0
 13 36  1  0
 14 15  1  0
 14 37  1  0
 14 38  1  0
 15 16  1  0
 15 25  1  0
 15 39  1  6
 16 17  2  0
 16 18  1  0
 18 19  1  0
 18 40  1  0
 19 20  2  0
 19 24  1  0
 20 21  1  0
 20 41  1  0
 21 22  2  0
 21 42  1  0
 22 23  1  0
 22 43  1  0
 23 24  2  0
 23 44  1  0
 24 45  1  0
 25 26  1  0
 25 46  1  0
 25 47  1  0
 26 48  1  0
 26 49  1  0
M  END

