
     RDKit          3D

 51 54  0  0  0  0  0  0  0  0999 V2000
    1.4479    1.3598    1.2628 C   0  0  0  0  0  0  0  0  0  0  0  0
    2.8092    1.1307    0.6541 C   0  0  0  0  0  0  0  0  0  0  0  0
    3.9677    1.1443    1.4480 C   0  0  0  0  0  0  0  0  0  0  0  0
    5.2323    0.9603    0.8879 C   0  0  0  0  0  0  0  0  0  0  0  0
    5.3616    0.7612   -0.4919 C   0  0  0  0  0  0  0  0  0  0  0  0
    6.6564    0.5783   -1.0708 N   0  0  0  0  0  0  0  0  0  0  0  0
    7.5966    1.5573   -1.3174 C   0  0  0  0  0  0  0  0  0  0  0  0
    7.3178    3.2556   -0.9443 S   0  0  0  0  0  0  0  0  0  0  0  0
    8.9339    3.9251   -1.5510 C   0  0  0  0  0  0  0  0  0  0  0  0
    8.9613    5.4145   -1.3379 C   0  0  0  0  0  0  0  0  0  0  0  0
    9.4526    5.9611   -0.1419 C   0  0  0  0  0  0  0  0  0  0  0  0
    9.4714    7.3409    0.0686 C   0  0  0  0  0  0  0  0  0  0  0  0
    8.9866    8.1913   -0.9292 C   0  0  0  0  0  0  0  0  0  0  0  0
    9.0079    9.9219   -0.6770 Cl  0  0  0  0  0  0  0  0  0  0  0  0
    8.4874    7.6731   -2.1276 C   0  0  0  0  0  0  0  0  0  0  0  0
    8.4761    6.2908   -2.3215 C   0  0  0  0  0  0  0  0  0  0  0  0
    8.6708    1.0371   -1.8553 N   0  0  0  0  0  0  0  0  0  0  0  0
    8.4577   -0.3142   -1.9717 N   0  0  0  0  0  0  0  0  0  0  0  0
    7.2646   -0.5954   -1.5080 C   0  0  0  0  0  0  0  0  0  0  0  0
    6.6141   -1.9510   -1.4285 C   0  0  1  0  0  0  0  0  0  0  0  0
    6.3223   -2.5537   -2.8269 C   0  0  0  0  0  0  0  0  0  0  0  0
    7.5829   -3.0680   -3.5333 C   0  0  0  0  0  0  0  0  0  0  0  0
    8.3419   -4.0752   -2.6591 C   0  0  0  0  0  0  0  0  0  0  0  0
    8.6832   -3.4780   -1.2873 C   0  0  0  0  0  0  0  0  0  0  0  0
    7.4288   -2.9559   -0.5750 C   0  0  0  0  0  0  0  0  0  0  0  0
    4.2190    0.7482   -1.3005 C   0  0  0  0  0  0  0  0  0  0  0  0
    2.9591    0.9249   -0.7271 C   0  0  0  0  0  0  0  0  0  0  0  0
    1.4014    0.9939    2.2997 H   0  0  0  0  0  0  0  0  0  0  0  0
    0.6564    0.8586    0.6856 H   0  0  0  0  0  0  0  0  0  0  0  0
    1.2039    2.4364    1.2857 H   0  0  0  0  0  0  0  0  0  0  0  0
    3.8794    1.2971    2.5271 H   0  0  0  0  0  0  0  0  0  0  0  0
    6.1255    0.9692    1.5159 H   0  0  0  0  0  0  0  0  0  0  0  0
    9.0285    3.6530   -2.6107 H   0  0  0  0  0  0  0  0  0  0  0  0
    9.7336    3.4100   -1.0025 H   0  0  0  0  0  0  0  0  0  0  0  0
    9.8312    5.2962    0.6391 H   0  0  0  0  0  0  0  0  0  0  0  0
    9.8602    7.7603    0.9979 H   0  0  0  0  0  0  0  0  0  0  0  0
    8.1144    8.3496   -2.8983 H   0  0  0  0  0  0  0  0  0  0  0  0
    8.0846    5.8858   -3.2586 H   0  0  0  0  0  0  0  0  0  0  0  0
    5.6471   -1.7968   -0.9250 H   0  0  0  0  0  0  0  0  0  0  0  0
    5.8018   -1.8108   -3.4547 H   0  0  0  0  0  0  0  0  0  0  0  0
    5.6164   -3.3927   -2.6854 H   0  0  0  0  0  0  0  0  0  0  0  0
    8.2428   -2.2151   -3.7615 H   0  0  0  0  0  0  0  0  0  0  0  0
    7.3035   -3.5285   -4.4963 H   0  0  0  0  0  0  0  0  0  0  0  0
    9.2626   -4.4034   -3.1701 H   0  0  0  0  0  0  0  0  0  0  0  0
    7.7221   -4.9823   -2.5222 H   0  0  0  0  0  0  0  0  0  0  0  0
    9.3942   -2.6467   -1.4193 H   0  0  0  0  0  0  0  0  0  0  0  0
    9.1785   -4.2328   -0.6529 H   0  0  0  0  0  0  0  0  0  0  0  0
    7.6947   -2.4954    0.3910 H   0  0  0  0  0  0  0  0  0  0  0  0
    6.7619   -3.8066   -0.3432 H   0  0  0  0  0  0  0  0  0  0  0  0
    4.3241    0.5998   -2.3773 H   0  0  0  0  0  0  0  0  0  0  0  0
    2.0737    0.9069   -1.3684 H   0  0  0  0  0  0  0  0  0  0  0  0
  1  2  1  0
  1 28  1  0
  1 29  1  0
  1 30  1  0
  2  3  2  0
  2 27  1  0
  3  4  1  0
  3 31  1  0
  4  5  2  0
  4 32  1  0
  5  6  1  0
  5 26  1  0
  6  7  1  0
  6 19  1  0
  7  8  1  0
  7 17  2  0
  8  9  1  0
  9 10  1  0
  9 33  1  0
  9 34  1  0
 10 11  2  0
 10 16  1  0
 11 12  1  0
 11 35  1  0
 12 13  2  0
 12 36  1  0
 13 14  1  0
 13 15  1  0
 15 16  2  0
 15 37  1  0
 16 38  1  0
 17 18  1  0
 18 19  2  0
 19 20  1  0
 20 21  1  0
 20 25  1  0
 20 39  1  1
 21 22  1  0
 21 40  1  0
 21 41  1  0
 22 23  1  0
 22 42  1  0
 22 43  1  0
 23 24  1  0
 23 44  1  0
 23 45  1  0
 24 25  1  0
 24 46  1  0
 24 47  1  0
 25 48  1  0
 25 49  1  0
 26 27  2  0
 26 50  1  0
 27 51  1  0
M  END

