
     RDKit          3D

 51 53  0  0  0  0  0  0  0  0999 V2000
    0.8484    2.3181   -1.1945 C   0  0  0  0  0  0  0  0  0  0  0  0
    2.0891    1.5030   -0.8274 C   0  0  0  0  0  0  0  0  0  0  0  0
    3.3965    2.2799   -1.0107 C   0  0  0  0  0  0  0  0  0  0  0  0
    4.6545    1.4729   -0.6559 C   0  0  1  0  0  0  0  0  0  0  0  0
    4.8125    0.3366   -1.5681 N   0  0  0  0  0  0  0  0  0  0  0  0
    5.0771   -0.9276   -1.1363 C   0  0  0  0  0  0  0  0  0  0  0  0
    5.1513   -1.2634    0.0375 O   0  0  0  0  0  0  0  0  0  0  0  0
    5.2650   -1.9333   -2.2146 C   0  0  0  0  0  0  0  0  0  0  0  0
    5.4480   -3.2904   -2.1405 C   0  0  0  0  0  0  0  0  0  0  0  0
    5.5611   -3.7570   -3.4850 C   0  0  0  0  0  0  0  0  0  0  0  0
    5.4356   -2.6434   -4.2746 C   0  0  0  0  0  0  0  0  0  0  0  0
    5.5094   -2.4529   -6.0424 S   0  0  1  0  0  0  0  0  0  0  0  0
    5.5290   -3.8171   -6.5623 O   0  0  0  0  0  0  0  0  0  0  0  0
    4.4994   -1.4673   -6.4126 O   0  0  0  0  0  0  0  0  0  0  0  0
    6.9933   -1.7724   -6.3952 N   0  0  0  0  0  0  0  0  0  0  0  0
    8.2007   -2.5936   -6.2811 C   0  0  0  0  0  0  0  0  0  0  0  0
    9.2710   -2.0019   -7.1981 C   0  0  0  0  0  0  0  0  0  0  0  0
    9.4919   -0.6352   -6.9188 O   0  0  0  0  0  0  0  0  0  0  0  0
    8.3202    0.1338   -7.0944 C   0  0  0  0  0  0  0  0  0  0  0  0
    7.1994   -0.3391   -6.1696 C   0  0  0  0  0  0  0  0  0  0  0  0
    5.2599   -1.5315   -3.5189 O   0  0  0  0  0  0  0  0  0  0  0  0
    5.9474    2.2879   -0.5880 C   0  0  0  0  0  0  0  0  0  0  0  0
    6.9984    1.8186    0.2197 C   0  0  0  0  0  0  0  0  0  0  0  0
    8.2121    2.5053    0.2864 C   0  0  0  0  0  0  0  0  0  0  0  0
    8.3987    3.6770   -0.4552 C   0  0  0  0  0  0  0  0  0  0  0  0
    7.3622    4.1533   -1.2609 C   0  0  0  0  0  0  0  0  0  0  0  0
    6.1458    3.4642   -1.3260 C   0  0  0  0  0  0  0  0  0  0  0  0
   -0.0736    1.7336   -1.0483 H   0  0  0  0  0  0  0  0  0  0  0  0
    0.8745    2.6374   -2.2500 H   0  0  0  0  0  0  0  0  0  0  0  0
    0.7665    3.2284   -0.5771 H   0  0  0  0  0  0  0  0  0  0  0  0
    2.1232    0.5844   -1.4377 H   0  0  0  0  0  0  0  0  0  0  0  0
    2.0152    1.1645    0.2213 H   0  0  0  0  0  0  0  0  0  0  0  0
    3.3810    3.1856   -0.3810 H   0  0  0  0  0  0  0  0  0  0  0  0
    3.4634    2.6383   -2.0549 H   0  0  0  0  0  0  0  0  0  0  0  0
    4.5062    1.0117    0.3314 H   0  0  0  0  0  0  0  0  0  0  0  0
    4.8397    0.5201   -2.5660 H   0  0  0  0  0  0  0  0  0  0  0  0
    5.4868   -3.8669   -1.2197 H   0  0  0  0  0  0  0  0  0  0  0  0
    5.7024   -4.7741   -3.8413 H   0  0  0  0  0  0  0  0  0  0  0  0
    7.9618   -3.6214   -6.5859 H   0  0  0  0  0  0  0  0  0  0  0  0
    8.5742   -2.6065   -5.2375 H   0  0  0  0  0  0  0  0  0  0  0  0
    8.9597   -2.1362   -8.2538 H   0  0  0  0  0  0  0  0  0  0  0  0
   10.2285   -2.5225   -7.0465 H   0  0  0  0  0  0  0  0  0  0  0  0
    7.9728    0.0764   -8.1459 H   0  0  0  0  0  0  0  0  0  0  0  0
    8.5816    1.1785   -6.8681 H   0  0  0  0  0  0  0  0  0  0  0  0
    6.2651    0.1925   -6.3935 H   0  0  0  0  0  0  0  0  0  0  0  0
    7.4819   -0.1407   -5.1167 H   0  0  0  0  0  0  0  0  0  0  0  0
    6.8558    0.9001    0.7958 H   0  0  0  0  0  0  0  0  0  0  0  0
    9.0155    2.1266    0.9237 H   0  0  0  0  0  0  0  0  0  0  0  0
    9.3471    4.2176   -0.4016 H   0  0  0  0  0  0  0  0  0  0  0  0
    7.4964    5.0700   -1.8414 H   0  0  0  0  0  0  0  0  0  0  0  0
    5.3478    3.8593   -1.9584 H   0  0  0  0  0  0  0  0  0  0  0  0
  1  2  1  0
  1 28  1  0
  1 29  1  0
  1 30  1  0
  2  3  1  0
  2 31  1  0
  2 32  1  0
  3  4  1  0
  3 33  1  0
  3 34  1  0
  4  5  1  0
  4 22  1  0
  4 35  1  1
  5  6  1  0
  5 36  1  0
  6  7  2  0
  6  8  1  0
  8  9  2  0
  8 21  1  0
  9 10  1  0
  9 37  1  0
 10 11  2  0
 10 38  1  0
 12 11  1  1
 11 21  1  0
 12 13  2  0
 12 14  2  0
 12 15  1  0
 15 16  1  0
 15 20  1  0
 16 17  1  0
 16 39  1  0
 16 40  1  0
 17 18  1  0
 17 41  1  0
 17 42  1  0
 18 19  1  0
 19 20  1  0
 19 43  1  0
 19 44  1  0
 20 45  1  0
 20 46  1  0
 22 23  2  0
 22 27  1  0
 23 24  1  0
 23 47  1  0
 24 25  2  0
 24 48  1  0
 25 26  1  0
 25 49  1  0
 26 27  2  0
 26 50  1  0
 27 51  1  0
M  END

