
     RDKit          3D

 52 54  0  0  0  0  0  0  0  0999 V2000
    4.1608   -0.3513   -0.3801 C   0  0  0  0  0  0  0  0  0  0  0  0
    2.9641    0.1857    0.3330 C   0  0  0  0  0  0  0  0  0  0  0  0
    2.4542    1.4625    0.4200 C   0  0  0  0  0  0  0  0  0  0  0  0
    1.3411    1.4950    1.2200 N   0  0  0  0  0  0  0  0  0  0  0  0
    1.1537    0.2591    1.6287 C   0  0  0  0  0  0  0  0  0  0  0  0
    0.0560   -0.1852    2.5417 C   0  0  0  0  0  0  0  0  0  0  0  0
    2.1185   -0.5884    1.1213 N   0  0  0  0  0  0  0  0  0  0  0  0
    2.1968   -2.0275    1.3139 C   0  0  0  0  0  0  0  0  0  0  0  0
    1.4446   -2.8303    0.2423 C   0  0  0  0  0  0  0  0  0  0  0  0
    1.5783   -4.3549    0.3739 C   0  0  2  0  0  0  0  0  0  0  0  0
    0.9840   -5.0753   -0.8483 C   0  0  0  0  0  0  0  0  0  0  0  0
    1.0780   -6.5971   -0.7227 C   0  0  0  0  0  0  0  0  0  0  0  0
    0.4652   -7.0664    0.5190 N   0  0  0  0  0  0  0  0  0  0  0  0
   -0.4598   -8.0891    0.4619 C   0  0  0  0  0  0  0  0  0  0  0  0
   -0.7879   -8.5810   -0.6103 O   0  0  0  0  0  0  0  0  0  0  0  0
   -1.0805   -8.5783    1.7806 C   0  0  1  0  0  0  0  0  0  0  0  0
   -2.1705   -7.6056    2.3019 C   0  0  0  0  0  0  0  0  0  0  0  0
   -3.4740   -7.7480    1.5124 C   0  0  0  0  0  0  0  0  0  0  0  0
   -3.9527   -9.0738    1.5460 O   0  0  0  0  0  0  0  0  0  0  0  0
   -3.0515   -9.9830    0.9329 C   0  0  0  0  0  0  0  0  0  0  0  0
   -1.6901   -9.9894    1.6342 C   0  0  0  0  0  0  0  0  0  0  0  0
    1.0185   -6.4496    1.7177 C   0  0  0  0  0  0  0  0  0  0  0  0
    0.9352   -4.9181    1.6539 C   0  0  0  0  0  0  0  0  0  0  0  0
    4.6588    0.4651   -0.9223 H   0  0  0  0  0  0  0  0  0  0  0  0
    3.9064   -1.1306   -1.1196 H   0  0  0  0  0  0  0  0  0  0  0  0
    4.9040   -0.7870    0.3114 H   0  0  0  0  0  0  0  0  0  0  0  0
    2.8472    2.3604   -0.0573 H   0  0  0  0  0  0  0  0  0  0  0  0
   -0.5577    0.6928    2.7808 H   0  0  0  0  0  0  0  0  0  0  0  0
    0.4401   -0.6029    3.4888 H   0  0  0  0  0  0  0  0  0  0  0  0
   -0.5967   -0.9478    2.0836 H   0  0  0  0  0  0  0  0  0  0  0  0
    1.8051   -2.2551    2.3161 H   0  0  0  0  0  0  0  0  0  0  0  0
    3.2594   -2.3193    1.3219 H   0  0  0  0  0  0  0  0  0  0  0  0
    1.8192   -2.5236   -0.7488 H   0  0  0  0  0  0  0  0  0  0  0  0
    0.3768   -2.5493    0.2622 H   0  0  0  0  0  0  0  0  0  0  0  0
    2.6591   -4.6002    0.4093 H   0  0  0  0  0  0  0  0  0  0  0  0
    1.5022   -4.7545   -1.7677 H   0  0  0  0  0  0  0  0  0  0  0  0
   -0.0763   -4.7868   -0.9628 H   0  0  0  0  0  0  0  0  0  0  0  0
    2.1423   -6.9057   -0.7380 H   0  0  0  0  0  0  0  0  0  0  0  0
    0.5725   -7.1055   -1.5519 H   0  0  0  0  0  0  0  0  0  0  0  0
   -0.2793   -8.6384    2.5339 H   0  0  0  0  0  0  0  0  0  0  0  0
   -1.8283   -6.5580    2.2697 H   0  0  0  0  0  0  0  0  0  0  0  0
   -2.3785   -7.8472    3.3582 H   0  0  0  0  0  0  0  0  0  0  0  0
   -3.3249   -7.4156    0.4638 H   0  0  0  0  0  0  0  0  0  0  0  0
   -4.2593   -7.1141    1.9539 H   0  0  0  0  0  0  0  0  0  0  0  0
   -2.9180   -9.7303   -0.1336 H   0  0  0  0  0  0  0  0  0  0  0  0
   -3.5212  -10.9765    1.0003 H   0  0  0  0  0  0  0  0  0  0  0  0
   -0.9991  -10.6510    1.0893 H   0  0  0  0  0  0  0  0  0  0  0  0
   -1.8201  -10.4064    2.6476 H   0  0  0  0  0  0  0  0  0  0  0  0
    2.0814   -6.7485    1.8214 H   0  0  0  0  0  0  0  0  0  0  0  0
    0.4996   -6.8126    2.6110 H   0  0  0  0  0  0  0  0  0  0  0  0
    1.4180   -4.5071    2.5559 H   0  0  0  0  0  0  0  0  0  0  0  0
   -0.1265   -4.6132    1.6893 H   0  0  0  0  0  0  0  0  0  0  0  0
  1  2  1  0
  1 24  1  0
  1 25  1  0
  1 26  1  0
  2  3  2  0
  2  7  1  0
  3  4  1  0
  3 27  1  0
  4  5  2  0
  5  6  1  0
  5  7  1  0
  6 28  1  0
  6 29  1  0
  6 30  1  0
  7  8  1  0
  8  9  1  0
  8 31  1  0
  8 32  1  0
  9 10  1  0
  9 33  1  0
  9 34  1  0
 10 11  1  0
 10 23  1  0
 10 35  1  1
 11 12  1  0
 11 36  1  0
 11 37  1  0
 12 13  1  0
 12 38  1  0
 12 39  1  0
 13 14  1  0
 13 22  1  0
 14 15  2  0
 14 16  1  0
 16 17  1  0
 16 21  1  0
 16 40  1  1
 17 18  1  0
 17 41  1  0
 17 42  1  0
 18 19  1  0
 18 43  1  0
 18 44  1  0
 19 20  1  0
 20 21  1  0
 20 45  1  0
 20 46  1  0
 21 47  1  0
 21 48  1  0
 22 23  1  0
 22 49  1  0
 22 50  1  0
 23 51  1  0
 23 52  1  0
M  END

