
     RDKit          3D

 56 59  0  0  0  0  0  0  0  0999 V2000
    1.1094   -1.7171   -2.0712 C   0  0  0  0  0  0  0  0  0  0  0  0
    2.6210   -1.6935   -2.2669 C   0  0  0  0  0  0  0  0  0  0  0  0
    3.3985   -0.7774   -0.8957 S   0  0  1  0  0  0  0  0  0  0  0  0
    2.9703    0.6260   -1.0038 O   0  0  0  0  0  0  0  0  0  0  0  0
    3.1735   -1.5506    0.3354 O   0  0  0  0  0  0  0  0  0  0  0  0
    5.1664   -0.8350   -1.2588 C   0  0  0  0  0  0  0  0  0  0  0  0
    5.7452    0.1985   -1.9991 C   0  0  0  0  0  0  0  0  0  0  0  0
    7.1144    0.1592   -2.2668 C   0  0  0  0  0  0  0  0  0  0  0  0
    7.8930   -0.9002   -1.7788 C   0  0  0  0  0  0  0  0  0  0  0  0
    9.2970   -0.9077   -2.0236 N   0  0  0  0  0  0  0  0  0  0  0  0
   10.1490    0.1076   -1.6238 C   0  0  0  0  0  0  0  0  0  0  0  0
   11.4279   -0.3359   -1.8895 C   0  0  0  0  0  0  0  0  0  0  0  0
   12.7214    0.3816   -1.6717 C   0  0  0  0  0  0  0  0  0  0  0  0
   12.9380    1.5844   -3.0488 S   0  0  0  0  0  0  0  0  0  0  0  0
   14.4743    2.1973   -2.6682 O   0  0  0  0  0  0  0  0  0  0  0  0
   14.6230    3.2823   -1.8283 C   0  0  0  0  0  0  0  0  0  0  0  0
   13.5762    4.0268   -1.2810 C   0  0  0  0  0  0  0  0  0  0  0  0
   13.8646    5.1118   -0.4438 C   0  0  0  0  0  0  0  0  0  0  0  0
   15.1798    5.4799   -0.1357 C   0  0  0  0  0  0  0  0  0  0  0  0
   15.4867    6.6489    0.7693 C   0  0  0  0  0  0  0  0  0  0  0  0
   16.2158    4.7152   -0.7029 C   0  0  0  0  0  0  0  0  0  0  0  0
   15.9504    3.6320   -1.5362 C   0  0  0  0  0  0  0  0  0  0  0  0
   11.3745   -1.5810   -2.4585 N   0  0  0  0  0  0  0  0  0  0  0  0
   10.1026   -1.9193   -2.5358 C   0  0  0  0  0  0  0  0  0  0  0  0
    9.6358   -3.1832   -3.1318 C   0  0  0  0  0  0  0  0  0  0  0  0
   10.4887   -4.3019   -3.0646 C   0  0  0  0  0  0  0  0  0  0  0  0
   10.1284   -5.5168   -3.6425 C   0  0  0  0  0  0  0  0  0  0  0  0
    8.9018   -5.6262   -4.3065 C   0  0  0  0  0  0  0  0  0  0  0  0
    8.4392   -7.1479   -5.0290 Cl  0  0  0  0  0  0  0  0  0  0  0  0
    8.0467   -4.5253   -4.4039 C   0  0  0  0  0  0  0  0  0  0  0  0
    8.4167   -3.3122   -3.8218 C   0  0  0  0  0  0  0  0  0  0  0  0
    7.3048   -1.9180   -1.0133 C   0  0  0  0  0  0  0  0  0  0  0  0
    5.9352   -1.8877   -0.7540 C   0  0  0  0  0  0  0  0  0  0  0  0
    0.6334   -2.2685   -2.8964 H   0  0  0  0  0  0  0  0  0  0  0  0
    0.7048   -0.6946   -2.0545 H   0  0  0  0  0  0  0  0  0  0  0  0
    0.8490   -2.2114   -1.1240 H   0  0  0  0  0  0  0  0  0  0  0  0
    2.9207   -1.1754   -3.1902 H   0  0  0  0  0  0  0  0  0  0  0  0
    3.0655   -2.7001   -2.2542 H   0  0  0  0  0  0  0  0  0  0  0  0
    5.1259    1.0269   -2.3483 H   0  0  0  0  0  0  0  0  0  0  0  0
    7.5859    0.9483   -2.8561 H   0  0  0  0  0  0  0  0  0  0  0  0
    9.7735    1.0131   -1.1543 H   0  0  0  0  0  0  0  0  0  0  0  0
   13.5529   -0.3354   -1.7012 H   0  0  0  0  0  0  0  0  0  0  0  0
   12.7352    0.9290   -0.7175 H   0  0  0  0  0  0  0  0  0  0  0  0
   12.5437    3.7651   -1.5168 H   0  0  0  0  0  0  0  0  0  0  0  0
   13.0340    5.6867   -0.0238 H   0  0  0  0  0  0  0  0  0  0  0  0
   14.5674    7.1536    1.1020 H   0  0  0  0  0  0  0  0  0  0  0  0
   16.1150    7.3997    0.2609 H   0  0  0  0  0  0  0  0  0  0  0  0
   16.0366    6.3291    1.6708 H   0  0  0  0  0  0  0  0  0  0  0  0
   17.2569    4.9740   -0.4867 H   0  0  0  0  0  0  0  0  0  0  0  0
   16.7559    3.0401   -1.9755 H   0  0  0  0  0  0  0  0  0  0  0  0
   11.4476   -4.1985   -2.5543 H   0  0  0  0  0  0  0  0  0  0  0  0
   10.7919   -6.3810   -3.5821 H   0  0  0  0  0  0  0  0  0  0  0  0
    7.1032   -4.6178   -4.9441 H   0  0  0  0  0  0  0  0  0  0  0  0
    7.7514   -2.4551   -3.9335 H   0  0  0  0  0  0  0  0  0  0  0  0
    7.9260   -2.7206   -0.6128 H   0  0  0  0  0  0  0  0  0  0  0  0
    5.4630   -2.6553   -0.1377 H   0  0  0  0  0  0  0  0  0  0  0  0
  1  2  1  0
  1 34  1  0
  1 35  1  0
  1 36  1  0
  3  2  1  6
  2 37  1  0
  2 38  1  0
  3  4  2  0
  3  5  2  0
  3  6  1  0
  6  7  2  0
  6 33  1  0
  7  8  1  0
  7 39  1  0
  8  9  2  0
  8 40  1  0
  9 10  1  0
  9 32  1  0
 10 11  1  0
 10 24  1  0
 11 12  2  0
 11 41  1  0
 12 13  1  0
 12 23  1  0
 13 14  1  0
 13 42  1  0
 13 43  1  0
 14 15  1  0
 15 16  1  0
 16 17  2  0
 16 22  1  0
 17 18  1  0
 17 44  1  0
 18 19  2  0
 18 45  1  0
 19 20  1  0
 19 21  1  0
 20 46  1  0
 20 47  1  0
 20 48  1  0
 21 22  2  0
 21 49  1  0
 22 50  1  0
 23 24  2  0
 24 25  1  0
 25 26  2  0
 25 31  1  0
 26 27  1  0
 26 51  1  0
 27 28  2  0
 27 52  1  0
 28 29  1  0
 28 30  1  0
 30 31  2  0
 30 53  1  0
 31 54  1  0
 32 33  2  0
 32 55  1  0
 33 56  1  0
M  END

