
     RDKit          3D

 38 40  0  0  0  0  0  0  0  0999 V2000
    2.3058   -0.1505    1.0267 O   0  0  0  0  0  0  0  0  0  0  0  0
    2.1974   -0.2828   -0.1623 C   0  0  0  0  0  0  0  0  0  0  0  0
    1.4704   -1.3105   -0.6606 O   0  0  0  0  0  0  0  0  0  0  0  0
    2.8818    0.6193   -1.2021 C   0  0  1  0  0  0  0  0  0  0  0  0
    1.9708    1.0201   -2.3830 C   0  0  0  0  0  0  0  0  0  0  0  0
    0.9027    2.0352   -1.9618 C   0  0  0  0  0  0  0  0  0  0  0  0
    1.5413    3.2710   -1.3189 C   0  0  0  0  0  0  0  0  0  0  0  0
    2.4391    2.9098   -0.1278 C   0  0  2  0  0  0  0  0  0  0  0  0
    3.0789    4.1204    0.3756 N   0  0  0  0  0  0  0  0  0  0  0  0
    3.6946    4.0084    1.6871 C   0  0  0  0  0  0  0  0  0  0  0  0
    4.0230    5.3731    2.2473 C   0  0  0  0  0  0  0  0  0  0  0  0
    5.2269    5.6414    2.8620 C   0  0  0  0  0  0  0  0  0  0  0  0
    5.5229    6.9275    3.4401 C   0  0  0  0  0  0  0  0  0  0  0  0
    6.5265    7.3067    4.0115 O   0  0  0  0  0  0  0  0  0  0  0  0
    4.4177    7.8464    3.2687 N   0  0  0  0  0  0  0  0  0  0  0  0
    4.4377    9.1599    3.7249 C   0  0  0  0  0  0  0  0  0  0  0  0
    3.2995    9.8313    3.4482 C   0  0  0  0  0  0  0  0  0  0  0  0
    2.1378    8.8332    2.5920 S   0  0  0  0  0  0  0  0  0  0  0  0
    3.2591    7.4751    2.6273 C   0  0  0  0  0  0  0  0  0  0  0  0
    3.0242    6.3009    2.1263 N   0  0  0  0  0  0  0  0  0  0  0  0
    3.4931    1.8666   -0.5433 C   0  0  0  0  0  0  0  0  0  0  0  0
    1.4757   -1.2889   -1.6280 H   0  0  0  0  0  0  0  0  0  0  0  0
    3.7071   -0.0011   -1.6011 H   0  0  0  0  0  0  0  0  0  0  0  0
    1.5020    0.1409   -2.8625 H   0  0  0  0  0  0  0  0  0  0  0  0
    2.6092    1.4658   -3.1651 H   0  0  0  0  0  0  0  0  0  0  0  0
    0.2043    1.5610   -1.2485 H   0  0  0  0  0  0  0  0  0  0  0  0
    0.2988    2.3300   -2.8357 H   0  0  0  0  0  0  0  0  0  0  0  0
    0.7567    3.9745   -0.9900 H   0  0  0  0  0  0  0  0  0  0  0  0
    2.1542    3.8087   -2.0648 H   0  0  0  0  0  0  0  0  0  0  0  0
    1.8002    2.4390    0.6523 H   0  0  0  0  0  0  0  0  0  0  0  0
    2.3969    4.8780    0.4235 H   0  0  0  0  0  0  0  0  0  0  0  0
    4.6177    3.4101    1.6382 H   0  0  0  0  0  0  0  0  0  0  0  0
    3.0332    3.4985    2.4283 H   0  0  0  0  0  0  0  0  0  0  0  0
    6.0088    4.8850    2.9326 H   0  0  0  0  0  0  0  0  0  0  0  0
    5.3329    9.5032    4.2394 H   0  0  0  0  0  0  0  0  0  0  0  0
    3.0677   10.8645    3.6983 H   0  0  0  0  0  0  0  0  0  0  0  0
    4.0805    1.5535    0.3313 H   0  0  0  0  0  0  0  0  0  0  0  0
    4.1861    2.3489   -1.2533 H   0  0  0  0  0  0  0  0  0  0  0  0
  1  2  2  0
  2  3  1  0
  2  4  1  0
  3 22  1  0
  4  5  1  0
  4 21  1  0
  4 23  1  6
  5  6  1  0
  5 24  1  0
  5 25  1  0
  6  7  1  0
  6 26  1  0
  6 27  1  0
  7  8  1  0
  7 28  1  0
  7 29  1  0
  8  9  1  0
  8 21  1  0
  8 30  1  1
  9 10  1  0
  9 31  1  0
 10 11  1  0
 10 32  1  0
 10 33  1  0
 11 12  2  0
 11 20  1  0
 12 13  1  0
 12 34  1  0
 13 14  2  0
 13 15  1  0
 15 16  1  0
 15 19  1  0
 16 17  2  0
 16 35  1  0
 17 18  1  0
 17 36  1  0
 18 19  1  0
 19 20  2  0
 21 37  1  0
 21 38  1  0
M  END

