
     RDKit          3D

 40 43  0  0  0  0  0  0  0  0999 V2000
    1.1268    0.8983    0.0030 O   0  0  0  0  0  0  0  0  0  0  0  0
    2.2502    0.4733    0.2215 C   0  0  0  0  0  0  0  0  0  0  0  0
    3.1331    0.1475   -0.9519 C   0  0  0  0  0  0  0  0  0  0  0  0
    2.8894    0.7282   -2.1766 C   0  0  0  0  0  0  0  0  0  0  0  0
    3.9758    0.1052   -3.3544 S   0  0  0  0  0  0  0  0  0  0  0  0
    4.6721   -0.9170   -2.1213 C   0  0  0  0  0  0  0  0  0  0  0  0
    4.1413   -0.7868   -0.9458 N   0  0  0  0  0  0  0  0  0  0  0  0
    2.7110    0.2765    1.5199 N   0  0  0  0  0  0  0  0  0  0  0  0
    1.7071    0.3573    2.5437 C   0  0  0  0  0  0  0  0  0  0  0  0
    1.2257   -0.8033    3.1570 C   0  0  0  0  0  0  0  0  0  0  0  0
    0.2420   -0.6899    4.1415 C   0  0  0  0  0  0  0  0  0  0  0  0
   -0.2373    0.5834    4.4582 C   0  0  0  0  0  0  0  0  0  0  0  0
    0.1944    1.6967    3.8584 N   0  0  0  0  0  0  0  0  0  0  0  0
    1.1364    1.5824    2.9235 C   0  0  0  0  0  0  0  0  0  0  0  0
    4.1596    0.1265    1.8202 C   0  0  2  0  0  0  0  0  0  0  0  0
    4.4890   -0.0970    3.3022 C   0  0  0  0  0  0  0  0  0  0  0  0
    4.4990    1.1892    4.1356 C   0  0  0  0  0  0  0  0  0  0  0  0
    5.3402    2.2719    3.4557 C   0  0  2  0  0  0  0  0  0  0  0  0
    5.3322    3.4907    4.1679 O   0  0  0  0  0  0  0  0  0  0  0  0
    4.9070    2.4306    1.9972 C   0  0  1  0  0  0  0  0  0  0  0  0
    3.9153    3.4941    1.5778 C   0  0  0  0  0  0  0  0  0  0  0  0
    5.3768    3.5987    1.1971 C   0  0  0  0  0  0  0  0  0  0  0  0
    4.9152    1.2079    1.2945 O   0  0  0  0  0  0  0  0  0  0  0  0
    2.1218    1.4619   -2.4115 H   0  0  0  0  0  0  0  0  0  0  0  0
    5.4891   -1.6021   -2.3585 H   0  0  0  0  0  0  0  0  0  0  0  0
    1.6142   -1.7792    2.8554 H   0  0  0  0  0  0  0  0  0  0  0  0
   -0.1544   -1.5741    4.6460 H   0  0  0  0  0  0  0  0  0  0  0  0
   -1.0094    0.7082    5.2268 H   0  0  0  0  0  0  0  0  0  0  0  0
    1.4662    2.5024    2.4328 H   0  0  0  0  0  0  0  0  0  0  0  0
    4.5156   -0.7286    1.2381 H   0  0  0  0  0  0  0  0  0  0  0  0
    5.5032   -0.5291    3.3128 H   0  0  0  0  0  0  0  0  0  0  0  0
    3.8264   -0.8549    3.7425 H   0  0  0  0  0  0  0  0  0  0  0  0
    4.9008    0.9897    5.1420 H   0  0  0  0  0  0  0  0  0  0  0  0
    3.4729    1.5726    4.2693 H   0  0  0  0  0  0  0  0  0  0  0  0
    6.3956    1.9456    3.4389 H   0  0  0  0  0  0  0  0  0  0  0  0
    4.4165    3.7019    4.3957 H   0  0  0  0  0  0  0  0  0  0  0  0
    3.5328    4.1911    2.3291 H   0  0  0  0  0  0  0  0  0  0  0  0
    3.2023    3.2349    0.7922 H   0  0  0  0  0  0  0  0  0  0  0  0
    5.9860    4.3447    1.7136 H   0  0  0  0  0  0  0  0  0  0  0  0
    5.6462    3.3957    0.1575 H   0  0  0  0  0  0  0  0  0  0  0  0
  1  2  2  0
  2  3  1  0
  2  8  1  0
  3  4  2  0
  3  7  1  0
  4  5  1  0
  4 24  1  0
  5  6  1  0
  6  7  2  0
  6 25  1  0
  8  9  1  0
  8 15  1  0
  9 10  2  0
  9 14  1  0
 10 11  1  0
 10 26  1  0
 11 12  2  0
 11 27  1  0
 12 13  1  0
 12 28  1  0
 13 14  2  0
 14 29  1  0
 15 16  1  0
 15 23  1  0
 15 30  1  6
 16 17  1  0
 16 31  1  0
 16 32  1  0
 17 18  1  0
 17 33  1  0
 17 34  1  0
 18 19  1  0
 18 20  1  0
 18 35  1  6
 19 36  1  0
 20 21  1  0
 20 22  1  0
 20 23  1  6
 21 22  1  0
 21 37  1  0
 21 38  1  0
 22 39  1  0
 22 40  1  0
M  END

