
     RDKit          3D

 85 92  0  0  0  0  0  0  0  0999 V2000
    1.0796   -1.2125   -0.0276 C   0  0  0  0  0  0  0  0  0  0  0  0
    1.3060   -1.6893    1.4318 C   0  0  1  0  0  0  0  0  0  0  0  0
    0.1461   -2.6313    1.8516 C   0  0  0  0  0  0  0  0  0  0  0  0
    2.6299   -2.4631    1.5061 C   0  0  0  0  0  0  0  0  0  0  0  0
    2.8026   -3.6090    0.7143 C   0  0  0  0  0  0  0  0  0  0  0  0
    3.9735   -4.3662    0.7266 C   0  0  0  0  0  0  0  0  0  0  0  0
    5.0200   -3.9697    1.5604 C   0  0  0  0  0  0  0  0  0  0  0  0
    4.8840   -2.8386    2.3597 C   0  0  0  0  0  0  0  0  0  0  0  0
    3.6971   -2.0725    2.3473 C   0  0  0  0  0  0  0  0  0  0  0  0
    3.5881   -0.9345    3.1658 N   0  0  0  0  0  0  0  0  0  0  0  0
    4.6813   -0.5805    4.0208 C   0  0  0  0  0  0  0  0  0  0  0  0
    5.6844    0.2851    3.5684 C   0  0  0  0  0  0  0  0  0  0  0  0
    6.7434    0.6373    4.4058 C   0  0  0  0  0  0  0  0  0  0  0  0
    6.8282    0.1259    5.7138 C   0  0  0  0  0  0  0  0  0  0  0  0
    7.9388    0.5074    6.6281 C   0  0  0  0  0  0  0  0  0  0  0  0
    8.3568    1.7959    6.7749 C   0  0  0  0  0  0  0  0  0  0  0  0
    7.7592    2.9413    6.1715 C   0  0  0  0  0  0  0  0  0  0  0  0
    7.3130    3.9115    5.7108 N   0  0  0  0  0  0  0  0  0  0  0  0
    8.6094   -0.5670    7.4093 C   0  0  0  0  0  0  0  0  0  0  0  0
    9.0518   -0.3467    8.7285 C   0  0  0  0  0  0  0  0  0  0  0  0
    9.7131   -1.3468    9.4406 C   0  0  0  0  0  0  0  0  0  0  0  0
    9.9503   -2.5960    8.8527 C   0  0  0  0  0  0  0  0  0  0  0  0
   10.6291   -3.6233    9.5838 N   0  0  0  0  0  0  0  0  0  0  0  0
    9.8778   -4.5201   10.3652 C   0  0  0  0  0  0  0  0  0  0  0  0
    8.4716   -4.3992   10.4202 C   0  0  0  0  0  0  0  0  0  0  0  0
    7.7029   -5.2718   11.1849 C   0  0  0  0  0  0  0  0  0  0  0  0
    8.3190   -6.2888   11.9154 C   0  0  0  0  0  0  0  0  0  0  0  0
    9.7074   -6.4071   11.8606 C   0  0  0  0  0  0  0  0  0  0  0  0
   10.5142   -5.5459   11.1008 C   0  0  0  0  0  0  0  0  0  0  0  0
   12.0361   -5.7479   11.0976 C   0  0  1  0  0  0  0  0  0  0  0  0
   12.5673   -5.6136   12.5496 C   0  0  0  0  0  0  0  0  0  0  0  0
   12.3565   -7.1686   10.5613 C   0  0  0  0  0  0  0  0  0  0  0  0
   12.7363   -4.7087   10.2106 C   0  0  0  0  0  0  0  0  0  0  0  0
   14.1340   -4.7395   10.0868 C   0  0  0  0  0  0  0  0  0  0  0  0
   14.8426   -3.8314    9.3008 C   0  0  0  0  0  0  0  0  0  0  0  0
   14.1347   -2.8494    8.6063 C   0  0  0  0  0  0  0  0  0  0  0  0
   12.7478   -2.7887    8.7055 C   0  0  0  0  0  0  0  0  0  0  0  0
   12.0313   -3.7089    9.5024 C   0  0  0  0  0  0  0  0  0  0  0  0
    9.5081   -2.8309    7.5443 C   0  0  0  0  0  0  0  0  0  0  0  0
    8.8401   -1.8329    6.8354 C   0  0  0  0  0  0  0  0  0  0  0  0
    5.8233   -0.7589    6.1521 C   0  0  0  0  0  0  0  0  0  0  0  0
    4.7581   -1.0999    5.3202 C   0  0  0  0  0  0  0  0  0  0  0  0
    2.4275   -0.1380    3.1746 C   0  0  0  0  0  0  0  0  0  0  0  0
    2.3642    1.0040    4.0033 C   0  0  0  0  0  0  0  0  0  0  0  0
    1.2292    1.8088    4.0334 C   0  0  0  0  0  0  0  0  0  0  0  0
    0.1274    1.4935    3.2368 C   0  0  0  0  0  0  0  0  0  0  0  0
    0.1919    0.3664    2.4183 C   0  0  0  0  0  0  0  0  0  0  0  0
    1.3195   -0.4674    2.3613 C   0  0  0  0  0  0  0  0  0  0  0  0
    1.0457   -2.0637   -0.7244 H   0  0  0  0  0  0  0  0  0  0  0  0
    1.8907   -0.5417   -0.3491 H   0  0  0  0  0  0  0  0  0  0  0  0
    0.1288   -0.6669   -0.1253 H   0  0  0  0  0  0  0  0  0  0  0  0
    0.0927   -3.5137    1.1959 H   0  0  0  0  0  0  0  0  0  0  0  0
   -0.8249   -2.1162    1.7953 H   0  0  0  0  0  0  0  0  0  0  0  0
    0.2843   -2.9837    2.8851 H   0  0  0  0  0  0  0  0  0  0  0  0
    1.9861   -3.9229    0.0604 H   0  0  0  0  0  0  0  0  0  0  0  0
    4.0646   -5.2515    0.0934 H   0  0  0  0  0  0  0  0  0  0  0  0
    5.9518   -4.5404    1.5932 H   0  0  0  0  0  0  0  0  0  0  0  0
    5.7101   -2.5412    3.0039 H   0  0  0  0  0  0  0  0  0  0  0  0
    5.6290    0.6817    2.5527 H   0  0  0  0  0  0  0  0  0  0  0  0
    7.5195    1.3073    4.0325 H   0  0  0  0  0  0  0  0  0  0  0  0
    9.2193    2.0111    7.4117 H   0  0  0  0  0  0  0  0  0  0  0  0
    8.8505    0.6109    9.2135 H   0  0  0  0  0  0  0  0  0  0  0  0
   10.0427   -1.1696   10.4665 H   0  0  0  0  0  0  0  0  0  0  0  0
    7.9756   -3.6106    9.8562 H   0  0  0  0  0  0  0  0  0  0  0  0
    6.6168   -5.1512   11.2061 H   0  0  0  0  0  0  0  0  0  0  0  0
    7.7299   -6.9816   12.5202 H   0  0  0  0  0  0  0  0  0  0  0  0
   10.1852   -7.2045   12.4340 H   0  0  0  0  0  0  0  0  0  0  0  0
   12.1002   -6.3556   13.2148 H   0  0  0  0  0  0  0  0  0  0  0  0
   12.3522   -4.6124   12.9530 H   0  0  0  0  0  0  0  0  0  0  0  0
   13.6559   -5.7700   12.5913 H   0  0  0  0  0  0  0  0  0  0  0  0
   11.8850   -7.9446   11.1832 H   0  0  0  0  0  0  0  0  0  0  0  0
   13.4406   -7.3585   10.5598 H   0  0  0  0  0  0  0  0  0  0  0  0
   11.9889   -7.2890    9.5309 H   0  0  0  0  0  0  0  0  0  0  0  0
   14.6924   -5.5064   10.6281 H   0  0  0  0  0  0  0  0  0  0  0  0
   15.9310   -3.8923    9.2332 H   0  0  0  0  0  0  0  0  0  0  0  0
   14.6595   -2.1225    7.9811 H   0  0  0  0  0  0  0  0  0  0  0  0
   12.2102   -2.0167    8.1570 H   0  0  0  0  0  0  0  0  0  0  0  0
    9.6940   -3.8045    7.0862 H   0  0  0  0  0  0  0  0  0  0  0  0
    8.5071   -2.0311    5.8148 H   0  0  0  0  0  0  0  0  0  0  0  0
    5.8693   -1.1705    7.1627 H   0  0  0  0  0  0  0  0  0  0  0  0
    3.9740   -1.7735    5.6719 H   0  0  0  0  0  0  0  0  0  0  0  0
    3.2158    1.2663    4.6293 H   0  0  0  0  0  0  0  0  0  0  0  0
    1.2130    2.6867    4.6842 H   0  0  0  0  0  0  0  0  0  0  0  0
   -0.7705    2.1152    3.2493 H   0  0  0  0  0  0  0  0  0  0  0  0
   -0.6726    0.1242    1.7963 H   0  0  0  0  0  0  0  0  0  0  0  0
  2  1  1  6
  1 49  1  0
  1 50  1  0
  1 51  1  0
  2  3  1  0
  2  4  1  0
  2 48  1  0
  3 52  1  0
  3 53  1  0
  3 54  1  0
  4  5  1  0
  4  9  2  0
  5  6  2  0
  5 55  1  0
  6  7  1  0
  6 56  1  0
  7  8  2  0
  7 57  1  0
  8  9  1  0
  8 58  1  0
  9 10  1  0
 10 11  1  0
 10 43  1  0
 11 12  2  0
 11 42  1  0
 12 13  1  0
 12 59  1  0
 13 14  2  0
 13 60  1  0
 14 15  1  0
 14 41  1  0
 15 16  2  0
 15 19  1  0
 16 17  1  0
 16 61  1  0
 17 18  3  0
 19 20  2  0
 19 40  1  0
 20 21  1  0
 20 62  1  0
 21 22  2  0
 21 63  1  0
 22 23  1  0
 22 39  1  0
 23 24  1  0
 23 38  1  0
 24 25  2  0
 24 29  1  0
 25 26  1  0
 25 64  1  0
 26 27  2  0
 26 65  1  0
 27 28  1  0
 27 66  1  0
 28 29  2  0
 28 67  1  0
 29 30  1  0
 30 31  1  1
 30 32  1  0
 30 33  1  0
 31 68  1  0
 31 69  1  0
 31 70  1  0
 32 71  1  0
 32 72  1  0
 32 73  1  0
 33 34  2  0
 33 38  1  0
 34 35  1  0
 34 74  1  0
 35 36  2  0
 35 75  1  0
 36 37  1  0
 36 76  1  0
 37 38  2  0
 37 77  1  0
 39 40  2  0
 39 78  1  0
 40 79  1  0
 41 42  2  0
 41 80  1  0
 42 81  1  0
 43 44  1  0
 43 48  2  0
 44 45  2  0
 44 82  1  0
 45 46  1  0
 45 83  1  0
 46 47  2  0
 46 84  1  0
 47 48  1  0
 47 85  1  0
M  END

