
     RDKit          3D

 42 42  0  0  0  0  0  0  0  0999 V2000
    1.8319    1.4482    0.0124 C   0  0  0  0  0  0  0  0  0  0  0  0
    2.0370    0.0637   -0.1608 O   0  0  0  0  0  0  0  0  0  0  0  0
    2.6144   -0.3883   -1.2998 C   0  0  0  0  0  0  0  0  0  0  0  0
    3.0569    0.4318   -2.3345 C   0  0  0  0  0  0  0  0  0  0  0  0
    3.6315   -0.0979   -3.5180 C   0  0  0  0  0  0  0  0  0  0  0  0
    4.0531    0.7480   -4.5012 N   0  0  0  0  0  0  0  0  0  0  0  0
    3.7775   -1.5132   -3.6330 C   0  0  0  0  0  0  0  0  0  0  0  0
    4.3809   -2.1040   -4.8611 C   0  0  0  0  0  0  0  0  0  0  0  0
    4.5543   -1.4514   -5.8979 O   0  0  0  0  0  0  0  0  0  0  0  0
    4.7416   -3.4242   -4.8061 N   0  0  0  0  0  0  0  0  0  0  0  0
    5.3786   -4.1213   -5.9204 C   0  0  1  0  0  0  0  0  0  0  0  0
    6.9068   -4.1134   -5.7835 C   0  0  0  0  0  0  0  0  0  0  0  0
    4.8186   -5.5439   -6.0591 C   0  0  0  0  0  0  0  0  0  0  0  0
    3.3210   -5.6147   -6.3633 C   0  0  0  0  0  0  0  0  0  0  0  0
    2.8172   -7.0385   -6.5994 C   0  0  0  0  0  0  0  0  0  0  0  0
    3.4782   -7.6991   -7.6627 O   0  0  0  0  0  0  0  0  0  0  0  0
    3.3137   -2.3149   -2.5673 C   0  0  0  0  0  0  0  0  0  0  0  0
    2.7443   -1.7992   -1.4157 C   0  0  0  0  0  0  0  0  0  0  0  0
    2.2467   -2.6466   -0.4593 O   0  0  0  0  0  0  0  0  0  0  0  0
    2.9481   -2.6927    0.7717 C   0  0  0  0  0  0  0  0  0  0  0  0
    1.3438    1.5720    0.9884 H   0  0  0  0  0  0  0  0  0  0  0  0
    1.1754    1.8646   -0.7722 H   0  0  0  0  0  0  0  0  0  0  0  0
    2.7844    2.0080    0.0140 H   0  0  0  0  0  0  0  0  0  0  0  0
    2.9567    1.5149   -2.2576 H   0  0  0  0  0  0  0  0  0  0  0  0
    3.7810    1.7198   -4.4621 H   0  0  0  0  0  0  0  0  0  0  0  0
    4.2870    0.3125   -5.3933 H   0  0  0  0  0  0  0  0  0  0  0  0
    4.7635   -3.8802   -3.9027 H   0  0  0  0  0  0  0  0  0  0  0  0
    5.1108   -3.5380   -6.8142 H   0  0  0  0  0  0  0  0  0  0  0  0
    7.2285   -4.6552   -4.8775 H   0  0  0  0  0  0  0  0  0  0  0  0
    7.2827   -3.0812   -5.7204 H   0  0  0  0  0  0  0  0  0  0  0  0
    7.3805   -4.6000   -6.6511 H   0  0  0  0  0  0  0  0  0  0  0  0
    5.0367   -6.1147   -5.1350 H   0  0  0  0  0  0  0  0  0  0  0  0
    5.3662   -6.0637   -6.8616 H   0  0  0  0  0  0  0  0  0  0  0  0
    3.0991   -5.0013   -7.2581 H   0  0  0  0  0  0  0  0  0  0  0  0
    2.7397   -5.1614   -5.5419 H   0  0  0  0  0  0  0  0  0  0  0  0
    1.7191   -7.0235   -6.7531 H   0  0  0  0  0  0  0  0  0  0  0  0
    3.0023   -7.6549   -5.7032 H   0  0  0  0  0  0  0  0  0  0  0  0
    3.2848   -7.2182   -8.4786 H   0  0  0  0  0  0  0  0  0  0  0  0
    3.3478   -3.4045   -2.6294 H   0  0  0  0  0  0  0  0  0  0  0  0
    2.4478   -3.4473    1.3961 H   0  0  0  0  0  0  0  0  0  0  0  0
    2.9242   -1.7225    1.2948 H   0  0  0  0  0  0  0  0  0  0  0  0
    4.0022   -2.9946    0.6238 H   0  0  0  0  0  0  0  0  0  0  0  0
  1  2  1  0
  1 21  1  0
  1 22  1  0
  1 23  1  0
  2  3  1  0
  3  4  2  0
  3 18  1  0
  4  5  1  0
  4 24  1  0
  5  6  1  0
  5  7  2  0
  6 25  1  0
  6 26  1  0
  7  8  1  0
  7 17  1  0
  8  9  2  0
  8 10  1  0
 10 11  1  0
 10 27  1  0
 11 12  1  0
 11 13  1  0
 11 28  1  6
 12 29  1  0
 12 30  1  0
 12 31  1  0
 13 14  1  0
 13 32  1  0
 13 33  1  0
 14 15  1  0
 14 34  1  0
 14 35  1  0
 15 16  1  0
 15 36  1  0
 15 37  1  0
 16 38  1  0
 17 18  2  0
 17 39  1  0
 18 19  1  0
 19 20  1  0
 20 40  1  0
 20 41  1  0
 20 42  1  0
M  END

