
     RDKit          3D

 28 30  0  0  0  0  0  0  0  0999 V2000
    7.2953   -2.2189    2.0100 N   0  0  0  0  0  0  0  0  0  0  0  0
    6.5441   -1.5582    1.4141 C   0  0  0  0  0  0  0  0  0  0  0  0
    5.6432   -0.7293    0.6938 C   0  0  0  0  0  0  0  0  0  0  0  0
    4.4617   -1.1186    0.1219 C   0  0  0  0  0  0  0  0  0  0  0  0
    3.8549   -2.4313    0.1092 C   0  0  0  0  0  0  0  0  0  0  0  0
    4.2861   -3.6340    0.6567 C   0  0  0  0  0  0  0  0  0  0  0  0
    3.4018   -4.7095    0.4245 C   0  0  0  0  0  0  0  0  0  0  0  0
    2.2739   -4.3615   -0.3068 C   0  0  0  0  0  0  0  0  0  0  0  0
    1.1696   -5.2003   -0.7289 C   0  0  0  0  0  0  0  0  0  0  0  0
    0.0828   -4.8765   -1.5235 C   0  0  0  0  0  0  0  0  0  0  0  0
   -0.8101   -5.9643   -1.7311 C   0  0  0  0  0  0  0  0  0  0  0  0
   -0.4033   -7.1120   -1.0965 C   0  0  0  0  0  0  0  0  0  0  0  0
    1.0756   -6.8782   -0.2334 S   0  0  0  0  0  0  0  0  0  0  0  0
    2.3160   -2.6655   -0.7053 S   0  0  0  0  0  0  0  0  0  0  0  0
    3.8385    0.0657   -0.6005 C   0  0  0  0  0  0  0  0  0  0  0  0
    4.5956    1.2886   -0.0470 C   0  0  0  0  0  0  0  0  0  0  0  0
    5.9542    0.7340    0.4264 C   0  0  0  0  0  0  0  0  0  0  0  0
    5.2191   -3.7344    1.2098 H   0  0  0  0  0  0  0  0  0  0  0  0
    3.5858   -5.7247    0.7798 H   0  0  0  0  0  0  0  0  0  0  0  0
   -0.0641   -3.8825   -1.9495 H   0  0  0  0  0  0  0  0  0  0  0  0
   -1.7194   -5.8990   -2.3303 H   0  0  0  0  0  0  0  0  0  0  0  0
   -0.8898   -8.0864   -1.0854 H   0  0  0  0  0  0  0  0  0  0  0  0
    2.7496    0.1290   -0.4419 H   0  0  0  0  0  0  0  0  0  0  0  0
    3.9882   -0.0549   -1.6901 H   0  0  0  0  0  0  0  0  0  0  0  0
    4.0471    1.6955    0.8177 H   0  0  0  0  0  0  0  0  0  0  0  0
    4.6953    2.0998   -0.7831 H   0  0  0  0  0  0  0  0  0  0  0  0
    6.3489    1.2520    1.3148 H   0  0  0  0  0  0  0  0  0  0  0  0
    6.7312    0.8176   -0.3569 H   0  0  0  0  0  0  0  0  0  0  0  0
  1  2  3  0
  2  3  1  0
  3  4  2  0
  3 17  1  0
  4  5  1  0
  4 15  1  0
  5  6  2  0
  5 14  1  0
  6  7  1  0
  6 18  1  0
  7  8  2  0
  7 19  1  0
  8  9  1  0
  8 14  1  0
  9 10  2  0
  9 13  1  0
 10 11  1  0
 10 20  1  0
 11 12  2  0
 11 21  1  0
 12 13  1  0
 12 22  1  0
 15 16  1  0
 15 23  1  0
 15 24  1  0
 16 17  1  0
 16 25  1  0
 16 26  1  0
 17 27  1  0
 17 28  1  0
M  END

