
     RDKit          3D

 73 76  0  0  0  0  0  0  0  0999 V2000
   -0.3863   -3.1060   -3.2949 C   0  0  0  0  0  0  0  0  0  0  0  0
    1.0727   -2.6978   -3.5033 C   0  0  0  0  0  0  0  0  0  0  0  0
    2.0712   -3.8173   -3.1931 C   0  0  0  0  0  0  0  0  0  0  0  0
    3.5347   -3.4156   -3.3995 C   0  0  0  0  0  0  0  0  0  0  0  0
    4.5251   -4.5408   -3.0882 C   0  0  0  0  0  0  0  0  0  0  0  0
    5.9737   -4.1298   -3.2983 C   0  0  0  0  0  0  0  0  0  0  0  0
    6.8008   -5.2421   -2.9848 O   0  0  0  0  0  0  0  0  0  0  0  0
    8.1434   -5.1374   -3.0887 C   0  0  0  0  0  0  0  0  0  0  0  0
    8.8296   -3.9820   -3.4990 C   0  0  0  0  0  0  0  0  0  0  0  0
   10.2239   -3.9972   -3.5675 C   0  0  0  0  0  0  0  0  0  0  0  0
   10.9938   -5.1292   -3.2475 C   0  0  0  0  0  0  0  0  0  0  0  0
   12.4756   -5.1058   -3.3223 C   0  0  0  0  0  0  0  0  0  0  0  0
   13.1863   -3.9431   -2.9580 C   0  0  0  0  0  0  0  0  0  0  0  0
   14.5731   -3.8877   -3.0506 C   0  0  0  0  0  0  0  0  0  0  0  0
   15.2979   -4.9993   -3.5089 C   0  0  0  0  0  0  0  0  0  0  0  0
   16.7788   -4.8859   -3.5865 C   0  0  0  0  0  0  0  0  0  0  0  0
   17.4149   -3.9046   -3.2892 O   0  0  0  0  0  0  0  0  0  0  0  0
   17.3278   -6.0478   -4.0423 O   0  0  0  0  0  0  0  0  0  0  0  0
   18.6637   -6.2907   -4.2439 C   0  0  0  0  0  0  0  0  0  0  0  0
   19.7416   -5.4384   -3.9720 C   0  0  0  0  0  0  0  0  0  0  0  0
   21.0369   -5.8749   -4.2467 C   0  0  0  0  0  0  0  0  0  0  0  0
   21.3486   -7.1357   -4.7941 C   0  0  0  0  0  0  0  0  0  0  0  0
   22.8295   -7.4929   -4.9994 C   0  0  1  0  0  0  0  0  0  0  0  0
   23.1722   -8.9030   -5.5344 C   0  0  0  0  0  0  0  0  0  0  0  0
   22.9524   -9.0768   -7.0467 C   0  0  0  0  0  0  0  0  0  0  0  0
   23.6560   -8.0026   -7.9008 C   0  0  2  0  0  0  0  0  0  0  0  0
   25.1739   -8.2162   -8.0009 C   0  0  0  0  0  0  0  0  0  0  0  0
   23.2835   -6.6038   -7.3682 C   0  0  0  0  0  0  0  0  0  0  0  0
   23.5700   -6.4438   -5.8703 C   0  0  0  0  0  0  0  0  0  0  0  0
   20.2463   -7.9672   -5.0317 C   0  0  0  0  0  0  0  0  0  0  0  0
   20.3711   -9.2136   -5.5167 F   0  0  0  0  0  0  0  0  0  0  0  0
   18.9341   -7.5574   -4.7731 C   0  0  0  0  0  0  0  0  0  0  0  0
   17.9319   -8.4001   -5.0325 F   0  0  0  0  0  0  0  0  0  0  0  0
   14.6042   -6.1664   -3.8705 C   0  0  0  0  0  0  0  0  0  0  0  0
   13.2160   -6.2168   -3.7762 C   0  0  0  0  0  0  0  0  0  0  0  0
   10.2627   -6.2648   -2.8433 C   0  0  0  0  0  0  0  0  0  0  0  0
   10.9200   -7.3857   -2.5009 F   0  0  0  0  0  0  0  0  0  0  0  0
    8.8801   -6.2870   -2.7573 C   0  0  0  0  0  0  0  0  0  0  0  0
   -1.0753   -2.2783   -3.5271 H   0  0  0  0  0  0  0  0  0  0  0  0
   -0.5725   -3.4108   -2.2514 H   0  0  0  0  0  0  0  0  0  0  0  0
   -0.6605   -3.9578   -3.9398 H   0  0  0  0  0  0  0  0  0  0  0  0
    1.3042   -1.8202   -2.8724 H   0  0  0  0  0  0  0  0  0  0  0  0
    1.2168   -2.3622   -4.5466 H   0  0  0  0  0  0  0  0  0  0  0  0
    1.8424   -4.6960   -3.8243 H   0  0  0  0  0  0  0  0  0  0  0  0
    1.9298   -4.1541   -2.1494 H   0  0  0  0  0  0  0  0  0  0  0  0
    3.7628   -2.5374   -2.7673 H   0  0  0  0  0  0  0  0  0  0  0  0
    3.6749   -3.0787   -4.4436 H   0  0  0  0  0  0  0  0  0  0  0  0
    4.3153   -5.4193   -3.7225 H   0  0  0  0  0  0  0  0  0  0  0  0
    4.4045   -4.8766   -2.0439 H   0  0  0  0  0  0  0  0  0  0  0  0
    6.2337   -3.2711   -2.6504 H   0  0  0  0  0  0  0  0  0  0  0  0
    6.1424   -3.8171   -4.3463 H   0  0  0  0  0  0  0  0  0  0  0  0
    8.2929   -3.0750   -3.7743 H   0  0  0  0  0  0  0  0  0  0  0  0
   10.7379   -3.0961   -3.9088 H   0  0  0  0  0  0  0  0  0  0  0  0
   12.6421   -3.0774   -2.5747 H   0  0  0  0  0  0  0  0  0  0  0  0
   15.1187   -2.9877   -2.7609 H   0  0  0  0  0  0  0  0  0  0  0  0
   19.5582   -4.4546   -3.5507 H   0  0  0  0  0  0  0  0  0  0  0  0
   21.8584   -5.1953   -4.0106 H   0  0  0  0  0  0  0  0  0  0  0  0
   23.2644   -7.4274   -3.9858 H   0  0  0  0  0  0  0  0  0  0  0  0
   22.6189   -9.6761   -4.9831 H   0  0  0  0  0  0  0  0  0  0  0  0
   24.2385   -9.0718   -5.3048 H   0  0  0  0  0  0  0  0  0  0  0  0
   21.8731   -9.0475   -7.2601 H   0  0  0  0  0  0  0  0  0  0  0  0
   23.2936  -10.0819   -7.3500 H   0  0  0  0  0  0  0  0  0  0  0  0
   23.2562   -8.0836   -8.9273 H   0  0  0  0  0  0  0  0  0  0  0  0
   25.6762   -8.1738   -7.0212 H   0  0  0  0  0  0  0  0  0  0  0  0
   25.6402   -7.4493   -8.6413 H   0  0  0  0  0  0  0  0  0  0  0  0
   25.4023   -9.2007   -8.4408 H   0  0  0  0  0  0  0  0  0  0  0  0
   22.2080   -6.4268   -7.5487 H   0  0  0  0  0  0  0  0  0  0  0  0
   23.8226   -5.8256   -7.9355 H   0  0  0  0  0  0  0  0  0  0  0  0
   23.3202   -5.4212   -5.5486 H   0  0  0  0  0  0  0  0  0  0  0  0
   24.6518   -6.5585   -5.6854 H   0  0  0  0  0  0  0  0  0  0  0  0
   15.1617   -7.0314   -4.2314 H   0  0  0  0  0  0  0  0  0  0  0  0
   12.6959   -7.1290   -4.0683 H   0  0  0  0  0  0  0  0  0  0  0  0
    8.3669   -7.1910   -2.4280 H   0  0  0  0  0  0  0  0  0  0  0  0
  1  2  1  0
  1 39  1  0
  1 40  1  0
  1 41  1  0
  2  3  1  0
  2 42  1  0
  2 43  1  0
  3  4  1  0
  3 44  1  0
  3 45  1  0
  4  5  1  0
  4 46  1  0
  4 47  1  0
  5  6  1  0
  5 48  1  0
  5 49  1  0
  6  7  1  0
  6 50  1  0
  6 51  1  0
  7  8  1  0
  8  9  2  0
  8 38  1  0
  9 10  1  0
  9 52  1  0
 10 11  2  0
 10 53  1  0
 11 12  1  0
 11 36  1  0
 12 13  2  0
 12 35  1  0
 13 14  1  0
 13 54  1  0
 14 15  2  0
 14 55  1  0
 15 16  1  0
 15 34  1  0
 16 17  2  0
 16 18  1  0
 18 19  1  0
 19 20  2  0
 19 32  1  0
 20 21  1  0
 20 56  1  0
 21 22  2  0
 21 57  1  0
 22 23  1  0
 22 30  1  0
 23 24  1  0
 23 29  1  0
 23 58  1  1
 24 25  1  0
 24 59  1  0
 24 60  1  0
 25 26  1  0
 25 61  1  0
 25 62  1  0
 26 27  1  0
 26 28  1  0
 26 63  1  6
 27 64  1  0
 27 65  1  0
 27 66  1  0
 28 29  1  0
 28 67  1  0
 28 68  1  0
 29 69  1  0
 29 70  1  0
 30 31  1  0
 30 32  2  0
 32 33  1  0
 34 35  2  0
 34 71  1  0
 35 72  1  0
 36 37  1  0
 36 38  2  0
 38 73  1  0
M  END

