
     RDKit          3D

 66 69  0  0  0  0  0  0  0  0999 V2000
    1.8858    2.5323    0.8092 C   0  0  0  0  0  0  0  0  0  0  0  0
    2.0724    1.3573    1.7779 C   0  0  1  0  0  0  0  0  0  0  0  0
    0.8038    0.4977    1.8564 C   0  0  0  0  0  0  0  0  0  0  0  0
    3.2836    0.4767    1.4167 C   0  0  0  0  0  0  0  0  0  0  0  0
    4.6526    1.1884    1.3508 C   0  0  0  0  0  0  0  0  0  0  0  0
    5.0761    1.8730    2.6123 C   0  0  0  0  0  0  0  0  0  0  0  0
    4.9701    3.1545    2.8161 N   0  0  0  0  0  0  0  0  0  0  0  0
    5.4381    3.3695    4.0872 N   0  0  0  0  0  0  0  0  0  0  0  0
    5.4752    4.6944    4.6683 C   0  0  0  0  0  0  0  0  0  0  0  0
    4.0780    5.2339    5.0273 C   0  0  0  0  0  0  0  0  0  0  0  0
    4.1339    6.6290    5.6083 C   0  0  0  0  0  0  0  0  0  0  0  0
    4.0276    7.7589    4.7814 C   0  0  0  0  0  0  0  0  0  0  0  0
    4.1190    9.0490    5.3117 C   0  0  0  0  0  0  0  0  0  0  0  0
    4.3202    9.2315    6.6829 C   0  0  0  0  0  0  0  0  0  0  0  0
    4.4284    8.1154    7.5183 C   0  0  0  0  0  0  0  0  0  0  0  0
    4.3367    6.8274    6.9840 C   0  0  0  0  0  0  0  0  0  0  0  0
    5.8450    2.2093    4.7054 C   0  0  0  0  0  0  0  0  0  0  0  0
    6.3252    2.0413    5.8152 O   0  0  0  0  0  0  0  0  0  0  0  0
    5.5921    1.2350    3.7290 N   0  0  0  0  0  0  0  0  0  0  0  0
    5.9378   -0.1647    3.9332 C   0  0  0  0  0  0  0  0  0  0  0  0
    7.3294   -0.5395    3.4543 C   0  0  0  0  0  0  0  0  0  0  0  0
    8.4626    0.0436    4.0479 C   0  0  0  0  0  0  0  0  0  0  0  0
    9.7433   -0.2963    3.6167 C   0  0  0  0  0  0  0  0  0  0  0  0
    9.9372   -1.2382    2.5850 C   0  0  0  0  0  0  0  0  0  0  0  0
   11.3108   -1.6591    2.1655 C   0  0  0  0  0  0  0  0  0  0  0  0
   11.6536   -3.0129    2.3389 C   0  0  0  0  0  0  0  0  0  0  0  0
   12.9267   -3.4904    2.0285 C   0  0  0  0  0  0  0  0  0  0  0  0
   13.8978   -2.6115    1.5417 C   0  0  0  0  0  0  0  0  0  0  0  0
   13.5757   -1.2695    1.3570 C   0  0  0  0  0  0  0  0  0  0  0  0
   12.2904   -0.7770    1.6435 C   0  0  0  0  0  0  0  0  0  0  0  0
   12.0910    0.6879    1.3067 C   0  0  0  0  0  0  0  0  0  0  0  0
   13.0214    1.4356    1.1448 O   0  0  0  0  0  0  0  0  0  0  0  0
   10.8338    1.1358    1.1328 O   0  0  0  0  0  0  0  0  0  0  0  0
    8.8003   -1.8274    2.0042 C   0  0  0  0  0  0  0  0  0  0  0  0
    7.5157   -1.4772    2.4313 C   0  0  0  0  0  0  0  0  0  0  0  0
    0.9768    3.1028    1.0593 H   0  0  0  0  0  0  0  0  0  0  0  0
    1.7776    2.1775   -0.2310 H   0  0  0  0  0  0  0  0  0  0  0  0
    2.7323    3.2341    0.8484 H   0  0  0  0  0  0  0  0  0  0  0  0
    2.2524    1.7812    2.7831 H   0  0  0  0  0  0  0  0  0  0  0  0
    0.5626    0.0555    0.8742 H   0  0  0  0  0  0  0  0  0  0  0  0
   -0.0650    1.0970    2.1721 H   0  0  0  0  0  0  0  0  0  0  0  0
    0.9176   -0.3308    2.5749 H   0  0  0  0  0  0  0  0  0  0  0  0
    3.1045    0.0077    0.4320 H   0  0  0  0  0  0  0  0  0  0  0  0
    3.3370   -0.3582    2.1381 H   0  0  0  0  0  0  0  0  0  0  0  0
    4.6410    1.9582    0.5665 H   0  0  0  0  0  0  0  0  0  0  0  0
    5.4245    0.4570    1.0587 H   0  0  0  0  0  0  0  0  0  0  0  0
    5.9740    5.3744    3.9595 H   0  0  0  0  0  0  0  0  0  0  0  0
    6.1033    4.6179    5.5677 H   0  0  0  0  0  0  0  0  0  0  0  0
    3.6099    4.5413    5.7458 H   0  0  0  0  0  0  0  0  0  0  0  0
    3.4598    5.2247    4.1157 H   0  0  0  0  0  0  0  0  0  0  0  0
    3.8647    7.6253    3.7077 H   0  0  0  0  0  0  0  0  0  0  0  0
    4.0291    9.9154    4.6510 H   0  0  0  0  0  0  0  0  0  0  0  0
    4.3893   10.2395    7.0997 H   0  0  0  0  0  0  0  0  0  0  0  0
    4.5819    8.2480    8.5926 H   0  0  0  0  0  0  0  0  0  0  0  0
    4.4183    5.9599    7.6460 H   0  0  0  0  0  0  0  0  0  0  0  0
    5.1822   -0.7960    3.4456 H   0  0  0  0  0  0  0  0  0  0  0  0
    5.8671   -0.3305    5.0195 H   0  0  0  0  0  0  0  0  0  0  0  0
    8.3295    0.7604    4.8626 H   0  0  0  0  0  0  0  0  0  0  0  0
   10.6122    0.1611    4.0960 H   0  0  0  0  0  0  0  0  0  0  0  0
   10.9053   -3.6936    2.7520 H   0  0  0  0  0  0  0  0  0  0  0  0
   13.1620   -4.5471    2.1793 H   0  0  0  0  0  0  0  0  0  0  0  0
   14.9018   -2.9711    1.3042 H   0  0  0  0  0  0  0  0  0  0  0  0
   14.3112   -0.5615    0.9717 H   0  0  0  0  0  0  0  0  0  0  0  0
   10.1816    0.4417    1.3169 H   0  0  0  0  0  0  0  0  0  0  0  0
    8.9249   -2.5607    1.2035 H   0  0  0  0  0  0  0  0  0  0  0  0
    6.6481   -1.9483    1.9600 H   0  0  0  0  0  0  0  0  0  0  0  0
  1  2  1  0
  1 36  1  0
  1 37  1  0
  1 38  1  0
  2  3  1  0
  2  4  1  0
  2 39  1  1
  3 40  1  0
  3 41  1  0
  3 42  1  0
  4  5  1  0
  4 43  1  0
  4 44  1  0
  5  6  1  0
  5 45  1  0
  5 46  1  0
  6  7  2  0
  6 19  1  0
  7  8  1  0
  8  9  1  0
  8 17  1  0
  9 10  1  0
  9 47  1  0
  9 48  1  0
 10 11  1  0
 10 49  1  0
 10 50  1  0
 11 12  2  0
 11 16  1  0
 12 13  1  0
 12 51  1  0
 13 14  2  0
 13 52  1  0
 14 15  1  0
 14 53  1  0
 15 16  2  0
 15 54  1  0
 16 55  1  0
 17 18  2  0
 17 19  1  0
 19 20  1  0
 20 21  1  0
 20 56  1  0
 20 57  1  0
 21 22  2  0
 21 35  1  0
 22 23  1  0
 22 58  1  0
 23 24  2  0
 23 59  1  0
 24 25  1  0
 24 34  1  0
 25 26  2  0
 25 30  1  0
 26 27  1  0
 26 60  1  0
 27 28  2  0
 27 61  1  0
 28 29  1  0
 28 62  1  0
 29 30  2  0
 29 63  1  0
 30 31  1  0
 31 32  2  0
 31 33  1  0
 33 64  1  0
 34 35  2  0
 34 65  1  0
 35 66  1  0
M  END

