
     RDKit          3D

 56 57  0  0  0  0  0  0  0  0999 V2000
    1.8637    0.1719   -2.4235 O   0  0  0  0  0  0  0  0  0  0  0  0
    2.9236    0.0360   -1.4949 C   0  0  1  0  0  0  0  0  0  0  0  0
    3.9168   -0.9733   -2.0721 C   0  0  0  0  0  0  0  0  0  0  0  0
    3.4583   -2.7471   -1.8551 S   0  0  0  0  0  0  0  0  0  0  0  0
    1.6700   -2.7878   -2.2971 C   0  0  0  0  0  0  0  0  0  0  0  0
    0.7176   -2.6843   -1.0969 C   0  0  2  0  0  0  0  0  0  0  0  0
    0.7436   -3.8580   -0.3040 O   0  0  0  0  0  0  0  0  0  0  0  0
   -0.7412   -2.3521   -1.4918 C   0  0  0  0  0  0  0  0  0  0  0  0
   -0.9757   -0.9704   -1.9322 N   0  0  0  0  0  0  0  0  0  0  0  0
   -1.5912   -0.8427   -3.2586 C   0  0  0  0  0  0  0  0  0  0  0  0
   -1.0833    0.2993   -4.1335 C   0  0  0  0  0  0  0  0  0  0  0  0
   -1.4114    1.5630   -3.5950 O   0  0  0  0  0  0  0  0  0  0  0  0
   -1.0959    2.6498   -4.4479 C   0  0  0  0  0  0  0  0  0  0  0  0
   -0.9258    3.9484   -3.6613 C   0  0  0  0  0  0  0  0  0  0  0  0
    0.3501    4.1363   -3.1019 O   0  0  0  0  0  0  0  0  0  0  0  0
    0.6906    3.1912   -2.1027 C   0  0  0  0  0  0  0  0  0  0  0  0
    2.1196    3.4403   -1.6218 C   0  0  0  0  0  0  0  0  0  0  0  0
    2.6336    2.4262   -0.7186 N   0  0  0  0  0  0  0  0  0  0  0  0
    2.1410    2.3904    0.6342 C   0  0  0  0  0  0  0  0  0  0  0  0
    1.1757    1.2452    1.0269 C   0  0  0  0  0  0  0  0  0  0  0  0
    0.2584    0.9876   -0.0138 O   0  0  0  0  0  0  0  0  0  0  0  0
   -0.8338    0.1604    0.3236 C   0  0  0  0  0  0  0  0  0  0  0  0
   -1.6511   -0.1419   -0.9273 C   0  0  0  0  0  0  0  0  0  0  0  0
    3.5555    1.4152   -1.1782 C   0  0  0  0  0  0  0  0  0  0  0  0
    1.0177    0.1919   -1.9420 H   0  0  0  0  0  0  0  0  0  0  0  0
    2.5489   -0.3793   -0.5458 H   0  0  0  0  0  0  0  0  0  0  0  0
    4.8937   -0.9033   -1.5667 H   0  0  0  0  0  0  0  0  0  0  0  0
    4.0713   -0.7480   -3.1398 H   0  0  0  0  0  0  0  0  0  0  0  0
    1.5058   -3.7557   -2.8045 H   0  0  0  0  0  0  0  0  0  0  0  0
    1.4779   -1.9863   -3.0197 H   0  0  0  0  0  0  0  0  0  0  0  0
    1.0719   -1.8844   -0.4323 H   0  0  0  0  0  0  0  0  0  0  0  0
    0.5727   -4.6157   -0.8803 H   0  0  0  0  0  0  0  0  0  0  0  0
   -1.3582   -2.5933   -0.6058 H   0  0  0  0  0  0  0  0  0  0  0  0
   -1.0605   -3.0579   -2.2802 H   0  0  0  0  0  0  0  0  0  0  0  0
   -2.6976   -0.7686   -3.1839 H   0  0  0  0  0  0  0  0  0  0  0  0
   -1.3800   -1.7622   -3.8252 H   0  0  0  0  0  0  0  0  0  0  0  0
   -1.5472    0.1782   -5.1356 H   0  0  0  0  0  0  0  0  0  0  0  0
    0.0137    0.2151   -4.2579 H   0  0  0  0  0  0  0  0  0  0  0  0
   -1.9007    2.7779   -5.2021 H   0  0  0  0  0  0  0  0  0  0  0  0
   -0.1549    2.4554   -4.9987 H   0  0  0  0  0  0  0  0  0  0  0  0
   -1.7192    3.9954   -2.8853 H   0  0  0  0  0  0  0  0  0  0  0  0
   -1.0827    4.7927   -4.3523 H   0  0  0  0  0  0  0  0  0  0  0  0
    0.6404    2.1708   -2.4956 H   0  0  0  0  0  0  0  0  0  0  0  0
   -0.0246    3.2504   -1.2593 H   0  0  0  0  0  0  0  0  0  0  0  0
    2.1754    4.4409   -1.1483 H   0  0  0  0  0  0  0  0  0  0  0  0
    2.7697    3.4821   -2.5101 H   0  0  0  0  0  0  0  0  0  0  0  0
    1.6289    3.3480    0.8215 H   0  0  0  0  0  0  0  0  0  0  0  0
    2.9814    2.3414    1.3606 H   0  0  0  0  0  0  0  0  0  0  0  0
    1.7374    0.3210    1.2709 H   0  0  0  0  0  0  0  0  0  0  0  0
    0.6439    1.5421    1.9544 H   0  0  0  0  0  0  0  0  0  0  0  0
   -1.4924    0.6722    1.0549 H   0  0  0  0  0  0  0  0  0  0  0  0
   -0.4842   -0.7708    0.8123 H   0  0  0  0  0  0  0  0  0  0  0  0
   -1.9090    0.8151   -1.4009 H   0  0  0  0  0  0  0  0  0  0  0  0
   -2.6029   -0.6163   -0.5954 H   0  0  0  0  0  0  0  0  0  0  0  0
    4.3493    1.2578   -0.4174 H   0  0  0  0  0  0  0  0  0  0  0  0
    4.0551    1.7854   -2.0896 H   0  0  0  0  0  0  0  0  0  0  0  0
  1  2  1  0
  1 25  1  0
  2  3  1  0
  2 24  1  0
  2 26  1  1
  3  4  1  0
  3 27  1  0
  3 28  1  0
  4  5  1  0
  5  6  1  0
  5 29  1  0
  5 30  1  0
  6  7  1  0
  6  8  1  0
  6 31  1  1
  7 32  1  0
  8  9  1  0
  8 33  1  0
  8 34  1  0
  9 10  1  0
  9 23  1  0
 10 11  1  0
 10 35  1  0
 10 36  1  0
 11 12  1  0
 11 37  1  0
 11 38  1  0
 12 13  1  0
 13 14  1  0
 13 39  1  0
 13 40  1  0
 14 15  1  0
 14 41  1  0
 14 42  1  0
 15 16  1  0
 16 17  1  0
 16 43  1  0
 16 44  1  0
 17 18  1  0
 17 45  1  0
 17 46  1  0
 18 19  1  0
 18 24  1  0
 19 20  1  0
 19 47  1  0
 19 48  1  0
 20 21  1  0
 20 49  1  0
 20 50  1  0
 21 22  1  0
 22 23  1  0
 22 51  1  0
 22 52  1  0
 23 53  1  0
 23 54  1  0
 24 55  1  0
 24 56  1  0
M  END

