
     RDKit          3D

 39 39  0  0  0  0  0  0  0  0999 V2000
    0.7125   -0.3009   -0.0817 C   0  0  0  0  0  0  0  0  0  0  0  0
    2.2384   -0.1706   -0.0640 C   0  0  1  0  0  0  0  0  0  0  0  0
    2.8147   -0.7465    1.1472 N   0  0  0  0  0  0  0  0  0  0  0  0
    2.6486    0.0315    2.3657 C   0  0  0  0  0  0  0  0  0  0  0  0
    3.1746   -0.7092    3.5980 C   0  0  0  0  0  0  0  0  0  0  0  0
    4.6758   -1.0120    3.5685 C   0  0  0  0  0  0  0  0  0  0  0  0
    5.1747   -1.6851    4.8580 C   0  0  0  0  0  0  0  0  0  0  0  0
    6.6485   -1.9933    4.8590 C   0  0  0  0  0  0  0  0  0  0  0  0
    7.1169   -2.9503    3.9921 N   0  0  0  0  0  0  0  0  0  0  0  0
    7.3916   -1.3604    5.7023 N   0  0  0  0  0  0  0  0  0  0  0  0
    8.7421   -1.7573    5.5503 O   0  0  0  0  0  0  0  0  0  0  0  0
    2.8622   -0.8859   -1.2701 C   0  0  1  0  0  0  0  0  0  0  0  0
    2.5132   -0.2988   -2.6476 C   0  0  0  0  0  0  0  0  0  0  0  0
    3.7974   -0.5381   -3.4515 C   0  0  0  0  0  0  0  0  0  0  0  0
    4.8692   -0.3359   -2.3794 C   0  0  0  0  0  0  0  0  0  0  0  0
    4.2947   -0.8227   -1.1732 O   0  0  0  0  0  0  0  0  0  0  0  0
    0.2563    0.2045    0.7824 H   0  0  0  0  0  0  0  0  0  0  0  0
    0.4194   -1.3625   -0.0414 H   0  0  0  0  0  0  0  0  0  0  0  0
    0.2807    0.1527   -0.9875 H   0  0  0  0  0  0  0  0  0  0  0  0
    2.5006    0.9102   -0.1616 H   0  0  0  0  0  0  0  0  0  0  0  0
    3.8093   -0.8756    0.9649 H   0  0  0  0  0  0  0  0  0  0  0  0
    1.5754    0.2315    2.5184 H   0  0  0  0  0  0  0  0  0  0  0  0
    3.1370    1.0332    2.3024 H   0  0  0  0  0  0  0  0  0  0  0  0
    2.6135   -1.6541    3.7057 H   0  0  0  0  0  0  0  0  0  0  0  0
    2.9482   -0.1020    4.4926 H   0  0  0  0  0  0  0  0  0  0  0  0
    5.2438   -0.0775    3.4113 H   0  0  0  0  0  0  0  0  0  0  0  0
    4.8970   -1.6604    2.7019 H   0  0  0  0  0  0  0  0  0  0  0  0
    4.6133   -2.6231    5.0233 H   0  0  0  0  0  0  0  0  0  0  0  0
    4.9820   -1.0328    5.7222 H   0  0  0  0  0  0  0  0  0  0  0  0
    6.5621   -3.1729    3.1766 H   0  0  0  0  0  0  0  0  0  0  0  0
    8.1238   -2.9828    3.8774 H   0  0  0  0  0  0  0  0  0  0  0  0
    9.1923   -1.2138    6.2067 H   0  0  0  0  0  0  0  0  0  0  0  0
    2.5707   -1.9530   -1.2148 H   0  0  0  0  0  0  0  0  0  0  0  0
    2.3139    0.7831   -2.5608 H   0  0  0  0  0  0  0  0  0  0  0  0
    1.6254   -0.7681   -3.0953 H   0  0  0  0  0  0  0  0  0  0  0  0
    3.9112    0.1408   -4.3101 H   0  0  0  0  0  0  0  0  0  0  0  0
    3.8275   -1.5730   -3.8306 H   0  0  0  0  0  0  0  0  0  0  0  0
    5.1310    0.7365   -2.2783 H   0  0  0  0  0  0  0  0  0  0  0  0
    5.8006   -0.8911   -2.5782 H   0  0  0  0  0  0  0  0  0  0  0  0
  1  2  1  0
  1 17  1  0
  1 18  1  0
  1 19  1  0
  2  3  1  0
  2 12  1  0
  2 20  1  6
  3  4  1  0
  3 21  1  0
  4  5  1  0
  4 22  1  0
  4 23  1  0
  5  6  1  0
  5 24  1  0
  5 25  1  0
  6  7  1  0
  6 26  1  0
  6 27  1  0
  7  8  1  0
  7 28  1  0
  7 29  1  0
  8  9  1  0
  8 10  2  0
  9 30  1  0
  9 31  1  0
 10 11  1  0
 11 32  1  0
 12 13  1  0
 12 16  1  0
 12 33  1  6
 13 14  1  0
 13 34  1  0
 13 35  1  0
 14 15  1  0
 14 36  1  0
 14 37  1  0
 15 16  1  0
 15 38  1  0
 15 39  1  0
M  END

