
     RDKit          3D

 72 74  0  0  0  0  0  0  0  0999 V2000
    0.8718   10.6846    4.1842 C   0  0  0  0  0  0  0  0  0  0  0  0
    1.5660   10.0656    2.9955 C   0  0  0  0  0  0  0  0  0  0  0  0
    1.5069    8.6855    2.7484 C   0  0  0  0  0  0  0  0  0  0  0  0
    2.1356    8.1181    1.6383 C   0  0  0  0  0  0  0  0  0  0  0  0
    2.8724    8.9258    0.7604 C   0  0  0  0  0  0  0  0  0  0  0  0
    3.5419    8.3251   -0.3516 N   0  0  0  0  0  0  0  0  0  0  0  0
    4.5345    7.2716   -0.1696 C   0  0  0  0  0  0  0  0  0  0  0  0
    4.0615    5.9070   -0.6960 C   0  0  0  0  0  0  0  0  0  0  0  0
    2.8652    5.6414   -0.6881 O   0  0  0  0  0  0  0  0  0  0  0  0
    5.0055    5.0202   -1.1573 N   0  0  0  0  0  0  0  0  0  0  0  0
    4.5174    3.7041   -1.5997 C   0  0  0  0  0  0  0  0  0  0  0  0
    4.7883    3.4119   -3.0626 C   0  0  0  0  0  0  0  0  0  0  0  0
    5.5320    2.2879   -3.4451 C   0  0  0  0  0  0  0  0  0  0  0  0
    5.7503    2.0045   -4.7974 C   0  0  0  0  0  0  0  0  0  0  0  0
    5.2318    2.8396   -5.7878 C   0  0  0  0  0  0  0  0  0  0  0  0
    4.4911    3.9624   -5.4018 C   0  0  0  0  0  0  0  0  0  0  0  0
    3.7710    5.1087   -6.7479 Br  0  0  0  0  0  0  0  0  0  0  0  0
    4.2647    4.2570   -4.0570 C   0  0  0  0  0  0  0  0  0  0  0  0
    6.4623    5.1083   -0.9247 C   0  0  2  0  0  0  0  0  0  0  0  0
    6.8703    4.2287   -1.4491 H   0  0  0  0  0  0  0  0  0  0  0  0
    6.8452    4.9718    0.5524 C   0  0  0  0  0  0  0  0  0  0  0  0
    7.2415    6.2734   -1.6040 C   0  0  0  0  0  0  0  0  0  0  0  0
    8.3038    6.6241   -1.1063 O   0  0  0  0  0  0  0  0  0  0  0  0
    6.7402    6.7438   -2.7677 N   0  0  0  0  0  0  0  0  0  0  0  0
    7.3819    7.7806   -3.6192 C   0  0  1  0  0  0  0  0  0  0  0  0
    8.7894    7.3145   -4.0333 C   0  0  0  0  0  0  0  0  0  0  0  0
    6.5003    7.9339   -4.8677 C   0  0  0  0  0  0  0  0  0  0  0  0
    7.4541    9.1189   -2.8587 C   0  0  0  0  0  0  0  0  0  0  0  0
    3.2707    8.8809   -1.9212 S   0  0  1  0  0  0  0  0  0  0  0  0
    3.7495   10.2587   -2.0872 O   0  0  0  0  0  0  0  0  0  0  0  0
    3.8331    7.8289   -2.7871 O   0  0  0  0  0  0  0  0  0  0  0  0
    1.4892    8.9089   -2.0949 C   0  0  0  0  0  0  0  0  0  0  0  0
    0.8766   10.1069   -2.4738 C   0  0  0  0  0  0  0  0  0  0  0  0
   -0.5026   10.1292   -2.6857 C   0  0  0  0  0  0  0  0  0  0  0  0
   -1.2282    8.9514   -2.5131 C   0  0  0  0  0  0  0  0  0  0  0  0
   -2.5493    8.9701   -2.7143 F   0  0  0  0  0  0  0  0  0  0  0  0
   -0.6204    7.7528   -2.1342 C   0  0  0  0  0  0  0  0  0  0  0  0
    0.7572    7.7268   -1.9241 C   0  0  0  0  0  0  0  0  0  0  0  0
    2.9507   10.3071    0.9964 C   0  0  0  0  0  0  0  0  0  0  0  0
    2.2928   10.8617    2.0946 C   0  0  0  0  0  0  0  0  0  0  0  0
    0.3884    9.9228    4.8132 H   0  0  0  0  0  0  0  0  0  0  0  0
    0.0945   11.3995    3.8656 H   0  0  0  0  0  0  0  0  0  0  0  0
    1.5813   11.2438    4.8165 H   0  0  0  0  0  0  0  0  0  0  0  0
    0.9427    8.0409    3.4284 H   0  0  0  0  0  0  0  0  0  0  0  0
    2.0559    7.0485    1.4324 H   0  0  0  0  0  0  0  0  0  0  0  0
    4.6888    7.1777    0.9152 H   0  0  0  0  0  0  0  0  0  0  0  0
    5.4990    7.5700   -0.5994 H   0  0  0  0  0  0  0  0  0  0  0  0
    3.4368    3.6928   -1.4077 H   0  0  0  0  0  0  0  0  0  0  0  0
    4.9754    2.9191   -0.9751 H   0  0  0  0  0  0  0  0  0  0  0  0
    5.9409    1.6235   -2.6788 H   0  0  0  0  0  0  0  0  0  0  0  0
    6.3326    1.1253   -5.0846 H   0  0  0  0  0  0  0  0  0  0  0  0
    5.3982    2.6267   -6.8448 H   0  0  0  0  0  0  0  0  0  0  0  0
    3.6814    5.1384   -3.7804 H   0  0  0  0  0  0  0  0  0  0  0  0
    7.9355    4.8914    0.6432 H   0  0  0  0  0  0  0  0  0  0  0  0
    6.3782    4.0748    0.9873 H   0  0  0  0  0  0  0  0  0  0  0  0
    6.5374    5.8478    1.1420 H   0  0  0  0  0  0  0  0  0  0  0  0
    5.7830    6.4971   -2.9997 H   0  0  0  0  0  0  0  0  0  0  0  0
    8.7343    6.3573   -4.5762 H   0  0  0  0  0  0  0  0  0  0  0  0
    9.4355    7.1832   -3.1556 H   0  0  0  0  0  0  0  0  0  0  0  0
    9.2473    8.0605   -4.7017 H   0  0  0  0  0  0  0  0  0  0  0  0
    6.4379    6.9883   -5.4300 H   0  0  0  0  0  0  0  0  0  0  0  0
    6.9294    8.6968   -5.5348 H   0  0  0  0  0  0  0  0  0  0  0  0
    5.4810    8.2445   -4.5961 H   0  0  0  0  0  0  0  0  0  0  0  0
    8.0431    9.0080   -1.9373 H   0  0  0  0  0  0  0  0  0  0  0  0
    6.4454    9.4780   -2.6029 H   0  0  0  0  0  0  0  0  0  0  0  0
    7.9357    9.8855   -3.4865 H   0  0  0  0  0  0  0  0  0  0  0  0
    1.4810   11.0059   -2.6005 H   0  0  0  0  0  0  0  0  0  0  0  0
   -1.0216   11.0423   -2.9824 H   0  0  0  0  0  0  0  0  0  0  0  0
   -1.2328    6.8580   -2.0087 H   0  0  0  0  0  0  0  0  0  0  0  0
    1.2626    6.8089   -1.6138 H   0  0  0  0  0  0  0  0  0  0  0  0
    3.5274   10.9345    0.3157 H   0  0  0  0  0  0  0  0  0  0  0  0
    2.3613   11.9403    2.2643 H   0  0  0  0  0  0  0  0  0  0  0  0
  1  2  1  0
  1 41  1  0
  1 42  1  0
  1 43  1  0
  2  3  2  0
  2 40  1  0
  3  4  1  0
  3 44  1  0
  4  5  2  0
  4 45  1  0
  5  6  1  0
  5 39  1  0
  6  7  1  0
 29  6  1  1
  7  8  1  0
  7 46  1  0
  7 47  1  0
  8  9  2  0
  8 10  1  0
 10 11  1  0
 10 19  1  0
 11 12  1  0
 11 48  1  0
 11 49  1  0
 12 13  2  0
 12 18  1  0
 13 14  1  0
 13 50  1  0
 14 15  2  0
 14 51  1  0
 15 16  1  0
 15 52  1  0
 16 17  1  0
 16 18  2  0
 18 53  1  0
 19 20  1  6
 19 21  1  0
 19 22  1  0
 21 54  1  0
 21 55  1  0
 21 56  1  0
 22 23  2  0
 22 24  1  0
 25 24  1  1
 24 57  1  0
 25 26  1  0
 25 27  1  0
 25 28  1  0
 26 58  1  0
 26 59  1  0
 26 60  1  0
 27 61  1  0
 27 62  1  0
 27 63  1  0
 28 64  1  0
 28 65  1  0
 28 66  1  0
 29 30  2  0
 29 31  2  0
 29 32  1  0
 32 33  2  0
 32 38  1  0
 33 34  1  0
 33 67  1  0
 34 35  2  0
 34 68  1  0
 35 36  1  0
 35 37  1  0
 37 38  2  0
 37 69  1  0
 38 70  1  0
 39 40  2  0
 39 71  1  0
 40 72  1  0
M  END

