
     RDKit          3D

 20 21  0  0  0  0  0  0  0  0999 V2000
    1.7452   -0.6786    1.3779 O   0  0  0  0  0  0  0  0  0  0  0  0
    2.6284   -0.3821    0.6204 C   0  0  0  0  0  0  0  0  0  0  0  0
    2.9650    1.0145    0.0934 C   0  0  0  0  0  0  0  0  0  0  0  0
    4.0192    0.7535   -0.9925 C   0  0  0  0  0  0  0  0  0  0  0  0
    4.6812   -0.5163   -0.6380 N   0  0  0  0  0  0  0  0  0  0  0  0
    3.6861   -1.3612    0.0171 C   0  0  2  0  0  0  0  0  0  0  0  0
    3.0602   -2.3057   -0.9702 C   0  0  0  0  0  0  0  0  0  0  0  0
    3.3158   -2.5671   -2.2881 C   0  0  0  0  0  0  0  0  0  0  0  0
    2.3880   -3.5868   -2.6883 C   0  0  0  0  0  0  0  0  0  0  0  0
    1.6468   -3.8599   -1.5735 C   0  0  0  0  0  0  0  0  0  0  0  0
    0.2493   -5.0629   -1.2743 Br  0  0  0  0  0  0  0  0  0  0  0  0
    2.0387   -3.0955   -0.5283 O   0  0  0  0  0  0  0  0  0  0  0  0
    3.3826    1.5917    0.9380 H   0  0  0  0  0  0  0  0  0  0  0  0
    2.0536    1.5351   -0.2366 H   0  0  0  0  0  0  0  0  0  0  0  0
    4.7656    1.5552   -1.0852 H   0  0  0  0  0  0  0  0  0  0  0  0
    3.5340    0.6472   -1.9776 H   0  0  0  0  0  0  0  0  0  0  0  0
    5.4604   -0.3451   -0.0075 H   0  0  0  0  0  0  0  0  0  0  0  0
    4.1222   -1.9427    0.8484 H   0  0  0  0  0  0  0  0  0  0  0  0
    4.0876   -2.0906   -2.8865 H   0  0  0  0  0  0  0  0  0  0  0  0
    2.2858   -4.0557   -3.6635 H   0  0  0  0  0  0  0  0  0  0  0  0
  1  2  2  0
  2  3  1  0
  2  6  1  0
  3  4  1  0
  3 13  1  0
  3 14  1  0
  4  5  1  0
  4 15  1  0
  4 16  1  0
  5  6  1  0
  5 17  1  0
  6  7  1  0
  6 18  1  1
  7  8  2  0
  7 12  1  0
  8  9  1  0
  8 19  1  0
  9 10  2  0
  9 20  1  0
 10 11  1  0
 10 12  1  0
M  END

