
     RDKit          3D

 28 29  0  0  0  0  0  0  0  0999 V2000
    1.9078   -1.8764   -0.9024 C   0  0  0  0  0  0  0  0  0  0  0  0
    2.8840   -0.9538   -0.2314 C   0  0  0  0  0  0  0  0  0  0  0  0
    3.8891   -0.2026   -0.9320 C   0  0  0  0  0  0  0  0  0  0  0  0
    4.6844    0.5750   -0.1325 C   0  0  0  0  0  0  0  0  0  0  0  0
    5.8206    1.5069   -0.4610 C   0  0  1  0  0  0  0  0  0  0  0  0
    6.4913    1.1798   -2.3174 Br  0  0  0  0  0  0  0  0  0  0  0  0
    5.4809    2.9812   -0.3176 C   0  0  0  0  0  0  0  0  0  0  0  0
    4.2947    3.4666   -0.8875 C   0  0  0  0  0  0  0  0  0  0  0  0
    3.9425    4.8120   -0.7960 C   0  0  0  0  0  0  0  0  0  0  0  0
    4.7756    5.7059   -0.1190 C   0  0  0  0  0  0  0  0  0  0  0  0
    5.9551    5.2421    0.4626 C   0  0  0  0  0  0  0  0  0  0  0  0
    6.3151    3.8913    0.3687 C   0  0  0  0  0  0  0  0  0  0  0  0
    7.5954    3.4371    1.0366 C   0  0  1  0  0  0  0  0  0  0  0  0
    8.4501    2.8721    0.1625 F   0  0  0  0  0  0  0  0  0  0  0  0
    8.2471    4.4478    1.6291 F   0  0  0  0  0  0  0  0  0  0  0  0
    7.3534    2.5113    1.9929 F   0  0  0  0  0  0  0  0  0  0  0  0
    4.2223    0.4089    1.5499 S   0  0  0  0  0  0  0  0  0  0  0  0
    2.9562   -0.7088    1.1191 C   0  0  0  0  0  0  0  0  0  0  0  0
    1.9602   -1.3841    2.3622 Cl  0  0  0  0  0  0  0  0  0  0  0  0
    2.4326   -2.6805   -1.4446 H   0  0  0  0  0  0  0  0  0  0  0  0
    1.2923   -1.3350   -1.6399 H   0  0  0  0  0  0  0  0  0  0  0  0
    1.2336   -2.3418   -0.1708 H   0  0  0  0  0  0  0  0  0  0  0  0
    4.0250   -0.2569   -2.0128 H   0  0  0  0  0  0  0  0  0  0  0  0
    6.6896    1.2437    0.1466 H   0  0  0  0  0  0  0  0  0  0  0  0
    3.6418    2.7679   -1.4146 H   0  0  0  0  0  0  0  0  0  0  0  0
    3.0137    5.1622   -1.2526 H   0  0  0  0  0  0  0  0  0  0  0  0
    4.5078    6.7619   -0.0390 H   0  0  0  0  0  0  0  0  0  0  0  0
    6.6077    5.9307    0.9997 H   0  0  0  0  0  0  0  0  0  0  0  0
  1  2  1  0
  1 20  1  0
  1 21  1  0
  1 22  1  0
  2  3  1  0
  2 18  2  0
  3  4  2  0
  3 23  1  0
  4  5  1  0
  4 17  1  0
  5  6  1  0
  5  7  1  0
  5 24  1  1
  7  8  2  0
  7 12  1  0
  8  9  1  0
  8 25  1  0
  9 10  2  0
  9 26  1  0
 10 11  1  0
 10 27  1  0
 11 12  2  0
 11 28  1  0
 12 13  1  0
 13 14  1  6
 13 15  1  0
 13 16  1  0
 17 18  1  0
 18 19  1  0
M  END

