
     RDKit          3D

 48 51  0  0  0  0  0  0  0  0999 V2000
    2.0649   -1.3679    0.2570 C   0  0  0  0  0  0  0  0  0  0  0  0
    2.2706   -0.1078   -0.3710 O   0  0  0  0  0  0  0  0  0  0  0  0
    2.9837   -0.0758   -1.5062 C   0  0  0  0  0  0  0  0  0  0  0  0
    3.2122    1.1752   -2.0884 C   0  0  0  0  0  0  0  0  0  0  0  0
    3.9528    1.1829   -3.2861 C   0  0  0  0  0  0  0  0  0  0  0  0
    4.2225    2.3277   -3.9992 N   0  0  0  0  0  0  0  0  0  0  0  0
    5.2518    2.3367   -5.0378 C   0  0  0  0  0  0  0  0  0  0  0  0
    4.8637    3.2987   -6.1539 C   0  0  0  0  0  0  0  0  0  0  0  0
    4.5929    4.5929   -5.6499 O   0  0  0  0  0  0  0  0  0  0  0  0
    3.5394    4.5666   -4.7147 C   0  0  0  0  0  0  0  0  0  0  0  0
    3.8469    3.6517   -3.5266 C   0  0  0  0  0  0  0  0  0  0  0  0
    4.4255    0.0220   -3.7961 N   0  0  0  0  0  0  0  0  0  0  0  0
    4.1609   -1.0991   -3.1423 C   0  0  0  0  0  0  0  0  0  0  0  0
    4.7262   -2.3761   -3.7129 C   0  0  0  0  0  0  0  0  0  0  0  0
    6.0910   -2.7129   -3.1029 C   0  0  0  0  0  0  0  0  0  0  0  0
    6.6349   -1.9904   -2.2883 O   0  0  0  0  0  0  0  0  0  0  0  0
    6.6567   -3.8921   -3.5488 N   0  0  0  0  0  0  0  0  0  0  0  0
    6.0258   -4.8019   -4.5307 C   0  0  0  0  0  0  0  0  0  0  0  0
    7.0374   -5.9563   -4.7451 C   0  0  0  0  0  0  0  0  0  0  0  0
    8.1579   -5.6150   -3.8001 C   0  0  0  0  0  0  0  0  0  0  0  0
    9.3341   -6.3003   -3.5384 C   0  0  0  0  0  0  0  0  0  0  0  0
    9.5730   -7.4549   -4.1858 F   0  0  0  0  0  0  0  0  0  0  0  0
   10.2656   -5.8123   -2.6208 C   0  0  0  0  0  0  0  0  0  0  0  0
    9.9901   -4.6082   -1.9650 C   0  0  0  0  0  0  0  0  0  0  0  0
    8.8136   -3.8848   -2.2017 C   0  0  0  0  0  0  0  0  0  0  0  0
    7.9032   -4.4084   -3.1286 C   0  0  0  0  0  0  0  0  0  0  0  0
    3.4400   -1.2158   -2.0217 N   0  0  0  0  0  0  0  0  0  0  0  0
    1.4846   -1.1581    1.1652 H   0  0  0  0  0  0  0  0  0  0  0  0
    3.0221   -1.8442    0.5191 H   0  0  0  0  0  0  0  0  0  0  0  0
    1.5070   -2.0551   -0.3977 H   0  0  0  0  0  0  0  0  0  0  0  0
    2.8262    2.0653   -1.5980 H   0  0  0  0  0  0  0  0  0  0  0  0
    5.3731    1.3152   -5.4157 H   0  0  0  0  0  0  0  0  0  0  0  0
    6.2197    2.6580   -4.6028 H   0  0  0  0  0  0  0  0  0  0  0  0
    3.9770    2.9057   -6.6936 H   0  0  0  0  0  0  0  0  0  0  0  0
    5.6902    3.3999   -6.8734 H   0  0  0  0  0  0  0  0  0  0  0  0
    2.6019    4.2236   -5.2009 H   0  0  0  0  0  0  0  0  0  0  0  0
    3.3883    5.5991   -4.3642 H   0  0  0  0  0  0  0  0  0  0  0  0
    2.9519    3.5904   -2.8940 H   0  0  0  0  0  0  0  0  0  0  0  0
    4.6615    4.0951   -2.9182 H   0  0  0  0  0  0  0  0  0  0  0  0
    4.8328   -2.2701   -4.8036 H   0  0  0  0  0  0  0  0  0  0  0  0
    4.0242   -3.2006   -3.5135 H   0  0  0  0  0  0  0  0  0  0  0  0
    5.8136   -4.2656   -5.4682 H   0  0  0  0  0  0  0  0  0  0  0  0
    5.0639   -5.1726   -4.1424 H   0  0  0  0  0  0  0  0  0  0  0  0
    7.3866   -6.0041   -5.7895 H   0  0  0  0  0  0  0  0  0  0  0  0
    6.5911   -6.9377   -4.5183 H   0  0  0  0  0  0  0  0  0  0  0  0
   11.1820   -6.3752   -2.4359 H   0  0  0  0  0  0  0  0  0  0  0  0
   10.7140   -4.2183   -1.2451 H   0  0  0  0  0  0  0  0  0  0  0  0
    8.6004   -2.9492   -1.6925 H   0  0  0  0  0  0  0  0  0  0  0  0
  1  2  1  0
  1 28  1  0
  1 29  1  0
  1 30  1  0
  2  3  1  0
  3  4  2  0
  3 27  1  0
  4  5  1  0
  4 31  1  0
  5  6  1  0
  5 12  2  0
  6  7  1  0
  6 11  1  0
  7  8  1  0
  7 32  1  0
  7 33  1  0
  8  9  1  0
  8 34  1  0
  8 35  1  0
  9 10  1  0
 10 11  1  0
 10 36  1  0
 10 37  1  0
 11 38  1  0
 11 39  1  0
 12 13  1  0
 13 14  1  0
 13 27  2  0
 14 15  1  0
 14 40  1  0
 14 41  1  0
 15 16  2  0
 15 17  1  0
 17 18  1  0
 17 26  1  0
 18 19  1  0
 18 42  1  0
 18 43  1  0
 19 20  1  0
 19 44  1  0
 19 45  1  0
 20 21  1  0
 20 26  2  0
 21 22  1  0
 21 23  2  0
 23 24  1  0
 23 46  1  0
 24 25  2  0
 24 47  1  0
 25 26  1  0
 25 48  1  0
M  END

