
     RDKit          3D

 47 48  0  0  0  0  0  0  0  0999 V2000
    0.8728    0.1463    0.3304 C   0  0  0  0  0  0  0  0  0  0  0  0
    2.3952    0.1645    0.1267 C   0  0  1  0  0  0  0  0  0  0  0  0
    2.9692   -1.2313   -0.1855 C   0  0  0  0  0  0  0  0  0  0  0  0
    2.5494   -1.7397   -1.5692 C   0  0  0  0  0  0  0  0  0  0  0  0
    2.9585   -0.7773   -2.7225 C   0  0  2  0  0  0  0  0  0  0  0  0
    2.3472   -1.2282   -3.9957 N   0  0  0  0  0  0  0  0  0  0  0  0
    1.0134   -1.3750   -4.2545 C   0  0  0  0  0  0  0  0  0  0  0  0
    0.1392   -1.1798   -3.4202 O   0  0  0  0  0  0  0  0  0  0  0  0
    0.6848   -1.8279   -5.6940 C   0  0  1  0  0  0  0  0  0  0  0  0
    1.2159   -3.2628   -5.9025 C   0  0  0  0  0  0  0  0  0  0  0  0
   -0.8365   -1.7647   -5.9549 C   0  0  0  0  0  0  0  0  0  0  0  0
   -0.9632   -1.6816   -7.4810 C   0  0  0  0  0  0  0  0  0  0  0  0
    0.2192   -0.7873   -7.9208 C   0  0  0  0  0  0  0  0  0  0  0  0
    1.2632   -0.8519   -6.7700 C   0  0  0  0  0  0  0  0  0  0  0  0
    4.4686   -0.8658   -2.9709 C   0  0  0  0  0  0  0  0  0  0  0  0
    4.9609   -2.0661   -3.4390 N   0  0  0  0  0  0  0  0  0  0  0  0
    5.1998    0.1827   -2.8208 N   0  0  0  0  0  0  0  0  0  0  0  0
    6.5469   -0.1142   -3.1036 O   0  0  0  0  0  0  0  0  0  0  0  0
    2.4960    0.6657   -2.3927 C   0  0  0  0  0  0  0  0  0  0  0  0
    2.8407    1.1457   -0.9744 C   0  0  0  0  0  0  0  0  0  0  0  0
    0.5893   -0.5511    1.1363 H   0  0  0  0  0  0  0  0  0  0  0  0
    0.3286   -0.1575   -0.5776 H   0  0  0  0  0  0  0  0  0  0  0  0
    0.5066    1.1468    0.6139 H   0  0  0  0  0  0  0  0  0  0  0  0
    2.8478    0.5024    1.0763 H   0  0  0  0  0  0  0  0  0  0  0  0
    2.6432   -1.9568    0.5795 H   0  0  0  0  0  0  0  0  0  0  0  0
    4.0711   -1.1876   -0.1217 H   0  0  0  0  0  0  0  0  0  0  0  0
    1.4584   -1.8513   -1.6173 H   0  0  0  0  0  0  0  0  0  0  0  0
    2.9685   -2.7445   -1.7504 H   0  0  0  0  0  0  0  0  0  0  0  0
    2.9895   -1.3786   -4.7641 H   0  0  0  0  0  0  0  0  0  0  0  0
    0.7736   -3.9550   -5.1682 H   0  0  0  0  0  0  0  0  0  0  0  0
    2.3115   -3.3147   -5.7994 H   0  0  0  0  0  0  0  0  0  0  0  0
    0.9655   -3.6345   -6.9084 H   0  0  0  0  0  0  0  0  0  0  0  0
   -1.2402   -0.8574   -5.4795 H   0  0  0  0  0  0  0  0  0  0  0  0
   -1.3749   -2.6160   -5.5108 H   0  0  0  0  0  0  0  0  0  0  0  0
   -1.9382   -1.2833   -7.8025 H   0  0  0  0  0  0  0  0  0  0  0  0
   -0.8742   -2.6851   -7.9292 H   0  0  0  0  0  0  0  0  0  0  0  0
   -0.1160    0.2519   -8.0644 H   0  0  0  0  0  0  0  0  0  0  0  0
    0.6422   -1.1116   -8.8841 H   0  0  0  0  0  0  0  0  0  0  0  0
    1.4072    0.1476   -6.3310 H   0  0  0  0  0  0  0  0  0  0  0  0
    2.2531   -1.1822   -7.1253 H   0  0  0  0  0  0  0  0  0  0  0  0
    4.4521   -2.9059   -3.1923 H   0  0  0  0  0  0  0  0  0  0  0  0
    5.9729   -2.1432   -3.4199 H   0  0  0  0  0  0  0  0  0  0  0  0
    6.9915    0.7217   -2.9197 H   0  0  0  0  0  0  0  0  0  0  0  0
    1.4060    0.6748   -2.5315 H   0  0  0  0  0  0  0  0  0  0  0  0
    2.9298    1.3506   -3.1357 H   0  0  0  0  0  0  0  0  0  0  0  0
    2.3708    2.1311   -0.8110 H   0  0  0  0  0  0  0  0  0  0  0  0
    3.9279    1.2982   -0.9031 H   0  0  0  0  0  0  0  0  0  0  0  0
  1  2  1  0
  1 21  1  0
  1 22  1  0
  1 23  1  0
  2  3  1  0
  2 20  1  0
  2 24  1  1
  3  4  1  0
  3 25  1  0
  3 26  1  0
  4  5  1  0
  4 27  1  0
  4 28  1  0
  5  6  1  0
  5 15  1  6
  5 19  1  0
  6  7  1  0
  6 29  1  0
  7  8  2  0
  9  7  1  1
  9 10  1  0
  9 11  1  0
  9 14  1  0
 10 30  1  0
 10 31  1  0
 10 32  1  0
 11 12  1  0
 11 33  1  0
 11 34  1  0
 12 13  1  0
 12 35  1  0
 12 36  1  0
 13 14  1  0
 13 37  1  0
 13 38  1  0
 14 39  1  0
 14 40  1  0
 15 16  1  0
 15 17  2  0
 16 41  1  0
 16 42  1  0
 17 18  1  0
 18 43  1  0
 19 20  1  0
 19 44  1  0
 19 45  1  0
 20 46  1  0
 20 47  1  0
M  END

