
     RDKit          3D

 39 43  0  0  0  0  0  0  0  0999 V2000
    5.1747    2.4810    1.4387 C   0  0  0  0  0  0  0  0  0  0  0  0
    6.5950    2.0983    0.9671 C   0  0  2  0  0  0  0  0  0  0  0  0
    6.4483    0.6408   -0.1605 S   0  0  0  0  0  0  0  0  0  0  0  0
    7.1956   -0.5075    1.0598 C   0  0  0  0  0  0  0  0  0  0  0  0
    7.2975   -1.6909    0.8781 O   0  0  0  0  0  0  0  0  0  0  0  0
    7.6500    0.2731    2.2252 C   0  0  0  0  0  0  0  0  0  0  0  0
    7.4162    1.5990    2.1605 C   0  0  0  0  0  0  0  0  0  0  0  0
    7.8872    2.6323    3.0607 C   0  0  0  0  0  0  0  0  0  0  0  0
    8.3644    2.5047    4.3301 N   0  0  0  0  0  0  0  0  0  0  0  0
    8.6757    3.7299    4.7292 C   0  0  0  0  0  0  0  0  0  0  0  0
    9.2329    4.0722    6.0418 C   0  0  0  0  0  0  0  0  0  0  0  0
    9.5098    3.0324    6.9499 C   0  0  0  0  0  0  0  0  0  0  0  0
   10.0414    3.3172    8.2062 C   0  0  0  0  0  0  0  0  0  0  0  0
   10.3053    4.6403    8.5787 C   0  0  0  0  0  0  0  0  0  0  0  0
   10.0317    5.6799    7.6848 C   0  0  0  0  0  0  0  0  0  0  0  0
    9.4988    5.3995    6.4258 C   0  0  0  0  0  0  0  0  0  0  0  0
    8.4093    4.6538    3.7418 N   0  0  0  0  0  0  0  0  0  0  0  0
    8.5956    5.6477    3.7838 H   0  0  0  0  0  0  0  0  0  0  0  0
    7.9153    3.9710    2.6562 C   0  0  0  0  0  0  0  0  0  0  0  0
    7.4695    4.4298    1.3699 C   0  0  0  0  0  0  0  0  0  0  0  0
    7.1053    5.6706    0.9742 C   0  0  0  0  0  0  0  0  0  0  0  0
    6.5194    5.7622   -0.3748 C   0  0  0  0  0  0  0  0  0  0  0  0
    6.1182    6.7484   -0.9342 O   0  0  0  0  0  0  0  0  0  0  0  0
    6.4440    4.0839   -1.0971 S   0  0  0  0  0  0  0  0  0  0  0  0
    7.3542    3.3169    0.3188 C   0  0  2  0  0  0  0  0  0  0  0  0
    8.7641    2.9282   -0.1775 C   0  0  0  0  0  0  0  0  0  0  0  0
    4.6975    1.6165    1.9201 H   0  0  0  0  0  0  0  0  0  0  0  0
    4.5604    2.7902    0.5824 H   0  0  0  0  0  0  0  0  0  0  0  0
    5.2023    3.3104    2.1618 H   0  0  0  0  0  0  0  0  0  0  0  0
    8.1834   -0.2252    3.0358 H   0  0  0  0  0  0  0  0  0  0  0  0
    9.2983    2.0063    6.6454 H   0  0  0  0  0  0  0  0  0  0  0  0
   10.2522    2.5010    8.9015 H   0  0  0  0  0  0  0  0  0  0  0  0
   10.7222    4.8611    9.5643 H   0  0  0  0  0  0  0  0  0  0  0  0
   10.2323    6.7156    7.9690 H   0  0  0  0  0  0  0  0  0  0  0  0
    9.2886    6.2330    5.7499 H   0  0  0  0  0  0  0  0  0  0  0  0
    7.1501    6.5761    1.5829 H   0  0  0  0  0  0  0  0  0  0  0  0
    9.2745    3.8118   -0.5850 H   0  0  0  0  0  0  0  0  0  0  0  0
    8.6890    2.1700   -0.9685 H   0  0  0  0  0  0  0  0  0  0  0  0
    9.3750    2.5147    0.6392 H   0  0  0  0  0  0  0  0  0  0  0  0
  2  1  1  1
  1 27  1  0
  1 28  1  0
  1 29  1  0
  2  3  1  0
  2  7  1  0
  2 25  1  0
  3  4  2  0
  4  5  1  0
  4  6  1  0
  6  7  2  0
  6 30  1  0
  7  8  1  0
  8  9  1  0
  8 19  2  0
  9 10  2  0
 10 11  1  0
 10 17  1  0
 11 12  2  0
 11 16  1  0
 12 13  1  0
 12 31  1  0
 13 14  2  0
 13 32  1  0
 14 15  1  0
 14 33  1  0
 15 16  2  0
 15 34  1  0
 16 35  1  0
 17 18  1  0
 17 19  1  0
 19 20  1  0
 20 21  2  0
 20 25  1  0
 21 22  1  0
 21 36  1  0
 22 23  2  0
 22 24  1  0
 24 25  1  0
 25 26  1  6
 26 37  1  0
 26 38  1  0
 26 39  1  0
M  CHG  2   3   1   5  -1
M  END

