
     RDKit          3D

 35 36  0  0  0  0  0  0  0  0999 V2000
    1.0932   -1.6492    0.4153 C   0  0  0  0  0  0  0  0  0  0  0  0
    2.4669   -1.2036    0.1826 N   0  0  0  0  0  0  0  0  0  0  0  0
    3.1441   -1.6826   -1.0183 C   0  0  0  0  0  0  0  0  0  0  0  0
    2.6646   -1.0608   -2.3267 C   0  0  0  0  0  0  0  0  0  0  0  0
    1.3480   -1.5285   -2.5944 O   0  0  0  0  0  0  0  0  0  0  0  0
    0.6545   -1.1844   -3.7117 C   0  0  0  0  0  0  0  0  0  0  0  0
   -0.6036   -1.7920   -3.8665 C   0  0  0  0  0  0  0  0  0  0  0  0
   -1.4128   -1.5185   -4.9673 C   0  0  0  0  0  0  0  0  0  0  0  0
   -0.9822   -0.6238   -5.9528 C   0  0  0  0  0  0  0  0  0  0  0  0
    0.2637   -0.0108   -5.8180 C   0  0  0  0  0  0  0  0  0  0  0  0
    1.0664   -0.2871   -4.7137 C   0  0  0  0  0  0  0  0  0  0  0  0
    2.2626    0.3355   -4.6292 F   0  0  0  0  0  0  0  0  0  0  0  0
    2.8836   -0.1358    0.9408 C   0  0  0  0  0  0  0  0  0  0  0  0
    2.1271    0.4697    1.6856 O   0  0  0  0  0  0  0  0  0  0  0  0
    4.3309    0.2690    0.8958 C   0  0  0  0  0  0  0  0  0  0  0  0
    5.4843   -0.4954    0.9625 C   0  0  0  0  0  0  0  0  0  0  0  0
    6.6625    0.2860    1.0615 C   0  0  0  0  0  0  0  0  0  0  0  0
    6.3643    1.6291    1.0685 C   0  0  0  0  0  0  0  0  0  0  0  0
    7.3179    2.7120    1.1418 N   0  0  0  0  0  0  0  0  0  0  0  0
    8.5003    2.4141    1.2052 O   0  0  0  0  0  0  0  0  0  0  0  0
    6.8638    3.8483    1.1341 O   0  0  0  0  0  0  0  0  0  0  0  0
    4.6705    1.9690    0.9886 S   0  0  0  0  0  0  0  0  0  0  0  0
    0.9824   -2.6738    0.0357 H   0  0  0  0  0  0  0  0  0  0  0  0
    0.3557   -1.0076   -0.0925 H   0  0  0  0  0  0  0  0  0  0  0  0
    0.8817   -1.6223    1.4921 H   0  0  0  0  0  0  0  0  0  0  0  0
    3.0264   -2.7775   -1.0793 H   0  0  0  0  0  0  0  0  0  0  0  0
    4.2171   -1.4746   -0.9421 H   0  0  0  0  0  0  0  0  0  0  0  0
    3.3510   -1.3601   -3.1376 H   0  0  0  0  0  0  0  0  0  0  0  0
    2.6843    0.0391   -2.2560 H   0  0  0  0  0  0  0  0  0  0  0  0
   -0.9215   -2.4892   -3.0885 H   0  0  0  0  0  0  0  0  0  0  0  0
   -2.3852   -2.0086   -5.0545 H   0  0  0  0  0  0  0  0  0  0  0  0
   -1.6087   -0.4029   -6.8193 H   0  0  0  0  0  0  0  0  0  0  0  0
    0.6432    0.6958   -6.5593 H   0  0  0  0  0  0  0  0  0  0  0  0
    5.4807   -1.5860    0.9709 H   0  0  0  0  0  0  0  0  0  0  0  0
    7.6818   -0.0919    1.1294 H   0  0  0  0  0  0  0  0  0  0  0  0
  1  2  1  0
  1 23  1  0
  1 24  1  0
  1 25  1  0
  2  3  1  0
  2 13  1  0
  3  4  1  0
  3 26  1  0
  3 27  1  0
  4  5  1  0
  4 28  1  0
  4 29  1  0
  5  6  1  0
  6  7  2  0
  6 11  1  0
  7  8  1  0
  7 30  1  0
  8  9  2  0
  8 31  1  0
  9 10  1  0
  9 32  1  0
 10 11  2  0
 10 33  1  0
 11 12  1  0
 13 14  2  0
 13 15  1  0
 15 16  2  0
 15 22  1  0
 16 17  1  0
 16 34  1  0
 17 18  2  0
 17 35  1  0
 18 19  1  0
 18 22  1  0
 19 20  2  0
 19 21  1  0
M  CHG  2  19   1  21  -1
M  END

