
     RDKit          3D

 32 33  0  0  0  0  0  0  0  0999 V2000
    5.0904   -2.0822    0.7813 C   0  0  0  0  0  0  0  0  0  0  0  0
    4.3397   -0.8534    0.3346 C   0  0  0  0  0  0  0  0  0  0  0  0
    4.9863    0.3836    0.2569 C   0  0  0  0  0  0  0  0  0  0  0  0
    4.2951    1.5261   -0.1393 C   0  0  0  0  0  0  0  0  0  0  0  0
    4.9478    2.7023   -0.2041 F   0  0  0  0  0  0  0  0  0  0  0  0
    2.9483    1.4637   -0.4682 C   0  0  0  0  0  0  0  0  0  0  0  0
    2.2876    0.2338   -0.4018 C   0  0  0  0  0  0  0  0  0  0  0  0
    2.9577   -0.9380    0.0015 C   0  0  0  0  0  0  0  0  0  0  0  0
    2.3064   -2.1639    0.1308 N   0  0  0  0  0  0  0  0  0  0  0  0
    0.9911   -2.4610   -0.4271 C   0  0  1  0  0  0  0  0  0  0  0  0
    1.0020   -2.5795   -1.9584 C   0  0  0  0  0  0  0  0  0  0  0  0
    0.4192   -3.6788    0.2986 C   0  0  0  0  0  0  0  0  0  0  0  0
    0.4343   -3.7237    1.7023 C   0  0  0  0  0  0  0  0  0  0  0  0
   -0.1073   -4.8247    2.3612 C   0  0  0  0  0  0  0  0  0  0  0  0
   -0.6496   -5.8612    1.5920 C   0  0  0  0  0  0  0  0  0  0  0  0
   -0.6715   -5.8405    0.2604 N   0  0  0  0  0  0  0  0  0  0  0  0
   -0.1515   -4.7771   -0.3623 C   0  0  0  0  0  0  0  0  0  0  0  0
    6.1365   -1.8450    1.0198 H   0  0  0  0  0  0  0  0  0  0  0  0
    5.1032   -2.8657    0.0007 H   0  0  0  0  0  0  0  0  0  0  0  0
    4.6346   -2.5331    1.6807 H   0  0  0  0  0  0  0  0  0  0  0  0
    6.0455    0.4703    0.5098 H   0  0  0  0  0  0  0  0  0  0  0  0
    2.4238    2.3693   -0.7794 H   0  0  0  0  0  0  0  0  0  0  0  0
    1.2308    0.1991   -0.6678 H   0  0  0  0  0  0  0  0  0  0  0  0
    2.9172   -2.9709    0.1785 H   0  0  0  0  0  0  0  0  0  0  0  0
    0.3345   -1.6135   -0.1608 H   0  0  0  0  0  0  0  0  0  0  0  0
    1.6042   -3.4420   -2.2860 H   0  0  0  0  0  0  0  0  0  0  0  0
    1.4423   -1.6740   -2.4007 H   0  0  0  0  0  0  0  0  0  0  0  0
   -0.0140   -2.6932   -2.3667 H   0  0  0  0  0  0  0  0  0  0  0  0
    0.8774   -2.8970    2.2632 H   0  0  0  0  0  0  0  0  0  0  0  0
   -0.1117   -4.8837    3.4522 H   0  0  0  0  0  0  0  0  0  0  0  0
   -1.0819   -6.7442    2.0782 H   0  0  0  0  0  0  0  0  0  0  0  0
   -0.1944   -4.8050   -1.4554 H   0  0  0  0  0  0  0  0  0  0  0  0
  1  2  1  0
  1 18  1  0
  1 19  1  0
  1 20  1  0
  2  3  2  0
  2  8  1  0
  3  4  1  0
  3 21  1  0
  4  5  1  0
  4  6  2  0
  6  7  1  0
  6 22  1  0
  7  8  2  0
  7 23  1  0
  8  9  1  0
  9 10  1  0
  9 24  1  0
 10 11  1  0
 10 12  1  0
 10 25  1  6
 11 26  1  0
 11 27  1  0
 11 28  1  0
 12 13  2  0
 12 17  1  0
 13 14  1  0
 13 29  1  0
 14 15  2  0
 14 30  1  0
 15 16  1  0
 15 31  1  0
 16 17  2  0
 17 32  1  0
M  END

