
     RDKit          3D

 50 50  0  0  0  0  0  0  0  0999 V2000
    6.8375   -2.3978   -2.3701 C   0  0  0  0  0  0  0  0  0  0  0  0
    6.4821   -1.9527   -0.9509 C   0  0  0  0  0  0  0  0  0  0  0  0
    6.8299   -0.4891   -0.6622 C   0  0  0  0  0  0  0  0  0  0  0  0
    6.4632   -0.0337    0.7543 C   0  0  0  0  0  0  0  0  0  0  0  0
    6.8415    1.4273    1.0214 C   0  0  0  0  0  0  0  0  0  0  0  0
    6.4049    2.0256    2.3805 C   0  0  2  0  0  0  0  0  0  0  0  0
    4.8673    2.1588    2.3916 C   0  0  0  0  0  0  0  0  0  0  0  0
    4.1753    2.0322    1.4168 O   0  0  0  0  0  0  0  0  0  0  0  0
    4.2941    2.4960    3.5711 O   0  0  0  0  0  0  0  0  0  0  0  0
    7.0443    3.4303    2.5698 C   0  0  0  0  0  0  0  0  0  0  0  0
    8.4841    3.1723    3.0609 C   0  0  1  0  0  0  0  0  0  0  0  0
    9.1351    3.0423    2.1795 H   0  0  0  0  0  0  0  0  0  0  0  0
    9.0528    4.3511    3.8589 C   0  0  0  0  0  0  0  0  0  0  0  0
    9.1799    5.5293    3.0918 O   0  0  0  0  0  0  0  0  0  0  0  0
    8.4110    1.8424    3.8698 C   0  0  2  0  0  0  0  0  0  0  0  0
    8.5073    2.0577    4.9446 H   0  0  0  0  0  0  0  0  0  0  0  0
    9.5518    0.8463    3.5332 C   0  0  1  0  0  0  0  0  0  0  0  0
   10.9555    1.4147    3.7829 C   0  0  0  0  0  0  0  0  0  0  0  0
    9.3739   -0.4362    4.2308 N   0  0  0  0  0  0  0  0  0  0  0  0
    9.3771   -0.5913    5.5898 C   0  0  0  0  0  0  0  0  0  0  0  0
    9.2710   -2.0277    6.0837 C   0  0  0  0  0  0  0  0  0  0  0  0
    9.4596    0.3465    6.3682 O   0  0  0  0  0  0  0  0  0  0  0  0
    6.9941    1.2616    3.5986 C   0  0  0  0  0  0  0  0  0  0  0  0
    6.5739   -3.4537   -2.5421 H   0  0  0  0  0  0  0  0  0  0  0  0
    7.9174   -2.2882   -2.5673 H   0  0  0  0  0  0  0  0  0  0  0  0
    6.3036   -1.7951   -3.1238 H   0  0  0  0  0  0  0  0  0  0  0  0
    7.0006   -2.6013   -0.2204 H   0  0  0  0  0  0  0  0  0  0  0  0
    5.4025   -2.1083   -0.7740 H   0  0  0  0  0  0  0  0  0  0  0  0
    6.3135    0.1583   -1.3944 H   0  0  0  0  0  0  0  0  0  0  0  0
    7.9119   -0.3309   -0.8340 H   0  0  0  0  0  0  0  0  0  0  0  0
    6.9637   -0.6996    1.4809 H   0  0  0  0  0  0  0  0  0  0  0  0
    5.3795   -0.1641    0.9051 H   0  0  0  0  0  0  0  0  0  0  0  0
    6.3933    2.0533    0.2341 H   0  0  0  0  0  0  0  0  0  0  0  0
    7.9338    1.5397    0.9188 H   0  0  0  0  0  0  0  0  0  0  0  0
    4.9566    2.5386    4.2747 H   0  0  0  0  0  0  0  0  0  0  0  0
    6.4864    3.9853    3.3472 H   0  0  0  0  0  0  0  0  0  0  0  0
    6.9975    4.0308    1.6481 H   0  0  0  0  0  0  0  0  0  0  0  0
    8.4267    4.5134    4.7622 H   0  0  0  0  0  0  0  0  0  0  0  0
   10.0641    4.1098    4.2197 H   0  0  0  0  0  0  0  0  0  0  0  0
    8.2962    5.8552    2.8790 H   0  0  0  0  0  0  0  0  0  0  0  0
    9.4695    0.5966    2.4618 H   0  0  0  0  0  0  0  0  0  0  0  0
   11.0795    1.6844    4.8413 H   0  0  0  0  0  0  0  0  0  0  0  0
   11.1443    2.3036    3.1635 H   0  0  0  0  0  0  0  0  0  0  0  0
   11.7182    0.6628    3.5267 H   0  0  0  0  0  0  0  0  0  0  0  0
    9.3451   -1.2726    3.6624 H   0  0  0  0  0  0  0  0  0  0  0  0
    9.0820   -2.7655    5.2901 H   0  0  0  0  0  0  0  0  0  0  0  0
    8.4641   -2.0814    6.8290 H   0  0  0  0  0  0  0  0  0  0  0  0
   10.2063   -2.2909    6.6019 H   0  0  0  0  0  0  0  0  0  0  0  0
    6.3734    1.4068    4.4987 H   0  0  0  0  0  0  0  0  0  0  0  0
    7.0095    0.1746    3.4416 H   0  0  0  0  0  0  0  0  0  0  0  0
  1  2  1  0
  1 24  1  0
  1 25  1  0
  1 26  1  0
  2  3  1  0
  2 27  1  0
  2 28  1  0
  3  4  1  0
  3 29  1  0
  3 30  1  0
  4  5  1  0
  4 31  1  0
  4 32  1  0
  5  6  1  0
  5 33  1  0
  5 34  1  0
  6  7  1  1
  6 10  1  0
  6 23  1  0
  7  8  2  0
  7  9  1  0
  9 35  1  0
 10 11  1  0
 10 36  1  0
 10 37  1  0
 11 12  1  6
 11 13  1  0
 11 15  1  0
 13 14  1  0
 13 38  1  0
 13 39  1  0
 14 40  1  0
 15 16  1  1
 15 17  1  0
 15 23  1  0
 17 18  1  0
 17 19  1  0
 17 41  1  6
 18 42  1  0
 18 43  1  0
 18 44  1  0
 19 20  1  0
 19 45  1  0
 20 21  1  0
 20 22  2  0
 21 46  1  0
 21 47  1  0
 21 48  1  0
 23 49  1  0
 23 50  1  0
M  END

