
     RDKit          3D

 51 54  0  0  0  0  0  0  0  0999 V2000
    1.3606    0.4999    0.5469 C   0  0  0  0  0  0  0  0  0  0  0  0
    2.7265    0.2400   -0.1367 C   0  0  1  0  0  0  0  0  0  0  0  0
    2.5237    0.2280   -1.6622 C   0  0  0  0  0  0  0  0  0  0  0  0
    3.7093    1.3793    0.2157 C   0  0  0  0  0  0  0  0  0  0  0  0
    4.2102    1.3271    1.6280 C   0  0  0  0  0  0  0  0  0  0  0  0
    4.3605    0.1628    2.2937 C   0  0  0  0  0  0  0  0  0  0  0  0
    4.9117    0.1681    3.6792 C   0  0  0  0  0  0  0  0  0  0  0  0
    4.1761    0.6612    4.7682 C   0  0  0  0  0  0  0  0  0  0  0  0
    4.6663    0.7165    6.0074 N   0  0  0  0  0  0  0  0  0  0  0  0
    5.9111    0.2696    6.1752 C   0  0  0  0  0  0  0  0  0  0  0  0
    6.7123   -0.2160    5.2246 N   0  0  0  0  0  0  0  0  0  0  0  0
    6.2125   -0.2629    3.9901 C   0  0  0  0  0  0  0  0  0  0  0  0
    4.0060   -1.1138    1.6240 C   0  0  0  0  0  0  0  0  0  0  0  0
    4.3741   -2.3499    2.1714 C   0  0  0  0  0  0  0  0  0  0  0  0
    4.1026   -3.5635    1.5203 C   0  0  0  0  0  0  0  0  0  0  0  0
    4.4760   -4.8337    2.2309 C   0  0  0  0  0  0  0  0  0  0  0  0
    4.4193   -4.8434    3.4600 O   0  0  0  0  0  0  0  0  0  0  0  0
    4.8938   -6.0407    1.4556 C   0  0  0  0  0  0  0  0  0  0  0  0
    5.4204   -5.9075    0.1557 C   0  0  0  0  0  0  0  0  0  0  0  0
    5.8526   -7.0077   -0.5799 C   0  0  0  0  0  0  0  0  0  0  0  0
    5.7126   -8.2827   -0.0340 C   0  0  0  0  0  0  0  0  0  0  0  0
    5.1838   -8.4698    1.2482 C   0  0  0  0  0  0  0  0  0  0  0  0
    4.9794   -9.9021    1.6786 C   0  0  0  0  0  0  0  0  0  0  0  0
    5.5414  -10.8251    1.1472 O   0  0  0  0  0  0  0  0  0  0  0  0
    4.0842  -10.1201    2.6636 O   0  0  0  0  0  0  0  0  0  0  0  0
    4.8391   -7.3437    2.0436 C   0  0  0  0  0  0  0  0  0  0  0  0
    4.4059   -7.5213    3.3543 N   0  0  0  0  0  0  0  0  0  0  0  0
    3.3976   -3.5302    0.3098 C   0  0  0  0  0  0  0  0  0  0  0  0
    2.9824   -2.3068   -0.2230 C   0  0  0  0  0  0  0  0  0  0  0  0
    3.2744   -1.0897    0.4020 C   0  0  0  0  0  0  0  0  0  0  0  0
    0.9238    1.4447    0.1828 H   0  0  0  0  0  0  0  0  0  0  0  0
    1.4605    0.5690    1.6404 H   0  0  0  0  0  0  0  0  0  0  0  0
    0.6527   -0.3128    0.3230 H   0  0  0  0  0  0  0  0  0  0  0  0
    2.2309    1.2326   -2.0068 H   0  0  0  0  0  0  0  0  0  0  0  0
    1.7249   -0.4623   -1.9720 H   0  0  0  0  0  0  0  0  0  0  0  0
    3.4470   -0.0556   -2.1916 H   0  0  0  0  0  0  0  0  0  0  0  0
    3.2257    2.3500    0.0162 H   0  0  0  0  0  0  0  0  0  0  0  0
    4.5820    1.3373   -0.4672 H   0  0  0  0  0  0  0  0  0  0  0  0
    4.5149    2.2626    2.1071 H   0  0  0  0  0  0  0  0  0  0  0  0
    3.1518    1.0244    4.6192 H   0  0  0  0  0  0  0  0  0  0  0  0
    6.3185    0.3079    7.1930 H   0  0  0  0  0  0  0  0  0  0  0  0
    6.8719   -0.6477    3.2023 H   0  0  0  0  0  0  0  0  0  0  0  0
    4.8846   -2.3962    3.1334 H   0  0  0  0  0  0  0  0  0  0  0  0
    5.5207   -4.9088   -0.2702 H   0  0  0  0  0  0  0  0  0  0  0  0
    6.2809   -6.8732   -1.5750 H   0  0  0  0  0  0  0  0  0  0  0  0
    6.0019   -9.1761   -0.5911 H   0  0  0  0  0  0  0  0  0  0  0  0
    3.6762   -9.2787    2.9491 H   0  0  0  0  0  0  0  0  0  0  0  0
    4.9406   -8.2023    3.8882 H   0  0  0  0  0  0  0  0  0  0  0  0
    4.3115   -6.6314    3.8512 H   0  0  0  0  0  0  0  0  0  0  0  0
    3.1323   -4.4556   -0.2045 H   0  0  0  0  0  0  0  0  0  0  0  0
    2.4054   -2.3149   -1.1485 H   0  0  0  0  0  0  0  0  0  0  0  0
  2  1  1  1
  1 31  1  0
  1 32  1  0
  1 33  1  0
  2  3  1  0
  2  4  1  0
  2 30  1  0
  3 34  1  0
  3 35  1  0
  3 36  1  0
  4  5  1  0
  4 37  1  0
  4 38  1  0
  5  6  2  0
  5 39  1  0
  6  7  1  0
  6 13  1  0
  7  8  2  0
  7 12  1  0
  8  9  1  0
  8 40  1  0
  9 10  2  0
 10 11  1  0
 10 41  1  0
 11 12  2  0
 12 42  1  0
 13 14  1  0
 13 30  2  0
 14 15  2  0
 14 43  1  0
 15 16  1  0
 15 28  1  0
 16 17  2  0
 16 18  1  0
 18 19  2  0
 18 26  1  0
 19 20  1  0
 19 44  1  0
 20 21  2  0
 20 45  1  0
 21 22  1  0
 21 46  1  0
 22 23  1  0
 22 26  2  0
 23 24  2  0
 23 25  1  0
 25 47  1  0
 26 27  1  0
 27 48  1  0
 27 49  1  0
 28 29  2  0
 28 50  1  0
 29 30  1  0
 29 51  1  0
M  END

