
     RDKit          3D

 46 48  0  0  0  0  0  0  0  0999 V2000
    2.4245    1.3234    0.2807 O   0  0  0  0  0  0  0  0  0  0  0  0
    2.4545    0.1577   -0.0803 C   0  0  0  0  0  0  0  0  0  0  0  0
    2.0673   -0.2627   -1.3257 N   0  0  0  0  0  0  0  0  0  0  0  0
    1.5700    0.5115   -2.3919 C   0  0  0  0  0  0  0  0  0  0  0  0
    1.3919    1.9066   -2.3323 C   0  0  0  0  0  0  0  0  0  0  0  0
    0.8936    2.5900   -3.4428 C   0  0  0  0  0  0  0  0  0  0  0  0
    0.5703    1.8930   -4.6004 C   0  0  0  0  0  0  0  0  0  0  0  0
    0.0968    2.5583   -5.6677 F   0  0  0  0  0  0  0  0  0  0  0  0
    0.7390    0.5087   -4.6868 C   0  0  0  0  0  0  0  0  0  0  0  0
    0.3369   -0.2228   -5.9428 C   0  0  1  0  0  0  0  0  0  0  0  0
    0.9037   -1.4597   -5.9761 F   0  0  0  0  0  0  0  0  0  0  0  0
   -1.0142   -0.3951   -5.9797 F   0  0  0  0  0  0  0  0  0  0  0  0
    1.2390   -0.1707   -3.5756 C   0  0  0  0  0  0  0  0  0  0  0  0
    2.9565   -0.9094    0.8762 C   0  0  0  0  0  0  0  0  0  0  0  0
    3.4590   -0.4425    2.1056 C   0  0  0  0  0  0  0  0  0  0  0  0
    3.9449   -1.3115    3.0788 C   0  0  0  0  0  0  0  0  0  0  0  0
    3.9392   -2.6896    2.8506 C   0  0  0  0  0  0  0  0  0  0  0  0
    3.4431   -3.1809    1.6428 C   0  0  0  0  0  0  0  0  0  0  0  0
    3.5230   -4.9488    1.3173 S   0  0  1  0  0  0  0  0  0  0  0  0
    4.1730   -5.1349    0.0220 O   0  0  0  0  0  0  0  0  0  0  0  0
    4.0354   -5.5745    2.5368 O   0  0  0  0  0  0  0  0  0  0  0  0
    1.9200   -5.4033    1.0689 N   0  0  0  0  0  0  0  0  0  0  0  0
    1.0852   -6.0200    2.0894 C   0  0  1  0  0  0  0  0  0  0  0  0
    0.7112   -4.8176    3.4551 S   0  0  0  0  0  0  0  0  0  0  0  0
   -0.2036   -6.5716    1.4510 C   0  0  0  0  0  0  0  0  0  0  0  0
   -0.6738   -7.5934    2.4863 C   0  0  0  0  0  0  0  0  0  0  0  0
    0.5054   -8.0847    3.1137 O   0  0  0  0  0  0  0  0  0  0  0  0
    1.6327   -7.3133    2.7522 C   0  0  0  0  0  0  0  0  0  0  0  0
    2.9641   -2.2955    0.6732 C   0  0  0  0  0  0  0  0  0  0  0  0
    2.4829   -2.8194   -0.4731 F   0  0  0  0  0  0  0  0  0  0  0  0
    2.1390   -1.2554   -1.5135 H   0  0  0  0  0  0  0  0  0  0  0  0
    1.6487    2.4398   -1.4207 H   0  0  0  0  0  0  0  0  0  0  0  0
    0.7521    3.6722   -3.4175 H   0  0  0  0  0  0  0  0  0  0  0  0
    0.6302    0.3192   -6.8573 H   0  0  0  0  0  0  0  0  0  0  0  0
    1.3803   -1.2514   -3.6483 H   0  0  0  0  0  0  0  0  0  0  0  0
    3.4458    0.6376    2.2604 H   0  0  0  0  0  0  0  0  0  0  0  0
    4.3290   -0.9175    4.0219 H   0  0  0  0  0  0  0  0  0  0  0  0
    4.3068   -3.4006    3.5919 H   0  0  0  0  0  0  0  0  0  0  0  0
    1.8341   -5.7811    0.1263 H   0  0  0  0  0  0  0  0  0  0  0  0
    0.0456   -3.9315    2.6771 H   0  0  0  0  0  0  0  0  0  0  0  0
    0.0641   -7.0779    0.5063 H   0  0  0  0  0  0  0  0  0  0  0  0
   -0.9457   -5.7931    1.2240 H   0  0  0  0  0  0  0  0  0  0  0  0
   -1.2266   -8.4302    2.0278 H   0  0  0  0  0  0  0  0  0  0  0  0
   -1.3268   -7.1190    3.2406 H   0  0  0  0  0  0  0  0  0  0  0  0
    2.2624   -7.8423    2.0100 H   0  0  0  0  0  0  0  0  0  0  0  0
    2.2568   -7.1164    3.6358 H   0  0  0  0  0  0  0  0  0  0  0  0
  1  2  2  0
  2  3  1  0
  2 14  1  0
  3  4  1  0
  3 31  1  0
  4  5  2  0
  4 13  1  0
  5  6  1  0
  5 32  1  0
  6  7  2  0
  6 33  1  0
  7  8  1  0
  7  9  1  0
  9 10  1  0
  9 13  2  0
 10 11  1  0
 10 12  1  0
 10 34  1  6
 13 35  1  0
 14 15  2  0
 14 29  1  0
 15 16  1  0
 15 36  1  0
 16 17  2  0
 16 37  1  0
 17 18  1  0
 17 38  1  0
 18 19  1  0
 18 29  2  0
 19 20  2  0
 19 21  2  0
 19 22  1  6
 22 23  1  0
 22 39  1  0
 23 24  1  1
 23 25  1  0
 23 28  1  0
 24 40  1  0
 25 26  1  0
 25 41  1  0
 25 42  1  0
 26 27  1  0
 26 43  1  0
 26 44  1  0
 27 28  1  0
 28 45  1  0
 28 46  1  0
 29 30  1  0
M  END

