
     RDKit          3D

 62 66  0  0  0  0  0  0  0  0999 V2000
    1.2154    0.0756   -0.6187 O   0  0  0  0  0  0  0  0  0  0  0  0
    2.4695    0.0157   -0.3883 N   0  0  0  0  0  0  0  0  0  0  0  0
    3.2268    1.1499   -0.1254 C   0  0  0  0  0  0  0  0  0  0  0  0
    2.5067    2.4101   -0.0938 C   0  0  0  0  0  0  0  0  0  0  0  0
    3.1043    3.6049    0.1296 C   0  0  0  0  0  0  0  0  0  0  0  0
    2.4549    4.9100    0.1836 C   0  0  0  0  0  0  0  0  0  0  0  0
    3.2342    6.0606    0.4211 C   0  0  0  0  0  0  0  0  0  0  0  0
    2.6586    7.3261    0.4797 C   0  0  0  0  0  0  0  0  0  0  0  0
    1.2720    7.5125    0.3045 C   0  0  0  0  0  0  0  0  0  0  0  0
    0.7200    8.8651    0.3759 C   0  0  0  0  0  0  0  0  0  0  0  0
   -0.5759    9.2269    0.2345 C   0  0  0  0  0  0  0  0  0  0  0  0
   -1.1310   10.5821    0.3054 C   0  0  0  0  0  0  0  0  0  0  0  0
   -0.3488   11.7344    0.5388 C   0  0  0  0  0  0  0  0  0  0  0  0
   -0.9323   12.9982    0.5957 C   0  0  0  0  0  0  0  0  0  0  0  0
   -2.3137   13.1519    0.4216 C   0  0  0  0  0  0  0  0  0  0  0  0
   -3.1050   12.0238    0.1894 C   0  0  0  0  0  0  0  0  0  0  0  0
   -2.5199   10.7579    0.1325 C   0  0  0  0  0  0  0  0  0  0  0  0
    0.4903    6.3566    0.0664 C   0  0  0  0  0  0  0  0  0  0  0  0
    1.0628    5.0957    0.0079 C   0  0  0  0  0  0  0  0  0  0  0  0
    4.5379    1.0726    0.0719 N   0  0  0  0  0  0  0  0  0  0  0  0
    5.1851   -0.0903    0.0671 C   0  0  0  0  0  0  0  0  0  0  0  0
    6.5570   -0.0756    0.3249 N   0  0  0  0  0  0  0  0  0  0  0  0
    7.5064   -0.7477   -0.5664 C   0  0  0  0  0  0  0  0  0  0  0  0
    8.1381    0.2492   -1.5450 C   0  0  0  0  0  0  0  0  0  0  0  0
    8.7335    1.3343   -0.8685 O   0  0  0  0  0  0  0  0  0  0  0  0
    7.7939    2.0353   -0.0714 C   0  0  0  0  0  0  0  0  0  0  0  0
    7.1520    1.1033    0.9563 C   0  0  0  0  0  0  0  0  0  0  0  0
    4.4648   -1.3126   -0.1005 C   0  0  0  0  0  0  0  0  0  0  0  0
    3.1011   -1.2152   -0.3559 C   0  0  0  0  0  0  0  0  0  0  0  0
    2.1810   -2.3841   -0.5420 C   0  0  0  0  0  0  0  0  0  0  0  0
    2.9103   -3.7299   -0.5643 C   0  0  0  0  0  0  0  0  0  0  0  0
    4.0502   -3.7515    0.4559 C   0  0  0  0  0  0  0  0  0  0  0  0
    5.0875   -2.6784    0.1091 C   0  0  0  0  0  0  0  0  0  0  0  0
    1.4353    2.3123   -0.2688 H   0  0  0  0  0  0  0  0  0  0  0  0
    4.1879    3.6033    0.2856 H   0  0  0  0  0  0  0  0  0  0  0  0
    4.3133    5.9519    0.5610 H   0  0  0  0  0  0  0  0  0  0  0  0
    3.2926    8.1976    0.6654 H   0  0  0  0  0  0  0  0  0  0  0  0
    1.4644    9.6454    0.5659 H   0  0  0  0  0  0  0  0  0  0  0  0
   -1.3197    8.4461    0.0450 H   0  0  0  0  0  0  0  0  0  0  0  0
    0.7304   11.6419    0.6775 H   0  0  0  0  0  0  0  0  0  0  0  0
   -0.3046   13.8746    0.7777 H   0  0  0  0  0  0  0  0  0  0  0  0
   -2.7673   14.1451    0.4670 H   0  0  0  0  0  0  0  0  0  0  0  0
   -4.1843   12.1294    0.0517 H   0  0  0  0  0  0  0  0  0  0  0  0
   -3.1466    9.8803   -0.0497 H   0  0  0  0  0  0  0  0  0  0  0  0
   -0.5883    6.4496   -0.0758 H   0  0  0  0  0  0  0  0  0  0  0  0
    0.4221    4.2314   -0.1779 H   0  0  0  0  0  0  0  0  0  0  0  0
    7.0087   -1.5442   -1.1318 H   0  0  0  0  0  0  0  0  0  0  0  0
    8.3051   -1.2110    0.0410 H   0  0  0  0  0  0  0  0  0  0  0  0
    7.3624    0.6116   -2.2525 H   0  0  0  0  0  0  0  0  0  0  0  0
    8.9318   -0.2426   -2.1300 H   0  0  0  0  0  0  0  0  0  0  0  0
    7.0059    2.4839   -0.7078 H   0  0  0  0  0  0  0  0  0  0  0  0
    8.3438    2.8472    0.4295 H   0  0  0  0  0  0  0  0  0  0  0  0
    6.3830    1.6329    1.5318 H   0  0  0  0  0  0  0  0  0  0  0  0
    7.9360    0.7517    1.6521 H   0  0  0  0  0  0  0  0  0  0  0  0
    1.5883   -2.2093   -1.4550 H   0  0  0  0  0  0  0  0  0  0  0  0
    1.4296   -2.3400    0.2675 H   0  0  0  0  0  0  0  0  0  0  0  0
    3.3266   -3.9137   -1.5711 H   0  0  0  0  0  0  0  0  0  0  0  0
    2.1916   -4.5422   -0.3735 H   0  0  0  0  0  0  0  0  0  0  0  0
    4.5354   -4.7404    0.4828 H   0  0  0  0  0  0  0  0  0  0  0  0
    3.6469   -3.5686    1.4681 H   0  0  0  0  0  0  0  0  0  0  0  0
    5.6280   -3.0011   -0.7998 H   0  0  0  0  0  0  0  0  0  0  0  0
    5.8529   -2.5926    0.8979 H   0  0  0  0  0  0  0  0  0  0  0  0
  1  2  1  0
  2  3  1  0
  2 29  1  0
  3  4  1  0
  3 20  2  0
  4  5  2  0
  4 34  1  0
  5  6  1  0
  5 35  1  0
  6  7  2  0
  6 19  1  0
  7  8  1  0
  7 36  1  0
  8  9  2  0
  8 37  1  0
  9 10  1  0
  9 18  1  0
 10 11  2  0
 10 38  1  0
 11 12  1  0
 11 39  1  0
 12 13  2  0
 12 17  1  0
 13 14  1  0
 13 40  1  0
 14 15  2  0
 14 41  1  0
 15 16  1  0
 15 42  1  0
 16 17  2  0
 16 43  1  0
 17 44  1  0
 18 19  2  0
 18 45  1  0
 19 46  1  0
 20 21  1  0
 21 22  2  0
 21 28  1  0
 22 23  1  0
 22 27  1  0
 23 24  1  0
 23 47  1  0
 23 48  1  0
 24 25  1  0
 24 49  1  0
 24 50  1  0
 25 26  1  0
 26 27  1  0
 26 51  1  0
 26 52  1  0
 27 53  1  0
 27 54  1  0
 28 29  2  0
 28 33  1  0
 29 30  1  0
 30 31  1  0
 30 55  1  0
 30 56  1  0
 31 32  1  0
 31 57  1  0
 31 58  1  0
 32 33  1  0
 32 59  1  0
 32 60  1  0
 33 61  1  0
 33 62  1  0
M  CHG  2   1  -1  22   1
M  END

