
     RDKit          3D

 38 38  0  0  0  0  0  0  0  0999 V2000
    2.8349   -0.3968   -3.8147 C   0  0  0  0  0  0  0  0  0  0  0  0
    2.3209   -0.2173   -2.3864 C   0  0  0  0  0  0  0  0  0  0  0  0
    2.9898    0.9228   -1.6068 C   0  0  0  0  0  0  0  0  0  0  0  0
    4.4411    0.7870   -1.4827 N   0  0  0  0  0  0  0  0  0  0  0  0
    4.9048   -0.4578   -0.8792 C   0  0  0  0  0  0  0  0  0  0  0  0
    4.3676   -0.7881    0.5296 C   0  0  0  0  0  0  0  0  0  0  0  0
    3.9874   -1.9141    0.8080 O   0  0  0  0  0  0  0  0  0  0  0  0
    4.3824    0.2474    1.4182 N   0  0  0  0  0  0  0  0  0  0  0  0
    3.9535    0.1040    2.7936 C   0  0  0  0  0  0  0  0  0  0  0  0
    5.2072    1.9634   -1.2636 C   0  0  0  0  0  0  0  0  0  0  0  0
    4.6611    3.0524   -0.5518 C   0  0  0  0  0  0  0  0  0  0  0  0
    5.4285    4.1969   -0.3216 C   0  0  0  0  0  0  0  0  0  0  0  0
    6.7411    4.2728   -0.7701 C   0  0  0  0  0  0  0  0  0  0  0  0
    7.3016    3.2036   -1.4989 C   0  0  0  0  0  0  0  0  0  0  0  0
    8.6223    3.2828   -1.9165 N   0  0  0  0  0  0  0  0  0  0  0  0
    6.5248    2.0521   -1.7828 C   0  0  0  0  0  0  0  0  0  0  0  0
    7.0943    0.9819   -2.6802 C   0  0  0  0  0  0  0  0  0  0  0  0
    2.2839   -1.1945   -4.3377 H   0  0  0  0  0  0  0  0  0  0  0  0
    3.9035   -0.6622   -3.8308 H   0  0  0  0  0  0  0  0  0  0  0  0
    2.7192    0.5305   -4.4009 H   0  0  0  0  0  0  0  0  0  0  0  0
    2.4123   -1.1627   -1.8255 H   0  0  0  0  0  0  0  0  0  0  0  0
    1.2398    0.0054   -2.4058 H   0  0  0  0  0  0  0  0  0  0  0  0
    2.4951    1.0009   -0.6156 H   0  0  0  0  0  0  0  0  0  0  0  0
    2.7974    1.8722   -2.1307 H   0  0  0  0  0  0  0  0  0  0  0  0
    6.0016   -0.4365   -0.8085 H   0  0  0  0  0  0  0  0  0  0  0  0
    4.6437   -1.3266   -1.5009 H   0  0  0  0  0  0  0  0  0  0  0  0
    4.7323    1.1481    1.1065 H   0  0  0  0  0  0  0  0  0  0  0  0
    3.5744   -0.9185    2.9209 H   0  0  0  0  0  0  0  0  0  0  0  0
    3.1502    0.8175    3.0433 H   0  0  0  0  0  0  0  0  0  0  0  0
    4.7873    0.2609    3.4999 H   0  0  0  0  0  0  0  0  0  0  0  0
    3.6404    3.0025   -0.1718 H   0  0  0  0  0  0  0  0  0  0  0  0
    4.9967    5.0357    0.2312 H   0  0  0  0  0  0  0  0  0  0  0  0
    7.3466    5.1604   -0.5675 H   0  0  0  0  0  0  0  0  0  0  0  0
    9.0222    4.2114   -1.9780 H   0  0  0  0  0  0  0  0  0  0  0  0
    8.9193    2.6643   -2.6599 H   0  0  0  0  0  0  0  0  0  0  0  0
    7.6110    1.4296   -3.5480 H   0  0  0  0  0  0  0  0  0  0  0  0
    6.2956    0.3430   -3.0779 H   0  0  0  0  0  0  0  0  0  0  0  0
    7.8307    0.3315   -2.1734 H   0  0  0  0  0  0  0  0  0  0  0  0
  1  2  1  0
  1 18  1  0
  1 19  1  0
  1 20  1  0
  2  3  1  0
  2 21  1  0
  2 22  1  0
  3  4  1  0
  3 23  1  0
  3 24  1  0
  4  5  1  0
  4 10  1  0
  5  6  1  0
  5 25  1  0
  5 26  1  0
  6  7  2  0
  6  8  1  0
  8  9  1  0
  8 27  1  0
  9 28  1  0
  9 29  1  0
  9 30  1  0
 10 11  2  0
 10 16  1  0
 11 12  1  0
 11 31  1  0
 12 13  2  0
 12 32  1  0
 13 14  1  0
 13 33  1  0
 14 15  1  0
 14 16  2  0
 15 34  1  0
 15 35  1  0
 16 17  1  0
 17 36  1  0
 17 37  1  0
 17 38  1  0
M  END

