
     RDKit          3D

 49 50  0  0  0  0  0  0  0  0999 V2000
    2.8233   -0.8787    1.9562 O   0  0  0  0  0  0  0  0  0  0  0  0
    3.7666   -1.2392    1.2998 C   0  0  0  0  0  0  0  0  0  0  0  0
    5.0222   -1.1558    1.7656 O   0  0  0  0  0  0  0  0  0  0  0  0
    3.6558   -1.8024   -0.1152 C   0  0  0  0  0  0  0  0  0  0  0  0
    4.2860   -0.8709   -1.1778 C   0  0  0  0  0  0  0  0  0  0  0  0
    4.9772   -1.5982   -2.3584 C   0  0  1  0  0  0  0  0  0  0  0  0
    4.5729   -0.9698   -3.7121 C   0  0  0  0  0  0  0  0  0  0  0  0
    5.2221   -1.6005   -4.9261 C   0  0  0  0  0  0  0  0  0  0  0  0
    4.8361   -2.8794   -5.3657 C   0  0  0  0  0  0  0  0  0  0  0  0
    5.4531   -3.4770   -6.4662 C   0  0  0  0  0  0  0  0  0  0  0  0
    6.4717   -2.8065   -7.1531 C   0  0  0  0  0  0  0  0  0  0  0  0
    6.8637   -1.5339   -6.7325 C   0  0  0  0  0  0  0  0  0  0  0  0
    6.2427   -0.9377   -5.6284 C   0  0  0  0  0  0  0  0  0  0  0  0
    6.4418   -1.5649   -2.2651 N   0  0  0  0  0  0  0  0  0  0  0  0
    7.1593   -2.0120   -1.1884 C   0  0  0  0  0  0  0  0  0  0  0  0
    6.6492   -2.2881   -0.0971 O   0  0  0  0  0  0  0  0  0  0  0  0
    8.5123   -2.1229   -1.3913 N   0  0  0  0  0  0  0  0  0  0  0  0
    9.4360   -2.4695   -0.3224 C   0  0  0  0  0  0  0  0  0  0  0  0
    9.8997   -3.9338   -0.3109 C   0  0  1  0  0  0  0  0  0  0  0  0
    8.7891   -4.9822   -0.0838 C   0  0  0  0  0  0  0  0  0  0  0  0
    9.4568   -6.2920   -0.5136 C   0  0  0  0  0  0  0  0  0  0  0  0
   10.2179   -5.8886   -1.7726 C   0  0  2  0  0  0  0  0  0  0  0  0
    9.3944   -6.0184   -2.8654 F   0  0  0  0  0  0  0  0  0  0  0  0
   11.2930   -6.6919   -2.0122 F   0  0  0  0  0  0  0  0  0  0  0  0
   10.6150   -4.4113   -1.6004 C   0  0  0  0  0  0  0  0  0  0  0  0
    5.6562   -1.5534    1.1250 H   0  0  0  0  0  0  0  0  0  0  0  0
    2.5906   -1.9759   -0.3204 H   0  0  0  0  0  0  0  0  0  0  0  0
    4.1730   -2.7744   -0.1267 H   0  0  0  0  0  0  0  0  0  0  0  0
    5.0244   -0.2011   -0.7132 H   0  0  0  0  0  0  0  0  0  0  0  0
    3.4980   -0.2113   -1.5747 H   0  0  0  0  0  0  0  0  0  0  0  0
    4.6414   -2.6531   -2.3642 H   0  0  0  0  0  0  0  0  0  0  0  0
    4.8068    0.1073   -3.6815 H   0  0  0  0  0  0  0  0  0  0  0  0
    3.4771   -1.0543   -3.7902 H   0  0  0  0  0  0  0  0  0  0  0  0
    4.0365   -3.4113   -4.8417 H   0  0  0  0  0  0  0  0  0  0  0  0
    5.1357   -4.4705   -6.7931 H   0  0  0  0  0  0  0  0  0  0  0  0
    6.9528   -3.2740   -8.0157 H   0  0  0  0  0  0  0  0  0  0  0  0
    7.6507   -0.9970   -7.2685 H   0  0  0  0  0  0  0  0  0  0  0  0
    6.5433    0.0676   -5.3170 H   0  0  0  0  0  0  0  0  0  0  0  0
    6.9183   -1.5619   -3.1621 H   0  0  0  0  0  0  0  0  0  0  0  0
    8.8969   -1.8319   -2.2812 H   0  0  0  0  0  0  0  0  0  0  0  0
    8.9331   -2.2432    0.6284 H   0  0  0  0  0  0  0  0  0  0  0  0
   10.3148   -1.8065   -0.3956 H   0  0  0  0  0  0  0  0  0  0  0  0
   10.6135   -4.0190    0.5280 H   0  0  0  0  0  0  0  0  0  0  0  0
    7.9295   -4.7688   -0.7388 H   0  0  0  0  0  0  0  0  0  0  0  0
    8.4161   -4.9913    0.9506 H   0  0  0  0  0  0  0  0  0  0  0  0
    8.7688   -7.1248   -0.7172 H   0  0  0  0  0  0  0  0  0  0  0  0
   10.1924   -6.6213    0.2381 H   0  0  0  0  0  0  0  0  0  0  0  0
   10.2644   -3.8683   -2.4908 H   0  0  0  0  0  0  0  0  0  0  0  0
   11.7090   -4.3169   -1.5495 H   0  0  0  0  0  0  0  0  0  0  0  0
  1  2  2  0
  2  3  1  0
  2  4  1  0
  3 26  1  0
  4  5  1  0
  4 27  1  0
  4 28  1  0
  5  6  1  0
  5 29  1  0
  5 30  1  0
  6  7  1  0
  6 14  1  0
  6 31  1  6
  7  8  1  0
  7 32  1  0
  7 33  1  0
  8  9  2  0
  8 13  1  0
  9 10  1  0
  9 34  1  0
 10 11  2  0
 10 35  1  0
 11 12  1  0
 11 36  1  0
 12 13  2  0
 12 37  1  0
 13 38  1  0
 14 15  1  0
 14 39  1  0
 15 16  2  0
 15 17  1  0
 17 18  1  0
 17 40  1  0
 18 19  1  0
 18 41  1  0
 18 42  1  0
 19 20  1  0
 19 25  1  0
 19 43  1  1
 20 21  1  0
 20 44  1  0
 20 45  1  0
 21 22  1  0
 21 46  1  0
 21 47  1  0
 22 23  1  6
 22 24  1  0
 22 25  1  0
 25 48  1  0
 25 49  1  0
M  END

