
     RDKit          3D

102105  0  0  0  0  0  0  0  0999 V2000
    6.0495   -5.3220   11.4320 C   0  0  0  0  0  0  0  0  0  0  0  0
    7.2186   -5.6054   10.4876 C   0  0  0  0  0  0  0  0  0  0  0  0
    6.7986   -5.7746    9.0241 C   0  0  0  0  0  0  0  0  0  0  0  0
    7.9637   -6.0592    8.0719 C   0  0  0  0  0  0  0  0  0  0  0  0
    7.5440   -6.2274    6.6086 C   0  0  0  0  0  0  0  0  0  0  0  0
    8.7102   -6.5131    5.6578 C   0  0  0  0  0  0  0  0  0  0  0  0
    8.2918   -6.6793    4.1939 C   0  0  0  0  0  0  0  0  0  0  0  0
    9.4591   -6.9673    3.2452 C   0  0  0  0  0  0  0  0  0  0  0  0
    9.0430   -7.1295    1.7803 C   0  0  0  0  0  0  0  0  0  0  0  0
   10.2128   -7.4222    0.8354 C   0  0  0  0  0  0  0  0  0  0  0  0
    9.7902   -7.5806   -0.6279 C   0  0  0  0  0  0  0  0  0  0  0  0
   10.9464   -7.8349   -1.6099 C   0  0  0  0  0  0  0  0  0  0  0  0
   11.6952   -9.0696   -1.3659 N   0  0  0  0  0  0  0  0  0  0  0  0
   10.9580  -10.3254   -1.5302 C   0  0  0  0  0  0  0  0  0  0  0  0
   10.1518  -10.4327   -2.8306 C   0  0  0  0  0  0  0  0  0  0  0  0
   10.9960  -10.3635   -4.1069 C   0  0  0  0  0  0  0  0  0  0  0  0
   10.1767  -10.5152   -5.3920 C   0  0  0  0  0  0  0  0  0  0  0  0
   11.0179  -10.4576   -6.6706 C   0  0  0  0  0  0  0  0  0  0  0  0
   10.2020  -10.6079   -7.9580 C   0  0  0  0  0  0  0  0  0  0  0  0
   11.0445  -10.5519   -9.2358 C   0  0  0  0  0  0  0  0  0  0  0  0
   10.2300  -10.7034  -10.5239 C   0  0  0  0  0  0  0  0  0  0  0  0
   11.0731  -10.6484  -11.8014 C   0  0  0  0  0  0  0  0  0  0  0  0
   10.2598  -10.8005  -13.0900 C   0  0  0  0  0  0  0  0  0  0  0  0
   11.1031  -10.7461  -14.3678 C   0  0  0  0  0  0  0  0  0  0  0  0
   10.2835  -10.8990  -15.6500 C   0  0  0  0  0  0  0  0  0  0  0  0
   12.9114   -9.0662   -0.7080 C   0  0  0  0  0  0  0  0  0  0  0  0
   13.7735   -7.9270   -0.7082 C   0  0  0  0  0  0  0  0  0  0  0  0
   15.0184   -7.9640   -0.1124 C   0  0  0  0  0  0  0  0  0  0  0  0
   15.5204   -9.1170    0.5437 C   0  0  0  0  0  0  0  0  0  0  0  0
   14.6157  -10.2017    0.6288 C   0  0  0  0  0  0  0  0  0  0  0  0
   13.3679  -10.1942    0.0086 C   0  0  0  0  0  0  0  0  0  0  0  0
   14.9109  -11.3066    1.3469 O   0  0  0  0  0  0  0  0  0  0  0  0
   16.0016  -11.3993    2.2159 C   0  0  0  0  0  0  0  0  0  0  0  0
   16.0501  -12.3667    2.9181 O   0  0  0  0  0  0  0  0  0  0  0  0
   16.9841  -10.3063    2.1024 C   0  0  0  0  0  0  0  0  0  0  0  0
   18.1501  -10.3755    3.0004 C   0  0  0  0  0  0  0  0  0  0  0  0
   18.4017  -11.2070    3.8226 O   0  0  0  0  0  0  0  0  0  0  0  0
   19.0262   -9.2885    2.9144 O   0  0  0  0  0  0  0  0  0  0  0  0
   19.0035   -8.3976    1.9016 C   0  0  0  0  0  0  0  0  0  0  0  0
   20.1065   -7.5380    1.7980 C   0  0  0  0  0  0  0  0  0  0  0  0
   20.1941   -6.6588    0.7259 C   0  0  0  0  0  0  0  0  0  0  0  0
   19.1941   -6.6515   -0.2591 C   0  0  0  0  0  0  0  0  0  0  0  0
   18.0883   -7.4836   -0.1329 C   0  0  0  0  0  0  0  0  0  0  0  0
   17.9356   -8.3474    0.9778 C   0  0  0  0  0  0  0  0  0  0  0  0
   16.8048   -9.2536    1.2032 C   0  0  0  0  0  0  0  0  0  0  0  0
    6.3883   -5.2062   12.4740 H   0  0  0  0  0  0  0  0  0  0  0  0
    5.3103   -6.1405   11.4120 H   0  0  0  0  0  0  0  0  0  0  0  0
    5.5209   -4.3959   11.1494 H   0  0  0  0  0  0  0  0  0  0  0  0
    7.7489   -6.5164   10.8200 H   0  0  0  0  0  0  0  0  0  0  0  0
    7.9581   -4.7870   10.5600 H   0  0  0  0  0  0  0  0  0  0  0  0
    6.2680   -4.8631    8.6901 H   0  0  0  0  0  0  0  0  0  0  0  0
    6.0585   -6.5936    8.9505 H   0  0  0  0  0  0  0  0  0  0  0  0
    8.4934   -6.9708    8.4061 H   0  0  0  0  0  0  0  0  0  0  0  0
    8.7039   -5.2407    8.1467 H   0  0  0  0  0  0  0  0  0  0  0  0
    7.0152   -5.3154    6.2736 H   0  0  0  0  0  0  0  0  0  0  0  0
    6.8035   -7.0456    6.5334 H   0  0  0  0  0  0  0  0  0  0  0  0
    9.2379   -7.4258    5.9917 H   0  0  0  0  0  0  0  0  0  0  0  0
    9.4516   -5.6960    5.7342 H   0  0  0  0  0  0  0  0  0  0  0  0
    7.7658   -5.7657    3.8587 H   0  0  0  0  0  0  0  0  0  0  0  0
    7.5494   -7.4956    4.1170 H   0  0  0  0  0  0  0  0  0  0  0  0
    9.9833   -7.8822    3.5784 H   0  0  0  0  0  0  0  0  0  0  0  0
   10.2030   -6.1528    3.3242 H   0  0  0  0  0  0  0  0  0  0  0  0
    8.5216   -6.2135    1.4447 H   0  0  0  0  0  0  0  0  0  0  0  0
    8.2975   -7.9426    1.7002 H   0  0  0  0  0  0  0  0  0  0  0  0
   10.7308   -8.3370    1.1735 H   0  0  0  0  0  0  0  0  0  0  0  0
   10.9599   -6.6112    0.9149 H   0  0  0  0  0  0  0  0  0  0  0  0
    9.2732   -6.6638   -0.9649 H   0  0  0  0  0  0  0  0  0  0  0  0
    9.0414   -8.3878   -0.7115 H   0  0  0  0  0  0  0  0  0  0  0  0
   11.6369   -6.9852   -1.5719 H   0  0  0  0  0  0  0  0  0  0  0  0
   10.5520   -7.8501   -2.6381 H   0  0  0  0  0  0  0  0  0  0  0  0
   10.2896  -10.5092   -0.6657 H   0  0  0  0  0  0  0  0  0  0  0  0
   11.6921  -11.1420   -1.5336 H   0  0  0  0  0  0  0  0  0  0  0  0
    9.3510   -9.6745   -2.8644 H   0  0  0  0  0  0  0  0  0  0  0  0
    9.6273  -11.4035   -2.7924 H   0  0  0  0  0  0  0  0  0  0  0  0
   11.7700  -11.1521   -4.0696 H   0  0  0  0  0  0  0  0  0  0  0  0
   11.5503   -9.4087   -4.1362 H   0  0  0  0  0  0  0  0  0  0  0  0
    9.4035   -9.7250   -5.4281 H   0  0  0  0  0  0  0  0  0  0  0  0
    9.6231  -11.4721   -5.3621 H   0  0  0  0  0  0  0  0  0  0  0  0
   11.7904  -11.2480   -6.6339 H   0  0  0  0  0  0  0  0  0  0  0  0
   11.5722   -9.5009   -6.6992 H   0  0  0  0  0  0  0  0  0  0  0  0
    9.4297   -9.8170   -7.9951 H   0  0  0  0  0  0  0  0  0  0  0  0
    9.6475  -11.5644   -7.9283 H   0  0  0  0  0  0  0  0  0  0  0  0
   11.8169  -11.3426   -9.1977 H   0  0  0  0  0  0  0  0  0  0  0  0
   11.5990   -9.5954   -9.2652 H   0  0  0  0  0  0  0  0  0  0  0  0
    9.4577   -9.9124  -10.5622 H   0  0  0  0  0  0  0  0  0  0  0  0
    9.6753  -11.6598  -10.4940 H   0  0  0  0  0  0  0  0  0  0  0  0
   11.8454  -11.4392  -11.7623 H   0  0  0  0  0  0  0  0  0  0  0  0
   11.6277   -9.6918  -11.8311 H   0  0  0  0  0  0  0  0  0  0  0  0
    9.4873  -10.0096  -13.1299 H   0  0  0  0  0  0  0  0  0  0  0  0
    9.7050  -11.7572  -13.0608 H   0  0  0  0  0  0  0  0  0  0  0  0
   11.8747  -11.5365  -14.3267 H   0  0  0  0  0  0  0  0  0  0  0  0
   11.6571   -9.7899  -14.3959 H   0  0  0  0  0  0  0  0  0  0  0  0
    9.7471  -11.8626  -15.6706 H   0  0  0  0  0  0  0  0  0  0  0  0
   10.9215  -10.8550  -16.5472 H   0  0  0  0  0  0  0  0  0  0  0  0
    9.5274  -10.1009  -15.7404 H   0  0  0  0  0  0  0  0  0  0  0  0
   13.4719   -7.0028   -1.1971 H   0  0  0  0  0  0  0  0  0  0  0  0
   15.6100   -7.0511   -0.1234 H   0  0  0  0  0  0  0  0  0  0  0  0
   12.7522  -11.0780    0.1574 H   0  0  0  0  0  0  0  0  0  0  0  0
   20.8872   -7.6075    2.5572 H   0  0  0  0  0  0  0  0  0  0  0  0
   21.0591   -5.9971    0.6364 H   0  0  0  0  0  0  0  0  0  0  0  0
   19.2871   -6.0024   -1.1324 H   0  0  0  0  0  0  0  0  0  0  0  0
   17.3487   -7.4985   -0.9304 H   0  0  0  0  0  0  0  0  0  0  0  0
  1  2  1  0
  1 46  1  0
  1 47  1  0
  1 48  1  0
  2  3  1  0
  2 49  1  0
  2 50  1  0
  3  4  1  0
  3 51  1  0
  3 52  1  0
  4  5  1  0
  4 53  1  0
  4 54  1  0
  5  6  1  0
  5 55  1  0
  5 56  1  0
  6  7  1  0
  6 57  1  0
  6 58  1  0
  7  8  1  0
  7 59  1  0
  7 60  1  0
  8  9  1  0
  8 61  1  0
  8 62  1  0
  9 10  1  0
  9 63  1  0
  9 64  1  0
 10 11  1  0
 10 65  1  0
 10 66  1  0
 11 12  1  0
 11 67  1  0
 11 68  1  0
 12 13  1  0
 12 69  1  0
 12 70  1  0
 13 14  1  0
 13 26  1  0
 14 15  1  0
 14 71  1  0
 14 72  1  0
 15 16  1  0
 15 73  1  0
 15 74  1  0
 16 17  1  0
 16 75  1  0
 16 76  1  0
 17 18  1  0
 17 77  1  0
 17 78  1  0
 18 19  1  0
 18 79  1  0
 18 80  1  0
 19 20  1  0
 19 81  1  0
 19 82  1  0
 20 21  1  0
 20 83  1  0
 20 84  1  0
 21 22  1  0
 21 85  1  0
 21 86  1  0
 22 23  1  0
 22 87  1  0
 22 88  1  0
 23 24  1  0
 23 89  1  0
 23 90  1  0
 24 25  1  0
 24 91  1  0
 24 92  1  0
 25 93  1  0
 25 94  1  0
 25 95  1  0
 26 27  2  0
 26 31  1  0
 27 28  1  0
 27 96  1  0
 28 29  2  0
 28 97  1  0
 29 30  1  0
 29 45  1  0
 30 31  2  0
 30 32  1  0
 31 98  1  0
 32 33  1  0
 33 34  2  0
 33 35  1  0
 35 36  1  0
 35 45  2  0
 36 37  2  0
 36 38  1  0
 38 39  1  0
 39 40  1  0
 39 44  2  0
 40 41  2  0
 40 99  1  0
 41 42  1  0
 41100  1  0
 42 43  2  0
 42101  1  0
 43 44  1  0
 43102  1  0
 44 45  1  0
M  END

