
     RDKit          3D

 51 52  0  0  0  0  0  0  0  0999 V2000
    2.7014    1.0962    0.0729 C   0  0  0  0  0  0  0  0  0  0  0  0
    2.0343   -0.1912    0.0997 N   0  0  0  0  0  0  0  0  0  0  0  0
    2.3717   -0.9832    1.2652 C   0  0  0  0  0  0  0  0  0  0  0  0
    2.0702   -0.4138    2.6754 C   0  0  1  0  0  0  0  0  0  0  0  0
    0.2604   -0.2600    2.9557 Cl  0  0  0  0  0  0  0  0  0  0  0  0
    2.7078   -1.2361    3.7692 C   0  0  0  0  0  0  0  0  0  0  0  0
    3.8619   -0.7737    4.4107 C   0  0  0  0  0  0  0  0  0  0  0  0
    4.5169   -1.5493    5.3743 C   0  0  0  0  0  0  0  0  0  0  0  0
    4.0431   -2.8183    5.7375 C   0  0  0  0  0  0  0  0  0  0  0  0
    4.7310   -3.7016    6.7961 C   0  0  1  0  0  0  0  0  0  0  0  0
    5.9854   -3.0325    7.3864 C   0  0  0  0  0  0  0  0  0  0  0  0
    3.7428   -3.9813    7.9524 C   0  0  0  0  0  0  0  0  0  0  0  0
    5.1567   -5.0402    6.1492 C   0  0  0  0  0  0  0  0  0  0  0  0
    2.8773   -3.2720    5.0886 C   0  0  0  0  0  0  0  0  0  0  0  0
    2.2234   -2.5045    4.1279 C   0  0  0  0  0  0  0  0  0  0  0  0
    0.6535   -0.1868   -0.4241 C   0  0  1  0  0  0  0  0  0  0  0  0
    0.6131    0.3438   -1.8764 C   0  0  0  0  0  0  0  0  0  0  0  0
    1.3330   -0.5851   -2.8619 C   0  0  0  0  0  0  0  0  0  0  0  0
    0.7394   -1.9997   -2.8255 C   0  0  0  0  0  0  0  0  0  0  0  0
    0.7018   -2.5608   -1.3973 C   0  0  0  0  0  0  0  0  0  0  0  0
    0.0127   -1.5891   -0.4287 C   0  0  0  0  0  0  0  0  0  0  0  0
    3.7157    0.9959    0.4912 H   0  0  0  0  0  0  0  0  0  0  0  0
    2.1766    1.8904    0.6505 H   0  0  0  0  0  0  0  0  0  0  0  0
    2.8201    1.4694   -0.9553 H   0  0  0  0  0  0  0  0  0  0  0  0
    3.4669   -1.1396    1.2586 H   0  0  0  0  0  0  0  0  0  0  0  0
    1.9287   -1.9854    1.1917 H   0  0  0  0  0  0  0  0  0  0  0  0
    2.4363    0.6190    2.7402 H   0  0  0  0  0  0  0  0  0  0  0  0
    4.2617    0.2136    4.1604 H   0  0  0  0  0  0  0  0  0  0  0  0
    5.4098   -1.1377    5.8453 H   0  0  0  0  0  0  0  0  0  0  0  0
    5.7464   -2.0838    7.8921 H   0  0  0  0  0  0  0  0  0  0  0  0
    6.7441   -2.8280    6.6148 H   0  0  0  0  0  0  0  0  0  0  0  0
    6.4458   -3.6976    8.1339 H   0  0  0  0  0  0  0  0  0  0  0  0
    3.4245   -3.0438    8.4354 H   0  0  0  0  0  0  0  0  0  0  0  0
    4.2171   -4.6160    8.7190 H   0  0  0  0  0  0  0  0  0  0  0  0
    2.8378   -4.5013    7.6033 H   0  0  0  0  0  0  0  0  0  0  0  0
    5.8666   -4.8721    5.3237 H   0  0  0  0  0  0  0  0  0  0  0  0
    4.2960   -5.5929    5.7428 H   0  0  0  0  0  0  0  0  0  0  0  0
    5.6472   -5.6886    6.8938 H   0  0  0  0  0  0  0  0  0  0  0  0
    2.4613   -4.2503    5.3407 H   0  0  0  0  0  0  0  0  0  0  0  0
    1.3084   -2.8823    3.6657 H   0  0  0  0  0  0  0  0  0  0  0  0
    0.0132    0.4764    0.1940 H   0  0  0  0  0  0  0  0  0  0  0  0
    1.0141    1.3669   -1.9400 H   0  0  0  0  0  0  0  0  0  0  0  0
   -0.4508    0.4275   -2.1600 H   0  0  0  0  0  0  0  0  0  0  0  0
    2.4038   -0.6310   -2.5990 H   0  0  0  0  0  0  0  0  0  0  0  0
    1.2735   -0.1723   -3.8834 H   0  0  0  0  0  0  0  0  0  0  0  0
    1.3082   -2.6740   -3.4882 H   0  0  0  0  0  0  0  0  0  0  0  0
   -0.2910   -1.9676   -3.2269 H   0  0  0  0  0  0  0  0  0  0  0  0
    1.7338   -2.7553   -1.0572 H   0  0  0  0  0  0  0  0  0  0  0  0
    0.1806   -3.5333   -1.3842 H   0  0  0  0  0  0  0  0  0  0  0  0
   -0.0376   -2.0039    0.5884 H   0  0  0  0  0  0  0  0  0  0  0  0
   -1.0384   -1.4556   -0.7389 H   0  0  0  0  0  0  0  0  0  0  0  0
  1  2  1  0
  1 22  1  0
  1 23  1  0
  1 24  1  0
  2  3  1  0
  2 16  1  0
  3  4  1  0
  3 25  1  0
  3 26  1  0
  4  5  1  0
  4  6  1  0
  4 27  1  6
  6  7  2  0
  6 15  1  0
  7  8  1  0
  7 28  1  0
  8  9  2  0
  8 29  1  0
  9 10  1  0
  9 14  1  0
 10 11  1  1
 10 12  1  0
 10 13  1  0
 11 30  1  0
 11 31  1  0
 11 32  1  0
 12 33  1  0
 12 34  1  0
 12 35  1  0
 13 36  1  0
 13 37  1  0
 13 38  1  0
 14 15  2  0
 14 39  1  0
 15 40  1  0
 16 17  1  0
 16 21  1  0
 16 41  1  1
 17 18  1  0
 17 42  1  0
 17 43  1  0
 18 19  1  0
 18 44  1  0
 18 45  1  0
 19 20  1  0
 19 46  1  0
 19 47  1  0
 20 21  1  0
 20 48  1  0
 20 49  1  0
 21 50  1  0
 21 51  1  0
M  END

