
     RDKit          3D

 54 57  0  0  0  0  0  0  0  0999 V2000
    0.7690   -0.9568    0.0045 C   0  0  0  0  0  0  0  0  0  0  0  0
    1.9141    0.0450    0.1795 C   0  0  0  0  0  0  0  0  0  0  0  0
    2.9112   -0.3372    1.1908 N   0  0  0  0  0  0  0  0  0  0  0  0
    2.5096   -0.2234    2.5217 C   0  0  0  0  0  0  0  0  0  0  0  0
    1.7829    0.8464    2.8713 N   0  0  0  0  0  0  0  0  0  0  0  0
    1.4308    0.9858    4.1476 C   0  0  0  0  0  0  0  0  0  0  0  0
    1.7692    0.0767    5.1587 C   0  0  0  0  0  0  0  0  0  0  0  0
    2.4684   -1.0700    4.7886 C   0  0  0  0  0  0  0  0  0  0  0  0
    2.8394   -1.2413    3.4527 C   0  0  0  0  0  0  0  0  0  0  0  0
    3.4174   -2.5332    2.9866 C   0  0  0  0  0  0  0  0  0  0  0  0
    3.5247   -3.5207    3.6947 O   0  0  0  0  0  0  0  0  0  0  0  0
    3.7570   -2.5254    1.6530 N   0  0  0  0  0  0  0  0  0  0  0  0
    4.0300   -1.2662    0.9462 C   0  0  2  0  0  0  0  0  0  0  0  0
    5.3466   -0.6371    1.4961 C   0  0  0  0  0  0  0  0  0  0  0  0
    5.8588    0.5183    0.6356 C   0  0  0  0  0  0  0  0  0  0  0  0
    6.0834    0.0712   -0.7334 N   0  0  0  0  0  0  0  0  0  0  0  0
    7.2711    0.1086   -1.4227 C   0  0  0  0  0  0  0  0  0  0  0  0
    7.3699   -0.3139   -2.5669 O   0  0  0  0  0  0  0  0  0  0  0  0
    8.4867    0.7028   -0.7113 C   0  0  0  0  0  0  0  0  0  0  0  0
    9.7142    0.7122   -1.6298 C   0  0  0  0  0  0  0  0  0  0  0  0
   10.8926    1.2648   -0.9819 N   0  0  0  0  0  0  0  0  0  0  0  0
   11.2061    2.6082   -0.8825 C   0  0  0  0  0  0  0  0  0  0  0  0
   12.3622    2.6656   -0.1402 C   0  0  0  0  0  0  0  0  0  0  0  0
   12.7611    1.4038    0.2186 N   0  0  0  0  0  0  0  0  0  0  0  0
   11.8679    0.5796   -0.2919 C   0  0  0  0  0  0  0  0  0  0  0  0
   11.9021   -0.9099   -0.1652 C   0  0  0  0  0  0  0  0  0  0  0  0
    4.8977   -0.4761   -1.3788 C   0  0  0  0  0  0  0  0  0  0  0  0
    4.2569   -1.5958   -0.5447 C   0  0  0  0  0  0  0  0  0  0  0  0
    0.0570   -0.5892   -0.7525 H   0  0  0  0  0  0  0  0  0  0  0  0
    0.2153   -1.0894    0.9469 H   0  0  0  0  0  0  0  0  0  0  0  0
    1.1259   -1.9479   -0.3168 H   0  0  0  0  0  0  0  0  0  0  0  0
    1.5078    1.0119    0.5061 H   0  0  0  0  0  0  0  0  0  0  0  0
    2.4169    0.2264   -0.7774 H   0  0  0  0  0  0  0  0  0  0  0  0
    0.8392    1.8775    4.3887 H   0  0  0  0  0  0  0  0  0  0  0  0
    1.4600    0.2529    6.1905 H   0  0  0  0  0  0  0  0  0  0  0  0
    2.7109   -1.8641    5.4987 H   0  0  0  0  0  0  0  0  0  0  0  0
    4.2065   -3.3752    1.3242 H   0  0  0  0  0  0  0  0  0  0  0  0
    6.1128   -1.4295    1.5281 H   0  0  0  0  0  0  0  0  0  0  0  0
    5.1915   -0.2956    2.5301 H   0  0  0  0  0  0  0  0  0  0  0  0
    6.7829    0.9233    1.0629 H   0  0  0  0  0  0  0  0  0  0  0  0
    5.1149    1.3364    0.6374 H   0  0  0  0  0  0  0  0  0  0  0  0
    8.7094    0.1253    0.2020 H   0  0  0  0  0  0  0  0  0  0  0  0
    8.2674    1.7301   -0.3753 H   0  0  0  0  0  0  0  0  0  0  0  0
    9.4984    1.2946   -2.5366 H   0  0  0  0  0  0  0  0  0  0  0  0
    9.9340   -0.3079   -1.9704 H   0  0  0  0  0  0  0  0  0  0  0  0
   10.5967    3.3763   -1.3535 H   0  0  0  0  0  0  0  0  0  0  0  0
   12.9295    3.5509    0.1457 H   0  0  0  0  0  0  0  0  0  0  0  0
   12.7899   -1.1784    0.4214 H   0  0  0  0  0  0  0  0  0  0  0  0
   11.9710   -1.4114   -1.1457 H   0  0  0  0  0  0  0  0  0  0  0  0
   11.0137   -1.3132    0.3505 H   0  0  0  0  0  0  0  0  0  0  0  0
    5.2042   -0.8640   -2.3580 H   0  0  0  0  0  0  0  0  0  0  0  0
    4.1803    0.3432   -1.5597 H   0  0  0  0  0  0  0  0  0  0  0  0
    4.9432   -2.4585   -0.5655 H   0  0  0  0  0  0  0  0  0  0  0  0
    3.3215   -1.9316   -1.0148 H   0  0  0  0  0  0  0  0  0  0  0  0
  1  2  1  0
  1 29  1  0
  1 30  1  0
  1 31  1  0
  2  3  1  0
  2 32  1  0
  2 33  1  0
  3  4  1  0
 13  3  1  6
  4  5  1  0
  4  9  2  0
  5  6  2  0
  6  7  1  0
  6 34  1  0
  7  8  2  0
  7 35  1  0
  8  9  1  0
  8 36  1  0
  9 10  1  0
 10 11  2  0
 10 12  1  0
 12 13  1  0
 12 37  1  0
 13 14  1  0
 13 28  1  0
 14 15  1  0
 14 38  1  0
 14 39  1  0
 15 16  1  0
 15 40  1  0
 15 41  1  0
 16 17  1  0
 16 27  1  0
 17 18  2  0
 17 19  1  0
 19 20  1  0
 19 42  1  0
 19 43  1  0
 20 21  1  0
 20 44  1  0
 20 45  1  0
 21 22  1  0
 21 25  1  0
 22 23  2  0
 22 46  1  0
 23 24  1  0
 23 47  1  0
 24 25  2  0
 25 26  1  0
 26 48  1  0
 26 49  1  0
 26 50  1  0
 27 28  1  0
 27 51  1  0
 27 52  1  0
 28 53  1  0
 28 54  1  0
M  END

