
     RDKit          3D

 40 42  0  0  0  0  0  0  0  0999 V2000
    3.9666   -1.6983    0.5429 N   0  0  0  0  0  0  0  0  0  0  0  0
    4.1565   -1.2952    1.9300 C   0  0  2  0  0  0  0  0  0  0  0  0
    3.6555   -0.3227    2.0617 H   0  0  0  0  0  0  0  0  0  0  0  0
    5.5908   -1.1666    2.4756 C   0  0  0  0  0  0  0  0  0  0  0  0
    5.3841   -1.1094    3.9955 C   0  0  0  0  0  0  0  0  0  0  0  0
    4.2105   -2.0851    4.2775 C   0  0  0  0  0  0  0  0  0  0  0  0
    3.5092   -2.3076    2.9076 C   0  0  1  0  0  0  0  0  0  0  0  0
    3.7986   -3.3069    2.5336 H   0  0  0  0  0  0  0  0  0  0  0  0
    1.9799   -2.2922    2.8903 C   0  0  0  0  0  0  0  0  0  0  0  0
    1.3249   -1.0229    3.4354 C   0  0  0  0  0  0  0  0  0  0  0  0
    1.9265   -0.0439    3.8119 O   0  0  0  0  0  0  0  0  0  0  0  0
   -0.0725   -1.1149    3.4413 N   0  0  0  0  0  0  0  0  0  0  0  0
   -0.9845   -0.1541    3.8533 C   0  0  0  0  0  0  0  0  0  0  0  0
   -0.7180    0.9542    4.4526 N   0  0  0  0  0  0  0  0  0  0  0  0
   -1.8538    1.6949    4.7312 C   0  0  0  0  0  0  0  0  0  0  0  0
   -1.6441    3.0030    5.3993 C   0  0  0  0  0  0  0  0  0  0  0  0
   -0.3049    3.4302    5.5587 C   0  0  0  0  0  0  0  0  0  0  0  0
    0.0238    4.6395    6.1630 C   0  0  0  0  0  0  0  0  0  0  0  0
   -0.9864    5.4785    6.6411 C   0  0  0  0  0  0  0  0  0  0  0  0
   -2.3175    5.0886    6.5073 C   0  0  0  0  0  0  0  0  0  0  0  0
   -2.6412    3.8715    5.8973 C   0  0  0  0  0  0  0  0  0  0  0  0
   -4.3603    3.5049    5.8158 Cl  0  0  0  0  0  0  0  0  0  0  0  0
   -3.0265    1.0992    4.3205 C   0  0  0  0  0  0  0  0  0  0  0  0
   -2.7090   -0.4243    3.5539 S   0  0  0  0  0  0  0  0  0  0  0  0
    4.5520   -2.5075    0.3247 H   0  0  0  0  0  0  0  0  0  0  0  0
    4.2565   -0.9556   -0.0930 H   0  0  0  0  0  0  0  0  0  0  0  0
    6.1287   -0.2933    2.0713 H   0  0  0  0  0  0  0  0  0  0  0  0
    6.1667   -2.0684    2.1917 H   0  0  0  0  0  0  0  0  0  0  0  0
    5.0867   -0.0883    4.2824 H   0  0  0  0  0  0  0  0  0  0  0  0
    6.2928   -1.3564    4.5660 H   0  0  0  0  0  0  0  0  0  0  0  0
    3.5259   -1.6652    5.0269 H   0  0  0  0  0  0  0  0  0  0  0  0
    4.5774   -3.0442    4.6771 H   0  0  0  0  0  0  0  0  0  0  0  0
    1.6530   -2.4164    1.8415 H   0  0  0  0  0  0  0  0  0  0  0  0
    1.5750   -3.1553    3.4495 H   0  0  0  0  0  0  0  0  0  0  0  0
   -0.4680   -1.9676    3.0625 H   0  0  0  0  0  0  0  0  0  0  0  0
    0.4744    2.7650    5.1853 H   0  0  0  0  0  0  0  0  0  0  0  0
    1.0736    4.9262    6.2606 H   0  0  0  0  0  0  0  0  0  0  0  0
   -0.7453    6.4315    7.1183 H   0  0  0  0  0  0  0  0  0  0  0  0
   -3.1263    5.7214    6.8761 H   0  0  0  0  0  0  0  0  0  0  0  0
   -4.0441    1.4597    4.4124 H   0  0  0  0  0  0  0  0  0  0  0  0
  1  2  1  0
  1 25  1  0
  1 26  1  0
  2  3  1  6
  2  4  1  0
  2  7  1  0
  4  5  1  0
  4 27  1  0
  4 28  1  0
  5  6  1  0
  5 29  1  0
  5 30  1  0
  6  7  1  0
  6 31  1  0
  6 32  1  0
  7  8  1  6
  7  9  1  0
  9 10  1  0
  9 33  1  0
  9 34  1  0
 10 11  2  0
 10 12  1  0
 12 13  1  0
 12 35  1  0
 13 14  2  0
 13 24  1  0
 14 15  1  0
 15 16  1  0
 15 23  2  0
 16 17  2  0
 16 21  1  0
 17 18  1  0
 17 36  1  0
 18 19  2  0
 18 37  1  0
 19 20  1  0
 19 38  1  0
 20 21  2  0
 20 39  1  0
 21 22  1  0
 23 24  1  0
 23 40  1  0
M  END

