
     RDKit          3D

 37 37  0  0  0  0  0  0  0  0999 V2000
    3.0280    6.0331    0.5957 C   0  0  0  0  0  0  0  0  0  0  0  0
    4.0202    5.3118    1.2893 O   0  0  0  0  0  0  0  0  0  0  0  0
    3.9253    3.9591    1.3670 C   0  0  0  0  0  0  0  0  0  0  0  0
    2.8921    3.1993    0.7972 C   0  0  0  0  0  0  0  0  0  0  0  0
    2.9131    1.8083    0.9512 C   0  0  0  0  0  0  0  0  0  0  0  0
    3.9249    1.1535    1.6498 C   0  0  0  0  0  0  0  0  0  0  0  0
    4.9573    1.9245    2.2196 C   0  0  0  0  0  0  0  0  0  0  0  0
    6.0157    1.3585    2.9520 N   0  0  0  0  0  0  0  0  0  0  0  0
    6.2842    0.0474    3.2024 C   0  0  0  0  0  0  0  0  0  0  0  0
    5.6661   -0.9215    2.8074 O   0  0  0  0  0  0  0  0  0  0  0  0
    7.6133   -0.0899    3.9907 C   0  0  0  0  0  0  0  0  0  0  0  0
    8.4889    0.7474    3.8533 O   0  0  0  0  0  0  0  0  0  0  0  0
    7.8034   -1.2706    4.6834 N   0  0  0  0  0  0  0  0  0  0  0  0
    9.1879   -1.6596    4.9913 C   0  0  0  0  0  0  0  0  0  0  0  0
    9.7083   -1.0760    6.3099 C   0  0  0  0  0  0  0  0  0  0  0  0
    8.8761   -1.4849    7.4402 N   0  0  0  0  0  0  0  0  0  0  0  0
    6.6882   -1.9178    5.3035 C   0  0  0  0  0  0  0  0  0  0  0  0
    6.8062   -3.4044    5.5318 C   0  0  0  0  0  0  0  0  0  0  0  0
    5.7290   -1.2667    5.6421 O   0  0  0  0  0  0  0  0  0  0  0  0
    4.9511    3.3178    2.0753 C   0  0  0  0  0  0  0  0  0  0  0  0
    3.3070    7.0934    0.6632 H   0  0  0  0  0  0  0  0  0  0  0  0
    2.0282    5.8979    1.0468 H   0  0  0  0  0  0  0  0  0  0  0  0
    2.9772    5.7447   -0.4700 H   0  0  0  0  0  0  0  0  0  0  0  0
    2.0817    3.6707    0.2421 H   0  0  0  0  0  0  0  0  0  0  0  0
    2.1089    1.2155    0.5073 H   0  0  0  0  0  0  0  0  0  0  0  0
    3.9344    0.0722    1.7592 H   0  0  0  0  0  0  0  0  0  0  0  0
    6.7402    1.9951    3.2739 H   0  0  0  0  0  0  0  0  0  0  0  0
    9.8207   -1.3129    4.1625 H   0  0  0  0  0  0  0  0  0  0  0  0
    9.2353   -2.7565    5.0254 H   0  0  0  0  0  0  0  0  0  0  0  0
    9.8079    0.0202    6.1931 H   0  0  0  0  0  0  0  0  0  0  0  0
   10.7264   -1.4729    6.4597 H   0  0  0  0  0  0  0  0  0  0  0  0
    8.0670   -0.8701    7.5353 H   0  0  0  0  0  0  0  0  0  0  0  0
    9.3912   -1.4092    8.3157 H   0  0  0  0  0  0  0  0  0  0  0  0
    7.4728   -3.5838    6.3891 H   0  0  0  0  0  0  0  0  0  0  0  0
    7.2103   -3.9215    4.6489 H   0  0  0  0  0  0  0  0  0  0  0  0
    5.8063   -3.7878    5.7698 H   0  0  0  0  0  0  0  0  0  0  0  0
    5.7406    3.9348    2.5107 H   0  0  0  0  0  0  0  0  0  0  0  0
  1  2  1  0
  1 21  1  0
  1 22  1  0
  1 23  1  0
  2  3  1  0
  3  4  2  0
  3 20  1  0
  4  5  1  0
  4 24  1  0
  5  6  2  0
  5 25  1  0
  6  7  1  0
  6 26  1  0
  7  8  1  0
  7 20  2  0
  8  9  1  0
  8 27  1  0
  9 10  2  0
  9 11  1  0
 11 12  2  0
 11 13  1  0
 13 14  1  0
 13 17  1  0
 14 15  1  0
 14 28  1  0
 14 29  1  0
 15 16  1  0
 15 30  1  0
 15 31  1  0
 16 32  1  0
 16 33  1  0
 17 18  1  0
 17 19  2  0
 18 34  1  0
 18 35  1  0
 18 36  1  0
 20 37  1  0
M  END

