
     RDKit          3D

 56 58  0  0  0  0  0  0  0  0999 V2000
    0.8701    0.4340    0.3584 C   0  0  0  0  0  0  0  0  0  0  0  0
    2.3878    0.5472    0.1113 C   0  0  1  0  0  0  0  0  0  0  0  0
    2.9971    1.4097    1.2292 C   0  0  0  0  0  0  0  0  0  0  0  0
    3.0539   -0.8521    0.1288 C   0  0  0  0  0  0  0  0  0  0  0  0
    2.6921   -1.7251   -1.0808 C   0  0  0  0  0  0  0  0  0  0  0  0
    3.0005   -1.0422   -2.4240 C   0  0  2  0  0  0  0  0  0  0  0  0
    4.4520   -0.9288   -2.5988 N   0  0  0  0  0  0  0  0  0  0  0  0
    4.9025   -0.6717   -3.9560 C   0  0  0  0  0  0  0  0  0  0  0  0
    6.4120   -0.5791   -4.0600 C   0  0  0  0  0  0  0  0  0  0  0  0
    7.1823   -0.0192   -3.0329 C   0  0  0  0  0  0  0  0  0  0  0  0
    8.5666    0.0870   -3.1630 C   0  0  0  0  0  0  0  0  0  0  0  0
    9.2441   -0.3609   -4.3098 C   0  0  0  0  0  0  0  0  0  0  0  0
   10.7320   -0.2150   -4.3532 C   0  0  0  0  0  0  0  0  0  0  0  0
   11.3088    1.0654   -4.2694 C   0  0  0  0  0  0  0  0  0  0  0  0
   12.6957    1.2227   -4.2518 C   0  0  0  0  0  0  0  0  0  0  0  0
   13.5299    0.1048   -4.3195 C   0  0  0  0  0  0  0  0  0  0  0  0
   12.9734   -1.1802   -4.4027 C   0  0  0  0  0  0  0  0  0  0  0  0
   13.8019   -2.4402   -4.4442 C   0  0  0  0  0  0  0  0  0  0  0  0
   15.1022   -2.2914   -4.8519 N   0  0  0  0  0  0  0  0  0  0  0  0
   13.3442   -3.5223   -4.1202 O   0  0  0  0  0  0  0  0  0  0  0  0
   11.5798   -1.3296   -4.4071 C   0  0  0  0  0  0  0  0  0  0  0  0
    8.4637   -0.9143   -5.3504 C   0  0  0  0  0  0  0  0  0  0  0  0
    9.0874   -1.3987   -6.6435 C   0  0  1  0  0  0  0  0  0  0  0  0
    9.9623   -0.5121   -7.1481 F   0  0  0  0  0  0  0  0  0  0  0  0
    9.7510   -2.5628   -6.4847 F   0  0  0  0  0  0  0  0  0  0  0  0
    8.1597   -1.6164   -7.5948 F   0  0  0  0  0  0  0  0  0  0  0  0
    7.0745   -1.0204   -5.2111 C   0  0  0  0  0  0  0  0  0  0  0  0
    2.3127    0.3366   -2.4656 C   0  0  0  0  0  0  0  0  0  0  0  0
    2.6753    1.2118   -1.2591 C   0  0  0  0  0  0  0  0  0  0  0  0
    0.6671   -0.0283    1.3386 H   0  0  0  0  0  0  0  0  0  0  0  0
    0.3555   -0.1720   -0.4027 H   0  0  0  0  0  0  0  0  0  0  0  0
    0.3992    1.4309    0.3570 H   0  0  0  0  0  0  0  0  0  0  0  0
    2.8233    0.9587    2.2205 H   0  0  0  0  0  0  0  0  0  0  0  0
    2.5541    2.4196    1.2389 H   0  0  0  0  0  0  0  0  0  0  0  0
    4.0858    1.5222    1.0979 H   0  0  0  0  0  0  0  0  0  0  0  0
    2.7855   -1.3779    1.0619 H   0  0  0  0  0  0  0  0  0  0  0  0
    4.1479   -0.7146    0.1519 H   0  0  0  0  0  0  0  0  0  0  0  0
    1.6195   -1.9791   -1.0617 H   0  0  0  0  0  0  0  0  0  0  0  0
    3.2283   -2.6898   -1.0241 H   0  0  0  0  0  0  0  0  0  0  0  0
    2.5620   -1.6668   -3.2349 H   0  0  0  0  0  0  0  0  0  0  0  0
    4.9016   -1.7774   -2.2553 H   0  0  0  0  0  0  0  0  0  0  0  0
    4.4710    0.2893   -4.2907 H   0  0  0  0  0  0  0  0  0  0  0  0
    4.5370   -1.4279   -4.6869 H   0  0  0  0  0  0  0  0  0  0  0  0
    6.6854    0.3226   -2.1230 H   0  0  0  0  0  0  0  0  0  0  0  0
    9.1525    0.5148   -2.3459 H   0  0  0  0  0  0  0  0  0  0  0  0
   10.6607    1.9441   -4.2245 H   0  0  0  0  0  0  0  0  0  0  0  0
   13.1287    2.2234   -4.1787 H   0  0  0  0  0  0  0  0  0  0  0  0
   14.6133    0.2386   -4.2722 H   0  0  0  0  0  0  0  0  0  0  0  0
   15.3999   -1.4773   -5.3727 H   0  0  0  0  0  0  0  0  0  0  0  0
   15.6382   -3.1443   -4.9665 H   0  0  0  0  0  0  0  0  0  0  0  0
   11.1759   -2.3414   -4.4445 H   0  0  0  0  0  0  0  0  0  0  0  0
    6.4956   -1.4518   -6.0294 H   0  0  0  0  0  0  0  0  0  0  0  0
    1.2229    0.1712   -2.5102 H   0  0  0  0  0  0  0  0  0  0  0  0
    2.5677    0.8650   -3.3992 H   0  0  0  0  0  0  0  0  0  0  0  0
    2.1394    2.1752   -1.3207 H   0  0  0  0  0  0  0  0  0  0  0  0
    3.7513    1.4472   -1.3112 H   0  0  0  0  0  0  0  0  0  0  0  0
  2  1  1  1
  1 30  1  0
  1 31  1  0
  1 32  1  0
  2  3  1  0
  2  4  1  0
  2 29  1  0
  3 33  1  0
  3 34  1  0
  3 35  1  0
  4  5  1  0
  4 36  1  0
  4 37  1  0
  5  6  1  0
  5 38  1  0
  5 39  1  0
  6  7  1  0
  6 28  1  0
  6 40  1  6
  7  8  1  0
  7 41  1  0
  8  9  1  0
  8 42  1  0
  8 43  1  0
  9 10  2  0
  9 27  1  0
 10 11  1  0
 10 44  1  0
 11 12  2  0
 11 45  1  0
 12 13  1  0
 12 22  1  0
 13 14  2  0
 13 21  1  0
 14 15  1  0
 14 46  1  0
 15 16  2  0
 15 47  1  0
 16 17  1  0
 16 48  1  0
 17 18  1  0
 17 21  2  0
 18 19  1  0
 18 20  2  0
 19 49  1  0
 19 50  1  0
 21 51  1  0
 22 23  1  0
 22 27  2  0
 23 24  1  6
 23 25  1  0
 23 26  1  0
 27 52  1  0
 28 29  1  0
 28 53  1  0
 28 54  1  0
 29 55  1  0
 29 56  1  0
M  END

