
     RDKit          3D

 49 51  0  0  0  0  0  0  0  0999 V2000
   -0.7268   -8.5938   -3.7196 C   0  0  0  0  0  0  0  0  0  0  0  0
   -0.9376   -7.0854   -3.5118 C   0  0  0  0  0  0  0  0  0  0  0  0
    0.3575   -6.3047   -3.4749 C   0  0  0  0  0  0  0  0  0  0  0  0
    0.9539   -5.8393   -4.6661 C   0  0  0  0  0  0  0  0  0  0  0  0
    2.1628   -5.1564   -4.6437 C   0  0  0  0  0  0  0  0  0  0  0  0
    2.8325   -4.9050   -3.4270 C   0  0  0  0  0  0  0  0  0  0  0  0
    4.0910   -4.1846   -3.3005 C   0  0  0  0  0  0  0  0  0  0  0  0
    4.7711   -3.6044   -4.5188 C   0  0  0  0  0  0  0  0  0  0  0  0
    5.1553   -4.6231   -5.4586 O   0  0  0  0  0  0  0  0  0  0  0  0
    6.3862   -5.1699   -5.3051 C   0  0  0  0  0  0  0  0  0  0  0  0
    7.1750   -4.8228   -4.4677 O   0  0  0  0  0  0  0  0  0  0  0  0
    6.5982   -6.2594   -6.3348 C   0  0  0  0  0  0  0  0  0  0  0  0
    8.3128   -6.8812   -6.2820 S   0  0  0  0  0  0  0  0  0  0  0  0
    8.1743   -8.1171   -7.6469 C   0  0  0  0  0  0  0  0  0  0  0  0
    9.4985   -8.8097   -7.8396 C   0  0  0  0  0  0  0  0  0  0  0  0
    9.8172   -9.9699   -7.1205 C   0  0  0  0  0  0  0  0  0  0  0  0
   11.0549  -10.5973   -7.2833 C   0  0  0  0  0  0  0  0  0  0  0  0
   12.0185  -10.0855   -8.1644 C   0  0  0  0  0  0  0  0  0  0  0  0
   13.3544  -10.7622   -8.3530 C   0  0  0  0  0  0  0  0  0  0  0  0
   11.6982   -8.9179   -8.8776 C   0  0  0  0  0  0  0  0  0  0  0  0
   10.4636   -8.2896   -8.7170 C   0  0  0  0  0  0  0  0  0  0  0  0
    4.6414   -4.0205   -2.0696 C   0  0  0  0  0  0  0  0  0  0  0  0
    4.0104   -4.5169   -0.8468 C   0  0  0  0  0  0  0  0  0  0  0  0
    4.4366   -4.3961    0.2699 O   0  0  0  0  0  0  0  0  0  0  0  0
    2.8040   -5.1823   -1.0248 O   0  0  0  0  0  0  0  0  0  0  0  0
    2.2312   -5.3789   -2.2405 C   0  0  0  0  0  0  0  0  0  0  0  0
    1.0130   -6.0659   -2.2646 C   0  0  0  0  0  0  0  0  0  0  0  0
   -1.6916   -9.1250   -3.7448 H   0  0  0  0  0  0  0  0  0  0  0  0
   -0.1219   -9.0261   -2.9068 H   0  0  0  0  0  0  0  0  0  0  0  0
   -0.2031   -8.7967   -4.6674 H   0  0  0  0  0  0  0  0  0  0  0  0
   -1.4895   -6.9204   -2.5719 H   0  0  0  0  0  0  0  0  0  0  0  0
   -1.5745   -6.6920   -4.3218 H   0  0  0  0  0  0  0  0  0  0  0  0
    0.4542   -6.0180   -5.6219 H   0  0  0  0  0  0  0  0  0  0  0  0
    2.6110   -4.8232   -5.5807 H   0  0  0  0  0  0  0  0  0  0  0  0
    5.6564   -3.0290   -4.2199 H   0  0  0  0  0  0  0  0  0  0  0  0
    4.0792   -2.9522   -5.0712 H   0  0  0  0  0  0  0  0  0  0  0  0
    6.3448   -5.8561   -7.3295 H   0  0  0  0  0  0  0  0  0  0  0  0
    5.8743   -7.0671   -6.1275 H   0  0  0  0  0  0  0  0  0  0  0  0
    7.8690   -7.5954   -8.5682 H   0  0  0  0  0  0  0  0  0  0  0  0
    7.3878   -8.8439   -7.3877 H   0  0  0  0  0  0  0  0  0  0  0  0
    9.0876  -10.3886   -6.4215 H   0  0  0  0  0  0  0  0  0  0  0  0
   11.2762  -11.5035   -6.7121 H   0  0  0  0  0  0  0  0  0  0  0  0
   13.4809  -11.6087   -7.6620 H   0  0  0  0  0  0  0  0  0  0  0  0
   14.1873  -10.0600   -8.1833 H   0  0  0  0  0  0  0  0  0  0  0  0
   13.4658  -11.1492   -9.3803 H   0  0  0  0  0  0  0  0  0  0  0  0
   12.4304   -8.4929   -9.5708 H   0  0  0  0  0  0  0  0  0  0  0  0
   10.2431   -7.3786   -9.2808 H   0  0  0  0  0  0  0  0  0  0  0  0
    5.5931   -3.5066   -1.9273 H   0  0  0  0  0  0  0  0  0  0  0  0
    0.5931   -6.4017   -1.3139 H   0  0  0  0  0  0  0  0  0  0  0  0
  1  2  1  0
  1 28  1  0
  1 29  1  0
  1 30  1  0
  2  3  1  0
  2 31  1  0
  2 32  1  0
  3  4  2  0
  3 27  1  0
  4  5  1  0
  4 33  1  0
  5  6  2  0
  5 34  1  0
  6  7  1  0
  6 26  1  0
  7  8  1  0
  7 22  2  0
  8  9  1  0
  8 35  1  0
  8 36  1  0
  9 10  1  0
 10 11  2  0
 10 12  1  0
 12 13  1  0
 12 37  1  0
 12 38  1  0
 13 14  1  0
 14 15  1  0
 14 39  1  0
 14 40  1  0
 15 16  2  0
 15 21  1  0
 16 17  1  0
 16 41  1  0
 17 18  2  0
 17 42  1  0
 18 19  1  0
 18 20  1  0
 19 43  1  0
 19 44  1  0
 19 45  1  0
 20 21  2  0
 20 46  1  0
 21 47  1  0
 22 23  1  0
 22 48  1  0
 23 24  2  0
 23 25  1  0
 25 26  1  0
 26 27  2  0
 27 49  1  0
M  END

