
     RDKit          3D

 49 51  0  0  0  0  0  0  0  0999 V2000
    0.9448   -0.0479   -0.6097 C   0  0  0  0  0  0  0  0  0  0  0  0
    2.4432   -0.0893   -0.3110 C   0  0  0  0  0  0  0  0  0  0  0  0
    2.8264    0.4614    1.0780 C   0  0  1  0  0  0  0  0  0  0  0  0
    2.1856   -0.3166    2.1346 N   0  0  0  0  0  0  0  0  0  0  0  0
    1.5034    0.2246    3.1595 C   0  0  0  0  0  0  0  0  0  0  0  0
    1.2843    1.4132    3.3526 O   0  0  0  0  0  0  0  0  0  0  0  0
    0.9698   -0.8537    4.1325 C   0  0  0  0  0  0  0  0  0  0  0  0
    1.1753   -2.0448    3.9572 O   0  0  0  0  0  0  0  0  0  0  0  0
    0.2779   -0.2781    5.1485 N   0  0  0  0  0  0  0  0  0  0  0  0
   -0.3597   -0.8911    6.2283 C   0  0  0  0  0  0  0  0  0  0  0  0
   -0.3852   -2.2779    6.4451 C   0  0  0  0  0  0  0  0  0  0  0  0
   -1.0561   -2.7703    7.5622 C   0  0  0  0  0  0  0  0  0  0  0  0
   -1.0747   -4.0962    7.7602 F   0  0  0  0  0  0  0  0  0  0  0  0
   -1.7048   -1.9438    8.4763 C   0  0  0  0  0  0  0  0  0  0  0  0
   -1.6792   -0.5620    8.2601 C   0  0  0  0  0  0  0  0  0  0  0  0
   -1.0157   -0.0565    7.1530 C   0  0  0  0  0  0  0  0  0  0  0  0
   -0.9825    1.2728    6.9317 F   0  0  0  0  0  0  0  0  0  0  0  0
    4.3377    0.5456    1.2621 C   0  0  0  0  0  0  0  0  0  0  0  0
    5.1210   -0.6050    1.4475 C   0  0  0  0  0  0  0  0  0  0  0  0
    6.5024   -0.4987    1.5841 C   0  0  0  0  0  0  0  0  0  0  0  0
    7.1542    0.7453    1.5391 C   0  0  0  0  0  0  0  0  0  0  0  0
    6.3789    1.9063    1.3517 C   0  0  0  0  0  0  0  0  0  0  0  0
    4.9857    1.7826    1.2193 C   0  0  0  0  0  0  0  0  0  0  0  0
    7.0214    3.2798    1.2619 C   0  0  0  0  0  0  0  0  0  0  0  0
    8.4495    3.3239    1.8136 C   0  0  0  0  0  0  0  0  0  0  0  0
    9.2682    2.1477    1.2761 C   0  0  0  0  0  0  0  0  0  0  0  0
    8.6586    0.8187    1.7320 C   0  0  0  0  0  0  0  0  0  0  0  0
    0.7329   -0.4413   -1.6162 H   0  0  0  0  0  0  0  0  0  0  0  0
    0.5564    0.9827   -0.5635 H   0  0  0  0  0  0  0  0  0  0  0  0
    0.3713   -0.6505    0.1119 H   0  0  0  0  0  0  0  0  0  0  0  0
    2.9963    0.4980   -1.0623 H   0  0  0  0  0  0  0  0  0  0  0  0
    2.8236   -1.1231   -0.4024 H   0  0  0  0  0  0  0  0  0  0  0  0
    2.4151    1.4767    1.1821 H   0  0  0  0  0  0  0  0  0  0  0  0
    2.2726   -1.3305    2.1609 H   0  0  0  0  0  0  0  0  0  0  0  0
    0.2369    0.7406    5.0865 H   0  0  0  0  0  0  0  0  0  0  0  0
    0.1114   -2.9522    5.7509 H   0  0  0  0  0  0  0  0  0  0  0  0
   -2.2162   -2.3799    9.3355 H   0  0  0  0  0  0  0  0  0  0  0  0
   -2.1705    0.1324    8.9440 H   0  0  0  0  0  0  0  0  0  0  0  0
    4.6548   -1.5936    1.4918 H   0  0  0  0  0  0  0  0  0  0  0  0
    7.0986   -1.4046    1.7315 H   0  0  0  0  0  0  0  0  0  0  0  0
    4.3887    2.6908    1.0851 H   0  0  0  0  0  0  0  0  0  0  0  0
    6.3837    4.0190    1.7749 H   0  0  0  0  0  0  0  0  0  0  0  0
    7.0370    3.5883    0.1991 H   0  0  0  0  0  0  0  0  0  0  0  0
    8.4251    3.2757    2.9175 H   0  0  0  0  0  0  0  0  0  0  0  0
    8.9230    4.2845    1.5528 H   0  0  0  0  0  0  0  0  0  0  0  0
   10.3169    2.2137    1.6089 H   0  0  0  0  0  0  0  0  0  0  0  0
    9.2860    2.1914    0.1717 H   0  0  0  0  0  0  0  0  0  0  0  0
    8.8804    0.6716    2.8062 H   0  0  0  0  0  0  0  0  0  0  0  0
    9.1388   -0.0277    1.2128 H   0  0  0  0  0  0  0  0  0  0  0  0
  1  2  1  0
  1 28  1  0
  1 29  1  0
  1 30  1  0
  2  3  1  0
  2 31  1  0
  2 32  1  0
  3  4  1  0
  3 18  1  0
  3 33  1  6
  4  5  1  0
  4 34  1  0
  5  6  2  0
  5  7  1  0
  7  8  2  0
  7  9  1  0
  9 10  1  0
  9 35  1  0
 10 11  2  0
 10 16  1  0
 11 12  1  0
 11 36  1  0
 12 13  1  0
 12 14  2  0
 14 15  1  0
 14 37  1  0
 15 16  2  0
 15 38  1  0
 16 17  1  0
 18 19  2  0
 18 23  1  0
 19 20  1  0
 19 39  1  0
 20 21  2  0
 20 40  1  0
 21 22  1  0
 21 27  1  0
 22 23  2  0
 22 24  1  0
 23 41  1  0
 24 25  1  0
 24 42  1  0
 24 43  1  0
 25 26  1  0
 25 44  1  0
 25 45  1  0
 26 27  1  0
 26 46  1  0
 26 47  1  0
 27 48  1  0
 27 49  1  0
M  END

