
     RDKit          3D

 87 92  0  0  0  0  0  0  0  0999 V2000
    0.5549   -5.0933   -2.7424 C   0  0  0  0  0  0  0  0  0  0  0  0
    1.6175   -5.8494   -3.1020 C   0  0  0  0  0  0  0  0  0  0  0  0
    1.4079   -7.0282   -4.0427 C   0  0  0  0  0  0  0  0  0  0  0  0
    1.4353   -6.6754   -5.5378 C   0  0  0  0  0  0  0  0  0  0  0  0
    2.9193   -5.6440   -2.6188 N   0  0  0  0  0  0  0  0  0  0  0  0
    3.1244   -4.5803   -1.6450 C   0  0  0  0  0  0  0  0  0  0  0  0
    4.4627   -4.7495   -0.9104 C   0  0  0  0  0  0  0  0  0  0  0  0
    5.6199   -4.8927   -1.7914 N   0  0  0  0  0  0  0  0  0  0  0  0
    6.1197   -3.6585   -2.3968 C   0  0  0  0  0  0  0  0  0  0  0  0
    6.8174   -2.7265   -1.3990 C   0  0  0  0  0  0  0  0  0  0  0  0
    8.0240   -3.3310   -0.6698 C   0  0  0  0  0  0  0  0  0  0  0  0
    9.1661   -3.6305   -1.5286 N   0  0  0  0  0  0  0  0  0  0  0  0
   10.0999   -2.6980   -1.9785 C   0  0  0  0  0  0  0  0  0  0  0  0
   10.0032   -1.3227   -1.6308 C   0  0  0  0  0  0  0  0  0  0  0  0
    9.9183   -0.1987   -1.3442 N   0  0  0  0  0  0  0  0  0  0  0  0
   11.0674   -3.3222   -2.7486 C   0  0  0  0  0  0  0  0  0  0  0  0
   10.7320   -4.7092   -2.7846 C   0  0  0  0  0  0  0  0  0  0  0  0
   11.3273   -5.8369   -3.3862 C   0  0  0  0  0  0  0  0  0  0  0  0
   10.7496   -7.0912   -3.2184 C   0  0  0  0  0  0  0  0  0  0  0  0
   11.3382   -8.3177   -3.9012 C   0  0  0  0  0  0  0  0  0  0  0  0
   12.7928   -8.2999   -3.9749 N   0  0  0  0  0  0  0  0  0  0  0  0
   13.4772   -8.5053   -2.7007 C   0  0  0  0  0  0  0  0  0  0  0  0
   13.5627   -9.9846   -2.2735 C   0  0  0  0  0  0  0  0  0  0  0  0
   14.1639  -10.8744   -3.3756 C   0  0  2  0  0  0  0  0  0  0  0  0
   15.6066  -10.6403   -3.4745 N   0  0  0  0  0  0  0  0  0  0  0  0
   16.4922  -11.5476   -3.9619 C   0  0  0  0  0  0  0  0  0  0  0  0
   16.0296  -12.7343   -4.3755 N   0  0  0  0  0  0  0  0  0  0  0  0
   16.9024  -13.6340   -4.8453 C   0  0  0  0  0  0  0  0  0  0  0  0
   18.2177  -13.4989   -4.9687 N   0  0  0  0  0  0  0  0  0  0  0  0
   18.6782  -12.3143   -4.5604 C   0  0  0  0  0  0  0  0  0  0  0  0
   20.3727  -11.8638   -4.6064 S   0  0  0  0  0  0  0  0  0  0  0  0
   20.0126  -10.2905   -3.9129 C   0  0  0  0  0  0  0  0  0  0  0  0
   21.1035   -9.2843   -3.6927 C   0  0  0  0  0  0  0  0  0  0  0  0
   21.3204   -8.3357   -4.8641 C   0  0  1  0  0  0  0  0  0  0  0  0
   20.2163   -7.6160   -5.1277 F   0  0  0  0  0  0  0  0  0  0  0  0
   22.3101   -7.4687   -4.5870 F   0  0  0  0  0  0  0  0  0  0  0  0
   21.6559   -8.9906   -5.9850 F   0  0  0  0  0  0  0  0  0  0  0  0
   18.6761  -10.1221   -3.6718 C   0  0  0  0  0  0  0  0  0  0  0  0
   17.8933  -11.2676   -4.0353 C   0  0  0  0  0  0  0  0  0  0  0  0
   13.4367  -10.6147   -4.7128 C   0  0  0  0  0  0  0  0  0  0  0  0
   13.3838   -9.1134   -5.0363 C   0  0  0  0  0  0  0  0  0  0  0  0
    9.5673   -7.2175   -2.4422 C   0  0  0  0  0  0  0  0  0  0  0  0
    8.9465   -6.1284   -1.8424 C   0  0  0  0  0  0  0  0  0  0  0  0
    9.5391   -4.8658   -2.0153 C   0  0  0  0  0  0  0  0  0  0  0  0
    5.3641   -5.9802   -2.7316 C   0  0  0  0  0  0  0  0  0  0  0  0
    4.0577   -5.8261   -3.5199 C   0  0  0  0  0  0  0  0  0  0  0  0
   -0.4448   -5.3793   -3.0741 H   0  0  0  0  0  0  0  0  0  0  0  0
    0.6279   -4.2005   -2.1221 H   0  0  0  0  0  0  0  0  0  0  0  0
    0.4244   -7.4639   -3.8072 H   0  0  0  0  0  0  0  0  0  0  0  0
    2.1442   -7.8183   -3.8210 H   0  0  0  0  0  0  0  0  0  0  0  0
    0.6633   -5.9263   -5.7723 H   0  0  0  0  0  0  0  0  0  0  0  0
    1.2415   -7.5682   -6.1544 H   0  0  0  0  0  0  0  0  0  0  0  0
    2.4041   -6.2560   -5.8524 H   0  0  0  0  0  0  0  0  0  0  0  0
    2.3136   -4.6234   -0.9027 H   0  0  0  0  0  0  0  0  0  0  0  0
    3.0624   -3.5781   -2.1236 H   0  0  0  0  0  0  0  0  0  0  0  0
    4.4002   -5.6573   -0.2846 H   0  0  0  0  0  0  0  0  0  0  0  0
    4.6100   -3.9000   -0.2265 H   0  0  0  0  0  0  0  0  0  0  0  0
    5.3335   -3.0725   -2.9186 H   0  0  0  0  0  0  0  0  0  0  0  0
    6.8437   -3.9482   -3.1763 H   0  0  0  0  0  0  0  0  0  0  0  0
    6.1045   -2.3882   -0.6279 H   0  0  0  0  0  0  0  0  0  0  0  0
    7.1282   -1.8125   -1.9313 H   0  0  0  0  0  0  0  0  0  0  0  0
    7.7309   -4.2651   -0.1722 H   0  0  0  0  0  0  0  0  0  0  0  0
    8.3635   -2.6342    0.1124 H   0  0  0  0  0  0  0  0  0  0  0  0
   11.9141   -2.8277   -3.2189 H   0  0  0  0  0  0  0  0  0  0  0  0
   12.2432   -5.7440   -3.9739 H   0  0  0  0  0  0  0  0  0  0  0  0
   10.9638   -8.3550   -4.9399 H   0  0  0  0  0  0  0  0  0  0  0  0
   10.9246   -9.2247   -3.4076 H   0  0  0  0  0  0  0  0  0  0  0  0
   12.9727   -7.9127   -1.9225 H   0  0  0  0  0  0  0  0  0  0  0  0
   14.4958   -8.0785   -2.7871 H   0  0  0  0  0  0  0  0  0  0  0  0
   12.5508  -10.3594   -2.0484 H   0  0  0  0  0  0  0  0  0  0  0  0
   14.1465  -10.0834   -1.3426 H   0  0  0  0  0  0  0  0  0  0  0  0
   14.0439  -11.9352   -3.1126 H   0  0  0  0  0  0  0  0  0  0  0  0
   15.9673   -9.7369   -3.1997 H   0  0  0  0  0  0  0  0  0  0  0  0
   16.4760  -14.5920   -5.1672 H   0  0  0  0  0  0  0  0  0  0  0  0
   22.0699   -9.7710   -3.4919 H   0  0  0  0  0  0  0  0  0  0  0  0
   20.8683   -8.6559   -2.8202 H   0  0  0  0  0  0  0  0  0  0  0  0
   18.2775   -9.1973   -3.2497 H   0  0  0  0  0  0  0  0  0  0  0  0
   12.4125  -11.0198   -4.6357 H   0  0  0  0  0  0  0  0  0  0  0  0
   13.9383  -11.1758   -5.5164 H   0  0  0  0  0  0  0  0  0  0  0  0
   12.8294   -8.9367   -5.9717 H   0  0  0  0  0  0  0  0  0  0  0  0
   14.4128   -8.7482   -5.2122 H   0  0  0  0  0  0  0  0  0  0  0  0
    9.1272   -8.2110   -2.3138 H   0  0  0  0  0  0  0  0  0  0  0  0
    8.0257   -6.2474   -1.2697 H   0  0  0  0  0  0  0  0  0  0  0  0
    5.3102   -6.9230   -2.1576 H   0  0  0  0  0  0  0  0  0  0  0  0
    6.2115   -6.0679   -3.4294 H   0  0  0  0  0  0  0  0  0  0  0  0
    3.9106   -6.7277   -4.1284 H   0  0  0  0  0  0  0  0  0  0  0  0
    4.1419   -4.9723   -4.2280 H   0  0  0  0  0  0  0  0  0  0  0  0
  1  2  2  0
  1 47  1  0
  1 48  1  0
  2  3  1  0
  2  5  1  0
  3  4  1  0
  3 49  1  0
  3 50  1  0
  4 51  1  0
  4 52  1  0
  4 53  1  0
  5  6  1  0
  5 46  1  0
  6  7  1  0
  6 54  1  0
  6 55  1  0
  7  8  1  0
  7 56  1  0
  7 57  1  0
  8  9  1  0
  8 45  1  0
  9 10  1  0
  9 58  1  0
  9 59  1  0
 10 11  1  0
 10 60  1  0
 10 61  1  0
 11 12  1  0
 11 62  1  0
 11 63  1  0
 12 13  1  0
 12 44  1  0
 13 14  1  0
 13 16  2  0
 14 15  3  0
 16 17  1  0
 16 64  1  0
 17 18  1  0
 17 44  2  0
 18 19  2  0
 18 65  1  0
 19 20  1  0
 19 42  1  0
 20 21  1  0
 20 66  1  0
 20 67  1  0
 21 22  1  0
 21 41  1  0
 22 23  1  0
 22 68  1  0
 22 69  1  0
 23 24  1  0
 23 70  1  0
 23 71  1  0
 24 25  1  0
 24 40  1  0
 24 72  1  1
 25 26  1  0
 25 73  1  0
 26 27  2  0
 26 39  1  0
 27 28  1  0
 28 29  2  0
 28 74  1  0
 29 30  1  0
 30 31  1  0
 30 39  2  0
 31 32  1  0
 32 33  1  0
 32 38  2  0
 33 34  1  0
 33 75  1  0
 33 76  1  0
 34 35  1  6
 34 36  1  0
 34 37  1  0
 38 39  1  0
 38 77  1  0
 40 41  1  0
 40 78  1  0
 40 79  1  0
 41 80  1  0
 41 81  1  0
 42 43  2  0
 42 82  1  0
 43 44  1  0
 43 83  1  0
 45 46  1  0
 45 84  1  0
 45 85  1  0
 46 86  1  0
 46 87  1  0
M  END

