
     RDKit          3D

 39 42  0  0  0  0  0  0  0  0999 V2000
    8.7106    6.2400   -0.6255 O   0  0  0  0  0  0  0  0  0  0  0  0
    8.3741    5.0798   -0.8034 C   0  0  0  0  0  0  0  0  0  0  0  0
    6.9906    4.6328   -0.5168 C   0  0  0  0  0  0  0  0  0  0  0  0
    6.5818    3.3657   -0.7253 C   0  0  0  0  0  0  0  0  0  0  0  0
    7.4808    2.3446   -1.2515 C   0  0  0  0  0  0  0  0  0  0  0  0
    7.0500    1.0990   -1.6164 C   0  0  0  0  0  0  0  0  0  0  0  0
    5.6389    0.6518   -1.4093 C   0  0  0  0  0  0  0  0  0  0  0  0
    5.2877    0.2364   -0.1113 C   0  0  0  0  0  0  0  0  0  0  0  0
    4.0112   -0.2459    0.1830 C   0  0  0  0  0  0  0  0  0  0  0  0
    3.0472   -0.3280   -0.8249 C   0  0  0  0  0  0  0  0  0  0  0  0
    3.3726    0.0824   -2.1146 C   0  0  0  0  0  0  0  0  0  0  0  0
    4.6535    0.5729   -2.4260 C   0  0  0  0  0  0  0  0  0  0  0  0
    4.8335    1.0101   -3.8491 C   0  0  0  0  0  0  0  0  0  0  0  0
    3.9741    0.9202   -4.6935 O   0  0  0  0  0  0  0  0  0  0  0  0
    6.0463    1.5304   -4.1210 O   0  0  0  0  0  0  0  0  0  0  0  0
    8.0496    0.1367   -2.2296 C   0  0  2  0  0  0  0  0  0  0  0  0
    7.7555   -1.3389   -2.1248 C   0  0  0  0  0  0  0  0  0  0  0  0
    8.7626   -2.2142   -2.2855 C   0  0  0  0  0  0  0  0  0  0  0  0
   10.1458   -1.7656   -2.5003 C   0  0  0  0  0  0  0  0  0  0  0  0
   11.0678   -2.6800   -2.8832 O   0  0  0  0  0  0  0  0  0  0  0  0
   10.4833   -0.4734   -2.2633 C   0  0  0  0  0  0  0  0  0  0  0  0
   12.4875    0.1569   -2.3819 I   0  0  0  0  0  0  0  0  0  0  0  0
    9.4409    0.4502   -1.6749 C   0  0  1  0  0  0  0  0  0  0  0  0
    9.7530    1.8133   -1.9505 O   0  0  0  0  0  0  0  0  0  0  0  0
    8.8824    2.7381   -1.4874 C   0  0  0  0  0  0  0  0  0  0  0  0
    9.2925    4.0268   -1.2944 C   0  0  0  0  0  0  0  0  0  0  0  0
   11.2800    4.6160   -1.6757 I   0  0  0  0  0  0  0  0  0  0  0  0
    6.3187    5.4055   -0.1366 H   0  0  0  0  0  0  0  0  0  0  0  0
    5.5491    3.0782   -0.5211 H   0  0  0  0  0  0  0  0  0  0  0  0
    6.0397    0.2937    0.6790 H   0  0  0  0  0  0  0  0  0  0  0  0
    3.7729   -0.5569    1.2033 H   0  0  0  0  0  0  0  0  0  0  0  0
    2.0456   -0.7046   -0.6055 H   0  0  0  0  0  0  0  0  0  0  0  0
    2.6381    0.0428   -2.9207 H   0  0  0  0  0  0  0  0  0  0  0  0
    6.0346    1.7933   -5.0578 H   0  0  0  0  0  0  0  0  0  0  0  0
    8.0866    0.3737   -3.3154 H   0  0  0  0  0  0  0  0  0  0  0  0
    6.7275   -1.6837   -2.0009 H   0  0  0  0  0  0  0  0  0  0  0  0
    8.5724   -3.2930   -2.2733 H   0  0  0  0  0  0  0  0  0  0  0  0
   10.6315   -3.5122   -3.1061 H   0  0  0  0  0  0  0  0  0  0  0  0
    9.4275    0.3235   -0.5699 H   0  0  0  0  0  0  0  0  0  0  0  0
  1  2  2  0
  2  3  1  0
  2 26  1  0
  3  4  2  0
  3 28  1  0
  4  5  1  0
  4 29  1  0
  5  6  2  0
  5 25  1  0
  6  7  1  0
  6 16  1  0
  7  8  2  0
  7 12  1  0
  8  9  1  0
  8 30  1  0
  9 10  2  0
  9 31  1  0
 10 11  1  0
 10 32  1  0
 11 12  2  0
 11 33  1  0
 12 13  1  0
 13 14  2  0
 13 15  1  0
 15 34  1  0
 16 17  1  0
 16 23  1  0
 16 35  1  6
 17 18  2  0
 17 36  1  0
 18 19  1  0
 18 37  1  0
 19 20  1  0
 19 21  2  0
 20 38  1  0
 21 22  1  0
 21 23  1  0
 23 24  1  0
 23 39  1  1
 24 25  1  0
 25 26  2  0
 26 27  1  0
M  END

