
     RDKit          3D

 34 34  0  0  0  0  0  0  0  0999 V2000
    0.7484   -0.4889   -0.2055 C   0  0  0  0  0  0  0  0  0  0  0  0
    2.2504   -0.2294   -0.0809 C   0  0  0  0  0  0  0  0  0  0  0  0
    2.8680    0.3886   -1.3394 C   0  0  0  0  0  0  0  0  0  0  0  0
    4.3692    0.6548   -1.1971 C   0  0  0  0  0  0  0  0  0  0  0  0
    5.0131    1.1112   -2.4260 N   0  0  0  0  0  0  0  0  0  0  0  0
    4.6175    2.4558   -2.8082 C   0  0  0  0  0  0  0  0  0  0  0  0
    6.4579    0.9338   -2.4208 C   0  0  0  0  0  0  0  0  0  0  0  0
    7.0468    0.8013   -3.8412 C   0  0  0  0  0  0  0  0  0  0  0  0
    8.5286    0.5721   -3.8210 C   0  0  0  0  0  0  0  0  0  0  0  0
    9.4190    1.4986   -3.6257 N   0  0  0  0  0  0  0  0  0  0  0  0
   10.6979    0.9950   -3.6055 C   0  0  0  0  0  0  0  0  0  0  0  0
   11.8525    1.9145   -3.3829 C   0  0  0  0  0  0  0  0  0  0  0  0
   12.0662    2.3396   -1.6224 Cl  0  0  0  0  0  0  0  0  0  0  0  0
   10.7910   -0.3639   -3.7900 C   0  0  0  0  0  0  0  0  0  0  0  0
    9.2164   -1.0409   -3.9975 S   0  0  0  0  0  0  0  0  0  0  0  0
    0.3374   -0.9366    0.7134 H   0  0  0  0  0  0  0  0  0  0  0  0
    0.5287   -1.1773   -1.0387 H   0  0  0  0  0  0  0  0  0  0  0  0
    0.1944    0.4454   -0.3968 H   0  0  0  0  0  0  0  0  0  0  0  0
    2.7693   -1.1771    0.1525 H   0  0  0  0  0  0  0  0  0  0  0  0
    2.4385    0.4348    0.7825 H   0  0  0  0  0  0  0  0  0  0  0  0
    2.3319    1.3247   -1.5748 H   0  0  0  0  0  0  0  0  0  0  0  0
    2.7157   -0.2801   -2.2051 H   0  0  0  0  0  0  0  0  0  0  0  0
    4.8569   -0.2879   -0.8977 H   0  0  0  0  0  0  0  0  0  0  0  0
    4.5384    1.3684   -0.3551 H   0  0  0  0  0  0  0  0  0  0  0  0
    3.5276    2.5204   -2.9372 H   0  0  0  0  0  0  0  0  0  0  0  0
    5.0698    2.7348   -3.7714 H   0  0  0  0  0  0  0  0  0  0  0  0
    4.9194    3.2245   -2.0593 H   0  0  0  0  0  0  0  0  0  0  0  0
    6.6899    0.0084   -1.8704 H   0  0  0  0  0  0  0  0  0  0  0  0
    6.9902    1.7556   -1.8916 H   0  0  0  0  0  0  0  0  0  0  0  0
    6.8673    1.7240   -4.4142 H   0  0  0  0  0  0  0  0  0  0  0  0
    6.5298   -0.0192   -4.3614 H   0  0  0  0  0  0  0  0  0  0  0  0
   11.6923    2.8653   -3.9062 H   0  0  0  0  0  0  0  0  0  0  0  0
   12.7971    1.4643   -3.7107 H   0  0  0  0  0  0  0  0  0  0  0  0
   11.6881   -0.9801   -3.8153 H   0  0  0  0  0  0  0  0  0  0  0  0
  1  2  1  0
  1 16  1  0
  1 17  1  0
  1 18  1  0
  2  3  1  0
  2 19  1  0
  2 20  1  0
  3  4  1  0
  3 21  1  0
  3 22  1  0
  4  5  1  0
  4 23  1  0
  4 24  1  0
  5  6  1  0
  5  7  1  0
  6 25  1  0
  6 26  1  0
  6 27  1  0
  7  8  1  0
  7 28  1  0
  7 29  1  0
  8  9  1  0
  8 30  1  0
  8 31  1  0
  9 10  2  0
  9 15  1  0
 10 11  1  0
 11 12  1  0
 11 14  2  0
 12 13  1  0
 12 32  1  0
 12 33  1  0
 14 15  1  0
 14 34  1  0
M  END

