
     RDKit          3D

 50 52  0  0  0  0  0  0  0  0999 V2000
    2.6306    0.5358    0.2422 C   0  0  0  0  0  0  0  0  0  0  0  0
    3.5789   -0.5312    0.7723 C   0  0  0  0  0  0  0  0  0  0  0  0
    3.7771   -0.6567    1.9697 O   0  0  0  0  0  0  0  0  0  0  0  0
    4.1981   -1.3476   -0.1529 N   0  0  0  0  0  0  0  0  0  0  0  0
    5.1469   -2.3570    0.3035 C   0  0  0  0  0  0  0  0  0  0  0  0
    4.8216   -3.7245   -0.2980 C   0  0  0  0  0  0  0  0  0  0  0  0
    4.7185   -3.6306   -1.7580 N   0  0  0  0  0  0  0  0  0  0  0  0
    5.4830   -4.4575   -2.5200 C   0  0  0  0  0  0  0  0  0  0  0  0
    6.2404   -5.2949   -2.0359 O   0  0  0  0  0  0  0  0  0  0  0  0
    5.4292   -4.3587   -4.0778 C   0  0  0  0  0  0  0  0  0  0  0  0
    4.7919   -3.5366   -4.7232 O   0  0  0  0  0  0  0  0  0  0  0  0
    6.2020   -5.3258   -4.6180 N   0  0  0  0  0  0  0  0  0  0  0  0
    6.4152   -5.4768   -6.0497 C   0  0  1  0  0  0  0  0  0  0  0  0
    7.8689   -5.1536   -6.4012 C   0  0  0  0  0  0  0  0  0  0  0  0
    8.8871   -6.1049   -6.2331 C   0  0  0  0  0  0  0  0  0  0  0  0
   10.2191   -5.7744   -6.4947 C   0  0  0  0  0  0  0  0  0  0  0  0
   10.5513   -4.4891   -6.9352 C   0  0  0  0  0  0  0  0  0  0  0  0
    9.5439   -3.5362   -7.1093 C   0  0  0  0  0  0  0  0  0  0  0  0
    8.2122   -3.8668   -6.8406 C   0  0  0  0  0  0  0  0  0  0  0  0
    5.9457   -6.8357   -6.5743 C   0  0  0  0  0  0  0  0  0  0  0  0
    5.3498   -7.7954   -5.7463 C   0  0  0  0  0  0  0  0  0  0  0  0
    4.9101   -9.0175   -6.2698 C   0  0  0  0  0  0  0  0  0  0  0  0
    5.0543   -9.2938   -7.6301 C   0  0  0  0  0  0  0  0  0  0  0  0
    5.6426   -8.3384   -8.4670 C   0  0  0  0  0  0  0  0  0  0  0  0
    6.0853   -7.1236   -7.9429 C   0  0  0  0  0  0  0  0  0  0  0  0
    3.7430   -2.6346   -2.2061 C   0  0  0  0  0  0  0  0  0  0  0  0
    4.0672   -1.2640   -1.5996 C   0  0  0  0  0  0  0  0  0  0  0  0
    2.2431    1.0854    1.1081 H   0  0  0  0  0  0  0  0  0  0  0  0
    1.7837    0.0978   -0.3096 H   0  0  0  0  0  0  0  0  0  0  0  0
    3.1424    1.2420   -0.4308 H   0  0  0  0  0  0  0  0  0  0  0  0
    5.0992   -2.3881    1.3991 H   0  0  0  0  0  0  0  0  0  0  0  0
    6.1730   -2.0643    0.0091 H   0  0  0  0  0  0  0  0  0  0  0  0
    3.8578   -4.0868    0.1035 H   0  0  0  0  0  0  0  0  0  0  0  0
    5.5990   -4.4580   -0.0556 H   0  0  0  0  0  0  0  0  0  0  0  0
    6.7350   -5.8749   -3.9453 H   0  0  0  0  0  0  0  0  0  0  0  0
    5.7794   -4.7030   -6.5072 H   0  0  0  0  0  0  0  0  0  0  0  0
    8.6351   -7.1169   -5.9048 H   0  0  0  0  0  0  0  0  0  0  0  0
   11.0013   -6.5258   -6.3590 H   0  0  0  0  0  0  0  0  0  0  0  0
   11.5929   -4.2326   -7.1449 H   0  0  0  0  0  0  0  0  0  0  0  0
    9.7944   -2.5303   -7.4563 H   0  0  0  0  0  0  0  0  0  0  0  0
    7.4274   -3.1160   -6.9696 H   0  0  0  0  0  0  0  0  0  0  0  0
    5.2156   -7.5863   -4.6834 H   0  0  0  0  0  0  0  0  0  0  0  0
    4.4496   -9.7538   -5.6059 H   0  0  0  0  0  0  0  0  0  0  0  0
    4.7095  -10.2468   -8.0392 H   0  0  0  0  0  0  0  0  0  0  0  0
    5.7576   -8.5418   -9.5349 H   0  0  0  0  0  0  0  0  0  0  0  0
    6.5498   -6.3870   -8.6040 H   0  0  0  0  0  0  0  0  0  0  0  0
    2.7411   -2.9512   -1.8606 H   0  0  0  0  0  0  0  0  0  0  0  0
    3.7455   -2.5850   -3.2980 H   0  0  0  0  0  0  0  0  0  0  0  0
    3.2756   -0.5572   -1.8741 H   0  0  0  0  0  0  0  0  0  0  0  0
    5.0121   -0.8944   -2.0443 H   0  0  0  0  0  0  0  0  0  0  0  0
  1  2  1  0
  1 28  1  0
  1 29  1  0
  1 30  1  0
  2  3  2  0
  2  4  1  0
  4  5  1  0
  4 27  1  0
  5  6  1  0
  5 31  1  0
  5 32  1  0
  6  7  1  0
  6 33  1  0
  6 34  1  0
  7  8  1  0
  7 26  1  0
  8  9  2  0
  8 10  1  0
 10 11  2  0
 10 12  1  0
 12 13  1  0
 12 35  1  0
 13 14  1  0
 13 20  1  0
 13 36  1  6
 14 15  2  0
 14 19  1  0
 15 16  1  0
 15 37  1  0
 16 17  2  0
 16 38  1  0
 17 18  1  0
 17 39  1  0
 18 19  2  0
 18 40  1  0
 19 41  1  0
 20 21  2  0
 20 25  1  0
 21 22  1  0
 21 42  1  0
 22 23  2  0
 22 43  1  0
 23 24  1  0
 23 44  1  0
 24 25  2  0
 24 45  1  0
 25 46  1  0
 26 27  1  0
 26 47  1  0
 26 48  1  0
 27 49  1  0
 27 50  1  0
M  END

