
     RDKit          3D

 68 70  0  0  0  0  0  0  0  0999 V2000
    1.7562   -0.5796   -0.3671 C   0  0  0  0  0  0  0  0  0  0  0  0
    3.2581   -0.7453   -0.5839 C   0  0  1  0  0  0  0  0  0  0  0  0
    3.9263    0.5069   -0.7160 O   0  0  0  0  0  0  0  0  0  0  0  0
    3.9571    1.1760   -1.9090 C   0  0  0  0  0  0  0  0  0  0  0  0
    3.4001    0.7145   -3.1054 C   0  0  0  0  0  0  0  0  0  0  0  0
    3.5135    1.4842   -4.2721 C   0  0  0  0  0  0  0  0  0  0  0  0
    4.1690    2.7215   -4.2932 C   0  0  0  0  0  0  0  0  0  0  0  0
    4.3040    3.5859   -5.5614 C   0  0  1  0  0  0  0  0  0  0  0  0
    3.6461    2.9250   -6.7861 C   0  0  0  0  0  0  0  0  0  0  0  0
    3.6232    4.9545   -5.3272 C   0  0  0  0  0  0  0  0  0  0  0  0
    5.8015    3.8059   -5.8784 C   0  0  0  0  0  0  0  0  0  0  0  0
    4.7153    3.1643   -3.0710 C   0  0  0  0  0  0  0  0  0  0  0  0
    4.6150    2.4164   -1.9030 C   0  0  0  0  0  0  0  0  0  0  0  0
    3.8874   -1.5269    0.5825 C   0  0  0  0  0  0  0  0  0  0  0  0
    3.4324   -2.6096    0.9142 O   0  0  0  0  0  0  0  0  0  0  0  0
    4.9536   -0.9375    1.1816 N   0  0  0  0  0  0  0  0  0  0  0  0
    5.6308   -1.5463    2.3074 C   0  0  0  0  0  0  0  0  0  0  0  0
    6.6404   -2.6077    1.8719 C   0  0  0  0  0  0  0  0  0  0  0  0
    7.2771   -3.0818    3.0471 O   0  0  0  0  0  0  0  0  0  0  0  0
    8.2083   -4.0574    2.9704 C   0  0  0  0  0  0  0  0  0  0  0  0
    8.6128   -4.6730    1.7734 C   0  0  0  0  0  0  0  0  0  0  0  0
    9.5884   -5.6725    1.8025 C   0  0  0  0  0  0  0  0  0  0  0  0
   10.1641   -6.0545    3.0165 C   0  0  0  0  0  0  0  0  0  0  0  0
   11.4419   -7.3115    3.0393 S   0  0  1  0  0  0  0  0  0  0  0  0
   11.4401   -7.9155    4.3729 O   0  0  0  0  0  0  0  0  0  0  0  0
   11.2991   -8.1056    1.8176 O   0  0  0  0  0  0  0  0  0  0  0  0
   12.9236   -6.5170    2.8984 N   0  0  0  0  0  0  0  0  0  0  0  0
   13.4331   -5.7754    4.0513 C   0  0  0  0  0  0  0  0  0  0  0  0
   14.9443   -5.6130    3.8911 C   0  0  0  0  0  0  0  0  0  0  0  0
   15.2712   -5.0105    2.6558 O   0  0  0  0  0  0  0  0  0  0  0  0
   14.8091   -5.7767    1.5629 C   0  0  0  0  0  0  0  0  0  0  0  0
   13.2908   -5.9484    1.6024 C   0  0  0  0  0  0  0  0  0  0  0  0
    9.7510   -5.4568    4.2173 C   0  0  0  0  0  0  0  0  0  0  0  0
    8.7818   -4.4624    4.1918 C   0  0  0  0  0  0  0  0  0  0  0  0
    1.2767   -0.1167   -1.2415 H   0  0  0  0  0  0  0  0  0  0  0  0
    1.5713    0.0583    0.5108 H   0  0  0  0  0  0  0  0  0  0  0  0
    1.3069   -1.5659   -0.1874 H   0  0  0  0  0  0  0  0  0  0  0  0
    3.4446   -1.3656   -1.4789 H   0  0  0  0  0  0  0  0  0  0  0  0
    2.8706   -0.2373   -3.1544 H   0  0  0  0  0  0  0  0  0  0  0  0
    3.0642    1.0845   -5.1815 H   0  0  0  0  0  0  0  0  0  0  0  0
    2.5662    2.7673   -6.6381 H   0  0  0  0  0  0  0  0  0  0  0  0
    4.1051    1.9527   -7.0249 H   0  0  0  0  0  0  0  0  0  0  0  0
    3.7665    3.5722   -7.6691 H   0  0  0  0  0  0  0  0  0  0  0  0
    2.5513    4.8294   -5.1057 H   0  0  0  0  0  0  0  0  0  0  0  0
    3.7142    5.5899   -6.2237 H   0  0  0  0  0  0  0  0  0  0  0  0
    4.0768    5.5005   -4.4858 H   0  0  0  0  0  0  0  0  0  0  0  0
    6.3123    2.8464   -6.0578 H   0  0  0  0  0  0  0  0  0  0  0  0
    6.3257    4.3150   -5.0551 H   0  0  0  0  0  0  0  0  0  0  0  0
    5.9178    4.4280   -6.7812 H   0  0  0  0  0  0  0  0  0  0  0  0
    5.2361    4.1236   -3.0228 H   0  0  0  0  0  0  0  0  0  0  0  0
    5.0424    2.7799   -0.9658 H   0  0  0  0  0  0  0  0  0  0  0  0
    5.2424   -0.0338    0.8250 H   0  0  0  0  0  0  0  0  0  0  0  0
    4.8853   -2.0204    2.9637 H   0  0  0  0  0  0  0  0  0  0  0  0
    6.1476   -0.7648    2.8846 H   0  0  0  0  0  0  0  0  0  0  0  0
    7.3831   -2.1726    1.1772 H   0  0  0  0  0  0  0  0  0  0  0  0
    6.1129   -3.4265    1.3529 H   0  0  0  0  0  0  0  0  0  0  0  0
    8.1658   -4.3932    0.8196 H   0  0  0  0  0  0  0  0  0  0  0  0
    9.8878   -6.1762    0.8817 H   0  0  0  0  0  0  0  0  0  0  0  0
   13.2076   -6.3427    4.9644 H   0  0  0  0  0  0  0  0  0  0  0  0
   12.9630   -4.7730    4.1259 H   0  0  0  0  0  0  0  0  0  0  0  0
   15.4275   -6.6074    3.9761 H   0  0  0  0  0  0  0  0  0  0  0  0
   15.3419   -4.9614    4.6840 H   0  0  0  0  0  0  0  0  0  0  0  0
   15.2876   -6.7770    1.5619 H   0  0  0  0  0  0  0  0  0  0  0  0
   15.1069   -5.2451    0.6463 H   0  0  0  0  0  0  0  0  0  0  0  0
   12.9671   -6.6367    0.8098 H   0  0  0  0  0  0  0  0  0  0  0  0
   12.8060   -4.9631    1.4424 H   0  0  0  0  0  0  0  0  0  0  0  0
   10.1760   -5.7943    5.1641 H   0  0  0  0  0  0  0  0  0  0  0  0
    8.4354   -3.9847    5.1102 H   0  0  0  0  0  0  0  0  0  0  0  0
  1  2  1  0
  1 35  1  0
  1 36  1  0
  1 37  1  0
  2  3  1  0
  2 14  1  0
  2 38  1  6
  3  4  1  0
  4  5  2  0
  4 13  1  0
  5  6  1  0
  5 39  1  0
  6  7  2  0
  6 40  1  0
  7  8  1  0
  7 12  1  0
  8  9  1  6
  8 10  1  0
  8 11  1  0
  9 41  1  0
  9 42  1  0
  9 43  1  0
 10 44  1  0
 10 45  1  0
 10 46  1  0
 11 47  1  0
 11 48  1  0
 11 49  1  0
 12 13  2  0
 12 50  1  0
 13 51  1  0
 14 15  2  0
 14 16  1  0
 16 17  1  0
 16 52  1  0
 17 18  1  0
 17 53  1  0
 17 54  1  0
 18 19  1  0
 18 55  1  0
 18 56  1  0
 19 20  1  0
 20 21  2  0
 20 34  1  0
 21 22  1  0
 21 57  1  0
 22 23  2  0
 22 58  1  0
 24 23  1  1
 23 33  1  0
 24 25  2  0
 24 26  2  0
 24 27  1  0
 27 28  1  0
 27 32  1  0
 28 29  1  0
 28 59  1  0
 28 60  1  0
 29 30  1  0
 29 61  1  0
 29 62  1  0
 30 31  1  0
 31 32  1  0
 31 63  1  0
 31 64  1  0
 32 65  1  0
 32 66  1  0
 33 34  2  0
 33 67  1  0
 34 68  1  0
M  END

