
     RDKit          3D

 56 59  0  0  0  0  0  0  0  0999 V2000
   -0.6364   -0.0874  -13.5389 C   0  0  0  0  0  0  0  0  0  0  0  0
   -0.9677   -1.2029  -12.7463 O   0  0  0  0  0  0  0  0  0  0  0  0
    0.0120   -1.8371  -12.0497 C   0  0  0  0  0  0  0  0  0  0  0  0
   -0.3909   -2.9398  -11.2757 C   0  0  0  0  0  0  0  0  0  0  0  0
    0.5410   -3.6494  -10.5265 C   0  0  0  0  0  0  0  0  0  0  0  0
    1.9029   -3.2906  -10.5173 C   0  0  0  0  0  0  0  0  0  0  0  0
    2.9099   -4.0974   -9.7299 C   0  0  0  0  0  0  0  0  0  0  0  0
    3.3617   -5.3710  -10.4739 C   0  0  0  0  0  0  0  0  0  0  0  0
    4.3022   -6.1829   -9.7178 N   0  0  0  0  0  0  0  0  0  0  0  0
    3.8797   -7.0923   -8.8005 C   0  0  0  0  0  0  0  0  0  0  0  0
    2.7020   -7.3098   -8.5720 O   0  0  0  0  0  0  0  0  0  0  0  0
    4.9943   -7.8249   -8.0018 C   0  0  2  0  0  0  0  0  0  0  0  0
    5.3467   -7.1091   -7.2404 H   0  0  0  0  0  0  0  0  0  0  0  0
    6.2095   -8.3352   -8.8187 C   0  0  0  0  0  0  0  0  0  0  0  0
    7.1908   -7.2706   -9.2697 C   0  0  0  0  0  0  0  0  0  0  0  0
    7.4731   -7.0838  -10.6335 C   0  0  0  0  0  0  0  0  0  0  0  0
    8.3931   -6.1168  -11.0536 C   0  0  0  0  0  0  0  0  0  0  0  0
    9.0482   -5.3169  -10.1141 C   0  0  0  0  0  0  0  0  0  0  0  0
    8.7798   -5.4932   -8.7523 C   0  0  0  0  0  0  0  0  0  0  0  0
    7.8619   -6.4602   -8.3360 C   0  0  0  0  0  0  0  0  0  0  0  0
    4.3758   -8.8902   -7.2378 N   0  0  0  0  0  0  0  0  0  0  0  0
    3.7685  -10.0250   -7.8052 C   0  0  0  0  0  0  0  0  0  0  0  0
    3.8511  -10.3636   -8.9622 O   0  0  0  0  0  0  0  0  0  0  0  0
    3.0569  -10.7036   -6.6778 C   0  0  0  0  0  0  0  0  0  0  0  0
    2.3218  -11.8828   -6.6619 C   0  0  0  0  0  0  0  0  0  0  0  0
    1.7607  -12.2787   -5.4384 C   0  0  0  0  0  0  0  0  0  0  0  0
    1.9403  -11.5113   -4.2776 C   0  0  0  0  0  0  0  0  0  0  0  0
    2.6864  -10.3235   -4.3037 C   0  0  0  0  0  0  0  0  0  0  0  0
    3.2363   -9.9396   -5.5212 C   0  0  0  0  0  0  0  0  0  0  0  0
    4.0619   -8.7456   -5.8753 C   0  0  0  0  0  0  0  0  0  0  0  0
    4.4196   -7.8292   -5.1723 O   0  0  0  0  0  0  0  0  0  0  0  0
    2.2867   -2.1916  -11.2937 C   0  0  0  0  0  0  0  0  0  0  0  0
    1.3631   -1.4629  -12.0544 C   0  0  0  0  0  0  0  0  0  0  0  0
   -1.5706    0.2577  -14.0025 H   0  0  0  0  0  0  0  0  0  0  0  0
    0.0830   -0.3463  -14.3374 H   0  0  0  0  0  0  0  0  0  0  0  0
   -0.2122    0.7367  -12.9363 H   0  0  0  0  0  0  0  0  0  0  0  0
   -1.4476   -3.2156  -11.2777 H   0  0  0  0  0  0  0  0  0  0  0  0
    0.2064   -4.5012   -9.9267 H   0  0  0  0  0  0  0  0  0  0  0  0
    2.4759   -4.4075   -8.7658 H   0  0  0  0  0  0  0  0  0  0  0  0
    3.7955   -3.4804   -9.5030 H   0  0  0  0  0  0  0  0  0  0  0  0
    3.8293   -5.1023  -11.4343 H   0  0  0  0  0  0  0  0  0  0  0  0
    2.4824   -5.9935  -10.6941 H   0  0  0  0  0  0  0  0  0  0  0  0
    5.2952   -6.0065   -9.8213 H   0  0  0  0  0  0  0  0  0  0  0  0
    5.8496   -8.9173   -9.6779 H   0  0  0  0  0  0  0  0  0  0  0  0
    6.7433   -9.0440   -8.1640 H   0  0  0  0  0  0  0  0  0  0  0  0
    6.9662   -7.7085  -11.3743 H   0  0  0  0  0  0  0  0  0  0  0  0
    8.5990   -5.9916  -12.1199 H   0  0  0  0  0  0  0  0  0  0  0  0
    9.7672   -4.5610  -10.4397 H   0  0  0  0  0  0  0  0  0  0  0  0
    9.2917   -4.8766   -8.0089 H   0  0  0  0  0  0  0  0  0  0  0  0
    7.6711   -6.5929   -7.2668 H   0  0  0  0  0  0  0  0  0  0  0  0
    2.1875  -12.4704   -7.5726 H   0  0  0  0  0  0  0  0  0  0  0  0
    1.1725  -13.1983   -5.3863 H   0  0  0  0  0  0  0  0  0  0  0  0
    1.4893  -11.8453   -3.3398 H   0  0  0  0  0  0  0  0  0  0  0  0
    2.8317   -9.7167   -3.4074 H   0  0  0  0  0  0  0  0  0  0  0  0
    3.3363   -1.8816  -11.3052 H   0  0  0  0  0  0  0  0  0  0  0  0
    1.7090   -0.6096  -12.6383 H   0  0  0  0  0  0  0  0  0  0  0  0
  1  2  1  0
  1 34  1  0
  1 35  1  0
  1 36  1  0
  2  3  1  0
  3  4  2  0
  3 33  1  0
  4  5  1  0
  4 37  1  0
  5  6  2  0
  5 38  1  0
  6  7  1  0
  6 32  1  0
  7  8  1  0
  7 39  1  0
  7 40  1  0
  8  9  1  0
  8 41  1  0
  8 42  1  0
  9 10  1  0
  9 43  1  0
 10 11  2  0
 10 12  1  0
 12 13  1  1
 12 14  1  0
 12 21  1  0
 14 15  1  0
 14 44  1  0
 14 45  1  0
 15 16  2  0
 15 20  1  0
 16 17  1  0
 16 46  1  0
 17 18  2  0
 17 47  1  0
 18 19  1  0
 18 48  1  0
 19 20  2  0
 19 49  1  0
 20 50  1  0
 21 22  1  0
 21 30  1  0
 22 23  2  0
 22 24  1  0
 24 25  1  0
 24 29  2  0
 25 26  2  0
 25 51  1  0
 26 27  1  0
 26 52  1  0
 27 28  2  0
 27 53  1  0
 28 29  1  0
 28 54  1  0
 29 30  1  0
 30 31  2  0
 32 33  2  0
 32 55  1  0
 33 56  1  0
M  END

