
     RDKit          3D

 59 63  0  0  0  0  0  0  0  0999 V2000
    3.3623    2.6720   -0.4813 C   0  0  0  0  0  0  0  0  0  0  0  0
    3.8614    1.2273   -0.4879 C   0  0  0  0  0  0  0  0  0  0  0  0
    4.4915    0.8195    0.8352 C   0  0  0  0  0  0  0  0  0  0  0  0
    4.9193   -0.5286    0.7273 O   0  0  0  0  0  0  0  0  0  0  0  0
    5.5247   -1.1341    1.7762 C   0  0  0  0  0  0  0  0  0  0  0  0
    5.7695   -0.5260    3.0181 C   0  0  0  0  0  0  0  0  0  0  0  0
    6.4053   -1.2420    4.0343 C   0  0  0  0  0  0  0  0  0  0  0  0
    6.8073   -2.5801    3.8560 C   0  0  0  0  0  0  0  0  0  0  0  0
    7.5115   -3.3140    4.9120 C   0  0  0  0  0  0  0  0  0  0  0  0
    7.5972   -4.6641    5.1823 C   0  0  0  0  0  0  0  0  0  0  0  0
    6.8956   -5.7399    4.7087 N   0  0  0  0  0  0  0  0  0  0  0  0
    7.4393   -7.1228    4.6835 C   0  0  0  0  0  0  0  0  0  0  0  0
    6.5174   -7.8622    3.6944 C   0  0  0  0  0  0  0  0  0  0  0  0
    5.2533   -7.0362    3.7410 C   0  0  0  0  0  0  0  0  0  0  0  0
    3.9624   -7.3309    3.3200 C   0  0  0  0  0  0  0  0  0  0  0  0
    2.9515   -6.3700    3.4819 C   0  0  0  0  0  0  0  0  0  0  0  0
    3.2464   -5.1353    4.0669 C   0  0  0  0  0  0  0  0  0  0  0  0
    4.5439   -4.8220    4.4935 C   0  0  0  0  0  0  0  0  0  0  0  0
    5.5441   -5.7835    4.3162 C   0  0  0  0  0  0  0  0  0  0  0  0
    8.6405   -4.8740    6.2626 C   0  0  0  0  0  0  0  0  0  0  0  0
    9.0092   -5.9191    6.7576 O   0  0  0  0  0  0  0  0  0  0  0  0
    9.0906   -3.6168    6.6138 N   0  0  0  0  0  0  0  0  0  0  0  0
   10.1278   -3.3536    7.6034 C   0  0  0  0  0  0  0  0  0  0  0  0
   11.5352   -3.3708    7.0367 C   0  0  0  0  0  0  0  0  0  0  0  0
   12.0827   -2.2170    6.4529 C   0  0  0  0  0  0  0  0  0  0  0  0
   13.3709   -2.2285    5.9144 C   0  0  0  0  0  0  0  0  0  0  0  0
   14.1098   -3.4090    5.9629 C   0  0  0  0  0  0  0  0  0  0  0  0
   15.3498   -3.4260    5.4502 F   0  0  0  0  0  0  0  0  0  0  0  0
   13.5937   -4.5718    6.5302 C   0  0  0  0  0  0  0  0  0  0  0  0
   12.3030   -4.5450    7.0643 C   0  0  0  0  0  0  0  0  0  0  0  0
    8.4572   -2.6261    5.8440 C   0  0  0  0  0  0  0  0  0  0  0  0
    8.6975   -1.4421    5.9582 O   0  0  0  0  0  0  0  0  0  0  0  0
    6.5524   -3.1719    2.5967 C   0  0  0  0  0  0  0  0  0  0  0  0
    5.9294   -2.4667    1.5772 C   0  0  0  0  0  0  0  0  0  0  0  0
    2.9125    2.9390   -1.4498 H   0  0  0  0  0  0  0  0  0  0  0  0
    4.1826    3.3840   -0.2903 H   0  0  0  0  0  0  0  0  0  0  0  0
    2.5956    2.8333    0.2950 H   0  0  0  0  0  0  0  0  0  0  0  0
    4.6068    1.0808   -1.2876 H   0  0  0  0  0  0  0  0  0  0  0  0
    3.0317    0.5339   -0.7065 H   0  0  0  0  0  0  0  0  0  0  0  0
    3.7610    0.9222    1.6610 H   0  0  0  0  0  0  0  0  0  0  0  0
    5.3520    1.4739    1.0739 H   0  0  0  0  0  0  0  0  0  0  0  0
    5.4741    0.5063    3.2055 H   0  0  0  0  0  0  0  0  0  0  0  0
    6.6050   -0.7467    4.9840 H   0  0  0  0  0  0  0  0  0  0  0  0
    7.3838   -7.5630    5.6912 H   0  0  0  0  0  0  0  0  0  0  0  0
    8.4950   -7.1126    4.3854 H   0  0  0  0  0  0  0  0  0  0  0  0
    6.3639   -8.9126    3.9832 H   0  0  0  0  0  0  0  0  0  0  0  0
    6.9444   -7.8610    2.6750 H   0  0  0  0  0  0  0  0  0  0  0  0
    3.7351   -8.3032    2.8745 H   0  0  0  0  0  0  0  0  0  0  0  0
    1.9320   -6.5909    3.1575 H   0  0  0  0  0  0  0  0  0  0  0  0
    2.4528   -4.3962    4.2016 H   0  0  0  0  0  0  0  0  0  0  0  0
    4.7559   -3.8621    4.9611 H   0  0  0  0  0  0  0  0  0  0  0  0
   10.0249   -4.1162    8.3882 H   0  0  0  0  0  0  0  0  0  0  0  0
    9.9037   -2.3690    8.0368 H   0  0  0  0  0  0  0  0  0  0  0  0
   11.4856   -1.3026    6.4118 H   0  0  0  0  0  0  0  0  0  0  0  0
   13.8109   -1.3388    5.4595 H   0  0  0  0  0  0  0  0  0  0  0  0
   14.2039   -5.4769    6.5475 H   0  0  0  0  0  0  0  0  0  0  0  0
   11.8808   -5.4531    7.5021 H   0  0  0  0  0  0  0  0  0  0  0  0
    6.8727   -4.1977    2.4083 H   0  0  0  0  0  0  0  0  0  0  0  0
    5.7424   -2.9258    0.6044 H   0  0  0  0  0  0  0  0  0  0  0  0
  1  2  1  0
  1 35  1  0
  1 36  1  0
  1 37  1  0
  2  3  1  0
  2 38  1  0
  2 39  1  0
  3  4  1  0
  3 40  1  0
  3 41  1  0
  4  5  1  0
  5  6  2  0
  5 34  1  0
  6  7  1  0
  6 42  1  0
  7  8  2  0
  7 43  1  0
  8  9  1  0
  8 33  1  0
  9 10  2  0
  9 31  1  0
 10 11  1  0
 10 20  1  0
 11 12  1  0
 11 19  1  0
 12 13  1  0
 12 44  1  0
 12 45  1  0
 13 14  1  0
 13 46  1  0
 13 47  1  0
 14 15  1  0
 14 19  2  0
 15 16  2  0
 15 48  1  0
 16 17  1  0
 16 49  1  0
 17 18  2  0
 17 50  1  0
 18 19  1  0
 18 51  1  0
 20 21  2  0
 20 22  1  0
 22 23  1  0
 22 31  1  0
 23 24  1  0
 23 52  1  0
 23 53  1  0
 24 25  2  0
 24 30  1  0
 25 26  1  0
 25 54  1  0
 26 27  2  0
 26 55  1  0
 27 28  1  0
 27 29  1  0
 29 30  2  0
 29 56  1  0
 30 57  1  0
 31 32  2  0
 33 34  2  0
 33 58  1  0
 34 59  1  0
M  END

