
     RDKit          3D

 28 29  0  0  0  0  0  0  0  0999 V2000
    0.9758    0.3258   -0.4953 C   0  0  0  0  0  0  0  0  0  0  0  0
    2.1008   -0.0937    0.2432 O   0  0  0  0  0  0  0  0  0  0  0  0
    2.8100    0.8088    0.9663 C   0  0  0  0  0  0  0  0  0  0  0  0
    2.5346    2.1804    0.9597 C   0  0  0  0  0  0  0  0  0  0  0  0
    3.3052    3.0780    1.7294 C   0  0  0  0  0  0  0  0  0  0  0  0
    2.9867    4.4245    1.7555 N   0  0  0  0  0  0  0  0  0  0  0  0
    4.3704    2.5710    2.4964 C   0  0  0  0  0  0  0  0  0  0  0  0
    4.6478    1.2056    2.4828 C   0  0  0  0  0  0  0  0  0  0  0  0
    3.8877    0.2984    1.7342 C   0  0  0  0  0  0  0  0  0  0  0  0
    4.2114   -1.4478    1.8685 S   0  0  0  0  0  0  0  0  0  0  0  0
    4.7735   -1.8536    0.1490 C   0  0  0  0  0  0  0  0  0  0  0  0
    4.8898   -3.3322   -0.0372 C   0  0  0  0  0  0  0  0  0  0  0  0
    5.9812   -3.9454   -0.3979 N   0  0  0  0  0  0  0  0  0  0  0  0
    5.7866   -5.2968   -0.5123 C   0  0  0  0  0  0  0  0  0  0  0  0
    4.5224   -5.7429   -0.2300 C   0  0  0  0  0  0  0  0  0  0  0  0
    3.5148   -4.4063    0.2072 S   0  0  0  0  0  0  0  0  0  0  0  0
    0.5493   -0.5772   -0.9524 H   0  0  0  0  0  0  0  0  0  0  0  0
    1.2490    1.0367   -1.2959 H   0  0  0  0  0  0  0  0  0  0  0  0
    0.2130    0.7940    0.1519 H   0  0  0  0  0  0  0  0  0  0  0  0
    1.7096    2.5754    0.3659 H   0  0  0  0  0  0  0  0  0  0  0  0
    2.4399    4.7883    0.9848 H   0  0  0  0  0  0  0  0  0  0  0  0
    3.7066    5.0593    2.0786 H   0  0  0  0  0  0  0  0  0  0  0  0
    4.9798    3.2491    3.0992 H   0  0  0  0  0  0  0  0  0  0  0  0
    5.4805    0.8162    3.0731 H   0  0  0  0  0  0  0  0  0  0  0  0
    5.7611   -1.4134   -0.0443 H   0  0  0  0  0  0  0  0  0  0  0  0
    4.0340   -1.4243   -0.5426 H   0  0  0  0  0  0  0  0  0  0  0  0
    6.6192   -5.9380   -0.8087 H   0  0  0  0  0  0  0  0  0  0  0  0
    4.1433   -6.7633   -0.2448 H   0  0  0  0  0  0  0  0  0  0  0  0
  1  2  1  0
  1 17  1  0
  1 18  1  0
  1 19  1  0
  2  3  1  0
  3  4  2  0
  3  9  1  0
  4  5  1  0
  4 20  1  0
  5  6  1  0
  5  7  2  0
  6 21  1  0
  6 22  1  0
  7  8  1  0
  7 23  1  0
  8  9  2  0
  8 24  1  0
  9 10  1  0
 10 11  1  0
 11 12  1  0
 11 25  1  0
 11 26  1  0
 12 13  2  0
 12 16  1  0
 13 14  1  0
 14 15  2  0
 14 27  1  0
 15 16  1  0
 15 28  1  0
M  END

