
     RDKit          3D

 51 53  0  0  0  0  0  0  0  0999 V2000
    1.9957   -1.4885    1.4970 C   0  0  0  0  0  0  0  0  0  0  0  0
    2.0795   -2.0764    0.0920 C   0  0  0  0  0  0  0  0  0  0  0  0
    2.8716   -1.2434   -0.8373 N   0  0  0  0  0  0  0  0  0  0  0  0
    2.2280   -0.3397   -1.7400 C   0  0  0  0  0  0  0  0  0  0  0  0
    1.2570   -0.8093   -2.6408 C   0  0  0  0  0  0  0  0  0  0  0  0
    0.6041    0.0787   -3.4986 C   0  0  0  0  0  0  0  0  0  0  0  0
    0.9287    1.4388   -3.4818 C   0  0  0  0  0  0  0  0  0  0  0  0
    1.9054    1.9065   -2.5971 C   0  0  0  0  0  0  0  0  0  0  0  0
    2.5478    1.0268   -1.7234 C   0  0  0  0  0  0  0  0  0  0  0  0
    4.5103   -1.5847   -1.0158 S   0  0  1  0  0  0  0  0  0  0  0  0
    5.1416   -0.4241   -1.6410 O   0  0  0  0  0  0  0  0  0  0  0  0
    4.9672   -2.1248    0.2673 O   0  0  0  0  0  0  0  0  0  0  0  0
    4.5871   -2.9342   -2.2062 C   0  0  0  0  0  0  0  0  0  0  0  0
    4.5184   -2.6607   -3.5765 C   0  0  0  0  0  0  0  0  0  0  0  0
    4.5277   -3.7324   -4.4673 C   0  0  0  0  0  0  0  0  0  0  0  0
    4.5860   -5.0432   -3.9870 C   0  0  0  0  0  0  0  0  0  0  0  0
    4.5573   -6.3701   -5.1295 Cl  0  0  0  0  0  0  0  0  0  0  0  0
    4.6722   -5.3254   -2.6059 C   0  0  0  0  0  0  0  0  0  0  0  0
    4.7729   -6.6558   -2.1788 N   0  0  0  0  0  0  0  0  0  0  0  0
    4.3883   -7.3053   -1.0174 C   0  0  0  0  0  0  0  0  0  0  0  0
    4.7541   -8.4438   -0.8059 O   0  0  0  0  0  0  0  0  0  0  0  0
    3.4776   -6.5951   -0.0097 C   0  0  0  0  0  0  0  0  0  0  0  0
    2.4938   -5.7484   -0.5864 O   0  0  0  0  0  0  0  0  0  0  0  0
    1.2886   -6.3124   -0.9157 C   0  0  0  0  0  0  0  0  0  0  0  0
    1.0801   -6.8751   -2.1806 C   0  0  0  0  0  0  0  0  0  0  0  0
   -0.1703   -7.3943   -2.5247 C   0  0  0  0  0  0  0  0  0  0  0  0
   -1.2233   -7.3518   -1.6064 C   0  0  0  0  0  0  0  0  0  0  0  0
   -1.0292   -6.7904   -0.3418 C   0  0  0  0  0  0  0  0  0  0  0  0
    0.2229   -6.2750    0.0022 C   0  0  0  0  0  0  0  0  0  0  0  0
    0.4762   -5.5721    1.5813 Cl  0  0  0  0  0  0  0  0  0  0  0  0
    4.6999   -4.2349   -1.7232 C   0  0  0  0  0  0  0  0  0  0  0  0
    1.3821   -2.1407    2.1393 H   0  0  0  0  0  0  0  0  0  0  0  0
    1.5360   -0.4875    1.4820 H   0  0  0  0  0  0  0  0  0  0  0  0
    3.0004   -1.4075    1.9358 H   0  0  0  0  0  0  0  0  0  0  0  0
    1.0737   -2.1784   -0.3418 H   0  0  0  0  0  0  0  0  0  0  0  0
    2.4987   -3.0926    0.1230 H   0  0  0  0  0  0  0  0  0  0  0  0
    1.0156   -1.8745   -2.6674 H   0  0  0  0  0  0  0  0  0  0  0  0
   -0.1544   -0.2966   -4.1903 H   0  0  0  0  0  0  0  0  0  0  0  0
    0.4213    2.1325   -4.1568 H   0  0  0  0  0  0  0  0  0  0  0  0
    2.1643    2.9681   -2.5782 H   0  0  0  0  0  0  0  0  0  0  0  0
    3.3087    1.3832   -1.0294 H   0  0  0  0  0  0  0  0  0  0  0  0
    4.4759   -1.6316   -3.9350 H   0  0  0  0  0  0  0  0  0  0  0  0
    4.4818   -3.5637   -5.5443 H   0  0  0  0  0  0  0  0  0  0  0  0
    5.2152   -7.2962   -2.8356 H   0  0  0  0  0  0  0  0  0  0  0  0
    4.0896   -5.9731    0.6636 H   0  0  0  0  0  0  0  0  0  0  0  0
    3.0246   -7.3924    0.5979 H   0  0  0  0  0  0  0  0  0  0  0  0
    1.9106   -6.8930   -2.8890 H   0  0  0  0  0  0  0  0  0  0  0  0
   -0.3208   -7.8308   -3.5147 H   0  0  0  0  0  0  0  0  0  0  0  0
   -2.2034   -7.7549   -1.8719 H   0  0  0  0  0  0  0  0  0  0  0  0
   -1.8410   -6.7470    0.3863 H   0  0  0  0  0  0  0  0  0  0  0  0
    4.8274   -4.3838   -0.6535 H   0  0  0  0  0  0  0  0  0  0  0  0
  1  2  1  0
  1 32  1  0
  1 33  1  0
  1 34  1  0
  2  3  1  0
  2 35  1  0
  2 36  1  0
  3  4  1  0
 10  3  1  1
  4  5  2  0
  4  9  1  0
  5  6  1  0
  5 37  1  0
  6  7  2  0
  6 38  1  0
  7  8  1  0
  7 39  1  0
  8  9  2  0
  8 40  1  0
  9 41  1  0
 10 11  2  0
 10 12  2  0
 10 13  1  0
 13 14  2  0
 13 31  1  0
 14 15  1  0
 14 42  1  0
 15 16  2  0
 15 43  1  0
 16 17  1  0
 16 18  1  0
 18 19  1  0
 18 31  2  0
 19 20  1  0
 19 44  1  0
 20 21  2  0
 20 22  1  0
 22 23  1  0
 22 45  1  0
 22 46  1  0
 23 24  1  0
 24 25  2  0
 24 29  1  0
 25 26  1  0
 25 47  1  0
 26 27  2  0
 26 48  1  0
 27 28  1  0
 27 49  1  0
 28 29  2  0
 28 50  1  0
 29 30  1  0
 31 51  1  0
M  END

