
     RDKit          3D

 43 44  0  0  0  0  0  0  0  0999 V2000
    1.1720    3.4656    0.6830 C   0  0  0  0  0  0  0  0  0  0  0  0
    2.5283    3.1859    0.4635 O   0  0  0  0  0  0  0  0  0  0  0  0
    2.7714    1.8543    0.1317 C   0  0  0  0  0  0  0  0  0  0  0  0
    4.2401    1.6237   -0.1464 C   0  0  0  0  0  0  0  0  0  0  0  0
    5.0191    2.6621   -0.4182 N   0  0  0  0  0  0  0  0  0  0  0  0
    6.3138    2.4342   -0.6826 C   0  0  0  0  0  0  0  0  0  0  0  0
    7.1634    3.6166   -0.9803 C   0  0  0  0  0  0  0  0  0  0  0  0
    6.6108    4.9092   -0.9525 C   0  0  0  0  0  0  0  0  0  0  0  0
    7.3964    6.0267   -1.2294 C   0  0  0  0  0  0  0  0  0  0  0  0
    8.7497    5.8542   -1.5386 C   0  0  0  0  0  0  0  0  0  0  0  0
    9.7412    7.2518   -1.8874 Cl  0  0  0  0  0  0  0  0  0  0  0  0
    9.3202    4.5774   -1.5720 C   0  0  0  0  0  0  0  0  0  0  0  0
    8.5254    3.4669   -1.2927 C   0  0  0  0  0  0  0  0  0  0  0  0
    6.8858    1.2243   -0.6955 N   0  0  0  0  0  0  0  0  0  0  0  0
    6.1326    0.1538   -0.4282 C   0  0  0  0  0  0  0  0  0  0  0  0
    6.7874   -1.2153   -0.4810 C   0  0  1  0  0  0  0  0  0  0  0  0
    7.0021   -1.6229   -1.9516 C   0  0  0  0  0  0  0  0  0  0  0  0
    8.1000   -1.2434    0.3140 C   0  0  0  0  0  0  0  0  0  0  0  0
    4.7710    0.3246   -0.1469 C   0  0  0  0  0  0  0  0  0  0  0  0
    3.9762   -0.7623    0.1980 O   0  0  0  0  0  0  0  0  0  0  0  0
    3.2133   -1.3265   -0.7689 C   0  0  0  0  0  0  0  0  0  0  0  0
    3.1348   -0.9505   -1.9077 O   0  0  0  0  0  0  0  0  0  0  0  0
    2.5754   -2.3583   -0.2267 O   0  0  0  0  0  0  0  0  0  0  0  0
    1.7101   -3.0847   -1.1031 C   0  0  0  0  0  0  0  0  0  0  0  0
    1.0881    4.5326    0.9346 H   0  0  0  0  0  0  0  0  0  0  0  0
    0.7528    2.8712    1.5211 H   0  0  0  0  0  0  0  0  0  0  0  0
    0.5548    3.2648   -0.2168 H   0  0  0  0  0  0  0  0  0  0  0  0
    2.2057    1.5527   -0.7787 H   0  0  0  0  0  0  0  0  0  0  0  0
    2.4455    1.1643    0.9390 H   0  0  0  0  0  0  0  0  0  0  0  0
    5.5532    5.0184   -0.7076 H   0  0  0  0  0  0  0  0  0  0  0  0
    6.9689    7.0305   -1.2072 H   0  0  0  0  0  0  0  0  0  0  0  0
   10.3777    4.4623   -1.8154 H   0  0  0  0  0  0  0  0  0  0  0  0
    8.9532    2.4640   -1.3141 H   0  0  0  0  0  0  0  0  0  0  0  0
    6.0891   -1.9330   -0.0231 H   0  0  0  0  0  0  0  0  0  0  0  0
    7.6806   -0.9133   -2.4508 H   0  0  0  0  0  0  0  0  0  0  0  0
    6.0524   -1.6324   -2.5092 H   0  0  0  0  0  0  0  0  0  0  0  0
    7.4484   -2.6284   -2.0116 H   0  0  0  0  0  0  0  0  0  0  0  0
    8.8204   -0.5215   -0.0979 H   0  0  0  0  0  0  0  0  0  0  0  0
    8.5496   -2.2481    0.2715 H   0  0  0  0  0  0  0  0  0  0  0  0
    7.9349   -0.9892    1.3729 H   0  0  0  0  0  0  0  0  0  0  0  0
    1.2726   -3.8865   -0.4965 H   0  0  0  0  0  0  0  0  0  0  0  0
    2.2761   -3.5087   -1.9459 H   0  0  0  0  0  0  0  0  0  0  0  0
    0.9192   -2.4312   -1.5004 H   0  0  0  0  0  0  0  0  0  0  0  0
  1  2  1  0
  1 25  1  0
  1 26  1  0
  1 27  1  0
  2  3  1  0
  3  4  1  0
  3 28  1  0
  3 29  1  0
  4  5  2  0
  4 19  1  0
  5  6  1  0
  6  7  1  0
  6 14  2  0
  7  8  2  0
  7 13  1  0
  8  9  1  0
  8 30  1  0
  9 10  2  0
  9 31  1  0
 10 11  1  0
 10 12  1  0
 12 13  2  0
 12 32  1  0
 13 33  1  0
 14 15  1  0
 15 16  1  0
 15 19  2  0
 16 17  1  0
 16 18  1  0
 16 34  1  1
 17 35  1  0
 17 36  1  0
 17 37  1  0
 18 38  1  0
 18 39  1  0
 18 40  1  0
 19 20  1  0
 20 21  1  0
 21 22  2  0
 21 23  1  0
 23 24  1  0
 24 41  1  0
 24 42  1  0
 24 43  1  0
M  END

