
     RDKit          3D

 52 54  0  0  0  0  0  0  0  0999 V2000
    0.9803    0.1704   -0.8925 C   0  0  0  0  0  0  0  0  0  0  0  0
    2.4821    0.2162   -0.7561 C   0  0  0  0  0  0  0  0  0  0  0  0
    3.1732    1.4227   -0.9136 C   0  0  0  0  0  0  0  0  0  0  0  0
    4.5598    1.4988   -0.7843 C   0  0  0  0  0  0  0  0  0  0  0  0
    5.2895    0.3363   -0.5013 C   0  0  0  0  0  0  0  0  0  0  0  0
    6.7895    0.3292   -0.4543 C   0  0  0  0  0  0  0  0  0  0  0  0
    7.4069   -0.6209   -0.9489 O   0  0  0  0  0  0  0  0  0  0  0  0
    7.4362    1.4042    0.0948 N   0  0  0  0  0  0  0  0  0  0  0  0
    6.9327    2.1016    1.2862 C   0  0  0  0  0  0  0  0  0  0  0  0
    7.7532    1.6995    2.5210 C   0  0  0  0  0  0  0  0  0  0  0  0
    9.2534    1.9301    2.3119 C   0  0  0  0  0  0  0  0  0  0  0  0
    9.7673    1.2609    1.0164 C   0  0  1  0  0  0  0  0  0  0  0  0
   10.7728    1.6686    0.8159 H   0  0  0  0  0  0  0  0  0  0  0  0
   10.0565   -0.2402    1.2758 C   0  0  0  0  0  0  0  0  0  0  0  0
   10.8263   -0.5285    2.1616 O   0  0  0  0  0  0  0  0  0  0  0  0
    9.5002   -1.1815    0.5232 O   0  0  0  0  0  0  0  0  0  0  0  0
    8.8696    1.6903   -0.1655 C   0  0  1  0  0  0  0  0  0  0  0  0
    8.9021    2.7952   -0.1392 H   0  0  0  0  0  0  0  0  0  0  0  0
    9.3868    1.3114   -1.5565 C   0  0  0  0  0  0  0  0  0  0  0  0
    4.6268   -0.8906   -0.3632 C   0  0  0  0  0  0  0  0  0  0  0  0
    3.2292   -0.9589   -0.4735 C   0  0  0  0  0  0  0  0  0  0  0  0
    2.5097   -2.1584   -0.3245 N   0  0  0  0  0  0  0  0  0  0  0  0
    2.9808   -3.4072    0.0093 C   0  0  0  0  0  0  0  0  0  0  0  0
    4.1548   -3.6532    0.2262 O   0  0  0  0  0  0  0  0  0  0  0  0
    1.9482   -4.5134    0.1049 C   0  0  0  0  0  0  0  0  0  0  0  0
    2.4429   -5.7904    0.4304 C   0  0  0  0  0  0  0  0  0  0  0  0
    1.6024   -6.8943    0.5513 C   0  0  0  0  0  0  0  0  0  0  0  0
    0.2256   -6.7483    0.3478 C   0  0  0  0  0  0  0  0  0  0  0  0
   -0.2996   -5.4965    0.0244 C   0  0  0  0  0  0  0  0  0  0  0  0
    0.5628   -4.4110   -0.0902 C   0  0  0  0  0  0  0  0  0  0  0  0
   -0.0003   -3.2158   -0.4061 F   0  0  0  0  0  0  0  0  0  0  0  0
    0.5731    1.1695   -1.0995 H   0  0  0  0  0  0  0  0  0  0  0  0
    0.4936   -0.2015    0.0261 H   0  0  0  0  0  0  0  0  0  0  0  0
    0.6604   -0.4921   -1.7162 H   0  0  0  0  0  0  0  0  0  0  0  0
    2.6043    2.3263   -1.1483 H   0  0  0  0  0  0  0  0  0  0  0  0
    5.0721    2.4521   -0.9280 H   0  0  0  0  0  0  0  0  0  0  0  0
    5.8744    1.8576    1.4328 H   0  0  0  0  0  0  0  0  0  0  0  0
    7.0038    3.1923    1.1204 H   0  0  0  0  0  0  0  0  0  0  0  0
    7.5616    0.6346    2.7417 H   0  0  0  0  0  0  0  0  0  0  0  0
    7.3955    2.2716    3.3934 H   0  0  0  0  0  0  0  0  0  0  0  0
    9.8355    1.5504    3.1634 H   0  0  0  0  0  0  0  0  0  0  0  0
    9.4464    3.0156    2.2447 H   0  0  0  0  0  0  0  0  0  0  0  0
    8.7749   -0.8962   -0.0991 H   0  0  0  0  0  0  0  0  0  0  0  0
    9.5792    0.2408   -1.6822 H   0  0  0  0  0  0  0  0  0  0  0  0
   10.3316    1.8518   -1.7249 H   0  0  0  0  0  0  0  0  0  0  0  0
    8.6771    1.6254   -2.3366 H   0  0  0  0  0  0  0  0  0  0  0  0
    5.1971   -1.7955   -0.1723 H   0  0  0  0  0  0  0  0  0  0  0  0
    1.5110   -2.0913   -0.4716 H   0  0  0  0  0  0  0  0  0  0  0  0
    3.5202   -5.8743    0.5838 H   0  0  0  0  0  0  0  0  0  0  0  0
    2.0200   -7.8711    0.8047 H   0  0  0  0  0  0  0  0  0  0  0  0
   -0.4431   -7.6074    0.4401 H   0  0  0  0  0  0  0  0  0  0  0  0
   -1.3669   -5.3402   -0.1419 H   0  0  0  0  0  0  0  0  0  0  0  0
  1  2  1  0
  1 32  1  0
  1 33  1  0
  1 34  1  0
  2  3  2  0
  2 21  1  0
  3  4  1  0
  3 35  1  0
  4  5  2  0
  4 36  1  0
  5  6  1  0
  5 20  1  0
  6  7  2  0
  6  8  1  0
  8  9  1  0
  8 17  1  0
  9 10  1  0
  9 37  1  0
  9 38  1  0
 10 11  1  0
 10 39  1  0
 10 40  1  0
 11 12  1  0
 11 41  1  0
 11 42  1  0
 12 13  1  6
 12 14  1  0
 12 17  1  0
 14 15  2  0
 14 16  1  0
 16 43  1  0
 17 18  1  6
 17 19  1  0
 19 44  1  0
 19 45  1  0
 19 46  1  0
 20 21  2  0
 20 47  1  0
 21 22  1  0
 22 23  1  0
 22 48  1  0
 23 24  2  0
 23 25  1  0
 25 26  2  0
 25 30  1  0
 26 27  1  0
 26 49  1  0
 27 28  2  0
 27 50  1  0
 28 29  1  0
 28 51  1  0
 29 30  2  0
 29 52  1  0
 30 31  1  0
M  END

