
     RDKit          3D

 66 68  0  0  0  0  0  0  0  0999 V2000
    2.8172    2.7141    0.6926 C   0  0  0  0  0  0  0  0  0  0  0  0
    3.1424    1.7702   -0.2939 O   0  0  0  0  0  0  0  0  0  0  0  0
    4.3519    1.0807   -0.0492 C   0  0  0  0  0  0  0  0  0  0  0  0
    4.6317    0.0938   -1.1708 C   0  0  0  0  0  0  0  0  0  0  0  0
    4.9175    0.7279   -2.4574 N   0  0  0  0  0  0  0  0  0  0  0  0
    3.7712    1.0995   -3.2612 C   0  0  0  0  0  0  0  0  0  0  0  0
    3.2271   -0.0815   -4.0830 C   0  0  0  0  0  0  0  0  0  0  0  0
    3.7788   -1.1669   -4.1158 O   0  0  0  0  0  0  0  0  0  0  0  0
    2.0834    0.1640   -4.7933 N   0  0  0  0  0  0  0  0  0  0  0  0
    1.4884   -0.8524   -5.6432 C   0  0  0  0  0  0  0  0  0  0  0  0
    0.2314   -0.1846   -6.1857 C   0  0  0  0  0  0  0  0  0  0  0  0
   -0.5737   -0.6654   -6.9465 O   0  0  0  0  0  0  0  0  0  0  0  0
    0.1820    1.0878   -5.6368 N   0  0  0  0  0  0  0  0  0  0  0  0
   -0.7921    2.0689   -5.9914 C   0  0  0  0  0  0  0  0  0  0  0  0
   -0.8503    2.5091   -7.3203 C   0  0  0  0  0  0  0  0  0  0  0  0
   -1.7751    3.4806   -7.6970 C   0  0  0  0  0  0  0  0  0  0  0  0
   -2.6341    4.0290   -6.7441 C   0  0  0  0  0  0  0  0  0  0  0  0
   -2.5714    3.5772   -5.4246 C   0  0  0  0  0  0  0  0  0  0  0  0
   -3.6707    4.2893   -4.2572 Cl  0  0  0  0  0  0  0  0  0  0  0  0
   -1.6734    2.5751   -5.0096 C   0  0  0  0  0  0  0  0  0  0  0  0
   -1.6751    2.0587   -3.5950 C   0  0  0  0  0  0  0  0  0  0  0  0
    1.3636    1.4300   -4.8626 C   0  0  0  0  0  0  0  0  0  0  0  0
    6.1705    0.5131   -3.0096 C   0  0  0  0  0  0  0  0  0  0  0  0
    7.0429   -0.1107   -2.4291 O   0  0  0  0  0  0  0  0  0  0  0  0
    6.4570    1.1258   -4.3582 C   0  0  0  0  0  0  0  0  0  0  0  0
    6.4321    2.5089   -4.5717 C   0  0  0  0  0  0  0  0  0  0  0  0
    6.8115    3.0502   -5.8052 C   0  0  0  0  0  0  0  0  0  0  0  0
    7.2187    2.2315   -6.8702 C   0  0  0  0  0  0  0  0  0  0  0  0
    7.6375    2.7894   -8.2444 C   0  0  1  0  0  0  0  0  0  0  0  0
    7.5468    4.3249   -8.3026 C   0  0  0  0  0  0  0  0  0  0  0  0
    9.0994    2.3804   -8.5400 C   0  0  0  0  0  0  0  0  0  0  0  0
    6.7107    2.2090   -9.3379 C   0  0  0  0  0  0  0  0  0  0  0  0
    7.2414    0.8421   -6.6369 C   0  0  0  0  0  0  0  0  0  0  0  0
    6.8812    0.2967   -5.4066 C   0  0  0  0  0  0  0  0  0  0  0  0
    1.8630    3.1840    0.4120 H   0  0  0  0  0  0  0  0  0  0  0  0
    3.5886    3.5057    0.7809 H   0  0  0  0  0  0  0  0  0  0  0  0
    2.6977    2.2442    1.6897 H   0  0  0  0  0  0  0  0  0  0  0  0
    4.2873    0.5249    0.9101 H   0  0  0  0  0  0  0  0  0  0  0  0
    5.1943    1.7964    0.0414 H   0  0  0  0  0  0  0  0  0  0  0  0
    3.7777   -0.5955   -1.2807 H   0  0  0  0  0  0  0  0  0  0  0  0
    5.5136   -0.5042   -0.9064 H   0  0  0  0  0  0  0  0  0  0  0  0
    4.0248    1.9146   -3.9541 H   0  0  0  0  0  0  0  0  0  0  0  0
    2.9949    1.4905   -2.5874 H   0  0  0  0  0  0  0  0  0  0  0  0
    1.2345   -1.7683   -5.0850 H   0  0  0  0  0  0  0  0  0  0  0  0
    2.1492   -1.1548   -6.4745 H   0  0  0  0  0  0  0  0  0  0  0  0
   -0.1683    2.0761   -8.0535 H   0  0  0  0  0  0  0  0  0  0  0  0
   -1.8242    3.8201   -8.7340 H   0  0  0  0  0  0  0  0  0  0  0  0
   -3.3570    4.8006   -7.0128 H   0  0  0  0  0  0  0  0  0  0  0  0
   -2.7053    1.9239   -3.2356 H   0  0  0  0  0  0  0  0  0  0  0  0
   -1.1937    2.7704   -2.9021 H   0  0  0  0  0  0  0  0  0  0  0  0
   -1.1538    1.0955   -3.5231 H   0  0  0  0  0  0  0  0  0  0  0  0
    1.0982    1.8058   -3.8585 H   0  0  0  0  0  0  0  0  0  0  0  0
    1.9497    2.2230   -5.3715 H   0  0  0  0  0  0  0  0  0  0  0  0
    6.1333    3.1798   -3.7611 H   0  0  0  0  0  0  0  0  0  0  0  0
    6.7898    4.1342   -5.9201 H   0  0  0  0  0  0  0  0  0  0  0  0
    8.2099    4.8047   -7.5658 H   0  0  0  0  0  0  0  0  0  0  0  0
    6.5206    4.6838   -8.1251 H   0  0  0  0  0  0  0  0  0  0  0  0
    7.8518    4.6787   -9.3000 H   0  0  0  0  0  0  0  0  0  0  0  0
    9.7840    2.7828   -7.7766 H   0  0  0  0  0  0  0  0  0  0  0  0
    9.4165    2.7692   -9.5217 H   0  0  0  0  0  0  0  0  0  0  0  0
    9.2251    1.2872   -8.5584 H   0  0  0  0  0  0  0  0  0  0  0  0
    5.6611    2.4911   -9.1569 H   0  0  0  0  0  0  0  0  0  0  0  0
    6.7598    1.1103   -9.3783 H   0  0  0  0  0  0  0  0  0  0  0  0
    6.9994    2.5922  -10.3305 H   0  0  0  0  0  0  0  0  0  0  0  0
    7.5560    0.1627   -7.4325 H   0  0  0  0  0  0  0  0  0  0  0  0
    6.9213   -0.7830   -5.2487 H   0  0  0  0  0  0  0  0  0  0  0  0
  1  2  1  0
  1 35  1  0
  1 36  1  0
  1 37  1  0
  2  3  1  0
  3  4  1  0
  3 38  1  0
  3 39  1  0
  4  5  1  0
  4 40  1  0
  4 41  1  0
  5  6  1  0
  5 23  1  0
  6  7  1  0
  6 42  1  0
  6 43  1  0
  7  8  2  0
  7  9  1  0
  9 10  1  0
  9 22  1  0
 10 11  1  0
 10 44  1  0
 10 45  1  0
 11 12  2  0
 11 13  1  0
 13 14  1  0
 13 22  1  0
 14 15  2  0
 14 20  1  0
 15 16  1  0
 15 46  1  0
 16 17  2  0
 16 47  1  0
 17 18  1  0
 17 48  1  0
 18 19  1  0
 18 20  2  0
 20 21  1  0
 21 49  1  0
 21 50  1  0
 21 51  1  0
 22 52  1  0
 22 53  1  0
 23 24  2  0
 23 25  1  0
 25 26  2  0
 25 34  1  0
 26 27  1  0
 26 54  1  0
 27 28  2  0
 27 55  1  0
 28 29  1  0
 28 33  1  0
 29 30  1  1
 29 31  1  0
 29 32  1  0
 30 56  1  0
 30 57  1  0
 30 58  1  0
 31 59  1  0
 31 60  1  0
 31 61  1  0
 32 62  1  0
 32 63  1  0
 32 64  1  0
 33 34  2  0
 33 65  1  0
 34 66  1  0
M  END

