
     RDKit          3D

 33 35  0  0  0  0  0  0  0  0999 V2000
    1.0686   -0.7714   -0.9523 C   0  0  0  0  0  0  0  0  0  0  0  0
    2.1847    0.1846   -0.7214 C   0  0  0  0  0  0  0  0  0  0  0  0
    3.2850    0.5545   -1.4431 C   0  0  0  0  0  0  0  0  0  0  0  0
    3.9199    1.5210   -0.6119 C   0  0  0  0  0  0  0  0  0  0  0  0
    5.1875    2.2630   -0.9182 C   0  0  0  0  0  0  0  0  0  0  0  0
    5.7975    2.0591   -1.9565 O   0  0  0  0  0  0  0  0  0  0  0  0
    5.5667    3.1461    0.0447 N   0  0  0  0  0  0  0  0  0  0  0  0
    6.7702    3.9412   -0.0420 C   0  0  0  0  0  0  0  0  0  0  0  0
    6.4912    5.4403   -0.0294 C   0  0  1  0  0  0  0  0  0  0  0  0
    5.6120    5.9933   -1.1776 C   0  0  0  0  0  0  0  0  0  0  0  0
    4.7010    6.9464   -0.4401 C   0  0  0  0  0  0  0  0  0  0  0  0
    3.7753    7.8893   -0.8768 C   0  0  0  0  0  0  0  0  0  0  0  0
    3.0224    8.5971    0.0738 C   0  0  0  0  0  0  0  0  0  0  0  0
    3.1964    8.3483    1.4402 C   0  0  0  0  0  0  0  0  0  0  0  0
    4.1238    7.3994    1.8935 C   0  0  0  0  0  0  0  0  0  0  0  0
    4.8622    6.7141    0.9320 C   0  0  0  0  0  0  0  0  0  0  0  0
    5.7971    5.7606    1.2042 O   0  0  0  0  0  0  0  0  0  0  0  0
    3.2562    1.7092    0.5069 N   0  0  0  0  0  0  0  0  0  0  0  0
    2.1686    0.8747    0.4427 O   0  0  0  0  0  0  0  0  0  0  0  0
    1.1902   -1.2690   -1.9235 H   0  0  0  0  0  0  0  0  0  0  0  0
    0.0973   -0.2512   -0.9419 H   0  0  0  0  0  0  0  0  0  0  0  0
    1.0403   -1.5403   -0.1634 H   0  0  0  0  0  0  0  0  0  0  0  0
    3.6160    0.2081   -2.4173 H   0  0  0  0  0  0  0  0  0  0  0  0
    4.9735    3.2442    0.8638 H   0  0  0  0  0  0  0  0  0  0  0  0
    7.2835    3.6644   -0.9742 H   0  0  0  0  0  0  0  0  0  0  0  0
    7.4430    3.7030    0.8002 H   0  0  0  0  0  0  0  0  0  0  0  0
    7.4601    5.9724   -0.0035 H   0  0  0  0  0  0  0  0  0  0  0  0
    5.0364    5.1877   -1.6656 H   0  0  0  0  0  0  0  0  0  0  0  0
    6.2226    6.4774   -1.9549 H   0  0  0  0  0  0  0  0  0  0  0  0
    3.6340    8.0783   -1.9445 H   0  0  0  0  0  0  0  0  0  0  0  0
    2.2967    9.3446   -0.2546 H   0  0  0  0  0  0  0  0  0  0  0  0
    2.6038    8.9055    2.1706 H   0  0  0  0  0  0  0  0  0  0  0  0
    4.2714    7.1993    2.9562 H   0  0  0  0  0  0  0  0  0  0  0  0
  1  2  1  0
  1 20  1  0
  1 21  1  0
  1 22  1  0
  2  3  2  0
  2 19  1  0
  3  4  1  0
  3 23  1  0
  4  5  1  0
  4 18  2  0
  5  6  2  0
  5  7  1  0
  7  8  1  0
  7 24  1  0
  8  9  1  0
  8 25  1  0
  8 26  1  0
  9 10  1  0
  9 17  1  0
  9 27  1  1
 10 11  1  0
 10 28  1  0
 10 29  1  0
 11 12  1  0
 11 16  2  0
 12 13  2  0
 12 30  1  0
 13 14  1  0
 13 31  1  0
 14 15  2  0
 14 32  1  0
 15 16  1  0
 15 33  1  0
 16 17  1  0
 18 19  1  0
M  END

