
     RDKit          3D

 52 55  0  0  0  0  0  0  0  0999 V2000
    1.9634   -1.0029    2.0145 N   0  0  0  0  0  0  0  0  0  0  0  0
    3.0080   -0.8104    1.5450 C   0  0  0  0  0  0  0  0  0  0  0  0
    4.2988   -0.5695    0.9645 C   0  0  0  0  0  0  0  0  0  0  0  0
    4.7890    0.7467    0.8538 C   0  0  0  0  0  0  0  0  0  0  0  0
    6.0386    0.9811    0.2921 C   0  0  0  0  0  0  0  0  0  0  0  0
    6.8288   -0.0933   -0.1727 C   0  0  0  0  0  0  0  0  0  0  0  0
    8.1113    0.1308   -0.7504 C   0  0  0  0  0  0  0  0  0  0  0  0
    9.2145    0.2731   -1.2513 C   0  0  0  0  0  0  0  0  0  0  0  0
   10.5022    0.3726   -1.8419 C   0  0  0  0  0  0  0  0  0  0  0  0
   11.1331    1.6211   -2.0230 C   0  0  0  0  0  0  0  0  0  0  0  0
   12.3921    1.7127   -2.6004 C   0  0  0  0  0  0  0  0  0  0  0  0
   13.0794    0.5527   -3.0246 C   0  0  0  0  0  0  0  0  0  0  0  0
   14.3707    0.6330   -3.6176 C   0  0  0  0  0  0  0  0  0  0  0  0
   15.4778    0.6620   -4.1292 C   0  0  0  0  0  0  0  0  0  0  0  0
   16.7647    0.6345   -4.7294 C   0  0  0  0  0  0  0  0  0  0  0  0
   17.4926    1.8207   -4.9591 C   0  0  0  0  0  0  0  0  0  0  0  0
   18.7504    1.7893   -5.5459 C   0  0  0  0  0  0  0  0  0  0  0  0
   19.3386    0.5632   -5.9309 C   0  0  0  0  0  0  0  0  0  0  0  0
   20.6280    0.5178   -6.5333 C   0  0  0  0  0  0  0  0  0  0  0  0
   21.7293    0.4400   -7.0510 C   0  0  0  0  0  0  0  0  0  0  0  0
   23.0083    0.2901   -7.6572 C   0  0  0  0  0  0  0  0  0  0  0  0
   23.8227    1.4073   -7.9304 C   0  0  0  0  0  0  0  0  0  0  0  0
   25.0738    1.2506   -8.5240 C   0  0  0  0  0  0  0  0  0  0  0  0
   25.5439   -0.0243   -8.8600 C   0  0  0  0  0  0  0  0  0  0  0  0
   24.7576   -1.1464   -8.6004 C   0  0  0  0  0  0  0  0  0  0  0  0
   23.4947   -1.0039   -8.0027 C   0  0  0  0  0  0  0  0  0  0  0  0
   22.6922   -2.1643   -7.7390 C   0  0  0  0  0  0  0  0  0  0  0  0
   22.0440   -3.1039   -7.5261 N   0  0  0  0  0  0  0  0  0  0  0  0
   18.6241   -0.6315   -5.7083 C   0  0  0  0  0  0  0  0  0  0  0  0
   17.3565   -0.6042   -5.1173 C   0  0  0  0  0  0  0  0  0  0  0  0
   16.6434   -1.8312   -4.8981 C   0  0  0  0  0  0  0  0  0  0  0  0
   16.0585   -2.8174   -4.7164 N   0  0  0  0  0  0  0  0  0  0  0  0
   12.4628   -0.7034   -2.8511 C   0  0  0  0  0  0  0  0  0  0  0  0
   11.1943   -0.7996   -2.2697 C   0  0  0  0  0  0  0  0  0  0  0  0
   10.5812   -2.0873   -2.1006 C   0  0  0  0  0  0  0  0  0  0  0  0
   10.0770   -3.1234   -1.9594 N   0  0  0  0  0  0  0  0  0  0  0  0
    6.3310   -1.4115   -0.0588 C   0  0  0  0  0  0  0  0  0  0  0  0
    5.0816   -1.6463    0.5028 C   0  0  0  0  0  0  0  0  0  0  0  0
    4.1816    1.5799    1.2118 H   0  0  0  0  0  0  0  0  0  0  0  0
    6.4175    2.0011    0.2068 H   0  0  0  0  0  0  0  0  0  0  0  0
   10.6124    2.5240   -1.6994 H   0  0  0  0  0  0  0  0  0  0  0  0
   12.8628    2.6889   -2.7313 H   0  0  0  0  0  0  0  0  0  0  0  0
   17.0492    2.7740   -4.6663 H   0  0  0  0  0  0  0  0  0  0  0  0
   19.2970    2.7189   -5.7148 H   0  0  0  0  0  0  0  0  0  0  0  0
   23.4559    2.4013   -7.6683 H   0  0  0  0  0  0  0  0  0  0  0  0
   25.6887    2.1307   -8.7269 H   0  0  0  0  0  0  0  0  0  0  0  0
   26.5247   -0.1446   -9.3251 H   0  0  0  0  0  0  0  0  0  0  0  0
   25.1134   -2.1456   -8.8579 H   0  0  0  0  0  0  0  0  0  0  0  0
   19.0656   -1.5857   -6.0004 H   0  0  0  0  0  0  0  0  0  0  0  0
   12.9816   -1.6075   -3.1739 H   0  0  0  0  0  0  0  0  0  0  0  0
    6.9402   -2.2434   -0.4174 H   0  0  0  0  0  0  0  0  0  0  0  0
    4.7013   -2.6658    0.5888 H   0  0  0  0  0  0  0  0  0  0  0  0
  1  2  3  0
  2  3  1  0
  3  4  2  0
  3 38  1  0
  4  5  1  0
  4 39  1  0
  5  6  2  0
  5 40  1  0
  6  7  1  0
  6 37  1  0
  7  8  3  0
  8  9  1  0
  9 10  2  0
  9 34  1  0
 10 11  1  0
 10 41  1  0
 11 12  2  0
 11 42  1  0
 12 13  1  0
 12 33  1  0
 13 14  3  0
 14 15  1  0
 15 16  2  0
 15 30  1  0
 16 17  1  0
 16 43  1  0
 17 18  2  0
 17 44  1  0
 18 19  1  0
 18 29  1  0
 19 20  3  0
 20 21  1  0
 21 22  2  0
 21 26  1  0
 22 23  1  0
 22 45  1  0
 23 24  2  0
 23 46  1  0
 24 25  1  0
 24 47  1  0
 25 26  2  0
 25 48  1  0
 26 27  1  0
 27 28  3  0
 29 30  2  0
 29 49  1  0
 30 31  1  0
 31 32  3  0
 33 34  2  0
 33 50  1  0
 34 35  1  0
 35 36  3  0
 37 38  2  0
 37 51  1  0
 38 52  1  0
M  END

