
     RDKit          3D

 54 57  0  0  0  0  0  0  0  0999 V2000
    0.7765    1.2088   -0.0646 O   0  0  0  0  0  0  0  0  0  0  0  0
    1.9685    1.1009    0.1601 C   0  0  0  0  0  0  0  0  0  0  0  0
    2.5068    0.7136    1.5347 C   0  0  0  0  0  0  0  0  0  0  0  0
    2.6895    1.9330    2.4243 C   0  0  0  0  0  0  0  0  0  0  0  0
    1.6099    2.7856    2.7036 C   0  0  0  0  0  0  0  0  0  0  0  0
    1.7669    3.9027    3.5261 C   0  0  0  0  0  0  0  0  0  0  0  0
    3.0169    4.1928    4.0923 C   0  0  0  0  0  0  0  0  0  0  0  0
    3.2262    5.2648    4.9019 O   0  0  0  0  0  0  0  0  0  0  0  0
    4.1043    3.3516    3.8204 C   0  0  0  0  0  0  0  0  0  0  0  0
    3.9351    2.2398    2.9944 C   0  0  0  0  0  0  0  0  0  0  0  0
    2.8968    1.3779   -0.8284 N   0  0  0  0  0  0  0  0  0  0  0  0
    4.3058    1.3521   -0.7378 C   0  0  0  0  0  0  0  0  0  0  0  0
    5.0554    2.4691   -0.8421 C   0  0  0  0  0  0  0  0  0  0  0  0
    4.4528    3.8513   -0.9327 C   0  0  0  0  0  0  0  0  0  0  0  0
    4.0079    4.2389   -2.3356 C   0  0  0  0  0  0  0  0  0  0  0  0
    2.6648    4.5506   -2.5976 C   0  0  0  0  0  0  0  0  0  0  0  0
    2.2467    4.8984   -3.8875 C   0  0  0  0  0  0  0  0  0  0  0  0
    3.1680    4.9383   -4.9361 C   0  0  0  0  0  0  0  0  0  0  0  0
    4.5096    4.6257   -4.6871 C   0  0  0  0  0  0  0  0  0  0  0  0
    4.9248    4.2780   -3.4004 C   0  0  0  0  0  0  0  0  0  0  0  0
    6.4700    2.3987   -0.9505 N   0  0  0  0  0  0  0  0  0  0  0  0
    7.0689    1.1080   -0.8286 C   0  0  0  0  0  0  0  0  0  0  0  0
    8.5414    1.0670   -0.8850 C   0  0  0  0  0  0  0  0  0  0  0  0
    9.2643    2.0803   -1.5432 C   0  0  0  0  0  0  0  0  0  0  0  0
   10.6578    2.0455   -1.6228 C   0  0  0  0  0  0  0  0  0  0  0  0
   11.3733    0.9919   -1.0401 C   0  0  0  0  0  0  0  0  0  0  0  0
   12.7279    0.9049   -1.0821 O   0  0  0  0  0  0  0  0  0  0  0  0
   10.6707   -0.0207   -0.3669 C   0  0  0  0  0  0  0  0  0  0  0  0
    9.2839    0.0264   -0.2855 C   0  0  0  0  0  0  0  0  0  0  0  0
    6.2928    0.0073   -0.7172 C   0  0  0  0  0  0  0  0  0  0  0  0
    4.8877    0.0583   -0.5945 N   0  0  0  0  0  0  0  0  0  0  0  0
    3.4531    0.1643    1.4422 H   0  0  0  0  0  0  0  0  0  0  0  0
    1.7521    0.0391    1.9683 H   0  0  0  0  0  0  0  0  0  0  0  0
    0.6333    2.5715    2.2619 H   0  0  0  0  0  0  0  0  0  0  0  0
    0.9114    4.5544    3.7328 H   0  0  0  0  0  0  0  0  0  0  0  0
    2.3985    5.7512    5.0100 H   0  0  0  0  0  0  0  0  0  0  0  0
    5.0735    3.5841    4.2665 H   0  0  0  0  0  0  0  0  0  0  0  0
    4.7926    1.5927    2.7905 H   0  0  0  0  0  0  0  0  0  0  0  0
    2.4796    1.7539   -1.6782 H   0  0  0  0  0  0  0  0  0  0  0  0
    5.1985    4.5809   -0.5688 H   0  0  0  0  0  0  0  0  0  0  0  0
    3.5946    3.9169   -0.2492 H   0  0  0  0  0  0  0  0  0  0  0  0
    1.9366    4.5257   -1.7815 H   0  0  0  0  0  0  0  0  0  0  0  0
    1.1959    5.1387   -4.0698 H   0  0  0  0  0  0  0  0  0  0  0  0
    2.8442    5.2109   -5.9439 H   0  0  0  0  0  0  0  0  0  0  0  0
    5.2374    4.6526   -5.5026 H   0  0  0  0  0  0  0  0  0  0  0  0
    5.9708    4.0232   -3.2126 H   0  0  0  0  0  0  0  0  0  0  0  0
    6.9388    3.1036   -0.3796 H   0  0  0  0  0  0  0  0  0  0  0  0
    8.7225    2.8976   -2.0226 H   0  0  0  0  0  0  0  0  0  0  0  0
   11.1938    2.8427   -2.1483 H   0  0  0  0  0  0  0  0  0  0  0  0
   13.0853    1.6626   -1.5635 H   0  0  0  0  0  0  0  0  0  0  0  0
   11.2366   -0.8271    0.1040 H   0  0  0  0  0  0  0  0  0  0  0  0
    8.7627   -0.7509    0.2776 H   0  0  0  0  0  0  0  0  0  0  0  0
    6.7287   -0.9913   -0.7312 H   0  0  0  0  0  0  0  0  0  0  0  0
    4.3967   -0.6470   -1.1434 H   0  0  0  0  0  0  0  0  0  0  0  0
  1  2  2  0
  2  3  1  0
  2 11  1  0
  3  4  1  0
  3 32  1  0
  3 33  1  0
  4  5  2  0
  4 10  1  0
  5  6  1  0
  5 34  1  0
  6  7  2  0
  6 35  1  0
  7  8  1  0
  7  9  1  0
  8 36  1  0
  9 10  2  0
  9 37  1  0
 10 38  1  0
 11 12  1  0
 11 39  1  0
 12 13  2  0
 12 31  1  0
 13 14  1  0
 13 21  1  0
 14 15  1  0
 14 40  1  0
 14 41  1  0
 15 16  2  0
 15 20  1  0
 16 17  1  0
 16 42  1  0
 17 18  2  0
 17 43  1  0
 18 19  1  0
 18 44  1  0
 19 20  2  0
 19 45  1  0
 20 46  1  0
 21 22  1  0
 21 47  1  0
 22 23  1  0
 22 30  2  0
 23 24  2  0
 23 29  1  0
 24 25  1  0
 24 48  1  0
 25 26  2  0
 25 49  1  0
 26 27  1  0
 26 28  1  0
 27 50  1  0
 28 29  2  0
 28 51  1  0
 29 52  1  0
 30 31  1  0
 30 53  1  0
 31 54  1  0
M  END

