
     RDKit          3D

 53 56  0  0  0  0  0  0  0  0999 V2000
   -0.5022    6.1244   -0.2744 N   0  0  0  0  0  0  0  0  0  0  0  0
   -0.5463    6.1228   -1.5577 C   0  0  0  0  0  0  0  0  0  0  0  0
   -1.6137    6.5715   -2.3272 N   0  0  0  0  0  0  0  0  0  0  0  0
    0.6441    5.6513   -2.3275 C   0  0  0  0  0  0  0  0  0  0  0  0
    0.8484    5.9797   -3.6762 C   0  0  0  0  0  0  0  0  0  0  0  0
    1.9721    5.5330   -4.3860 C   0  0  0  0  0  0  0  0  0  0  0  0
    2.9073    4.7402   -3.7138 C   0  0  0  0  0  0  0  0  0  0  0  0
    2.7236    4.4138   -2.3508 C   0  0  0  0  0  0  0  0  0  0  0  0
    1.6139    4.8655   -1.6625 C   0  0  0  0  0  0  0  0  0  0  0  0
    3.9175    3.6000   -1.8957 C   0  0  0  0  0  0  0  0  0  0  0  0
    4.5659    3.1780   -3.2325 C   0  0  0  0  0  0  0  0  0  0  0  0
    4.0845    4.1792   -4.1972 N   0  0  0  0  0  0  0  0  0  0  0  0
    4.3415    4.0200   -5.6084 C   0  0  0  0  0  0  0  0  0  0  0  0
    5.0368    5.2026   -6.2780 C   0  0  0  0  0  0  0  0  0  0  0  0
    5.5838    6.2401   -5.5130 C   0  0  0  0  0  0  0  0  0  0  0  0
    6.2467    7.3134   -6.1137 C   0  0  0  0  0  0  0  0  0  0  0  0
    6.3732    7.3671   -7.5029 C   0  0  0  0  0  0  0  0  0  0  0  0
    5.8305    6.3426   -8.2821 C   0  0  0  0  0  0  0  0  0  0  0  0
    5.1655    5.2530   -7.6891 C   0  0  0  0  0  0  0  0  0  0  0  0
    4.5501    4.2098   -8.5799 C   0  0  0  0  0  0  0  0  0  0  0  0
    3.3107    4.5209   -9.1713 C   0  0  0  0  0  0  0  0  0  0  0  0
    2.6603    3.6305  -10.0195 C   0  0  0  0  0  0  0  0  0  0  0  0
    3.2388    2.3880  -10.3168 C   0  0  0  0  0  0  0  0  0  0  0  0
    2.4717    1.4672  -11.2372 C   0  0  0  0  0  0  0  0  0  0  0  0
    3.1396    0.3712  -11.6978 N   0  0  0  0  0  0  0  0  0  0  0  0
    1.3136    1.7015  -11.5406 O   0  0  0  0  0  0  0  0  0  0  0  0
    4.4643    2.0675   -9.7317 C   0  0  0  0  0  0  0  0  0  0  0  0
    5.1369    2.9553   -8.8747 C   0  0  0  0  0  0  0  0  0  0  0  0
    6.4620    2.4337   -8.3515 C   0  0  0  0  0  0  0  0  0  0  0  0
    6.8376    1.3126   -8.5901 O   0  0  0  0  0  0  0  0  0  0  0  0
    7.2235    3.2500   -7.6056 O   0  0  0  0  0  0  0  0  0  0  0  0
   -1.3918    6.4364    0.1293 H   0  0  0  0  0  0  0  0  0  0  0  0
   -2.4772    6.7562   -1.8281 H   0  0  0  0  0  0  0  0  0  0  0  0
   -1.7526    6.1299   -3.2293 H   0  0  0  0  0  0  0  0  0  0  0  0
    0.1327    6.6255   -4.1901 H   0  0  0  0  0  0  0  0  0  0  0  0
    2.1110    5.8166   -5.4308 H   0  0  0  0  0  0  0  0  0  0  0  0
    1.4517    4.6347   -0.6079 H   0  0  0  0  0  0  0  0  0  0  0  0
    3.6522    2.7369   -1.2674 H   0  0  0  0  0  0  0  0  0  0  0  0
    4.6085    4.2311   -1.3083 H   0  0  0  0  0  0  0  0  0  0  0  0
    4.2264    2.1642   -3.5297 H   0  0  0  0  0  0  0  0  0  0  0  0
    5.6662    3.1625   -3.1947 H   0  0  0  0  0  0  0  0  0  0  0  0
    3.4046    3.7948   -6.1535 H   0  0  0  0  0  0  0  0  0  0  0  0
    4.9811    3.1308   -5.7375 H   0  0  0  0  0  0  0  0  0  0  0  0
    5.4736    6.1942   -4.4282 H   0  0  0  0  0  0  0  0  0  0  0  0
    6.6635    8.1098   -5.4921 H   0  0  0  0  0  0  0  0  0  0  0  0
    6.8879    8.2030   -7.9823 H   0  0  0  0  0  0  0  0  0  0  0  0
    5.9199    6.3780   -9.3709 H   0  0  0  0  0  0  0  0  0  0  0  0
    2.8539    5.4882   -8.9484 H   0  0  0  0  0  0  0  0  0  0  0  0
    1.6944    3.8718  -10.4673 H   0  0  0  0  0  0  0  0  0  0  0  0
    4.1333    0.2394  -11.5726 H   0  0  0  0  0  0  0  0  0  0  0  0
    2.6486   -0.2347  -12.3442 H   0  0  0  0  0  0  0  0  0  0  0  0
    4.9537    1.1067   -9.8985 H   0  0  0  0  0  0  0  0  0  0  0  0
    6.8353    4.1395   -7.5329 H   0  0  0  0  0  0  0  0  0  0  0  0
  1  2  2  0
  1 32  1  0
  2  3  1  0
  2  4  1  0
  3 33  1  0
  3 34  1  0
  4  5  2  0
  4  9  1  0
  5  6  1  0
  5 35  1  0
  6  7  2  0
  6 36  1  0
  7  8  1  0
  7 12  1  0
  8  9  2  0
  8 10  1  0
  9 37  1  0
 10 11  1  0
 10 38  1  0
 10 39  1  0
 11 12  1  0
 11 40  1  0
 11 41  1  0
 12 13  1  0
 13 14  1  0
 13 42  1  0
 13 43  1  0
 14 15  2  0
 14 19  1  0
 15 16  1  0
 15 44  1  0
 16 17  2  0
 16 45  1  0
 17 18  1  0
 17 46  1  0
 18 19  2  0
 18 47  1  0
 19 20  1  0
 20 21  2  0
 20 28  1  0
 21 22  1  0
 21 48  1  0
 22 23  2  0
 22 49  1  0
 23 24  1  0
 23 27  1  0
 24 25  1  0
 24 26  2  0
 25 50  1  0
 25 51  1  0
 27 28  2  0
 27 52  1  0
 28 29  1  0
 29 30  2  0
 29 31  1  0
 31 53  1  0
M  END

