
     RDKit          3D

 45 46  0  0  0  0  0  0  0  0999 V2000
    1.5450    0.0490   -1.2025 C   0  0  0  0  0  0  0  0  0  0  0  0
    2.9077    0.0603   -0.5620 C   0  0  0  0  0  0  0  0  0  0  0  0
    3.3399    1.2146   -0.0432 N   0  0  0  0  0  0  0  0  0  0  0  0
    4.5393    1.2137    0.5500 C   0  0  0  0  0  0  0  0  0  0  0  0
    4.9943    2.5239    1.1344 C   0  0  0  0  0  0  0  0  0  0  0  0
    5.3324    0.0472    0.6081 C   0  0  0  0  0  0  0  0  0  0  0  0
    6.8852    0.0756    1.5034 S   0  0  0  0  0  0  0  0  0  0  0  0
    4.8101   -1.1332    0.0051 C   0  0  0  0  0  0  0  0  0  0  0  0
    5.4707   -2.4398   -0.0811 C   0  0  0  0  0  0  0  0  0  0  0  0
    7.1923   -2.7195    0.2552 S   0  0  0  0  0  0  0  0  0  0  0  0
    6.9770   -4.3864   -0.2302 C   0  0  0  0  0  0  0  0  0  0  0  0
    8.0325   -5.2594   -0.2163 N   0  0  0  0  0  0  0  0  0  0  0  0
    8.0720   -6.6446   -0.5284 C   0  0  0  0  0  0  0  0  0  0  0  0
    9.1368   -7.2347   -0.4392 O   0  0  0  0  0  0  0  0  0  0  0  0
    6.9018   -7.2012   -0.9045 N   0  0  0  0  0  0  0  0  0  0  0  0
    6.8427   -8.6004   -1.2296 C   0  0  0  0  0  0  0  0  0  0  0  0
    5.3910   -8.9745   -1.5518 C   0  0  0  0  0  0  0  0  0  0  0  0
    4.5140   -8.1231   -1.5170 O   0  0  0  0  0  0  0  0  0  0  0  0
    5.1382  -10.2817   -1.8754 N   0  0  0  0  0  0  0  0  0  0  0  0
    6.1298  -11.3377   -1.9367 C   0  0  0  0  0  0  0  0  0  0  0  0
    3.7767  -10.6789   -2.1920 C   0  0  0  0  0  0  0  0  0  0  0  0
    5.7568   -4.7053   -0.5723 N   0  0  0  0  0  0  0  0  0  0  0  0
    4.8984   -3.6413   -0.5041 C   0  0  0  0  0  0  0  0  0  0  0  0
    3.4713   -3.9137   -0.8820 C   0  0  0  0  0  0  0  0  0  0  0  0
    3.5891   -1.0815   -0.5617 N   0  0  0  0  0  0  0  0  0  0  0  0
    1.1001    1.0511   -1.1697 H   0  0  0  0  0  0  0  0  0  0  0  0
    0.8849   -0.6623   -0.6803 H   0  0  0  0  0  0  0  0  0  0  0  0
    1.6175   -0.2909   -2.2477 H   0  0  0  0  0  0  0  0  0  0  0  0
    4.1651    3.2410    1.0895 H   0  0  0  0  0  0  0  0  0  0  0  0
    5.8456    2.9383    0.5671 H   0  0  0  0  0  0  0  0  0  0  0  0
    5.3373    2.4015    2.1731 H   0  0  0  0  0  0  0  0  0  0  0  0
    7.5402    0.9418    0.6912 H   0  0  0  0  0  0  0  0  0  0  0  0
    8.9436   -4.9126    0.0632 H   0  0  0  0  0  0  0  0  0  0  0  0
    6.0424   -6.6413   -0.9512 H   0  0  0  0  0  0  0  0  0  0  0  0
    7.2222   -9.2138   -0.3925 H   0  0  0  0  0  0  0  0  0  0  0  0
    7.4951   -8.8367   -2.0907 H   0  0  0  0  0  0  0  0  0  0  0  0
    7.1312  -10.9739   -1.6842 H   0  0  0  0  0  0  0  0  0  0  0  0
    6.1735  -11.7755   -2.9505 H   0  0  0  0  0  0  0  0  0  0  0  0
    5.8777  -12.1521   -1.2335 H   0  0  0  0  0  0  0  0  0  0  0  0
    3.1264   -9.8005   -2.1130 H   0  0  0  0  0  0  0  0  0  0  0  0
    3.4247  -11.4581   -1.4929 H   0  0  0  0  0  0  0  0  0  0  0  0
    3.7172  -11.0864   -3.2169 H   0  0  0  0  0  0  0  0  0  0  0  0
    3.3403   -4.9997   -0.9831 H   0  0  0  0  0  0  0  0  0  0  0  0
    3.2163   -3.4247   -1.8340 H   0  0  0  0  0  0  0  0  0  0  0  0
    2.7688   -3.5120   -0.1395 H   0  0  0  0  0  0  0  0  0  0  0  0
  1  2  1  0
  1 26  1  0
  1 27  1  0
  1 28  1  0
  2  3  2  0
  2 25  1  0
  3  4  1  0
  4  5  1  0
  4  6  2  0
  5 29  1  0
  5 30  1  0
  5 31  1  0
  6  7  1  0
  6  8  1  0
  7 32  1  0
  8  9  1  0
  8 25  2  0
  9 10  1  0
  9 23  2  0
 10 11  1  0
 11 12  1  0
 11 22  2  0
 12 13  1  0
 12 33  1  0
 13 14  2  0
 13 15  1  0
 15 16  1  0
 15 34  1  0
 16 17  1  0
 16 35  1  0
 16 36  1  0
 17 18  2  0
 17 19  1  0
 19 20  1  0
 19 21  1  0
 20 37  1  0
 20 38  1  0
 20 39  1  0
 21 40  1  0
 21 41  1  0
 21 42  1  0
 22 23  1  0
 23 24  1  0
 24 43  1  0
 24 44  1  0
 24 45  1  0
M  END

