
     RDKit          3D

 42 43  0  0  0  0  0  0  0  0999 V2000
    2.4657   -3.9656   -6.7502 C   0  0  0  0  0  0  0  0  0  0  0  0
    3.7079   -4.5366   -6.1084 C   0  0  0  0  0  0  0  0  0  0  0  0
    4.7121   -5.1478   -6.8740 C   0  0  0  0  0  0  0  0  0  0  0  0
    5.8569   -5.6582   -6.2563 C   0  0  0  0  0  0  0  0  0  0  0  0
    6.0356   -5.5771   -4.8747 C   0  0  0  0  0  0  0  0  0  0  0  0
    5.0356   -4.9675   -4.0960 C   0  0  0  0  0  0  0  0  0  0  0  0
    5.1175   -4.8330   -2.6946 N   0  0  0  0  0  0  0  0  0  0  0  0
    6.0898   -5.2817   -1.8441 C   0  0  0  0  0  0  0  0  0  0  0  0
    7.1101   -5.8583   -2.1731 O   0  0  0  0  0  0  0  0  0  0  0  0
    5.7923   -4.9719   -0.3528 C   0  0  2  0  0  0  0  0  0  0  0  0
    5.4483   -3.9293   -0.2639 H   0  0  0  0  0  0  0  0  0  0  0  0
    6.9905   -5.2418    0.5301 C   0  0  0  0  0  0  0  0  0  0  0  0
    4.7103   -5.8273    0.1214 O   0  0  0  0  0  0  0  0  0  0  0  0
    3.4565   -5.4215   -0.0259 C   0  0  0  0  0  0  0  0  0  0  0  0
    3.1101   -4.4319   -0.6373 O   0  0  0  0  0  0  0  0  0  0  0  0
    2.4347   -6.3512    0.6057 C   0  0  0  0  0  0  0  0  0  0  0  0
    3.0209   -7.1856    1.5655 O   0  0  0  0  0  0  0  0  0  0  0  0
    2.2570   -8.1173    2.1977 C   0  0  0  0  0  0  0  0  0  0  0  0
    2.9280   -8.9417    3.1171 C   0  0  0  0  0  0  0  0  0  0  0  0
    2.2213   -9.9198    3.8097 C   0  0  0  0  0  0  0  0  0  0  0  0
    0.8467  -10.1005    3.6075 C   0  0  0  0  0  0  0  0  0  0  0  0
    0.1981   -9.2736    2.6923 C   0  0  0  0  0  0  0  0  0  0  0  0
   -1.5189   -9.4693    2.4148 Cl  0  0  0  0  0  0  0  0  0  0  0  0
    0.8816   -8.2795    1.9804 C   0  0  0  0  0  0  0  0  0  0  0  0
    3.8853   -4.4567   -4.7214 C   0  0  0  0  0  0  0  0  0  0  0  0
    2.4179   -4.2085   -7.8219 H   0  0  0  0  0  0  0  0  0  0  0  0
    2.4355   -2.8667   -6.6553 H   0  0  0  0  0  0  0  0  0  0  0  0
    1.5506   -4.3543   -6.2740 H   0  0  0  0  0  0  0  0  0  0  0  0
    4.5955   -5.2240   -7.9584 H   0  0  0  0  0  0  0  0  0  0  0  0
    6.6324   -6.1331   -6.8632 H   0  0  0  0  0  0  0  0  0  0  0  0
    6.9252   -5.9748   -4.3928 H   0  0  0  0  0  0  0  0  0  0  0  0
    4.3221   -4.3793   -2.2451 H   0  0  0  0  0  0  0  0  0  0  0  0
    6.7343   -5.0529    1.5824 H   0  0  0  0  0  0  0  0  0  0  0  0
    7.8227   -4.5851    0.2391 H   0  0  0  0  0  0  0  0  0  0  0  0
    7.3254   -6.2812    0.4128 H   0  0  0  0  0  0  0  0  0  0  0  0
    1.9788   -6.9325   -0.2206 H   0  0  0  0  0  0  0  0  0  0  0  0
    1.6399   -5.7116    1.0299 H   0  0  0  0  0  0  0  0  0  0  0  0
    3.9989   -8.7934    3.2645 H   0  0  0  0  0  0  0  0  0  0  0  0
    2.7468  -10.5596    4.5229 H   0  0  0  0  0  0  0  0  0  0  0  0
    0.2886  -10.8661    4.1472 H   0  0  0  0  0  0  0  0  0  0  0  0
    0.3270   -7.6578    1.2797 H   0  0  0  0  0  0  0  0  0  0  0  0
    3.1099   -3.9878   -4.1065 H   0  0  0  0  0  0  0  0  0  0  0  0
  1  2  1  0
  1 26  1  0
  1 27  1  0
  1 28  1  0
  2  3  2  0
  2 25  1  0
  3  4  1  0
  3 29  1  0
  4  5  2  0
  4 30  1  0
  5  6  1  0
  5 31  1  0
  6  7  1  0
  6 25  2  0
  7  8  1  0
  7 32  1  0
  8  9  2  0
  8 10  1  0
 10 11  1  6
 10 12  1  0
 10 13  1  0
 12 33  1  0
 12 34  1  0
 12 35  1  0
 13 14  1  0
 14 15  2  0
 14 16  1  0
 16 17  1  0
 16 36  1  0
 16 37  1  0
 17 18  1  0
 18 19  2  0
 18 24  1  0
 19 20  1  0
 19 38  1  0
 20 21  2  0
 20 39  1  0
 21 22  1  0
 21 40  1  0
 22 23  1  0
 22 24  2  0
 24 41  1  0
 25 42  1  0
M  END

