
     RDKit          3D

 40 42  0  0  0  0  0  0  0  0999 V2000
    3.2857    0.3116   -2.2113 C   0  0  0  0  0  0  0  0  0  0  0  0
    2.6329    0.2566   -0.8295 C   0  0  0  0  0  0  0  0  0  0  0  0
    2.8272    1.4723   -0.0287 N   0  0  0  0  0  0  0  0  0  0  0  0
    1.9244    2.5744   -0.3004 C   0  0  0  0  0  0  0  0  0  0  0  0
    0.5163    2.3466    0.1730 C   0  0  0  0  0  0  0  0  0  0  0  0
   -0.5844    2.5383   -0.4845 N   0  0  0  0  0  0  0  0  0  0  0  0
   -1.5573    2.2081    0.4392 C   0  0  0  0  0  0  0  0  0  0  0  0
   -2.9982    2.2702    0.1516 C   0  0  0  0  0  0  0  0  0  0  0  0
   -3.4367    2.6929   -1.1138 C   0  0  0  0  0  0  0  0  0  0  0  0
   -4.8026    2.7558   -1.3961 C   0  0  0  0  0  0  0  0  0  0  0  0
   -5.7386    2.3982   -0.4210 C   0  0  0  0  0  0  0  0  0  0  0  0
   -5.3049    1.9760    0.8416 C   0  0  0  0  0  0  0  0  0  0  0  0
   -3.9424    1.9110    1.1300 C   0  0  0  0  0  0  0  0  0  0  0  0
   -1.0699    1.8272    1.5990 N   0  0  0  0  0  0  0  0  0  0  0  0
    0.3047    1.9185    1.4260 O   0  0  0  0  0  0  0  0  0  0  0  0
    4.0173    1.5850    0.6701 C   0  0  0  0  0  0  0  0  0  0  0  0
    4.8879    0.7349    0.5624 O   0  0  0  0  0  0  0  0  0  0  0  0
    4.2262    2.7637    1.5881 C   0  0  0  0  0  0  0  0  0  0  0  0
    3.2727    3.1781    2.5329 C   0  0  0  0  0  0  0  0  0  0  0  0
    3.5724    4.2092    3.4287 C   0  0  0  0  0  0  0  0  0  0  0  0
    4.8190    4.8395    3.3846 C   0  0  0  0  0  0  0  0  0  0  0  0
    5.7772    4.4222    2.4539 C   0  0  0  0  0  0  0  0  0  0  0  0
    5.4882    3.3806    1.5719 C   0  0  0  0  0  0  0  0  0  0  0  0
    3.0745   -0.6160   -2.7667 H   0  0  0  0  0  0  0  0  0  0  0  0
    4.3762    0.4118   -2.1123 H   0  0  0  0  0  0  0  0  0  0  0  0
    2.9063    1.1521   -2.8155 H   0  0  0  0  0  0  0  0  0  0  0  0
    3.0517   -0.5814   -0.2566 H   0  0  0  0  0  0  0  0  0  0  0  0
    1.5470    0.0886   -0.9216 H   0  0  0  0  0  0  0  0  0  0  0  0
    1.8517    2.7696   -1.3833 H   0  0  0  0  0  0  0  0  0  0  0  0
    2.3128    3.4920    0.1634 H   0  0  0  0  0  0  0  0  0  0  0  0
   -2.6952    2.9689   -1.8654 H   0  0  0  0  0  0  0  0  0  0  0  0
   -5.1380    3.0856   -2.3825 H   0  0  0  0  0  0  0  0  0  0  0  0
   -6.8076    2.4478   -0.6436 H   0  0  0  0  0  0  0  0  0  0  0  0
   -6.0346    1.6957    1.6053 H   0  0  0  0  0  0  0  0  0  0  0  0
   -3.5962    1.5825    2.1118 H   0  0  0  0  0  0  0  0  0  0  0  0
    2.3035    2.6788    2.5889 H   0  0  0  0  0  0  0  0  0  0  0  0
    2.8286    4.5152    4.1687 H   0  0  0  0  0  0  0  0  0  0  0  0
    5.0485    5.6491    4.0822 H   0  0  0  0  0  0  0  0  0  0  0  0
    6.7577    4.9040    2.4238 H   0  0  0  0  0  0  0  0  0  0  0  0
    6.2401    3.0246    0.8645 H   0  0  0  0  0  0  0  0  0  0  0  0
  1  2  1  0
  1 24  1  0
  1 25  1  0
  1 26  1  0
  2  3  1  0
  2 27  1  0
  2 28  1  0
  3  4  1  0
  3 16  1  0
  4  5  1  0
  4 29  1  0
  4 30  1  0
  5  6  2  0
  5 15  1  0
  6  7  1  0
  7  8  1  0
  7 14  2  0
  8  9  2  0
  8 13  1  0
  9 10  1  0
  9 31  1  0
 10 11  2  0
 10 32  1  0
 11 12  1  0
 11 33  1  0
 12 13  2  0
 12 34  1  0
 13 35  1  0
 14 15  1  0
 16 17  2  0
 16 18  1  0
 18 19  2  0
 18 23  1  0
 19 20  1  0
 19 36  1  0
 20 21  2  0
 20 37  1  0
 21 22  1  0
 21 38  1  0
 22 23  2  0
 22 39  1  0
 23 40  1  0
M  END

