
     RDKit          3D

 40 42  0  0  0  0  0  0  0  0999 V2000
    1.1999    0.2902    0.3160 C   0  0  0  0  0  0  0  0  0  0  0  0
    0.7484   -0.9687    0.7652 O   0  0  0  0  0  0  0  0  0  0  0  0
    1.5853   -1.7667    1.4677 C   0  0  0  0  0  0  0  0  0  0  0  0
    1.0609   -3.0090    1.8757 C   0  0  0  0  0  0  0  0  0  0  0  0
    1.8447   -3.8949    2.5988 C   0  0  0  0  0  0  0  0  0  0  0  0
    3.1679   -3.5697    2.9552 C   0  0  0  0  0  0  0  0  0  0  0  0
    3.9510   -4.5947    3.7274 C   0  0  0  0  0  0  0  0  0  0  0  0
    3.6278   -5.7635    3.7563 O   0  0  0  0  0  0  0  0  0  0  0  0
    5.0461   -4.0799    4.4205 N   0  0  0  0  0  0  0  0  0  0  0  0
    6.0041   -4.8080    5.1462 C   0  0  0  0  0  0  0  0  0  0  0  0
    6.5756   -4.2425    6.3014 C   0  0  0  0  0  0  0  0  0  0  0  0
    7.5533   -4.9442    6.9986 C   0  0  0  0  0  0  0  0  0  0  0  0
    7.9260   -6.2174    6.5317 C   0  0  0  0  0  0  0  0  0  0  0  0
    8.8856   -7.0402    7.1434 N   0  0  0  0  0  0  0  0  0  0  0  0
    9.6431   -6.7878    8.2656 C   0  0  0  0  0  0  0  0  0  0  0  0
    9.5721   -5.7534    8.9112 O   0  0  0  0  0  0  0  0  0  0  0  0
   10.5782   -7.9000    8.6399 C   0  0  1  0  0  0  0  0  0  0  0  0
   11.9039   -7.5073    9.2671 C   0  0  0  0  0  0  0  0  0  0  0  0
   10.8406   -8.1139   10.1198 C   0  0  0  0  0  0  0  0  0  0  0  0
    7.2876   -6.6862    5.3692 C   0  0  0  0  0  0  0  0  0  0  0  0
    6.3731   -6.0045    4.6938 N   0  0  0  0  0  0  0  0  0  0  0  0
    3.6852   -2.3383    2.5319 C   0  0  0  0  0  0  0  0  0  0  0  0
    2.9101   -1.4368    1.7952 C   0  0  0  0  0  0  0  0  0  0  0  0
    0.3583    0.7516   -0.2175 H   0  0  0  0  0  0  0  0  0  0  0  0
    2.0546    0.1964   -0.3777 H   0  0  0  0  0  0  0  0  0  0  0  0
    1.4932    0.9449    1.1563 H   0  0  0  0  0  0  0  0  0  0  0  0
    0.0314   -3.2496    1.6029 H   0  0  0  0  0  0  0  0  0  0  0  0
    1.4530   -4.8664    2.9067 H   0  0  0  0  0  0  0  0  0  0  0  0
    5.0389   -3.0813    4.5861 H   0  0  0  0  0  0  0  0  0  0  0  0
    6.2510   -3.2617    6.6585 H   0  0  0  0  0  0  0  0  0  0  0  0
    8.0203   -4.5383    7.8932 H   0  0  0  0  0  0  0  0  0  0  0  0
    9.0335   -7.9355    6.6920 H   0  0  0  0  0  0  0  0  0  0  0  0
   10.5713   -8.7878    8.0001 H   0  0  0  0  0  0  0  0  0  0  0  0
   12.0805   -6.4336    9.3712 H   0  0  0  0  0  0  0  0  0  0  0  0
   12.7791   -8.1064    9.0020 H   0  0  0  0  0  0  0  0  0  0  0  0
   10.3003   -7.4492   10.7988 H   0  0  0  0  0  0  0  0  0  0  0  0
   10.9579   -9.1454   10.4626 H   0  0  0  0  0  0  0  0  0  0  0  0
    7.5554   -7.6737    4.9662 H   0  0  0  0  0  0  0  0  0  0  0  0
    4.7247   -2.0736    2.7424 H   0  0  0  0  0  0  0  0  0  0  0  0
    3.3511   -0.4933    1.4738 H   0  0  0  0  0  0  0  0  0  0  0  0
  1  2  1  0
  1 24  1  0
  1 25  1  0
  1 26  1  0
  2  3  1  0
  3  4  2  0
  3 23  1  0
  4  5  1  0
  4 27  1  0
  5  6  2  0
  5 28  1  0
  6  7  1  0
  6 22  1  0
  7  8  2  0
  7  9  1  0
  9 10  1  0
  9 29  1  0
 10 11  2  0
 10 21  1  0
 11 12  1  0
 11 30  1  0
 12 13  2  0
 12 31  1  0
 13 14  1  0
 13 20  1  0
 14 15  1  0
 14 32  1  0
 15 16  2  0
 15 17  1  0
 17 18  1  0
 17 19  1  0
 17 33  1  6
 18 19  1  0
 18 34  1  0
 18 35  1  0
 19 36  1  0
 19 37  1  0
 20 21  2  0
 20 38  1  0
 22 23  2  0
 22 39  1  0
 23 40  1  0
M  END

