
     RDKit          3D

 64 68  0  0  0  0  0  0  0  0999 V2000
    0.6853    6.8934    4.5059 C   0  0  0  0  0  0  0  0  0  0  0  0
    0.7605    5.5047    5.1475 C   0  0  2  0  0  0  0  0  0  0  0  0
   -0.2187    5.0030    5.0106 H   0  0  0  0  0  0  0  0  0  0  0  0
    1.0191    5.6067    6.6629 C   0  0  0  0  0  0  0  0  0  0  0  0
    1.1236    4.2424    7.3515 C   0  0  0  0  0  0  0  0  0  0  0  0
    2.1973    3.3734    6.6892 C   0  0  0  0  0  0  0  0  0  0  0  0
    1.9427    3.2353    5.1850 C   0  0  0  0  0  0  0  0  0  0  0  0
    1.8287    4.6035    4.4866 C   0  0  1  0  0  0  0  0  0  0  0  0
    2.8062    5.1088    4.5501 H   0  0  0  0  0  0  0  0  0  0  0  0
    1.5718    4.4349    3.0586 N   0  0  0  0  0  0  0  0  0  0  0  0
    2.5452    4.5146    2.1224 C   0  0  0  0  0  0  0  0  0  0  0  0
    3.7133    4.7767    2.3725 O   0  0  0  0  0  0  0  0  0  0  0  0
    2.1391    4.2230    0.6351 C   0  0  2  0  0  0  0  0  0  0  0  0
    2.8622    2.9273    0.2317 C   0  0  0  0  0  0  0  0  0  0  0  0
    2.7393    5.3587   -0.2176 C   0  0  0  0  0  0  0  0  0  0  0  0
    2.0110    6.5965    0.0048 N   0  0  0  0  0  0  0  0  0  0  0  0
    0.6566    6.5682    0.2606 C   0  0  0  0  0  0  0  0  0  0  0  0
    0.1962    7.8791    0.3497 C   0  0  0  0  0  0  0  0  0  0  0  0
    1.3049    8.7181    0.1364 C   0  0  0  0  0  0  0  0  0  0  0  0
    2.4266    7.9045   -0.0864 C   0  0  0  0  0  0  0  0  0  0  0  0
    3.7823    8.3383   -0.3555 C   0  0  0  0  0  0  0  0  0  0  0  0
    4.3990    9.5581   -0.1889 C   0  0  0  0  0  0  0  0  0  0  0  0
    5.7387    9.4045   -0.6650 C   0  0  0  0  0  0  0  0  0  0  0  0
    5.8482    8.1090   -1.0828 C   0  0  0  0  0  0  0  0  0  0  0  0
    4.6698    7.4566   -0.9038 O   0  0  0  0  0  0  0  0  0  0  0  0
   -0.0878    5.3112    0.3459 C   0  0  0  0  0  0  0  0  0  0  0  0
   -1.3155    5.2848    0.3392 O   0  0  0  0  0  0  0  0  0  0  0  0
    0.6744    4.1473    0.4208 N   0  0  0  0  0  0  0  0  0  0  0  0
   -0.0650    2.8809    0.2781 C   0  0  0  0  0  0  0  0  0  0  0  0
   -0.5831    2.2481    1.5620 C   0  0  0  0  0  0  0  0  0  0  0  0
   -1.6414    2.8232    2.2914 C   0  0  0  0  0  0  0  0  0  0  0  0
   -2.1276    2.2260    3.4573 C   0  0  0  0  0  0  0  0  0  0  0  0
   -1.5708    1.0276    3.9180 C   0  0  0  0  0  0  0  0  0  0  0  0
   -0.5288    0.4277    3.2083 C   0  0  0  0  0  0  0  0  0  0  0  0
   -0.0600    1.0452    2.0509 C   0  0  0  0  0  0  0  0  0  0  0  0
    0.9426    0.4413    1.3761 F   0  0  0  0  0  0  0  0  0  0  0  0
    1.6434    7.4287    4.6168 H   0  0  0  0  0  0  0  0  0  0  0  0
   -0.0959    7.5037    4.9870 H   0  0  0  0  0  0  0  0  0  0  0  0
    0.4575    6.8419    3.4312 H   0  0  0  0  0  0  0  0  0  0  0  0
    0.2207    6.2110    7.1261 H   0  0  0  0  0  0  0  0  0  0  0  0
    1.9595    6.1678    6.8217 H   0  0  0  0  0  0  0  0  0  0  0  0
    0.1477    3.7259    7.2917 H   0  0  0  0  0  0  0  0  0  0  0  0
    1.3402    4.3740    8.4250 H   0  0  0  0  0  0  0  0  0  0  0  0
    2.2371    2.3765    7.1594 H   0  0  0  0  0  0  0  0  0  0  0  0
    3.1897    3.8328    6.8511 H   0  0  0  0  0  0  0  0  0  0  0  0
    1.0064    2.6720    5.0178 H   0  0  0  0  0  0  0  0  0  0  0  0
    2.7500    2.6586    4.7050 H   0  0  0  0  0  0  0  0  0  0  0  0
    0.6408    4.1549    2.7685 H   0  0  0  0  0  0  0  0  0  0  0  0
    2.7001    2.6978   -0.8326 H   0  0  0  0  0  0  0  0  0  0  0  0
    2.5380    2.0670    0.8301 H   0  0  0  0  0  0  0  0  0  0  0  0
    3.9376    3.0694    0.4023 H   0  0  0  0  0  0  0  0  0  0  0  0
    2.6992    5.0838   -1.2856 H   0  0  0  0  0  0  0  0  0  0  0  0
    3.7840    5.4908    0.0763 H   0  0  0  0  0  0  0  0  0  0  0  0
   -0.8347    8.1648    0.5431 H   0  0  0  0  0  0  0  0  0  0  0  0
    1.3121    9.8058    0.1256 H   0  0  0  0  0  0  0  0  0  0  0  0
    3.9490   10.4509    0.2382 H   0  0  0  0  0  0  0  0  0  0  0  0
    6.5217   10.1595   -0.6853 H   0  0  0  0  0  0  0  0  0  0  0  0
    6.6589    7.5231   -1.5069 H   0  0  0  0  0  0  0  0  0  0  0  0
    0.5600    2.1594   -0.2568 H   0  0  0  0  0  0  0  0  0  0  0  0
   -0.9320    3.1138   -0.3545 H   0  0  0  0  0  0  0  0  0  0  0  0
   -2.0758    3.7510    1.9120 H   0  0  0  0  0  0  0  0  0  0  0  0
   -2.9522    2.6923    4.0017 H   0  0  0  0  0  0  0  0  0  0  0  0
   -1.9506    0.5535    4.8263 H   0  0  0  0  0  0  0  0  0  0  0  0
   -0.0728   -0.5106    3.5299 H   0  0  0  0  0  0  0  0  0  0  0  0
  1  2  1  0
  1 37  1  0
  1 38  1  0
  1 39  1  0
  2  3  1  1
  2  4  1  0
  2  8  1  0
  4  5  1  0
  4 40  1  0
  4 41  1  0
  5  6  1  0
  5 42  1  0
  5 43  1  0
  6  7  1  0
  6 44  1  0
  6 45  1  0
  7  8  1  0
  7 46  1  0
  7 47  1  0
  8  9  1  6
  8 10  1  0
 10 11  1  0
 10 48  1  0
 11 12  2  0
 13 11  1  1
 13 14  1  0
 13 15  1  0
 13 28  1  0
 14 49  1  0
 14 50  1  0
 14 51  1  0
 15 16  1  0
 15 52  1  0
 15 53  1  0
 16 17  1  0
 16 20  1  0
 17 18  2  0
 17 26  1  0
 18 19  1  0
 18 54  1  0
 19 20  2  0
 19 55  1  0
 20 21  1  0
 21 22  2  0
 21 25  1  0
 22 23  1  0
 22 56  1  0
 23 24  2  0
 23 57  1  0
 24 25  1  0
 24 58  1  0
 26 27  2  0
 26 28  1  0
 28 29  1  0
 29 30  1  0
 29 59  1  0
 29 60  1  0
 30 31  2  0
 30 35  1  0
 31 32  1  0
 31 61  1  0
 32 33  2  0
 32 62  1  0
 33 34  1  0
 33 63  1  0
 34 35  2  0
 34 64  1  0
 35 36  1  0
M  END

