
     RDKit          3D

 46 47  0  0  0  0  0  0  0  0999 V2000
    4.6947    1.0745    4.9814 C   0  0  0  0  0  0  0  0  0  0  0  0
    4.8107    1.9535    3.7367 C   0  0  1  0  0  0  0  0  0  0  0  0
    6.0859    1.6621    3.1424 O   0  0  0  0  0  0  0  0  0  0  0  0
    3.6549    1.7800    2.7612 C   0  0  0  0  0  0  0  0  0  0  0  0
    2.6698    2.7702    2.6998 C   0  0  0  0  0  0  0  0  0  0  0  0
    1.5374    2.6502    1.8880 C   0  0  0  0  0  0  0  0  0  0  0  0
    1.3967    1.4994    1.1119 C   0  0  0  0  0  0  0  0  0  0  0  0
    2.3678    0.4969    1.1372 C   0  0  0  0  0  0  0  0  0  0  0  0
    3.5189    0.6098    1.9502 C   0  0  0  0  0  0  0  0  0  0  0  0
    4.4988   -0.3648    1.9813 N   0  0  0  0  0  0  0  0  0  0  0  0
    4.5441   -1.5250    1.1001 C   0  0  1  0  0  0  0  0  0  0  0  0
    5.9985   -1.9894    0.9242 C   0  0  0  0  0  0  0  0  0  0  0  0
    6.5613   -2.6270    2.1987 C   0  0  0  0  0  0  0  0  0  0  0  0
    5.6732   -3.7741    2.6966 C   0  0  0  0  0  0  0  0  0  0  0  0
    4.2063   -3.3469    2.9063 C   0  0  2  0  0  0  0  0  0  0  0  0
    3.3053   -4.5139    3.3950 C   0  0  1  0  0  0  0  0  0  0  0  0
    3.8362   -5.1682    4.6806 C   0  0  0  0  0  0  0  0  0  0  0  0
    1.8456   -4.0835    3.6108 C   0  0  0  0  0  0  0  0  0  0  0  0
    3.6711   -2.6911    1.6176 C   0  0  0  0  0  0  0  0  0  0  0  0
    5.5784    1.2166    5.6228 H   0  0  0  0  0  0  0  0  0  0  0  0
    4.6260    0.0110    4.7095 H   0  0  0  0  0  0  0  0  0  0  0  0
    3.7941    1.3435    5.5525 H   0  0  0  0  0  0  0  0  0  0  0  0
    4.8078    3.0094    4.0687 H   0  0  0  0  0  0  0  0  0  0  0  0
    6.1861    2.2348    2.3689 H   0  0  0  0  0  0  0  0  0  0  0  0
    2.7953    3.6651    3.3183 H   0  0  0  0  0  0  0  0  0  0  0  0
    0.7831    3.4396    1.8655 H   0  0  0  0  0  0  0  0  0  0  0  0
    0.5214    1.3742    0.4683 H   0  0  0  0  0  0  0  0  0  0  0  0
    2.2280   -0.3871    0.5152 H   0  0  0  0  0  0  0  0  0  0  0  0
    5.3843   -0.0384    2.3586 H   0  0  0  0  0  0  0  0  0  0  0  0
    4.1617   -1.2324    0.1037 H   0  0  0  0  0  0  0  0  0  0  0  0
    6.6243   -1.1427    0.5938 H   0  0  0  0  0  0  0  0  0  0  0  0
    6.0206   -2.7322    0.1083 H   0  0  0  0  0  0  0  0  0  0  0  0
    6.6540   -1.8643    2.9923 H   0  0  0  0  0  0  0  0  0  0  0  0
    7.5846   -2.9944    2.0128 H   0  0  0  0  0  0  0  0  0  0  0  0
    6.0962   -4.1770    3.6293 H   0  0  0  0  0  0  0  0  0  0  0  0
    5.7005   -4.6011    1.9607 H   0  0  0  0  0  0  0  0  0  0  0  0
    4.1940   -2.5725    3.6981 H   0  0  0  0  0  0  0  0  0  0  0  0
    3.3128   -5.2857    2.6000 H   0  0  0  0  0  0  0  0  0  0  0  0
    3.9165   -4.4279    5.4958 H   0  0  0  0  0  0  0  0  0  0  0  0
    4.8263   -5.6278    4.5471 H   0  0  0  0  0  0  0  0  0  0  0  0
    3.1530   -5.9620    5.0230 H   0  0  0  0  0  0  0  0  0  0  0  0
    1.7806   -3.2613    4.3445 H   0  0  0  0  0  0  0  0  0  0  0  0
    1.2474   -4.9224    4.0012 H   0  0  0  0  0  0  0  0  0  0  0  0
    1.3602   -3.7426    2.6848 H   0  0  0  0  0  0  0  0  0  0  0  0
    2.6487   -2.3197    1.7746 H   0  0  0  0  0  0  0  0  0  0  0  0
    3.6085   -3.4562    0.8208 H   0  0  0  0  0  0  0  0  0  0  0  0
  1  2  1  0
  1 20  1  0
  1 21  1  0
  1 22  1  0
  2  3  1  0
  2  4  1  0
  2 23  1  1
  3 24  1  0
  4  5  2  0
  4  9  1  0
  5  6  1  0
  5 25  1  0
  6  7  2  0
  6 26  1  0
  7  8  1  0
  7 27  1  0
  8  9  2  0
  8 28  1  0
  9 10  1  0
 10 11  1  0
 10 29  1  0
 11 12  1  0
 11 19  1  0
 11 30  1  6
 12 13  1  0
 12 31  1  0
 12 32  1  0
 13 14  1  0
 13 33  1  0
 13 34  1  0
 14 15  1  0
 14 35  1  0
 14 36  1  0
 15 16  1  0
 15 19  1  0
 15 37  1  1
 16 17  1  0
 16 18  1  0
 16 38  1  6
 17 39  1  0
 17 40  1  0
 17 41  1  0
 18 42  1  0
 18 43  1  0
 18 44  1  0
 19 45  1  0
 19 46  1  0
M  END

