
     RDKit          3D

 40 40  0  0  0  0  0  0  0  0999 V2000
    3.9963    0.2226   -1.7990 C   0  0  0  0  0  0  0  0  0  0  0  0
    3.1069    0.3166   -0.5592 C   0  0  0  0  0  0  0  0  0  0  0  0
    3.0136   -1.0009    0.2284 C   0  0  0  0  0  0  0  0  0  0  0  0
    4.2669   -1.3905    0.8634 N   0  0  0  0  0  0  0  0  0  0  0  0
    4.5678   -0.6866    2.1001 C   0  0  0  0  0  0  0  0  0  0  0  0
    6.0486   -0.3574    2.3261 C   0  0  0  0  0  0  0  0  0  0  0  0
    6.2788    0.4466    3.6065 C   0  0  0  0  0  0  0  0  0  0  0  0
    4.7714   -2.7528    0.8214 C   0  0  1  0  0  0  0  0  0  0  0  0
    3.9125   -3.7699    0.0480 C   0  0  0  0  0  0  0  0  0  0  0  0
    6.1930   -2.8134    0.2013 C   0  0  0  0  0  0  0  0  0  0  0  0
    6.5157   -2.0501   -0.6849 O   0  0  0  0  0  0  0  0  0  0  0  0
    7.1633   -3.8759    0.6579 C   0  0  0  0  0  0  0  0  0  0  0  0
    8.3914   -3.9662   -0.0214 C   0  0  0  0  0  0  0  0  0  0  0  0
    9.3424   -4.9187    0.3385 C   0  0  0  0  0  0  0  0  0  0  0  0
    9.0735   -5.7948    1.3876 C   0  0  0  0  0  0  0  0  0  0  0  0
    9.9665   -6.7140    1.7512 F   0  0  0  0  0  0  0  0  0  0  0  0
    7.8565   -5.7161    2.0734 C   0  0  0  0  0  0  0  0  0  0  0  0
    7.6191   -6.5641    3.0780 F   0  0  0  0  0  0  0  0  0  0  0  0
    6.9072   -4.7667    1.7167 C   0  0  0  0  0  0  0  0  0  0  0  0
    4.1177    1.2043   -2.2844 H   0  0  0  0  0  0  0  0  0  0  0  0
    3.5605   -0.4634   -2.5462 H   0  0  0  0  0  0  0  0  0  0  0  0
    4.9902   -0.1680   -1.5351 H   0  0  0  0  0  0  0  0  0  0  0  0
    2.0817    0.6162   -0.8441 H   0  0  0  0  0  0  0  0  0  0  0  0
    3.4753    1.1157    0.1083 H   0  0  0  0  0  0  0  0  0  0  0  0
    2.6989   -1.7851   -0.4721 H   0  0  0  0  0  0  0  0  0  0  0  0
    2.1952   -0.9178    0.9777 H   0  0  0  0  0  0  0  0  0  0  0  0
    4.1912   -1.2563    2.9848 H   0  0  0  0  0  0  0  0  0  0  0  0
    4.0077    0.2618    2.0960 H   0  0  0  0  0  0  0  0  0  0  0  0
    6.4248    0.1935    1.4483 H   0  0  0  0  0  0  0  0  0  0  0  0
    6.6398   -1.2887    2.3762 H   0  0  0  0  0  0  0  0  0  0  0  0
    5.7455    1.4118    3.5769 H   0  0  0  0  0  0  0  0  0  0  0  0
    7.3478    0.6636    3.7580 H   0  0  0  0  0  0  0  0  0  0  0  0
    5.9218   -0.0986    4.4967 H   0  0  0  0  0  0  0  0  0  0  0  0
    4.8362   -3.1276    1.8623 H   0  0  0  0  0  0  0  0  0  0  0  0
    3.8418   -3.5088   -1.0182 H   0  0  0  0  0  0  0  0  0  0  0  0
    2.8974   -3.8359    0.4666 H   0  0  0  0  0  0  0  0  0  0  0  0
    4.3682   -4.7694    0.1128 H   0  0  0  0  0  0  0  0  0  0  0  0
    8.5776   -3.2675   -0.8382 H   0  0  0  0  0  0  0  0  0  0  0  0
   10.3002   -5.0016   -0.1794 H   0  0  0  0  0  0  0  0  0  0  0  0
    5.9796   -4.7485    2.2891 H   0  0  0  0  0  0  0  0  0  0  0  0
  1  2  1  0
  1 20  1  0
  1 21  1  0
  1 22  1  0
  2  3  1  0
  2 23  1  0
  2 24  1  0
  3  4  1  0
  3 25  1  0
  3 26  1  0
  4  5  1  0
  4  8  1  0
  5  6  1  0
  5 27  1  0
  5 28  1  0
  6  7  1  0
  6 29  1  0
  6 30  1  0
  7 31  1  0
  7 32  1  0
  7 33  1  0
  8  9  1  0
  8 10  1  0
  8 34  1  1
  9 35  1  0
  9 36  1  0
  9 37  1  0
 10 11  2  0
 10 12  1  0
 12 13  2  0
 12 19  1  0
 13 14  1  0
 13 38  1  0
 14 15  2  0
 14 39  1  0
 15 16  1  0
 15 17  1  0
 17 18  1  0
 17 19  2  0
 19 40  1  0
M  END

