
     RDKit          3D

 67 73  0  0  0  0  0  0  0  0999 V2000
    3.2151    0.7451   -0.9284 C   0  0  0  0  0  0  0  0  0  0  0  0
    2.3808    0.2267    0.2492 C   0  0  0  0  0  0  0  0  0  0  0  0
    2.7200   -1.1148    0.7487 N   0  0  0  0  0  0  0  0  0  0  0  0
    3.7503   -1.2343    1.6993 C   0  0  0  0  0  0  0  0  0  0  0  0
    4.6361   -0.1675    1.9621 C   0  0  0  0  0  0  0  0  0  0  0  0
    5.6629   -0.2813    2.8934 C   0  0  0  0  0  0  0  0  0  0  0  0
    5.8771   -1.4790    3.5929 C   0  0  0  0  0  0  0  0  0  0  0  0
    6.9937   -1.5694    4.5504 C   0  0  0  0  0  0  0  0  0  0  0  0
    7.3562   -2.7566    5.2041 C   0  0  0  0  0  0  0  0  0  0  0  0
    8.3637   -2.7199    6.1784 C   0  0  0  0  0  0  0  0  0  0  0  0
    8.7431   -3.8901    7.0022 C   0  0  0  0  0  0  0  0  0  0  0  0
    9.8616   -3.7870    7.8521 C   0  0  0  0  0  0  0  0  0  0  0  0
   10.2531   -4.8689    8.6393 C   0  0  0  0  0  0  0  0  0  0  0  0
    9.5340   -6.0678    8.5933 C   0  0  0  0  0  0  0  0  0  0  0  0
    8.4184   -6.1802    7.7562 C   0  0  0  0  0  0  0  0  0  0  0  0
    8.0246   -5.1009    6.9668 C   0  0  0  0  0  0  0  0  0  0  0  0
    9.0159   -1.6312    6.4187 O   0  0  0  0  0  0  0  0  0  0  0  0
    8.9140   -0.3827    5.5689 B   0  0  2  0  0  0  0  0  0  0  0  0
    9.9625   -0.3718    4.6924 F   0  0  0  0  0  0  0  0  0  0  0  0
    8.8467    0.6987    6.3898 F   0  0  0  0  0  0  0  0  0  0  0  0
    7.6289   -0.4657    4.7727 O   0  0  0  0  0  0  0  0  0  0  0  0
    4.9979   -2.5491    3.3406 C   0  0  0  0  0  0  0  0  0  0  0  0
    3.9441   -2.4278    2.4406 C   0  0  0  0  0  0  0  0  0  0  0  0
    2.7575   -3.7443    2.3713 S   0  0  0  0  0  0  0  0  0  0  0  0
    2.1696   -3.5196    0.7135 C   0  0  0  0  0  0  0  0  0  0  0  0
    1.6250   -4.6207    0.0625 C   0  0  0  0  0  0  0  0  0  0  0  0
    0.9781   -4.4949   -1.1822 C   0  0  0  0  0  0  0  0  0  0  0  0
    0.4050   -5.6951   -1.8163 C   0  0  0  0  0  0  0  0  0  0  0  0
   -0.1950   -5.6864   -3.0853 C   0  0  0  0  0  0  0  0  0  0  0  0
   -0.8050   -6.8550   -3.5607 C   0  0  0  0  0  0  0  0  0  0  0  0
   -1.5541   -6.9220   -4.8366 C   0  0  0  0  0  0  0  0  0  0  0  0
   -1.9916   -8.1777   -5.3005 C   0  0  0  0  0  0  0  0  0  0  0  0
   -2.6947   -8.2826   -6.4998 C   0  0  0  0  0  0  0  0  0  0  0  0
   -2.9756   -7.1374   -7.2520 C   0  0  0  0  0  0  0  0  0  0  0  0
   -2.5508   -5.8838   -6.7981 C   0  0  0  0  0  0  0  0  0  0  0  0
   -1.8459   -5.7754   -5.6003 C   0  0  0  0  0  0  0  0  0  0  0  0
   -0.7518   -7.9554   -2.8862 O   0  0  0  0  0  0  0  0  0  0  0  0
    0.1047   -8.1509   -1.6536 B   0  0  2  0  0  0  0  0  0  0  0  0
    1.2546   -8.7879   -2.0253 F   0  0  0  0  0  0  0  0  0  0  0  0
   -0.6291   -8.8009   -0.7121 F   0  0  0  0  0  0  0  0  0  0  0  0
    0.4709   -6.7812   -1.1194 O   0  0  0  0  0  0  0  0  0  0  0  0
    0.9112   -3.2155   -1.7544 C   0  0  0  0  0  0  0  0  0  0  0  0
    1.4860   -2.1162   -1.1245 C   0  0  0  0  0  0  0  0  0  0  0  0
    2.1382   -2.2303    0.1230 C   0  0  0  0  0  0  0  0  0  0  0  0
    2.8682    1.7530   -1.2067 H   0  0  0  0  0  0  0  0  0  0  0  0
    3.1278    0.1014   -1.8153 H   0  0  0  0  0  0  0  0  0  0  0  0
    4.2842    0.8132   -0.6819 H   0  0  0  0  0  0  0  0  0  0  0  0
    1.3150    0.2123   -0.0204 H   0  0  0  0  0  0  0  0  0  0  0  0
    2.4595    0.9186    1.0998 H   0  0  0  0  0  0  0  0  0  0  0  0
    4.5382    0.7745    1.4282 H   0  0  0  0  0  0  0  0  0  0  0  0
    6.3287    0.5628    3.0740 H   0  0  0  0  0  0  0  0  0  0  0  0
    6.8378   -3.6833    4.9865 H   0  0  0  0  0  0  0  0  0  0  0  0
   10.4155   -2.8482    7.8788 H   0  0  0  0  0  0  0  0  0  0  0  0
   11.1246   -4.7771    9.2918 H   0  0  0  0  0  0  0  0  0  0  0  0
    9.8412   -6.9156    9.2109 H   0  0  0  0  0  0  0  0  0  0  0  0
    7.8507   -7.1129    7.7210 H   0  0  0  0  0  0  0  0  0  0  0  0
    7.1449   -5.2058    6.3305 H   0  0  0  0  0  0  0  0  0  0  0  0
    5.1025   -3.4944    3.8747 H   0  0  0  0  0  0  0  0  0  0  0  0
    1.6764   -5.6047    0.5303 H   0  0  0  0  0  0  0  0  0  0  0  0
   -0.2206   -4.7767   -3.6740 H   0  0  0  0  0  0  0  0  0  0  0  0
   -1.7664   -9.0639   -4.7065 H   0  0  0  0  0  0  0  0  0  0  0  0
   -3.0252   -9.2632   -6.8503 H   0  0  0  0  0  0  0  0  0  0  0  0
   -3.5276   -7.2201   -8.1917 H   0  0  0  0  0  0  0  0  0  0  0  0
   -2.7735   -4.9858   -7.3793 H   0  0  0  0  0  0  0  0  0  0  0  0
   -1.5355   -4.7874   -5.2576 H   0  0  0  0  0  0  0  0  0  0  0  0
    0.4124   -3.0554   -2.7106 H   0  0  0  0  0  0  0  0  0  0  0  0
    1.4241   -1.1541   -1.6266 H   0  0  0  0  0  0  0  0  0  0  0  0
  1  2  1  0
  1 45  1  0
  1 46  1  0
  1 47  1  0
  2  3  1  0
  2 48  1  0
  2 49  1  0
  3  4  1  0
  3 44  1  0
  4  5  1  0
  4 23  2  0
  5  6  2  0
  5 50  1  0
  6  7  1  0
  6 51  1  0
  7  8  1  0
  7 22  2  0
  8  9  1  0
  8 21  2  0
  9 10  2  0
  9 52  1  0
 10 11  1  0
 10 17  1  0
 11 12  2  0
 11 16  1  0
 12 13  1  0
 12 53  1  0
 13 14  2  0
 13 54  1  0
 14 15  1  0
 14 55  1  0
 15 16  2  0
 15 56  1  0
 16 57  1  0
 17 18  1  0
 18 19  1  6
 18 20  1  0
 18 21  1  0
 22 23  1  0
 22 58  1  0
 23 24  1  0
 24 25  1  0
 25 26  1  0
 25 44  2  0
 26 27  2  0
 26 59  1  0
 27 28  1  0
 27 42  1  0
 28 29  1  0
 28 41  2  0
 29 30  2  0
 29 60  1  0
 30 31  1  0
 30 37  1  0
 31 32  2  0
 31 36  1  0
 32 33  1  0
 32 61  1  0
 33 34  2  0
 33 62  1  0
 34 35  1  0
 34 63  1  0
 35 36  2  0
 35 64  1  0
 36 65  1  0
 37 38  1  0
 38 39  1  6
 38 40  1  0
 38 41  1  0
 42 43  2  0
 42 66  1  0
 43 44  1  0
 43 67  1  0
M  CHG  4  18  -1  21   1  38  -1  41   1
M  END

