
     RDKit          3D

 38 40  0  0  0  0  0  0  0  0999 V2000
    1.0686    0.5011   -0.3404 C   0  0  0  0  0  0  0  0  0  0  0  0
    2.4799    0.0703    0.0631 C   0  0  1  0  0  0  0  0  0  0  0  0
    2.7589    0.3437    1.5442 C   0  0  0  0  0  0  0  0  0  0  0  0
    2.7814   -1.4066   -0.2797 C   0  0  0  0  0  0  0  0  0  0  0  0
    2.6580   -1.7107   -1.7027 N   0  0  0  0  0  0  0  0  0  0  0  0
    1.7803   -2.7063   -2.0849 C   0  0  0  0  0  0  0  0  0  0  0  0
    1.1565   -3.3685   -1.2709 O   0  0  0  0  0  0  0  0  0  0  0  0
    1.5876   -2.9780   -3.5560 C   0  0  0  0  0  0  0  0  0  0  0  0
    1.6128   -4.3196   -4.0095 C   0  0  0  0  0  0  0  0  0  0  0  0
    1.3398   -4.6523   -5.3337 C   0  0  0  0  0  0  0  0  0  0  0  0
    0.9878   -3.6684   -6.2807 C   0  0  0  0  0  0  0  0  0  0  0  0
    0.9292   -2.3646   -5.8258 C   0  0  0  0  0  0  0  0  0  0  0  0
    1.2218   -2.0269   -4.5001 C   0  0  0  0  0  0  0  0  0  0  0  0
    1.1040   -0.6671   -4.3516 O   0  0  0  0  0  0  0  0  0  0  0  0
    0.4920   -0.1982   -5.5565 C   0  0  0  0  0  0  0  0  0  0  0  0
    0.6266   -1.2270   -6.5248 O   0  0  0  0  0  0  0  0  0  0  0  0
    3.6654   -1.0980   -2.5622 C   0  0  0  0  0  0  0  0  0  0  0  0
    3.5667    0.4285   -2.5665 C   0  0  0  0  0  0  0  0  0  0  0  0
    3.7209    1.0937   -0.8805 S   0  0  1  0  0  0  0  0  0  0  0  0
    3.3036    2.5050   -0.8869 O   0  0  0  0  0  0  0  0  0  0  0  0
    5.0633    0.7126   -0.3982 O   0  0  0  0  0  0  0  0  0  0  0  0
    0.3350   -0.0387    0.2797 H   0  0  0  0  0  0  0  0  0  0  0  0
    0.8467    0.2679   -1.3920 H   0  0  0  0  0  0  0  0  0  0  0  0
    0.9355    1.5809   -0.1847 H   0  0  0  0  0  0  0  0  0  0  0  0
    2.0699   -0.2540    2.1621 H   0  0  0  0  0  0  0  0  0  0  0  0
    2.5993    1.4066    1.7793 H   0  0  0  0  0  0  0  0  0  0  0  0
    3.7925    0.0821    1.8111 H   0  0  0  0  0  0  0  0  0  0  0  0
    2.0730   -2.0533    0.2555 H   0  0  0  0  0  0  0  0  0  0  0  0
    3.8004   -1.6520    0.0652 H   0  0  0  0  0  0  0  0  0  0  0  0
    1.8465   -5.0999   -3.2833 H   0  0  0  0  0  0  0  0  0  0  0  0
    1.3832   -5.6984   -5.6445 H   0  0  0  0  0  0  0  0  0  0  0  0
    0.7637   -3.9157   -7.3193 H   0  0  0  0  0  0  0  0  0  0  0  0
    1.0053    0.7124   -5.9009 H   0  0  0  0  0  0  0  0  0  0  0  0
   -0.5804    0.0063   -5.3669 H   0  0  0  0  0  0  0  0  0  0  0  0
    3.5617   -1.4764   -3.5863 H   0  0  0  0  0  0  0  0  0  0  0  0
    4.6704   -1.3852   -2.2039 H   0  0  0  0  0  0  0  0  0  0  0  0
    2.6155    0.7824   -2.9822 H   0  0  0  0  0  0  0  0  0  0  0  0
    4.4053    0.8923   -3.1076 H   0  0  0  0  0  0  0  0  0  0  0  0
  2  1  1  6
  1 22  1  0
  1 23  1  0
  1 24  1  0
  2  3  1  0
  2  4  1  0
  2 19  1  0
  3 25  1  0
  3 26  1  0
  3 27  1  0
  4  5  1  0
  4 28  1  0
  4 29  1  0
  5  6  1  0
  5 17  1  0
  6  7  2  0
  6  8  1  0
  8  9  2  0
  8 13  1  0
  9 10  1  0
  9 30  1  0
 10 11  2  0
 10 31  1  0
 11 12  1  0
 11 32  1  0
 12 13  2  0
 12 16  1  0
 13 14  1  0
 14 15  1  0
 15 16  1  0
 15 33  1  0
 15 34  1  0
 17 18  1  0
 17 35  1  0
 17 36  1  0
 19 18  1  6
 18 37  1  0
 18 38  1  0
 19 20  2  0
 19 21  2  0
M  END

