
     RDKit          3D

118127  0  0  0  0  0  0  0  0999 V2000
    1.4310    2.0449    0.6942 C   0  0  0  0  0  0  0  0  0  0  0  0
    0.7241    0.9011    0.5488 C   0  0  0  0  0  0  0  0  0  0  0  0
   -0.7306    0.8694    0.3707 C   0  0  0  0  0  0  0  0  0  0  0  0
   -1.4052   -0.3532    0.2252 C   0  0  0  0  0  0  0  0  0  0  0  0
   -2.8016   -0.3239    0.0562 C   0  0  0  0  0  0  0  0  0  0  0  0
   -3.5501   -1.5756   -0.0995 C   0  0  0  0  0  0  0  0  0  0  0  0
   -4.8903   -1.6326   -0.2692 C   0  0  0  0  0  0  0  0  0  0  0  0
   -5.7210   -2.8221   -0.4328 C   0  0  0  0  0  0  0  0  0  0  0  0
   -5.2128   -4.1399   -0.4505 C   0  0  0  0  0  0  0  0  0  0  0  0
   -6.0452   -5.2391   -0.6130 C   0  0  0  0  0  0  0  0  0  0  0  0
   -7.4405   -5.0765   -0.7567 C   0  0  0  0  0  0  0  0  0  0  0  0
   -8.2868   -6.1955   -0.9184 N   0  0  0  0  0  0  0  0  0  0  0  0
   -8.0183   -7.4060   -0.2218 C   0  0  0  0  0  0  0  0  0  0  0  0
   -7.6573   -7.3862    1.1376 C   0  0  0  0  0  0  0  0  0  0  0  0
   -7.3919   -8.5778    1.8143 C   0  0  0  0  0  0  0  0  0  0  0  0
   -7.4980   -9.8078    1.1569 C   0  0  0  0  0  0  0  0  0  0  0  0
   -7.8666   -9.8323   -0.1921 C   0  0  0  0  0  0  0  0  0  0  0  0
   -8.1176   -8.6446   -0.8809 C   0  0  0  0  0  0  0  0  0  0  0  0
   -9.4216   -6.1209   -1.7730 C   0  0  0  0  0  0  0  0  0  0  0  0
   -9.3219   -5.5330   -3.0470 C   0  0  0  0  0  0  0  0  0  0  0  0
  -10.4397   -5.4606   -3.8797 C   0  0  0  0  0  0  0  0  0  0  0  0
  -11.6687   -5.9863   -3.4675 C   0  0  0  0  0  0  0  0  0  0  0  0
  -11.7695   -6.5805   -2.2055 C   0  0  0  0  0  0  0  0  0  0  0  0
  -10.6607   -6.6422   -1.3597 C   0  0  0  0  0  0  0  0  0  0  0  0
   -7.9607   -3.7681   -0.7375 C   0  0  0  0  0  0  0  0  0  0  0  0
   -7.1153   -2.6736   -0.5852 C   0  0  0  0  0  0  0  0  0  0  0  0
   -3.4597    0.8450    0.0365 N   0  0  0  0  0  0  0  0  0  0  0  0
   -2.7427    1.9707    0.1830 C   0  0  0  0  0  0  0  0  0  0  0  0
   -3.4405    3.2643    0.1662 C   0  0  0  0  0  0  0  0  0  0  0  0
   -4.7743    3.4073    0.0093 C   0  0  0  0  0  0  0  0  0  0  0  0
   -5.5363    4.6544   -0.0151 C   0  0  0  0  0  0  0  0  0  0  0  0
   -6.9313    4.6090   -0.2146 C   0  0  0  0  0  0  0  0  0  0  0  0
   -7.7077    5.7635   -0.2548 C   0  0  0  0  0  0  0  0  0  0  0  0
   -7.1162    7.0286   -0.0805 C   0  0  0  0  0  0  0  0  0  0  0  0
   -7.8958    8.2084   -0.1093 N   0  0  0  0  0  0  0  0  0  0  0  0
   -9.1954    8.2213    0.4668 C   0  0  0  0  0  0  0  0  0  0  0  0
   -9.4293    7.6271    1.7204 C   0  0  0  0  0  0  0  0  0  0  0  0
  -10.7081    7.6388    2.2794 C   0  0  0  0  0  0  0  0  0  0  0  0
  -11.7711    8.2553    1.6111 C   0  0  0  0  0  0  0  0  0  0  0  0
  -11.5410    8.8554    0.3690 C   0  0  0  0  0  0  0  0  0  0  0  0
  -10.2688    8.8339   -0.2051 C   0  0  0  0  0  0  0  0  0  0  0  0
   -7.3888    9.3873   -0.7202 C   0  0  0  0  0  0  0  0  0  0  0  0
   -6.7102    9.3227   -1.9510 C   0  0  0  0  0  0  0  0  0  0  0  0
   -6.2097   10.4835   -2.5429 C   0  0  0  0  0  0  0  0  0  0  0  0
   -6.3901   11.7286   -1.9318 C   0  0  0  0  0  0  0  0  0  0  0  0
   -7.0726   11.7986   -0.7130 C   0  0  0  0  0  0  0  0  0  0  0  0
   -7.5617   10.6410   -0.1056 C   0  0  0  0  0  0  0  0  0  0  0  0
   -5.7217    7.0880    0.1285 C   0  0  0  0  0  0  0  0  0  0  0  0
   -4.9549    5.9304    0.1538 C   0  0  0  0  0  0  0  0  0  0  0  0
   -1.4119    2.0285    0.3484 N   0  0  0  0  0  0  0  0  0  0  0  0
    2.8719    2.1888    0.8773 C   0  0  0  0  0  0  0  0  0  0  0  0
    3.7679    1.0995    0.9535 C   0  0  0  0  0  0  0  0  0  0  0  0
    5.1316    1.2896    1.1321 C   0  0  0  0  0  0  0  0  0  0  0  0
    5.6748    2.5890    1.2336 C   0  0  0  0  0  0  0  0  0  0  0  0
    7.0626    2.7812    1.4118 N   0  0  0  0  0  0  0  0  0  0  0  0
    7.9955    1.9236    0.7662 C   0  0  0  0  0  0  0  0  0  0  0  0
    7.8246    1.5641   -0.5830 C   0  0  0  0  0  0  0  0  0  0  0  0
    8.7423    0.7192   -1.2094 C   0  0  0  0  0  0  0  0  0  0  0  0
    9.8525    0.2327   -0.5115 C   0  0  0  0  0  0  0  0  0  0  0  0
   10.0314    0.5960    0.8272 C   0  0  0  0  0  0  0  0  0  0  0  0
    9.1098    1.4270    1.4663 C   0  0  0  0  0  0  0  0  0  0  0  0
    7.5424    3.8388    2.2335 C   0  0  0  0  0  0  0  0  0  0  0  0
    6.9595    4.0925    3.4883 C   0  0  0  0  0  0  0  0  0  0  0  0
    7.4339    5.1327    4.2888 C   0  0  0  0  0  0  0  0  0  0  0  0
    8.5049    5.9257    3.8636 C   0  0  0  0  0  0  0  0  0  0  0  0
    9.0933    5.6705    2.6209 C   0  0  0  0  0  0  0  0  0  0  0  0
    8.6145    4.6426    1.8067 C   0  0  0  0  0  0  0  0  0  0  0  0
    4.7929    3.6841    1.1559 C   0  0  0  0  0  0  0  0  0  0  0  0
    3.4268    3.4808    0.9884 C   0  0  0  0  0  0  0  0  0  0  0  0
    0.8517    2.9736    0.6703 H   0  0  0  0  0  0  0  0  0  0  0  0
    1.2214   -0.0733    0.5566 H   0  0  0  0  0  0  0  0  0  0  0  0
   -0.8621   -1.3004    0.2422 H   0  0  0  0  0  0  0  0  0  0  0  0
   -2.9498   -2.4895   -0.0695 H   0  0  0  0  0  0  0  0  0  0  0  0
   -5.4165   -0.6729   -0.2855 H   0  0  0  0  0  0  0  0  0  0  0  0
   -4.1385   -4.3101   -0.3504 H   0  0  0  0  0  0  0  0  0  0  0  0
   -5.6177   -6.2428   -0.6362 H   0  0  0  0  0  0  0  0  0  0  0  0
   -7.5872   -6.4304    1.6604 H   0  0  0  0  0  0  0  0  0  0  0  0
   -7.1129   -8.5435    2.8708 H   0  0  0  0  0  0  0  0  0  0  0  0
   -7.2962  -10.7390    1.6915 H   0  0  0  0  0  0  0  0  0  0  0  0
   -7.9482  -10.7860   -0.7203 H   0  0  0  0  0  0  0  0  0  0  0  0
   -8.3930   -8.6693   -1.9370 H   0  0  0  0  0  0  0  0  0  0  0  0
   -8.3621   -5.1335   -3.3801 H   0  0  0  0  0  0  0  0  0  0  0  0
  -10.3440   -5.0005   -4.8667 H   0  0  0  0  0  0  0  0  0  0  0  0
  -12.5400   -5.9338   -4.1245 H   0  0  0  0  0  0  0  0  0  0  0  0
  -12.7250   -6.9904   -1.8677 H   0  0  0  0  0  0  0  0  0  0  0  0
  -10.7484   -7.0963   -0.3708 H   0  0  0  0  0  0  0  0  0  0  0  0
   -9.0361   -3.6137   -0.8392 H   0  0  0  0  0  0  0  0  0  0  0  0
   -7.5451   -1.6683   -0.5686 H   0  0  0  0  0  0  0  0  0  0  0  0
   -2.7779    4.1234    0.2929 H   0  0  0  0  0  0  0  0  0  0  0  0
   -5.3548    2.4876   -0.1146 H   0  0  0  0  0  0  0  0  0  0  0  0
   -7.4144    3.6382   -0.3563 H   0  0  0  0  0  0  0  0  0  0  0  0
   -8.7831    5.6902   -0.4249 H   0  0  0  0  0  0  0  0  0  0  0  0
   -8.6013    7.1561    2.2535 H   0  0  0  0  0  0  0  0  0  0  0  0
  -10.8708    7.1724    3.2547 H   0  0  0  0  0  0  0  0  0  0  0  0
  -12.7695    8.2684    2.0547 H   0  0  0  0  0  0  0  0  0  0  0  0
  -12.3632    9.3357   -0.1680 H   0  0  0  0  0  0  0  0  0  0  0  0
  -10.0986    9.2932   -1.1807 H   0  0  0  0  0  0  0  0  0  0  0  0
   -6.5780    8.3561   -2.4408 H   0  0  0  0  0  0  0  0  0  0  0  0
   -5.6851   10.4135   -3.4995 H   0  0  0  0  0  0  0  0  0  0  0  0
   -6.0027   12.6359   -2.4012 H   0  0  0  0  0  0  0  0  0  0  0  0
   -7.2159   12.7638   -0.2201 H   0  0  0  0  0  0  0  0  0  0  0  0
   -8.0821   10.7014    0.8521 H   0  0  0  0  0  0  0  0  0  0  0  0
   -5.2432    8.0576    0.2770 H   0  0  0  0  0  0  0  0  0  0  0  0
   -3.8800    6.0178    0.3255 H   0  0  0  0  0  0  0  0  0  0  0  0
    3.3883    0.0774    0.8881 H   0  0  0  0  0  0  0  0  0  0  0  0
    5.7939    0.4251    1.2013 H   0  0  0  0  0  0  0  0  0  0  0  0
    6.9682    1.9524   -1.1376 H   0  0  0  0  0  0  0  0  0  0  0  0
    8.5939    0.4506   -2.2587 H   0  0  0  0  0  0  0  0  0  0  0  0
   10.5725   -0.4229   -1.0069 H   0  0  0  0  0  0  0  0  0  0  0  0
   10.8915    0.2189    1.3869 H   0  0  0  0  0  0  0  0  0  0  0  0
    9.2481    1.6972    2.5149 H   0  0  0  0  0  0  0  0  0  0  0  0
    6.1324    3.4683    3.8320 H   0  0  0  0  0  0  0  0  0  0  0  0
    6.9692    5.3155    5.2613 H   0  0  0  0  0  0  0  0  0  0  0  0
    8.8778    6.7350    4.4956 H   0  0  0  0  0  0  0  0  0  0  0  0
    9.9273    6.2858    2.2729 H   0  0  0  0  0  0  0  0  0  0  0  0
    9.0700    4.4559    0.8323 H   0  0  0  0  0  0  0  0  0  0  0  0
    5.1867    4.6994    1.2241 H   0  0  0  0  0  0  0  0  0  0  0  0
    2.7637    4.3481    0.9262 H   0  0  0  0  0  0  0  0  0  0  0  0
  1  2  2  0
  1 51  1  0
  1 70  1  0
  2  3  1  0
  2 71  1  0
  3  4  2  0
  3 50  1  0
  4  5  1  0
  4 72  1  0
  5  6  1  0
  5 27  2  0
  6  7  2  0
  6 73  1  0
  7  8  1  0
  7 74  1  0
  8  9  2  0
  8 26  1  0
  9 10  1  0
  9 75  1  0
 10 11  2  0
 10 76  1  0
 11 12  1  0
 11 25  1  0
 12 13  1  0
 12 19  1  0
 13 14  2  0
 13 18  1  0
 14 15  1  0
 14 77  1  0
 15 16  2  0
 15 78  1  0
 16 17  1  0
 16 79  1  0
 17 18  2  0
 17 80  1  0
 18 81  1  0
 19 20  2  0
 19 24  1  0
 20 21  1  0
 20 82  1  0
 21 22  2  0
 21 83  1  0
 22 23  1  0
 22 84  1  0
 23 24  2  0
 23 85  1  0
 24 86  1  0
 25 26  2  0
 25 87  1  0
 26 88  1  0
 27 28  1  0
 28 29  1  0
 28 50  2  0
 29 30  2  0
 29 89  1  0
 30 31  1  0
 30 90  1  0
 31 32  2  0
 31 49  1  0
 32 33  1  0
 32 91  1  0
 33 34  2  0
 33 92  1  0
 34 35  1  0
 34 48  1  0
 35 36  1  0
 35 42  1  0
 36 37  2  0
 36 41  1  0
 37 38  1  0
 37 93  1  0
 38 39  2  0
 38 94  1  0
 39 40  1  0
 39 95  1  0
 40 41  2  0
 40 96  1  0
 41 97  1  0
 42 43  2  0
 42 47  1  0
 43 44  1  0
 43 98  1  0
 44 45  2  0
 44 99  1  0
 45 46  1  0
 45100  1  0
 46 47  2  0
 46101  1  0
 47102  1  0
 48 49  2  0
 48103  1  0
 49104  1  0
 51 52  2  0
 51 69  1  0
 52 53  1  0
 52105  1  0
 53 54  2  0
 53106  1  0
 54 55  1  0
 54 68  1  0
 55 56  1  0
 55 62  1  0
 56 57  2  0
 56 61  1  0
 57 58  1  0
 57107  1  0
 58 59  2  0
 58108  1  0
 59 60  1  0
 59109  1  0
 60 61  2  0
 60110  1  0
 61111  1  0
 62 63  2  0
 62 67  1  0
 63 64  1  0
 63112  1  0
 64 65  2  0
 64113  1  0
 65 66  1  0
 65114  1  0
 66 67  2  0
 66115  1  0
 67116  1  0
 68 69  2  0
 68117  1  0
 69118  1  0
M  END

