
     RDKit          3D

 37 36  0  0  0  0  0  0  0  0999 V2000
    1.6857   -1.1885   -0.3387 C   0  0  0  0  0  0  0  0  0  0  0  0
    2.3484   -0.0962    0.0747 C   0  0  0  0  0  0  0  0  0  0  0  0
    2.4115    0.2821    1.5416 C   0  0  0  0  0  0  0  0  0  0  0  0
    1.5124    1.4743    1.9055 C   0  0  0  0  0  0  0  0  0  0  0  0
    3.0873    0.7984   -0.8951 C   0  0  0  0  0  0  0  0  0  0  0  0
    4.6038    0.4517   -0.9957 C   0  0  1  0  0  0  0  0  0  0  0  0
    4.9039   -0.8734   -1.5202 N   0  0  0  0  0  0  0  0  0  0  0  0
    4.6261   -1.1479   -2.9253 C   0  0  0  0  0  0  0  0  0  0  0  0
    4.9386   -2.6040   -3.2557 C   0  0  0  0  0  0  0  0  0  0  0  0
    5.3395    1.5581   -1.7828 C   0  0  1  0  0  0  0  0  0  0  0  0
    5.2979    2.7085   -0.9744 O   0  0  0  0  0  0  0  0  0  0  0  0
    5.6545    3.9036   -1.6353 C   0  0  0  0  0  0  0  0  0  0  0  0
    6.6429    1.2392   -2.1823 O   0  0  0  0  0  0  0  0  0  0  0  0
    7.5433    0.8303   -1.1661 C   0  0  0  0  0  0  0  0  0  0  0  0
    1.1793   -1.8530    0.3685 H   0  0  0  0  0  0  0  0  0  0  0  0
    1.6064   -1.4446   -1.3998 H   0  0  0  0  0  0  0  0  0  0  0  0
    3.4545    0.5271    1.8128 H   0  0  0  0  0  0  0  0  0  0  0  0
    2.1265   -0.5877    2.1559 H   0  0  0  0  0  0  0  0  0  0  0  0
    1.7749    2.3760    1.3293 H   0  0  0  0  0  0  0  0  0  0  0  0
    1.6076    1.7259    2.9740 H   0  0  0  0  0  0  0  0  0  0  0  0
    0.4541    1.2449    1.7028 H   0  0  0  0  0  0  0  0  0  0  0  0
    3.0096    1.8496   -0.5789 H   0  0  0  0  0  0  0  0  0  0  0  0
    2.6351    0.7261   -1.8977 H   0  0  0  0  0  0  0  0  0  0  0  0
    5.0161    0.4906    0.0274 H   0  0  0  0  0  0  0  0  0  0  0  0
    4.4395   -1.5681   -0.9358 H   0  0  0  0  0  0  0  0  0  0  0  0
    5.2676   -0.4951   -3.5385 H   0  0  0  0  0  0  0  0  0  0  0  0
    3.5755   -0.9302   -3.2222 H   0  0  0  0  0  0  0  0  0  0  0  0
    5.9872   -2.8399   -3.0164 H   0  0  0  0  0  0  0  0  0  0  0  0
    4.7675   -2.8122   -4.3236 H   0  0  0  0  0  0  0  0  0  0  0  0
    4.2975   -3.2911   -2.6767 H   0  0  0  0  0  0  0  0  0  0  0  0
    4.8151    1.7593   -2.7376 H   0  0  0  0  0  0  0  0  0  0  0  0
    5.6192    4.7142   -0.8934 H   0  0  0  0  0  0  0  0  0  0  0  0
    4.9472    4.1401   -2.4545 H   0  0  0  0  0  0  0  0  0  0  0  0
    6.6706    3.8472   -2.0622 H   0  0  0  0  0  0  0  0  0  0  0  0
    8.5460    0.8213   -1.6178 H   0  0  0  0  0  0  0  0  0  0  0  0
    7.3009   -0.1836   -0.8074 H   0  0  0  0  0  0  0  0  0  0  0  0
    7.5459    1.5356   -0.3167 H   0  0  0  0  0  0  0  0  0  0  0  0
  1  2  2  0
  1 15  1  0
  1 16  1  0
  2  3  1  0
  2  5  1  0
  3  4  1  0
  3 17  1  0
  3 18  1  0
  4 19  1  0
  4 20  1  0
  4 21  1  0
  5  6  1  0
  5 22  1  0
  5 23  1  0
  6  7  1  0
  6 10  1  0
  6 24  1  1
  7  8  1  0
  7 25  1  0
  8  9  1  0
  8 26  1  0
  8 27  1  0
  9 28  1  0
  9 29  1  0
  9 30  1  0
 10 11  1  0
 10 13  1  0
 10 31  1  6
 11 12  1  0
 12 32  1  0
 12 33  1  0
 12 34  1  0
 13 14  1  0
 14 35  1  0
 14 36  1  0
 14 37  1  0
M  END

