
     RDKit          3D

 51 55  0  0  0  0  0  0  0  0999 V2000
    1.0635   -0.1350    0.6969 C   0  0  0  0  0  0  0  0  0  0  0  0
    2.5490    0.0050    0.4669 C   0  0  0  0  0  0  0  0  0  0  0  0
    3.1925    1.2469    0.5411 C   0  0  0  0  0  0  0  0  0  0  0  0
    4.5633    1.3472    0.3034 C   0  0  0  0  0  0  0  0  0  0  0  0
    5.3505    0.2288   -0.0138 C   0  0  0  0  0  0  0  0  0  0  0  0
    6.8284    0.4471   -0.2928 C   0  0  0  0  0  0  0  0  0  0  0  0
    7.1335    1.1941   -1.6119 C   0  0  1  0  0  0  0  0  0  0  0  0
    8.6586    1.6023   -1.6395 C   0  0  0  0  0  0  0  0  0  0  0  0
    9.2481    2.1801   -2.9814 C   0  0  0  0  0  0  0  0  0  0  0  0
    8.6652    1.1567   -3.9282 C   0  0  2  0  0  0  0  0  0  0  0  0
    7.9581    1.1258   -5.1777 O   0  0  0  0  0  0  0  0  0  0  0  0
    7.2188    1.2886   -3.9558 C   0  0  1  0  0  0  0  0  0  0  0  0
    6.6018    0.4203   -2.8852 C   0  0  0  0  0  0  0  0  0  0  0  0
    4.7190   -1.0374   -0.0720 C   0  0  0  0  0  0  0  0  0  0  0  0
    5.4827   -2.3184   -0.3578 C   0  0  0  0  0  0  0  0  0  0  0  0
    6.2466   -2.9256    0.8434 C   0  0  1  0  0  0  0  0  0  0  0  0
    5.2583   -3.3424    1.9996 C   0  0  0  0  0  0  0  0  0  0  0  0
    5.8337   -4.2042    3.1867 C   0  0  0  0  0  0  0  0  0  0  0  0
    6.5893   -5.2234    2.3661 C   0  0  2  0  0  0  0  0  0  0  0  0
    7.8867   -5.8394    2.3417 O   0  0  0  0  0  0  0  0  0  0  0  0
    7.6976   -4.5743    1.6870 C   0  0  1  0  0  0  0  0  0  0  0  0
    7.2411   -4.0526    0.3465 C   0  0  0  0  0  0  0  0  0  0  0  0
    3.3366   -1.1138    0.1630 C   0  0  0  0  0  0  0  0  0  0  0  0
    0.6130    0.8154    1.0192 H   0  0  0  0  0  0  0  0  0  0  0  0
    0.8438   -0.8914    1.4684 H   0  0  0  0  0  0  0  0  0  0  0  0
    0.5444   -0.4553   -0.2226 H   0  0  0  0  0  0  0  0  0  0  0  0
    2.6175    2.1444    0.7863 H   0  0  0  0  0  0  0  0  0  0  0  0
    5.0406    2.3299    0.3689 H   0  0  0  0  0  0  0  0  0  0  0  0
    7.3780   -0.5059   -0.2943 H   0  0  0  0  0  0  0  0  0  0  0  0
    7.2556    1.0362    0.5375 H   0  0  0  0  0  0  0  0  0  0  0  0
    6.5606    2.1387   -1.5873 H   0  0  0  0  0  0  0  0  0  0  0  0
    9.2531    0.7084   -1.3785 H   0  0  0  0  0  0  0  0  0  0  0  0
    8.8278    2.3199   -0.8197 H   0  0  0  0  0  0  0  0  0  0  0  0
   10.3492    2.2127   -2.9255 H   0  0  0  0  0  0  0  0  0  0  0  0
    8.8822    3.1984   -3.1831 H   0  0  0  0  0  0  0  0  0  0  0  0
    9.0379    0.1487   -3.6949 H   0  0  0  0  0  0  0  0  0  0  0  0
    6.8423    2.3196   -3.8939 H   0  0  0  0  0  0  0  0  0  0  0  0
    6.9802   -0.6135   -2.9178 H   0  0  0  0  0  0  0  0  0  0  0  0
    5.5007    0.3872   -2.8676 H   0  0  0  0  0  0  0  0  0  0  0  0
    6.2062   -2.1510   -1.1710 H   0  0  0  0  0  0  0  0  0  0  0  0
    4.7773   -3.0764   -0.7385 H   0  0  0  0  0  0  0  0  0  0  0  0
    6.8907   -2.1303    1.2599 H   0  0  0  0  0  0  0  0  0  0  0  0
    4.4344   -3.9229    1.5470 H   0  0  0  0  0  0  0  0  0  0  0  0
    4.7927   -2.4272    2.3961 H   0  0  0  0  0  0  0  0  0  0  0  0
    5.0049   -4.5977    3.7989 H   0  0  0  0  0  0  0  0  0  0  0  0
    6.4943   -3.6133    3.8395 H   0  0  0  0  0  0  0  0  0  0  0  0
    5.9069   -5.7866    1.7133 H   0  0  0  0  0  0  0  0  0  0  0  0
    8.2022   -3.7872    2.2652 H   0  0  0  0  0  0  0  0  0  0  0  0
    6.7188   -4.8156   -0.2521 H   0  0  0  0  0  0  0  0  0  0  0  0
    8.0257   -3.5988   -0.2831 H   0  0  0  0  0  0  0  0  0  0  0  0
    2.8535   -2.0944    0.1027 H   0  0  0  0  0  0  0  0  0  0  0  0
  1  2  1  0
  1 24  1  0
  1 25  1  0
  1 26  1  0
  2  3  2  0
  2 23  1  0
  3  4  1  0
  3 27  1  0
  4  5  2  0
  4 28  1  0
  5  6  1  0
  5 14  1  0
  6  7  1  0
  6 29  1  0
  6 30  1  0
  7  8  1  0
  7 13  1  0
  7 31  1  1
  8  9  1  0
  8 32  1  0
  8 33  1  0
  9 10  1  0
  9 34  1  0
  9 35  1  0
 10 11  1  0
 10 12  1  0
 10 36  1  1
 11 12  1  0
 12 13  1  0
 12 37  1  6
 13 38  1  0
 13 39  1  0
 14 15  1  0
 14 23  2  0
 15 16  1  0
 15 40  1  0
 15 41  1  0
 16 17  1  0
 16 22  1  0
 16 42  1  1
 17 18  1  0
 17 43  1  0
 17 44  1  0
 18 19  1  0
 18 45  1  0
 18 46  1  0
 19 20  1  0
 19 21  1  0
 19 47  1  6
 20 21  1  0
 21 22  1  0
 21 48  1  1
 22 49  1  0
 22 50  1  0
 23 51  1  0
M  END

