
     RDKit          3D

 21 21  0  0  0  0  0  0  0  0999 V2000
    1.1069   -0.0420   -0.7984 O   0  0  0  0  0  0  0  0  0  0  0  0
    2.2172   -0.0317   -0.2886 C   0  0  0  0  0  0  0  0  0  0  0  0
    2.7986    1.0963    0.1942 N   0  0  0  0  0  0  0  0  0  0  0  0
    2.1228    2.3790    0.1891 C   0  0  0  0  0  0  0  0  0  0  0  0
    2.0289    2.9656    1.5838 C   0  0  0  0  0  0  0  0  0  0  0  0
    3.3072    3.1168    2.1022 F   0  0  0  0  0  0  0  0  0  0  0  0
    3.0246   -1.3268   -0.2422 C   0  0  0  0  0  0  0  0  0  0  0  0
    2.5543   -2.3268   -1.1043 C   0  0  0  0  0  0  0  0  0  0  0  0
    3.2083   -3.5599   -1.1509 C   0  0  0  0  0  0  0  0  0  0  0  0
    2.6152   -4.7890   -2.2424 Cl  0  0  0  0  0  0  0  0  0  0  0  0
    4.2598   -3.8611   -0.4105 N   0  0  0  0  0  0  0  0  0  0  0  0
    4.7170   -2.9343    0.4256 C   0  0  0  0  0  0  0  0  0  0  0  0
    4.1440   -1.6608    0.5466 C   0  0  0  0  0  0  0  0  0  0  0  0
    4.8851   -0.5930    1.7245 Cl  0  0  0  0  0  0  0  0  0  0  0  0
    3.7011    1.0466    0.6543 H   0  0  0  0  0  0  0  0  0  0  0  0
    1.1182    2.2283   -0.2308 H   0  0  0  0  0  0  0  0  0  0  0  0
    2.6619    3.0881   -0.4646 H   0  0  0  0  0  0  0  0  0  0  0  0
    1.4612    2.3007    2.2567 H   0  0  0  0  0  0  0  0  0  0  0  0
    1.5407    3.9550    1.5562 H   0  0  0  0  0  0  0  0  0  0  0  0
    1.6768   -2.1162   -1.7149 H   0  0  0  0  0  0  0  0  0  0  0  0
    5.5823   -3.1941    1.0440 H   0  0  0  0  0  0  0  0  0  0  0  0
  1  2  2  0
  2  3  1  0
  2  7  1  0
  3  4  1  0
  3 15  1  0
  4  5  1  0
  4 16  1  0
  4 17  1  0
  5  6  1  0
  5 18  1  0
  5 19  1  0
  7  8  2  0
  7 13  1  0
  8  9  1  0
  8 20  1  0
  9 10  1  0
  9 11  2  0
 11 12  1  0
 12 13  2  0
 12 21  1  0
 13 14  1  0
M  END

