
     RDKit          3D

 36 36  0  0  0  0  0  0  0  0999 V2000
    1.1405   -0.7307    0.4332 C   0  0  0  0  0  0  0  0  0  0  0  0
    2.4907   -0.0859    0.0655 C   0  0  1  0  0  0  0  0  0  0  0  0
    3.5940   -0.5816    1.0156 C   0  0  0  0  0  0  0  0  0  0  0  0
    2.8114   -0.3135   -1.3569 N   0  0  0  0  0  0  0  0  0  0  0  0
    2.6702   -1.6564   -1.9141 C   0  0  0  0  0  0  0  0  0  0  0  0
    3.0587   -1.6611   -3.3741 C   0  0  0  0  0  0  0  0  0  0  0  0
    4.2264   -2.2753   -3.8410 C   0  0  0  0  0  0  0  0  0  0  0  0
    4.5821   -2.2456   -5.1928 C   0  0  0  0  0  0  0  0  0  0  0  0
    3.7710   -1.5800   -6.1253 C   0  0  0  0  0  0  0  0  0  0  0  0
    4.1306   -1.5380   -7.5650 C   0  0  0  0  0  0  0  0  0  0  0  0
    5.4376   -1.7862   -7.9244 N   0  0  0  0  0  0  0  0  0  0  0  0
    3.1808   -1.3235   -8.4160 N   0  0  0  0  0  0  0  0  0  0  0  0
    3.6926   -1.2821   -9.7211 O   0  0  0  0  0  0  0  0  0  0  0  0
    2.5927   -0.9577   -5.6768 C   0  0  0  0  0  0  0  0  0  0  0  0
    2.2644   -1.0094   -4.3311 C   0  0  0  0  0  0  0  0  0  0  0  0
    1.1290   -0.4127   -3.9256 F   0  0  0  0  0  0  0  0  0  0  0  0
    2.2993    1.4468    0.2819 C   0  0  0  0  0  0  0  0  0  0  0  0
    1.9490    2.1270   -0.8371 N   0  0  0  0  0  0  0  0  0  0  0  0
    2.4119    1.9554    1.3844 O   0  0  0  0  0  0  0  0  0  0  0  0
    1.2067   -1.8294    0.4536 H   0  0  0  0  0  0  0  0  0  0  0  0
    0.3564   -0.4370   -0.2815 H   0  0  0  0  0  0  0  0  0  0  0  0
    0.8413   -0.3924    1.4353 H   0  0  0  0  0  0  0  0  0  0  0  0
    3.7013   -1.6763    0.9536 H   0  0  0  0  0  0  0  0  0  0  0  0
    3.3594   -0.3057    2.0525 H   0  0  0  0  0  0  0  0  0  0  0  0
    4.5639   -0.1216    0.7645 H   0  0  0  0  0  0  0  0  0  0  0  0
    3.7564    0.0241   -1.5403 H   0  0  0  0  0  0  0  0  0  0  0  0
    1.6164   -1.9617   -1.8274 H   0  0  0  0  0  0  0  0  0  0  0  0
    3.2714   -2.4265   -1.3873 H   0  0  0  0  0  0  0  0  0  0  0  0
    4.8658   -2.8025   -3.1274 H   0  0  0  0  0  0  0  0  0  0  0  0
    5.4809   -2.7677   -5.5257 H   0  0  0  0  0  0  0  0  0  0  0  0
    6.1559   -1.4768   -7.2806 H   0  0  0  0  0  0  0  0  0  0  0  0
    5.6366   -1.6129   -8.9044 H   0  0  0  0  0  0  0  0  0  0  0  0
    2.9042   -1.1327  -10.2563 H   0  0  0  0  0  0  0  0  0  0  0  0
    1.9404   -0.4405   -6.3803 H   0  0  0  0  0  0  0  0  0  0  0  0
    1.8790    1.6172   -1.7120 H   0  0  0  0  0  0  0  0  0  0  0  0
    1.7435    3.1158   -0.7689 H   0  0  0  0  0  0  0  0  0  0  0  0
  1  2  1  0
  1 20  1  0
  1 21  1  0
  1 22  1  0
  2  3  1  0
  2  4  1  0
  2 17  1  6
  3 23  1  0
  3 24  1  0
  3 25  1  0
  4  5  1  0
  4 26  1  0
  5  6  1  0
  5 27  1  0
  5 28  1  0
  6  7  2  0
  6 15  1  0
  7  8  1  0
  7 29  1  0
  8  9  2  0
  8 30  1  0
  9 10  1  0
  9 14  1  0
 10 11  1  0
 10 12  2  0
 11 31  1  0
 11 32  1  0
 12 13  1  0
 13 33  1  0
 14 15  2  0
 14 34  1  0
 15 16  1  0
 17 18  1  0
 17 19  2  0
 18 35  1  0
 18 36  1  0
M  END

