
     RDKit          3D

 27 28  0  0  0  0  0  0  0  0999 V2000
    3.1204    0.7609   -1.0241 C   0  0  0  0  0  0  0  0  0  0  0  0
    2.6465    0.1157    0.2876 C   0  0  0  0  0  0  0  0  0  0  0  0
    2.9453   -1.3665    0.3667 C   0  0  0  0  0  0  0  0  0  0  0  0
    4.1644   -1.8314    0.8885 C   0  0  0  0  0  0  0  0  0  0  0  0
    4.4576   -3.1963    0.9206 C   0  0  0  0  0  0  0  0  0  0  0  0
    3.5369   -4.1293    0.4359 C   0  0  0  0  0  0  0  0  0  0  0  0
    2.3274   -3.6668   -0.0780 C   0  0  0  0  0  0  0  0  0  0  0  0
    1.4548   -4.6031   -0.6335 O   0  0  0  0  0  0  0  0  0  0  0  0
    0.2710   -4.8796   -0.0673 C   0  0  0  0  0  0  0  0  0  0  0  0
   -0.0726   -4.3157    1.0811 N   0  0  0  0  0  0  0  0  0  0  0  0
   -1.2586   -4.6411    1.5992 C   0  0  0  0  0  0  0  0  0  0  0  0
   -2.1446   -5.4829    1.0782 N   0  0  0  0  0  0  0  0  0  0  0  0
   -1.8009   -6.0559   -0.0833 C   0  0  0  0  0  0  0  0  0  0  0  0
   -0.5899   -5.7922   -0.7174 C   0  0  0  0  0  0  0  0  0  0  0  0
   -0.0769   -6.7104   -2.5485 I   0  0  0  0  0  0  0  0  0  0  0  0
    2.0261   -2.3058   -0.1215 C   0  0  0  0  0  0  0  0  0  0  0  0
    2.8871    1.8377   -1.0413 H   0  0  0  0  0  0  0  0  0  0  0  0
    2.6340    0.2943   -1.8957 H   0  0  0  0  0  0  0  0  0  0  0  0
    4.2087    0.6471   -1.1528 H   0  0  0  0  0  0  0  0  0  0  0  0
    1.5612    0.2756    0.4011 H   0  0  0  0  0  0  0  0  0  0  0  0
    3.1257    0.6275    1.1388 H   0  0  0  0  0  0  0  0  0  0  0  0
    4.8912   -1.1123    1.2767 H   0  0  0  0  0  0  0  0  0  0  0  0
    5.4105   -3.5407    1.3301 H   0  0  0  0  0  0  0  0  0  0  0  0
    3.7424   -5.2010    0.4491 H   0  0  0  0  0  0  0  0  0  0  0  0
   -1.5218   -4.1635    2.5506 H   0  0  0  0  0  0  0  0  0  0  0  0
   -2.5176   -6.7534   -0.5299 H   0  0  0  0  0  0  0  0  0  0  0  0
    1.0681   -1.9811   -0.5334 H   0  0  0  0  0  0  0  0  0  0  0  0
  1  2  1  0
  1 17  1  0
  1 18  1  0
  1 19  1  0
  2  3  1  0
  2 20  1  0
  2 21  1  0
  3  4  2  0
  3 16  1  0
  4  5  1  0
  4 22  1  0
  5  6  2  0
  5 23  1  0
  6  7  1  0
  6 24  1  0
  7  8  1  0
  7 16  2  0
  8  9  1  0
  9 10  2  0
  9 14  1  0
 10 11  1  0
 11 12  2  0
 11 25  1  0
 12 13  1  0
 13 14  2  0
 13 26  1  0
 14 15  1  0
 16 27  1  0
M  END

