
     RDKit          3D

 50 51  0  0  0  0  0  0  0  0999 V2000
    1.0924   -0.7634   -0.5580 C   0  0  0  0  0  0  0  0  0  0  0  0
    2.5518   -1.0323   -0.9279 C   0  0  0  0  0  0  0  0  0  0  0  0
    3.2973    0.2219   -1.3922 C   0  0  0  0  0  0  0  0  0  0  0  0
    4.7486   -0.0480   -1.7594 C   0  0  0  0  0  0  0  0  0  0  0  0
    5.3371    1.1714   -2.1714 O   0  0  0  0  0  0  0  0  0  0  0  0
    6.6425    1.1995   -2.5517 C   0  0  0  0  0  0  0  0  0  0  0  0
    7.1560    2.4442   -2.9433 C   0  0  0  0  0  0  0  0  0  0  0  0
    8.4808    2.5739   -3.3442 C   0  0  0  0  0  0  0  0  0  0  0  0
    9.3324    1.4537   -3.3721 C   0  0  0  0  0  0  0  0  0  0  0  0
   10.6854    1.5245   -3.7803 N   0  0  0  0  0  0  0  0  0  0  0  0
   11.3948    2.6172   -4.2308 C   0  0  0  0  0  0  0  0  0  0  0  0
   10.9514    3.7587   -4.2627 O   0  0  0  0  0  0  0  0  0  0  0  0
   12.7075    2.3365   -4.6270 N   0  0  0  0  0  0  0  0  0  0  0  0
   13.1077    1.1061   -5.3169 C   0  0  0  0  0  0  0  0  0  0  0  0
   12.9839    1.2510   -6.8425 C   0  0  0  0  0  0  0  0  0  0  0  0
   13.7133    2.4992   -7.3598 C   0  0  0  0  0  0  0  0  0  0  0  0
   13.2887    3.7453   -6.5749 C   0  0  2  0  0  0  0  0  0  0  0  0
   14.0281    5.0042   -7.0121 C   0  0  0  0  0  0  0  0  0  0  0  0
   15.0059    5.0179   -7.7094 O   0  0  0  0  0  0  0  0  0  0  0  0
   13.5166    6.1577   -6.5211 O   0  0  0  0  0  0  0  0  0  0  0  0
   13.4821    3.4912   -5.0596 C   0  0  0  0  0  0  0  0  0  0  0  0
    8.8285    0.1927   -2.9827 C   0  0  0  0  0  0  0  0  0  0  0  0
    9.7061   -1.0369   -3.0041 C   0  0  0  0  0  0  0  0  0  0  0  0
    7.4896    0.0838   -2.5748 C   0  0  0  0  0  0  0  0  0  0  0  0
    0.5836   -1.6832   -0.2288 H   0  0  0  0  0  0  0  0  0  0  0  0
    0.5299   -0.3597   -1.4163 H   0  0  0  0  0  0  0  0  0  0  0  0
    1.0160   -0.0284    0.2605 H   0  0  0  0  0  0  0  0  0  0  0  0
    2.5939   -1.7996   -1.7225 H   0  0  0  0  0  0  0  0  0  0  0  0
    3.0761   -1.4704   -0.0590 H   0  0  0  0  0  0  0  0  0  0  0  0
    3.2743    0.9924   -0.6021 H   0  0  0  0  0  0  0  0  0  0  0  0
    2.7910    0.6627   -2.2686 H   0  0  0  0  0  0  0  0  0  0  0  0
    4.8089   -0.7973   -2.5733 H   0  0  0  0  0  0  0  0  0  0  0  0
    5.2964   -0.4641   -0.8910 H   0  0  0  0  0  0  0  0  0  0  0  0
    6.4940    3.3122   -2.9211 H   0  0  0  0  0  0  0  0  0  0  0  0
    8.8773    3.5431   -3.6359 H   0  0  0  0  0  0  0  0  0  0  0  0
   11.2232    0.6848   -3.6208 H   0  0  0  0  0  0  0  0  0  0  0  0
   12.5131    0.2510   -4.9686 H   0  0  0  0  0  0  0  0  0  0  0  0
   14.1557    0.8896   -5.0436 H   0  0  0  0  0  0  0  0  0  0  0  0
   11.9123    1.3108   -7.1036 H   0  0  0  0  0  0  0  0  0  0  0  0
   13.3802    0.3450   -7.3306 H   0  0  0  0  0  0  0  0  0  0  0  0
   13.5234    2.6411   -8.4351 H   0  0  0  0  0  0  0  0  0  0  0  0
   14.8052    2.3779   -7.2573 H   0  0  0  0  0  0  0  0  0  0  0  0
   12.2085    3.9286   -6.7224 H   0  0  0  0  0  0  0  0  0  0  0  0
   12.7104    5.9835   -6.0112 H   0  0  0  0  0  0  0  0  0  0  0  0
   13.1758    4.3575   -4.4627 H   0  0  0  0  0  0  0  0  0  0  0  0
   14.5489    3.2938   -4.8575 H   0  0  0  0  0  0  0  0  0  0  0  0
   10.0985   -1.2479   -4.0152 H   0  0  0  0  0  0  0  0  0  0  0  0
    9.1482   -1.9270   -2.6818 H   0  0  0  0  0  0  0  0  0  0  0  0
   10.5755   -0.9421   -2.3274 H   0  0  0  0  0  0  0  0  0  0  0  0
    7.1218   -0.8985   -2.2770 H   0  0  0  0  0  0  0  0  0  0  0  0
  1  2  1  0
  1 25  1  0
  1 26  1  0
  1 27  1  0
  2  3  1  0
  2 28  1  0
  2 29  1  0
  3  4  1  0
  3 30  1  0
  3 31  1  0
  4  5  1  0
  4 32  1  0
  4 33  1  0
  5  6  1  0
  6  7  2  0
  6 24  1  0
  7  8  1  0
  7 34  1  0
  8  9  2  0
  8 35  1  0
  9 10  1  0
  9 22  1  0
 10 11  1  0
 10 36  1  0
 11 12  2  0
 11 13  1  0
 13 14  1  0
 13 21  1  0
 14 15  1  0
 14 37  1  0
 14 38  1  0
 15 16  1  0
 15 39  1  0
 15 40  1  0
 16 17  1  0
 16 41  1  0
 16 42  1  0
 17 18  1  0
 17 21  1  0
 17 43  1  1
 18 19  2  0
 18 20  1  0
 20 44  1  0
 21 45  1  0
 21 46  1  0
 22 23  1  0
 22 24  2  0
 23 47  1  0
 23 48  1  0
 23 49  1  0
 24 50  1  0
M  END

