
     RDKit          3D

 37 39  0  0  0  0  0  0  0  0999 V2000
    2.7832    0.4764    1.3426 O   0  0  0  0  0  0  0  0  0  0  0  0
    2.6816   -0.0023   -0.0310 S   0  0  1  0  0  0  0  0  0  0  0  0
    3.3285   -1.2302   -0.4923 O   0  0  0  0  0  0  0  0  0  0  0  0
    1.0106   -0.2098   -0.2645 N   0  0  0  0  0  0  0  0  0  0  0  0
    0.3746   -0.7108   -1.4052 C   0  0  0  0  0  0  0  0  0  0  0  0
    0.8809   -1.7806   -2.1726 C   0  0  0  0  0  0  0  0  0  0  0  0
    0.1048   -2.1791   -3.2458 C   0  0  0  0  0  0  0  0  0  0  0  0
   -1.1107   -1.5130   -3.4651 C   0  0  0  0  0  0  0  0  0  0  0  0
   -1.5387   -0.5238   -2.6845 N   0  0  0  0  0  0  0  0  0  0  0  0
   -0.7960   -0.1174   -1.6705 N   0  0  0  0  0  0  0  0  0  0  0  0
    3.1729    1.3284   -1.1259 C   0  0  0  0  0  0  0  0  0  0  0  0
    3.0308    2.6519   -0.6947 C   0  0  0  0  0  0  0  0  0  0  0  0
    3.3963    3.6887   -1.5524 C   0  0  0  0  0  0  0  0  0  0  0  0
    3.9089    3.4188   -2.8324 C   0  0  0  0  0  0  0  0  0  0  0  0
    4.2650    4.5479   -3.7792 C   0  0  0  0  0  0  0  0  0  0  0  0
    4.7177    5.7422   -3.0866 N   0  0  0  0  0  0  0  0  0  0  0  0
    4.9202    6.8881   -3.9267 C   0  0  1  0  0  0  0  0  0  0  0  0
    3.7417    7.7947   -4.1823 C   0  0  0  0  0  0  0  0  0  0  0  0
    4.8655    8.2470   -3.2839 C   0  0  0  0  0  0  0  0  0  0  0  0
    4.0618    2.0818   -3.2312 C   0  0  0  0  0  0  0  0  0  0  0  0
    3.6961    1.0316   -2.3877 C   0  0  0  0  0  0  0  0  0  0  0  0
    0.4585    0.5068    0.2081 H   0  0  0  0  0  0  0  0  0  0  0  0
    1.8230   -2.2579   -1.9054 H   0  0  0  0  0  0  0  0  0  0  0  0
    0.4175   -3.0002   -3.8955 H   0  0  0  0  0  0  0  0  0  0  0  0
   -1.7732   -1.7847   -4.2922 H   0  0  0  0  0  0  0  0  0  0  0  0
    2.6531    2.8609    0.3081 H   0  0  0  0  0  0  0  0  0  0  0  0
    3.3026    4.7287   -1.2350 H   0  0  0  0  0  0  0  0  0  0  0  0
    3.3606    4.8221   -4.3538 H   0  0  0  0  0  0  0  0  0  0  0  0
    4.9903    4.1698   -4.5330 H   0  0  0  0  0  0  0  0  0  0  0  0
    5.5588    5.5417   -2.5451 H   0  0  0  0  0  0  0  0  0  0  0  0
    5.6274    6.7740   -4.7665 H   0  0  0  0  0  0  0  0  0  0  0  0
    2.7976    7.5198   -3.7043 H   0  0  0  0  0  0  0  0  0  0  0  0
    3.6429    8.2516   -5.1709 H   0  0  0  0  0  0  0  0  0  0  0  0
    4.6695    8.2721   -2.2087 H   0  0  0  0  0  0  0  0  0  0  0  0
    5.5503    9.0189   -3.6455 H   0  0  0  0  0  0  0  0  0  0  0  0
    4.4836    1.8563   -4.2147 H   0  0  0  0  0  0  0  0  0  0  0  0
    3.8366   -0.0074   -2.6890 H   0  0  0  0  0  0  0  0  0  0  0  0
  1  2  2  0
  2  3  2  0
  2  4  1  6
  2 11  1  0
  4  5  1  0
  4 22  1  0
  5  6  2  0
  5 10  1  0
  6  7  1  0
  6 23  1  0
  7  8  2  0
  7 24  1  0
  8  9  1  0
  8 25  1  0
  9 10  2  0
 11 12  2  0
 11 21  1  0
 12 13  1  0
 12 26  1  0
 13 14  2  0
 13 27  1  0
 14 15  1  0
 14 20  1  0
 15 16  1  0
 15 28  1  0
 15 29  1  0
 16 17  1  0
 16 30  1  0
 17 18  1  0
 17 19  1  0
 17 31  1  6
 18 19  1  0
 18 32  1  0
 18 33  1  0
 19 34  1  0
 19 35  1  0
 20 21  2  0
 20 36  1  0
 21 37  1  0
M  END

