
     RDKit          3D

 58 65  0  0  0  0  0  0  0  0999 V2000
    3.1431    0.8848   -2.4185 C   0  0  0  0  0  0  0  0  0  0  0  0
    4.2756   -0.0437   -2.0524 C   0  0  0  0  0  0  0  0  0  0  0  0
    5.5858    0.4249   -1.9089 C   0  0  0  0  0  0  0  0  0  0  0  0
    6.6477   -0.4251   -1.5660 C   0  0  0  0  0  0  0  0  0  0  0  0
    8.0434    0.1335   -1.4139 C   0  0  0  0  0  0  0  0  0  0  0  0
    6.3806   -1.7960   -1.3568 C   0  0  0  0  0  0  0  0  0  0  0  0
    7.4941   -2.7239   -0.9880 C   0  0  0  0  0  0  0  0  0  0  0  0
    7.7399   -3.0484    0.3613 C   0  0  0  0  0  0  0  0  0  0  0  0
    7.2526   -2.4716    1.5722 C   0  0  0  0  0  0  0  0  0  0  0  0
    8.0823   -2.8926    2.6042 C   0  0  0  0  0  0  0  0  0  0  0  0
    9.0874   -3.7201    2.0200 C   0  0  0  0  0  0  0  0  0  0  0  0
    8.8030   -3.8742    0.7083 N   0  0  0  0  0  0  0  0  0  0  0  0
    9.7495   -4.6027   -0.2402 B   0  0  1  0  0  0  0  0  0  0  0  0
   11.1114   -4.2133    0.1569 O   0  0  0  0  0  0  0  0  0  0  0  0
   11.4039   -4.2912    1.4646 C   0  0  0  0  0  0  0  0  0  0  0  0
   12.7388   -4.4897    1.8575 C   0  0  0  0  0  0  0  0  0  0  0  0
   13.0723   -4.5750    3.2062 C   0  0  0  0  0  0  0  0  0  0  0  0
   12.0873   -4.4519    4.2007 C   0  0  0  0  0  0  0  0  0  0  0  0
   10.7670   -4.2250    3.8309 C   0  0  0  0  0  0  0  0  0  0  0  0
   10.3995   -4.1384    2.4737 C   0  0  0  0  0  0  0  0  0  0  0  0
    9.6882   -6.0724   -0.2062 O   0  0  0  0  0  0  0  0  0  0  0  0
   10.2697   -6.7255   -1.2243 C   0  0  0  0  0  0  0  0  0  0  0  0
   10.7432   -8.0328   -1.0182 C   0  0  0  0  0  0  0  0  0  0  0  0
   11.3514   -8.7348   -2.0549 C   0  0  0  0  0  0  0  0  0  0  0  0
   11.4932   -8.1588   -3.3287 C   0  0  0  0  0  0  0  0  0  0  0  0
   11.0037   -6.8785   -3.5584 C   0  0  0  0  0  0  0  0  0  0  0  0
   10.3870   -6.1429   -2.5271 C   0  0  0  0  0  0  0  0  0  0  0  0
    9.6911   -4.8888   -2.7384 C   0  0  0  0  0  0  0  0  0  0  0  0
    9.0341   -4.3282   -3.8746 C   0  0  0  0  0  0  0  0  0  0  0  0
    8.1768   -3.3422   -3.4023 C   0  0  0  0  0  0  0  0  0  0  0  0
    8.3159   -3.2899   -1.9830 C   0  0  0  0  0  0  0  0  0  0  0  0
    9.3199   -4.1896   -1.6437 N   0  0  0  0  0  0  0  0  0  0  0  0
    5.0641   -2.2966   -1.4947 C   0  0  0  0  0  0  0  0  0  0  0  0
    4.7605   -3.7629   -1.2918 C   0  0  0  0  0  0  0  0  0  0  0  0
    4.0387   -1.4091   -1.8415 C   0  0  0  0  0  0  0  0  0  0  0  0
    3.4995    1.9107   -2.5925 H   0  0  0  0  0  0  0  0  0  0  0  0
    2.3841    0.9236   -1.6190 H   0  0  0  0  0  0  0  0  0  0  0  0
    2.6274    0.5465   -3.3326 H   0  0  0  0  0  0  0  0  0  0  0  0
    5.7939    1.4873   -2.0667 H   0  0  0  0  0  0  0  0  0  0  0  0
    8.0545    1.2201   -1.5814 H   0  0  0  0  0  0  0  0  0  0  0  0
    8.7454   -0.3277   -2.1267 H   0  0  0  0  0  0  0  0  0  0  0  0
    8.4476   -0.0594   -0.4070 H   0  0  0  0  0  0  0  0  0  0  0  0
    6.4184   -1.7760    1.6396 H   0  0  0  0  0  0  0  0  0  0  0  0
    8.0369   -2.5888    3.6478 H   0  0  0  0  0  0  0  0  0  0  0  0
   13.4936   -4.5888    1.0750 H   0  0  0  0  0  0  0  0  0  0  0  0
   14.1138   -4.7465    3.4912 H   0  0  0  0  0  0  0  0  0  0  0  0
   12.3577   -4.5280    5.2562 H   0  0  0  0  0  0  0  0  0  0  0  0
    9.9942   -4.1117    4.5956 H   0  0  0  0  0  0  0  0  0  0  0  0
   10.6317   -8.4669   -0.0228 H   0  0  0  0  0  0  0  0  0  0  0  0
   11.7282   -9.7443   -1.8702 H   0  0  0  0  0  0  0  0  0  0  0  0
   11.9789   -8.7146   -4.1337 H   0  0  0  0  0  0  0  0  0  0  0  0
   11.0937   -6.4257   -4.5492 H   0  0  0  0  0  0  0  0  0  0  0  0
    9.1331   -4.6752   -4.9008 H   0  0  0  0  0  0  0  0  0  0  0  0
    7.4701   -2.7505   -3.9810 H   0  0  0  0  0  0  0  0  0  0  0  0
    5.0419   -4.1010   -0.2821 H   0  0  0  0  0  0  0  0  0  0  0  0
    5.3240   -4.3917   -2.0004 H   0  0  0  0  0  0  0  0  0  0  0  0
    3.6898   -3.9682   -1.4340 H   0  0  0  0  0  0  0  0  0  0  0  0
    3.0220   -1.7990   -1.9517 H   0  0  0  0  0  0  0  0  0  0  0  0
  1  2  1  0
  1 36  1  0
  1 37  1  0
  1 38  1  0
  2  3  2  0
  2 35  1  0
  3  4  1  0
  3 39  1  0
  4  5  1  0
  4  6  2  0
  5 40  1  0
  5 41  1  0
  5 42  1  0
  6  7  1  0
  6 33  1  0
  7  8  1  0
  7 31  2  0
  8  9  2  0
  8 12  1  0
  9 10  1  0
  9 43  1  0
 10 11  2  0
 10 44  1  0
 11 12  1  0
 11 20  1  0
 12 13  1  0
 13 14  1  1
 13 21  1  0
 13 32  1  0
 14 15  1  0
 15 16  1  0
 15 20  2  0
 16 17  2  0
 16 45  1  0
 17 18  1  0
 17 46  1  0
 18 19  2  0
 18 47  1  0
 19 20  1  0
 19 48  1  0
 21 22  1  0
 22 23  2  0
 22 27  1  0
 23 24  1  0
 23 49  1  0
 24 25  2  0
 24 50  1  0
 25 26  1  0
 25 51  1  0
 26 27  2  0
 26 52  1  0
 27 28  1  0
 28 29  1  0
 28 32  2  0
 29 30  2  0
 29 53  1  0
 30 31  1  0
 30 54  1  0
 31 32  1  0
 33 34  1  0
 33 35  2  0
 34 55  1  0
 34 56  1  0
 34 57  1  0
 35 58  1  0
M  CHG  2  13  -1  32   1
M  END

