
     RDKit          3D

 39 40  0  0  0  0  0  0  0  0999 V2000
    2.6062    1.2349   -0.0671 N   0  0  0  0  0  0  0  0  0  0  0  0
    2.2456   -0.0284    0.2888 C   0  0  0  0  0  0  0  0  0  0  0  0
    1.0966   -0.4268    0.2575 O   0  0  0  0  0  0  0  0  0  0  0  0
    3.3935   -0.9220    0.8281 C   0  0  1  0  0  0  0  0  0  0  0  0
    3.1232   -2.4122    0.5514 C   0  0  0  0  0  0  0  0  0  0  0  0
    3.4101   -2.7968   -0.9027 C   0  0  0  0  0  0  0  0  0  0  0  0
    4.8231   -2.3641   -1.3049 C   0  0  0  0  0  0  0  0  0  0  0  0
    5.0268   -0.8704   -1.0438 C   0  0  0  0  0  0  0  0  0  0  0  0
    4.7174   -0.5123    0.3496 N   0  0  0  0  0  0  0  0  0  0  0  0
    5.7243    0.0091    1.1352 C   0  0  0  0  0  0  0  0  0  0  0  0
    6.8535    0.1941    0.7049 O   0  0  0  0  0  0  0  0  0  0  0  0
    5.4103    0.3657    2.5945 C   0  0  0  0  0  0  0  0  0  0  0  0
    5.6379   -0.7956    3.5482 C   0  0  0  0  0  0  0  0  0  0  0  0
    6.8439   -1.5196    3.5102 C   0  0  0  0  0  0  0  0  0  0  0  0
    7.0671   -2.5740    4.3948 C   0  0  0  0  0  0  0  0  0  0  0  0
    6.0949   -2.9285    5.3361 C   0  0  0  0  0  0  0  0  0  0  0  0
    4.8961   -2.2146    5.3817 C   0  0  0  0  0  0  0  0  0  0  0  0
    3.8236   -2.5540    6.3874 C   0  0  1  0  0  0  0  0  0  0  0  0
    4.1417   -3.6254    7.1314 F   0  0  0  0  0  0  0  0  0  0  0  0
    3.6002   -1.5299    7.2337 F   0  0  0  0  0  0  0  0  0  0  0  0
    2.6485   -2.8172    5.7839 F   0  0  0  0  0  0  0  0  0  0  0  0
    4.6697   -1.1550    4.4914 C   0  0  0  0  0  0  0  0  0  0  0  0
    1.8865    1.8611   -0.4088 H   0  0  0  0  0  0  0  0  0  0  0  0
    3.5757    1.5192   -0.1034 H   0  0  0  0  0  0  0  0  0  0  0  0
    3.3570   -0.7842    1.9165 H   0  0  0  0  0  0  0  0  0  0  0  0
    2.0767   -2.6181    0.8151 H   0  0  0  0  0  0  0  0  0  0  0  0
    3.7653   -3.0026    1.2261 H   0  0  0  0  0  0  0  0  0  0  0  0
    2.6697   -2.3114   -1.5633 H   0  0  0  0  0  0  0  0  0  0  0  0
    3.2812   -3.8831   -1.0362 H   0  0  0  0  0  0  0  0  0  0  0  0
    5.0125   -2.5709   -2.3712 H   0  0  0  0  0  0  0  0  0  0  0  0
    5.5718   -2.9364   -0.7292 H   0  0  0  0  0  0  0  0  0  0  0  0
    4.3655   -0.2877   -1.7116 H   0  0  0  0  0  0  0  0  0  0  0  0
    6.0612   -0.5597   -1.2313 H   0  0  0  0  0  0  0  0  0  0  0  0
    4.3976    0.7725    2.7219 H   0  0  0  0  0  0  0  0  0  0  0  0
    6.1193    1.1729    2.8331 H   0  0  0  0  0  0  0  0  0  0  0  0
    7.6049   -1.2433    2.7763 H   0  0  0  0  0  0  0  0  0  0  0  0
    8.0088   -3.1267    4.3542 H   0  0  0  0  0  0  0  0  0  0  0  0
    6.2655   -3.7526    6.0301 H   0  0  0  0  0  0  0  0  0  0  0  0
    3.7272   -0.6033    4.5435 H   0  0  0  0  0  0  0  0  0  0  0  0
  1  2  1  0
  1 23  1  0
  1 24  1  0
  2  3  2  0
  2  4  1  0
  4  5  1  0
  4  9  1  0
  4 25  1  1
  5  6  1  0
  5 26  1  0
  5 27  1  0
  6  7  1  0
  6 28  1  0
  6 29  1  0
  7  8  1  0
  7 30  1  0
  7 31  1  0
  8  9  1  0
  8 32  1  0
  8 33  1  0
  9 10  1  0
 10 11  2  0
 10 12  1  0
 12 13  1  0
 12 34  1  0
 12 35  1  0
 13 14  2  0
 13 22  1  0
 14 15  1  0
 14 36  1  0
 15 16  2  0
 15 37  1  0
 16 17  1  0
 16 38  1  0
 17 18  1  0
 17 22  2  0
 18 19  1  1
 18 20  1  0
 18 21  1  0
 22 39  1  0
M  END

