
     RDKit          3D

 31 32  0  0  0  0  0  0  0  0999 V2000
    3.0001   -0.5769    2.2630 C   0  0  0  0  0  0  0  0  0  0  0  0
    3.4795   -0.2446    0.8750 C   0  0  0  0  0  0  0  0  0  0  0  0
    4.0233    0.9655    0.5152 C   0  0  0  0  0  0  0  0  0  0  0  0
    4.5061    1.0061   -1.1460 S   0  0  0  0  0  0  0  0  0  0  0  0
    3.9743   -0.6189   -1.3826 C   0  0  0  0  0  0  0  0  0  0  0  0
    3.4520   -1.1690   -0.2356 C   0  0  0  0  0  0  0  0  0  0  0  0
    2.8790   -2.5606   -0.1594 C   0  0  0  0  0  0  0  0  0  0  0  0
    1.4453   -2.5503   -0.4649 N   0  0  0  0  0  0  0  0  0  0  0  0
    0.7077   -3.7244   -0.3283 C   0  0  0  0  0  0  0  0  0  0  0  0
    1.3235   -4.8270    0.0758 N   0  0  0  0  0  0  0  0  0  0  0  0
    0.6177   -5.9606    0.2069 C   0  0  0  0  0  0  0  0  0  0  0  0
   -0.7501   -6.0234   -0.0091 C   0  0  0  0  0  0  0  0  0  0  0  0
   -1.4234   -4.8655   -0.4457 C   0  0  0  0  0  0  0  0  0  0  0  0
   -2.9182   -4.9500   -0.6184 C   0  0  0  0  0  0  0  0  0  0  0  0
   -3.5063   -5.9918   -0.7385 O   0  0  0  0  0  0  0  0  0  0  0  0
   -3.5929   -3.7780   -0.5935 O   0  0  0  0  0  0  0  0  0  0  0  0
   -0.6755   -3.7048   -0.6885 C   0  0  0  0  0  0  0  0  0  0  0  0
   -1.2355   -2.5232   -1.2169 N   0  0  0  0  0  0  0  0  0  0  0  0
    3.0750    0.2947    2.9290 H   0  0  0  0  0  0  0  0  0  0  0  0
    3.5949   -1.3915    2.7097 H   0  0  0  0  0  0  0  0  0  0  0  0
    1.9494   -0.9125    2.2692 H   0  0  0  0  0  0  0  0  0  0  0  0
    4.1760    1.8381    1.1495 H   0  0  0  0  0  0  0  0  0  0  0  0
    4.0738   -1.0949   -2.3577 H   0  0  0  0  0  0  0  0  0  0  0  0
    3.0649   -3.0047    0.8346 H   0  0  0  0  0  0  0  0  0  0  0  0
    3.3760   -3.2274   -0.8800 H   0  0  0  0  0  0  0  0  0  0  0  0
    0.9719   -1.7143   -0.1316 H   0  0  0  0  0  0  0  0  0  0  0  0
    1.1769   -6.8495    0.5174 H   0  0  0  0  0  0  0  0  0  0  0  0
   -1.3211   -6.9393    0.1466 H   0  0  0  0  0  0  0  0  0  0  0  0
   -2.9917   -3.0328   -0.4078 H   0  0  0  0  0  0  0  0  0  0  0  0
   -1.8855   -2.6947   -1.9834 H   0  0  0  0  0  0  0  0  0  0  0  0
   -0.5150   -1.8821   -1.5452 H   0  0  0  0  0  0  0  0  0  0  0  0
  1  2  1  0
  1 19  1  0
  1 20  1  0
  1 21  1  0
  2  3  2  0
  2  6  1  0
  3  4  1  0
  3 22  1  0
  4  5  1  0
  5  6  2  0
  5 23  1  0
  6  7  1  0
  7  8  1  0
  7 24  1  0
  7 25  1  0
  8  9  1  0
  8 26  1  0
  9 10  2  0
  9 17  1  0
 10 11  1  0
 11 12  2  0
 11 27  1  0
 12 13  1  0
 12 28  1  0
 13 14  1  0
 13 17  2  0
 14 15  2  0
 14 16  1  0
 16 29  1  0
 17 18  1  0
 18 30  1  0
 18 31  1  0
M  END

