
     RDKit          3D

 41 43  0  0  0  0  0  0  0  0999 V2000
    3.8621   -4.5011    1.1276 C   0  0  0  0  0  0  0  0  0  0  0  0
    4.4549   -3.1481    0.8805 C   0  0  0  0  0  0  0  0  0  0  0  0
    3.3650   -1.7751    0.7111 S   0  0  0  0  0  0  0  0  0  0  0  0
    4.7119   -0.6990    0.4714 C   0  0  0  0  0  0  0  0  0  0  0  0
    4.5744    0.5829    0.2699 N   0  0  0  0  0  0  0  0  0  0  0  0
    5.7137    1.2796    0.1012 C   0  0  0  0  0  0  0  0  0  0  0  0
    6.9858    0.7298    0.1292 C   0  0  0  0  0  0  0  0  0  0  0  0
    8.1397    1.6772   -0.0815 C   0  0  0  0  0  0  0  0  0  0  0  0
    7.9326    2.8697   -0.2636 O   0  0  0  0  0  0  0  0  0  0  0  0
    9.3805    1.0986   -0.0501 N   0  0  0  0  0  0  0  0  0  0  0  0
   10.6323    1.7088   -0.2126 C   0  0  0  0  0  0  0  0  0  0  0  0
   10.8121    3.0812   -0.4670 C   0  0  0  0  0  0  0  0  0  0  0  0
   12.1030    3.5934   -0.6182 C   0  0  0  0  0  0  0  0  0  0  0  0
   13.2465    2.7847   -0.5221 C   0  0  0  0  0  0  0  0  0  0  0  0
   14.6354    3.3619   -0.6478 C   0  0  0  0  0  0  0  0  0  0  0  0
   15.3474    3.7806    0.6536 C   0  0  0  0  0  0  0  0  0  0  0  0
   14.5442    3.9751    1.7359 N   0  0  0  0  0  0  0  0  0  0  0  0
   16.5508    3.9580    0.6803 O   0  0  0  0  0  0  0  0  0  0  0  0
   13.0501    1.4161   -0.2689 C   0  0  0  0  0  0  0  0  0  0  0  0
   11.7723    0.8855   -0.1179 C   0  0  0  0  0  0  0  0  0  0  0  0
    7.1503   -0.6900    0.3531 C   0  0  0  0  0  0  0  0  0  0  0  0
    8.2083   -1.3128    0.4052 O   0  0  0  0  0  0  0  0  0  0  0  0
    5.9059   -1.3894    0.5255 N   0  0  0  0  0  0  0  0  0  0  0  0
    5.7622   -2.7844    0.7580 C   0  0  0  0  0  0  0  0  0  0  0  0
    6.9422   -3.7053    0.8479 C   0  0  0  0  0  0  0  0  0  0  0  0
    3.1876   -4.7966    0.3070 H   0  0  0  0  0  0  0  0  0  0  0  0
    3.2714   -4.5132    2.0585 H   0  0  0  0  0  0  0  0  0  0  0  0
    4.6411   -5.2693    1.2148 H   0  0  0  0  0  0  0  0  0  0  0  0
    5.6255    2.3561   -0.0703 H   0  0  0  0  0  0  0  0  0  0  0  0
    9.3731    0.0886    0.1160 H   0  0  0  0  0  0  0  0  0  0  0  0
    9.9396    3.7247   -0.5490 H   0  0  0  0  0  0  0  0  0  0  0  0
   12.2194    4.6617   -0.8252 H   0  0  0  0  0  0  0  0  0  0  0  0
   14.6219    4.2649   -1.2816 H   0  0  0  0  0  0  0  0  0  0  0  0
   15.3224    2.6568   -1.1391 H   0  0  0  0  0  0  0  0  0  0  0  0
   13.5536    3.7703    1.7119 H   0  0  0  0  0  0  0  0  0  0  0  0
   14.9768    4.2552    2.6079 H   0  0  0  0  0  0  0  0  0  0  0  0
   13.9156    0.7517   -0.1914 H   0  0  0  0  0  0  0  0  0  0  0  0
   11.6477   -0.1842    0.0737 H   0  0  0  0  0  0  0  0  0  0  0  0
    7.6220   -3.4137    1.6599 H   0  0  0  0  0  0  0  0  0  0  0  0
    7.5368   -3.6913   -0.0756 H   0  0  0  0  0  0  0  0  0  0  0  0
    6.5937   -4.7299    1.0286 H   0  0  0  0  0  0  0  0  0  0  0  0
  1  2  1  0
  1 26  1  0
  1 27  1  0
  1 28  1  0
  2  3  1  0
  2 24  2  0
  3  4  2  0
  4  5  1  0
  4 23  1  0
  5  6  2  0
  6  7  1  0
  6 29  1  0
  7  8  1  0
  7 21  2  0
  8  9  2  0
  8 10  1  0
 10 11  1  0
 10 30  1  0
 11 12  2  0
 11 20  1  0
 12 13  1  0
 12 31  1  0
 13 14  2  0
 13 32  1  0
 14 15  1  0
 14 19  1  0
 15 16  1  0
 15 33  1  0
 15 34  1  0
 16 17  1  0
 16 18  2  0
 17 35  1  0
 17 36  1  0
 19 20  2  0
 19 37  1  0
 20 38  1  0
 21 22  1  0
 21 23  1  0
 23 24  1  0
 24 25  1  0
 25 39  1  0
 25 40  1  0
 25 41  1  0
M  CHG  2   3   1  22  -1
M  END

