
     RDKit          3D

 47 48  0  0  0  0  0  0  0  0999 V2000
    5.7245   -0.8216   -4.1689 C   0  0  0  0  0  0  0  0  0  0  0  0
    4.9922   -1.5686   -3.2211 O   0  0  0  0  0  0  0  0  0  0  0  0
    5.3762   -1.5631   -1.9216 C   0  0  0  0  0  0  0  0  0  0  0  0
    6.4668   -0.8337   -1.4261 C   0  0  0  0  0  0  0  0  0  0  0  0
    6.7497   -0.9110   -0.0618 C   0  0  0  0  0  0  0  0  0  0  0  0
    8.0954    0.0133    0.5732 Cl  0  0  0  0  0  0  0  0  0  0  0  0
    6.0067   -1.7040    0.8108 C   0  0  0  0  0  0  0  0  0  0  0  0
    4.9353   -2.4568    0.3000 C   0  0  0  0  0  0  0  0  0  0  0  0
    4.2019   -3.3121    1.0392 O   0  0  0  0  0  0  0  0  0  0  0  0
    4.3350   -3.3181    2.4436 C   0  0  0  0  0  0  0  0  0  0  0  0
    4.5926   -2.3626   -1.0649 C   0  0  0  0  0  0  0  0  0  0  0  0
    3.5025   -3.0797   -1.6025 N   0  0  0  0  0  0  0  0  0  0  0  0
    2.2197   -2.9691   -1.1498 C   0  0  0  0  0  0  0  0  0  0  0  0
    1.8556   -2.2857   -0.2171 O   0  0  0  0  0  0  0  0  0  0  0  0
    1.2173   -3.8983   -1.9123 C   0  0  1  0  0  0  0  0  0  0  0  0
   -0.1205   -3.6211   -1.4137 N   0  0  0  0  0  0  0  0  0  0  0  0
   -0.5498   -4.5162   -0.6657 N   0  0  0  0  0  0  0  0  0  0  0  0
   -1.8191   -4.3039   -0.0684 C   0  0  0  0  0  0  0  0  0  0  0  0
   -2.4743   -5.4992    0.2769 C   0  0  0  0  0  0  0  0  0  0  0  0
   -3.7259   -5.4638    0.8819 C   0  0  0  0  0  0  0  0  0  0  0  0
   -4.5496   -6.9555    1.2752 Cl  0  0  0  0  0  0  0  0  0  0  0  0
   -4.3150   -4.2358    1.1947 C   0  0  0  0  0  0  0  0  0  0  0  0
   -3.6339   -3.0564    0.8890 C   0  0  0  0  0  0  0  0  0  0  0  0
   -2.3842   -3.0400    0.2484 C   0  0  0  0  0  0  0  0  0  0  0  0
   -1.7074   -1.7213   -0.0242 C   0  0  0  0  0  0  0  0  0  0  0  0
    1.3004   -3.7544   -3.4414 C   0  0  0  0  0  0  0  0  0  0  0  0
    0.0467   -3.3865   -4.1915 C   0  0  0  0  0  0  0  0  0  0  0  0
    2.3582   -3.9549   -4.0045 O   0  0  0  0  0  0  0  0  0  0  0  0
    5.2375   -0.9896   -5.1385 H   0  0  0  0  0  0  0  0  0  0  0  0
    6.7748   -1.1573   -4.2306 H   0  0  0  0  0  0  0  0  0  0  0  0
    5.7067    0.2584   -3.9390 H   0  0  0  0  0  0  0  0  0  0  0  0
    7.0791   -0.2068   -2.0701 H   0  0  0  0  0  0  0  0  0  0  0  0
    6.2807   -1.7476    1.8624 H   0  0  0  0  0  0  0  0  0  0  0  0
    3.5857   -4.0255    2.8222 H   0  0  0  0  0  0  0  0  0  0  0  0
    4.1365   -2.3207    2.8727 H   0  0  0  0  0  0  0  0  0  0  0  0
    5.3380   -3.6554    2.7613 H   0  0  0  0  0  0  0  0  0  0  0  0
    3.6140   -3.4869   -2.5329 H   0  0  0  0  0  0  0  0  0  0  0  0
    1.5156   -4.9370   -1.6679 H   0  0  0  0  0  0  0  0  0  0  0  0
   -1.9806   -6.4452    0.0527 H   0  0  0  0  0  0  0  0  0  0  0  0
   -5.2888   -4.2071    1.6863 H   0  0  0  0  0  0  0  0  0  0  0  0
   -4.0923   -2.1016    1.1611 H   0  0  0  0  0  0  0  0  0  0  0  0
   -2.1590   -0.9308    0.5942 H   0  0  0  0  0  0  0  0  0  0  0  0
   -1.8103   -1.4304   -1.0815 H   0  0  0  0  0  0  0  0  0  0  0  0
   -0.6255   -1.7652    0.1694 H   0  0  0  0  0  0  0  0  0  0  0  0
   -0.7524   -4.1161   -3.9835 H   0  0  0  0  0  0  0  0  0  0  0  0
    0.2623   -3.3507   -5.2670 H   0  0  0  0  0  0  0  0  0  0  0  0
   -0.3292   -2.4142   -3.8363 H   0  0  0  0  0  0  0  0  0  0  0  0
  1  2  1  0
  1 29  1  0
  1 30  1  0
  1 31  1  0
  2  3  1  0
  3  4  2  0
  3 11  1  0
  4  5  1  0
  4 32  1  0
  5  6  1  0
  5  7  2  0
  7  8  1  0
  7 33  1  0
  8  9  1  0
  8 11  2  0
  9 10  1  0
 10 34  1  0
 10 35  1  0
 10 36  1  0
 11 12  1  0
 12 13  1  0
 12 37  1  0
 13 14  2  0
 13 15  1  0
 15 16  1  0
 15 26  1  0
 15 38  1  6
 16 17  2  0
 17 18  1  0
 18 19  2  0
 18 24  1  0
 19 20  1  0
 19 39  1  0
 20 21  1  0
 20 22  2  0
 22 23  1  0
 22 40  1  0
 23 24  2  0
 23 41  1  0
 24 25  1  0
 25 42  1  0
 25 43  1  0
 25 44  1  0
 26 27  1  0
 26 28  2  0
 27 45  1  0
 27 46  1  0
 27 47  1  0
M  END

