
     RDKit          3D

 48 50  0  0  0  0  0  0  0  0999 V2000
    0.7423    0.0348   -0.1244 C   0  0  0  0  0  0  0  0  0  0  0  0
    2.2525   -0.1579    0.0693 C   0  0  1  0  0  0  0  0  0  0  0  0
    2.5242   -0.8674    1.3207 N   0  0  0  0  0  0  0  0  0  0  0  0
    3.2408   -0.3549    2.3340 C   0  0  0  0  0  0  0  0  0  0  0  0
    3.7394    0.7630    2.3942 O   0  0  0  0  0  0  0  0  0  0  0  0
    3.3918   -1.3552    3.5061 C   0  0  0  0  0  0  0  0  0  0  0  0
    2.9040   -2.4738    3.4707 O   0  0  0  0  0  0  0  0  0  0  0  0
    4.1164   -0.7975    4.5111 N   0  0  0  0  0  0  0  0  0  0  0  0
    4.4901   -1.3437    5.7450 C   0  0  0  0  0  0  0  0  0  0  0  0
    4.1337   -2.6485    6.1409 C   0  0  0  0  0  0  0  0  0  0  0  0
    4.5397   -3.1316    7.3871 C   0  0  0  0  0  0  0  0  0  0  0  0
    5.2968   -2.3475    8.2590 C   0  0  0  0  0  0  0  0  0  0  0  0
    5.6369   -1.0601    7.8445 C   0  0  0  0  0  0  0  0  0  0  0  0
    6.4397   -0.2020    8.7457 N   0  0  0  0  0  0  0  0  0  0  0  0
    6.7689   -0.6705    9.8225 O   0  0  0  0  0  0  0  0  0  0  0  0
    6.7215    0.9193    8.3548 O   0  0  0  0  0  0  0  0  0  0  0  0
    5.2514   -0.5434    6.6114 C   0  0  0  0  0  0  0  0  0  0  0  0
    2.9248   -0.8487   -1.1118 C   0  0  0  0  0  0  0  0  0  0  0  0
    2.5432   -2.1369   -1.5221 C   0  0  0  0  0  0  0  0  0  0  0  0
    3.1838   -2.7494   -2.5958 C   0  0  0  0  0  0  0  0  0  0  0  0
    4.2157   -2.1079   -3.3019 C   0  0  0  0  0  0  0  0  0  0  0  0
    4.6032   -0.8139   -2.9028 C   0  0  0  0  0  0  0  0  0  0  0  0
    3.9517   -0.2118   -1.8130 C   0  0  0  0  0  0  0  0  0  0  0  0
    5.6848   -0.0484   -3.6451 C   0  0  0  0  0  0  0  0  0  0  0  0
    6.5704   -0.9381   -4.5226 C   0  0  0  0  0  0  0  0  0  0  0  0
    5.7124   -1.8928   -5.3561 C   0  0  0  0  0  0  0  0  0  0  0  0
    4.9106   -2.8268   -4.4446 C   0  0  0  0  0  0  0  0  0  0  0  0
    0.3121    0.5893    0.7238 H   0  0  0  0  0  0  0  0  0  0  0  0
    0.2177   -0.9312   -0.2033 H   0  0  0  0  0  0  0  0  0  0  0  0
    0.5451    0.5989   -1.0485 H   0  0  0  0  0  0  0  0  0  0  0  0
    2.7203    0.8280    0.2010 H   0  0  0  0  0  0  0  0  0  0  0  0
    2.2124   -1.8281    1.4488 H   0  0  0  0  0  0  0  0  0  0  0  0
    4.4105    0.1557    4.2909 H   0  0  0  0  0  0  0  0  0  0  0  0
    3.5437   -3.2638    5.4645 H   0  0  0  0  0  0  0  0  0  0  0  0
    4.2567   -4.1448    7.6815 H   0  0  0  0  0  0  0  0  0  0  0  0
    5.6234   -2.7047    9.2346 H   0  0  0  0  0  0  0  0  0  0  0  0
    5.5485    0.4711    6.3443 H   0  0  0  0  0  0  0  0  0  0  0  0
    1.7406   -2.6710   -1.0046 H   0  0  0  0  0  0  0  0  0  0  0  0
    2.8771   -3.7543   -2.9019 H   0  0  0  0  0  0  0  0  0  0  0  0
    4.2648    0.7905   -1.5027 H   0  0  0  0  0  0  0  0  0  0  0  0
    6.2965    0.5183   -2.9235 H   0  0  0  0  0  0  0  0  0  0  0  0
    5.1966    0.7134   -4.2824 H   0  0  0  0  0  0  0  0  0  0  0  0
    7.2560   -1.5265   -3.8860 H   0  0  0  0  0  0  0  0  0  0  0  0
    7.2053   -0.3123   -5.1708 H   0  0  0  0  0  0  0  0  0  0  0  0
    6.3379   -2.4853   -6.0436 H   0  0  0  0  0  0  0  0  0  0  0  0
    5.0223   -1.3045   -5.9880 H   0  0  0  0  0  0  0  0  0  0  0  0
    5.5941   -3.5841   -4.0153 H   0  0  0  0  0  0  0  0  0  0  0  0
    4.1680   -3.3965   -5.0280 H   0  0  0  0  0  0  0  0  0  0  0  0
  1  2  1  0
  1 28  1  0
  1 29  1  0
  1 30  1  0
  2  3  1  0
  2 18  1  0
  2 31  1  1
  3  4  1  0
  3 32  1  0
  4  5  2  0
  4  6  1  0
  6  7  2  0
  6  8  1  0
  8  9  1  0
  8 33  1  0
  9 10  2  0
  9 17  1  0
 10 11  1  0
 10 34  1  0
 11 12  2  0
 11 35  1  0
 12 13  1  0
 12 36  1  0
 13 14  1  0
 13 17  2  0
 14 15  2  0
 14 16  1  0
 17 37  1  0
 18 19  2  0
 18 23  1  0
 19 20  1  0
 19 38  1  0
 20 21  2  0
 20 39  1  0
 21 22  1  0
 21 27  1  0
 22 23  2  0
 22 24  1  0
 23 40  1  0
 24 25  1  0
 24 41  1  0
 24 42  1  0
 25 26  1  0
 25 43  1  0
 25 44  1  0
 26 27  1  0
 26 45  1  0
 26 46  1  0
 27 47  1  0
 27 48  1  0
M  CHG  2  14   1  16  -1
M  END

