
     RDKit          3D

 28 29  0  0  0  0  0  0  0  0999 V2000
    0.9046    0.2415    0.1344 C   0  0  0  0  0  0  0  0  0  0  0  0
    2.3980    0.0867   -0.0211 C   0  0  0  0  0  0  0  0  0  0  0  0
    3.2494    1.2000   -0.0733 C   0  0  0  0  0  0  0  0  0  0  0  0
    4.6297    1.0497   -0.2231 C   0  0  0  0  0  0  0  0  0  0  0  0
    5.1782   -0.2289   -0.3236 C   0  0  0  0  0  0  0  0  0  0  0  0
    6.5560   -0.2806   -0.5331 O   0  0  0  0  0  0  0  0  0  0  0  0
    7.3578   -1.2320    0.0053 C   0  0  0  0  0  0  0  0  0  0  0  0
    6.9846   -2.1335    0.7080 O   0  0  0  0  0  0  0  0  0  0  0  0
    8.7958   -0.9887   -0.4251 C   0  0  1  0  0  0  0  0  0  0  0  0
    9.7841   -1.8996    0.3168 C   0  0  0  0  0  0  0  0  0  0  0  0
   11.3477   -1.8486   -0.6431 S   0  0  0  0  0  0  0  0  0  0  0  0
   10.5182   -1.3513   -2.1734 C   0  0  0  0  0  0  0  0  0  0  0  0
   11.0823   -1.1798   -3.2167 O   0  0  0  0  0  0  0  0  0  0  0  0
    9.0150   -1.2091   -1.9291 C   0  0  0  0  0  0  0  0  0  0  0  0
    4.3573   -1.3600   -0.2792 C   0  0  0  0  0  0  0  0  0  0  0  0
    2.9805   -1.1873   -0.1275 C   0  0  0  0  0  0  0  0  0  0  0  0
    0.6213    1.2921    0.2949 H   0  0  0  0  0  0  0  0  0  0  0  0
    0.5267   -0.3444    0.9884 H   0  0  0  0  0  0  0  0  0  0  0  0
    0.3696   -0.1157   -0.7620 H   0  0  0  0  0  0  0  0  0  0  0  0
    2.8288    2.2063    0.0051 H   0  0  0  0  0  0  0  0  0  0  0  0
    5.2919    1.9166   -0.2674 H   0  0  0  0  0  0  0  0  0  0  0  0
    9.0305    0.0655   -0.2015 H   0  0  0  0  0  0  0  0  0  0  0  0
    9.4050   -2.9304    0.3678 H   0  0  0  0  0  0  0  0  0  0  0  0
    9.9777   -1.5559    1.3422 H   0  0  0  0  0  0  0  0  0  0  0  0
    8.5458   -2.1526   -2.2632 H   0  0  0  0  0  0  0  0  0  0  0  0
    8.6201   -0.4005   -2.5592 H   0  0  0  0  0  0  0  0  0  0  0  0
    4.7841   -2.3588   -0.3488 H   0  0  0  0  0  0  0  0  0  0  0  0
    2.3418   -2.0746   -0.0898 H   0  0  0  0  0  0  0  0  0  0  0  0
  1  2  1  0
  1 17  1  0
  1 18  1  0
  1 19  1  0
  2  3  2  0
  2 16  1  0
  3  4  1  0
  3 20  1  0
  4  5  2  0
  4 21  1  0
  5  6  1  0
  5 15  1  0
  6  7  1  0
  7  8  2  0
  7  9  1  0
  9 10  1  0
  9 14  1  0
  9 22  1  6
 10 11  1  0
 10 23  1  0
 10 24  1  0
 11 12  2  0
 12 13  1  0
 12 14  1  0
 14 25  1  0
 14 26  1  0
 15 16  2  0
 15 27  1  0
 16 28  1  0
M  CHG  2  11   1  13  -1
M  END

