
     RDKit          3D

 60 62  0  0  0  0  0  0  0  0999 V2000
    7.2935    4.8362   -9.3944 C   0  0  0  0  0  0  0  0  0  0  0  0
    7.8751    4.7783   -7.9955 C   0  0  0  0  0  0  0  0  0  0  0  0
    7.3789    3.6063   -7.3603 O   0  0  0  0  0  0  0  0  0  0  0  0
    7.7402    3.3169   -6.0922 C   0  0  0  0  0  0  0  0  0  0  0  0
    7.1784    2.1451   -5.5432 C   0  0  0  0  0  0  0  0  0  0  0  0
    7.4833    1.7598   -4.2459 C   0  0  0  0  0  0  0  0  0  0  0  0
    8.3655    2.5388   -3.4799 C   0  0  0  0  0  0  0  0  0  0  0  0
    8.7658    2.0297   -1.8075 S   0  0  1  0  0  0  0  0  0  0  0  0
    9.4338    3.1686   -1.1648 O   0  0  0  0  0  0  0  0  0  0  0  0
    7.5779    1.3959   -1.2394 O   0  0  0  0  0  0  0  0  0  0  0  0
    9.9002    0.8201   -1.9159 N   0  0  0  0  0  0  0  0  0  0  0  0
   11.2426    1.0478   -2.4158 C   0  0  1  0  0  0  0  0  0  0  0  0
   12.2248    1.5013   -1.2997 C   0  0  0  0  0  0  0  0  0  0  0  0
   12.3789    0.5348   -0.1470 C   0  0  0  0  0  0  0  0  0  0  0  0
   13.4575   -0.3622   -0.0870 C   0  0  0  0  0  0  0  0  0  0  0  0
   13.5879   -1.2586    0.9783 C   0  0  0  0  0  0  0  0  0  0  0  0
   12.6372   -1.2730    2.0021 C   0  0  0  0  0  0  0  0  0  0  0  0
   11.5598   -0.3823    1.9553 C   0  0  0  0  0  0  0  0  0  0  0  0
   11.4326    0.5146    0.8921 C   0  0  0  0  0  0  0  0  0  0  0  0
   11.6607   -0.2525   -3.1421 C   0  0  0  0  0  0  0  0  0  0  0  0
   10.9046   -1.2111   -3.2127 O   0  0  0  0  0  0  0  0  0  0  0  0
   12.8950   -0.2439   -3.7046 N   0  0  0  0  0  0  0  0  0  0  0  0
   13.4358   -1.4002   -4.4354 C   0  0  1  0  0  0  0  0  0  0  0  0
   12.9642   -1.4102   -5.8951 C   0  0  0  0  0  0  0  0  0  0  0  0
   14.9475   -1.4453   -4.2536 C   0  0  0  0  0  0  0  0  0  0  0  0
   15.5020   -2.2315   -3.2304 C   0  0  0  0  0  0  0  0  0  0  0  0
   16.8826   -2.2644   -3.0178 C   0  0  0  0  0  0  0  0  0  0  0  0
   17.7347   -1.5049   -3.8255 C   0  0  0  0  0  0  0  0  0  0  0  0
   17.1963   -0.7173   -4.8465 C   0  0  0  0  0  0  0  0  0  0  0  0
   15.8143   -0.6900   -5.0597 C   0  0  0  0  0  0  0  0  0  0  0  0
    8.9175    3.7063   -4.0076 C   0  0  0  0  0  0  0  0  0  0  0  0
    8.6104    4.0993   -5.3145 C   0  0  0  0  0  0  0  0  0  0  0  0
    7.6567    5.7332   -9.9192 H   0  0  0  0  0  0  0  0  0  0  0  0
    6.1943    4.8750   -9.3573 H   0  0  0  0  0  0  0  0  0  0  0  0
    7.5877    3.9489   -9.9754 H   0  0  0  0  0  0  0  0  0  0  0  0
    7.5859    5.6718   -7.4114 H   0  0  0  0  0  0  0  0  0  0  0  0
    8.9803    4.7469   -8.0294 H   0  0  0  0  0  0  0  0  0  0  0  0
    6.4928    1.5625   -6.1615 H   0  0  0  0  0  0  0  0  0  0  0  0
    7.0295    0.8663   -3.8126 H   0  0  0  0  0  0  0  0  0  0  0  0
    9.5304   -0.1054   -2.1492 H   0  0  0  0  0  0  0  0  0  0  0  0
   11.2402    1.8425   -3.1889 H   0  0  0  0  0  0  0  0  0  0  0  0
   11.8376    2.4627   -0.9324 H   0  0  0  0  0  0  0  0  0  0  0  0
   13.2086    1.7096   -1.7528 H   0  0  0  0  0  0  0  0  0  0  0  0
   14.2101   -0.3573   -0.8805 H   0  0  0  0  0  0  0  0  0  0  0  0
   14.4388   -1.9446    1.0095 H   0  0  0  0  0  0  0  0  0  0  0  0
   12.7375   -1.9719    2.8366 H   0  0  0  0  0  0  0  0  0  0  0  0
   10.8137   -0.3828    2.7543 H   0  0  0  0  0  0  0  0  0  0  0  0
   10.5910    1.2097    0.8598 H   0  0  0  0  0  0  0  0  0  0  0  0
   13.4754    0.5826   -3.6257 H   0  0  0  0  0  0  0  0  0  0  0  0
   13.0023   -2.2826   -3.9419 H   0  0  0  0  0  0  0  0  0  0  0  0
   13.2787   -0.5036   -6.4357 H   0  0  0  0  0  0  0  0  0  0  0  0
   11.8659   -1.4612   -5.9244 H   0  0  0  0  0  0  0  0  0  0  0  0
   13.3670   -2.2863   -6.4265 H   0  0  0  0  0  0  0  0  0  0  0  0
   14.8401   -2.8263   -2.5948 H   0  0  0  0  0  0  0  0  0  0  0  0
   17.2946   -2.8875   -2.2199 H   0  0  0  0  0  0  0  0  0  0  0  0
   18.8150   -1.5300   -3.6618 H   0  0  0  0  0  0  0  0  0  0  0  0
   17.8552   -0.1238   -5.4857 H   0  0  0  0  0  0  0  0  0  0  0  0
   15.4135   -0.0768   -5.8707 H   0  0  0  0  0  0  0  0  0  0  0  0
    9.5713    4.3185   -3.3839 H   0  0  0  0  0  0  0  0  0  0  0  0
    9.0447    5.0181   -5.7080 H   0  0  0  0  0  0  0  0  0  0  0  0
  1  2  1  0
  1 33  1  0
  1 34  1  0
  1 35  1  0
  2  3  1  0
  2 36  1  0
  2 37  1  0
  3  4  1  0
  4  5  2  0
  4 32  1  0
  5  6  1  0
  5 38  1  0
  6  7  2  0
  6 39  1  0
  7  8  1  0
  7 31  1  0
  8  9  2  0
  8 10  2  0
  8 11  1  6
 11 12  1  0
 11 40  1  0
 12 13  1  0
 12 20  1  0
 12 41  1  6
 13 14  1  0
 13 42  1  0
 13 43  1  0
 14 15  2  0
 14 19  1  0
 15 16  1  0
 15 44  1  0
 16 17  2  0
 16 45  1  0
 17 18  1  0
 17 46  1  0
 18 19  2  0
 18 47  1  0
 19 48  1  0
 20 21  2  0
 20 22  1  0
 22 23  1  0
 22 49  1  0
 23 24  1  0
 23 25  1  0
 23 50  1  1
 24 51  1  0
 24 52  1  0
 24 53  1  0
 25 26  2  0
 25 30  1  0
 26 27  1  0
 26 54  1  0
 27 28  2  0
 27 55  1  0
 28 29  1  0
 28 56  1  0
 29 30  2  0
 29 57  1  0
 30 58  1  0
 31 32  2  0
 31 59  1  0
 32 60  1  0
M  END

