
     RDKit          3D

 63 67  0  0  0  0  0  0  0  0999 V2000
    5.0312   -1.4036   -6.6012 O   0  0  0  0  0  0  0  0  0  0  0  0
    5.8566   -1.6715   -5.7398 C   0  0  0  0  0  0  0  0  0  0  0  0
    5.6485   -1.5433   -4.4010 N   0  0  0  0  0  0  0  0  0  0  0  0
    4.4129   -1.0311   -3.8366 C   0  0  0  0  0  0  0  0  0  0  0  0
    3.4684   -2.0931   -3.2434 C   0  0  2  0  0  0  0  0  0  0  0  0
    2.6080   -1.5378   -2.8273 H   0  0  0  0  0  0  0  0  0  0  0  0
    4.1083   -2.8964   -2.1018 C   0  0  0  0  0  0  0  0  0  0  0  0
    3.1363   -3.9520   -1.5664 C   0  0  0  0  0  0  0  0  0  0  0  0
    2.5842   -4.8177   -2.6996 C   0  0  0  0  0  0  0  0  0  0  0  0
    1.9670   -4.0002   -3.7356 N   0  0  0  0  0  0  0  0  0  0  0  0
    1.2815   -4.8070   -4.7408 C   0  0  0  0  0  0  0  0  0  0  0  0
    0.3983   -4.0268   -5.6967 C   0  0  0  0  0  0  0  0  0  0  0  0
    0.6796   -4.0435   -7.0516 C   0  0  0  0  0  0  0  0  0  0  0  0
   -0.1413   -3.3780   -7.9950 C   0  0  0  0  0  0  0  0  0  0  0  0
   -1.2596   -2.6951   -7.5747 C   0  0  0  0  0  0  0  0  0  0  0  0
   -1.5987   -2.6449   -6.1932 C   0  0  0  0  0  0  0  0  0  0  0  0
   -2.7572   -1.9523   -5.7409 C   0  0  0  0  0  0  0  0  0  0  0  0
   -3.0840   -1.9112   -4.4024 C   0  0  0  0  0  0  0  0  0  0  0  0
   -2.2559   -2.5600   -3.4540 C   0  0  0  0  0  0  0  0  0  0  0  0
   -1.1229   -3.2370   -3.8578 C   0  0  0  0  0  0  0  0  0  0  0  0
   -0.7590   -3.3098   -5.2340 C   0  0  0  0  0  0  0  0  0  0  0  0
    2.9079   -3.0428   -4.3109 C   0  0  0  0  0  0  0  0  0  0  0  0
    7.2224   -2.1815   -6.0907 C   0  0  0  0  0  0  0  0  0  0  0  0
    7.6429   -2.3701   -7.3834 C   0  0  0  0  0  0  0  0  0  0  0  0
    9.2641   -2.9500   -7.3960 S   0  0  0  0  0  0  0  0  0  0  0  0
    9.2660   -2.9114   -5.6358 C   0  0  0  0  0  0  0  0  0  0  0  0
   10.4477   -3.3533   -4.8286 C   0  0  0  0  0  0  0  0  0  0  0  0
   11.9356   -2.3664   -5.2735 S   0  0  0  0  0  0  0  0  0  0  0  0
   13.2644   -3.2990   -4.5388 C   0  0  0  0  0  0  0  0  0  0  0  0
   13.1019   -4.2142   -3.4865 C   0  0  0  0  0  0  0  0  0  0  0  0
   14.2143   -4.8774   -2.9575 C   0  0  0  0  0  0  0  0  0  0  0  0
   15.4955   -4.6279   -3.4537 C   0  0  0  0  0  0  0  0  0  0  0  0
   15.6598   -3.7075   -4.4950 C   0  0  0  0  0  0  0  0  0  0  0  0
   14.5558   -3.0524   -5.0405 C   0  0  0  0  0  0  0  0  0  0  0  0
    8.1480   -2.4883   -5.1218 N   0  0  0  0  0  0  0  0  0  0  0  0
    6.4262   -1.7922   -3.7983 H   0  0  0  0  0  0  0  0  0  0  0  0
    3.8979   -0.4880   -4.6426 H   0  0  0  0  0  0  0  0  0  0  0  0
    4.6658   -0.3008   -3.0486 H   0  0  0  0  0  0  0  0  0  0  0  0
    4.4344   -2.2224   -1.2902 H   0  0  0  0  0  0  0  0  0  0  0  0
    5.0161   -3.4007   -2.4818 H   0  0  0  0  0  0  0  0  0  0  0  0
    2.2930   -3.4534   -1.0583 H   0  0  0  0  0  0  0  0  0  0  0  0
    3.6315   -4.5943   -0.8190 H   0  0  0  0  0  0  0  0  0  0  0  0
    1.8276   -5.5169   -2.3058 H   0  0  0  0  0  0  0  0  0  0  0  0
    3.4083   -5.4468   -3.1175 H   0  0  0  0  0  0  0  0  0  0  0  0
    0.6603   -5.5416   -4.1988 H   0  0  0  0  0  0  0  0  0  0  0  0
    2.0052   -5.4016   -5.3439 H   0  0  0  0  0  0  0  0  0  0  0  0
    1.5610   -4.5863   -7.4042 H   0  0  0  0  0  0  0  0  0  0  0  0
    0.1202   -3.4123   -9.0555 H   0  0  0  0  0  0  0  0  0  0  0  0
   -1.9030   -2.1816   -8.2945 H   0  0  0  0  0  0  0  0  0  0  0  0
   -3.3882   -1.4511   -6.4804 H   0  0  0  0  0  0  0  0  0  0  0  0
   -3.9775   -1.3763   -4.0699 H   0  0  0  0  0  0  0  0  0  0  0  0
   -2.5139   -2.5173   -2.3925 H   0  0  0  0  0  0  0  0  0  0  0  0
   -0.4708   -3.6984   -3.1171 H   0  0  0  0  0  0  0  0  0  0  0  0
    2.3957   -2.4626   -5.0922 H   0  0  0  0  0  0  0  0  0  0  0  0
    3.7512   -3.5706   -4.8156 H   0  0  0  0  0  0  0  0  0  0  0  0
    7.0706   -2.1810   -8.2893 H   0  0  0  0  0  0  0  0  0  0  0  0
   10.6744   -4.4161   -5.0106 H   0  0  0  0  0  0  0  0  0  0  0  0
   10.1850   -3.2202   -3.7697 H   0  0  0  0  0  0  0  0  0  0  0  0
   12.1163   -4.4106   -3.0623 H   0  0  0  0  0  0  0  0  0  0  0  0
   14.0720   -5.5907   -2.1414 H   0  0  0  0  0  0  0  0  0  0  0  0
   16.3606   -5.1463   -3.0337 H   0  0  0  0  0  0  0  0  0  0  0  0
   16.6562   -3.5045   -4.8960 H   0  0  0  0  0  0  0  0  0  0  0  0
   14.6899   -2.3494   -5.8668 H   0  0  0  0  0  0  0  0  0  0  0  0
  1  2  2  0
  2  3  1  0
  2 23  1  0
  3  4  1  0
  3 36  1  0
  4  5  1  0
  4 37  1  0
  4 38  1  0
  5  6  1  1
  5  7  1  0
  5 22  1  0
  7  8  1  0
  7 39  1  0
  7 40  1  0
  8  9  1  0
  8 41  1  0
  8 42  1  0
  9 10  1  0
  9 43  1  0
  9 44  1  0
 10 11  1  0
 10 22  1  0
 11 12  1  0
 11 45  1  0
 11 46  1  0
 12 13  2  0
 12 21  1  0
 13 14  1  0
 13 47  1  0
 14 15  2  0
 14 48  1  0
 15 16  1  0
 15 49  1  0
 16 17  1  0
 16 21  2  0
 17 18  2  0
 17 50  1  0
 18 19  1  0
 18 51  1  0
 19 20  2  0
 19 52  1  0
 20 21  1  0
 20 53  1  0
 22 54  1  0
 22 55  1  0
 23 24  2  0
 23 35  1  0
 24 25  1  0
 24 56  1  0
 25 26  1  0
 26 27  1  0
 26 35  2  0
 27 28  1  0
 27 57  1  0
 27 58  1  0
 28 29  1  0
 29 30  2  0
 29 34  1  0
 30 31  1  0
 30 59  1  0
 31 32  2  0
 31 60  1  0
 32 33  1  0
 32 61  1  0
 33 34  2  0
 33 62  1  0
 34 63  1  0
M  END

