
     RDKit          3D

 35 37  0  0  0  0  0  0  0  0999 V2000
    2.3723   -2.5284   -3.2430 C   0  0  0  0  0  0  0  0  0  0  0  0
    3.6369   -2.0303   -2.6136 C   0  0  0  0  0  0  0  0  0  0  0  0
    4.7049   -1.5071   -3.3176 C   0  0  0  0  0  0  0  0  0  0  0  0
    4.6606   -1.3720   -5.2235 Br  0  0  0  0  0  0  0  0  0  0  0  0
    5.8900   -1.0283   -2.6930 C   0  0  0  0  0  0  0  0  0  0  0  0
    5.9934   -1.0767   -1.3274 C   0  0  0  0  0  0  0  0  0  0  0  0
    7.5356   -0.4539   -0.4327 Br  0  0  0  0  0  0  0  0  0  0  0  0
    4.9273   -1.6043   -0.5531 C   0  0  0  0  0  0  0  0  0  0  0  0
    4.8282   -1.7355    0.7583 N   0  0  0  0  0  0  0  0  0  0  0  0
    3.6165   -2.2898    0.9681 C   0  0  0  0  0  0  0  0  0  0  0  0
    2.9147   -2.5172   -0.2086 C   0  0  0  0  0  0  0  0  0  0  0  0
    1.5708   -3.1548   -0.3123 C   0  0  0  0  0  0  0  0  0  0  0  0
    1.7022   -4.9740   -0.6581 S   0  0  0  0  0  0  0  0  0  0  0  0
   -0.0759   -5.4953   -0.4338 C   0  0  1  0  0  0  0  0  0  0  0  0
   -0.9678   -5.0409   -1.5892 C   0  0  0  0  0  0  0  0  0  0  0  0
   -0.0968   -6.9851   -0.2223 C   0  0  0  0  0  0  0  0  0  0  0  0
   -0.6168   -7.9680   -1.0346 C   0  0  0  0  0  0  0  0  0  0  0  0
   -0.4665   -9.2838   -0.4996 C   0  0  0  0  0  0  0  0  0  0  0  0
    0.1689   -9.2886    0.7151 C   0  0  0  0  0  0  0  0  0  0  0  0
    0.5975   -7.6907    1.2174 S   0  0  0  0  0  0  0  0  0  0  0  0
    3.7690   -2.0741   -1.2251 N   0  0  0  0  0  0  0  0  0  0  0  0
    2.4832   -2.5612   -4.3315 H   0  0  0  0  0  0  0  0  0  0  0  0
    1.5254   -1.8604   -3.0140 H   0  0  0  0  0  0  0  0  0  0  0  0
    2.1210   -3.5396   -2.8869 H   0  0  0  0  0  0  0  0  0  0  0  0
    6.7001   -0.6266   -3.3003 H   0  0  0  0  0  0  0  0  0  0  0  0
    3.2561   -2.5213    1.9717 H   0  0  0  0  0  0  0  0  0  0  0  0
    0.9246   -2.6796   -1.0603 H   0  0  0  0  0  0  0  0  0  0  0  0
    1.0819   -3.0407    0.6672 H   0  0  0  0  0  0  0  0  0  0  0  0
   -0.4053   -4.9992    0.4953 H   0  0  0  0  0  0  0  0  0  0  0  0
   -0.6304   -5.4725   -2.5431 H   0  0  0  0  0  0  0  0  0  0  0  0
   -0.9533   -3.9457   -1.6904 H   0  0  0  0  0  0  0  0  0  0  0  0
   -2.0123   -5.3469   -1.4148 H   0  0  0  0  0  0  0  0  0  0  0  0
   -1.1009   -7.7615   -1.9893 H   0  0  0  0  0  0  0  0  0  0  0  0
   -0.8169  -10.1880   -1.0000 H   0  0  0  0  0  0  0  0  0  0  0  0
    0.4172  -10.1431    1.3433 H   0  0  0  0  0  0  0  0  0  0  0  0
  1  2  1  0
  1 22  1  0
  1 23  1  0
  1 24  1  0
  2  3  2  0
  2 21  1  0
  3  4  1  0
  3  5  1  0
  5  6  2  0
  5 25  1  0
  6  7  1  0
  6  8  1  0
  8  9  2  0
  8 21  1  0
  9 10  1  0
 10 11  2  0
 10 26  1  0
 11 12  1  0
 11 21  1  0
 12 13  1  0
 12 27  1  0
 12 28  1  0
 13 14  1  0
 14 15  1  0
 14 16  1  0
 14 29  1  1
 15 30  1  0
 15 31  1  0
 15 32  1  0
 16 17  2  0
 16 20  1  0
 17 18  1  0
 17 33  1  0
 18 19  2  0
 18 34  1  0
 19 20  1  0
 19 35  1  0
M  END

