
     RDKit          3D

 47 50  0  0  0  0  0  0  0  0999 V2000
    0.3187    0.2018    0.0220 O   0  0  0  0  0  0  0  0  0  0  0  0
    1.4740    0.1608   -0.3697 C   0  0  0  0  0  0  0  0  0  0  0  0
    2.1957   -0.9914   -0.5523 N   0  0  0  0  0  0  0  0  0  0  0  0
    1.7290   -2.2878   -0.3183 C   0  0  0  0  0  0  0  0  0  0  0  0
    0.4489   -2.7199    0.1263 C   0  0  0  0  0  0  0  0  0  0  0  0
    0.4051   -4.0472    0.2116 N   0  0  0  0  0  0  0  0  0  0  0  0
    1.6105   -4.4812   -0.1743 N   0  0  0  0  0  0  0  0  0  0  0  0
    1.9295   -5.8991   -0.0890 C   0  0  0  0  0  0  0  0  0  0  0  0
    2.5139   -6.3031    1.2510 C   0  0  0  0  0  0  0  0  0  0  0  0
    1.6664   -6.4330    2.3643 C   0  0  0  0  0  0  0  0  0  0  0  0
    2.1489   -6.7832    3.6239 C   0  0  0  0  0  0  0  0  0  0  0  0
    3.5159   -7.0093    3.7722 C   0  0  0  0  0  0  0  0  0  0  0  0
    3.9992   -7.3524    4.9715 F   0  0  0  0  0  0  0  0  0  0  0  0
    4.3992   -6.8870    2.7041 C   0  0  0  0  0  0  0  0  0  0  0  0
    3.8859   -6.5284    1.4543 C   0  0  0  0  0  0  0  0  0  0  0  0
    5.0300   -6.3616    0.1304 Cl  0  0  0  0  0  0  0  0  0  0  0  0
    2.4553   -3.4595   -0.4955 C   0  0  0  0  0  0  0  0  0  0  0  0
    2.2195    1.4008   -0.6891 C   0  0  0  0  0  0  0  0  0  0  0  0
    1.8440    2.7141   -0.5813 C   0  0  0  0  0  0  0  0  0  0  0  0
    2.9654    3.4835   -1.0175 C   0  0  0  0  0  0  0  0  0  0  0  0
    3.9434    2.5878   -1.3654 C   0  0  0  0  0  0  0  0  0  0  0  0
    5.3245    2.7485   -1.8891 C   0  0  0  0  0  0  0  0  0  0  0  0
    6.2565    2.3843   -0.8806 O   0  0  0  0  0  0  0  0  0  0  0  0
    7.5813    2.4298   -1.1694 C   0  0  0  0  0  0  0  0  0  0  0  0
    8.1460    2.8570   -2.3776 C   0  0  0  0  0  0  0  0  0  0  0  0
    9.5366    2.8633   -2.5603 C   0  0  0  0  0  0  0  0  0  0  0  0
   10.3594    2.4405   -1.5257 C   0  0  0  0  0  0  0  0  0  0  0  0
   11.6902    2.4426   -1.6891 F   0  0  0  0  0  0  0  0  0  0  0  0
    9.8314    2.0087   -0.3067 C   0  0  0  0  0  0  0  0  0  0  0  0
    8.4541    2.0078   -0.1436 C   0  0  0  0  0  0  0  0  0  0  0  0
    7.9275    1.5977    1.0126 F   0  0  0  0  0  0  0  0  0  0  0  0
    3.4940    1.3183   -1.1698 O   0  0  0  0  0  0  0  0  0  0  0  0
    3.1540   -0.8896   -0.8671 H   0  0  0  0  0  0  0  0  0  0  0  0
   -0.4110   -2.1028    0.3681 H   0  0  0  0  0  0  0  0  0  0  0  0
    2.6218   -6.1488   -0.9025 H   0  0  0  0  0  0  0  0  0  0  0  0
    0.9853   -6.4323   -0.2621 H   0  0  0  0  0  0  0  0  0  0  0  0
    0.6000   -6.2367    2.2293 H   0  0  0  0  0  0  0  0  0  0  0  0
    1.4879   -6.8831    4.4863 H   0  0  0  0  0  0  0  0  0  0  0  0
    5.4648   -7.0643    2.8498 H   0  0  0  0  0  0  0  0  0  0  0  0
    3.4815   -3.6379   -0.8090 H   0  0  0  0  0  0  0  0  0  0  0  0
    0.8783    3.0640   -0.2261 H   0  0  0  0  0  0  0  0  0  0  0  0
    3.0447    4.5676   -1.0661 H   0  0  0  0  0  0  0  0  0  0  0  0
    5.4656    3.8005   -2.1948 H   0  0  0  0  0  0  0  0  0  0  0  0
    5.4692    2.1111   -2.7822 H   0  0  0  0  0  0  0  0  0  0  0  0
    7.5090    3.1934   -3.1955 H   0  0  0  0  0  0  0  0  0  0  0  0
    9.9795    3.1955   -3.5005 H   0  0  0  0  0  0  0  0  0  0  0  0
   10.4810    1.6771    0.5042 H   0  0  0  0  0  0  0  0  0  0  0  0
  1  2  2  0
  2  3  1  0
  2 18  1  0
  3  4  1  0
  3 33  1  0
  4  5  1  0
  4 17  2  0
  5  6  2  0
  5 34  1  0
  6  7  1  0
  7  8  1  0
  7 17  1  0
  8  9  1  0
  8 35  1  0
  8 36  1  0
  9 10  2  0
  9 15  1  0
 10 11  1  0
 10 37  1  0
 11 12  2  0
 11 38  1  0
 12 13  1  0
 12 14  1  0
 14 15  2  0
 14 39  1  0
 15 16  1  0
 17 40  1  0
 18 19  2  0
 18 32  1  0
 19 20  1  0
 19 41  1  0
 20 21  2  0
 20 42  1  0
 21 22  1  0
 21 32  1  0
 22 23  1  0
 22 43  1  0
 22 44  1  0
 23 24  1  0
 24 25  2  0
 24 30  1  0
 25 26  1  0
 25 45  1  0
 26 27  2  0
 26 46  1  0
 27 28  1  0
 27 29  1  0
 29 30  2  0
 29 47  1  0
 30 31  1  0
M  END

