
     RDKit          3D

 91 95  0  0  0  0  0  0  0  0999 V2000
    1.2405    0.6679   -2.8487 C   0  0  0  0  0  0  0  0  0  0  0  0
    2.5484    0.5177   -2.0704 C   0  0  0  0  0  0  0  0  0  0  0  0
    3.2155    1.8533   -1.7272 C   0  0  0  0  0  0  0  0  0  0  0  0
    4.5263    1.7124   -0.9479 C   0  0  0  0  0  0  0  0  0  0  0  0
    5.1921    3.0483   -0.6053 C   0  0  0  0  0  0  0  0  0  0  0  0
    6.5036    2.9078    0.1732 C   0  0  0  0  0  0  0  0  0  0  0  0
    7.1658    4.2473    0.5132 C   0  0  0  0  0  0  0  0  0  0  0  0
    8.4746    4.0873    1.2911 C   0  0  0  0  0  0  0  0  0  0  0  0
    9.2190    5.3978    1.6773 C   0  0  2  0  0  0  0  0  0  0  0  0
   10.5106    5.0099    2.4539 C   0  0  0  0  0  0  0  0  0  0  0  0
   11.3955    6.1645    2.9307 C   0  0  0  0  0  0  0  0  0  0  0  0
   12.6424    5.6899    3.6847 C   0  0  0  0  0  0  0  0  0  0  0  0
   13.5409    6.8312    4.1704 C   0  0  0  0  0  0  0  0  0  0  0  0
   14.7886    6.3617    4.9243 C   0  0  0  0  0  0  0  0  0  0  0  0
   15.6869    7.5026    5.4109 C   0  0  0  0  0  0  0  0  0  0  0  0
   16.9352    7.0340    6.1650 C   0  0  0  0  0  0  0  0  0  0  0  0
   17.8263    8.1796    6.6474 C   0  0  0  0  0  0  0  0  0  0  0  0
    8.3288    6.3428    2.4874 C   0  0  0  0  0  0  0  0  0  0  0  0
    7.7249    6.1237    3.7202 C   0  0  0  0  0  0  0  0  0  0  0  0
    6.9405    7.1335    4.3201 C   0  0  0  0  0  0  0  0  0  0  0  0
    6.2913    6.9099    5.6392 C   0  0  0  0  0  0  0  0  0  0  0  0
    6.1876    7.9491    6.5845 C   0  0  0  0  0  0  0  0  0  0  0  0
    5.5785    7.7390    7.8232 C   0  0  0  0  0  0  0  0  0  0  0  0
    5.0572    6.4832    8.1493 C   0  0  0  0  0  0  0  0  0  0  0  0
    5.1518    5.4404    7.2230 C   0  0  0  0  0  0  0  0  0  0  0  0
    5.7608    5.6514    5.9843 C   0  0  0  0  0  0  0  0  0  0  0  0
    6.7871    8.3588    3.6379 C   0  0  0  0  0  0  0  0  0  0  0  0
    7.3895    8.5865    2.3992 C   0  0  0  0  0  0  0  0  0  0  0  0
    8.1641    7.5758    1.8205 C   0  0  0  0  0  0  0  0  0  0  0  0
    8.9085    7.5254    0.5574 C   0  0  0  0  0  0  0  0  0  0  0  0
    9.0751    8.4730   -0.4578 C   0  0  0  0  0  0  0  0  0  0  0  0
    9.8575    8.1515   -1.5685 C   0  0  0  0  0  0  0  0  0  0  0  0
   10.4839    6.8935   -1.6920 C   0  0  0  0  0  0  0  0  0  0  0  0
   11.3133    6.5694   -2.8830 C   0  0  0  0  0  0  0  0  0  0  0  0
   12.1266    7.5458   -3.4908 C   0  0  0  0  0  0  0  0  0  0  0  0
   12.9054    7.2414   -4.6090 C   0  0  0  0  0  0  0  0  0  0  0  0
   12.8916    5.9517   -5.1485 C   0  0  0  0  0  0  0  0  0  0  0  0
   12.0905    4.9701   -4.5576 C   0  0  0  0  0  0  0  0  0  0  0  0
   11.3118    5.2754   -3.4395 C   0  0  0  0  0  0  0  0  0  0  0  0
   10.3041    5.9487   -0.6577 C   0  0  0  0  0  0  0  0  0  0  0  0
    9.5276    6.2613    0.4522 C   0  0  0  0  0  0  0  0  0  0  0  0
    0.7894   -0.3110   -3.0779 H   0  0  0  0  0  0  0  0  0  0  0  0
    1.4014    1.1920   -3.8059 H   0  0  0  0  0  0  0  0  0  0  0  0
    0.4982    1.2502   -2.2771 H   0  0  0  0  0  0  0  0  0  0  0  0
    3.2552   -0.1015   -2.6527 H   0  0  0  0  0  0  0  0  0  0  0  0
    2.3597   -0.0437   -1.1369 H   0  0  0  0  0  0  0  0  0  0  0  0
    2.5092    2.4736   -1.1441 H   0  0  0  0  0  0  0  0  0  0  0  0
    3.4047    2.4160   -2.6606 H   0  0  0  0  0  0  0  0  0  0  0  0
    5.2322    1.0920   -1.5314 H   0  0  0  0  0  0  0  0  0  0  0  0
    4.3367    1.1495   -0.0147 H   0  0  0  0  0  0  0  0  0  0  0  0
    4.4870    3.6686   -0.0212 H   0  0  0  0  0  0  0  0  0  0  0  0
    5.3814    3.6118   -1.5379 H   0  0  0  0  0  0  0  0  0  0  0  0
    7.2087    2.2870   -0.4110 H   0  0  0  0  0  0  0  0  0  0  0  0
    6.3144    2.3441    1.1061 H   0  0  0  0  0  0  0  0  0  0  0  0
    6.4598    4.8629    1.0971 H   0  0  0  0  0  0  0  0  0  0  0  0
    7.3550    4.8054   -0.4201 H   0  0  0  0  0  0  0  0  0  0  0  0
    9.1717    3.4615    0.7050 H   0  0  0  0  0  0  0  0  0  0  0  0
    8.2786    3.5221    2.2201 H   0  0  0  0  0  0  0  0  0  0  0  0
   11.1054    4.3386    1.8088 H   0  0  0  0  0  0  0  0  0  0  0  0
   10.2117    4.3980    3.3240 H   0  0  0  0  0  0  0  0  0  0  0  0
   10.8104    6.8350    3.5836 H   0  0  0  0  0  0  0  0  0  0  0  0
   11.7059    6.7759    2.0658 H   0  0  0  0  0  0  0  0  0  0  0  0
   13.2305    5.0157    3.0341 H   0  0  0  0  0  0  0  0  0  0  0  0
   12.3355    5.0747    4.5513 H   0  0  0  0  0  0  0  0  0  0  0  0
   12.9531    7.5051    4.8211 H   0  0  0  0  0  0  0  0  0  0  0  0
   13.8477    7.4466    3.3043 H   0  0  0  0  0  0  0  0  0  0  0  0
   15.3762    5.6879    4.2730 H   0  0  0  0  0  0  0  0  0  0  0  0
   14.4812    5.7455    5.7900 H   0  0  0  0  0  0  0  0  0  0  0  0
   15.0998    8.1767    6.0626 H   0  0  0  0  0  0  0  0  0  0  0  0
   15.9947    8.1193    4.5456 H   0  0  0  0  0  0  0  0  0  0  0  0
   17.5210    6.3605    5.5129 H   0  0  0  0  0  0  0  0  0  0  0  0
   16.6266    6.4177    7.0293 H   0  0  0  0  0  0  0  0  0  0  0  0
   18.1832    8.7930    5.8028 H   0  0  0  0  0  0  0  0  0  0  0  0
   18.7131    7.8061    7.1844 H   0  0  0  0  0  0  0  0  0  0  0  0
   17.2811    8.8506    7.3324 H   0  0  0  0  0  0  0  0  0  0  0  0
    7.8745    5.1775    4.2463 H   0  0  0  0  0  0  0  0  0  0  0  0
    6.6129    8.9288    6.3551 H   0  0  0  0  0  0  0  0  0  0  0  0
    5.5185    8.5603    8.5422 H   0  0  0  0  0  0  0  0  0  0  0  0
    4.5804    6.3185    9.1188 H   0  0  0  0  0  0  0  0  0  0  0  0
    4.7404    4.4562    7.4623 H   0  0  0  0  0  0  0  0  0  0  0  0
    5.8034    4.8334    5.2614 H   0  0  0  0  0  0  0  0  0  0  0  0
    6.1615    9.1388    4.0773 H   0  0  0  0  0  0  0  0  0  0  0  0
    7.2456    9.5433    1.8907 H   0  0  0  0  0  0  0  0  0  0  0  0
    8.5948    9.4529   -0.3945 H   0  0  0  0  0  0  0  0  0  0  0  0
    9.9665    8.8825   -2.3728 H   0  0  0  0  0  0  0  0  0  0  0  0
   12.1680    8.5513   -3.0657 H   0  0  0  0  0  0  0  0  0  0  0  0
   13.5341    8.0157   -5.0567 H   0  0  0  0  0  0  0  0  0  0  0  0
   13.5013    5.7131   -6.0237 H   0  0  0  0  0  0  0  0  0  0  0  0
   12.0642    3.9600   -4.9751 H   0  0  0  0  0  0  0  0  0  0  0  0
   10.6712    4.5042   -3.0054 H   0  0  0  0  0  0  0  0  0  0  0  0
   10.8029    4.9785   -0.7252 H   0  0  0  0  0  0  0  0  0  0  0  0
  1  2  1  0
  1 42  1  0
  1 43  1  0
  1 44  1  0
  2  3  1  0
  2 45  1  0
  2 46  1  0
  3  4  1  0
  3 47  1  0
  3 48  1  0
  4  5  1  0
  4 49  1  0
  4 50  1  0
  5  6  1  0
  5 51  1  0
  5 52  1  0
  6  7  1  0
  6 53  1  0
  6 54  1  0
  7  8  1  0
  7 55  1  0
  7 56  1  0
  9  8  1  6
  8 57  1  0
  8 58  1  0
  9 10  1  0
  9 18  1  0
  9 41  1  0
 10 11  1  0
 10 59  1  0
 10 60  1  0
 11 12  1  0
 11 61  1  0
 11 62  1  0
 12 13  1  0
 12 63  1  0
 12 64  1  0
 13 14  1  0
 13 65  1  0
 13 66  1  0
 14 15  1  0
 14 67  1  0
 14 68  1  0
 15 16  1  0
 15 69  1  0
 15 70  1  0
 16 17  1  0
 16 71  1  0
 16 72  1  0
 17 73  1  0
 17 74  1  0
 17 75  1  0
 18 19  2  0
 18 29  1  0
 19 20  1  0
 19 76  1  0
 20 21  1  0
 20 27  2  0
 21 22  2  0
 21 26  1  0
 22 23  1  0
 22 77  1  0
 23 24  2  0
 23 78  1  0
 24 25  1  0
 24 79  1  0
 25 26  2  0
 25 80  1  0
 26 81  1  0
 27 28  1  0
 27 82  1  0
 28 29  2  0
 28 83  1  0
 29 30  1  0
 30 31  2  0
 30 41  1  0
 31 32  1  0
 31 84  1  0
 32 33  2  0
 32 85  1  0
 33 34  1  0
 33 40  1  0
 34 35  2  0
 34 39  1  0
 35 36  1  0
 35 86  1  0
 36 37  2  0
 36 87  1  0
 37 38  1  0
 37 88  1  0
 38 39  2  0
 38 89  1  0
 39 90  1  0
 40 41  2  0
 40 91  1  0
M  END

