
     RDKit          3D

 22 22  0  0  0  0  0  0  0  0999 V2000
    3.8315   -0.2067   -1.5666 O   0  0  0  0  0  0  0  0  0  0  0  0
    4.9746    0.0355   -1.2885 C   0  0  0  0  0  0  0  0  0  0  0  0
    5.9757    0.0962   -2.1593 O   0  0  0  0  0  0  0  0  0  0  0  0
    5.4468    0.3143    0.1632 C   0  0  0  0  0  0  0  0  0  0  0  0
    6.6181    0.5594    0.3475 O   0  0  0  0  0  0  0  0  0  0  0  0
    4.3790    0.2599    1.2333 C   0  0  0  0  0  0  0  0  0  0  0  0
    4.8859    0.5425    2.6243 C   0  0  0  0  0  0  0  0  0  0  0  0
    4.9539    1.8616    3.1000 C   0  0  0  0  0  0  0  0  0  0  0  0
    5.4529    2.1311    4.3787 C   0  0  0  0  0  0  0  0  0  0  0  0
    5.5370    4.1353    5.0708 I   0  0  0  0  0  0  0  0  0  0  0  0
    5.8934    1.0992    5.2085 C   0  0  0  0  0  0  0  0  0  0  0  0
    5.8167   -0.2028    4.7153 C   0  0  0  0  0  0  0  0  0  0  0  0
    6.2749   -1.3161    5.5826 N   0  0  0  0  0  0  0  0  0  0  0  0
    6.7000   -1.0283    6.6878 O   0  0  0  0  0  0  0  0  0  0  0  0
    6.1925   -2.4462    5.1324 O   0  0  0  0  0  0  0  0  0  0  0  0
    5.3248   -0.5011    3.4466 C   0  0  0  0  0  0  0  0  0  0  0  0
    6.7835    0.3097   -1.6482 H   0  0  0  0  0  0  0  0  0  0  0  0
    3.9035   -0.7336    1.1615 H   0  0  0  0  0  0  0  0  0  0  0  0
    3.5827    0.9613    0.9289 H   0  0  0  0  0  0  0  0  0  0  0  0
    4.6117    2.6824    2.4665 H   0  0  0  0  0  0  0  0  0  0  0  0
    6.2844    1.2707    6.2101 H   0  0  0  0  0  0  0  0  0  0  0  0
    5.2915   -1.5424    3.1261 H   0  0  0  0  0  0  0  0  0  0  0  0
  1  2  2  0
  2  3  1  0
  2  4  1  0
  3 17  1  0
  4  5  2  0
  4  6  1  0
  6  7  1  0
  6 18  1  0
  6 19  1  0
  7  8  2  0
  7 16  1  0
  8  9  1  0
  8 20  1  0
  9 10  1  0
  9 11  2  0
 11 12  1  0
 11 21  1  0
 12 13  1  0
 12 16  2  0
 13 14  2  0
 13 15  1  0
 16 22  1  0
M  CHG  2  13   1  15  -1
M  END

