
     RDKit          3D

 41 42  0  0  0  0  0  0  0  0999 V2000
    0.7216    0.1966   -0.6020 C   0  0  0  0  0  0  0  0  0  0  0  0
    2.2394    0.2958   -0.4933 C   0  0  0  0  0  0  0  0  0  0  0  0
    2.8786   -0.9471   -0.9021 N   0  0  0  0  0  0  0  0  0  0  0  0
    4.3414   -0.9213   -0.9542 C   0  0  1  0  0  0  0  0  0  0  0  0
    4.9661   -0.9708    0.4741 C   0  0  0  0  0  0  0  0  0  0  0  0
    4.7891   -2.2634    1.2368 C   0  0  0  0  0  0  0  0  0  0  0  0
    3.5565   -2.6341    1.8036 C   0  0  0  0  0  0  0  0  0  0  0  0
    3.4614   -3.8394    2.4943 C   0  0  0  0  0  0  0  0  0  0  0  0
    4.5886   -4.6655    2.6190 C   0  0  0  0  0  0  0  0  0  0  0  0
    4.5394   -5.9798    3.3543 C   0  0  0  0  0  0  0  0  0  0  0  0
    5.7667   -4.1974    2.0196 C   0  0  0  0  0  0  0  0  0  0  0  0
    5.8699   -3.0450    1.3557 N   0  0  0  0  0  0  0  0  0  0  0  0
    4.8685   -2.0395   -1.8454 C   0  0  0  0  0  0  0  0  0  0  0  0
    4.1825   -3.2627   -1.8855 C   0  0  0  0  0  0  0  0  0  0  0  0
    4.6544   -4.3044   -2.6769 C   0  0  0  0  0  0  0  0  0  0  0  0
    3.9769   -5.4654   -2.6991 F   0  0  0  0  0  0  0  0  0  0  0  0
    5.8067   -4.1720   -3.4415 C   0  0  0  0  0  0  0  0  0  0  0  0
    6.4893   -2.9547   -3.3959 C   0  0  0  0  0  0  0  0  0  0  0  0
    6.0485   -1.8775   -2.6116 C   0  0  0  0  0  0  0  0  0  0  0  0
    6.8388   -0.5885   -2.6142 C   0  0  0  0  0  0  0  0  0  0  0  0
    0.2407    1.1295   -0.2690 H   0  0  0  0  0  0  0  0  0  0  0  0
    0.3372   -0.6325    0.0124 H   0  0  0  0  0  0  0  0  0  0  0  0
    0.4075    0.0155   -1.6442 H   0  0  0  0  0  0  0  0  0  0  0  0
    2.5130    0.5141    0.5535 H   0  0  0  0  0  0  0  0  0  0  0  0
    2.5990    1.1692   -1.0855 H   0  0  0  0  0  0  0  0  0  0  0  0
    2.5204   -1.2195   -1.8169 H   0  0  0  0  0  0  0  0  0  0  0  0
    4.6869    0.0415   -1.3850 H   0  0  0  0  0  0  0  0  0  0  0  0
    4.5477   -0.1324    1.0557 H   0  0  0  0  0  0  0  0  0  0  0  0
    6.0472   -0.7945    0.3867 H   0  0  0  0  0  0  0  0  0  0  0  0
    2.6867   -1.9865    1.6878 H   0  0  0  0  0  0  0  0  0  0  0  0
    2.5084   -4.1418    2.9400 H   0  0  0  0  0  0  0  0  0  0  0  0
    4.2146   -5.8451    4.3997 H   0  0  0  0  0  0  0  0  0  0  0  0
    5.5252   -6.4683    3.3693 H   0  0  0  0  0  0  0  0  0  0  0  0
    3.8270   -6.6774    2.8826 H   0  0  0  0  0  0  0  0  0  0  0  0
    6.6820   -4.8002    2.0873 H   0  0  0  0  0  0  0  0  0  0  0  0
    3.2787   -3.4116   -1.2940 H   0  0  0  0  0  0  0  0  0  0  0  0
    6.1538   -5.0058   -4.0545 H   0  0  0  0  0  0  0  0  0  0  0  0
    7.3973   -2.8363   -3.9934 H   0  0  0  0  0  0  0  0  0  0  0  0
    7.7185   -0.6731   -3.2685 H   0  0  0  0  0  0  0  0  0  0  0  0
    7.2017   -0.3214   -1.6084 H   0  0  0  0  0  0  0  0  0  0  0  0
    6.2397    0.2646   -2.9754 H   0  0  0  0  0  0  0  0  0  0  0  0
  1  2  1  0
  1 21  1  0
  1 22  1  0
  1 23  1  0
  2  3  1  0
  2 24  1  0
  2 25  1  0
  3  4  1  0
  3 26  1  0
  4  5  1  0
  4 13  1  0
  4 27  1  6
  5  6  1  0
  5 28  1  0
  5 29  1  0
  6  7  2  0
  6 12  1  0
  7  8  1  0
  7 30  1  0
  8  9  2  0
  8 31  1  0
  9 10  1  0
  9 11  1  0
 10 32  1  0
 10 33  1  0
 10 34  1  0
 11 12  2  0
 11 35  1  0
 13 14  2  0
 13 19  1  0
 14 15  1  0
 14 36  1  0
 15 16  1  0
 15 17  2  0
 17 18  1  0
 17 37  1  0
 18 19  2  0
 18 38  1  0
 19 20  1  0
 20 39  1  0
 20 40  1  0
 20 41  1  0
M  END

