
     RDKit          3D

 18 19  0  0  0  0  0  0  0  0999 V2000
    4.9936    1.9399    1.9349 O   0  0  0  0  0  0  0  0  0  0  0  0
    3.8860    1.4892    1.8637 C   0  0  0  0  0  0  0  0  0  0  0  0
    2.7830    2.2583    1.8378 O   0  0  0  0  0  0  0  0  0  0  0  0
    3.5807    0.0196    1.7990 C   0  0  0  0  0  0  0  0  0  0  0  0
    4.5164   -0.9668    1.8124 N   0  0  0  0  0  0  0  0  0  0  0  0
    3.7994   -2.0722    1.7271 C   0  0  0  0  0  0  0  0  0  0  0  0
    2.4543   -1.7243    1.6499 N   0  0  0  0  0  0  0  0  0  0  0  0
    2.3167   -0.3946    1.7243 N   0  0  0  0  0  0  0  0  0  0  0  0
    1.5703   -2.8132    1.7581 C   0  0  0  0  0  0  0  0  0  0  0  0
    1.9249   -3.7378    0.8381 C   0  0  0  0  0  0  0  0  0  0  0  0
    2.4209   -4.9573    1.2371 O   0  0  0  0  0  0  0  0  0  0  0  0
    3.6724   -4.6743    1.7389 C   0  0  0  0  0  0  0  0  0  0  0  0
    4.2787   -3.4598    1.8747 C   0  0  0  0  0  0  0  0  0  0  0  0
    1.9995    1.6830    1.7750 H   0  0  0  0  0  0  0  0  0  0  0  0
    1.1837   -3.0591    2.7525 H   0  0  0  0  0  0  0  0  0  0  0  0
    2.2633   -3.4355   -0.1607 H   0  0  0  0  0  0  0  0  0  0  0  0
    4.1964   -5.5956    2.0023 H   0  0  0  0  0  0  0  0  0  0  0  0
    5.3149   -3.5031    2.2181 H   0  0  0  0  0  0  0  0  0  0  0  0
  1  2  2  0
  2  3  1  0
  2  4  1  0
  3 14  1  0
  4  5  1  0
  4  8  2  0
  5  6  2  0
  6  7  1  0
  6 13  1  0
  7  8  1  0
  7  9  1  0
  9 10  2  0
  9 15  1  0
 10 11  1  0
 10 16  1  0
 11 12  1  0
 12 13  2  0
 12 17  1  0
 13 18  1  0
M  END

