
     RDKit          3D

 59 60  0  0  0  0  0  0  0  0999 V2000
    6.9973   -0.0276   -4.5067 C   0  0  0  0  0  0  0  0  0  0  0  0
    6.6406   -0.0039   -3.0203 C   0  0  0  0  0  0  0  0  0  0  0  0
    7.8379    0.2916   -2.1112 C   0  0  0  0  0  0  0  0  0  0  0  0
    7.5030    0.2442   -0.6136 C   0  0  1  0  0  0  0  0  0  0  0  0
    6.9526   -1.0240   -0.2690 O   0  0  0  0  0  0  0  0  0  0  0  0
    8.7070    0.5899    0.3023 C   0  0  1  0  0  0  0  0  0  0  0  0
    9.2351    2.0336    0.1375 C   0  0  0  0  0  0  0  0  0  0  0  0
    8.3172    3.0786    0.7999 C   0  0  0  0  0  0  0  0  0  0  0  0
    8.0347    2.8046    2.2101 N   0  0  0  0  0  0  0  0  0  0  0  0
    9.0938    3.1914    3.1271 C   0  0  0  0  0  0  0  0  0  0  0  0
    9.1836    4.6916    3.3570 C   0  0  0  0  0  0  0  0  0  0  0  0
   10.4056    5.3033    3.6813 C   0  0  0  0  0  0  0  0  0  0  0  0
   10.4155    6.6740    3.9365 C   0  0  0  0  0  0  0  0  0  0  0  0
    9.3325    7.4517    3.8861 N   0  0  0  0  0  0  0  0  0  0  0  0
    8.1741    6.8779    3.5737 C   0  0  0  0  0  0  0  0  0  0  0  0
    7.0127    7.6554    3.5069 N   0  0  0  0  0  0  0  0  0  0  0  0
    6.8405    9.0172    3.7082 C   0  0  0  0  0  0  0  0  0  0  0  0
    7.6871    9.8264    3.9843 O   0  0  0  0  0  0  0  0  0  0  0  0
    5.5174    9.2715    3.5314 O   0  0  0  0  0  0  0  0  0  0  0  0
    4.9700   10.6227    3.6659 C   0  0  1  0  0  0  0  0  0  0  0  0
    5.5957   11.5509    2.6190 C   0  0  0  0  0  0  0  0  0  0  0  0
    3.4803   10.4159    3.3835 C   0  0  0  0  0  0  0  0  0  0  0  0
    5.1842   11.1373    5.0937 C   0  0  0  0  0  0  0  0  0  0  0  0
    8.0498    5.4985    3.3012 C   0  0  0  0  0  0  0  0  0  0  0  0
    7.5044    1.4531    2.3886 C   0  0  0  0  0  0  0  0  0  0  0  0
    8.3934    0.3467    1.7963 C   0  0  0  0  0  0  0  0  0  0  0  0
    6.1137   -0.2384   -5.1300 H   0  0  0  0  0  0  0  0  0  0  0  0
    7.7507   -0.8028   -4.7272 H   0  0  0  0  0  0  0  0  0  0  0  0
    7.4149    0.9382   -4.8387 H   0  0  0  0  0  0  0  0  0  0  0  0
    6.1974   -0.9670   -2.7195 H   0  0  0  0  0  0  0  0  0  0  0  0
    5.8573    0.7545   -2.8390 H   0  0  0  0  0  0  0  0  0  0  0  0
    8.2575    1.2779   -2.3706 H   0  0  0  0  0  0  0  0  0  0  0  0
    8.6464   -0.4401   -2.3109 H   0  0  0  0  0  0  0  0  0  0  0  0
    6.6798    0.9538   -0.4226 H   0  0  0  0  0  0  0  0  0  0  0  0
    7.6287   -1.6952   -0.4416 H   0  0  0  0  0  0  0  0  0  0  0  0
    9.5185   -0.1041    0.0077 H   0  0  0  0  0  0  0  0  0  0  0  0
    9.3830    2.2933   -0.9228 H   0  0  0  0  0  0  0  0  0  0  0  0
   10.2364    2.0893    0.5984 H   0  0  0  0  0  0  0  0  0  0  0  0
    7.3533    3.1236    0.2615 H   0  0  0  0  0  0  0  0  0  0  0  0
    8.7617    4.0825    0.7139 H   0  0  0  0  0  0  0  0  0  0  0  0
   10.1025    2.8244    2.8384 H   0  0  0  0  0  0  0  0  0  0  0  0
    8.8792    2.7191    4.1023 H   0  0  0  0  0  0  0  0  0  0  0  0
   11.3310    4.7238    3.7315 H   0  0  0  0  0  0  0  0  0  0  0  0
   11.3558    7.1776    4.1923 H   0  0  0  0  0  0  0  0  0  0  0  0
    6.1592    7.1609    3.2770 H   0  0  0  0  0  0  0  0  0  0  0  0
    5.4617   11.1336    1.6086 H   0  0  0  0  0  0  0  0  0  0  0  0
    6.6681   11.6905    2.8047 H   0  0  0  0  0  0  0  0  0  0  0  0
    5.0999   12.5338    2.6506 H   0  0  0  0  0  0  0  0  0  0  0  0
    3.3306   10.0050    2.3734 H   0  0  0  0  0  0  0  0  0  0  0  0
    2.9417   11.3731    3.4541 H   0  0  0  0  0  0  0  0  0  0  0  0
    3.0419    9.7146    4.1098 H   0  0  0  0  0  0  0  0  0  0  0  0
    6.2516   11.2711    5.3099 H   0  0  0  0  0  0  0  0  0  0  0  0
    4.7603   10.4294    5.8233 H   0  0  0  0  0  0  0  0  0  0  0  0
    4.6731   12.1046    5.2203 H   0  0  0  0  0  0  0  0  0  0  0  0
    7.0885    5.0510    3.0380 H   0  0  0  0  0  0  0  0  0  0  0  0
    6.5072    1.4144    1.9146 H   0  0  0  0  0  0  0  0  0  0  0  0
    7.3392    1.2761    3.4637 H   0  0  0  0  0  0  0  0  0  0  0  0
    7.9011   -0.6287    1.9216 H   0  0  0  0  0  0  0  0  0  0  0  0
    9.3443    0.3044    2.3560 H   0  0  0  0  0  0  0  0  0  0  0  0
  1  2  1  0
  1 27  1  0
  1 28  1  0
  1 29  1  0
  2  3  1  0
  2 30  1  0
  2 31  1  0
  3  4  1  0
  3 32  1  0
  3 33  1  0
  4  5  1  0
  4  6  1  0
  4 34  1  6
  5 35  1  0
  6  7  1  0
  6 26  1  0
  6 36  1  6
  7  8  1  0
  7 37  1  0
  7 38  1  0
  8  9  1  0
  8 39  1  0
  8 40  1  0
  9 10  1  0
  9 25  1  0
 10 11  1  0
 10 41  1  0
 10 42  1  0
 11 12  2  0
 11 24  1  0
 12 13  1  0
 12 43  1  0
 13 14  2  0
 13 44  1  0
 14 15  1  0
 15 16  1  0
 15 24  2  0
 16 17  1  0
 16 45  1  0
 17 18  2  0
 17 19  1  0
 20 19  1  1
 20 21  1  0
 20 22  1  0
 20 23  1  0
 21 46  1  0
 21 47  1  0
 21 48  1  0
 22 49  1  0
 22 50  1  0
 22 51  1  0
 23 52  1  0
 23 53  1  0
 23 54  1  0
 24 55  1  0
 25 26  1  0
 25 56  1  0
 25 57  1  0
 26 58  1  0
 26 59  1  0
M  END

