
     RDKit          3D

 46 49  0  0  0  0  0  0  0  0999 V2000
    1.3854    0.0238   -0.0255 O   0  0  0  0  0  0  0  0  0  0  0  0
    2.5863    0.2474   -0.0752 C   0  0  0  0  0  0  0  0  0  0  0  0
    3.3520   -0.3190   -1.0729 N   0  0  0  0  0  0  0  0  0  0  0  0
    4.7479   -0.5296   -1.1717 C   0  0  0  0  0  0  0  0  0  0  0  0
    5.5437   -0.8165   -0.0492 C   0  0  0  0  0  0  0  0  0  0  0  0
    6.9115   -1.0351   -0.2003 C   0  0  0  0  0  0  0  0  0  0  0  0
    7.5188   -1.0046   -1.4653 C   0  0  0  0  0  0  0  0  0  0  0  0
    9.0144   -1.2089   -1.6263 C   0  0  0  0  0  0  0  0  0  0  0  0
    9.5590   -2.3032   -0.8383 N   0  0  0  0  0  0  0  0  0  0  0  0
    9.2731   -3.6470   -0.9737 C   0  0  0  0  0  0  0  0  0  0  0  0
   10.0342   -4.2842   -0.0183 C   0  0  0  0  0  0  0  0  0  0  0  0
   10.7728   -3.3736    0.6944 N   0  0  0  0  0  0  0  0  0  0  0  0
   10.4683   -2.2040    0.1830 C   0  0  0  0  0  0  0  0  0  0  0  0
    6.7124   -0.7517   -2.5819 C   0  0  0  0  0  0  0  0  0  0  0  0
    5.3456   -0.5049   -2.4404 C   0  0  0  0  0  0  0  0  0  0  0  0
    3.2378    1.2210    0.8639 C   0  0  0  0  0  0  0  0  0  0  0  0
    4.0766    2.1947    0.3396 C   0  0  0  0  0  0  0  0  0  0  0  0
    4.5924    3.2614    1.1152 C   0  0  0  0  0  0  0  0  0  0  0  0
    5.4420    4.2639    0.5666 C   0  0  0  0  0  0  0  0  0  0  0  0
    5.9248    5.2840    1.3576 C   0  0  0  0  0  0  0  0  0  0  0  0
    5.5774    5.3463    2.7330 C   0  0  0  0  0  0  0  0  0  0  0  0
    4.7548    4.3922    3.2932 C   0  0  0  0  0  0  0  0  0  0  0  0
    4.2383    3.3265    2.5026 C   0  0  0  0  0  0  0  0  0  0  0  0
    3.3942    2.3216    3.0359 C   0  0  0  0  0  0  0  0  0  0  0  0
    2.8919    1.3005    2.2527 C   0  0  0  0  0  0  0  0  0  0  0  0
    2.0489    0.4404    2.9158 O   0  0  0  0  0  0  0  0  0  0  0  0
    1.8944   -0.8955    2.6425 C   0  0  1  0  0  0  0  0  0  0  0  0
    3.0835   -1.4411    2.2562 F   0  0  0  0  0  0  0  0  0  0  0  0
    1.5309   -1.4795    3.7918 F   0  0  0  0  0  0  0  0  0  0  0  0
    2.7744   -0.7862   -1.7682 H   0  0  0  0  0  0  0  0  0  0  0  0
    5.0844   -0.8883    0.9365 H   0  0  0  0  0  0  0  0  0  0  0  0
    7.5134   -1.2619    0.6835 H   0  0  0  0  0  0  0  0  0  0  0  0
    9.5550   -0.2987   -1.3176 H   0  0  0  0  0  0  0  0  0  0  0  0
    9.2537   -1.3690   -2.6904 H   0  0  0  0  0  0  0  0  0  0  0  0
    8.5664   -4.0144   -1.7138 H   0  0  0  0  0  0  0  0  0  0  0  0
   10.0848   -5.3529    0.1890 H   0  0  0  0  0  0  0  0  0  0  0  0
   10.8709   -1.2393    0.4966 H   0  0  0  0  0  0  0  0  0  0  0  0
    7.1564   -0.7369   -3.5816 H   0  0  0  0  0  0  0  0  0  0  0  0
    4.7332   -0.2919   -3.3205 H   0  0  0  0  0  0  0  0  0  0  0  0
    4.3313    2.1566   -0.7215 H   0  0  0  0  0  0  0  0  0  0  0  0
    5.7058    4.2103   -0.4931 H   0  0  0  0  0  0  0  0  0  0  0  0
    6.5768    6.0495    0.9298 H   0  0  0  0  0  0  0  0  0  0  0  0
    5.9666    6.1603    3.3498 H   0  0  0  0  0  0  0  0  0  0  0  0
    4.4875    4.4424    4.3519 H   0  0  0  0  0  0  0  0  0  0  0  0
    3.1193    2.3378    4.0922 H   0  0  0  0  0  0  0  0  0  0  0  0
    1.1462   -1.0930    1.8624 H   0  0  0  0  0  0  0  0  0  0  0  0
  1  2  2  0
  2  3  1  0
  2 16  1  0
  3  4  1  0
  3 30  1  0
  4  5  2  0
  4 15  1  0
  5  6  1  0
  5 31  1  0
  6  7  2  0
  6 32  1  0
  7  8  1  0
  7 14  1  0
  8  9  1  0
  8 33  1  0
  8 34  1  0
  9 10  1  0
  9 13  1  0
 10 11  2  0
 10 35  1  0
 11 12  1  0
 11 36  1  0
 12 13  2  0
 13 37  1  0
 14 15  2  0
 14 38  1  0
 15 39  1  0
 16 17  2  0
 16 25  1  0
 17 18  1  0
 17 40  1  0
 18 19  2  0
 18 23  1  0
 19 20  1  0
 19 41  1  0
 20 21  2  0
 20 42  1  0
 21 22  1  0
 21 43  1  0
 22 23  2  0
 22 44  1  0
 23 24  1  0
 24 25  2  0
 24 45  1  0
 25 26  1  0
 26 27  1  0
 27 28  1  0
 27 29  1  0
 27 46  1  6
M  END

