
     RDKit          3D

 51 53  0  0  0  0  0  0  0  0999 V2000
    8.3282   -1.1437   -3.7897 C   0  0  0  0  0  0  0  0  0  0  0  0
    7.6503   -0.0420   -4.3995 O   0  0  0  0  0  0  0  0  0  0  0  0
    6.8926    0.7102   -3.5835 C   0  0  0  0  0  0  0  0  0  0  0  0
    6.7850    0.4810   -2.4009 O   0  0  0  0  0  0  0  0  0  0  0  0
    6.1914    1.8485   -4.2712 C   0  0  0  0  0  0  0  0  0  0  0  0
    5.3029    2.5520   -3.4431 C   0  0  0  0  0  0  0  0  0  0  0  0
    4.5839    3.6368   -3.9366 C   0  0  0  0  0  0  0  0  0  0  0  0
    3.4596    4.5139   -2.8456 S   0  0  1  0  0  0  0  0  0  0  0  0
    2.5974    5.3434   -3.6841 O   0  0  0  0  0  0  0  0  0  0  0  0
    2.9366    3.5654   -1.8675 O   0  0  0  0  0  0  0  0  0  0  0  0
    4.4303    5.5423   -1.9109 N   0  0  0  0  0  0  0  0  0  0  0  0
    5.2073    6.6257   -2.3572 C   0  0  0  0  0  0  0  0  0  0  0  0
    6.4388    6.8780   -1.7220 C   0  0  0  0  0  0  0  0  0  0  0  0
    7.2210    7.9670   -2.0975 C   0  0  0  0  0  0  0  0  0  0  0  0
    6.7899    8.8005   -3.1355 C   0  0  0  0  0  0  0  0  0  0  0  0
    7.8194   10.1773   -3.6579 S   0  0  1  0  0  0  0  0  0  0  0  0
    6.9418   11.1372   -4.3303 O   0  0  0  0  0  0  0  0  0  0  0  0
    8.6621   10.5388   -2.5156 O   0  0  0  0  0  0  0  0  0  0  0  0
    8.8383    9.5814   -4.8220 N   0  0  0  0  0  0  0  0  0  0  0  0
   10.1163    8.9313   -4.5152 C   0  0  0  0  0  0  0  0  0  0  0  0
   10.7594    8.8290   -5.9031 C   0  0  0  0  0  0  0  0  0  0  0  0
    9.5568    8.5786   -6.8274 C   0  0  0  0  0  0  0  0  0  0  0  0
    8.4387    9.4534   -6.2318 C   0  0  0  0  0  0  0  0  0  0  0  0
    5.5627    8.5678   -3.7660 C   0  0  0  0  0  0  0  0  0  0  0  0
    4.7680    7.4900   -3.3779 C   0  0  0  0  0  0  0  0  0  0  0  0
    4.7210    4.0350   -5.2678 C   0  0  0  0  0  0  0  0  0  0  0  0
    5.6044    3.3347   -6.0872 C   0  0  0  0  0  0  0  0  0  0  0  0
    6.3574    2.2391   -5.6275 C   0  0  0  0  0  0  0  0  0  0  0  0
    7.2828    1.5568   -6.6045 C   0  0  0  0  0  0  0  0  0  0  0  0
    8.8915   -1.6354   -4.5921 H   0  0  0  0  0  0  0  0  0  0  0  0
    7.6072   -1.8433   -3.3417 H   0  0  0  0  0  0  0  0  0  0  0  0
    9.0093   -0.7931   -3.0001 H   0  0  0  0  0  0  0  0  0  0  0  0
    5.1810    2.2172   -2.4120 H   0  0  0  0  0  0  0  0  0  0  0  0
    4.7468    5.0634   -1.0717 H   0  0  0  0  0  0  0  0  0  0  0  0
    6.7760    6.2192   -0.9170 H   0  0  0  0  0  0  0  0  0  0  0  0
    8.1582    8.1833   -1.5818 H   0  0  0  0  0  0  0  0  0  0  0  0
    9.9712    7.9254   -4.0718 H   0  0  0  0  0  0  0  0  0  0  0  0
   10.6962    9.5354   -3.8042 H   0  0  0  0  0  0  0  0  0  0  0  0
   11.5219    8.0377   -5.9579 H   0  0  0  0  0  0  0  0  0  0  0  0
   11.2452    9.7852   -6.1582 H   0  0  0  0  0  0  0  0  0  0  0  0
    9.2659    7.5158   -6.7823 H   0  0  0  0  0  0  0  0  0  0  0  0
    9.7591    8.8215   -7.8811 H   0  0  0  0  0  0  0  0  0  0  0  0
    7.4464    8.9833   -6.3392 H   0  0  0  0  0  0  0  0  0  0  0  0
    8.3850   10.4473   -6.7058 H   0  0  0  0  0  0  0  0  0  0  0  0
    5.2141    9.2607   -4.5339 H   0  0  0  0  0  0  0  0  0  0  0  0
    3.7934    7.3269   -3.8365 H   0  0  0  0  0  0  0  0  0  0  0  0
    4.1323    4.8687   -5.6530 H   0  0  0  0  0  0  0  0  0  0  0  0
    5.7132    3.6431   -7.1298 H   0  0  0  0  0  0  0  0  0  0  0  0
    7.2619    2.0740   -7.5741 H   0  0  0  0  0  0  0  0  0  0  0  0
    6.9969    0.5062   -6.7605 H   0  0  0  0  0  0  0  0  0  0  0  0
    8.3187    1.5386   -6.2364 H   0  0  0  0  0  0  0  0  0  0  0  0
  1  2  1  0
  1 30  1  0
  1 31  1  0
  1 32  1  0
  2  3  1  0
  3  4  2  0
  3  5  1  0
  5  6  2  0
  5 28  1  0
  6  7  1  0
  6 33  1  0
  7  8  1  0
  7 26  2  0
  8  9  2  0
  8 10  2  0
  8 11  1  1
 11 12  1  0
 11 34  1  0
 12 13  2  0
 12 25  1  0
 13 14  1  0
 13 35  1  0
 14 15  2  0
 14 36  1  0
 16 15  1  1
 15 24  1  0
 16 17  2  0
 16 18  2  0
 16 19  1  0
 19 20  1  0
 19 23  1  0
 20 21  1  0
 20 37  1  0
 20 38  1  0
 21 22  1  0
 21 39  1  0
 21 40  1  0
 22 23  1  0
 22 41  1  0
 22 42  1  0
 23 43  1  0
 23 44  1  0
 24 25  2  0
 24 45  1  0
 25 46  1  0
 26 27  1  0
 26 47  1  0
 27 28  2  0
 27 48  1  0
 28 29  1  0
 29 49  1  0
 29 50  1  0
 29 51  1  0
M  END

