
     RDKit          3D

 43 45  0  0  0  0  0  0  0  0999 V2000
    4.2261   -3.3908    1.1288 C   0  0  0  0  0  0  0  0  0  0  0  0
    4.2600   -3.4748   -0.3778 C   0  0  0  0  0  0  0  0  0  0  0  0
    5.1984   -4.2854   -1.0295 C   0  0  0  0  0  0  0  0  0  0  0  0
    5.2218   -4.3761   -2.4220 C   0  0  0  0  0  0  0  0  0  0  0  0
    4.3163   -3.6346   -3.1809 C   0  0  0  0  0  0  0  0  0  0  0  0
    3.3739   -2.7930   -2.5718 C   0  0  0  0  0  0  0  0  0  0  0  0
    2.4518   -1.9448   -3.4101 C   0  0  0  0  0  0  0  0  0  0  0  0
    3.3405   -2.7355   -1.1585 C   0  0  0  0  0  0  0  0  0  0  0  0
    2.4099   -1.8859   -0.5045 N   0  0  0  0  0  0  0  0  0  0  0  0
    1.0344   -2.0702   -0.4388 C   0  0  0  0  0  0  0  0  0  0  0  0
    0.3831   -3.1779   -1.0169 C   0  0  0  0  0  0  0  0  0  0  0  0
   -1.0003   -3.3078   -0.9233 C   0  0  0  0  0  0  0  0  0  0  0  0
   -1.8042   -2.3645   -0.2523 C   0  0  0  0  0  0  0  0  0  0  0  0
   -3.2508   -2.5653   -0.1907 C   0  0  0  0  0  0  0  0  0  0  0  0
   -4.1704   -1.7728    0.4068 C   0  0  0  0  0  0  0  0  0  0  0  0
   -5.6164   -1.9919    0.4576 C   0  0  0  0  0  0  0  0  0  0  0  0
   -6.2849   -3.0870   -0.1263 C   0  0  0  0  0  0  0  0  0  0  0  0
   -7.6680   -3.1880   -0.0110 C   0  0  0  0  0  0  0  0  0  0  0  0
   -8.3633   -2.1923    0.6867 C   0  0  0  0  0  0  0  0  0  0  0  0
   -7.7551   -1.1453    1.2486 N   0  0  0  0  0  0  0  0  0  0  0  0
   -6.4320   -1.0566    1.1334 C   0  0  0  0  0  0  0  0  0  0  0  0
   -1.1362   -1.2648    0.3325 C   0  0  0  0  0  0  0  0  0  0  0  0
    0.2394   -1.1173    0.2405 C   0  0  0  0  0  0  0  0  0  0  0  0
    4.9089   -4.1248    1.5801 H   0  0  0  0  0  0  0  0  0  0  0  0
    3.2137   -3.5763    1.5222 H   0  0  0  0  0  0  0  0  0  0  0  0
    4.5346   -2.3949    1.4959 H   0  0  0  0  0  0  0  0  0  0  0  0
    5.9107   -4.8617   -0.4328 H   0  0  0  0  0  0  0  0  0  0  0  0
    5.9538   -5.0194   -2.9169 H   0  0  0  0  0  0  0  0  0  0  0  0
    4.3504   -3.6876   -4.2726 H   0  0  0  0  0  0  0  0  0  0  0  0
    2.8039   -1.8940   -4.4505 H   0  0  0  0  0  0  0  0  0  0  0  0
    2.3860   -0.9211   -3.0101 H   0  0  0  0  0  0  0  0  0  0  0  0
    1.4219   -2.3396   -3.4228 H   0  0  0  0  0  0  0  0  0  0  0  0
    2.7922   -1.2775    0.2103 H   0  0  0  0  0  0  0  0  0  0  0  0
    0.9686   -3.9463   -1.5242 H   0  0  0  0  0  0  0  0  0  0  0  0
   -1.4776   -4.1803   -1.3793 H   0  0  0  0  0  0  0  0  0  0  0  0
   -3.5975   -3.4731   -0.6972 H   0  0  0  0  0  0  0  0  0  0  0  0
   -3.8346   -0.8633    0.9161 H   0  0  0  0  0  0  0  0  0  0  0  0
   -5.7269   -3.8547   -0.6676 H   0  0  0  0  0  0  0  0  0  0  0  0
   -8.2073   -4.0280   -0.4556 H   0  0  0  0  0  0  0  0  0  0  0  0
   -9.4532   -2.2466    0.7930 H   0  0  0  0  0  0  0  0  0  0  0  0
   -5.9595   -0.1850    1.6055 H   0  0  0  0  0  0  0  0  0  0  0  0
   -1.7062   -0.5027    0.8684 H   0  0  0  0  0  0  0  0  0  0  0  0
    0.7222   -0.2473    0.6956 H   0  0  0  0  0  0  0  0  0  0  0  0
  1  2  1  0
  1 24  1  0
  1 25  1  0
  1 26  1  0
  2  3  2  0
  2  8  1  0
  3  4  1  0
  3 27  1  0
  4  5  2  0
  4 28  1  0
  5  6  1  0
  5 29  1  0
  6  7  1  0
  6  8  2  0
  7 30  1  0
  7 31  1  0
  7 32  1  0
  8  9  1  0
  9 10  1  0
  9 33  1  0
 10 11  2  0
 10 23  1  0
 11 12  1  0
 11 34  1  0
 12 13  2  0
 12 35  1  0
 13 14  1  0
 13 22  1  0
 14 15  2  0
 14 36  1  0
 15 16  1  0
 15 37  1  0
 16 17  2  0
 16 21  1  0
 17 18  1  0
 17 38  1  0
 18 19  2  0
 18 39  1  0
 19 20  1  0
 19 40  1  0
 20 21  2  0
 21 41  1  0
 22 23  2  0
 22 42  1  0
 23 43  1  0
M  END

