
     RDKit          3D

 28 29  0  0  0  0  0  0  0  0999 V2000
    3.0892   -0.8592    0.7616 O   0  0  0  0  0  0  0  0  0  0  0  0
    2.4553   -0.0637    0.0925 C   0  0  0  0  0  0  0  0  0  0  0  0
    3.1762    0.7535   -0.9817 C   0  0  0  0  0  0  0  0  0  0  0  0
    2.2717    1.6138   -1.6455 O   0  0  0  0  0  0  0  0  0  0  0  0
    2.6921    2.4307   -2.6395 C   0  0  0  0  0  0  0  0  0  0  0  0
    4.0170    2.5031   -3.0929 C   0  0  0  0  0  0  0  0  0  0  0  0
    4.3742    3.3733   -4.1267 C   0  0  0  0  0  0  0  0  0  0  0  0
    3.4041    4.1818   -4.7178 C   0  0  0  0  0  0  0  0  0  0  0  0
    3.8405    5.2726   -6.0106 Cl  0  0  0  0  0  0  0  0  0  0  0  0
    2.0752    4.1278   -4.2825 C   0  0  0  0  0  0  0  0  0  0  0  0
    1.7271    3.2581   -3.2518 C   0  0  0  0  0  0  0  0  0  0  0  0
   -0.0815    3.1880   -2.6628 Br  0  0  0  0  0  0  0  0  0  0  0  0
    1.1219    0.1777    0.2106 N   0  0  0  0  0  0  0  0  0  0  0  0
    0.2883   -0.4986    1.1637 C   0  0  1  0  0  0  0  0  0  0  0  0
   -0.6423    0.3404    2.0713 C   0  0  0  0  0  0  0  0  0  0  0  0
   -1.7770   -0.4535    1.6992 O   0  0  0  0  0  0  0  0  0  0  0  0
   -1.0353   -1.1364    0.6796 C   0  0  0  0  0  0  0  0  0  0  0  0
    3.6461    0.0409   -1.6826 H   0  0  0  0  0  0  0  0  0  0  0  0
    3.9830    1.3203   -0.4839 H   0  0  0  0  0  0  0  0  0  0  0  0
    4.7864    1.8773   -2.6404 H   0  0  0  0  0  0  0  0  0  0  0  0
    5.4081    3.4212   -4.4712 H   0  0  0  0  0  0  0  0  0  0  0  0
    1.3183    4.7606   -4.7457 H   0  0  0  0  0  0  0  0  0  0  0  0
    0.7156    0.8695   -0.4134 H   0  0  0  0  0  0  0  0  0  0  0  0
    0.9323   -1.1928    1.7188 H   0  0  0  0  0  0  0  0  0  0  0  0
   -0.7384    1.3968    1.7519 H   0  0  0  0  0  0  0  0  0  0  0  0
   -0.4401    0.3129    3.1560 H   0  0  0  0  0  0  0  0  0  0  0  0
   -1.3294   -0.8249   -0.3421 H   0  0  0  0  0  0  0  0  0  0  0  0
   -1.1184   -2.2344    0.7550 H   0  0  0  0  0  0  0  0  0  0  0  0
  1  2  2  0
  2  3  1  0
  2 13  1  0
  3  4  1  0
  3 18  1  0
  3 19  1  0
  4  5  1  0
  5  6  2  0
  5 11  1  0
  6  7  1  0
  6 20  1  0
  7  8  2  0
  7 21  1  0
  8  9  1  0
  8 10  1  0
 10 11  2  0
 10 22  1  0
 11 12  1  0
 13 14  1  0
 13 23  1  0
 14 15  1  0
 14 17  1  0
 14 24  1  1
 15 16  1  0
 15 25  1  0
 15 26  1  0
 16 17  1  0
 17 27  1  0
 17 28  1  0
M  END

