
     RDKit          3D

 47 48  0  0  0  0  0  0  0  0999 V2000
    4.3143   -0.4542    2.4868 C   0  0  0  0  0  0  0  0  0  0  0  0
    5.4405   -1.1587    1.9936 O   0  0  0  0  0  0  0  0  0  0  0  0
    5.2289   -1.9800    0.9158 C   0  0  0  0  0  0  0  0  0  0  0  0
    5.8249   -1.6826   -0.3129 C   0  0  0  0  0  0  0  0  0  0  0  0
    5.6904   -2.5192   -1.4187 C   0  0  0  0  0  0  0  0  0  0  0  0
    4.9288   -3.7049   -1.3324 C   0  0  0  0  0  0  0  0  0  0  0  0
    4.8364   -4.5442   -2.4304 N   0  0  0  0  0  0  0  0  0  0  0  0
    3.9187   -5.6651   -2.5602 C   0  0  1  0  0  0  0  0  0  0  0  0
    2.4436   -5.2386   -2.7665 C   0  0  0  0  0  0  0  0  0  0  0  0
    2.2196   -4.6486   -4.1698 C   0  0  0  0  0  0  0  0  0  0  0  0
    2.6443   -5.5299   -5.2564 N   0  0  0  0  0  0  0  0  0  0  0  0
    1.7122   -6.6066   -5.5907 C   0  0  0  0  0  0  0  0  0  0  0  0
    0.4420   -6.0715   -6.1969 C   0  0  0  0  0  0  0  0  0  0  0  0
   -0.8320   -6.3953   -5.9075 C   0  0  0  0  0  0  0  0  0  0  0  0
   -1.2531   -7.3929   -4.8566 C   0  0  0  0  0  0  0  0  0  0  0  0
   -1.9770   -5.7645   -6.6624 C   0  0  0  0  0  0  0  0  0  0  0  0
    4.0353   -5.9334   -5.0991 C   0  0  0  0  0  0  0  0  0  0  0  0
    4.3565   -6.5671   -3.7309 C   0  0  0  0  0  0  0  0  0  0  0  0
    4.3174   -4.0042   -0.0964 C   0  0  0  0  0  0  0  0  0  0  0  0
    4.4719   -3.1645    1.0139 C   0  0  0  0  0  0  0  0  0  0  0  0
    3.9038   -3.4567    2.2172 O   0  0  0  0  0  0  0  0  0  0  0  0
    4.6736    0.1913    3.3017 H   0  0  0  0  0  0  0  0  0  0  0  0
    3.5435   -1.1357    2.8836 H   0  0  0  0  0  0  0  0  0  0  0  0
    3.8615    0.1822    1.7030 H   0  0  0  0  0  0  0  0  0  0  0  0
    6.4180   -0.7674   -0.3784 H   0  0  0  0  0  0  0  0  0  0  0  0
    6.1799   -2.2598   -2.3614 H   0  0  0  0  0  0  0  0  0  0  0  0
    5.2135   -4.1666   -3.2899 H   0  0  0  0  0  0  0  0  0  0  0  0
    3.9914   -6.2570   -1.6317 H   0  0  0  0  0  0  0  0  0  0  0  0
    2.1528   -4.5036   -1.9983 H   0  0  0  0  0  0  0  0  0  0  0  0
    1.7955   -6.1211   -2.6207 H   0  0  0  0  0  0  0  0  0  0  0  0
    2.7845   -3.7020   -4.2541 H   0  0  0  0  0  0  0  0  0  0  0  0
    1.1591   -4.3918   -4.3149 H   0  0  0  0  0  0  0  0  0  0  0  0
    1.4880   -7.2845   -4.7406 H   0  0  0  0  0  0  0  0  0  0  0  0
    2.2178   -7.2357   -6.3469 H   0  0  0  0  0  0  0  0  0  0  0  0
    0.6191   -5.3284   -6.9842 H   0  0  0  0  0  0  0  0  0  0  0  0
   -0.4162   -7.7791   -4.2596 H   0  0  0  0  0  0  0  0  0  0  0  0
   -1.7586   -8.2577   -5.3227 H   0  0  0  0  0  0  0  0  0  0  0  0
   -1.9878   -6.9421   -4.1663 H   0  0  0  0  0  0  0  0  0  0  0  0
   -1.6277   -5.0452   -7.4176 H   0  0  0  0  0  0  0  0  0  0  0  0
   -2.6620   -5.2372   -5.9743 H   0  0  0  0  0  0  0  0  0  0  0  0
   -2.5846   -6.5322   -7.1749 H   0  0  0  0  0  0  0  0  0  0  0  0
    4.6707   -5.0392   -5.2537 H   0  0  0  0  0  0  0  0  0  0  0  0
    4.3018   -6.6312   -5.9095 H   0  0  0  0  0  0  0  0  0  0  0  0
    5.4344   -6.7853   -3.6486 H   0  0  0  0  0  0  0  0  0  0  0  0
    3.8266   -7.5303   -3.6441 H   0  0  0  0  0  0  0  0  0  0  0  0
    3.7191   -4.9105    0.0232 H   0  0  0  0  0  0  0  0  0  0  0  0
    3.4296   -4.2952    2.1480 H   0  0  0  0  0  0  0  0  0  0  0  0
  1  2  1  0
  1 22  1  0
  1 23  1  0
  1 24  1  0
  2  3  1  0
  3  4  2  0
  3 20  1  0
  4  5  1  0
  4 25  1  0
  5  6  2  0
  5 26  1  0
  6  7  1  0
  6 19  1  0
  7  8  1  0
  7 27  1  0
  8  9  1  0
  8 18  1  0
  8 28  1  1
  9 10  1  0
  9 29  1  0
  9 30  1  0
 10 11  1  0
 10 31  1  0
 10 32  1  0
 11 12  1  0
 11 17  1  0
 12 13  1  0
 12 33  1  0
 12 34  1  0
 13 14  2  0
 13 35  1  0
 14 15  1  0
 14 16  1  0
 15 36  1  0
 15 37  1  0
 15 38  1  0
 16 39  1  0
 16 40  1  0
 16 41  1  0
 17 18  1  0
 17 42  1  0
 17 43  1  0
 18 44  1  0
 18 45  1  0
 19 20  2  0
 19 46  1  0
 20 21  1  0
 21 47  1  0
M  END

