
     RDKit          3D

 32 34  0  0  0  0  0  0  0  0999 V2000
    4.8792   -0.0944   -0.8864 C   0  0  0  0  0  0  0  0  0  0  0  0
    4.0605   -1.1809   -0.5217 O   0  0  0  0  0  0  0  0  0  0  0  0
    3.9826   -1.5570    0.7821 C   0  0  0  0  0  0  0  0  0  0  0  0
    4.6937   -0.9310    1.8145 C   0  0  0  0  0  0  0  0  0  0  0  0
    4.5693   -1.3941    3.1304 C   0  0  0  0  0  0  0  0  0  0  0  0
    3.7504   -2.4827    3.4200 C   0  0  0  0  0  0  0  0  0  0  0  0
    3.0476   -3.1077    2.3813 C   0  0  0  0  0  0  0  0  0  0  0  0
    3.1382   -2.6603    1.0621 C   0  0  0  0  0  0  0  0  0  0  0  0
    2.3427   -3.2796   -0.0883 C   0  0  2  0  0  0  0  0  0  0  0  0
    1.2010   -2.4067   -0.4285 N   0  0  0  0  0  0  0  0  0  0  0  0
    0.0316   -2.6300    0.4026 C   0  0  0  0  0  0  0  0  0  0  0  0
   -0.5245   -4.0576    0.2930 C   0  0  0  0  0  0  0  0  0  0  0  0
    0.5741   -5.0091    0.3975 N   0  0  0  0  0  0  0  0  0  0  0  0
    0.5049   -6.3629    0.5926 C   0  0  0  0  0  0  0  0  0  0  0  0
    1.6861   -6.9330    0.5158 N   0  0  0  0  0  0  0  0  0  0  0  0
    2.5661   -5.9151    0.2497 C   0  0  0  0  0  0  0  0  0  0  0  0
    1.9051   -4.7049    0.1627 C   0  0  0  0  0  0  0  0  0  0  0  0
    4.7795    0.0216   -1.9742 H   0  0  0  0  0  0  0  0  0  0  0  0
    5.9416   -0.2768   -0.6424 H   0  0  0  0  0  0  0  0  0  0  0  0
    4.5591    0.8431   -0.3971 H   0  0  0  0  0  0  0  0  0  0  0  0
    5.3483   -0.0848    1.6051 H   0  0  0  0  0  0  0  0  0  0  0  0
    5.1287   -0.8961    3.9268 H   0  0  0  0  0  0  0  0  0  0  0  0
    3.6589   -2.8525    4.4438 H   0  0  0  0  0  0  0  0  0  0  0  0
    2.4222   -3.9762    2.6001 H   0  0  0  0  0  0  0  0  0  0  0  0
    3.0068   -3.2682   -0.9650 H   0  0  0  0  0  0  0  0  0  0  0  0
    0.9678   -2.5071   -1.4153 H   0  0  0  0  0  0  0  0  0  0  0  0
   -0.7574   -1.9104    0.1317 H   0  0  0  0  0  0  0  0  0  0  0  0
    0.3069   -2.4213    1.4504 H   0  0  0  0  0  0  0  0  0  0  0  0
   -1.0347   -4.1904   -0.6790 H   0  0  0  0  0  0  0  0  0  0  0  0
   -1.2639   -4.2619    1.0845 H   0  0  0  0  0  0  0  0  0  0  0  0
   -0.4425   -6.8682    0.7863 H   0  0  0  0  0  0  0  0  0  0  0  0
    3.6363   -6.0934    0.1441 H   0  0  0  0  0  0  0  0  0  0  0  0
  1  2  1  0
  1 18  1  0
  1 19  1  0
  1 20  1  0
  2  3  1  0
  3  4  2  0
  3  8  1  0
  4  5  1  0
  4 21  1  0
  5  6  2  0
  5 22  1  0
  6  7  1  0
  6 23  1  0
  7  8  2  0
  7 24  1  0
  8  9  1  0
  9 10  1  0
  9 17  1  0
  9 25  1  6
 10 11  1  0
 10 26  1  0
 11 12  1  0
 11 27  1  0
 11 28  1  0
 12 13  1  0
 12 29  1  0
 12 30  1  0
 13 14  1  0
 13 17  1  0
 14 15  2  0
 14 31  1  0
 15 16  1  0
 16 17  2  0
 16 32  1  0
M  END

