
     RDKit          3D

 47 49  0  0  0  0  0  0  0  0999 V2000
    1.0430    0.0316    0.4543 C   0  0  0  0  0  0  0  0  0  0  0  0
    2.5407   -0.0045    0.2912 C   0  0  0  0  0  0  0  0  0  0  0  0
    3.3241    1.1494    0.4298 C   0  0  0  0  0  0  0  0  0  0  0  0
    4.7058    1.1586    0.2335 C   0  0  0  0  0  0  0  0  0  0  0  0
    5.3617   -0.0335   -0.1197 C   0  0  0  0  0  0  0  0  0  0  0  0
    6.7397   -0.1272   -0.3730 N   0  0  0  0  0  0  0  0  0  0  0  0
    7.7058    0.8654   -0.2626 C   0  0  0  0  0  0  0  0  0  0  0  0
    7.4801    1.9965    0.1360 O   0  0  0  0  0  0  0  0  0  0  0  0
    8.9660    0.4394   -0.6287 N   0  0  0  0  0  0  0  0  0  0  0  0
   10.0929    1.3643   -0.6811 C   0  0  1  0  0  0  0  0  0  0  0  0
   11.3577    0.6736   -0.2210 C   0  0  0  0  0  0  0  0  0  0  0  0
   12.5575    0.8679   -0.7854 C   0  0  0  0  0  0  0  0  0  0  0  0
   12.7954    1.8166   -1.9330 C   0  0  0  0  0  0  0  0  0  0  0  0
   11.6038    2.7570   -2.1620 C   0  0  0  0  0  0  0  0  0  0  0  0
   10.2744    2.0020   -2.0709 C   0  0  0  0  0  0  0  0  0  0  0  0
    4.6027   -1.2100   -0.2331 C   0  0  0  0  0  0  0  0  0  0  0  0
    3.2174   -1.1984   -0.0333 C   0  0  0  0  0  0  0  0  0  0  0  0
    2.4797   -2.4158   -0.1615 N   0  0  0  0  0  0  0  0  0  0  0  0
    2.0711   -3.2120    1.0005 C   0  0  0  0  0  0  0  0  0  0  0  0
    1.7575   -4.6406    0.4928 C   0  0  0  0  0  0  0  0  0  0  0  0
    1.3740   -4.5237   -0.9803 C   0  0  0  0  0  0  0  0  0  0  0  0
    2.5856   -3.3220   -1.5992 S   0  0  1  0  0  0  0  0  0  0  0  0
    2.0995   -2.5163   -2.7167 O   0  0  0  0  0  0  0  0  0  0  0  0
    3.8833   -4.0060   -1.7247 O   0  0  0  0  0  0  0  0  0  0  0  0
    0.6653    1.0626    0.3927 H   0  0  0  0  0  0  0  0  0  0  0  0
    0.7191   -0.3757    1.4290 H   0  0  0  0  0  0  0  0  0  0  0  0
    0.5526   -0.5666   -0.3289 H   0  0  0  0  0  0  0  0  0  0  0  0
    2.8304    2.0918    0.6842 H   0  0  0  0  0  0  0  0  0  0  0  0
    5.2830    2.0734    0.3427 H   0  0  0  0  0  0  0  0  0  0  0  0
    7.0567   -1.0517   -0.6393 H   0  0  0  0  0  0  0  0  0  0  0  0
    9.0695   -0.4331   -1.1353 H   0  0  0  0  0  0  0  0  0  0  0  0
    9.8314    2.1600    0.0374 H   0  0  0  0  0  0  0  0  0  0  0  0
   11.2506   -0.0109    0.6276 H   0  0  0  0  0  0  0  0  0  0  0  0
   13.4239    0.3194   -0.3986 H   0  0  0  0  0  0  0  0  0  0  0  0
   13.0043    1.2304   -2.8496 H   0  0  0  0  0  0  0  0  0  0  0  0
   13.7162    2.3975   -1.7483 H   0  0  0  0  0  0  0  0  0  0  0  0
   11.6949    3.2609   -3.1378 H   0  0  0  0  0  0  0  0  0  0  0  0
   11.6179    3.5538   -1.3971 H   0  0  0  0  0  0  0  0  0  0  0  0
   10.2521    1.2015   -2.8336 H   0  0  0  0  0  0  0  0  0  0  0  0
    9.4220    2.6678   -2.2778 H   0  0  0  0  0  0  0  0  0  0  0  0
    5.0827   -2.1549   -0.4981 H   0  0  0  0  0  0  0  0  0  0  0  0
    1.1777   -2.7574    1.4641 H   0  0  0  0  0  0  0  0  0  0  0  0
    2.8672   -3.2367    1.7636 H   0  0  0  0  0  0  0  0  0  0  0  0
    0.9576   -5.1072    1.0861 H   0  0  0  0  0  0  0  0  0  0  0  0
    2.6537   -5.2732    0.5748 H   0  0  0  0  0  0  0  0  0  0  0  0
    0.3781   -4.0897   -1.1504 H   0  0  0  0  0  0  0  0  0  0  0  0
    1.4940   -5.4472   -1.5617 H   0  0  0  0  0  0  0  0  0  0  0  0
  1  2  1  0
  1 25  1  0
  1 26  1  0
  1 27  1  0
  2  3  2  0
  2 17  1  0
  3  4  1  0
  3 28  1  0
  4  5  2  0
  4 29  1  0
  5  6  1  0
  5 16  1  0
  6  7  1  0
  6 30  1  0
  7  8  2  0
  7  9  1  0
  9 10  1  0
  9 31  1  0
 10 11  1  0
 10 15  1  0
 10 32  1  1
 11 12  2  0
 11 33  1  0
 12 13  1  0
 12 34  1  0
 13 14  1  0
 13 35  1  0
 13 36  1  0
 14 15  1  0
 14 37  1  0
 14 38  1  0
 15 39  1  0
 15 40  1  0
 16 17  2  0
 16 41  1  0
 17 18  1  0
 18 19  1  0
 22 18  1  1
 19 20  1  0
 19 42  1  0
 19 43  1  0
 20 21  1  0
 20 44  1  0
 20 45  1  0
 21 22  1  0
 21 46  1  0
 21 47  1  0
 22 23  2  0
 22 24  2  0
M  END

