
     RDKit          3D

 45 45  0  0  0  0  0  0  0  0999 V2000
    2.4400   -1.2691    3.4005 C   0  0  0  0  0  0  0  0  0  0  0  0
    2.4196   -0.2772    2.2271 C   0  0  1  0  0  0  0  0  0  0  0  0
    2.9892    1.0707    2.6942 C   0  0  0  0  0  0  0  0  0  0  0  0
    3.1088   -0.8570    0.9530 C   0  0  1  0  0  0  0  0  0  0  0  0
    2.5379   -2.2477    0.6005 C   0  0  0  0  0  0  0  0  0  0  0  0
    1.0857   -2.2815    0.5020 N   0  0  0  0  0  0  0  0  0  0  0  0
    0.5411   -3.5777    0.1262 C   0  0  0  0  0  0  0  0  0  0  0  0
   -0.9592   -3.5570    0.0610 C   0  0  0  0  0  0  0  0  0  0  0  0
   -1.8193   -4.2518   -0.8274 C   0  0  0  0  0  0  0  0  0  0  0  0
   -3.1023   -3.9947   -0.5823 N   0  0  0  0  0  0  0  0  0  0  0  0
   -3.0964   -3.1299    0.4434 N   0  0  0  0  0  0  0  0  0  0  0  0
   -4.3503   -2.7146    1.0495 C   0  0  0  0  0  0  0  0  0  0  0  0
   -4.8548   -3.7298    2.0786 C   0  0  0  0  0  0  0  0  0  0  0  0
   -3.9780   -3.8730    3.1713 O   0  0  0  0  0  0  0  0  0  0  0  0
   -1.8336   -2.8445    0.8724 C   0  0  0  0  0  0  0  0  0  0  0  0
    3.1248    0.1627   -0.2453 C   0  0  1  0  0  0  0  0  0  0  0  0
    4.4329    0.9734   -0.2744 C   0  0  0  0  0  0  0  0  0  0  0  0
    2.9169   -0.4482   -1.6424 C   0  0  0  0  0  0  0  0  0  0  0  0
    2.0043   -0.8088    4.3020 H   0  0  0  0  0  0  0  0  0  0  0  0
    3.4719   -1.5709    3.6531 H   0  0  0  0  0  0  0  0  0  0  0  0
    1.8575   -2.1750    3.1828 H   0  0  0  0  0  0  0  0  0  0  0  0
    1.3597   -0.1141    1.9617 H   0  0  0  0  0  0  0  0  0  0  0  0
    4.0566    0.9882    2.9631 H   0  0  0  0  0  0  0  0  0  0  0  0
    2.4526    1.4150    3.5932 H   0  0  0  0  0  0  0  0  0  0  0  0
    2.8906    1.8633    1.9384 H   0  0  0  0  0  0  0  0  0  0  0  0
    4.1670   -1.0509    1.2139 H   0  0  0  0  0  0  0  0  0  0  0  0
    2.8299   -2.9595    1.3908 H   0  0  0  0  0  0  0  0  0  0  0  0
    3.0336   -2.6246   -0.3190 H   0  0  0  0  0  0  0  0  0  0  0  0
    0.7442   -1.5688   -0.1413 H   0  0  0  0  0  0  0  0  0  0  0  0
    0.8779   -4.3109    0.8840 H   0  0  0  0  0  0  0  0  0  0  0  0
    0.9389   -3.9575   -0.8427 H   0  0  0  0  0  0  0  0  0  0  0  0
   -1.5446   -4.9231   -1.6421 H   0  0  0  0  0  0  0  0  0  0  0  0
   -5.0869   -2.5876    0.2421 H   0  0  0  0  0  0  0  0  0  0  0  0
   -4.1873   -1.7419    1.5376 H   0  0  0  0  0  0  0  0  0  0  0  0
   -5.0451   -4.6926    1.5661 H   0  0  0  0  0  0  0  0  0  0  0  0
   -5.8165   -3.3721    2.4817 H   0  0  0  0  0  0  0  0  0  0  0  0
   -3.1768   -4.3153    2.8592 H   0  0  0  0  0  0  0  0  0  0  0  0
   -1.6446   -2.1547    1.6915 H   0  0  0  0  0  0  0  0  0  0  0  0
    2.2907    0.8711   -0.0856 H   0  0  0  0  0  0  0  0  0  0  0  0
    5.2845    0.3150   -0.5191 H   0  0  0  0  0  0  0  0  0  0  0  0
    4.6576    1.4559    0.6859 H   0  0  0  0  0  0  0  0  0  0  0  0
    4.3944    1.7615   -1.0444 H   0  0  0  0  0  0  0  0  0  0  0  0
    3.7300   -1.1435   -1.9083 H   0  0  0  0  0  0  0  0  0  0  0  0
    2.9115    0.3500   -2.4020 H   0  0  0  0  0  0  0  0  0  0  0  0
    1.9672   -0.9951   -1.7421 H   0  0  0  0  0  0  0  0  0  0  0  0
  1  2  1  0
  1 19  1  0
  1 20  1  0
  1 21  1  0
  2  3  1  0
  2  4  1  0
  2 22  1  6
  3 23  1  0
  3 24  1  0
  3 25  1  0
  4  5  1  0
  4 16  1  0
  4 26  1  1
  5  6  1  0
  5 27  1  0
  5 28  1  0
  6  7  1  0
  6 29  1  0
  7  8  1  0
  7 30  1  0
  7 31  1  0
  8  9  1  0
  8 15  2  0
  9 10  2  0
  9 32  1  0
 10 11  1  0
 11 12  1  0
 11 15  1  0
 12 13  1  0
 12 33  1  0
 12 34  1  0
 13 14  1  0
 13 35  1  0
 13 36  1  0
 14 37  1  0
 15 38  1  0
 16 17  1  0
 16 18  1  0
 16 39  1  1
 17 40  1  0
 17 41  1  0
 17 42  1  0
 18 43  1  0
 18 44  1  0
 18 45  1  0
M  END

