
     RDKit          3D

 37 38  0  0  0  0  0  0  0  0999 V2000
    4.9712   -0.6275    3.0481 C   0  0  0  0  0  0  0  0  0  0  0  0
    4.6410   -0.3913    1.5855 C   0  0  0  0  0  0  0  0  0  0  0  0
    4.3762    0.9921    1.4216 O   0  0  0  0  0  0  0  0  0  0  0  0
    4.1045    1.2867    0.0500 N   0  0  0  0  0  0  0  0  0  0  0  0
    4.6216    2.6196   -0.2241 C   0  0  0  0  0  0  0  0  0  0  0  0
    6.1551    2.6286   -0.3833 C   0  0  1  0  0  0  0  0  0  0  0  0
    6.6148    1.8206   -1.5968 C   0  0  0  0  0  0  0  0  0  0  0  0
    6.3810    2.2737   -2.9054 C   0  0  0  0  0  0  0  0  0  0  0  0
    6.7886    1.5228   -4.0102 C   0  0  0  0  0  0  0  0  0  0  0  0
    7.4464    0.3017   -3.8282 C   0  0  0  0  0  0  0  0  0  0  0  0
    7.6918   -0.1582   -2.5324 C   0  0  0  0  0  0  0  0  0  0  0  0
    7.2781    0.5966   -1.4299 C   0  0  0  0  0  0  0  0  0  0  0  0
    6.7472    4.0360   -0.3816 C   0  0  0  0  0  0  0  0  0  0  0  0
    8.0599    4.2257    0.0837 C   0  0  0  0  0  0  0  0  0  0  0  0
    8.6551    5.4881    0.0800 C   0  0  0  0  0  0  0  0  0  0  0  0
    7.9451    6.5979   -0.3906 C   0  0  0  0  0  0  0  0  0  0  0  0
    6.6389    6.4281   -0.8530 C   0  0  0  0  0  0  0  0  0  0  0  0
    6.0463    5.1600   -0.8471 C   0  0  0  0  0  0  0  0  0  0  0  0
    5.1676   -1.6960    3.2279 H   0  0  0  0  0  0  0  0  0  0  0  0
    4.1352   -0.3147    3.6928 H   0  0  0  0  0  0  0  0  0  0  0  0
    5.8637   -0.0554    3.3464 H   0  0  0  0  0  0  0  0  0  0  0  0
    3.7551   -0.9868    1.2865 H   0  0  0  0  0  0  0  0  0  0  0  0
    5.4726   -0.6995    0.9256 H   0  0  0  0  0  0  0  0  0  0  0  0
    3.0827    1.3274   -0.0059 H   0  0  0  0  0  0  0  0  0  0  0  0
    4.3369    3.3349    0.5726 H   0  0  0  0  0  0  0  0  0  0  0  0
    4.1330    2.9460   -1.1572 H   0  0  0  0  0  0  0  0  0  0  0  0
    6.5455    2.1193    0.5113 H   0  0  0  0  0  0  0  0  0  0  0  0
    5.8840    3.2342   -3.0658 H   0  0  0  0  0  0  0  0  0  0  0  0
    6.5969    1.8961   -5.0199 H   0  0  0  0  0  0  0  0  0  0  0  0
    7.7683   -0.2851   -4.6924 H   0  0  0  0  0  0  0  0  0  0  0  0
    8.2072   -1.1097   -2.3762 H   0  0  0  0  0  0  0  0  0  0  0  0
    7.4737    0.2280   -0.4190 H   0  0  0  0  0  0  0  0  0  0  0  0
    8.6239    3.3643    0.4529 H   0  0  0  0  0  0  0  0  0  0  0  0
    9.6772    5.6075    0.4492 H   0  0  0  0  0  0  0  0  0  0  0  0
    8.4073    7.5884   -0.3933 H   0  0  0  0  0  0  0  0  0  0  0  0
    6.0713    7.2876   -1.2198 H   0  0  0  0  0  0  0  0  0  0  0  0
    5.0213    5.0586   -1.2104 H   0  0  0  0  0  0  0  0  0  0  0  0
  1  2  1  0
  1 19  1  0
  1 20  1  0
  1 21  1  0
  2  3  1  0
  2 22  1  0
  2 23  1  0
  3  4  1  0
  4  5  1  0
  4 24  1  0
  5  6  1  0
  5 25  1  0
  5 26  1  0
  6  7  1  0
  6 13  1  0
  6 27  1  1
  7  8  2  0
  7 12  1  0
  8  9  1  0
  8 28  1  0
  9 10  2  0
  9 29  1  0
 10 11  1  0
 10 30  1  0
 11 12  2  0
 11 31  1  0
 12 32  1  0
 13 14  2  0
 13 18  1  0
 14 15  1  0
 14 33  1  0
 15 16  2  0
 15 34  1  0
 16 17  1  0
 16 35  1  0
 17 18  2  0
 17 36  1  0
 18 37  1  0
M  END

