
     RDKit          3D

 50 52  0  0  0  0  0  0  0  0999 V2000
    0.4431   -0.3784   -0.1525 C   0  0  0  0  0  0  0  0  0  0  0  0
    1.9219   -0.1041   -0.0846 C   0  0  0  0  0  0  0  0  0  0  0  0
    2.5276    0.7461   -1.0629 C   0  0  0  0  0  0  0  0  0  0  0  0
    3.8687    1.0010   -0.9954 C   0  0  0  0  0  0  0  0  0  0  0  0
    4.6636    0.4625   -0.0218 N   0  0  0  0  0  0  0  0  0  0  0  0
    6.1071    0.7086    0.0444 C   0  0  1  0  0  0  0  0  0  0  0  0
    6.3719    0.4025    1.0702 H   0  0  0  0  0  0  0  0  0  0  0  0
    6.9296   -0.2545   -0.8545 C   0  0  0  0  0  0  0  0  0  0  0  0
    6.6609   -0.2516   -2.3734 C   0  0  1  0  0  0  0  0  0  0  0  0
    7.1663    0.9996   -3.1285 C   0  0  0  0  0  0  0  0  0  0  0  0
    8.6837    0.9798   -3.3372 C   0  0  0  0  0  0  0  0  0  0  0  0
    9.1130   -0.2007   -3.9832 O   0  0  0  0  0  0  0  0  0  0  0  0
    8.7848   -1.3672   -3.2524 C   0  0  0  0  0  0  0  0  0  0  0  0
    7.2740   -1.4981   -3.0542 C   0  0  0  0  0  0  0  0  0  0  0  0
    6.4715    2.1953   -0.0259 C   0  0  0  0  0  0  0  0  0  0  0  0
    5.6674    3.0633   -0.2842 O   0  0  0  0  0  0  0  0  0  0  0  0
    7.9273    2.5634    0.2987 C   0  0  0  0  0  0  0  0  0  0  0  0
    8.4594    1.9776    1.5749 C   0  0  0  0  0  0  0  0  0  0  0  0
    8.2477    2.4270    2.9032 C   0  0  0  0  0  0  0  0  0  0  0  0
    8.9268    1.5111    3.6886 C   0  0  0  0  0  0  0  0  0  0  0  0
    9.4841    0.6035    2.8436 N   0  0  0  0  0  0  0  0  0  0  0  0
   10.2688   -0.5660    3.1813 C   0  0  0  0  0  0  0  0  0  0  0  0
    9.2095    0.8732    1.5595 N   0  0  0  0  0  0  0  0  0  0  0  0
    4.1401   -0.4045    0.9843 C   0  0  0  0  0  0  0  0  0  0  0  0
    4.8890   -0.8850    1.8310 O   0  0  0  0  0  0  0  0  0  0  0  0
    2.7161   -0.6461    0.8950 C   0  0  0  0  0  0  0  0  0  0  0  0
   -0.1311    0.5599   -0.0700 H   0  0  0  0  0  0  0  0  0  0  0  0
    0.1157   -1.0549    0.6494 H   0  0  0  0  0  0  0  0  0  0  0  0
    0.1733   -0.8319   -1.1212 H   0  0  0  0  0  0  0  0  0  0  0  0
    1.9350    1.2022   -1.8572 H   0  0  0  0  0  0  0  0  0  0  0  0
    4.3607    1.6645   -1.7023 H   0  0  0  0  0  0  0  0  0  0  0  0
    6.7027   -1.2621   -0.4697 H   0  0  0  0  0  0  0  0  0  0  0  0
    7.9938   -0.0942   -0.6243 H   0  0  0  0  0  0  0  0  0  0  0  0
    5.5696   -0.3175   -2.5132 H   0  0  0  0  0  0  0  0  0  0  0  0
    6.8721    1.9343   -2.6231 H   0  0  0  0  0  0  0  0  0  0  0  0
    6.6897    1.0246   -4.1235 H   0  0  0  0  0  0  0  0  0  0  0  0
    9.2151    1.0913   -2.3677 H   0  0  0  0  0  0  0  0  0  0  0  0
    8.9970    1.8199   -3.9764 H   0  0  0  0  0  0  0  0  0  0  0  0
    9.3091   -1.3631   -2.2734 H   0  0  0  0  0  0  0  0  0  0  0  0
    9.1776   -2.2187   -3.8294 H   0  0  0  0  0  0  0  0  0  0  0  0
    7.0484   -2.4089   -2.4739 H   0  0  0  0  0  0  0  0  0  0  0  0
    6.8103   -1.6257   -4.0472 H   0  0  0  0  0  0  0  0  0  0  0  0
    7.9574    3.6617    0.3207 H   0  0  0  0  0  0  0  0  0  0  0  0
    8.5664    2.2257   -0.5322 H   0  0  0  0  0  0  0  0  0  0  0  0
    7.6841    3.2954    3.2358 H   0  0  0  0  0  0  0  0  0  0  0  0
    9.0531    1.4397    4.7671 H   0  0  0  0  0  0  0  0  0  0  0  0
   10.4618   -0.5702    4.2621 H   0  0  0  0  0  0  0  0  0  0  0  0
   11.2271   -0.5444    2.6417 H   0  0  0  0  0  0  0  0  0  0  0  0
    9.7280   -1.4851    2.9079 H   0  0  0  0  0  0  0  0  0  0  0  0
    2.3091   -1.3036    1.6656 H   0  0  0  0  0  0  0  0  0  0  0  0
  1  2  1  0
  1 27  1  0
  1 28  1  0
  1 29  1  0
  2  3  1  0
  2 26  2  0
  3  4  2  0
  3 30  1  0
  4  5  1  0
  4 31  1  0
  5  6  1  0
  5 24  1  0
  6  7  1  1
  6  8  1  0
  6 15  1  0
  8  9  1  0
  8 32  1  0
  8 33  1  0
  9 10  1  0
  9 14  1  0
  9 34  1  1
 10 11  1  0
 10 35  1  0
 10 36  1  0
 11 12  1  0
 11 37  1  0
 11 38  1  0
 12 13  1  0
 13 14  1  0
 13 39  1  0
 13 40  1  0
 14 41  1  0
 14 42  1  0
 15 16  2  0
 15 17  1  0
 17 18  1  0
 17 43  1  0
 17 44  1  0
 18 19  1  0
 18 23  2  0
 19 20  2  0
 19 45  1  0
 20 21  1  0
 20 46  1  0
 21 22  1  0
 21 23  1  0
 22 47  1  0
 22 48  1  0
 22 49  1  0
 24 25  2  0
 24 26  1  0
 26 50  1  0
M  END

