
     RDKit          3D

 66 68  0  0  0  0  0  0  0  0999 V2000
    4.8985   -0.7730    2.2459 N   0  0  0  0  0  0  0  0  0  0  0  0
    4.6956   -0.2455    0.9148 C   0  0  1  0  0  0  0  0  0  0  0  0
    5.5503    1.0136    0.5282 C   0  0  0  0  0  0  0  0  0  0  0  0
    5.3711    2.1696    1.4812 C   0  0  0  0  0  0  0  0  0  0  0  0
    6.1789    2.2948    2.6230 C   0  0  0  0  0  0  0  0  0  0  0  0
    5.9925    3.3392    3.5332 C   0  0  0  0  0  0  0  0  0  0  0  0
    4.9851    4.2892    3.3190 C   0  0  0  0  0  0  0  0  0  0  0  0
    4.7591    5.3275    4.1666 O   0  0  0  0  0  0  0  0  0  0  0  0
    4.1705    4.1809    2.1820 C   0  0  0  0  0  0  0  0  0  0  0  0
    4.3666    3.1338    1.2838 C   0  0  0  0  0  0  0  0  0  0  0  0
    5.0260   -1.3494   -0.0892 C   0  0  0  0  0  0  0  0  0  0  0  0
    5.8783   -2.2066    0.1342 O   0  0  0  0  0  0  0  0  0  0  0  0
    4.3859   -1.2953   -1.2847 N   0  0  0  0  0  0  0  0  0  0  0  0
    4.7480   -2.1834   -2.3773 C   0  0  1  0  0  0  0  0  0  0  0  0
    3.9365   -1.8159   -3.6501 C   0  0  0  0  0  0  0  0  0  0  0  0
    3.7628   -0.3524   -3.9243 C   0  0  0  0  0  0  0  0  0  0  0  0
    2.6248    0.4065   -4.1424 C   0  0  0  0  0  0  0  0  0  0  0  0
    2.9526    1.7150   -4.3844 N   0  0  0  0  0  0  0  0  0  0  0  0
    4.2664    1.7611   -4.3100 C   0  0  0  0  0  0  0  0  0  0  0  0
    4.8066    0.5398   -4.0411 N   0  0  0  0  0  0  0  0  0  0  0  0
    5.7743    0.2735   -3.8312 H   0  0  0  0  0  0  0  0  0  0  0  0
    6.2713   -2.1290   -2.6440 C   0  0  0  0  0  0  0  0  0  0  0  0
    6.8071   -1.1015   -3.0654 O   0  0  0  0  0  0  0  0  0  0  0  0
    6.9980   -3.2548   -2.4375 N   0  0  0  0  0  0  0  0  0  0  0  0
    6.5298   -4.5434   -1.8893 C   0  0  0  0  0  0  0  0  0  0  0  0
    7.8185   -5.3678   -1.7624 C   0  0  0  0  0  0  0  0  0  0  0  0
    8.7199   -4.7964   -2.8643 C   0  0  0  0  0  0  0  0  0  0  0  0
    8.4130   -3.2869   -2.8073 C   0  0  2  0  0  0  0  0  0  0  0  0
    9.3992   -2.5687   -1.8698 C   0  0  0  0  0  0  0  0  0  0  0  0
   10.5724   -2.5089   -2.2423 O   0  0  0  0  0  0  0  0  0  0  0  0
    8.9873   -2.0744   -0.6800 N   0  0  0  0  0  0  0  0  0  0  0  0
    9.9663   -1.4723    0.2132 C   0  0  1  0  0  0  0  0  0  0  0  0
   10.7221   -0.2325   -0.3933 C   0  0  0  0  0  0  0  0  0  0  0  0
   11.9551   -0.5763   -0.9388 O   0  0  0  0  0  0  0  0  0  0  0  0
    9.3265   -1.0858    1.5398 C   0  0  0  0  0  0  0  0  0  0  0  0
    8.1490   -0.9082    1.7076 O   0  0  0  0  0  0  0  0  0  0  0  0
   10.1980   -0.8838    2.5454 O   0  0  0  0  0  0  0  0  0  0  0  0
    4.8124   -0.0281    2.9354 H   0  0  0  0  0  0  0  0  0  0  0  0
    5.8460   -1.1490    2.3130 H   0  0  0  0  0  0  0  0  0  0  0  0
    3.6307    0.0287    0.7985 H   0  0  0  0  0  0  0  0  0  0  0  0
    5.2805    1.3240   -0.4951 H   0  0  0  0  0  0  0  0  0  0  0  0
    6.6044    0.6999    0.5089 H   0  0  0  0  0  0  0  0  0  0  0  0
    6.9756    1.5668    2.7982 H   0  0  0  0  0  0  0  0  0  0  0  0
    6.6389    3.4201    4.4135 H   0  0  0  0  0  0  0  0  0  0  0  0
    5.3871    5.2862    4.8996 H   0  0  0  0  0  0  0  0  0  0  0  0
    3.3935    4.9306    2.0191 H   0  0  0  0  0  0  0  0  0  0  0  0
    3.7254    3.0694    0.3992 H   0  0  0  0  0  0  0  0  0  0  0  0
    3.7340   -0.5427   -1.4868 H   0  0  0  0  0  0  0  0  0  0  0  0
    4.4759   -3.2117   -2.1003 H   0  0  0  0  0  0  0  0  0  0  0  0
    2.9293   -2.2479   -3.5477 H   0  0  0  0  0  0  0  0  0  0  0  0
    4.4039   -2.3305   -4.5080 H   0  0  0  0  0  0  0  0  0  0  0  0
    1.5903    0.0609   -4.1488 H   0  0  0  0  0  0  0  0  0  0  0  0
    4.8805    2.6532   -4.4379 H   0  0  0  0  0  0  0  0  0  0  0  0
    5.8233   -5.0255   -2.5877 H   0  0  0  0  0  0  0  0  0  0  0  0
    6.0266   -4.3837   -0.9263 H   0  0  0  0  0  0  0  0  0  0  0  0
    7.6328   -6.4469   -1.8637 H   0  0  0  0  0  0  0  0  0  0  0  0
    8.2753   -5.2014   -0.7735 H   0  0  0  0  0  0  0  0  0  0  0  0
    8.4232   -5.1892   -3.8503 H   0  0  0  0  0  0  0  0  0  0  0  0
    9.7902   -5.0000   -2.7287 H   0  0  0  0  0  0  0  0  0  0  0  0
    8.5589   -2.7923   -3.7782 H   0  0  0  0  0  0  0  0  0  0  0  0
    8.0039   -2.0945   -0.3909 H   0  0  0  0  0  0  0  0  0  0  0  0
   10.7647   -2.2098    0.4194 H   0  0  0  0  0  0  0  0  0  0  0  0
   10.9150    0.5048    0.4044 H   0  0  0  0  0  0  0  0  0  0  0  0
   10.0293    0.2469   -1.1140 H   0  0  0  0  0  0  0  0  0  0  0  0
   11.7598   -1.2765   -1.5941 H   0  0  0  0  0  0  0  0  0  0  0  0
   11.1056   -1.0822    2.2687 H   0  0  0  0  0  0  0  0  0  0  0  0
  1  2  1  0
  1 38  1  0
  1 39  1  0
  2  3  1  0
  2 11  1  0
  2 40  1  1
  3  4  1  0
  3 41  1  0
  3 42  1  0
  4  5  2  0
  4 10  1  0
  5  6  1  0
  5 43  1  0
  6  7  2  0
  6 44  1  0
  7  8  1  0
  7  9  1  0
  8 45  1  0
  9 10  2  0
  9 46  1  0
 10 47  1  0
 11 12  2  0
 11 13  1  0
 13 14  1  0
 13 48  1  0
 14 15  1  0
 14 22  1  0
 14 49  1  1
 15 16  1  0
 15 50  1  0
 15 51  1  0
 16 17  2  0
 16 20  1  0
 17 18  1  0
 17 52  1  0
 18 19  2  0
 19 20  1  0
 19 53  1  0
 20 21  1  0
 22 23  2  0
 22 24  1  0
 24 25  1  0
 24 28  1  0
 25 26  1  0
 25 54  1  0
 25 55  1  0
 26 27  1  0
 26 56  1  0
 26 57  1  0
 27 28  1  0
 27 58  1  0
 27 59  1  0
 28 29  1  0
 28 60  1  6
 29 30  2  0
 29 31  1  0
 31 32  1  0
 31 61  1  0
 32 33  1  0
 32 35  1  0
 32 62  1  1
 33 34  1  0
 33 63  1  0
 33 64  1  0
 34 65  1  0
 35 36  2  0
 35 37  1  0
 37 66  1  0
M  END

