
     RDKit          3D

 28 29  0  0  0  0  0  0  0  0999 V2000
    1.9244    0.2235   -1.0963 C   0  0  0  0  0  0  0  0  0  0  0  0
    2.8153   -0.7522   -1.2904 C   0  0  0  0  0  0  0  0  0  0  0  0
    3.4515   -1.5668   -0.1989 C   0  0  0  0  0  0  0  0  0  0  0  0
    4.9026   -1.5391   -0.3070 N   0  0  0  0  0  0  0  0  0  0  0  0
    5.5884   -2.3718    0.6558 C   0  0  0  0  0  0  0  0  0  0  0  0
    7.0639   -2.1405    0.6005 C   0  0  0  0  0  0  0  0  0  0  0  0
    7.6928   -1.0299    0.3702 N   0  0  0  0  0  0  0  0  0  0  0  0
    9.0159   -1.4006    0.4952 C   0  0  0  0  0  0  0  0  0  0  0  0
   10.1259   -0.4446    0.3086 C   0  0  0  0  0  0  0  0  0  0  0  0
    9.8424    0.8897   -0.0240 C   0  0  0  0  0  0  0  0  0  0  0  0
   10.9027    1.7778   -0.1969 C   0  0  0  0  0  0  0  0  0  0  0  0
   12.2008    1.2938   -0.0297 C   0  0  0  0  0  0  0  0  0  0  0  0
   13.5776    2.3402   -0.2282 Cl  0  0  0  0  0  0  0  0  0  0  0  0
   12.3886   -0.0574    0.3033 C   0  0  0  0  0  0  0  0  0  0  0  0
   11.3763   -0.8985    0.4668 N   0  0  0  0  0  0  0  0  0  0  0  0
    9.1882   -2.6681    0.7921 N   0  0  0  0  0  0  0  0  0  0  0  0
    7.8906   -3.1596    0.8594 O   0  0  0  0  0  0  0  0  0  0  0  0
    1.4862    0.7733   -1.9339 H   0  0  0  0  0  0  0  0  0  0  0  0
    1.5924    0.5060   -0.0913 H   0  0  0  0  0  0  0  0  0  0  0  0
    3.1390   -1.0068   -2.3069 H   0  0  0  0  0  0  0  0  0  0  0  0
    3.1300   -2.6211   -0.3051 H   0  0  0  0  0  0  0  0  0  0  0  0
    3.0736   -1.2299    0.7933 H   0  0  0  0  0  0  0  0  0  0  0  0
    5.2531   -0.5832   -0.2513 H   0  0  0  0  0  0  0  0  0  0  0  0
    5.3951   -3.4388    0.4526 H   0  0  0  0  0  0  0  0  0  0  0  0
    5.2670   -2.2019    1.7124 H   0  0  0  0  0  0  0  0  0  0  0  0
    8.8070    1.2103   -0.1424 H   0  0  0  0  0  0  0  0  0  0  0  0
   10.7315    2.8242   -0.4563 H   0  0  0  0  0  0  0  0  0  0  0  0
   13.4028   -0.4493    0.4373 H   0  0  0  0  0  0  0  0  0  0  0  0
  1  2  2  0
  1 18  1  0
  1 19  1  0
  2  3  1  0
  2 20  1  0
  3  4  1  0
  3 21  1  0
  3 22  1  0
  4  5  1  0
  4 23  1  0
  5  6  1  0
  5 24  1  0
  5 25  1  0
  6  7  2  0
  6 17  1  0
  7  8  1  0
  8  9  1  0
  8 16  2  0
  9 10  2  0
  9 15  1  0
 10 11  1  0
 10 26  1  0
 11 12  2  0
 11 27  1  0
 12 13  1  0
 12 14  1  0
 14 15  2  0
 14 28  1  0
 16 17  1  0
M  END

