
     RDKit          3D

 53 56  0  0  0  0  0  0  0  0999 V2000
   -0.5469   -4.9357   -2.3694 C   0  0  0  0  0  0  0  0  0  0  0  0
    0.8976   -4.5787   -2.3387 C   0  0  0  0  0  0  0  0  0  0  0  0
    1.8680   -4.4901   -3.2980 C   0  0  0  0  0  0  0  0  0  0  0  0
    3.0739   -4.0935   -2.6241 C   0  0  0  0  0  0  0  0  0  0  0  0
    2.7572   -3.9603   -1.3003 C   0  0  0  0  0  0  0  0  0  0  0  0
    3.5446   -3.6035   -0.0685 C   0  0  1  0  0  0  0  0  0  0  0  0
    2.9565   -2.3893    0.6590 C   0  0  0  0  0  0  0  0  0  0  0  0
    3.6697   -4.7155    0.8871 N   0  0  0  0  0  0  0  0  0  0  0  0
    4.4192   -5.8745    0.4491 C   0  0  0  0  0  0  0  0  0  0  0  0
    5.9335   -5.6378    0.4984 C   0  0  0  0  0  0  0  0  0  0  0  0
    6.4164   -4.5162    0.5253 O   0  0  0  0  0  0  0  0  0  0  0  0
    6.7353   -6.7621    0.4815 N   0  0  0  0  0  0  0  0  0  0  0  0
    8.1957   -6.5554    0.4920 C   0  0  0  0  0  0  0  0  0  0  0  0
    8.8134   -6.3723   -0.8699 C   0  0  0  0  0  0  0  0  0  0  0  0
    8.8710   -5.2204   -1.6214 C   0  0  0  0  0  0  0  0  0  0  0  0
    9.5106   -5.4045   -2.8842 C   0  0  0  0  0  0  0  0  0  0  0  0
    9.9337   -6.6955   -3.0821 C   0  0  0  0  0  0  0  0  0  0  0  0
    9.5521   -7.6999   -1.7273 S   0  0  0  0  0  0  0  0  0  0  0  0
    6.2369   -8.1011    0.3834 C   0  0  0  0  0  0  0  0  0  0  0  0
    6.1094   -8.8914    1.5375 C   0  0  0  0  0  0  0  0  0  0  0  0
    5.6432  -10.2019    1.4427 C   0  0  0  0  0  0  0  0  0  0  0  0
    5.3038  -10.7457    0.1997 C   0  0  0  0  0  0  0  0  0  0  0  0
    5.4532   -9.9637   -0.9648 C   0  0  0  0  0  0  0  0  0  0  0  0
    5.9170   -8.6491   -0.8648 C   0  0  0  0  0  0  0  0  0  0  0  0
    5.1581  -10.4624   -2.2011 O   0  0  0  0  0  0  0  0  0  0  0  0
    5.0400  -11.8763   -2.2536 C   0  0  0  0  0  0  0  0  0  0  0  0
    4.2136  -12.3783   -1.0819 C   0  0  0  0  0  0  0  0  0  0  0  0
    4.8359  -12.0267    0.1455 O   0  0  0  0  0  0  0  0  0  0  0  0
    1.4320   -4.2590   -1.1239 O   0  0  0  0  0  0  0  0  0  0  0  0
   -0.8576   -5.1608   -3.3991 H   0  0  0  0  0  0  0  0  0  0  0  0
   -1.1750   -4.1108   -1.9919 H   0  0  0  0  0  0  0  0  0  0  0  0
   -0.7597   -5.8198   -1.7441 H   0  0  0  0  0  0  0  0  0  0  0  0
    1.7378   -4.6855   -4.3608 H   0  0  0  0  0  0  0  0  0  0  0  0
    4.0536   -3.9218   -3.0659 H   0  0  0  0  0  0  0  0  0  0  0  0
    4.5629   -3.3558   -0.3978 H   0  0  0  0  0  0  0  0  0  0  0  0
    1.9307   -2.5991    1.0045 H   0  0  0  0  0  0  0  0  0  0  0  0
    2.9131   -1.5133   -0.0062 H   0  0  0  0  0  0  0  0  0  0  0  0
    3.5772   -2.1489    1.5341 H   0  0  0  0  0  0  0  0  0  0  0  0
    2.7391   -5.0078    1.1799 H   0  0  0  0  0  0  0  0  0  0  0  0
    4.1786   -6.2065   -0.5863 H   0  0  0  0  0  0  0  0  0  0  0  0
    4.1663   -6.7253    1.0987 H   0  0  0  0  0  0  0  0  0  0  0  0
    8.6483   -7.4128    1.0099 H   0  0  0  0  0  0  0  0  0  0  0  0
    8.3855   -5.6508    1.0853 H   0  0  0  0  0  0  0  0  0  0  0  0
    8.4532   -4.2783   -1.2643 H   0  0  0  0  0  0  0  0  0  0  0  0
    9.6569   -4.6080   -3.6160 H   0  0  0  0  0  0  0  0  0  0  0  0
   10.4538   -7.1109   -3.9443 H   0  0  0  0  0  0  0  0  0  0  0  0
    6.3652   -8.4659    2.5101 H   0  0  0  0  0  0  0  0  0  0  0  0
    5.5217  -10.8284    2.3287 H   0  0  0  0  0  0  0  0  0  0  0  0
    6.0339   -8.0658   -1.7791 H   0  0  0  0  0  0  0  0  0  0  0  0
    6.0440  -12.3404   -2.2313 H   0  0  0  0  0  0  0  0  0  0  0  0
    4.5606  -12.1225   -3.2122 H   0  0  0  0  0  0  0  0  0  0  0  0
    4.1288  -13.4747   -1.0954 H   0  0  0  0  0  0  0  0  0  0  0  0
    3.1968  -11.9449   -1.1270 H   0  0  0  0  0  0  0  0  0  0  0  0
  1  2  1  0
  1 30  1  0
  1 31  1  0
  1 32  1  0
  2  3  2  0
  2 29  1  0
  3  4  1  0
  3 33  1  0
  4  5  2  0
  4 34  1  0
  5  6  1  0
  5 29  1  0
  6  7  1  0
  6  8  1  0
  6 35  1  6
  7 36  1  0
  7 37  1  0
  7 38  1  0
  8  9  1  0
  8 39  1  0
  9 10  1  0
  9 40  1  0
  9 41  1  0
 10 11  2  0
 10 12  1  0
 12 13  1  0
 12 19  1  0
 13 14  1  0
 13 42  1  0
 13 43  1  0
 14 15  2  0
 14 18  1  0
 15 16  1  0
 15 44  1  0
 16 17  2  0
 16 45  1  0
 17 18  1  0
 17 46  1  0
 19 20  2  0
 19 24  1  0
 20 21  1  0
 20 47  1  0
 21 22  2  0
 21 48  1  0
 22 23  1  0
 22 28  1  0
 23 24  2  0
 23 25  1  0
 24 49  1  0
 25 26  1  0
 26 27  1  0
 26 50  1  0
 26 51  1  0
 27 28  1  0
 27 52  1  0
 27 53  1  0
M  END

