
     RDKit          3D

 31 32  0  0  0  0  0  0  0  0999 V2000
    1.2096   -0.5365   -0.0266 O   0  0  0  0  0  0  0  0  0  0  0  0
    2.6267   -0.1843   -0.0215 S   0  0  1  0  0  0  0  0  0  0  0  0
    3.1574    1.0015    0.6512 O   0  0  0  0  0  0  0  0  0  0  0  0
    3.4009   -1.4967    0.6727 N   0  0  0  0  0  0  0  0  0  0  0  0
    4.8330   -1.4774    0.9694 C   0  0  0  0  0  0  0  0  0  0  0  0
    5.1473   -2.3916    2.1141 C   0  0  0  0  0  0  0  0  0  0  0  0
    6.1588   -3.3206    2.3093 C   0  0  0  0  0  0  0  0  0  0  0  0
    5.9296   -3.8258    3.6141 C   0  0  0  0  0  0  0  0  0  0  0  0
    4.8627   -3.2666    4.1767 N   0  0  0  0  0  0  0  0  0  0  0  0
    4.4107   -2.4022    3.2596 N   0  0  0  0  0  0  0  0  0  0  0  0
    3.5704   -1.8627    3.4368 H   0  0  0  0  0  0  0  0  0  0  0  0
    3.1613   -0.1002   -1.7386 C   0  0  0  0  0  0  0  0  0  0  0  0
    4.2430    0.7072   -2.0914 C   0  0  0  0  0  0  0  0  0  0  0  0
    4.6656    0.7456   -3.4221 C   0  0  0  0  0  0  0  0  0  0  0  0
    3.9939   -0.0019   -4.3987 C   0  0  0  0  0  0  0  0  0  0  0  0
    4.3499   -0.0175   -5.7160 O   0  0  0  0  0  0  0  0  0  0  0  0
    5.0085    1.0582   -6.2642 C   0  0  1  0  0  0  0  0  0  0  0  0
    6.3211    1.0344   -5.9285 F   0  0  0  0  0  0  0  0  0  0  0  0
    4.9205    0.9306   -7.5871 F   0  0  0  0  0  0  0  0  0  0  0  0
    2.8946   -0.8064   -4.0271 C   0  0  0  0  0  0  0  0  0  0  0  0
    2.0518   -1.7240   -5.2362 Cl  0  0  0  0  0  0  0  0  0  0  0  0
    2.4771   -0.8528   -2.6991 C   0  0  0  0  0  0  0  0  0  0  0  0
    3.0006   -2.3862    0.3787 H   0  0  0  0  0  0  0  0  0  0  0  0
    5.0835   -0.4360    1.2291 H   0  0  0  0  0  0  0  0  0  0  0  0
    5.4563   -1.7613    0.1022 H   0  0  0  0  0  0  0  0  0  0  0  0
    6.9479   -3.5884    1.6102 H   0  0  0  0  0  0  0  0  0  0  0  0
    6.4991   -4.5791    4.1581 H   0  0  0  0  0  0  0  0  0  0  0  0
    4.7451    1.3087   -1.3323 H   0  0  0  0  0  0  0  0  0  0  0  0
    5.5350    1.3428   -3.6975 H   0  0  0  0  0  0  0  0  0  0  0  0
    4.5798    2.0237   -5.9388 H   0  0  0  0  0  0  0  0  0  0  0  0
    1.6078   -1.4502   -2.4217 H   0  0  0  0  0  0  0  0  0  0  0  0
  1  2  2  0
  2  3  2  0
  2  4  1  1
  2 12  1  0
  4  5  1  0
  4 23  1  0
  5  6  1  0
  5 24  1  0
  5 25  1  0
  6  7  2  0
  6 10  1  0
  7  8  1  0
  7 26  1  0
  8  9  2  0
  8 27  1  0
  9 10  1  0
 10 11  1  0
 12 13  2  0
 12 22  1  0
 13 14  1  0
 13 28  1  0
 14 15  2  0
 14 29  1  0
 15 16  1  0
 15 20  1  0
 16 17  1  0
 17 18  1  0
 17 19  1  0
 17 30  1  1
 20 21  1  0
 20 22  2  0
 22 31  1  0
M  END

