
     RDKit          3D

 49 51  0  0  0  0  0  0  0  0999 V2000
    6.9197    8.3079    4.8286 C   0  0  0  0  0  0  0  0  0  0  0  0
    5.4098    8.0833    5.0163 C   0  0  1  0  0  0  0  0  0  0  0  0
    4.5973    8.7875    3.9165 C   0  0  0  0  0  0  0  0  0  0  0  0
    5.0917    6.6014    5.0493 C   0  0  0  0  0  0  0  0  0  0  0  0
    4.5355    5.9886    6.1418 C   0  0  0  0  0  0  0  0  0  0  0  0
    4.2453    4.5702    6.1519 C   0  0  0  0  0  0  0  0  0  0  0  0
    3.7473    3.9262    7.0618 O   0  0  0  0  0  0  0  0  0  0  0  0
    4.6086    3.9229    4.9307 N   0  0  0  0  0  0  0  0  0  0  0  0
    4.3611    2.4812    4.8259 C   0  0  0  0  0  0  0  0  0  0  0  0
    5.3915    1.6160    5.5830 C   0  0  1  0  0  0  0  0  0  0  0  0
    4.9592    0.1330    5.5871 C   0  0  0  0  0  0  0  0  0  0  0  0
    5.2492   -0.5672    4.2475 C   0  0  0  0  0  0  0  0  0  0  0  0
    6.6423   -0.4608    3.8162 N   0  0  0  0  0  0  0  0  0  0  0  0
    7.6262   -1.3196    4.4793 C   0  0  1  0  0  0  0  0  0  0  0  0
    7.1546   -2.7751    4.6326 C   0  0  0  0  0  0  0  0  0  0  0  0
    8.9111   -1.3153    3.6905 C   0  0  0  0  0  0  0  0  0  0  0  0
   10.1173   -1.0924    4.1278 N   0  0  0  0  0  0  0  0  0  0  0  0
   10.8726   -1.2834    2.9993 C   0  0  0  0  0  0  0  0  0  0  0  0
   10.1933   -1.6007    1.9305 N   0  0  0  0  0  0  0  0  0  0  0  0
    8.8807   -1.6255    2.3875 O   0  0  0  0  0  0  0  0  0  0  0  0
    7.0349    0.9480    3.7272 C   0  0  0  0  0  0  0  0  0  0  0  0
    6.8290    1.7351    5.0346 C   0  0  0  0  0  0  0  0  0  0  0  0
    5.1431    4.6292    3.8973 C   0  0  0  0  0  0  0  0  0  0  0  0
    5.3937    5.9002    3.9030 N   0  0  0  0  0  0  0  0  0  0  0  0
    7.1504    9.3850    4.8079 H   0  0  0  0  0  0  0  0  0  0  0  0
    7.2592    7.8623    3.8809 H   0  0  0  0  0  0  0  0  0  0  0  0
    7.4988    7.8512    5.6469 H   0  0  0  0  0  0  0  0  0  0  0  0
    5.1131    8.5021    5.9924 H   0  0  0  0  0  0  0  0  0  0  0  0
    4.8372    8.3618    2.9301 H   0  0  0  0  0  0  0  0  0  0  0  0
    4.8281    9.8646    3.8956 H   0  0  0  0  0  0  0  0  0  0  0  0
    3.5142    8.6744    4.0823 H   0  0  0  0  0  0  0  0  0  0  0  0
    4.2854    6.5408    7.0489 H   0  0  0  0  0  0  0  0  0  0  0  0
    4.3207    2.2325    3.7553 H   0  0  0  0  0  0  0  0  0  0  0  0
    3.3675    2.2975    5.2584 H   0  0  0  0  0  0  0  0  0  0  0  0
    5.3733    1.9796    6.6217 H   0  0  0  0  0  0  0  0  0  0  0  0
    3.8872    0.0457    5.8345 H   0  0  0  0  0  0  0  0  0  0  0  0
    5.5016   -0.3888    6.3946 H   0  0  0  0  0  0  0  0  0  0  0  0
    4.6304   -0.1184    3.4495 H   0  0  0  0  0  0  0  0  0  0  0  0
    4.9464   -1.6218    4.2909 H   0  0  0  0  0  0  0  0  0  0  0  0
    7.9267   -0.9558    5.4841 H   0  0  0  0  0  0  0  0  0  0  0  0
    6.8119   -3.1727    3.6654 H   0  0  0  0  0  0  0  0  0  0  0  0
    6.3400   -2.8609    5.3653 H   0  0  0  0  0  0  0  0  0  0  0  0
    7.9868   -3.3973    4.9932 H   0  0  0  0  0  0  0  0  0  0  0  0
   11.9576   -1.1805    2.9699 H   0  0  0  0  0  0  0  0  0  0  0  0
    6.4450    1.4044    2.9114 H   0  0  0  0  0  0  0  0  0  0  0  0
    8.0867    1.0188    3.4099 H   0  0  0  0  0  0  0  0  0  0  0  0
    7.1074    2.7916    4.8825 H   0  0  0  0  0  0  0  0  0  0  0  0
    7.5272    1.3558    5.8000 H   0  0  0  0  0  0  0  0  0  0  0  0
    5.3644    4.0441    2.9953 H   0  0  0  0  0  0  0  0  0  0  0  0
  1  2  1  0
  1 25  1  0
  1 26  1  0
  1 27  1  0
  2  3  1  0
  2  4  1  0
  2 28  1  1
  3 29  1  0
  3 30  1  0
  3 31  1  0
  4  5  2  0
  4 24  1  0
  5  6  1  0
  5 32  1  0
  6  7  2  0
  6  8  1  0
  8  9  1  0
  8 23  1  0
  9 10  1  0
  9 33  1  0
  9 34  1  0
 10 11  1  0
 10 22  1  0
 10 35  1  1
 11 12  1  0
 11 36  1  0
 11 37  1  0
 12 13  1  0
 12 38  1  0
 12 39  1  0
 13 14  1  0
 13 21  1  0
 14 15  1  0
 14 16  1  0
 14 40  1  1
 15 41  1  0
 15 42  1  0
 15 43  1  0
 16 17  2  0
 16 20  1  0
 17 18  1  0
 18 19  2  0
 18 44  1  0
 19 20  1  0
 21 22  1  0
 21 45  1  0
 21 46  1  0
 22 47  1  0
 22 48  1  0
 23 24  2  0
 23 49  1  0
M  END

