
     RDKit          3D

 33 33  0  0  0  0  0  0  0  0999 V2000
    1.7353   -0.3517    1.1004 C   0  0  0  0  0  0  0  0  0  0  0  0
    2.6862    0.0143    0.0649 N   0  0  0  0  0  0  0  0  0  0  0  0
    3.2167    1.3608    0.0851 C   0  0  0  0  0  0  0  0  0  0  0  0
    2.9576   -0.8287   -0.9874 C   0  0  0  0  0  0  0  0  0  0  0  0
    3.7817   -0.4177   -2.0721 C   0  0  0  0  0  0  0  0  0  0  0  0
    4.0401   -1.3202   -3.1046 C   0  0  0  0  0  0  0  0  0  0  0  0
    4.8963   -0.9700   -4.2936 C   0  0  0  0  0  0  0  0  0  0  0  0
    4.7893   -1.5876   -5.3539 O   0  0  0  0  0  0  0  0  0  0  0  0
    5.7807    0.0427   -4.1175 N   0  0  0  0  0  0  0  0  0  0  0  0
    6.7425    0.4854   -5.1067 C   0  0  1  0  0  0  0  0  0  0  0  0
    7.4447   -0.3354   -5.3590 H   0  0  0  0  0  0  0  0  0  0  0  0
    6.1146    0.9154   -6.4678 C   0  0  0  0  0  0  0  0  0  0  0  0
    5.9437   -0.1510   -7.3419 O   0  0  0  0  0  0  0  0  0  0  0  0
    7.5658    1.5977   -4.4445 C   0  0  0  0  0  0  0  0  0  0  0  0
    7.3369    2.0164   -3.3398 O   0  0  0  0  0  0  0  0  0  0  0  0
    8.5853    2.0830   -5.1686 O   0  0  0  0  0  0  0  0  0  0  0  0
    3.4647   -2.5980   -3.0621 C   0  0  0  0  0  0  0  0  0  0  0  0
    2.6664   -2.9029   -1.9603 C   0  0  0  0  0  0  0  0  0  0  0  0
    2.4186   -2.0607   -0.9605 N   0  0  0  0  0  0  0  0  0  0  0  0
    0.8148    0.2591    1.0397 H   0  0  0  0  0  0  0  0  0  0  0  0
    2.1770   -0.2068    2.1014 H   0  0  0  0  0  0  0  0  0  0  0  0
    1.4660   -1.4057    0.9764 H   0  0  0  0  0  0  0  0  0  0  0  0
    2.9806    1.8240    1.0524 H   0  0  0  0  0  0  0  0  0  0  0  0
    2.7886    2.0032   -0.7090 H   0  0  0  0  0  0  0  0  0  0  0  0
    4.3145    1.3717   -0.0273 H   0  0  0  0  0  0  0  0  0  0  0  0
    4.1706    0.5983   -2.1148 H   0  0  0  0  0  0  0  0  0  0  0  0
    5.8914    0.4783   -3.2051 H   0  0  0  0  0  0  0  0  0  0  0  0
    6.7858    1.6386   -6.9646 H   0  0  0  0  0  0  0  0  0  0  0  0
    5.1778    1.4664   -6.2400 H   0  0  0  0  0  0  0  0  0  0  0  0
    5.4420   -0.8347   -6.8486 H   0  0  0  0  0  0  0  0  0  0  0  0
    8.6566    1.6309   -6.0228 H   0  0  0  0  0  0  0  0  0  0  0  0
    3.6380   -3.3091   -3.8694 H   0  0  0  0  0  0  0  0  0  0  0  0
    2.1957   -3.8907   -1.8830 H   0  0  0  0  0  0  0  0  0  0  0  0
  1  2  1  0
  1 20  1  0
  1 21  1  0
  1 22  1  0
  2  3  1  0
  2  4  1  0
  3 23  1  0
  3 24  1  0
  3 25  1  0
  4  5  2  0
  4 19  1  0
  5  6  1  0
  5 26  1  0
  6  7  1  0
  6 17  2  0
  7  8  2  0
  7  9  1  0
  9 10  1  0
  9 27  1  0
 10 11  1  6
 10 12  1  0
 10 14  1  0
 12 13  1  0
 12 28  1  0
 12 29  1  0
 13 30  1  0
 14 15  2  0
 14 16  1  0
 16 31  1  0
 17 18  1  0
 17 32  1  0
 18 19  2  0
 18 33  1  0
M  END

