
     RDKit          3D

 41 44  0  0  0  0  0  0  0  0999 V2000
    0.9380    0.2431    0.0705 O   0  0  0  0  0  0  0  0  0  0  0  0
    2.0913    0.1267   -0.2939 C   0  0  0  0  0  0  0  0  0  0  0  0
    2.6424    0.9806   -1.2178 N   0  0  0  0  0  0  0  0  0  0  0  0
    3.9301    0.9097   -1.7698 C   0  0  0  0  0  0  0  0  0  0  0  0
    4.4445    1.9760   -2.5125 C   0  0  0  0  0  0  0  0  0  0  0  0
    5.7261    1.8817   -3.0637 C   0  0  0  0  0  0  0  0  0  0  0  0
    6.2507    3.0078   -3.9190 C   0  0  1  0  0  0  0  0  0  0  0  0
    5.7577    4.2001   -3.5362 F   0  0  0  0  0  0  0  0  0  0  0  0
    7.5909    3.0896   -3.8746 F   0  0  0  0  0  0  0  0  0  0  0  0
    5.9108    2.8448   -5.2135 F   0  0  0  0  0  0  0  0  0  0  0  0
    6.4980    0.7345   -2.8589 C   0  0  0  0  0  0  0  0  0  0  0  0
    5.9720   -0.3216   -2.1108 C   0  0  0  0  0  0  0  0  0  0  0  0
    4.6891   -0.2564   -1.5658 C   0  0  0  0  0  0  0  0  0  0  0  0
    4.0553   -1.3996   -0.8157 C   0  0  0  0  0  0  0  0  0  0  0  0
    3.0380   -0.9670    0.2626 C   0  0  2  0  0  0  0  0  0  0  0  0
    2.2040   -2.1801    0.7291 C   0  0  0  0  0  0  0  0  0  0  0  0
    1.4172   -1.9443    1.9928 C   0  0  0  0  0  0  0  0  0  0  0  0
    0.2214   -2.6043    2.2783 C   0  0  0  0  0  0  0  0  0  0  0  0
   -0.4409   -2.4146    3.4938 C   0  0  0  0  0  0  0  0  0  0  0  0
    0.1018   -1.5430    4.4422 C   0  0  0  0  0  0  0  0  0  0  0  0
   -0.6246   -1.2810    5.7379 C   0  0  1  0  0  0  0  0  0  0  0  0
   -1.3575   -2.3394    6.1241 F   0  0  0  0  0  0  0  0  0  0  0  0
    0.2283   -0.9918    6.7389 F   0  0  0  0  0  0  0  0  0  0  0  0
   -1.4687   -0.2368    5.6329 F   0  0  0  0  0  0  0  0  0  0  0  0
    1.2945   -0.8642    4.1739 C   0  0  0  0  0  0  0  0  0  0  0  0
    1.9471   -1.0660    2.9547 C   0  0  0  0  0  0  0  0  0  0  0  0
    3.1535   -0.4075    2.6738 N   0  0  0  0  0  0  0  0  0  0  0  0
    3.7925   -0.3357    1.4604 C   0  0  0  0  0  0  0  0  0  0  0  0
    4.8725    0.2084    1.3419 O   0  0  0  0  0  0  0  0  0  0  0  0
    2.0269    1.7356   -1.5076 H   0  0  0  0  0  0  0  0  0  0  0  0
    3.8529    2.8830   -2.6528 H   0  0  0  0  0  0  0  0  0  0  0  0
    7.5048    0.6704   -3.2738 H   0  0  0  0  0  0  0  0  0  0  0  0
    6.5757   -1.2175   -1.9442 H   0  0  0  0  0  0  0  0  0  0  0  0
    4.8320   -2.0283   -0.3561 H   0  0  0  0  0  0  0  0  0  0  0  0
    3.5180   -2.0405   -1.5402 H   0  0  0  0  0  0  0  0  0  0  0  0
    2.9057   -3.0178    0.9028 H   0  0  0  0  0  0  0  0  0  0  0  0
    1.5318   -2.4968   -0.0819 H   0  0  0  0  0  0  0  0  0  0  0  0
   -0.2010   -3.2851    1.5347 H   0  0  0  0  0  0  0  0  0  0  0  0
   -1.3707   -2.9442    3.7053 H   0  0  0  0  0  0  0  0  0  0  0  0
    1.7161   -0.1826    4.9155 H   0  0  0  0  0  0  0  0  0  0  0  0
    3.6297    0.0827    3.4261 H   0  0  0  0  0  0  0  0  0  0  0  0
  1  2  2  0
  2  3  1  0
 15  2  1  6
  3  4  1  0
  3 30  1  0
  4  5  1  0
  4 13  2  0
  5  6  2  0
  5 31  1  0
  6  7  1  0
  6 11  1  0
  7  8  1  1
  7  9  1  0
  7 10  1  0
 11 12  2  0
 11 32  1  0
 12 13  1  0
 12 33  1  0
 13 14  1  0
 14 15  1  0
 14 34  1  0
 14 35  1  0
 15 16  1  0
 15 28  1  0
 16 17  1  0
 16 36  1  0
 16 37  1  0
 17 18  2  0
 17 26  1  0
 18 19  1  0
 18 38  1  0
 19 20  2  0
 19 39  1  0
 20 21  1  0
 20 25  1  0
 21 22  1  1
 21 23  1  0
 21 24  1  0
 25 26  2  0
 25 40  1  0
 26 27  1  0
 27 28  1  0
 27 41  1  0
 28 29  2  0
M  END

