
     RDKit          3D

 43 45  0  0  0  0  0  0  0  0999 V2000
    2.1797    0.3165   -1.7336 O   0  0  0  0  0  0  0  0  0  0  0  0
    1.1165   -0.2281   -1.9951 C   0  0  0  0  0  0  0  0  0  0  0  0
    0.8723   -1.5418   -1.7160 N   0  0  0  0  0  0  0  0  0  0  0  0
    1.8743   -2.3929   -1.0976 C   0  0  2  0  0  0  0  0  0  0  0  0
    2.5036   -1.7454   -0.4657 H   0  0  0  0  0  0  0  0  0  0  0  0
    2.8144   -3.0073   -2.1570 C   0  0  0  0  0  0  0  0  0  0  0  0
    3.8246   -3.8488   -1.5239 N   0  0  0  0  0  0  0  0  0  0  0  0
    5.1300   -3.7192   -1.9541 C   0  0  0  0  0  0  0  0  0  0  0  0
    5.4332   -2.9955   -2.8933 O   0  0  0  0  0  0  0  0  0  0  0  0
    6.2363   -4.4375   -1.2638 C   0  0  0  0  0  0  0  0  0  0  0  0
    7.5315   -4.5604   -1.7021 C   0  0  0  0  0  0  0  0  0  0  0  0
    8.2460   -5.2528   -0.6777 C   0  0  0  0  0  0  0  0  0  0  0  0
    7.3384   -5.4939    0.3163 C   0  0  0  0  0  0  0  0  0  0  0  0
    6.1215   -5.0066   -0.0247 O   0  0  0  0  0  0  0  0  0  0  0  0
    3.2725   -4.9291   -0.7127 C   0  0  0  0  0  0  0  0  0  0  0  0
    2.3466   -4.3701    0.3742 C   0  0  0  0  0  0  0  0  0  0  0  0
    1.2301   -3.4717   -0.1940 C   0  0  2  0  0  0  0  0  0  0  0  0
    0.7459   -2.9516    0.6542 H   0  0  0  0  0  0  0  0  0  0  0  0
    0.1300   -4.3057   -0.8781 C   0  0  0  0  0  0  0  0  0  0  0  0
   -1.0298   -3.5523   -1.2218 O   0  0  0  0  0  0  0  0  0  0  0  0
   -0.0163    0.5304   -2.6398 C   0  0  0  0  0  0  0  0  0  0  0  0
   -1.1228   -0.0648   -3.2611 C   0  0  0  0  0  0  0  0  0  0  0  0
   -2.0973    0.7541   -3.8327 C   0  0  0  0  0  0  0  0  0  0  0  0
   -1.9287    2.1404   -3.7621 C   0  0  0  0  0  0  0  0  0  0  0  0
   -0.8765    2.7234   -3.1807 N   0  0  0  0  0  0  0  0  0  0  0  0
    0.0538    1.9347   -2.6427 C   0  0  0  0  0  0  0  0  0  0  0  0
   -0.0533   -1.9429   -1.8391 H   0  0  0  0  0  0  0  0  0  0  0  0
    3.3269   -2.2085   -2.7048 H   0  0  0  0  0  0  0  0  0  0  0  0
    2.2304   -3.5929   -2.8942 H   0  0  0  0  0  0  0  0  0  0  0  0
    7.9055   -4.1784   -2.6481 H   0  0  0  0  0  0  0  0  0  0  0  0
    9.2978   -5.5308   -0.6743 H   0  0  0  0  0  0  0  0  0  0  0  0
    7.4046   -5.9779    1.2876 H   0  0  0  0  0  0  0  0  0  0  0  0
    4.0767   -5.5077   -0.2530 H   0  0  0  0  0  0  0  0  0  0  0  0
    2.7109   -5.6212   -1.3720 H   0  0  0  0  0  0  0  0  0  0  0  0
    2.9585   -3.7819    1.0773 H   0  0  0  0  0  0  0  0  0  0  0  0
    1.9101   -5.2050    0.9484 H   0  0  0  0  0  0  0  0  0  0  0  0
   -0.1432   -5.1533   -0.2210 H   0  0  0  0  0  0  0  0  0  0  0  0
    0.4855   -4.7423   -1.8237 H   0  0  0  0  0  0  0  0  0  0  0  0
   -1.4614   -3.2665   -0.4044 H   0  0  0  0  0  0  0  0  0  0  0  0
   -1.2251   -1.1518   -3.3201 H   0  0  0  0  0  0  0  0  0  0  0  0
   -2.9703    0.3270   -4.3316 H   0  0  0  0  0  0  0  0  0  0  0  0
   -2.6785    2.8094   -4.2015 H   0  0  0  0  0  0  0  0  0  0  0  0
    0.9212    2.4141   -2.1779 H   0  0  0  0  0  0  0  0  0  0  0  0
  1  2  2  0
  2  3  1  0
  2 21  1  0
  3  4  1  0
  3 27  1  0
  4  5  1  1
  4  6  1  0
  4 17  1  0
  6  7  1  0
  6 28  1  0
  6 29  1  0
  7  8  1  0
  7 15  1  0
  8  9  2  0
  8 10  1  0
 10 11  2  0
 10 14  1  0
 11 12  1  0
 11 30  1  0
 12 13  2  0
 12 31  1  0
 13 14  1  0
 13 32  1  0
 15 16  1  0
 15 33  1  0
 15 34  1  0
 16 17  1  0
 16 35  1  0
 16 36  1  0
 17 18  1  1
 17 19  1  0
 19 20  1  0
 19 37  1  0
 19 38  1  0
 20 39  1  0
 21 22  2  0
 21 26  1  0
 22 23  1  0
 22 40  1  0
 23 24  2  0
 23 41  1  0
 24 25  1  0
 24 42  1  0
 25 26  2  0
 26 43  1  0
M  END

