
     RDKit          3D

 58 61  0  0  0  0  0  0  0  0999 V2000
    1.1691    0.7603   -0.0501 C   0  0  0  0  0  0  0  0  0  0  0  0
    2.6509    0.6200   -0.2968 C   0  0  0  0  0  0  0  0  0  0  0  0
    3.1864    0.7871   -1.5848 C   0  0  0  0  0  0  0  0  0  0  0  0
    4.5510    0.6271   -1.8285 C   0  0  0  0  0  0  0  0  0  0  0  0
    5.4122    0.3016   -0.7739 C   0  0  0  0  0  0  0  0  0  0  0  0
    6.8158    0.1551   -1.0150 N   0  0  0  0  0  0  0  0  0  0  0  0
    7.7053    1.1871   -1.2321 C   0  0  0  0  0  0  0  0  0  0  0  0
    7.1810    2.8652   -1.3401 S   0  0  0  0  0  0  0  0  0  0  0  0
    8.8340    3.6944   -1.5453 C   0  0  1  0  0  0  0  0  0  0  0  0
    9.4360    3.5035   -2.9385 C   0  0  0  0  0  0  0  0  0  0  0  0
    8.6638    5.1745   -1.1643 C   0  0  0  0  0  0  0  0  0  0  0  0
    9.3727    5.6934   -0.3259 O   0  0  0  0  0  0  0  0  0  0  0  0
    7.6990    5.8485   -1.8781 N   0  0  0  0  0  0  0  0  0  0  0  0
    7.3145    7.2087   -1.6790 C   0  0  0  0  0  0  0  0  0  0  0  0
    8.2426    8.2533   -1.8805 C   0  0  0  0  0  0  0  0  0  0  0  0
    9.6596    7.9855   -2.3144 C   0  0  0  0  0  0  0  0  0  0  0  0
    7.8025    9.5705   -1.6792 C   0  0  0  0  0  0  0  0  0  0  0  0
    6.4864    9.8490   -1.3137 C   0  0  0  0  0  0  0  0  0  0  0  0
    5.5777    8.8040   -1.1415 C   0  0  0  0  0  0  0  0  0  0  0  0
    5.9747    7.4725   -1.3153 C   0  0  0  0  0  0  0  0  0  0  0  0
    4.9927    6.3443   -1.1107 C   0  0  0  0  0  0  0  0  0  0  0  0
    8.9326    0.7332   -1.3011 N   0  0  0  0  0  0  0  0  0  0  0  0
    8.8801   -0.6185   -1.1254 N   0  0  0  0  0  0  0  0  0  0  0  0
    7.6268   -0.9766   -0.9528 C   0  0  0  0  0  0  0  0  0  0  0  0
    7.2011   -2.3688   -0.7337 C   0  0  0  0  0  0  0  0  0  0  0  0
    8.1604   -3.2734   -0.2355 C   0  0  0  0  0  0  0  0  0  0  0  0
    7.8340   -4.6132   -0.0353 C   0  0  0  0  0  0  0  0  0  0  0  0
    6.5466   -5.0781   -0.3279 C   0  0  0  0  0  0  0  0  0  0  0  0
    5.5920   -4.1911   -0.8312 C   0  0  0  0  0  0  0  0  0  0  0  0
    5.9130   -2.8467   -1.0363 C   0  0  0  0  0  0  0  0  0  0  0  0
    4.9017    0.1446    0.5191 C   0  0  0  0  0  0  0  0  0  0  0  0
    3.5336    0.2983    0.7470 C   0  0  0  0  0  0  0  0  0  0  0  0
    0.7282    1.5506   -0.6769 H   0  0  0  0  0  0  0  0  0  0  0  0
    0.9544    0.9972    1.0025 H   0  0  0  0  0  0  0  0  0  0  0  0
    0.6390   -0.1780   -0.2903 H   0  0  0  0  0  0  0  0  0  0  0  0
    2.5232    1.0453   -2.4151 H   0  0  0  0  0  0  0  0  0  0  0  0
    4.9549    0.7543   -2.8350 H   0  0  0  0  0  0  0  0  0  0  0  0
    9.4921    3.2581   -0.7845 H   0  0  0  0  0  0  0  0  0  0  0  0
    8.7690    3.8777   -3.7302 H   0  0  0  0  0  0  0  0  0  0  0  0
    9.6444    2.4393   -3.1120 H   0  0  0  0  0  0  0  0  0  0  0  0
   10.3891    4.0543   -2.9989 H   0  0  0  0  0  0  0  0  0  0  0  0
    7.0876    5.2856   -2.4624 H   0  0  0  0  0  0  0  0  0  0  0  0
    9.6950    7.2361   -3.1215 H   0  0  0  0  0  0  0  0  0  0  0  0
   10.2514    7.5795   -1.4792 H   0  0  0  0  0  0  0  0  0  0  0  0
   10.1399    8.9058   -2.6764 H   0  0  0  0  0  0  0  0  0  0  0  0
    8.5106   10.3903   -1.8274 H   0  0  0  0  0  0  0  0  0  0  0  0
    6.1658   10.8836   -1.1676 H   0  0  0  0  0  0  0  0  0  0  0  0
    4.5443    9.0188   -0.8563 H   0  0  0  0  0  0  0  0  0  0  0  0
    4.0357    6.7233   -0.7247 H   0  0  0  0  0  0  0  0  0  0  0  0
    5.3764    5.5939   -0.4007 H   0  0  0  0  0  0  0  0  0  0  0  0
    4.7728    5.8072   -2.0511 H   0  0  0  0  0  0  0  0  0  0  0  0
    9.1622   -2.9011   -0.0160 H   0  0  0  0  0  0  0  0  0  0  0  0
    8.5894   -5.3005    0.3540 H   0  0  0  0  0  0  0  0  0  0  0  0
    6.2908   -6.1285   -0.1678 H   0  0  0  0  0  0  0  0  0  0  0  0
    4.5875   -4.5469   -1.0744 H   0  0  0  0  0  0  0  0  0  0  0  0
    5.1579   -2.1777   -1.4487 H   0  0  0  0  0  0  0  0  0  0  0  0
    5.5788   -0.0968    1.3407 H   0  0  0  0  0  0  0  0  0  0  0  0
    3.1456    0.1727    1.7614 H   0  0  0  0  0  0  0  0  0  0  0  0
  1  2  1  0
  1 33  1  0
  1 34  1  0
  1 35  1  0
  2  3  2  0
  2 32  1  0
  3  4  1  0
  3 36  1  0
  4  5  2  0
  4 37  1  0
  5  6  1  0
  5 31  1  0
  6  7  1  0
  6 24  1  0
  7  8  1  0
  7 22  2  0
  8  9  1  0
  9 10  1  0
  9 11  1  0
  9 38  1  1
 10 39  1  0
 10 40  1  0
 10 41  1  0
 11 12  2  0
 11 13  1  0
 13 14  1  0
 13 42  1  0
 14 15  2  0
 14 20  1  0
 15 16  1  0
 15 17  1  0
 16 43  1  0
 16 44  1  0
 16 45  1  0
 17 18  2  0
 17 46  1  0
 18 19  1  0
 18 47  1  0
 19 20  2  0
 19 48  1  0
 20 21  1  0
 21 49  1  0
 21 50  1  0
 21 51  1  0
 22 23  1  0
 23 24  2  0
 24 25  1  0
 25 26  2  0
 25 30  1  0
 26 27  1  0
 26 52  1  0
 27 28  2  0
 27 53  1  0
 28 29  1  0
 28 54  1  0
 29 30  2  0
 29 55  1  0
 30 56  1  0
 31 32  2  0
 31 57  1  0
 32 58  1  0
M  END

