
     RDKit          3D

 42 45  0  0  0  0  0  0  0  0999 V2000
    1.3367   -0.8813    0.2061 C   0  0  0  0  0  0  0  0  0  0  0  0
    2.3314   -0.8102   -0.8520 N   0  0  0  0  0  0  0  0  0  0  0  0
    1.8949   -1.3990   -2.1224 C   0  0  0  0  0  0  0  0  0  0  0  0
    1.2035   -0.4105   -3.0590 C   0  0  0  0  0  0  0  0  0  0  0  0
    2.0289    0.7224   -3.2497 O   0  0  0  0  0  0  0  0  0  0  0  0
    2.2456    1.3861   -2.0204 C   0  0  0  0  0  0  0  0  0  0  0  0
    2.9840    0.5132   -0.9789 C   0  0  2  0  0  0  0  0  0  0  0  0
    4.5323    0.5279   -1.1607 C   0  0  1  0  0  0  0  0  0  0  0  0
    5.3357    0.3987    0.1639 C   0  0  1  0  0  0  0  0  0  0  0  0
    5.4088   -1.0616    0.6543 C   0  0  0  0  0  0  0  0  0  0  0  0
    6.1128   -1.9288   -0.4081 C   0  0  2  0  0  0  0  0  0  0  0  0
    7.5348   -1.3970   -0.6674 C   0  0  0  0  0  0  0  0  0  0  0  0
    7.4520    0.0579   -1.1684 C   0  0  2  0  0  0  0  0  0  0  0  0
    6.7682    0.9174   -0.0865 C   0  0  0  0  0  0  0  0  0  0  0  0
    6.6252    0.1066   -2.4708 C   0  0  0  0  0  0  0  0  0  0  0  0
    5.1907   -0.4100   -2.2109 C   0  0  1  0  0  0  0  0  0  0  0  0
    5.2932   -1.8697   -1.7102 C   0  0  0  0  0  0  0  0  0  0  0  0
    0.9807   -1.9190    0.3116 H   0  0  0  0  0  0  0  0  0  0  0  0
    0.4406   -0.2383    0.0565 H   0  0  0  0  0  0  0  0  0  0  0  0
    1.7905   -0.5926    1.1676 H   0  0  0  0  0  0  0  0  0  0  0  0
    1.2318   -2.2521   -1.9055 H   0  0  0  0  0  0  0  0  0  0  0  0
    2.7675   -1.8062   -2.6583 H   0  0  0  0  0  0  0  0  0  0  0  0
    0.2180   -0.0951   -2.6544 H   0  0  0  0  0  0  0  0  0  0  0  0
    1.0334   -0.8640   -4.0483 H   0  0  0  0  0  0  0  0  0  0  0  0
    1.2667    1.6996   -1.5991 H   0  0  0  0  0  0  0  0  0  0  0  0
    2.8179    2.2990   -2.2444 H   0  0  0  0  0  0  0  0  0  0  0  0
    2.8201    1.0242   -0.0152 H   0  0  0  0  0  0  0  0  0  0  0  0
    4.7257    1.5569   -1.5141 H   0  0  0  0  0  0  0  0  0  0  0  0
    4.8559    1.0252    0.9372 H   0  0  0  0  0  0  0  0  0  0  0  0
    4.3972   -1.4536    0.8436 H   0  0  0  0  0  0  0  0  0  0  0  0
    5.9624   -1.1040    1.6091 H   0  0  0  0  0  0  0  0  0  0  0  0
    6.1668   -2.9734   -0.0552 H   0  0  0  0  0  0  0  0  0  0  0  0
    8.0448   -2.0295   -1.4152 H   0  0  0  0  0  0  0  0  0  0  0  0
    8.1378   -1.4463    0.2565 H   0  0  0  0  0  0  0  0  0  0  0  0
    8.4678    0.4443   -1.3615 H   0  0  0  0  0  0  0  0  0  0  0  0
    6.7384    1.9755   -0.4003 H   0  0  0  0  0  0  0  0  0  0  0  0
    7.3531    0.8793    0.8494 H   0  0  0  0  0  0  0  0  0  0  0  0
    7.1107   -0.5119   -3.2459 H   0  0  0  0  0  0  0  0  0  0  0  0
    6.5929    1.1381   -2.8625 H   0  0  0  0  0  0  0  0  0  0  0  0
    4.6137   -0.3673   -3.1484 H   0  0  0  0  0  0  0  0  0  0  0  0
    5.7746   -2.4873   -2.4893 H   0  0  0  0  0  0  0  0  0  0  0  0
    4.2987   -2.2942   -1.5239 H   0  0  0  0  0  0  0  0  0  0  0  0
  1  2  1  0
  1 18  1  0
  1 19  1  0
  1 20  1  0
  2  3  1  0
  2  7  1  0
  3  4  1  0
  3 21  1  0
  3 22  1  0
  4  5  1  0
  4 23  1  0
  4 24  1  0
  5  6  1  0
  6  7  1  0
  6 25  1  0
  6 26  1  0
  7  8  1  0
  7 27  1  1
  8  9  1  0
  8 16  1  0
  8 28  1  6
  9 10  1  0
  9 14  1  0
  9 29  1  1
 10 11  1  0
 10 30  1  0
 10 31  1  0
 11 12  1  0
 11 17  1  0
 11 32  1  1
 12 13  1  0
 12 33  1  0
 12 34  1  0
 13 14  1  0
 13 15  1  0
 13 35  1  6
 14 36  1  0
 14 37  1  0
 15 16  1  0
 15 38  1  0
 15 39  1  0
 16 17  1  0
 16 40  1  6
 17 41  1  0
 17 42  1  0
M  END

