
     RDKit          3D

103112  0  0  0  0  0  0  0  0999 V2000
    0.8326   -0.1729    0.4510 C   0  0  0  0  0  0  0  0  0  0  0  0
    2.3136   -0.1111    0.1663 C   0  0  0  0  0  0  0  0  0  0  0  0
    2.8667   -0.7015   -0.9789 C   0  0  0  0  0  0  0  0  0  0  0  0
    4.2402   -0.6467   -1.2322 C   0  0  0  0  0  0  0  0  0  0  0  0
    5.1141    0.0075   -0.3485 C   0  0  0  0  0  0  0  0  0  0  0  0
    6.5853    0.0682   -0.6172 C   0  0  0  0  0  0  0  0  0  0  0  0
    7.1832    1.3322   -0.8445 C   0  0  0  0  0  0  0  0  0  0  0  0
    8.5172    1.5695   -0.9912 N   0  0  0  0  0  0  0  0  0  0  0  0
    8.6463    2.9211   -1.1049 C   0  0  0  0  0  0  0  0  0  0  0  0
    9.8622    3.6391   -1.2080 C   0  0  0  0  0  0  0  0  0  0  0  0
    9.8075    5.1344   -1.1436 C   0  0  0  0  0  0  0  0  0  0  0  0
   10.1974    5.9253   -2.2369 C   0  0  0  0  0  0  0  0  0  0  0  0
   10.1439    7.3203   -2.1726 C   0  0  0  0  0  0  0  0  0  0  0  0
    9.7046    7.9795   -1.0154 C   0  0  0  0  0  0  0  0  0  0  0  0
    9.6313    9.4854   -0.9439 C   0  0  0  0  0  0  0  0  0  0  0  0
    9.3197    7.1874    0.0795 C   0  0  0  0  0  0  0  0  0  0  0  0
    9.3664    5.7947    0.0180 C   0  0  0  0  0  0  0  0  0  0  0  0
   11.1393    3.0608   -1.3510 C   0  0  0  0  0  0  0  0  0  0  0  0
   12.3965    3.7508   -1.3046 C   0  0  0  0  0  0  0  0  0  0  0  0
   13.3961    2.8297   -1.4950 C   0  0  0  0  0  0  0  0  0  0  0  0
   12.7878    1.5408   -1.6831 C   0  0  0  0  0  0  0  0  0  0  0  0
   11.4321    1.7327   -1.5622 N   0  0  0  0  0  0  0  0  0  0  0  0
   10.7505    0.9773   -1.5708 H   0  0  0  0  0  0  0  0  0  0  0  0
   13.4495    0.3242   -1.9772 C   0  0  0  0  0  0  0  0  0  0  0  0
   14.9410    0.4236   -2.0920 C   0  0  0  0  0  0  0  0  0  0  0  0
   15.7688   -0.2341   -1.1631 C   0  0  0  0  0  0  0  0  0  0  0  0
   17.1529   -0.0826   -1.1968 C   0  0  0  0  0  0  0  0  0  0  0  0
   17.7769    0.7266   -2.1635 C   0  0  0  0  0  0  0  0  0  0  0  0
   19.2773    0.8887   -2.1837 C   0  0  0  0  0  0  0  0  0  0  0  0
   16.9544    1.3761   -3.0938 C   0  0  0  0  0  0  0  0  0  0  0  0
   15.5632    1.2308   -3.0575 C   0  0  0  0  0  0  0  0  0  0  0  0
   12.7968   -0.9340   -2.0430 C   0  0  0  0  0  0  0  0  0  0  0  0
   11.5335   -1.1611   -1.5799 N   0  0  0  0  0  0  0  0  0  0  0  0
   11.3649   -2.5125   -1.5680 C   0  0  0  0  0  0  0  0  0  0  0  0
   10.2173   -3.2219   -1.1334 C   0  0  0  0  0  0  0  0  0  0  0  0
   10.3259   -4.7126   -1.0158 C   0  0  0  0  0  0  0  0  0  0  0  0
   11.1499   -5.2978   -0.0407 C   0  0  0  0  0  0  0  0  0  0  0  0
   11.2584   -6.6864    0.0714 C   0  0  0  0  0  0  0  0  0  0  0  0
   10.5535   -7.5439   -0.7862 C   0  0  0  0  0  0  0  0  0  0  0  0
   10.6528   -9.0446   -0.6577 C   0  0  0  0  0  0  0  0  0  0  0  0
    9.7350   -6.9572   -1.7656 C   0  0  0  0  0  0  0  0  0  0  0  0
    9.6204   -5.5709   -1.8781 C   0  0  0  0  0  0  0  0  0  0  0  0
    8.9660   -2.6541   -0.8262 C   0  0  0  0  0  0  0  0  0  0  0  0
    7.7886   -3.3580   -0.3943 C   0  0  0  0  0  0  0  0  0  0  0  0
    6.7687   -2.4480   -0.2698 C   0  0  0  0  0  0  0  0  0  0  0  0
    7.2866   -1.1521   -0.6081 C   0  0  0  0  0  0  0  0  0  0  0  0
    8.6143   -1.3294   -0.9197 N   0  0  0  0  0  0  0  0  0  0  0  0
    9.2491   -0.5628   -1.1344 H   0  0  0  0  0  0  0  0  0  0  0  0
   12.5267   -3.1909   -2.1139 C   0  0  0  0  0  0  0  0  0  0  0  0
   13.4126   -2.2173   -2.4829 C   0  0  0  0  0  0  0  0  0  0  0  0
   14.6224   -2.3962   -3.1582 N   0  0  0  0  0  0  0  0  0  0  0  0
   14.7049   -1.8177   -4.5047 C   0  0  0  0  0  0  0  0  0  0  0  0
   16.1357   -1.8905   -5.0273 C   0  0  0  0  0  0  0  0  0  0  0  0
   16.6302   -3.2159   -4.9999 O   0  0  0  0  0  0  0  0  0  0  0  0
   16.5907   -3.7475   -3.6929 C   0  0  0  0  0  0  0  0  0  0  0  0
   15.1712   -3.7479   -3.1313 C   0  0  0  0  0  0  0  0  0  0  0  0
    7.3364    3.5702   -1.0803 C   0  0  0  0  0  0  0  0  0  0  0  0
    6.4230    2.5777   -0.9210 C   0  0  0  0  0  0  0  0  0  0  0  0
    4.5598    0.6017    0.8004 C   0  0  0  0  0  0  0  0  0  0  0  0
    3.1892    0.5412    1.0509 C   0  0  0  0  0  0  0  0  0  0  0  0
    0.2824   -0.6596   -0.3678 H   0  0  0  0  0  0  0  0  0  0  0  0
    0.4079    0.8351    0.5910 H   0  0  0  0  0  0  0  0  0  0  0  0
    0.6262   -0.7381    1.3759 H   0  0  0  0  0  0  0  0  0  0  0  0
    2.2112   -1.2106   -1.6914 H   0  0  0  0  0  0  0  0  0  0  0  0
    4.6416   -1.1079   -2.1379 H   0  0  0  0  0  0  0  0  0  0  0  0
   10.5375    5.4393   -3.1546 H   0  0  0  0  0  0  0  0  0  0  0  0
   10.4476    7.9081   -3.0438 H   0  0  0  0  0  0  0  0  0  0  0  0
   10.1151    9.9565   -1.8122 H   0  0  0  0  0  0  0  0  0  0  0  0
   10.1194    9.8694   -0.0332 H   0  0  0  0  0  0  0  0  0  0  0  0
    8.5841    9.8332   -0.9170 H   0  0  0  0  0  0  0  0  0  0  0  0
    8.9803    7.6709    1.0006 H   0  0  0  0  0  0  0  0  0  0  0  0
    9.0670    5.2030    0.8863 H   0  0  0  0  0  0  0  0  0  0  0  0
   12.5103    4.8161   -1.1254 H   0  0  0  0  0  0  0  0  0  0  0  0
   14.4648    3.0186   -1.4952 H   0  0  0  0  0  0  0  0  0  0  0  0
   15.3103   -0.8617   -0.3954 H   0  0  0  0  0  0  0  0  0  0  0  0
   17.7659   -0.5981   -0.4512 H   0  0  0  0  0  0  0  0  0  0  0  0
   19.7857   -0.0852   -2.2796 H   0  0  0  0  0  0  0  0  0  0  0  0
   19.6422    1.3493   -1.2500 H   0  0  0  0  0  0  0  0  0  0  0  0
   19.6054    1.5228   -3.0205 H   0  0  0  0  0  0  0  0  0  0  0  0
   17.4065    2.0112   -3.8612 H   0  0  0  0  0  0  0  0  0  0  0  0
   14.9499    1.7558   -3.7942 H   0  0  0  0  0  0  0  0  0  0  0  0
   11.7099   -4.6533    0.6411 H   0  0  0  0  0  0  0  0  0  0  0  0
   11.9049   -7.1119    0.8446 H   0  0  0  0  0  0  0  0  0  0  0  0
   11.4859   -9.3412   -0.0033 H   0  0  0  0  0  0  0  0  0  0  0  0
   10.8029   -9.5244   -1.6384 H   0  0  0  0  0  0  0  0  0  0  0  0
    9.7282   -9.4704   -0.2304 H   0  0  0  0  0  0  0  0  0  0  0  0
    9.1804   -7.5978   -2.4580 H   0  0  0  0  0  0  0  0  0  0  0  0
    8.9838   -5.1417   -2.6558 H   0  0  0  0  0  0  0  0  0  0  0  0
    7.7434   -4.4263   -0.2035 H   0  0  0  0  0  0  0  0  0  0  0  0
    5.7464   -2.6426    0.0421 H   0  0  0  0  0  0  0  0  0  0  0  0
   12.6153   -4.2605   -2.2740 H   0  0  0  0  0  0  0  0  0  0  0  0
   14.3668   -0.7738   -4.4830 H   0  0  0  0  0  0  0  0  0  0  0  0
   14.0357   -2.3729   -5.1972 H   0  0  0  0  0  0  0  0  0  0  0  0
   16.7824   -1.2250   -4.4235 H   0  0  0  0  0  0  0  0  0  0  0  0
   16.1723   -1.5555   -6.0754 H   0  0  0  0  0  0  0  0  0  0  0  0
   17.2510   -3.1643   -3.0187 H   0  0  0  0  0  0  0  0  0  0  0  0
   16.9752   -4.7776   -3.7505 H   0  0  0  0  0  0  0  0  0  0  0  0
   15.1790   -4.1113   -2.0918 H   0  0  0  0  0  0  0  0  0  0  0  0
   14.5497   -4.4504   -3.7287 H   0  0  0  0  0  0  0  0  0  0  0  0
    7.1496    4.6353   -1.1911 H   0  0  0  0  0  0  0  0  0  0  0  0
    5.3409    2.6695   -0.8737 H   0  0  0  0  0  0  0  0  0  0  0  0
    5.2187    1.1102    1.5083 H   0  0  0  0  0  0  0  0  0  0  0  0
    2.7899    1.0084    1.9564 H   0  0  0  0  0  0  0  0  0  0  0  0
  1  2  1  0
  1 61  1  0
  1 62  1  0
  1 63  1  0
  2  3  2  0
  2 60  1  0
  3  4  1  0
  3 64  1  0
  4  5  2  0
  4 65  1  0
  5  6  1  0
  5 59  1  0
  6  7  1  0
  6 46  2  0
  7  8  2  0
  7 58  1  0
  8  9  1  0
  9 10  2  0
  9 57  1  0
 10 11  1  0
 10 18  1  0
 11 12  2  0
 11 17  1  0
 12 13  1  0
 12 66  1  0
 13 14  2  0
 13 67  1  0
 14 15  1  0
 14 16  1  0
 15 68  1  0
 15 69  1  0
 15 70  1  0
 16 17  2  0
 16 71  1  0
 17 72  1  0
 18 19  2  0
 18 22  1  0
 19 20  1  0
 19 73  1  0
 20 21  2  0
 20 74  1  0
 21 22  1  0
 21 24  1  0
 22 23  1  0
 24 25  1  0
 24 32  2  0
 25 26  2  0
 25 31  1  0
 26 27  1  0
 26 75  1  0
 27 28  2  0
 27 76  1  0
 28 29  1  0
 28 30  1  0
 29 77  1  0
 29 78  1  0
 29 79  1  0
 30 31  2  0
 30 80  1  0
 31 81  1  0
 32 33  1  0
 32 50  1  0
 33 34  2  0
 34 35  1  0
 34 49  1  0
 35 36  1  0
 35 43  2  0
 36 37  2  0
 36 42  1  0
 37 38  1  0
 37 82  1  0
 38 39  2  0
 38 83  1  0
 39 40  1  0
 39 41  1  0
 40 84  1  0
 40 85  1  0
 40 86  1  0
 41 42  2  0
 41 87  1  0
 42 88  1  0
 43 44  1  0
 43 47  1  0
 44 45  2  0
 44 89  1  0
 45 46  1  0
 45 90  1  0
 46 47  1  0
 47 48  1  0
 49 50  2  0
 49 91  1  0
 50 51  1  0
 51 52  1  0
 51 56  1  0
 52 53  1  0
 52 92  1  0
 52 93  1  0
 53 54  1  0
 53 94  1  0
 53 95  1  0
 54 55  1  0
 55 56  1  0
 55 96  1  0
 55 97  1  0
 56 98  1  0
 56 99  1  0
 57 58  2  0
 57100  1  0
 58101  1  0
 59 60  2  0
 59102  1  0
 60103  1  0
M  END

