
     RDKit          3D

 47 48  0  0  0  0  0  0  0  0999 V2000
    3.4767    1.5765    1.0560 C   0  0  0  0  0  0  0  0  0  0  0  0
    3.6950    0.9779   -0.2020 O   0  0  0  0  0  0  0  0  0  0  0  0
    2.7683    0.1323   -0.7115 C   0  0  0  0  0  0  0  0  0  0  0  0
    1.5649   -0.2053   -0.0681 C   0  0  0  0  0  0  0  0  0  0  0  0
    0.6770   -1.0925   -0.6882 C   0  0  0  0  0  0  0  0  0  0  0  0
    0.9713   -1.6421   -1.9301 C   0  0  0  0  0  0  0  0  0  0  0  0
    2.1804   -1.3108   -2.5898 C   0  0  0  0  0  0  0  0  0  0  0  0
    2.4098   -1.9326   -3.8876 C   0  0  0  0  0  0  0  0  0  0  0  0
    3.4394   -1.8467   -4.7769 C   0  0  0  0  0  0  0  0  0  0  0  0
    4.6138   -1.0483   -4.6018 C   0  0  0  0  0  0  0  0  0  0  0  0
    5.5617   -0.3916   -4.4586 N   0  0  0  0  0  0  0  0  0  0  0  0
    3.3196   -2.6563   -6.0326 C   0  0  0  0  0  0  0  0  0  0  0  0
    2.3682   -3.3406   -6.3207 O   0  0  0  0  0  0  0  0  0  0  0  0
    4.3975   -2.4974   -6.8245 O   0  0  0  0  0  0  0  0  0  0  0  0
    4.4531   -3.3046   -7.9819 C   0  0  0  0  0  0  0  0  0  0  0  0
    4.8686   -4.7437   -7.6268 C   0  0  0  0  0  0  0  0  0  0  0  0
    5.0972   -5.0882   -6.4847 O   0  0  0  0  0  0  0  0  0  0  0  0
    4.9417   -5.5791   -8.7023 N   0  0  0  0  0  0  0  0  0  0  0  0
    5.3548   -6.9673   -8.5721 C   0  0  0  0  0  0  0  0  0  0  0  0
    6.8804   -7.1699   -8.6784 C   0  0  0  0  0  0  0  0  0  0  0  0
    7.2826   -8.6179   -8.5097 C   0  0  0  0  0  0  0  0  0  0  0  0
    7.4843   -9.4502   -9.6220 C   0  0  0  0  0  0  0  0  0  0  0  0
    7.8171  -10.7986   -9.4610 C   0  0  0  0  0  0  0  0  0  0  0  0
    7.9517  -11.3391   -8.1791 C   0  0  0  0  0  0  0  0  0  0  0  0
    7.7527  -10.5217   -7.0618 C   0  0  0  0  0  0  0  0  0  0  0  0
    7.4210   -9.1746   -7.2271 C   0  0  0  0  0  0  0  0  0  0  0  0
    3.0706   -0.4195   -1.9649 C   0  0  0  0  0  0  0  0  0  0  0  0
    4.3513    2.2097    1.2554 H   0  0  0  0  0  0  0  0  0  0  0  0
    3.3898    0.8239    1.8605 H   0  0  0  0  0  0  0  0  0  0  0  0
    2.5702    2.2086    1.0596 H   0  0  0  0  0  0  0  0  0  0  0  0
    1.3129    0.2129    0.9065 H   0  0  0  0  0  0  0  0  0  0  0  0
   -0.2571   -1.3524   -0.1842 H   0  0  0  0  0  0  0  0  0  0  0  0
    0.2728   -2.3342   -2.4055 H   0  0  0  0  0  0  0  0  0  0  0  0
    1.6124   -2.6016   -4.2269 H   0  0  0  0  0  0  0  0  0  0  0  0
    5.2072   -2.8447   -8.6381 H   0  0  0  0  0  0  0  0  0  0  0  0
    3.4786   -3.3185   -8.4962 H   0  0  0  0  0  0  0  0  0  0  0  0
    4.7812   -5.2046   -9.6303 H   0  0  0  0  0  0  0  0  0  0  0  0
    4.8384   -7.5626   -9.3420 H   0  0  0  0  0  0  0  0  0  0  0  0
    5.0079   -7.3217   -7.5909 H   0  0  0  0  0  0  0  0  0  0  0  0
    7.3589   -6.5513   -7.9024 H   0  0  0  0  0  0  0  0  0  0  0  0
    7.2278   -6.7927   -9.6551 H   0  0  0  0  0  0  0  0  0  0  0  0
    7.3875   -9.0344  -10.6297 H   0  0  0  0  0  0  0  0  0  0  0  0
    7.9757  -11.4281  -10.3407 H   0  0  0  0  0  0  0  0  0  0  0  0
    8.2145  -12.3922   -8.0507 H   0  0  0  0  0  0  0  0  0  0  0  0
    7.8605  -10.9345   -6.0552 H   0  0  0  0  0  0  0  0  0  0  0  0
    7.2722   -8.5405   -6.3479 H   0  0  0  0  0  0  0  0  0  0  0  0
    4.0141   -0.1303   -2.4250 H   0  0  0  0  0  0  0  0  0  0  0  0
  1  2  1  0
  1 28  1  0
  1 29  1  0
  1 30  1  0
  2  3  1  0
  3  4  2  0
  3 27  1  0
  4  5  1  0
  4 31  1  0
  5  6  2  0
  5 32  1  0
  6  7  1  0
  6 33  1  0
  7  8  1  0
  7 27  2  0
  8  9  2  0
  8 34  1  0
  9 10  1  0
  9 12  1  0
 10 11  3  0
 12 13  2  0
 12 14  1  0
 14 15  1  0
 15 16  1  0
 15 35  1  0
 15 36  1  0
 16 17  2  0
 16 18  1  0
 18 19  1  0
 18 37  1  0
 19 20  1  0
 19 38  1  0
 19 39  1  0
 20 21  1  0
 20 40  1  0
 20 41  1  0
 21 22  2  0
 21 26  1  0
 22 23  1  0
 22 42  1  0
 23 24  2  0
 23 43  1  0
 24 25  1  0
 24 44  1  0
 25 26  2  0
 25 45  1  0
 26 46  1  0
 27 47  1  0
M  END

