
     RDKit          3D

 36 36  0  0  0  0  0  0  0  0999 V2000
    4.2528   -0.6058    0.9524 C   0  0  0  0  0  0  0  0  0  0  0  0
    2.7615   -0.7939   -0.0670 S   0  0  0  0  0  0  0  0  0  0  0  0
    3.4528   -1.1716   -1.6805 C   0  0  0  0  0  0  0  0  0  0  0  0
    2.5576   -1.3297   -2.7061 N   0  0  0  0  0  0  0  0  0  0  0  0
    1.4674   -0.6476   -2.7878 C   0  0  0  0  0  0  0  0  0  0  0  0
    0.5259   -0.8596   -3.7357 N   0  0  0  0  0  0  0  0  0  0  0  0
   -0.6682   -0.0448   -3.8070 C   0  0  0  0  0  0  0  0  0  0  0  0
    0.6774   -1.9113   -4.7256 C   0  0  0  0  0  0  0  0  0  0  0  0
    4.7330   -1.3187   -1.7787 N   0  0  0  0  0  0  0  0  0  0  0  0
    5.2059   -1.7517   -2.9792 N   0  0  0  0  0  0  0  0  0  0  0  0
    6.3691   -1.3401   -3.3620 C   0  0  0  0  0  0  0  0  0  0  0  0
    7.1940   -0.3225   -2.6140 C   0  0  0  0  0  0  0  0  0  0  0  0
    6.8945   -1.9161   -4.6285 C   0  0  0  0  0  0  0  0  0  0  0  0
    6.1780   -2.9258   -5.3047 C   0  0  0  0  0  0  0  0  0  0  0  0
    6.6504   -3.4789   -6.4909 C   0  0  0  0  0  0  0  0  0  0  0  0
    7.8597   -3.0223   -7.0300 C   0  0  0  0  0  0  0  0  0  0  0  0
    8.5123   -3.7756   -8.6584 Br  0  0  0  0  0  0  0  0  0  0  0  0
    8.5901   -2.0222   -6.3886 C   0  0  0  0  0  0  0  0  0  0  0  0
    8.1049   -1.4778   -5.1958 C   0  0  0  0  0  0  0  0  0  0  0  0
    3.8978   -0.4353    1.9790 H   0  0  0  0  0  0  0  0  0  0  0  0
    4.8545    0.2485    0.6145 H   0  0  0  0  0  0  0  0  0  0  0  0
    4.8596   -1.5189    0.9062 H   0  0  0  0  0  0  0  0  0  0  0  0
    1.2275    0.1805   -2.0966 H   0  0  0  0  0  0  0  0  0  0  0  0
   -0.6600    0.7091   -3.0075 H   0  0  0  0  0  0  0  0  0  0  0  0
   -1.5778   -0.6615   -3.6926 H   0  0  0  0  0  0  0  0  0  0  0  0
   -0.7358    0.4787   -4.7777 H   0  0  0  0  0  0  0  0  0  0  0  0
    1.6441   -2.4042   -4.5675 H   0  0  0  0  0  0  0  0  0  0  0  0
    0.6433   -1.4889   -5.7449 H   0  0  0  0  0  0  0  0  0  0  0  0
   -0.1341   -2.6545   -4.6326 H   0  0  0  0  0  0  0  0  0  0  0  0
    6.7301   -0.1154   -1.6426 H   0  0  0  0  0  0  0  0  0  0  0  0
    7.2651    0.6239   -3.1771 H   0  0  0  0  0  0  0  0  0  0  0  0
    8.2227   -0.6832   -2.4549 H   0  0  0  0  0  0  0  0  0  0  0  0
    5.2362   -3.2637   -4.8703 H   0  0  0  0  0  0  0  0  0  0  0  0
    6.0859   -4.2624   -6.9996 H   0  0  0  0  0  0  0  0  0  0  0  0
    9.5306   -1.6684   -6.8141 H   0  0  0  0  0  0  0  0  0  0  0  0
    8.6894   -0.6944   -4.7108 H   0  0  0  0  0  0  0  0  0  0  0  0
  1  2  1  0
  1 20  1  0
  1 21  1  0
  1 22  1  0
  2  3  1  0
  3  4  1  0
  3  9  2  0
  4  5  2  0
  5  6  1  0
  5 23  1  0
  6  7  1  0
  6  8  1  0
  7 24  1  0
  7 25  1  0
  7 26  1  0
  8 27  1  0
  8 28  1  0
  8 29  1  0
  9 10  1  0
 10 11  2  0
 11 12  1  0
 11 13  1  0
 12 30  1  0
 12 31  1  0
 12 32  1  0
 13 14  2  0
 13 19  1  0
 14 15  1  0
 14 33  1  0
 15 16  2  0
 15 34  1  0
 16 17  1  0
 16 18  1  0
 18 19  2  0
 18 35  1  0
 19 36  1  0
M  END

