
     RDKit          3D

 40 40  0  0  0  0  0  0  0  0999 V2000
    7.5962   -0.9991    1.0901 C   0  0  0  0  0  0  0  0  0  0  0  0
    7.9524   -1.7211   -0.2090 C   0  0  0  0  0  0  0  0  0  0  0  0
    7.8856   -0.8290   -1.4632 C   0  0  1  0  0  0  0  0  0  0  0  0
    8.3430   -1.5401   -2.7430 C   0  0  0  0  0  0  0  0  0  0  0  0
    6.5833   -0.1717   -1.6286 N   0  0  0  0  0  0  0  0  0  0  0  0
    6.5406    1.1805   -1.5466 N   0  0  0  0  0  0  0  0  0  0  0  0
    5.2697    1.5064   -1.7359 C   0  0  0  0  0  0  0  0  0  0  0  0
    4.4505    0.3734   -1.9462 C   0  0  0  0  0  0  0  0  0  0  0  0
    5.3375   -0.6934   -1.8693 C   0  0  0  0  0  0  0  0  0  0  0  0
    5.1252   -2.0688   -1.9939 N   0  0  0  0  0  0  0  0  0  0  0  0
    3.9041   -2.6763   -2.2200 C   0  0  0  0  0  0  0  0  0  0  0  0
    2.8715   -2.0526   -2.3677 O   0  0  0  0  0  0  0  0  0  0  0  0
    3.9569   -4.2037   -2.2273 C   0  0  0  0  0  0  0  0  0  0  0  0
    2.8788   -4.8311   -3.1162 C   0  0  0  0  0  0  0  0  0  0  0  0
    3.0357   -4.5985   -4.6314 C   0  0  1  0  0  0  0  0  0  0  0  0
    4.3204   -5.2166   -5.1994 C   0  0  0  0  0  0  0  0  0  0  0  0
    1.8036   -5.1289   -5.3757 C   0  0  0  0  0  0  0  0  0  0  0  0
    7.6891   -1.6754    1.9541 H   0  0  0  0  0  0  0  0  0  0  0  0
    6.5643   -0.6165    1.0694 H   0  0  0  0  0  0  0  0  0  0  0  0
    8.2618   -0.1380    1.2613 H   0  0  0  0  0  0  0  0  0  0  0  0
    7.3049   -2.6088   -0.3312 H   0  0  0  0  0  0  0  0  0  0  0  0
    8.9805   -2.1176   -0.1489 H   0  0  0  0  0  0  0  0  0  0  0  0
    8.5555    0.0270   -1.2972 H   0  0  0  0  0  0  0  0  0  0  0  0
    7.7318   -2.4247   -2.9859 H   0  0  0  0  0  0  0  0  0  0  0  0
    9.3833   -1.8828   -2.6320 H   0  0  0  0  0  0  0  0  0  0  0  0
    8.2959   -0.8542   -3.6018 H   0  0  0  0  0  0  0  0  0  0  0  0
    4.9711    2.5548   -1.7163 H   0  0  0  0  0  0  0  0  0  0  0  0
    3.3846    0.3080   -2.1289 H   0  0  0  0  0  0  0  0  0  0  0  0
    5.9280   -2.6749   -1.8938 H   0  0  0  0  0  0  0  0  0  0  0  0
    3.7942   -4.5254   -1.1823 H   0  0  0  0  0  0  0  0  0  0  0  0
    4.9655   -4.5571   -2.4996 H   0  0  0  0  0  0  0  0  0  0  0  0
    1.9079   -4.4202   -2.7969 H   0  0  0  0  0  0  0  0  0  0  0  0
    2.8464   -5.9176   -2.9188 H   0  0  0  0  0  0  0  0  0  0  0  0
    3.0764   -3.5064   -4.7959 H   0  0  0  0  0  0  0  0  0  0  0  0
    4.3395   -6.3091   -5.0399 H   0  0  0  0  0  0  0  0  0  0  0  0
    5.2295   -4.7962   -4.7400 H   0  0  0  0  0  0  0  0  0  0  0  0
    4.3971   -5.0398   -6.2843 H   0  0  0  0  0  0  0  0  0  0  0  0
    1.6975   -6.2196   -5.2405 H   0  0  0  0  0  0  0  0  0  0  0  0
    1.8742   -4.9343   -6.4581 H   0  0  0  0  0  0  0  0  0  0  0  0
    0.8788   -4.6555   -5.0089 H   0  0  0  0  0  0  0  0  0  0  0  0
  1  2  1  0
  1 18  1  0
  1 19  1  0
  1 20  1  0
  2  3  1  0
  2 21  1  0
  2 22  1  0
  3  4  1  0
  3  5  1  0
  3 23  1  1
  4 24  1  0
  4 25  1  0
  4 26  1  0
  5  6  1  0
  5  9  1  0
  6  7  2  0
  7  8  1  0
  7 27  1  0
  8  9  2  0
  8 28  1  0
  9 10  1  0
 10 11  1  0
 10 29  1  0
 11 12  2  0
 11 13  1  0
 13 14  1  0
 13 30  1  0
 13 31  1  0
 14 15  1  0
 14 32  1  0
 14 33  1  0
 15 16  1  0
 15 17  1  0
 15 34  1  1
 16 35  1  0
 16 36  1  0
 16 37  1  0
 17 38  1  0
 17 39  1  0
 17 40  1  0
M  END

