
     RDKit          3D

 40 40  0  0  0  0  0  0  0  0999 V2000
    5.6615   -1.5287    5.1664 C   0  0  0  0  0  0  0  0  0  0  0  0
    5.3378   -1.2598    3.6961 C   0  0  0  0  0  0  0  0  0  0  0  0
    6.2287   -0.1897    3.0574 C   0  0  0  0  0  0  0  0  0  0  0  0
    5.9111    0.0848    1.5847 C   0  0  0  0  0  0  0  0  0  0  0  0
    6.8063    1.1510    0.9466 C   0  0  0  0  0  0  0  0  0  0  0  0
    6.4815    1.4165   -0.5266 C   0  0  0  0  0  0  0  0  0  0  0  0
    7.3682    2.4799   -1.1793 C   0  0  0  0  0  0  0  0  0  0  0  0
    8.8066    2.0051   -1.3841 C   0  0  0  0  0  0  0  0  0  0  0  0
    9.1092    0.8484   -1.5662 O   0  0  0  0  0  0  0  0  0  0  0  0
    9.7338    3.0419   -1.3751 N   0  0  0  0  0  0  0  0  0  0  0  0
   11.0387    2.8239   -1.6108 N   0  0  0  0  0  0  0  0  0  0  0  0
   11.8419    3.8222   -1.5961 C   0  0  0  0  0  0  0  0  0  0  0  0
   13.2791    3.6695   -1.8421 C   0  0  0  0  0  0  0  0  0  0  0  0
   13.8485    2.4070   -2.1079 C   0  0  0  0  0  0  0  0  0  0  0  0
   15.2144    2.2791   -2.3390 C   0  0  0  0  0  0  0  0  0  0  0  0
   16.0193    3.4204   -2.3047 C   0  0  0  0  0  0  0  0  0  0  0  0
   17.3348    3.2970   -2.5273 F   0  0  0  0  0  0  0  0  0  0  0  0
   15.4893    4.6817   -2.0451 C   0  0  0  0  0  0  0  0  0  0  0  0
   14.1175    4.7981   -1.8146 C   0  0  0  0  0  0  0  0  0  0  0  0
    5.0028   -2.3026    5.5922 H   0  0  0  0  0  0  0  0  0  0  0  0
    5.5418   -0.6177    5.7768 H   0  0  0  0  0  0  0  0  0  0  0  0
    6.7022   -1.8726    5.2912 H   0  0  0  0  0  0  0  0  0  0  0  0
    4.2795   -0.9547    3.6011 H   0  0  0  0  0  0  0  0  0  0  0  0
    5.4304   -2.1987    3.1202 H   0  0  0  0  0  0  0  0  0  0  0  0
    7.2878   -0.4945    3.1506 H   0  0  0  0  0  0  0  0  0  0  0  0
    6.1370    0.7508    3.6330 H   0  0  0  0  0  0  0  0  0  0  0  0
    4.8522    0.3911    1.4907 H   0  0  0  0  0  0  0  0  0  0  0  0
    6.0032   -0.8552    1.0101 H   0  0  0  0  0  0  0  0  0  0  0  0
    7.8612    0.8363    1.0342 H   0  0  0  0  0  0  0  0  0  0  0  0
    6.7155    2.0937    1.5192 H   0  0  0  0  0  0  0  0  0  0  0  0
    5.4268    1.7273   -0.6224 H   0  0  0  0  0  0  0  0  0  0  0  0
    6.5924    0.4817   -1.1000 H   0  0  0  0  0  0  0  0  0  0  0  0
    7.3481    3.4199   -0.5995 H   0  0  0  0  0  0  0  0  0  0  0  0
    6.9750    2.7281   -2.1822 H   0  0  0  0  0  0  0  0  0  0  0  0
    9.4070    3.9947   -1.1987 H   0  0  0  0  0  0  0  0  0  0  0  0
   11.4782    4.8493   -1.3949 H   0  0  0  0  0  0  0  0  0  0  0  0
   13.1958    1.5322   -2.1286 H   0  0  0  0  0  0  0  0  0  0  0  0
   15.6719    1.3096   -2.5463 H   0  0  0  0  0  0  0  0  0  0  0  0
   16.1514    5.5493   -2.0267 H   0  0  0  0  0  0  0  0  0  0  0  0
   13.6908    5.7841   -1.6097 H   0  0  0  0  0  0  0  0  0  0  0  0
  1  2  1  0
  1 20  1  0
  1 21  1  0
  1 22  1  0
  2  3  1  0
  2 23  1  0
  2 24  1  0
  3  4  1  0
  3 25  1  0
  3 26  1  0
  4  5  1  0
  4 27  1  0
  4 28  1  0
  5  6  1  0
  5 29  1  0
  5 30  1  0
  6  7  1  0
  6 31  1  0
  6 32  1  0
  7  8  1  0
  7 33  1  0
  7 34  1  0
  8  9  2  0
  8 10  1  0
 10 11  1  0
 10 35  1  0
 11 12  2  0
 12 13  1  0
 12 36  1  0
 13 14  2  0
 13 19  1  0
 14 15  1  0
 14 37  1  0
 15 16  2  0
 15 38  1  0
 16 17  1  0
 16 18  1  0
 18 19  2  0
 18 39  1  0
 19 40  1  0
M  END

