
     RDKit          3D

 43 43  0  0  0  0  0  0  0  0999 V2000
    1.2347    0.6051   -0.3426 C   0  0  0  0  0  0  0  0  0  0  0  0
    2.7147    0.2180   -0.3767 C   0  0  0  0  0  0  0  0  0  0  0  0
    2.9879   -1.3036   -0.5250 C   0  0  1  0  0  0  0  0  0  0  0  0
    2.4196   -1.9951    0.5762 O   0  0  0  0  0  0  0  0  0  0  0  0
    2.4136   -1.8381   -1.8525 C   0  0  0  0  0  0  0  0  0  0  0  0
    2.6456   -1.1856   -3.0758 C   0  0  0  0  0  0  0  0  0  0  0  0
    2.1246   -1.6788   -4.2734 C   0  0  0  0  0  0  0  0  0  0  0  0
    1.3627   -2.8455   -4.2480 C   0  0  0  0  0  0  0  0  0  0  0  0
    0.8520   -3.3199   -5.3948 F   0  0  0  0  0  0  0  0  0  0  0  0
    1.1244   -3.5265   -3.0587 C   0  0  0  0  0  0  0  0  0  0  0  0
    1.6569   -3.0197   -1.8694 C   0  0  0  0  0  0  0  0  0  0  0  0
    4.5339   -1.5640   -0.4532 C   0  0  1  0  0  0  0  0  0  0  0  0
    5.1147   -1.3773    0.9562 C   0  0  0  0  0  0  0  0  0  0  0  0
    4.9027   -2.9675   -0.9417 C   0  0  0  0  0  0  0  0  0  0  0  0
    4.7000   -3.9802   -0.3156 O   0  0  0  0  0  0  0  0  0  0  0  0
    5.5147   -2.9081   -2.1377 O   0  0  0  0  0  0  0  0  0  0  0  0
    6.0303   -4.1008   -2.8264 C   0  0  1  0  0  0  0  0  0  0  0  0
    4.8895   -5.0767   -3.1304 C   0  0  0  0  0  0  0  0  0  0  0  0
    6.6070   -3.5225   -4.1201 C   0  0  0  0  0  0  0  0  0  0  0  0
    7.1323   -4.7481   -1.9810 C   0  0  0  0  0  0  0  0  0  0  0  0
    1.1235    1.6938   -0.2209 H   0  0  0  0  0  0  0  0  0  0  0  0
    0.7077    0.1420    0.5094 H   0  0  0  0  0  0  0  0  0  0  0  0
    0.7088    0.3157   -1.2656 H   0  0  0  0  0  0  0  0  0  0  0  0
    3.1952    0.5541    0.5546 H   0  0  0  0  0  0  0  0  0  0  0  0
    3.2167    0.7586   -1.1947 H   0  0  0  0  0  0  0  0  0  0  0  0
    1.4763   -1.7885    0.6100 H   0  0  0  0  0  0  0  0  0  0  0  0
    3.2461   -0.2742   -3.1091 H   0  0  0  0  0  0  0  0  0  0  0  0
    2.2983   -1.1715   -5.2245 H   0  0  0  0  0  0  0  0  0  0  0  0
    0.5329   -4.4441   -3.0738 H   0  0  0  0  0  0  0  0  0  0  0  0
    1.4986   -3.5585   -0.9345 H   0  0  0  0  0  0  0  0  0  0  0  0
    5.0040   -0.8550   -1.1499 H   0  0  0  0  0  0  0  0  0  0  0  0
    4.6829   -2.1195    1.6394 H   0  0  0  0  0  0  0  0  0  0  0  0
    4.9110   -0.3721    1.3516 H   0  0  0  0  0  0  0  0  0  0  0  0
    6.2077   -1.5122    0.9373 H   0  0  0  0  0  0  0  0  0  0  0  0
    4.0828   -4.5667   -3.6782 H   0  0  0  0  0  0  0  0  0  0  0  0
    4.4741   -5.5022   -2.2086 H   0  0  0  0  0  0  0  0  0  0  0  0
    5.2674   -5.8974   -3.7604 H   0  0  0  0  0  0  0  0  0  0  0  0
    5.8194   -3.0234   -4.7045 H   0  0  0  0  0  0  0  0  0  0  0  0
    7.0442   -4.3237   -4.7352 H   0  0  0  0  0  0  0  0  0  0  0  0
    7.3926   -2.7842   -3.8982 H   0  0  0  0  0  0  0  0  0  0  0  0
    6.7285   -5.1487   -1.0424 H   0  0  0  0  0  0  0  0  0  0  0  0
    7.9184   -4.0134   -1.7457 H   0  0  0  0  0  0  0  0  0  0  0  0
    7.5952   -5.5728   -2.5453 H   0  0  0  0  0  0  0  0  0  0  0  0
  1  2  1  0
  1 21  1  0
  1 22  1  0
  1 23  1  0
  2  3  1  0
  2 24  1  0
  2 25  1  0
  3  4  1  1
  3  5  1  0
  3 12  1  0
  4 26  1  0
  5  6  2  0
  5 11  1  0
  6  7  1  0
  6 27  1  0
  7  8  2  0
  7 28  1  0
  8  9  1  0
  8 10  1  0
 10 11  2  0
 10 29  1  0
 11 30  1  0
 12 13  1  0
 12 14  1  0
 12 31  1  6
 13 32  1  0
 13 33  1  0
 13 34  1  0
 14 15  2  0
 14 16  1  0
 17 16  1  1
 17 18  1  0
 17 19  1  0
 17 20  1  0
 18 35  1  0
 18 36  1  0
 18 37  1  0
 19 38  1  0
 19 39  1  0
 19 40  1  0
 20 41  1  0
 20 42  1  0
 20 43  1  0
M  END

