
     RDKit          3D

 48 49  0  0  0  0  0  0  0  0999 V2000
    8.6681    0.0185    7.0568 C   0  0  0  0  0  0  0  0  0  0  0  0
    7.7031   -0.3336    6.1010 O   0  0  0  0  0  0  0  0  0  0  0  0
    7.6503    0.5364    4.9994 C   0  0  0  0  0  0  0  0  0  0  0  0
    6.6036    0.0544    4.0227 C   0  0  0  0  0  0  0  0  0  0  0  0
    7.0297   -1.2068    3.5051 O   0  0  0  0  0  0  0  0  0  0  0  0
    6.2575   -1.7694    2.5490 C   0  0  0  0  0  0  0  0  0  0  0  0
    5.3056   -1.1826    2.0718 O   0  0  0  0  0  0  0  0  0  0  0  0
    6.6613   -3.1156    2.0978 C   0  0  0  0  0  0  0  0  0  0  0  0
    7.5493   -3.9826    2.6811 C   0  0  0  0  0  0  0  0  0  0  0  0
    8.2495   -3.7558    3.9955 C   0  0  0  0  0  0  0  0  0  0  0  0
    7.8536   -5.1951    2.0427 N   0  0  0  0  0  0  0  0  0  0  0  0
    8.5903   -6.2344    2.7622 C   0  0  0  0  0  0  0  0  0  0  0  0
    7.6349   -5.3649    0.6631 C   0  0  0  0  0  0  0  0  0  0  0  0
    8.3389   -6.5831   -0.2460 S   0  0  0  0  0  0  0  0  0  0  0  0
    6.8498   -4.4310    0.1011 N   0  0  0  0  0  0  0  0  0  0  0  0
    5.9505   -3.5482    0.8336 C   0  0  1  0  0  0  0  0  0  0  0  0
    4.5627   -4.1897    1.0446 C   0  0  0  0  0  0  0  0  0  0  0  0
    4.1999   -4.6840    2.3036 C   0  0  0  0  0  0  0  0  0  0  0  0
    2.9573   -5.2785    2.5336 C   0  0  0  0  0  0  0  0  0  0  0  0
    2.0291   -5.3789    1.4965 C   0  0  0  0  0  0  0  0  0  0  0  0
    2.3590   -4.8819    0.2378 C   0  0  0  0  0  0  0  0  0  0  0  0
    3.6154   -4.2988   -0.0081 C   0  0  0  0  0  0  0  0  0  0  0  0
    3.9155   -3.8196   -1.3922 C   0  0  0  0  0  0  0  0  0  0  0  0
    5.0235   -3.6062   -1.8456 O   0  0  0  0  0  0  0  0  0  0  0  0
    2.8069   -3.6491   -2.1314 O   0  0  0  0  0  0  0  0  0  0  0  0
    3.0018   -3.2324   -3.4832 C   0  0  0  0  0  0  0  0  0  0  0  0
    8.6232   -0.7216    7.8689 H   0  0  0  0  0  0  0  0  0  0  0  0
    8.4795    1.0238    7.4858 H   0  0  0  0  0  0  0  0  0  0  0  0
    9.6930    0.0169    6.6334 H   0  0  0  0  0  0  0  0  0  0  0  0
    8.6360    0.5945    4.4921 H   0  0  0  0  0  0  0  0  0  0  0  0
    7.3838    1.5668    5.3178 H   0  0  0  0  0  0  0  0  0  0  0  0
    6.4775    0.7764    3.2006 H   0  0  0  0  0  0  0  0  0  0  0  0
    5.6279   -0.0603    4.5224 H   0  0  0  0  0  0  0  0  0  0  0  0
    7.9869   -2.7903    4.4297 H   0  0  0  0  0  0  0  0  0  0  0  0
    9.3425   -3.8003    3.8623 H   0  0  0  0  0  0  0  0  0  0  0  0
    7.9847   -4.5463    4.7145 H   0  0  0  0  0  0  0  0  0  0  0  0
    8.1084   -6.4440    3.7268 H   0  0  0  0  0  0  0  0  0  0  0  0
    9.6398   -5.9503    2.9376 H   0  0  0  0  0  0  0  0  0  0  0  0
    8.5844   -7.1361    2.1413 H   0  0  0  0  0  0  0  0  0  0  0  0
    6.6710   -4.5145   -0.8960 H   0  0  0  0  0  0  0  0  0  0  0  0
    5.7989   -2.6627    0.2073 H   0  0  0  0  0  0  0  0  0  0  0  0
    4.9055   -4.5877    3.1299 H   0  0  0  0  0  0  0  0  0  0  0  0
    2.7142   -5.6574    3.5298 H   0  0  0  0  0  0  0  0  0  0  0  0
    1.0523   -5.8378    1.6659 H   0  0  0  0  0  0  0  0  0  0  0  0
    1.6426   -4.9451   -0.5812 H   0  0  0  0  0  0  0  0  0  0  0  0
    3.6132   -3.9631   -4.0339 H   0  0  0  0  0  0  0  0  0  0  0  0
    3.5084   -2.2565   -3.5203 H   0  0  0  0  0  0  0  0  0  0  0  0
    2.0008   -3.1596   -3.9256 H   0  0  0  0  0  0  0  0  0  0  0  0
  1  2  1  0
  1 27  1  0
  1 28  1  0
  1 29  1  0
  2  3  1  0
  3  4  1  0
  3 30  1  0
  3 31  1  0
  4  5  1  0
  4 32  1  0
  4 33  1  0
  5  6  1  0
  6  7  2  0
  6  8  1  0
  8  9  2  0
  8 16  1  0
  9 10  1  0
  9 11  1  0
 10 34  1  0
 10 35  1  0
 10 36  1  0
 11 12  1  0
 11 13  1  0
 12 37  1  0
 12 38  1  0
 12 39  1  0
 13 14  2  0
 13 15  1  0
 15 16  1  0
 15 40  1  0
 16 17  1  0
 16 41  1  6
 17 18  2  0
 17 22  1  0
 18 19  1  0
 18 42  1  0
 19 20  2  0
 19 43  1  0
 20 21  1  0
 20 44  1  0
 21 22  2  0
 21 45  1  0
 22 23  1  0
 23 24  2  0
 23 25  1  0
 25 26  1  0
 26 46  1  0
 26 47  1  0
 26 48  1  0
M  END

