
     RDKit          3D

 44 45  0  0  0  0  0  0  0  0999 V2000
    3.3947   -2.4708   -3.1948 C   0  0  0  0  0  0  0  0  0  0  0  0
    3.2687   -1.3077   -2.2079 C   0  0  0  0  0  0  0  0  0  0  0  0
    3.6057   -0.0164   -2.7781 N   0  0  0  0  0  0  0  0  0  0  0  0
    4.8363    0.5446   -2.7904 C   0  0  0  0  0  0  0  0  0  0  0  0
    4.9106    1.7442   -3.4346 N   0  0  0  0  0  0  0  0  0  0  0  0
    6.0978    2.3122   -3.4370 C   0  0  0  0  0  0  0  0  0  0  0  0
    7.2295    1.7489   -2.8249 C   0  0  0  0  0  0  0  0  0  0  0  0
    8.4760    2.4554   -2.8905 N   0  0  0  0  0  0  0  0  0  0  0  0
    8.5113    3.5336   -3.4682 O   0  0  0  0  0  0  0  0  0  0  0  0
    9.4747    1.9465   -2.3589 O   0  0  0  0  0  0  0  0  0  0  0  0
    7.0561    0.4762   -2.1737 C   0  0  0  0  0  0  0  0  0  0  0  0
    8.0605   -0.1563   -1.5467 N   0  0  0  0  0  0  0  0  0  0  0  0
    7.9481   -1.4532   -0.9029 C   0  0  0  0  0  0  0  0  0  0  0  0
    8.2416   -2.6335   -1.8384 C   0  0  0  0  0  0  0  0  0  0  0  0
    8.1527   -3.9869   -1.1267 C   0  0  0  0  0  0  0  0  0  0  0  0
    8.4836   -5.1932   -2.0100 C   0  0  1  0  0  0  0  0  0  0  0  0
    8.4560   -6.5469   -1.2794 C   0  0  0  0  0  0  0  0  0  0  0  0
    8.4871   -7.5842   -2.4140 C   0  0  0  0  0  0  0  0  0  0  0  0
    7.7169   -6.9235   -3.5925 C   0  0  0  0  0  0  0  0  0  0  0  0
    7.5223   -5.4370   -3.1931 C   0  0  0  0  0  0  0  0  0  0  0  0
    5.8414   -0.0960   -2.1891 N   0  0  0  0  0  0  0  0  0  0  0  0
    3.1053   -3.4179   -2.7113 H   0  0  0  0  0  0  0  0  0  0  0  0
    4.4322   -2.5694   -3.5492 H   0  0  0  0  0  0  0  0  0  0  0  0
    2.7438   -2.3251   -4.0721 H   0  0  0  0  0  0  0  0  0  0  0  0
    3.9298   -1.4730   -1.3455 H   0  0  0  0  0  0  0  0  0  0  0  0
    2.2371   -1.2454   -1.8233 H   0  0  0  0  0  0  0  0  0  0  0  0
    2.9063    0.5054   -3.2944 H   0  0  0  0  0  0  0  0  0  0  0  0
    6.2108    3.2756   -3.9431 H   0  0  0  0  0  0  0  0  0  0  0  0
    8.9568    0.3265   -1.6048 H   0  0  0  0  0  0  0  0  0  0  0  0
    6.9332   -1.5483   -0.4910 H   0  0  0  0  0  0  0  0  0  0  0  0
    8.6521   -1.4628   -0.0540 H   0  0  0  0  0  0  0  0  0  0  0  0
    9.2485   -2.5063   -2.2753 H   0  0  0  0  0  0  0  0  0  0  0  0
    7.5283   -2.5961   -2.6782 H   0  0  0  0  0  0  0  0  0  0  0  0
    7.1355   -4.1165   -0.7106 H   0  0  0  0  0  0  0  0  0  0  0  0
    8.8358   -3.9837   -0.2572 H   0  0  0  0  0  0  0  0  0  0  0  0
    9.5039   -5.0524   -2.4182 H   0  0  0  0  0  0  0  0  0  0  0  0
    7.5131   -6.6293   -0.7077 H   0  0  0  0  0  0  0  0  0  0  0  0
    9.2817   -6.6662   -0.5591 H   0  0  0  0  0  0  0  0  0  0  0  0
    8.0595   -8.5538   -2.1149 H   0  0  0  0  0  0  0  0  0  0  0  0
    9.5321   -7.7781   -2.7072 H   0  0  0  0  0  0  0  0  0  0  0  0
    6.7472   -7.4140   -3.7708 H   0  0  0  0  0  0  0  0  0  0  0  0
    8.2851   -7.0146   -4.5314 H   0  0  0  0  0  0  0  0  0  0  0  0
    6.4863   -5.2669   -2.8490 H   0  0  0  0  0  0  0  0  0  0  0  0
    7.6932   -4.7477   -4.0343 H   0  0  0  0  0  0  0  0  0  0  0  0
  1  2  1  0
  1 22  1  0
  1 23  1  0
  1 24  1  0
  2  3  1  0
  2 25  1  0
  2 26  1  0
  3  4  1  0
  3 27  1  0
  4  5  2  0
  4 21  1  0
  5  6  1  0
  6  7  2  0
  6 28  1  0
  7  8  1  0
  7 11  1  0
  8  9  2  0
  8 10  1  0
 11 12  1  0
 11 21  2  0
 12 13  1  0
 12 29  1  0
 13 14  1  0
 13 30  1  0
 13 31  1  0
 14 15  1  0
 14 32  1  0
 14 33  1  0
 15 16  1  0
 15 34  1  0
 15 35  1  0
 16 17  1  0
 16 20  1  0
 16 36  1  6
 17 18  1  0
 17 37  1  0
 17 38  1  0
 18 19  1  0
 18 39  1  0
 18 40  1  0
 19 20  1  0
 19 41  1  0
 19 42  1  0
 20 43  1  0
 20 44  1  0
M  CHG  2   8   1  10  -1
M  END

