
     RDKit          3D

119127  0  0  0  0  0  0  0  0999 V2000
    4.9979   -2.3845   -1.3442 C   0  0  0  0  0  0  0  0  0  0  0  0
    5.3388   -0.8929   -1.3473 C   0  0  0  0  0  0  0  0  0  0  0  0
    6.8228   -0.6279   -1.6166 C   0  0  0  0  0  0  0  0  0  0  0  0
    7.2712    0.8618   -1.6407 C   0  0  2  0  0  0  0  0  0  0  0  0
    8.8001    0.9023   -1.9262 C   0  0  0  0  0  0  0  0  0  0  0  0
    9.4487    2.2880   -1.9923 C   0  0  0  0  0  0  0  0  0  0  0  0
   10.9509    2.2219   -2.2756 C   0  0  0  0  0  0  0  0  0  0  0  0
    6.9149    1.5855   -0.3409 C   0  0  0  0  0  0  0  0  0  0  0  0
    7.3314    1.3055    0.9588 C   0  0  0  0  0  0  0  0  0  0  0  0
    6.8761    2.1105    2.0133 C   0  0  0  0  0  0  0  0  0  0  0  0
    6.0120    3.1853    1.7667 C   0  0  0  0  0  0  0  0  0  0  0  0
    5.5898    3.4726    0.4644 C   0  0  0  0  0  0  0  0  0  0  0  0
    6.0438    2.6694   -0.5877 C   0  0  0  0  0  0  0  0  0  0  0  0
    5.7755    2.7285   -2.0305 C   0  0  0  0  0  0  0  0  0  0  0  0
    4.9936    3.6036   -2.7913 C   0  0  0  0  0  0  0  0  0  0  0  0
    4.9195    3.4257   -4.1739 C   0  0  0  0  0  0  0  0  0  0  0  0
    5.6140    2.3832   -4.8242 C   0  0  0  0  0  0  0  0  0  0  0  0
    5.5212    2.2082   -6.2970 C   0  0  0  0  0  0  0  0  0  0  0  0
    5.4473    3.3258   -7.1559 C   0  0  0  0  0  0  0  0  0  0  0  0
    5.3583    3.1799   -8.5413 C   0  0  0  0  0  0  0  0  0  0  0  0
    5.3415    1.8948   -9.0935 C   0  0  0  0  0  0  0  0  0  0  0  0
    5.4154    0.7642   -8.2516 C   0  0  0  0  0  0  0  0  0  0  0  0
    5.5051    0.9181   -6.8730 C   0  0  0  0  0  0  0  0  0  0  0  0
    5.3683   -0.5293   -9.0684 C   0  0  1  0  0  0  0  0  0  0  0  0
    6.6502   -1.3877   -8.8692 C   0  0  0  0  0  0  0  0  0  0  0  0
    7.9861   -0.7080   -9.1829 C   0  0  0  0  0  0  0  0  0  0  0  0
    9.1849   -1.6313   -8.9561 C   0  0  0  0  0  0  0  0  0  0  0  0
    4.1366   -1.4047   -8.6980 C   0  0  0  0  0  0  0  0  0  0  0  0
    2.7616   -0.7430   -8.8264 C   0  0  0  0  0  0  0  0  0  0  0  0
    1.6180   -1.6825   -8.4384 C   0  0  0  0  0  0  0  0  0  0  0  0
    5.2678    0.0243  -10.4917 C   0  0  0  0  0  0  0  0  0  0  0  0
    5.1874   -0.6736  -11.6911 C   0  0  0  0  0  0  0  0  0  0  0  0
    5.0856    0.0208  -12.9175 C   0  0  0  0  0  0  0  0  0  0  0  0
    4.9961   -0.7161  -14.2048 C   0  0  0  0  0  0  0  0  0  0  0  0
    4.1973   -0.2316  -15.2628 C   0  0  0  0  0  0  0  0  0  0  0  0
    4.1006   -0.9116  -16.4781 C   0  0  0  0  0  0  0  0  0  0  0  0
    4.8123   -2.1026  -16.6535 C   0  0  0  0  0  0  0  0  0  0  0  0
    5.6156   -2.6044  -15.6078 C   0  0  0  0  0  0  0  0  0  0  0  0
    5.7065   -1.9218  -14.4001 C   0  0  0  0  0  0  0  0  0  0  0  0
    6.3048   -3.9055  -16.0247 C   0  0  1  0  0  0  0  0  0  0  0  0
    7.8551   -3.7778  -15.9927 C   0  0  0  0  0  0  0  0  0  0  0  0
    8.4681   -2.6556  -16.8353 C   0  0  0  0  0  0  0  0  0  0  0  0
    9.9945   -2.6130  -16.7378 C   0  0  0  0  0  0  0  0  0  0  0  0
    5.8985   -5.0961  -15.1092 C   0  0  0  0  0  0  0  0  0  0  0  0
    4.4009   -5.3958  -14.9984 C   0  0  0  0  0  0  0  0  0  0  0  0
    4.1040   -6.5817  -14.0782 C   0  0  0  0  0  0  0  0  0  0  0  0
    5.7759   -4.0764  -17.4500 C   0  0  0  0  0  0  0  0  0  0  0  0
    6.0430   -5.0913  -18.3663 C   0  0  0  0  0  0  0  0  0  0  0  0
    5.4419   -5.0476  -19.6328 C   0  0  0  0  0  0  0  0  0  0  0  0
    4.5818   -3.9964  -19.9766 C   0  0  0  0  0  0  0  0  0  0  0  0
    4.3092   -2.9738  -19.0620 C   0  0  0  0  0  0  0  0  0  0  0  0
    4.9086   -3.0177  -17.7982 C   0  0  0  0  0  0  0  0  0  0  0  0
    5.0716    1.4320  -12.8879 C   0  0  0  0  0  0  0  0  0  0  0  0
    5.1525    2.1404  -11.6879 C   0  0  0  0  0  0  0  0  0  0  0  0
    5.2503    1.4357  -10.4834 C   0  0  0  0  0  0  0  0  0  0  0  0
    6.3977    1.5084   -4.0390 C   0  0  0  0  0  0  0  0  0  0  0  0
    6.4777    1.6800   -2.6617 C   0  0  0  0  0  0  0  0  0  0  0  0
    3.9267   -2.5519   -1.1489 H   0  0  0  0  0  0  0  0  0  0  0  0
    5.5649   -2.9267   -0.5685 H   0  0  0  0  0  0  0  0  0  0  0  0
    5.2357   -2.8556   -2.3131 H   0  0  0  0  0  0  0  0  0  0  0  0
    5.0546   -0.4495   -0.3781 H   0  0  0  0  0  0  0  0  0  0  0  0
    4.7278   -0.3781   -2.1080 H   0  0  0  0  0  0  0  0  0  0  0  0
    7.1028   -1.0826   -2.5842 H   0  0  0  0  0  0  0  0  0  0  0  0
    7.4286   -1.1528   -0.8558 H   0  0  0  0  0  0  0  0  0  0  0  0
    8.9828    0.3709   -2.8779 H   0  0  0  0  0  0  0  0  0  0  0  0
    9.3066    0.3018   -1.1489 H   0  0  0  0  0  0  0  0  0  0  0  0
    9.2772    2.8213   -1.0421 H   0  0  0  0  0  0  0  0  0  0  0  0
    8.9543    2.8900   -2.7733 H   0  0  0  0  0  0  0  0  0  0  0  0
   11.4849    1.6556   -1.4936 H   0  0  0  0  0  0  0  0  0  0  0  0
   11.3967    3.2284   -2.3181 H   0  0  0  0  0  0  0  0  0  0  0  0
   11.1587    1.7265   -3.2391 H   0  0  0  0  0  0  0  0  0  0  0  0
    8.0062    0.4696    1.1636 H   0  0  0  0  0  0  0  0  0  0  0  0
    7.1982    1.8976    3.0360 H   0  0  0  0  0  0  0  0  0  0  0  0
    5.6654    3.8039    2.5985 H   0  0  0  0  0  0  0  0  0  0  0  0
    4.9157    4.3123    0.2763 H   0  0  0  0  0  0  0  0  0  0  0  0
    4.4366    4.4151   -2.3159 H   0  0  0  0  0  0  0  0  0  0  0  0
    4.2875    4.0937   -4.7631 H   0  0  0  0  0  0  0  0  0  0  0  0
    5.4864    4.3299   -6.7281 H   0  0  0  0  0  0  0  0  0  0  0  0
    5.3110    4.0653   -9.1806 H   0  0  0  0  0  0  0  0  0  0  0  0
    5.5349    0.0403   -6.2226 H   0  0  0  0  0  0  0  0  0  0  0  0
    6.5509   -2.2963   -9.4906 H   0  0  0  0  0  0  0  0  0  0  0  0
    6.6615   -1.7442   -7.8231 H   0  0  0  0  0  0  0  0  0  0  0  0
    8.0957    0.1958   -8.5599 H   0  0  0  0  0  0  0  0  0  0  0  0
    7.9852   -0.3576  -10.2289 H   0  0  0  0  0  0  0  0  0  0  0  0
    9.2393   -1.9731   -7.9085 H   0  0  0  0  0  0  0  0  0  0  0  0
   10.1341   -1.1224   -9.1879 H   0  0  0  0  0  0  0  0  0  0  0  0
    9.1276   -2.5315   -9.5914 H   0  0  0  0  0  0  0  0  0  0  0  0
    4.2722   -1.7603   -7.6604 H   0  0  0  0  0  0  0  0  0  0  0  0
    4.1625   -2.3119   -9.3285 H   0  0  0  0  0  0  0  0  0  0  0  0
    2.6150   -0.3950   -9.8628 H   0  0  0  0  0  0  0  0  0  0  0  0
    2.7258    0.1596   -8.1933 H   0  0  0  0  0  0  0  0  0  0  0  0
    1.6012   -2.5829   -9.0757 H   0  0  0  0  0  0  0  0  0  0  0  0
    0.6392   -1.1873   -8.5395 H   0  0  0  0  0  0  0  0  0  0  0  0
    1.7112   -2.0220   -7.3928 H   0  0  0  0  0  0  0  0  0  0  0  0
    5.1734   -1.7664  -11.6909 H   0  0  0  0  0  0  0  0  0  0  0  0
    3.6196    0.6839  -15.1184 H   0  0  0  0  0  0  0  0  0  0  0  0
    3.4663   -0.5148  -17.2751 H   0  0  0  0  0  0  0  0  0  0  0  0
    6.3511   -2.2997  -13.6025 H   0  0  0  0  0  0  0  0  0  0  0  0
    8.2823   -4.7457  -16.3120 H   0  0  0  0  0  0  0  0  0  0  0  0
    8.1642   -3.6500  -14.9393 H   0  0  0  0  0  0  0  0  0  0  0  0
    8.0528   -1.6850  -16.5155 H   0  0  0  0  0  0  0  0  0  0  0  0
    8.1709   -2.7818  -17.8901 H   0  0  0  0  0  0  0  0  0  0  0  0
   10.3284   -2.4503  -15.6989 H   0  0  0  0  0  0  0  0  0  0  0  0
   10.4140   -1.7998  -17.3513 H   0  0  0  0  0  0  0  0  0  0  0  0
   10.4479   -3.5573  -17.0841 H   0  0  0  0  0  0  0  0  0  0  0  0
    6.3055   -4.9030  -14.0999 H   0  0  0  0  0  0  0  0  0  0  0  0
    6.4228   -5.9985  -15.4728 H   0  0  0  0  0  0  0  0  0  0  0  0
    3.9900   -5.5980  -16.0019 H   0  0  0  0  0  0  0  0  0  0  0  0
    3.8717   -4.5018  -14.6275 H   0  0  0  0  0  0  0  0  0  0  0  0
    4.5891   -7.5044  -14.4393 H   0  0  0  0  0  0  0  0  0  0  0  0
    3.0222   -6.7799  -14.0138 H   0  0  0  0  0  0  0  0  0  0  0  0
    4.4691   -6.3992  -13.0532 H   0  0  0  0  0  0  0  0  0  0  0  0
    6.7131   -5.9167  -18.1096 H   0  0  0  0  0  0  0  0  0  0  0  0
    5.6462   -5.8398  -20.3576 H   0  0  0  0  0  0  0  0  0  0  0  0
    4.1206   -3.9756  -20.9674 H   0  0  0  0  0  0  0  0  0  0  0  0
    3.6377   -2.1553  -19.3344 H   0  0  0  0  0  0  0  0  0  0  0  0
    5.0220    1.9843  -13.8288 H   0  0  0  0  0  0  0  0  0  0  0  0
    5.1475    3.2334  -11.6991 H   0  0  0  0  0  0  0  0  0  0  0  0
    6.9637    0.7112   -4.5276 H   0  0  0  0  0  0  0  0  0  0  0  0
  1  2  1  0
  1 58  1  0
  1 59  1  0
  1 60  1  0
  2  3  1  0
  2 61  1  0
  2 62  1  0
  4  3  1  1
  3 63  1  0
  3 64  1  0
  4  5  1  0
  4  8  1  0
  4 57  1  0
  5  6  1  0
  5 65  1  0
  5 66  1  0
  6  7  1  0
  6 67  1  0
  6 68  1  0
  7 69  1  0
  7 70  1  0
  7 71  1  0
  8  9  2  0
  8 13  1  0
  9 10  1  0
  9 72  1  0
 10 11  2  0
 10 73  1  0
 11 12  1  0
 11 74  1  0
 12 13  2  0
 12 75  1  0
 13 14  1  0
 14 15  2  0
 14 57  1  0
 15 16  1  0
 15 76  1  0
 16 17  2  0
 16 77  1  0
 17 18  1  0
 17 56  1  0
 18 19  2  0
 18 23  1  0
 19 20  1  0
 19 78  1  0
 20 21  2  0
 20 79  1  0
 21 22  1  0
 21 55  1  0
 22 23  2  0
 22 24  1  0
 23 80  1  0
 24 25  1  6
 24 28  1  0
 24 31  1  0
 25 26  1  0
 25 81  1  0
 25 82  1  0
 26 27  1  0
 26 83  1  0
 26 84  1  0
 27 85  1  0
 27 86  1  0
 27 87  1  0
 28 29  1  0
 28 88  1  0
 28 89  1  0
 29 30  1  0
 29 90  1  0
 29 91  1  0
 30 92  1  0
 30 93  1  0
 30 94  1  0
 31 32  1  0
 31 55  2  0
 32 33  2  0
 32 95  1  0
 33 34  1  0
 33 53  1  0
 34 35  2  0
 34 39  1  0
 35 36  1  0
 35 96  1  0
 36 37  2  0
 36 97  1  0
 37 38  1  0
 37 52  1  0
 38 39  2  0
 38 40  1  0
 39 98  1  0
 40 41  1  6
 40 44  1  0
 40 47  1  0
 41 42  1  0
 41 99  1  0
 41100  1  0
 42 43  1  0
 42101  1  0
 42102  1  0
 43103  1  0
 43104  1  0
 43105  1  0
 44 45  1  0
 44106  1  0
 44107  1  0
 45 46  1  0
 45108  1  0
 45109  1  0
 46110  1  0
 46111  1  0
 46112  1  0
 47 48  1  0
 47 52  2  0
 48 49  2  0
 48113  1  0
 49 50  1  0
 49114  1  0
 50 51  2  0
 50115  1  0
 51 52  1  0
 51116  1  0
 53 54  2  0
 53117  1  0
 54 55  1  0
 54118  1  0
 56 57  2  0
 56119  1  0
M  END

