
     RDKit          3D

 35 37  0  0  0  0  0  0  0  0999 V2000
    2.0055    1.3137   -0.6501 Cl  0  0  0  0  0  0  0  0  0  0  0  0
    3.6340    0.7808   -1.0081 C   0  0  0  0  0  0  0  0  0  0  0  0
    4.5301    1.6670   -1.6119 C   0  0  0  0  0  0  0  0  0  0  0  0
    5.8239    1.2226   -1.8942 C   0  0  0  0  0  0  0  0  0  0  0  0
    6.2122   -0.0819   -1.5798 C   0  0  0  0  0  0  0  0  0  0  0  0
    5.3125   -0.9664   -0.9658 C   0  0  0  0  0  0  0  0  0  0  0  0
    5.7595   -2.3642   -0.5854 C   0  0  0  0  0  0  0  0  0  0  0  0
    4.6850   -3.3453   -0.6610 N   0  0  0  0  0  0  0  0  0  0  0  0
    5.1159   -4.7000   -0.3302 C   0  0  0  0  0  0  0  0  0  0  0  0
    4.0061   -5.6888   -0.4976 C   0  0  0  0  0  0  0  0  0  0  0  0
    3.7953   -6.3911   -1.5940 N   0  0  0  0  0  0  0  0  0  0  0  0
    2.7185   -7.1679   -1.3546 N   0  0  0  0  0  0  0  0  0  0  0  0
    2.2631   -6.9754   -0.1696 N   0  0  0  0  0  0  0  0  0  0  0  0
    3.0497   -6.0362    0.4081 N   0  0  0  0  0  0  0  0  0  0  0  0
    2.8139   -5.6111    1.7489 C   0  0  0  0  0  0  0  0  0  0  0  0
    2.3763   -6.5515    2.6907 C   0  0  0  0  0  0  0  0  0  0  0  0
    2.1341   -6.1401    4.0017 C   0  0  0  0  0  0  0  0  0  0  0  0
    2.3343   -4.8061    4.3740 C   0  0  0  0  0  0  0  0  0  0  0  0
    2.7682   -3.8770    3.4246 C   0  0  0  0  0  0  0  0  0  0  0  0
    3.0028   -4.2700    2.1039 C   0  0  0  0  0  0  0  0  0  0  0  0
    4.0119   -0.5244   -0.6834 C   0  0  0  0  0  0  0  0  0  0  0  0
    4.2127    2.6814   -1.8585 H   0  0  0  0  0  0  0  0  0  0  0  0
    6.5335    1.9022   -2.3729 H   0  0  0  0  0  0  0  0  0  0  0  0
    7.2253   -0.4184   -1.8163 H   0  0  0  0  0  0  0  0  0  0  0  0
    6.1299   -2.3544    0.4579 H   0  0  0  0  0  0  0  0  0  0  0  0
    6.6367   -2.6413   -1.2094 H   0  0  0  0  0  0  0  0  0  0  0  0
    4.2749   -3.3401   -1.5961 H   0  0  0  0  0  0  0  0  0  0  0  0
    5.4742   -4.7115    0.7130 H   0  0  0  0  0  0  0  0  0  0  0  0
    5.9508   -5.0572   -0.9663 H   0  0  0  0  0  0  0  0  0  0  0  0
    2.2242   -7.5868    2.3838 H   0  0  0  0  0  0  0  0  0  0  0  0
    1.7903   -6.8697    4.7387 H   0  0  0  0  0  0  0  0  0  0  0  0
    2.1464   -4.4910    5.4032 H   0  0  0  0  0  0  0  0  0  0  0  0
    2.9133   -2.8313    3.7064 H   0  0  0  0  0  0  0  0  0  0  0  0
    3.3131   -3.5495    1.3437 H   0  0  0  0  0  0  0  0  0  0  0  0
    3.2930   -1.1980   -0.2166 H   0  0  0  0  0  0  0  0  0  0  0  0
  1  2  1  0
  2  3  2  0
  2 21  1  0
  3  4  1  0
  3 22  1  0
  4  5  2  0
  4 23  1  0
  5  6  1  0
  5 24  1  0
  6  7  1  0
  6 21  2  0
  7  8  1  0
  7 25  1  0
  7 26  1  0
  8  9  1  0
  8 27  1  0
  9 10  1  0
  9 28  1  0
  9 29  1  0
 10 11  2  0
 10 14  1  0
 11 12  1  0
 12 13  2  0
 13 14  1  0
 14 15  1  0
 15 16  2  0
 15 20  1  0
 16 17  1  0
 16 30  1  0
 17 18  2  0
 17 31  1  0
 18 19  1  0
 18 32  1  0
 19 20  2  0
 19 33  1  0
 20 34  1  0
 21 35  1  0
M  END

