
     RDKit          3D

 50 51  0  0  0  0  0  0  0  0999 V2000
    1.0575    0.3341    0.0574 C   0  0  0  0  0  0  0  0  0  0  0  0
    2.4565    0.1247   -0.2467 N   0  0  0  0  0  0  0  0  0  0  0  0
    2.7012   -0.8062   -1.3452 C   0  0  0  0  0  0  0  0  0  0  0  0
    2.3485   -0.3473   -2.7581 C   0  0  0  0  0  0  0  0  0  0  0  0
    3.3144    0.2281   -3.5987 C   0  0  0  0  0  0  0  0  0  0  0  0
    2.9856    0.6796   -4.8787 C   0  0  0  0  0  0  0  0  0  0  0  0
    1.6752    0.5733   -5.3715 C   0  0  0  0  0  0  0  0  0  0  0  0
    1.3316    1.0227   -6.7732 C   0  0  0  0  0  0  0  0  0  0  0  0
    1.5156   -0.0795   -7.8287 C   0  0  0  0  0  0  0  0  0  0  0  0
    1.2292    0.4325   -9.1639 N   0  0  0  0  0  0  0  0  0  0  0  0
    0.7111   -0.0124   -4.5363 C   0  0  0  0  0  0  0  0  0  0  0  0
    1.0417   -0.4672   -3.2573 C   0  0  0  0  0  0  0  0  0  0  0  0
    3.3993    1.2477   -0.1201 C   0  0  1  0  0  0  0  0  0  0  0  0
    2.9935    2.5899   -0.7898 C   0  0  0  0  0  0  0  0  0  0  0  0
    2.1203    3.5155    0.0728 C   0  0  0  0  0  0  0  0  0  0  0  0
    2.6867    3.7943    1.4875 C   0  0  2  0  0  0  0  0  0  0  0  0
    1.6391    4.5628    2.3102 C   0  0  0  0  0  0  0  0  0  0  0  0
    3.9646    4.6532    1.4075 C   0  0  0  0  0  0  0  0  0  0  0  0
    2.9789    2.4362    2.1724 C   0  0  0  0  0  0  0  0  0  0  0  0
    3.8604    1.4931    1.3403 C   0  0  0  0  0  0  0  0  0  0  0  0
    0.5502   -0.6434    0.1330 H   0  0  0  0  0  0  0  0  0  0  0  0
    0.4962    0.9318   -0.6936 H   0  0  0  0  0  0  0  0  0  0  0  0
    0.9400    0.8311    1.0303 H   0  0  0  0  0  0  0  0  0  0  0  0
    2.1310   -1.7267   -1.1268 H   0  0  0  0  0  0  0  0  0  0  0  0
    3.7677   -1.0856   -1.3221 H   0  0  0  0  0  0  0  0  0  0  0  0
    4.3463    0.3225   -3.2469 H   0  0  0  0  0  0  0  0  0  0  0  0
    3.7614    1.1248   -5.5092 H   0  0  0  0  0  0  0  0  0  0  0  0
    1.9553    1.8814   -7.0694 H   0  0  0  0  0  0  0  0  0  0  0  0
    0.2833    1.3699   -6.8039 H   0  0  0  0  0  0  0  0  0  0  0  0
    0.9055   -0.9602   -7.5298 H   0  0  0  0  0  0  0  0  0  0  0  0
    2.5659   -0.4181   -7.8061 H   0  0  0  0  0  0  0  0  0  0  0  0
    0.2351    0.6490   -9.2538 H   0  0  0  0  0  0  0  0  0  0  0  0
    1.4275   -0.2773   -9.8690 H   0  0  0  0  0  0  0  0  0  0  0  0
   -0.3179   -0.1157   -4.8943 H   0  0  0  0  0  0  0  0  0  0  0  0
    0.2689   -0.9329   -2.6389 H   0  0  0  0  0  0  0  0  0  0  0  0
    4.2963    0.8980   -0.6540 H   0  0  0  0  0  0  0  0  0  0  0  0
    2.4921    2.3874   -1.7488 H   0  0  0  0  0  0  0  0  0  0  0  0
    3.9241    3.1242   -1.0497 H   0  0  0  0  0  0  0  0  0  0  0  0
    1.1128    3.0827    0.1844 H   0  0  0  0  0  0  0  0  0  0  0  0
    1.9758    4.4739   -0.4570 H   0  0  0  0  0  0  0  0  0  0  0  0
    1.3983    5.5322    1.8428 H   0  0  0  0  0  0  0  0  0  0  0  0
    2.0042    4.7648    3.3312 H   0  0  0  0  0  0  0  0  0  0  0  0
    0.7003    3.9911    2.3974 H   0  0  0  0  0  0  0  0  0  0  0  0
    3.7526    5.6233    0.9282 H   0  0  0  0  0  0  0  0  0  0  0  0
    4.7691    4.1719    0.8315 H   0  0  0  0  0  0  0  0  0  0  0  0
    4.3602    4.8593    2.4160 H   0  0  0  0  0  0  0  0  0  0  0  0
    2.0169    1.9472    2.4016 H   0  0  0  0  0  0  0  0  0  0  0  0
    3.4595    2.6159    3.1507 H   0  0  0  0  0  0  0  0  0  0  0  0
    3.9520    0.5164    1.8412 H   0  0  0  0  0  0  0  0  0  0  0  0
    4.8794    1.9159    1.2980 H   0  0  0  0  0  0  0  0  0  0  0  0
  1  2  1  0
  1 21  1  0
  1 22  1  0
  1 23  1  0
  2  3  1  0
  2 13  1  0
  3  4  1  0
  3 24  1  0
  3 25  1  0
  4  5  2  0
  4 12  1  0
  5  6  1  0
  5 26  1  0
  6  7  2  0
  6 27  1  0
  7  8  1  0
  7 11  1  0
  8  9  1  0
  8 28  1  0
  8 29  1  0
  9 10  1  0
  9 30  1  0
  9 31  1  0
 10 32  1  0
 10 33  1  0
 11 12  2  0
 11 34  1  0
 12 35  1  0
 13 14  1  0
 13 20  1  0
 13 36  1  6
 14 15  1  0
 14 37  1  0
 14 38  1  0
 15 16  1  0
 15 39  1  0
 15 40  1  0
 16 17  1  1
 16 18  1  0
 16 19  1  0
 17 41  1  0
 17 42  1  0
 17 43  1  0
 18 44  1  0
 18 45  1  0
 18 46  1  0
 19 20  1  0
 19 47  1  0
 19 48  1  0
 20 49  1  0
 20 50  1  0
M  END

