
     RDKit          3D

 44 45  0  0  0  0  0  0  0  0999 V2000
    4.6793    2.3156    2.6914 C   0  0  0  0  0  0  0  0  0  0  0  0
    6.2251    2.8688    1.8735 S   0  0  0  0  0  0  0  0  0  0  0  0
    7.3264    2.6045    2.8755 O   0  0  0  0  0  0  0  0  0  0  0  0
    6.4125    1.4443    0.6704 C   0  0  0  0  0  0  0  0  0  0  0  0
    5.6124    1.4508   -0.6400 C   0  0  2  0  0  0  0  0  0  0  0  0
    4.2834    1.8439   -0.3461 O   0  0  0  0  0  0  0  0  0  0  0  0
    5.7185    0.0871   -1.3919 C   0  0  0  0  0  0  0  0  0  0  0  0
    4.7455   -1.0961   -1.0583 C   0  0  1  0  0  0  0  0  0  0  0  0
    4.7184   -1.4234    0.4440 C   0  0  0  0  0  0  0  0  0  0  0  0
    3.2875   -0.8050   -1.5020 C   0  0  0  0  0  0  0  0  0  0  0  0
    5.2631   -2.2961   -1.8822 C   0  0  0  0  0  0  0  0  0  0  0  0
    5.7183   -3.4881   -1.2877 C   0  0  0  0  0  0  0  0  0  0  0  0
    6.1790   -4.5584   -2.0527 C   0  0  0  0  0  0  0  0  0  0  0  0
    6.5916   -5.6706   -1.4183 F   0  0  0  0  0  0  0  0  0  0  0  0
    6.2288   -4.5167   -3.4448 C   0  0  0  0  0  0  0  0  0  0  0  0
    5.7827   -3.3481   -4.0542 C   0  0  0  0  0  0  0  0  0  0  0  0
    5.3126   -2.2746   -3.2882 C   0  0  0  0  0  0  0  0  0  0  0  0
    4.9325   -1.2115   -4.0662 O   0  0  0  0  0  0  0  0  0  0  0  0
    4.9063   -1.6483   -5.4402 C   0  0  0  0  0  0  0  0  0  0  0  0
    5.7555   -2.9345   -5.5076 C   0  0  0  0  0  0  0  0  0  0  0  0
    6.1978    2.5329   -1.5885 C   0  0  1  0  0  0  0  0  0  0  0  0
    6.2621    3.7384   -1.0154 F   0  0  0  0  0  0  0  0  0  0  0  0
    7.4311    2.2145   -2.0100 F   0  0  0  0  0  0  0  0  0  0  0  0
    5.4115    2.6586   -2.6816 F   0  0  0  0  0  0  0  0  0  0  0  0
    4.4987    3.0384    3.4992 H   0  0  0  0  0  0  0  0  0  0  0  0
    4.8597    1.3194    3.1212 H   0  0  0  0  0  0  0  0  0  0  0  0
    3.8551    2.3096    1.9673 H   0  0  0  0  0  0  0  0  0  0  0  0
    6.2253    0.5400    1.2602 H   0  0  0  0  0  0  0  0  0  0  0  0
    7.4905    1.4818    0.4586 H   0  0  0  0  0  0  0  0  0  0  0  0
    3.7843    1.8837   -1.1744 H   0  0  0  0  0  0  0  0  0  0  0  0
    6.7511   -0.2715   -1.2605 H   0  0  0  0  0  0  0  0  0  0  0  0
    5.6066    0.2854   -2.4666 H   0  0  0  0  0  0  0  0  0  0  0  0
    4.2971   -0.5787    1.0056 H   0  0  0  0  0  0  0  0  0  0  0  0
    5.7185   -1.6425    0.8486 H   0  0  0  0  0  0  0  0  0  0  0  0
    4.0772   -2.2962    0.6415 H   0  0  0  0  0  0  0  0  0  0  0  0
    2.8246   -0.0452   -0.8576 H   0  0  0  0  0  0  0  0  0  0  0  0
    2.6831   -1.7218   -1.4167 H   0  0  0  0  0  0  0  0  0  0  0  0
    3.2422   -0.4721   -2.5480 H   0  0  0  0  0  0  0  0  0  0  0  0
    5.7204   -3.6169   -0.2065 H   0  0  0  0  0  0  0  0  0  0  0  0
    6.6058   -5.3727   -4.0075 H   0  0  0  0  0  0  0  0  0  0  0  0
    5.2849   -0.8268   -6.0640 H   0  0  0  0  0  0  0  0  0  0  0  0
    3.8560   -1.8468   -5.7180 H   0  0  0  0  0  0  0  0  0  0  0  0
    6.7774   -2.7346   -5.8754 H   0  0  0  0  0  0  0  0  0  0  0  0
    5.3100   -3.6911   -6.1713 H   0  0  0  0  0  0  0  0  0  0  0  0
  1  2  1  0
  1 25  1  0
  1 26  1  0
  1 27  1  0
  2  3  1  1
  2  4  1  0
  4  5  1  0
  4 28  1  0
  4 29  1  0
  5  6  1  1
  5  7  1  0
  5 21  1  0
  6 30  1  0
  8  7  1  1
  7 31  1  0
  7 32  1  0
  8  9  1  0
  8 10  1  0
  8 11  1  0
  9 33  1  0
  9 34  1  0
  9 35  1  0
 10 36  1  0
 10 37  1  0
 10 38  1  0
 11 12  2  0
 11 17  1  0
 12 13  1  0
 12 39  1  0
 13 14  1  0
 13 15  2  0
 15 16  1  0
 15 40  1  0
 16 17  2  0
 16 20  1  0
 17 18  1  0
 18 19  1  0
 19 20  1  0
 19 41  1  0
 19 42  1  0
 20 43  1  0
 20 44  1  0
 21 22  1  1
 21 23  1  0
 21 24  1  0
M  CHG  2   2   1   3  -1
M  END

