
     RDKit          3D

 30 31  0  0  0  0  0  0  0  0999 V2000
    0.2736   -0.2390   -1.7920 C   0  0  0  0  0  0  0  0  0  0  0  0
    1.3255   -1.0310   -1.2758 O   0  0  0  0  0  0  0  0  0  0  0  0
    2.4761   -1.1744   -1.9929 C   0  0  0  0  0  0  0  0  0  0  0  0
    2.7124   -0.5891   -3.2304 C   0  0  0  0  0  0  0  0  0  0  0  0
    3.9439   -0.8052   -3.8875 C   0  0  0  0  0  0  0  0  0  0  0  0
    4.1817   -0.1982   -5.1650 C   0  0  0  0  0  0  0  0  0  0  0  0
    4.3684    0.2963   -6.1997 N   0  0  0  0  0  0  0  0  0  0  0  0
    4.9190   -1.6106   -3.2833 C   0  0  0  0  0  0  0  0  0  0  0  0
    4.6835   -2.1990   -2.0398 C   0  0  0  0  0  0  0  0  0  0  0  0
    3.4666   -1.9938   -1.3744 C   0  0  0  0  0  0  0  0  0  0  0  0
    3.1086   -2.5213   -0.1341 N   0  0  0  0  0  0  0  0  0  0  0  0
    3.7847   -3.3321    0.7445 C   0  0  0  0  0  0  0  0  0  0  0  0
    5.0201   -3.7517    0.4446 N   0  0  0  0  0  0  0  0  0  0  0  0
    5.6254   -4.5353    1.3318 C   0  0  0  0  0  0  0  0  0  0  0  0
    5.1276   -4.9481    2.4912 N   0  0  0  0  0  0  0  0  0  0  0  0
    3.9031   -4.5288    2.7826 C   0  0  0  0  0  0  0  0  0  0  0  0
    3.2606   -5.0841    4.3198 Cl  0  0  0  0  0  0  0  0  0  0  0  0
    3.1333   -3.7018    1.9615 C   0  0  0  0  0  0  0  0  0  0  0  0
    1.7464   -3.2196    2.2821 C   0  0  0  0  0  0  0  0  0  0  0  0
    0.5895    0.8091   -1.9334 H   0  0  0  0  0  0  0  0  0  0  0  0
   -0.5362   -0.2735   -1.0517 H   0  0  0  0  0  0  0  0  0  0  0  0
   -0.0976   -0.6369   -2.7523 H   0  0  0  0  0  0  0  0  0  0  0  0
    1.9596    0.0378   -3.7057 H   0  0  0  0  0  0  0  0  0  0  0  0
    5.8710   -1.7794   -3.7889 H   0  0  0  0  0  0  0  0  0  0  0  0
    5.4342   -2.8246   -1.5648 H   0  0  0  0  0  0  0  0  0  0  0  0
    2.1766   -2.2392    0.1485 H   0  0  0  0  0  0  0  0  0  0  0  0
    6.6370   -4.8747    1.0792 H   0  0  0  0  0  0  0  0  0  0  0  0
    1.4159   -3.5921    3.2580 H   0  0  0  0  0  0  0  0  0  0  0  0
    1.0175   -3.5617    1.5261 H   0  0  0  0  0  0  0  0  0  0  0  0
    1.7016   -2.1164    2.3087 H   0  0  0  0  0  0  0  0  0  0  0  0
  1  2  1  0
  1 20  1  0
  1 21  1  0
  1 22  1  0
  2  3  1  0
  3  4  2  0
  3 10  1  0
  4  5  1  0
  4 23  1  0
  5  6  1  0
  5  8  2  0
  6  7  3  0
  8  9  1  0
  8 24  1  0
  9 10  2  0
  9 25  1  0
 10 11  1  0
 11 12  1  0
 11 26  1  0
 12 13  2  0
 12 18  1  0
 13 14  1  0
 14 15  2  0
 14 27  1  0
 15 16  1  0
 16 17  1  0
 16 18  2  0
 18 19  1  0
 19 28  1  0
 19 29  1  0
 19 30  1  0
M  END

