
     RDKit          3D

 32 33  0  0  0  0  0  0  0  0999 V2000
    1.3728    0.3267    0.2868 C   0  0  0  0  0  0  0  0  0  0  0  0
    2.8164   -0.1212    0.0586 C   0  0  0  0  0  0  0  0  0  0  0  0
    3.0879   -1.6097    0.3442 C   0  0  1  0  0  0  0  0  0  0  0  0
    2.2143   -2.5885   -0.4775 C   0  0  0  0  0  0  0  0  0  0  0  0
    2.3663   -2.4788   -1.9957 C   0  0  0  0  0  0  0  0  0  0  0  0
    4.5155   -1.8492    0.1822 N   0  0  0  0  0  0  0  0  0  0  0  0
    5.2304   -2.9050    0.7150 C   0  0  0  0  0  0  0  0  0  0  0  0
    6.5602   -3.1312    0.2778 C   0  0  0  0  0  0  0  0  0  0  0  0
    7.3630   -4.1534    0.8025 C   0  0  0  0  0  0  0  0  0  0  0  0
    6.8000   -4.9540    1.7787 C   0  0  0  0  0  0  0  0  0  0  0  0
    5.4992   -4.7474    2.2115 C   0  0  0  0  0  0  0  0  0  0  0  0
    4.6802   -3.7505    1.7162 C   0  0  0  0  0  0  0  0  0  0  0  0
    5.2069   -5.6884    3.1740 O   0  0  0  0  0  0  0  0  0  0  0  0
    6.3412   -6.4750    3.3290 C   0  0  1  0  0  0  0  0  0  0  0  0
    6.7647   -6.4210    4.5993 F   0  0  0  0  0  0  0  0  0  0  0  0
    6.0455   -7.7578    3.0776 F   0  0  0  0  0  0  0  0  0  0  0  0
    7.3286   -6.0317    2.4726 O   0  0  0  0  0  0  0  0  0  0  0  0
    1.2773    1.4155    0.1527 H   0  0  0  0  0  0  0  0  0  0  0  0
    1.0354    0.0892    1.3096 H   0  0  0  0  0  0  0  0  0  0  0  0
    0.6709   -0.1519   -0.4141 H   0  0  0  0  0  0  0  0  0  0  0  0
    3.4929    0.4638    0.7038 H   0  0  0  0  0  0  0  0  0  0  0  0
    3.1141    0.1106   -0.9807 H   0  0  0  0  0  0  0  0  0  0  0  0
    2.8459   -1.7741    1.4094 H   0  0  0  0  0  0  0  0  0  0  0  0
    1.1577   -2.4435   -0.1945 H   0  0  0  0  0  0  0  0  0  0  0  0
    2.4684   -3.6142   -0.1621 H   0  0  0  0  0  0  0  0  0  0  0  0
    2.0190   -1.5068   -2.3819 H   0  0  0  0  0  0  0  0  0  0  0  0
    1.7805   -3.2598   -2.5051 H   0  0  0  0  0  0  0  0  0  0  0  0
    3.4168   -2.6069   -2.3043 H   0  0  0  0  0  0  0  0  0  0  0  0
    4.9589   -1.3712   -0.5925 H   0  0  0  0  0  0  0  0  0  0  0  0
    6.9757   -2.4781   -0.4940 H   0  0  0  0  0  0  0  0  0  0  0  0
    8.3845   -4.3087    0.4524 H   0  0  0  0  0  0  0  0  0  0  0  0
    3.6658   -3.6336    2.0922 H   0  0  0  0  0  0  0  0  0  0  0  0
  1  2  1  0
  1 18  1  0
  1 19  1  0
  1 20  1  0
  2  3  1  0
  2 21  1  0
  2 22  1  0
  3  4  1  0
  3  6  1  0
  3 23  1  1
  4  5  1  0
  4 24  1  0
  4 25  1  0
  5 26  1  0
  5 27  1  0
  5 28  1  0
  6  7  1  0
  6 29  1  0
  7  8  2  0
  7 12  1  0
  8  9  1  0
  8 30  1  0
  9 10  2  0
  9 31  1  0
 10 11  1  0
 10 17  1  0
 11 12  2  0
 11 13  1  0
 12 32  1  0
 13 14  1  0
 14 15  1  1
 14 16  1  0
 14 17  1  0
M  END

