
     RDKit          3D

 57 58  0  0  0  0  0  0  0  0999 V2000
    3.7799    1.2488   -1.8740 C   0  0  0  0  0  0  0  0  0  0  0  0
    3.1573    0.5154   -0.6865 C   0  0  0  0  0  0  0  0  0  0  0  0
    3.3371   -1.0064   -0.7130 C   0  0  0  0  0  0  0  0  0  0  0  0
    4.7497   -1.4189   -0.7342 N   0  0  0  0  0  0  0  0  0  0  0  0
    5.6007   -1.0792    0.4133 C   0  0  0  0  0  0  0  0  0  0  0  0
    5.1754   -1.6665    1.7650 C   0  0  0  0  0  0  0  0  0  0  0  0
    6.1627   -1.3112    2.8772 C   0  0  0  0  0  0  0  0  0  0  0  0
    5.1329   -2.8531   -1.5269 S   0  0  1  0  0  0  0  0  0  0  0  0
    5.4303   -3.9329   -0.5797 O   0  0  0  0  0  0  0  0  0  0  0  0
    4.0916   -3.0492   -2.5422 O   0  0  0  0  0  0  0  0  0  0  0  0
    6.6074   -2.4395   -2.2244 N   0  0  0  0  0  0  0  0  0  0  0  0
    7.6603   -3.4674   -2.2917 C   0  0  0  0  0  0  0  0  0  0  0  0
    7.6098   -4.2447   -3.6166 C   0  0  0  0  0  0  0  0  0  0  0  0
    7.6051   -3.3761   -4.7923 N   0  0  0  0  0  0  0  0  0  0  0  0
    8.9083   -2.8708   -5.2131 C   0  0  0  0  0  0  0  0  0  0  0  0
    9.7476   -3.9118   -5.9869 C   0  0  1  0  0  0  0  0  0  0  0  0
    9.0489   -4.4150   -7.2662 C   0  0  0  0  0  0  0  0  0  0  0  0
    9.1232   -3.4037   -8.4139 C   0  0  0  0  0  0  0  0  0  0  0  0
   10.5112   -3.0350   -8.6668 N   0  0  0  0  0  0  0  0  0  0  0  0
   11.1403   -2.4015   -7.5161 C   0  0  0  0  0  0  0  0  0  0  0  0
   11.1529   -3.3744   -6.3317 C   0  0  0  0  0  0  0  0  0  0  0  0
    6.5244   -2.3983   -4.7068 C   0  0  0  0  0  0  0  0  0  0  0  0
    6.5507   -1.5701   -3.4112 C   0  0  0  0  0  0  0  0  0  0  0  0
    3.5699    2.3292   -1.8284 H   0  0  0  0  0  0  0  0  0  0  0  0
    3.3808    0.8699   -2.8297 H   0  0  0  0  0  0  0  0  0  0  0  0
    4.8734    1.1212   -1.8977 H   0  0  0  0  0  0  0  0  0  0  0  0
    2.0697    0.7027   -0.6590 H   0  0  0  0  0  0  0  0  0  0  0  0
    3.5488    0.9303    0.2589 H   0  0  0  0  0  0  0  0  0  0  0  0
    2.8721   -1.4166   -1.6185 H   0  0  0  0  0  0  0  0  0  0  0  0
    2.8082   -1.4527    0.1499 H   0  0  0  0  0  0  0  0  0  0  0  0
    5.6469    0.0221    0.4777 H   0  0  0  0  0  0  0  0  0  0  0  0
    6.6225   -1.4062    0.1673 H   0  0  0  0  0  0  0  0  0  0  0  0
    5.0946   -2.7596    1.6590 H   0  0  0  0  0  0  0  0  0  0  0  0
    4.1713   -1.2961    2.0351 H   0  0  0  0  0  0  0  0  0  0  0  0
    7.1695   -1.7067    2.6613 H   0  0  0  0  0  0  0  0  0  0  0  0
    5.8437   -1.7304    3.8441 H   0  0  0  0  0  0  0  0  0  0  0  0
    6.2572   -0.2192    3.0048 H   0  0  0  0  0  0  0  0  0  0  0  0
    7.5503   -4.1392   -1.4313 H   0  0  0  0  0  0  0  0  0  0  0  0
    8.6259   -2.9419   -2.1852 H   0  0  0  0  0  0  0  0  0  0  0  0
    6.6915   -4.8589   -3.6280 H   0  0  0  0  0  0  0  0  0  0  0  0
    8.4600   -4.9423   -3.6719 H   0  0  0  0  0  0  0  0  0  0  0  0
    9.5253   -2.4959   -4.3663 H   0  0  0  0  0  0  0  0  0  0  0  0
    8.7286   -1.9941   -5.8551 H   0  0  0  0  0  0  0  0  0  0  0  0
    9.8828   -4.7781   -5.3158 H   0  0  0  0  0  0  0  0  0  0  0  0
    7.9989   -4.6546   -7.0374 H   0  0  0  0  0  0  0  0  0  0  0  0
    9.5418   -5.3443   -7.5982 H   0  0  0  0  0  0  0  0  0  0  0  0
    8.4843   -2.5206   -8.1752 H   0  0  0  0  0  0  0  0  0  0  0  0
    8.7016   -3.8518   -9.3288 H   0  0  0  0  0  0  0  0  0  0  0  0
   10.5809   -2.4374   -9.4878 H   0  0  0  0  0  0  0  0  0  0  0  0
   10.6326   -1.4541   -7.2159 H   0  0  0  0  0  0  0  0  0  0  0  0
   12.1754   -2.1280   -7.7802 H   0  0  0  0  0  0  0  0  0  0  0  0
   11.6085   -2.8882   -5.4513 H   0  0  0  0  0  0  0  0  0  0  0  0
   11.7998   -4.2257   -6.6017 H   0  0  0  0  0  0  0  0  0  0  0  0
    5.5607   -2.9341   -4.7430 H   0  0  0  0  0  0  0  0  0  0  0  0
    6.5657   -1.7303   -5.5822 H   0  0  0  0  0  0  0  0  0  0  0  0
    5.6675   -0.9207   -3.3378 H   0  0  0  0  0  0  0  0  0  0  0  0
    7.4403   -0.9156   -3.3812 H   0  0  0  0  0  0  0  0  0  0  0  0
  1  2  1  0
  1 24  1  0
  1 25  1  0
  1 26  1  0
  2  3  1  0
  2 27  1  0
  2 28  1  0
  3  4  1  0
  3 29  1  0
  3 30  1  0
  4  5  1  0
  8  4  1  1
  5  6  1  0
  5 31  1  0
  5 32  1  0
  6  7  1  0
  6 33  1  0
  6 34  1  0
  7 35  1  0
  7 36  1  0
  7 37  1  0
  8  9  2  0
  8 10  2  0
  8 11  1  0
 11 12  1  0
 11 23  1  0
 12 13  1  0
 12 38  1  0
 12 39  1  0
 13 14  1  0
 13 40  1  0
 13 41  1  0
 14 15  1  0
 14 22  1  0
 15 16  1  0
 15 42  1  0
 15 43  1  0
 16 17  1  0
 16 21  1  0
 16 44  1  1
 17 18  1  0
 17 45  1  0
 17 46  1  0
 18 19  1  0
 18 47  1  0
 18 48  1  0
 19 20  1  0
 19 49  1  0
 20 21  1  0
 20 50  1  0
 20 51  1  0
 21 52  1  0
 21 53  1  0
 22 23  1  0
 22 54  1  0
 22 55  1  0
 23 56  1  0
 23 57  1  0
M  END

