
     RDKit          3D

 49 52  0  0  0  0  0  0  0  0999 V2000
    4.3763    0.0354   -2.3006 O   0  0  0  0  0  0  0  0  0  0  0  0
    3.4487   -0.0316   -1.5225 C   0  0  0  0  0  0  0  0  0  0  0  0
    3.5898   -0.2709   -0.2005 O   0  0  0  0  0  0  0  0  0  0  0  0
    4.8947   -0.5807    0.2448 C   0  0  0  0  0  0  0  0  0  0  0  0
    5.2482   -2.0479   -0.0401 C   0  0  0  0  0  0  0  0  0  0  0  0
    4.4744   -2.7758   -0.6286 O   0  0  0  0  0  0  0  0  0  0  0  0
    6.5596   -2.5062    0.4381 C   0  0  0  0  0  0  0  0  0  0  0  0
    7.5647   -1.8259    1.1051 C   0  0  0  0  0  0  0  0  0  0  0  0
    8.6907   -2.6355    1.3983 C   0  0  0  0  0  0  0  0  0  0  0  0
    8.5432   -3.9359    0.9549 C   0  0  0  0  0  0  0  0  0  0  0  0
    9.5123   -5.0830    1.0154 C   0  0  0  0  0  0  0  0  0  0  0  0
   10.2839   -5.2124    2.3411 C   0  0  0  0  0  0  0  0  0  0  0  0
   10.2311   -4.3528    3.2042 O   0  0  0  0  0  0  0  0  0  0  0  0
   11.0535   -6.3424    2.4903 N   0  0  0  0  0  0  0  0  0  0  0  0
   11.8686   -6.4932    3.6963 C   0  0  0  0  0  0  0  0  0  0  0  0
   11.7144   -7.9049    4.2544 C   0  0  0  0  0  0  0  0  0  0  0  0
   12.0072   -8.8823    3.2727 O   0  0  0  0  0  0  0  0  0  0  0  0
   11.1653   -8.7644    2.1490 C   0  0  0  0  0  0  0  0  0  0  0  0
   11.2891   -7.3844    1.4961 C   0  0  0  0  0  0  0  0  0  0  0  0
    7.0127   -4.1668    0.1723 S   0  0  0  0  0  0  0  0  0  0  0  0
    2.0502    0.1782   -1.9063 C   0  0  0  0  0  0  0  0  0  0  0  0
    0.8735    0.1530   -1.1805 C   0  0  0  0  0  0  0  0  0  0  0  0
   -0.1850    0.4365   -2.1004 C   0  0  0  0  0  0  0  0  0  0  0  0
   -1.5873    0.5508   -1.9815 C   0  0  0  0  0  0  0  0  0  0  0  0
   -2.3371    0.8430   -3.1120 C   0  0  0  0  0  0  0  0  0  0  0  0
   -1.7181    1.0260   -4.3727 C   0  0  0  0  0  0  0  0  0  0  0  0
   -0.3414    0.9209   -4.5273 C   0  0  0  0  0  0  0  0  0  0  0  0
    0.4201    0.6256   -3.3839 C   0  0  0  0  0  0  0  0  0  0  0  0
    1.7709    0.4641   -3.2290 N   0  0  0  0  0  0  0  0  0  0  0  0
    2.4897    0.5203   -3.9403 H   0  0  0  0  0  0  0  0  0  0  0  0
    4.9047   -0.3981    1.3297 H   0  0  0  0  0  0  0  0  0  0  0  0
    5.6398    0.0721   -0.2375 H   0  0  0  0  0  0  0  0  0  0  0  0
    7.4985   -0.7717    1.3793 H   0  0  0  0  0  0  0  0  0  0  0  0
    9.5713   -2.2932    1.9382 H   0  0  0  0  0  0  0  0  0  0  0  0
   10.2597   -4.9797    0.2060 H   0  0  0  0  0  0  0  0  0  0  0  0
    8.9771   -6.0213    0.8031 H   0  0  0  0  0  0  0  0  0  0  0  0
   11.5493   -5.7341    4.4212 H   0  0  0  0  0  0  0  0  0  0  0  0
   12.9317   -6.3119    3.4476 H   0  0  0  0  0  0  0  0  0  0  0  0
   10.6818   -8.0425    4.6361 H   0  0  0  0  0  0  0  0  0  0  0  0
   12.4149   -8.0670    5.0873 H   0  0  0  0  0  0  0  0  0  0  0  0
   10.1066   -8.9361    2.4366 H   0  0  0  0  0  0  0  0  0  0  0  0
   11.4617   -9.5493    1.4364 H   0  0  0  0  0  0  0  0  0  0  0  0
   10.5793   -7.3071    0.6642 H   0  0  0  0  0  0  0  0  0  0  0  0
   12.3088   -7.2756    1.0778 H   0  0  0  0  0  0  0  0  0  0  0  0
    0.7952   -0.0510   -0.1157 H   0  0  0  0  0  0  0  0  0  0  0  0
   -2.0713    0.4097   -1.0117 H   0  0  0  0  0  0  0  0  0  0  0  0
   -3.4233    0.9340   -3.0344 H   0  0  0  0  0  0  0  0  0  0  0  0
   -2.3383    1.2546   -5.2432 H   0  0  0  0  0  0  0  0  0  0  0  0
    0.1317    1.0622   -5.5020 H   0  0  0  0  0  0  0  0  0  0  0  0
  1  2  2  0
  2  3  1  0
  2 21  1  0
  3  4  1  0
  4  5  1  0
  4 31  1  0
  4 32  1  0
  5  6  2  0
  5  7  1  0
  7  8  2  0
  7 20  1  0
  8  9  1  0
  8 33  1  0
  9 10  2  0
  9 34  1  0
 10 11  1  0
 10 20  1  0
 11 12  1  0
 11 35  1  0
 11 36  1  0
 12 13  2  0
 12 14  1  0
 14 15  1  0
 14 19  1  0
 15 16  1  0
 15 37  1  0
 15 38  1  0
 16 17  1  0
 16 39  1  0
 16 40  1  0
 17 18  1  0
 18 19  1  0
 18 41  1  0
 18 42  1  0
 19 43  1  0
 19 44  1  0
 21 22  2  0
 21 29  1  0
 22 23  1  0
 22 45  1  0
 23 24  2  0
 23 28  1  0
 24 25  1  0
 24 46  1  0
 25 26  2  0
 25 47  1  0
 26 27  1  0
 26 48  1  0
 27 28  2  0
 27 49  1  0
 28 29  1  0
 29 30  1  0
M  END

