
     RDKit          3D

 58 61  0  0  0  0  0  0  0  0999 V2000
    4.9330    4.8208   -3.7916 C   0  0  0  0  0  0  0  0  0  0  0  0
    5.7763    3.7921   -3.3441 O   0  0  0  0  0  0  0  0  0  0  0  0
    5.2949    2.5009   -3.6048 C   0  0  0  0  0  0  0  0  0  0  0  0
    6.3191    1.5077   -3.0530 C   0  0  0  0  0  0  0  0  0  0  0  0
    5.9421    0.1219   -3.2544 N   0  0  0  0  0  0  0  0  0  0  0  0
    5.1811   -0.6349   -2.3746 C   0  0  0  0  0  0  0  0  0  0  0  0
    4.6988   -0.1124   -1.0591 C   0  0  0  0  0  0  0  0  0  0  0  0
    4.9980   -1.8766   -2.9464 C   0  0  0  0  0  0  0  0  0  0  0  0
    5.6550   -1.8793   -4.2146 C   0  0  0  0  0  0  0  0  0  0  0  0
    5.7846   -3.0360   -5.1578 C   0  0  1  0  0  0  0  0  0  0  0  0
    6.9731   -4.0298   -4.8869 C   0  0  1  0  0  0  0  0  0  0  0  0
    7.4759   -4.0885   -3.4507 C   0  0  0  0  0  0  0  0  0  0  0  0
    6.9433   -4.9774   -2.5051 C   0  0  0  0  0  0  0  0  0  0  0  0
    7.4584   -4.9611   -1.2076 C   0  0  0  0  0  0  0  0  0  0  0  0
    8.4826   -4.0642   -0.8996 C   0  0  0  0  0  0  0  0  0  0  0  0
    8.9506   -3.2247   -1.9156 C   0  0  0  0  0  0  0  0  0  0  0  0
    8.4678   -3.2377   -3.1586 N   0  0  0  0  0  0  0  0  0  0  0  0
    6.3843   -5.2675   -5.3559 N   0  0  0  0  0  0  0  0  0  0  0  0
    5.0173   -5.2579   -5.3696 C   0  0  0  0  0  0  0  0  0  0  0  0
    4.0879   -6.6192   -5.6054 S   0  0  0  0  0  0  0  0  0  0  0  0
    4.6186   -3.9518   -5.1643 N   0  0  0  0  0  0  0  0  0  0  0  0
    3.2906   -3.4688   -5.3241 C   0  0  0  0  0  0  0  0  0  0  0  0
    3.0382   -2.3524   -6.1330 C   0  0  0  0  0  0  0  0  0  0  0  0
    1.7353   -1.8691   -6.2723 C   0  0  0  0  0  0  0  0  0  0  0  0
    0.6982   -2.5118   -5.6091 C   0  0  0  0  0  0  0  0  0  0  0  0
   -0.5579   -2.0439   -5.7497 F   0  0  0  0  0  0  0  0  0  0  0  0
    0.9072   -3.6286   -4.7903 C   0  0  0  0  0  0  0  0  0  0  0  0
   -0.2548   -4.2857   -4.0924 C   0  0  0  0  0  0  0  0  0  0  0  0
    2.2220   -4.0872   -4.6548 C   0  0  0  0  0  0  0  0  0  0  0  0
    6.2322   -0.6282   -4.3831 C   0  0  0  0  0  0  0  0  0  0  0  0
    7.1031   -0.1104   -5.4838 C   0  0  0  0  0  0  0  0  0  0  0  0
    5.4068    5.7796   -3.5354 H   0  0  0  0  0  0  0  0  0  0  0  0
    3.9355    4.7794   -3.3089 H   0  0  0  0  0  0  0  0  0  0  0  0
    4.7807    4.7845   -4.8895 H   0  0  0  0  0  0  0  0  0  0  0  0
    5.1518    2.3363   -4.6936 H   0  0  0  0  0  0  0  0  0  0  0  0
    4.3071    2.3344   -3.1263 H   0  0  0  0  0  0  0  0  0  0  0  0
    6.4515    1.6987   -1.9784 H   0  0  0  0  0  0  0  0  0  0  0  0
    7.2916    1.6996   -3.5290 H   0  0  0  0  0  0  0  0  0  0  0  0
    5.5284    0.1781   -0.3902 H   0  0  0  0  0  0  0  0  0  0  0  0
    4.1227   -0.8947   -0.5455 H   0  0  0  0  0  0  0  0  0  0  0  0
    4.0404    0.7679   -1.1610 H   0  0  0  0  0  0  0  0  0  0  0  0
    4.4356   -2.6967   -2.5060 H   0  0  0  0  0  0  0  0  0  0  0  0
    5.9380   -2.6538   -6.1839 H   0  0  0  0  0  0  0  0  0  0  0  0
    7.8336   -3.7222   -5.4995 H   0  0  0  0  0  0  0  0  0  0  0  0
    6.1449   -5.6695   -2.7806 H   0  0  0  0  0  0  0  0  0  0  0  0
    7.0642   -5.6414   -0.4480 H   0  0  0  0  0  0  0  0  0  0  0  0
    8.9178   -4.0181    0.1013 H   0  0  0  0  0  0  0  0  0  0  0  0
    9.7616   -2.5144   -1.7141 H   0  0  0  0  0  0  0  0  0  0  0  0
    6.8556   -6.1625   -5.3079 H   0  0  0  0  0  0  0  0  0  0  0  0
    3.8518   -1.8518   -6.6581 H   0  0  0  0  0  0  0  0  0  0  0  0
    1.5136   -1.0009   -6.8959 H   0  0  0  0  0  0  0  0  0  0  0  0
   -0.8078   -3.5653   -3.4677 H   0  0  0  0  0  0  0  0  0  0  0  0
    0.0856   -5.1117   -3.4524 H   0  0  0  0  0  0  0  0  0  0  0  0
   -0.9768   -4.6924   -4.8198 H   0  0  0  0  0  0  0  0  0  0  0  0
    2.4218   -4.9543   -4.0265 H   0  0  0  0  0  0  0  0  0  0  0  0
    7.0841   -0.7988   -6.3406 H   0  0  0  0  0  0  0  0  0  0  0  0
    8.1584   -0.0232   -5.1691 H   0  0  0  0  0  0  0  0  0  0  0  0
    6.7846    0.8782   -5.8540 H   0  0  0  0  0  0  0  0  0  0  0  0
  1  2  1  0
  1 32  1  0
  1 33  1  0
  1 34  1  0
  2  3  1  0
  3  4  1  0
  3 35  1  0
  3 36  1  0
  4  5  1  0
  4 37  1  0
  4 38  1  0
  5  6  1  0
  5 30  1  0
  6  7  1  0
  6  8  2  0
  7 39  1  0
  7 40  1  0
  7 41  1  0
  8  9  1  0
  8 42  1  0
  9 10  1  0
  9 30  2  0
 10 11  1  0
 10 21  1  0
 10 43  1  6
 11 12  1  0
 11 18  1  0
 11 44  1  6
 12 13  2  0
 12 17  1  0
 13 14  1  0
 13 45  1  0
 14 15  2  0
 14 46  1  0
 15 16  1  0
 15 47  1  0
 16 17  2  0
 16 48  1  0
 18 19  1  0
 18 49  1  0
 19 20  2  0
 19 21  1  0
 21 22  1  0
 22 23  2  0
 22 29  1  0
 23 24  1  0
 23 50  1  0
 24 25  2  0
 24 51  1  0
 25 26  1  0
 25 27  1  0
 27 28  1  0
 27 29  2  0
 28 52  1  0
 28 53  1  0
 28 54  1  0
 29 55  1  0
 30 31  1  0
 31 56  1  0
 31 57  1  0
 31 58  1  0
M  END

