
     RDKit          3D

 57 59  0  0  0  0  0  0  0  0999 V2000
    4.3042    0.9373    1.7045 C   0  0  0  0  0  0  0  0  0  0  0  0
    4.2214   -0.2705    0.9391 O   0  0  0  0  0  0  0  0  0  0  0  0
    5.2864   -0.5791    0.1963 C   0  0  0  0  0  0  0  0  0  0  0  0
    6.2905    0.0920    0.1457 O   0  0  0  0  0  0  0  0  0  0  0  0
    5.0971   -1.8793   -0.5746 C   0  0  1  0  0  0  0  0  0  0  0  0
    3.7052   -2.4997   -0.5582 C   0  0  0  0  0  0  0  0  0  0  0  0
    5.5837   -1.5673   -2.3363 S   0  0  1  0  0  0  0  0  0  0  0  0
    5.2902   -2.7891   -3.0838 O   0  0  0  0  0  0  0  0  0  0  0  0
    5.0061   -0.2785   -2.7591 O   0  0  0  0  0  0  0  0  0  0  0  0
    7.3663   -1.3931   -2.2363 C   0  0  0  0  0  0  0  0  0  0  0  0
    8.1111   -2.3952   -1.8429 N   0  0  0  0  0  0  0  0  0  0  0  0
    9.3959   -1.9584   -1.8303 N   0  0  0  0  0  0  0  0  0  0  0  0
    9.4020   -0.6985   -2.2211 C   0  0  0  0  0  0  0  0  0  0  0  0
   10.6110    0.1977   -2.2913 C   0  0  1  0  0  0  0  0  0  0  0  0
   10.4550    0.8864   -3.1486 H   0  0  0  0  0  0  0  0  0  0  0  0
   10.7503    0.8973   -1.0101 N   0  0  0  0  0  0  0  0  0  0  0  0
   11.9016   -0.6023   -2.5789 C   0  0  0  0  0  0  0  0  0  0  0  0
   12.0037   -1.1339   -3.9922 C   0  0  0  0  0  0  0  0  0  0  0  0
   12.5134   -0.3245   -5.0219 C   0  0  0  0  0  0  0  0  0  0  0  0
   12.5952   -0.7940   -6.3358 C   0  0  0  0  0  0  0  0  0  0  0  0
   12.1682   -2.0894   -6.6431 C   0  0  0  0  0  0  0  0  0  0  0  0
   11.6618   -2.9066   -5.6282 C   0  0  0  0  0  0  0  0  0  0  0  0
   11.5790   -2.4334   -4.3152 C   0  0  0  0  0  0  0  0  0  0  0  0
    8.1214   -0.2777   -2.4860 N   0  0  0  0  0  0  0  0  0  0  0  0
    7.6840    1.0462   -2.9383 C   0  0  0  0  0  0  0  0  0  0  0  0
    7.4616    1.1170   -4.4586 C   0  0  0  0  0  0  0  0  0  0  0  0
    6.9270    2.4681   -4.8807 C   0  0  0  0  0  0  0  0  0  0  0  0
    7.7704    3.4443   -5.4324 C   0  0  0  0  0  0  0  0  0  0  0  0
    7.2728    4.7006   -5.7932 C   0  0  0  0  0  0  0  0  0  0  0  0
    5.9208    4.9989   -5.6037 C   0  0  0  0  0  0  0  0  0  0  0  0
    5.0705    4.0337   -5.0535 C   0  0  0  0  0  0  0  0  0  0  0  0
    5.5689    2.7792   -4.6941 C   0  0  0  0  0  0  0  0  0  0  0  0
    3.3606    1.0098    2.2580 H   0  0  0  0  0  0  0  0  0  0  0  0
    4.4280    1.8050    1.0399 H   0  0  0  0  0  0  0  0  0  0  0  0
    5.1569    0.8978    2.3980 H   0  0  0  0  0  0  0  0  0  0  0  0
    5.8664   -2.5913   -0.2330 H   0  0  0  0  0  0  0  0  0  0  0  0
    2.9580   -1.8037   -0.9654 H   0  0  0  0  0  0  0  0  0  0  0  0
    3.4216   -2.7385    0.4765 H   0  0  0  0  0  0  0  0  0  0  0  0
    3.6988   -3.4210   -1.1552 H   0  0  0  0  0  0  0  0  0  0  0  0
    9.8663    1.2939   -0.6936 H   0  0  0  0  0  0  0  0  0  0  0  0
   11.4160    1.6655   -1.0942 H   0  0  0  0  0  0  0  0  0  0  0  0
   11.9648   -1.4145   -1.8416 H   0  0  0  0  0  0  0  0  0  0  0  0
   12.7451    0.0802   -2.3836 H   0  0  0  0  0  0  0  0  0  0  0  0
   12.8640    0.6862   -4.7887 H   0  0  0  0  0  0  0  0  0  0  0  0
   13.0003   -0.1490   -7.1203 H   0  0  0  0  0  0  0  0  0  0  0  0
   12.2340   -2.4614   -7.6689 H   0  0  0  0  0  0  0  0  0  0  0  0
   11.3281   -3.9219   -5.8585 H   0  0  0  0  0  0  0  0  0  0  0  0
   11.1722   -3.0702   -3.5266 H   0  0  0  0  0  0  0  0  0  0  0  0
    8.4479    1.7697   -2.6227 H   0  0  0  0  0  0  0  0  0  0  0  0
    6.7572    1.2870   -2.4055 H   0  0  0  0  0  0  0  0  0  0  0  0
    6.7432    0.3298   -4.7335 H   0  0  0  0  0  0  0  0  0  0  0  0
    8.4083    0.8975   -4.9779 H   0  0  0  0  0  0  0  0  0  0  0  0
    8.8283    3.2147   -5.5921 H   0  0  0  0  0  0  0  0  0  0  0  0
    7.9433    5.4464   -6.2281 H   0  0  0  0  0  0  0  0  0  0  0  0
    5.5291    5.9789   -5.8883 H   0  0  0  0  0  0  0  0  0  0  0  0
    4.0103    4.2578   -4.9081 H   0  0  0  0  0  0  0  0  0  0  0  0
    4.9026    2.0238   -4.2676 H   0  0  0  0  0  0  0  0  0  0  0  0
  1  2  1  0
  1 33  1  0
  1 34  1  0
  1 35  1  0
  2  3  1  0
  3  4  2  0
  3  5  1  0
  5  6  1  0
  5  7  1  0
  5 36  1  1
  6 37  1  0
  6 38  1  0
  6 39  1  0
  7  8  2  0
  7  9  2  0
  7 10  1  1
 10 11  2  0
 10 24  1  0
 11 12  1  0
 12 13  2  0
 13 14  1  0
 13 24  1  0
 14 15  1  6
 14 16  1  0
 14 17  1  0
 16 40  1  0
 16 41  1  0
 17 18  1  0
 17 42  1  0
 17 43  1  0
 18 19  2  0
 18 23  1  0
 19 20  1  0
 19 44  1  0
 20 21  2  0
 20 45  1  0
 21 22  1  0
 21 46  1  0
 22 23  2  0
 22 47  1  0
 23 48  1  0
 24 25  1  0
 25 26  1  0
 25 49  1  0
 25 50  1  0
 26 27  1  0
 26 51  1  0
 26 52  1  0
 27 28  2  0
 27 32  1  0
 28 29  1  0
 28 53  1  0
 29 30  2  0
 29 54  1  0
 30 31  1  0
 30 55  1  0
 31 32  2  0
 31 56  1  0
 32 57  1  0
M  END

