
     RDKit          3D

 40 42  0  0  0  0  0  0  0  0999 V2000
    1.1254   -0.2532   -0.4220 C   0  0  0  0  0  0  0  0  0  0  0  0
    2.6146   -0.1319   -0.1043 C   0  0  1  0  0  0  0  0  0  0  0  0
    3.0439    1.2526    0.3989 C   0  0  0  0  0  0  0  0  0  0  0  0
    4.5342    1.3071    0.6894 C   0  0  0  0  0  0  0  0  0  0  0  0
    5.1869    2.5406    0.8420 C   0  0  0  0  0  0  0  0  0  0  0  0
    6.5545    2.6094    1.1090 C   0  0  0  0  0  0  0  0  0  0  0  0
    7.2991    1.4314    1.2289 C   0  0  0  0  0  0  0  0  0  0  0  0
    6.6630    0.1984    1.0824 C   0  0  0  0  0  0  0  0  0  0  0  0
    5.2880    0.1228    0.8169 C   0  0  0  0  0  0  0  0  0  0  0  0
    4.6190   -1.2361    0.6483 C   0  0  0  0  0  0  0  0  0  0  0  0
    3.1713   -1.1477    0.8216 N   0  0  0  0  0  0  0  0  0  0  0  0
    2.5311   -1.4547    2.0055 C   0  0  0  0  0  0  0  0  0  0  0  0
    1.4374   -0.9950    2.2936 O   0  0  0  0  0  0  0  0  0  0  0  0
    3.2033   -2.4854    2.9273 C   0  0  1  0  0  0  0  0  0  0  0  0
    2.4934   -2.6520    4.2756 C   0  0  0  0  0  0  0  0  0  0  0  0
    2.6595   -4.1261    4.6272 C   0  0  0  0  0  0  0  0  0  0  0  0
    2.4439   -4.6554    5.6985 O   0  0  0  0  0  0  0  0  0  0  0  0
    3.0785   -4.7763    3.4869 N   0  0  0  0  0  0  0  0  0  0  0  0
    3.1903   -6.2115    3.4048 C   0  0  0  0  0  0  0  0  0  0  0  0
    3.1880   -3.9185    2.3255 C   0  0  0  0  0  0  0  0  0  0  0  0
    0.8978    0.3886   -1.2886 H   0  0  0  0  0  0  0  0  0  0  0  0
    0.4945    0.0415    0.4231 H   0  0  0  0  0  0  0  0  0  0  0  0
    0.8708   -1.2890   -0.6952 H   0  0  0  0  0  0  0  0  0  0  0  0
    3.1512   -0.3167   -1.0518 H   0  0  0  0  0  0  0  0  0  0  0  0
    2.4698    1.4905    1.3122 H   0  0  0  0  0  0  0  0  0  0  0  0
    2.7806    2.0226   -0.3457 H   0  0  0  0  0  0  0  0  0  0  0  0
    4.6064    3.4630    0.7456 H   0  0  0  0  0  0  0  0  0  0  0  0
    7.0406    3.5816    1.2234 H   0  0  0  0  0  0  0  0  0  0  0  0
    8.3703    1.4738    1.4409 H   0  0  0  0  0  0  0  0  0  0  0  0
    7.2425   -0.7253    1.1805 H   0  0  0  0  0  0  0  0  0  0  0  0
    5.0540   -1.9571    1.3493 H   0  0  0  0  0  0  0  0  0  0  0  0
    4.8281   -1.6313   -0.3632 H   0  0  0  0  0  0  0  0  0  0  0  0
    4.2486   -2.1986    3.1162 H   0  0  0  0  0  0  0  0  0  0  0  0
    1.4200   -2.4236    4.1777 H   0  0  0  0  0  0  0  0  0  0  0  0
    2.8914   -2.0148    5.0772 H   0  0  0  0  0  0  0  0  0  0  0  0
    3.0325   -6.6164    4.4140 H   0  0  0  0  0  0  0  0  0  0  0  0
    4.1881   -6.5172    3.0436 H   0  0  0  0  0  0  0  0  0  0  0  0
    2.4319   -6.6416    2.7245 H   0  0  0  0  0  0  0  0  0  0  0  0
    2.3287   -4.0573    1.6387 H   0  0  0  0  0  0  0  0  0  0  0  0
    4.1013   -4.1462    1.7481 H   0  0  0  0  0  0  0  0  0  0  0  0
  1  2  1  0
  1 21  1  0
  1 22  1  0
  1 23  1  0
  2  3  1  0
  2 11  1  0
  2 24  1  6
  3  4  1  0
  3 25  1  0
  3 26  1  0
  4  5  1  0
  4  9  2  0
  5  6  2  0
  5 27  1  0
  6  7  1  0
  6 28  1  0
  7  8  2  0
  7 29  1  0
  8  9  1  0
  8 30  1  0
  9 10  1  0
 10 11  1  0
 10 31  1  0
 10 32  1  0
 11 12  1  0
 12 13  2  0
 12 14  1  0
 14 15  1  0
 14 20  1  0
 14 33  1  1
 15 16  1  0
 15 34  1  0
 15 35  1  0
 16 17  2  0
 16 18  1  0
 18 19  1  0
 18 20  1  0
 19 36  1  0
 19 37  1  0
 19 38  1  0
 20 39  1  0
 20 40  1  0
M  END

