
     RDKit          3D

 36 36  0  0  0  0  0  0  0  0999 V2000
    3.0767   -0.6103    3.0286 C   0  0  0  0  0  0  0  0  0  0  0  0
    4.5706   -0.2607    3.0753 C   0  0  1  0  0  0  0  0  0  0  0  0
    5.3919   -1.2418    3.7947 N   0  0  0  0  0  0  0  0  0  0  0  0
    5.1685   -0.0632    1.6701 C   0  0  0  0  0  0  0  0  0  0  0  0
    4.7565    1.2384    0.9535 C   0  0  0  0  0  0  0  0  0  0  0  0
    5.1772    2.4718    1.7461 C   0  0  0  0  0  0  0  0  0  0  0  0
    4.4100    3.0802    2.4757 O   0  0  0  0  0  0  0  0  0  0  0  0
    6.5011    2.8099    1.6409 N   0  0  0  0  0  0  0  0  0  0  0  0
    7.1019    3.8333    2.4848 C   0  0  0  0  0  0  0  0  0  0  0  0
    7.3860    3.3590    3.9182 C   0  0  0  0  0  0  0  0  0  0  0  0
    8.3764    2.1908    3.9848 C   0  0  0  0  0  0  0  0  0  0  0  0
    8.5115    1.6089    5.3093 N   0  0  0  0  0  0  0  0  0  0  0  0
    9.1947    2.1354    6.3871 C   0  0  0  0  0  0  0  0  0  0  0  0
    8.9900    1.2489    7.4222 C   0  0  0  0  0  0  0  0  0  0  0  0
    8.2031    0.2037    7.0103 N   0  0  0  0  0  0  0  0  0  0  0  0
    7.9319    0.4454    5.7462 C   0  0  0  0  0  0  0  0  0  0  0  0
    2.6725   -0.7307    4.0469 H   0  0  0  0  0  0  0  0  0  0  0  0
    2.9106   -1.5567    2.4841 H   0  0  0  0  0  0  0  0  0  0  0  0
    2.4863    0.1781    2.5353 H   0  0  0  0  0  0  0  0  0  0  0  0
    4.6718    0.6900    3.6260 H   0  0  0  0  0  0  0  0  0  0  0  0
    5.3393   -2.1547    3.3367 H   0  0  0  0  0  0  0  0  0  0  0  0
    5.0298   -1.3821    4.7392 H   0  0  0  0  0  0  0  0  0  0  0  0
    4.8943   -0.9237    1.0326 H   0  0  0  0  0  0  0  0  0  0  0  0
    6.2661   -0.0949    1.7700 H   0  0  0  0  0  0  0  0  0  0  0  0
    3.6660    1.2957    0.8293 H   0  0  0  0  0  0  0  0  0  0  0  0
    5.2069    1.2566   -0.0536 H   0  0  0  0  0  0  0  0  0  0  0  0
    7.0953    2.2672    1.0269 H   0  0  0  0  0  0  0  0  0  0  0  0
    6.4110    4.6885    2.5262 H   0  0  0  0  0  0  0  0  0  0  0  0
    8.0280    4.1769    1.9950 H   0  0  0  0  0  0  0  0  0  0  0  0
    6.4339    3.0581    4.3826 H   0  0  0  0  0  0  0  0  0  0  0  0
    7.7693    4.2110    4.5048 H   0  0  0  0  0  0  0  0  0  0  0  0
    9.3731    2.5097    3.6328 H   0  0  0  0  0  0  0  0  0  0  0  0
    8.0422    1.3837    3.3159 H   0  0  0  0  0  0  0  0  0  0  0  0
    9.7554    3.0650    6.3189 H   0  0  0  0  0  0  0  0  0  0  0  0
    9.3765    1.3127    8.4395 H   0  0  0  0  0  0  0  0  0  0  0  0
    7.3209   -0.1737    5.0823 H   0  0  0  0  0  0  0  0  0  0  0  0
  1  2  1  0
  1 17  1  0
  1 18  1  0
  1 19  1  0
  2  3  1  0
  2  4  1  0
  2 20  1  1
  3 21  1  0
  3 22  1  0
  4  5  1  0
  4 23  1  0
  4 24  1  0
  5  6  1  0
  5 25  1  0
  5 26  1  0
  6  7  2  0
  6  8  1  0
  8  9  1  0
  8 27  1  0
  9 10  1  0
  9 28  1  0
  9 29  1  0
 10 11  1  0
 10 30  1  0
 10 31  1  0
 11 12  1  0
 11 32  1  0
 11 33  1  0
 12 13  1  0
 12 16  1  0
 13 14  2  0
 13 34  1  0
 14 15  1  0
 14 35  1  0
 15 16  2  0
 16 36  1  0
M  END

