
     RDKit          3D

 77 79  0  0  0  0  0  0  0  0999 V2000
    6.7759    2.1677    0.5391 C   0  0  0  0  0  0  0  0  0  0  0  0
    6.1816    0.7857    0.7597 C   0  0  0  0  0  0  0  0  0  0  0  0
    6.3305    0.1884    1.8162 O   0  0  0  0  0  0  0  0  0  0  0  0
    5.4912    0.2659   -0.3009 N   0  0  0  0  0  0  0  0  0  0  0  0
    4.7869   -1.0127   -0.2372 C   0  0  1  0  0  0  0  0  0  0  0  0
    3.2669   -0.7999   -0.2107 C   0  0  0  0  0  0  0  0  0  0  0  0
    5.2497   -2.0393   -1.3100 C   0  0  1  0  0  0  0  0  0  0  0  0
    4.6784   -1.8198   -2.7325 C   0  0  0  0  0  0  0  0  0  0  0  0
    5.0052   -0.4924   -3.4290 C   0  0  0  0  0  0  0  0  0  0  0  0
    4.5625   -0.4586   -4.8898 C   0  0  0  0  0  0  0  0  0  0  0  0
    4.7517    0.8926   -5.5599 C   0  0  0  0  0  0  0  0  0  0  0  0
    5.0914    1.8748   -4.9368 O   0  0  0  0  0  0  0  0  0  0  0  0
    4.5085    0.9323   -7.0819 C   0  0  1  0  0  0  0  0  0  0  0  0
    3.6920    2.1478   -7.5102 C   0  0  0  0  0  0  0  0  0  0  0  0
    4.1832    3.4577   -7.3887 C   0  0  0  0  0  0  0  0  0  0  0  0
    3.4032    4.5474   -7.7819 C   0  0  0  0  0  0  0  0  0  0  0  0
    2.1211    4.3502   -8.3053 C   0  0  0  0  0  0  0  0  0  0  0  0
    1.6225    3.0517   -8.4314 C   0  0  0  0  0  0  0  0  0  0  0  0
    2.4037    1.9619   -8.0345 C   0  0  0  0  0  0  0  0  0  0  0  0
    5.8411    0.7903   -7.8281 C   0  0  0  0  0  0  0  0  0  0  0  0
    7.0124    1.4431   -7.4106 C   0  0  0  0  0  0  0  0  0  0  0  0
    8.1985    1.3130   -8.1401 C   0  0  0  0  0  0  0  0  0  0  0  0
    8.2360    0.5283   -9.2954 C   0  0  0  0  0  0  0  0  0  0  0  0
    7.0768   -0.1300   -9.7172 C   0  0  0  0  0  0  0  0  0  0  0  0
    5.8930   -0.0007   -8.9878 C   0  0  0  0  0  0  0  0  0  0  0  0
    6.7804   -2.2326   -1.3461 C   0  0  0  0  0  0  0  0  0  0  0  0
    7.4819   -2.5850   -0.0235 C   0  0  0  0  0  0  0  0  0  0  0  0
    6.9529   -3.8417    0.6763 C   0  0  0  0  0  0  0  0  0  0  0  0
    7.7682   -4.2854    1.9219 C   0  0  1  0  0  0  0  0  0  0  0  0
    9.1846   -4.6893    1.4727 C   0  0  0  0  0  0  0  0  0  0  0  0
   10.2031   -4.1337    1.7826 O   0  0  0  0  0  0  0  0  0  0  0  0
    9.2404   -5.7699    0.6506 O   0  0  0  0  0  0  0  0  0  0  0  0
    7.8325   -3.1734    3.0108 C   0  0  0  0  0  0  0  0  0  0  0  0
    7.5524   -3.8793    4.3451 C   0  0  0  0  0  0  0  0  0  0  0  0
    6.5236   -4.9485    3.9620 C   0  0  0  0  0  0  0  0  0  0  0  0
    7.0770   -5.5060    2.6405 C   0  0  0  0  0  0  0  0  0  0  0  0
    6.3852    2.8451    1.3135 H   0  0  0  0  0  0  0  0  0  0  0  0
    6.5668    2.5927   -0.4536 H   0  0  0  0  0  0  0  0  0  0  0  0
    7.8650    2.1074    0.6846 H   0  0  0  0  0  0  0  0  0  0  0  0
    5.3694    0.8468   -1.1210 H   0  0  0  0  0  0  0  0  0  0  0  0
    5.0765   -1.4184    0.7420 H   0  0  0  0  0  0  0  0  0  0  0  0
    2.9051   -0.2693   -1.1060 H   0  0  0  0  0  0  0  0  0  0  0  0
    2.9827   -0.2031    0.6693 H   0  0  0  0  0  0  0  0  0  0  0  0
    2.7352   -1.7636   -0.1543 H   0  0  0  0  0  0  0  0  0  0  0  0
    4.8097   -2.9967   -0.9764 H   0  0  0  0  0  0  0  0  0  0  0  0
    3.5815   -1.9409   -2.7063 H   0  0  0  0  0  0  0  0  0  0  0  0
    5.0459   -2.6486   -3.3641 H   0  0  0  0  0  0  0  0  0  0  0  0
    6.0862   -0.2818   -3.3864 H   0  0  0  0  0  0  0  0  0  0  0  0
    4.5132    0.3503   -2.9164 H   0  0  0  0  0  0  0  0  0  0  0  0
    3.4898   -0.7173   -4.9862 H   0  0  0  0  0  0  0  0  0  0  0  0
    5.0919   -1.2188   -5.4933 H   0  0  0  0  0  0  0  0  0  0  0  0
    3.9155    0.0411   -7.3358 H   0  0  0  0  0  0  0  0  0  0  0  0
    5.1790    3.6276   -6.9796 H   0  0  0  0  0  0  0  0  0  0  0  0
    3.8015    5.5603   -7.6791 H   0  0  0  0  0  0  0  0  0  0  0  0
    1.5150    5.2055   -8.6147 H   0  0  0  0  0  0  0  0  0  0  0  0
    0.6229    2.8830   -8.8403 H   0  0  0  0  0  0  0  0  0  0  0  0
    2.0043    0.9483   -8.1368 H   0  0  0  0  0  0  0  0  0  0  0  0
    7.0012    2.0510   -6.5040 H   0  0  0  0  0  0  0  0  0  0  0  0
    9.1003    1.8277   -7.7983 H   0  0  0  0  0  0  0  0  0  0  0  0
    9.1644    0.4271   -9.8630 H   0  0  0  0  0  0  0  0  0  0  0  0
    7.0937   -0.7490  -10.6181 H   0  0  0  0  0  0  0  0  0  0  0  0
    4.9906   -0.5168   -9.3279 H   0  0  0  0  0  0  0  0  0  0  0  0
    7.2541   -1.3190   -1.7422 H   0  0  0  0  0  0  0  0  0  0  0  0
    6.9952   -3.0267   -2.0846 H   0  0  0  0  0  0  0  0  0  0  0  0
    7.4252   -1.7367    0.6750 H   0  0  0  0  0  0  0  0  0  0  0  0
    8.5551   -2.7184   -0.2438 H   0  0  0  0  0  0  0  0  0  0  0  0
    6.9038   -4.6741   -0.0523 H   0  0  0  0  0  0  0  0  0  0  0  0
    5.9137   -3.6833    1.0121 H   0  0  0  0  0  0  0  0  0  0  0  0
    8.3518   -6.1200    0.4961 H   0  0  0  0  0  0  0  0  0  0  0  0
    7.0545   -2.4177    2.8209 H   0  0  0  0  0  0  0  0  0  0  0  0
    8.8004   -2.6566    2.9895 H   0  0  0  0  0  0  0  0  0  0  0  0
    7.1985   -3.1900    5.1275 H   0  0  0  0  0  0  0  0  0  0  0  0
    8.4705   -4.3623    4.7234 H   0  0  0  0  0  0  0  0  0  0  0  0
    5.5401   -4.4757    3.7939 H   0  0  0  0  0  0  0  0  0  0  0  0
    6.3832   -5.7302    4.7254 H   0  0  0  0  0  0  0  0  0  0  0  0
    6.2975   -5.9698    2.0130 H   0  0  0  0  0  0  0  0  0  0  0  0
    7.8177   -6.2919    2.8634 H   0  0  0  0  0  0  0  0  0  0  0  0
  1  2  1  0
  1 37  1  0
  1 38  1  0
  1 39  1  0
  2  3  2  0
  2  4  1  0
  4  5  1  0
  4 40  1  0
  5  6  1  0
  5  7  1  0
  5 41  1  1
  6 42  1  0
  6 43  1  0
  6 44  1  0
  7  8  1  0
  7 26  1  0
  7 45  1  1
  8  9  1  0
  8 46  1  0
  8 47  1  0
  9 10  1  0
  9 48  1  0
  9 49  1  0
 10 11  1  0
 10 50  1  0
 10 51  1  0
 11 12  2  0
 11 13  1  0
 13 14  1  0
 13 20  1  0
 13 52  1  6
 14 15  2  0
 14 19  1  0
 15 16  1  0
 15 53  1  0
 16 17  2  0
 16 54  1  0
 17 18  1  0
 17 55  1  0
 18 19  2  0
 18 56  1  0
 19 57  1  0
 20 21  2  0
 20 25  1  0
 21 22  1  0
 21 58  1  0
 22 23  2  0
 22 59  1  0
 23 24  1  0
 23 60  1  0
 24 25  2  0
 24 61  1  0
 25 62  1  0
 26 27  1  0
 26 63  1  0
 26 64  1  0
 27 28  1  0
 27 65  1  0
 27 66  1  0
 28 29  1  0
 28 67  1  0
 28 68  1  0
 29 30  1  6
 29 33  1  0
 29 36  1  0
 30 31  2  0
 30 32  1  0
 32 69  1  0
 33 34  1  0
 33 70  1  0
 33 71  1  0
 34 35  1  0
 34 72  1  0
 34 73  1  0
 35 36  1  0
 35 74  1  0
 35 75  1  0
 36 76  1  0
 36 77  1  0
M  END

