
     RDKit          3D

 60 65  0  0  0  0  0  0  0  0999 V2000
    1.5446    0.7569    0.3072 C   0  0  0  0  0  0  0  0  0  0  0  0
    2.2050   -0.0488    1.1443 C   0  0  0  0  0  0  0  0  0  0  0  0
    2.9173   -1.3361    0.8126 C   0  0  2  0  0  0  0  0  0  0  0  0
    2.8725   -1.7305   -0.6764 C   0  0  0  0  0  0  0  0  0  0  0  0
    3.7889   -2.9593   -0.9138 C   0  0  0  0  0  0  0  0  0  0  0  0
    4.3085   -3.4990    0.4388 C   0  0  2  0  0  0  0  0  0  0  0  0
    5.2183   -4.7046    0.2534 C   0  0  0  0  0  0  0  0  0  0  0  0
    6.5699   -4.6626    0.6218 C   0  0  0  0  0  0  0  0  0  0  0  0
    7.3961   -5.7739    0.4453 C   0  0  0  0  0  0  0  0  0  0  0  0
    6.9064   -6.9709   -0.1055 C   0  0  0  0  0  0  0  0  0  0  0  0
    7.7573   -8.1758   -0.3082 C   0  0  0  0  0  0  0  0  0  0  0  0
    9.1248   -8.2119    0.0315 C   0  0  0  0  0  0  0  0  0  0  0  0
    9.8560   -9.3718   -0.1861 C   0  0  0  0  0  0  0  0  0  0  0  0
    9.2246  -10.4953   -0.7419 C   0  0  0  0  0  0  0  0  0  0  0  0
    9.9746  -11.6584   -0.9553 N   0  0  0  0  0  0  0  0  0  0  0  0
    9.5605  -12.8456   -1.4799 C   0  0  0  0  0  0  0  0  0  0  0  0
    8.3959  -13.2275   -1.9114 N   0  0  0  0  0  0  0  0  0  0  0  0
    8.5648  -14.5437   -2.3285 N   0  0  0  0  0  0  0  0  0  0  0  0
    9.7961  -14.8646   -2.1214 C   0  0  0  0  0  0  0  0  0  0  0  0
   10.5083  -16.1272   -2.4316 C   0  0  1  0  0  0  0  0  0  0  0  0
    9.6472  -17.3639   -2.7978 C   0  0  0  0  0  0  0  0  0  0  0  0
   10.6741  -17.7179   -3.9035 C   0  0  0  0  0  0  0  0  0  0  0  0
   11.2259  -16.2728   -3.8155 C   0  0  0  0  0  0  0  0  0  0  0  0
   10.5041  -13.8155   -1.5743 O   0  0  0  0  0  0  0  0  0  0  0  0
    7.8544  -10.3771   -1.0539 C   0  0  0  0  0  0  0  0  0  0  0  0
    7.1694   -9.2593   -0.8393 N   0  0  0  0  0  0  0  0  0  0  0  0
    5.5484   -7.0087   -0.4737 C   0  0  0  0  0  0  0  0  0  0  0  0
    4.7248   -5.9000   -0.2975 C   0  0  0  0  0  0  0  0  0  0  0  0
    3.1109   -3.8108    1.3644 C   0  0  0  0  0  0  0  0  0  0  0  0
    2.3247   -2.5042    1.6446 C   0  0  0  0  0  0  0  0  0  0  0  0
    5.0791   -2.4661    1.0668 O   0  0  0  0  0  0  0  0  0  0  0  0
    4.4062   -1.2214    1.2068 C   0  0  0  0  0  0  0  0  0  0  0  0
    1.0567    1.6657    0.6701 H   0  0  0  0  0  0  0  0  0  0  0  0
    1.4574    0.5507   -0.7629 H   0  0  0  0  0  0  0  0  0  0  0  0
    2.2437    0.2252    2.2076 H   0  0  0  0  0  0  0  0  0  0  0  0
    3.2041   -0.8824   -1.2957 H   0  0  0  0  0  0  0  0  0  0  0  0
    1.8317   -1.9470   -0.9668 H   0  0  0  0  0  0  0  0  0  0  0  0
    4.6646   -2.6904   -1.5236 H   0  0  0  0  0  0  0  0  0  0  0  0
    3.2573   -3.7560   -1.4549 H   0  0  0  0  0  0  0  0  0  0  0  0
    6.9689   -3.7445    1.0516 H   0  0  0  0  0  0  0  0  0  0  0  0
    8.4414   -5.6894    0.7490 H   0  0  0  0  0  0  0  0  0  0  0  0
    9.6221   -7.3434    0.4634 H   0  0  0  0  0  0  0  0  0  0  0  0
   10.9184   -9.4081    0.0749 H   0  0  0  0  0  0  0  0  0  0  0  0
   10.9524  -11.6287   -0.6922 H   0  0  0  0  0  0  0  0  0  0  0  0
   11.2135  -16.3481   -1.6140 H   0  0  0  0  0  0  0  0  0  0  0  0
    8.6770  -17.0505   -3.2084 H   0  0  0  0  0  0  0  0  0  0  0  0
    9.4725  -18.0995   -1.9985 H   0  0  0  0  0  0  0  0  0  0  0  0
   10.2759  -18.0450   -4.8754 H   0  0  0  0  0  0  0  0  0  0  0  0
   11.4117  -18.4612   -3.5624 H   0  0  0  0  0  0  0  0  0  0  0  0
   10.7730  -15.6100   -4.5682 H   0  0  0  0  0  0  0  0  0  0  0  0
   12.3173  -16.1325   -3.8276 H   0  0  0  0  0  0  0  0  0  0  0  0
    7.3219  -11.2266   -1.4885 H   0  0  0  0  0  0  0  0  0  0  0  0
    5.1569   -7.9320   -0.9017 H   0  0  0  0  0  0  0  0  0  0  0  0
    3.6763   -5.9749   -0.5978 H   0  0  0  0  0  0  0  0  0  0  0  0
    3.4998   -4.2474    2.2961 H   0  0  0  0  0  0  0  0  0  0  0  0
    2.4661   -4.5711    0.8976 H   0  0  0  0  0  0  0  0  0  0  0  0
    2.3724   -2.2443    2.7147 H   0  0  0  0  0  0  0  0  0  0  0  0
    1.2574   -2.6158    1.3962 H   0  0  0  0  0  0  0  0  0  0  0  0
    4.9022   -0.4566    0.5783 H   0  0  0  0  0  0  0  0  0  0  0  0
    4.5001   -0.8938    2.2589 H   0  0  0  0  0  0  0  0  0  0  0  0
  1  2  2  0
  1 33  1  0
  1 34  1  0
  3  2  1  6
  2 35  1  0
  3  4  1  0
  3 30  1  0
  3 32  1  0
  4  5  1  0
  4 36  1  0
  4 37  1  0
  5  6  1  0
  5 38  1  0
  5 39  1  0
  6  7  1  6
  6 29  1  0
  6 31  1  0
  7  8  2  0
  7 28  1  0
  8  9  1  0
  8 40  1  0
  9 10  2  0
  9 41  1  0
 10 11  1  0
 10 27  1  0
 11 12  2  0
 11 26  1  0
 12 13  1  0
 12 42  1  0
 13 14  2  0
 13 43  1  0
 14 15  1  0
 14 25  1  0
 15 16  1  0
 15 44  1  0
 16 17  2  0
 16 24  1  0
 17 18  1  0
 18 19  2  0
 19 20  1  0
 19 24  1  0
 20 21  1  0
 20 23  1  0
 20 45  1  1
 21 22  1  0
 21 46  1  0
 21 47  1  0
 22 23  1  0
 22 48  1  0
 22 49  1  0
 23 50  1  0
 23 51  1  0
 25 26  2  0
 25 52  1  0
 27 28  2  0
 27 53  1  0
 28 54  1  0
 29 30  1  0
 29 55  1  0
 29 56  1  0
 30 57  1  0
 30 58  1  0
 31 32  1  0
 32 59  1  0
 32 60  1  0
M  END

