
     RDKit          3D

 60 63  0  0  0  0  0  0  0  0999 V2000
   13.7876    1.6157   -0.8641 C   0  0  0  0  0  0  0  0  0  0  0  0
   12.4561    1.5089   -0.3588 O   0  0  0  0  0  0  0  0  0  0  0  0
   11.5520    2.3338   -0.9169 C   0  0  0  0  0  0  0  0  0  0  0  0
   11.7990    3.1344   -1.7851 O   0  0  0  0  0  0  0  0  0  0  0  0
   10.2951    2.1365   -0.3540 N   0  0  0  0  0  0  0  0  0  0  0  0
    9.9716    1.2077    0.6479 C   0  0  0  0  0  0  0  0  0  0  0  0
    8.6428    1.2819    0.9561 C   0  0  0  0  0  0  0  0  0  0  0  0
    7.9212    0.4504    1.9764 C   0  0  0  0  0  0  0  0  0  0  0  0
    7.4010    1.2168    3.2112 C   0  0  1  0  0  0  0  0  0  0  0  0
    6.6644    1.9726    2.8878 H   0  0  0  0  0  0  0  0  0  0  0  0
    6.6977    0.2736    4.1941 C   0  0  0  0  0  0  0  0  0  0  0  0
    8.4984    1.9374    3.8467 N   0  0  0  0  0  0  0  0  0  0  0  0
    8.2821    2.9916    4.6944 C   0  0  0  0  0  0  0  0  0  0  0  0
    7.1551    3.3280    5.0396 O   0  0  0  0  0  0  0  0  0  0  0  0
    9.5192    3.6790    5.1643 C   0  0  0  0  0  0  0  0  0  0  0  0
    9.4298    4.7224    6.0120 C   0  0  0  0  0  0  0  0  0  0  0  0
   10.5105    5.5259    6.5832 C   0  0  0  0  0  0  0  0  0  0  0  0
   11.8779    5.3049    6.3082 C   0  0  0  0  0  0  0  0  0  0  0  0
   12.8661    6.1003    6.8732 C   0  0  0  0  0  0  0  0  0  0  0  0
   12.5168    7.1484    7.7404 C   0  0  0  0  0  0  0  0  0  0  0  0
   13.5521    7.8500    8.2940 O   0  0  0  0  0  0  0  0  0  0  0  0
   13.3941    9.1328    8.7720 C   0  0  0  0  0  0  0  0  0  0  0  0
   13.8709    9.4082   10.0572 C   0  0  0  0  0  0  0  0  0  0  0  0
   13.8051   10.7136   10.5517 C   0  0  0  0  0  0  0  0  0  0  0  0
   13.2605   11.7384    9.7719 C   0  0  0  0  0  0  0  0  0  0  0  0
   12.7874   11.4522    8.4866 C   0  0  0  0  0  0  0  0  0  0  0  0
   12.8550   10.1529    7.9779 C   0  0  0  0  0  0  0  0  0  0  0  0
   11.1690    7.3866    8.0380 C   0  0  0  0  0  0  0  0  0  0  0  0
   10.1887    6.5809    7.4592 C   0  0  0  0  0  0  0  0  0  0  0  0
    8.0752    2.3144    0.1033 C   0  0  0  0  0  0  0  0  0  0  0  0
    6.7755    2.8255   -0.0489 C   0  0  0  0  0  0  0  0  0  0  0  0
    6.5534    3.8319   -0.9866 C   0  0  0  0  0  0  0  0  0  0  0  0
    7.6090    4.3326   -1.7715 C   0  0  0  0  0  0  0  0  0  0  0  0
    8.9095    3.8419   -1.6449 C   0  0  0  0  0  0  0  0  0  0  0  0
    9.1230    2.8304   -0.7023 C   0  0  0  0  0  0  0  0  0  0  0  0
   14.3820    0.8825   -0.3056 H   0  0  0  0  0  0  0  0  0  0  0  0
   14.1853    2.6295   -0.7071 H   0  0  0  0  0  0  0  0  0  0  0  0
   13.8165    1.3900   -1.9405 H   0  0  0  0  0  0  0  0  0  0  0  0
   10.7452    0.5525    1.0381 H   0  0  0  0  0  0  0  0  0  0  0  0
    8.5861   -0.3623    2.3184 H   0  0  0  0  0  0  0  0  0  0  0  0
    7.0528   -0.0434    1.5080 H   0  0  0  0  0  0  0  0  0  0  0  0
    5.8440   -0.2271    3.7092 H   0  0  0  0  0  0  0  0  0  0  0  0
    6.3212    0.8459    5.0529 H   0  0  0  0  0  0  0  0  0  0  0  0
    7.3918   -0.5008    4.5604 H   0  0  0  0  0  0  0  0  0  0  0  0
    9.4378    1.7777    3.5020 H   0  0  0  0  0  0  0  0  0  0  0  0
   10.4850    3.3119    4.8022 H   0  0  0  0  0  0  0  0  0  0  0  0
    8.4111    4.9995    6.3069 H   0  0  0  0  0  0  0  0  0  0  0  0
   12.1744    4.4974    5.6352 H   0  0  0  0  0  0  0  0  0  0  0  0
   13.9234    5.9308    6.6602 H   0  0  0  0  0  0  0  0  0  0  0  0
   14.2926    8.5930   10.6484 H   0  0  0  0  0  0  0  0  0  0  0  0
   14.1799   10.9284   11.5556 H   0  0  0  0  0  0  0  0  0  0  0  0
   13.2075   12.7574   10.1620 H   0  0  0  0  0  0  0  0  0  0  0  0
   12.3684   12.2494    7.8671 H   0  0  0  0  0  0  0  0  0  0  0  0
   12.4986    9.9270    6.9708 H   0  0  0  0  0  0  0  0  0  0  0  0
   10.8888    8.1906    8.7200 H   0  0  0  0  0  0  0  0  0  0  0  0
    9.1383    6.7695    7.6966 H   0  0  0  0  0  0  0  0  0  0  0  0
    5.9515    2.4425    0.5573 H   0  0  0  0  0  0  0  0  0  0  0  0
    5.5478    4.2399   -1.1143 H   0  0  0  0  0  0  0  0  0  0  0  0
    7.4088    5.1235   -2.4987 H   0  0  0  0  0  0  0  0  0  0  0  0
    9.7302    4.2214   -2.2506 H   0  0  0  0  0  0  0  0  0  0  0  0
  1  2  1  0
  1 36  1  0
  1 37  1  0
  1 38  1  0
  2  3  1  0
  3  4  2  0
  3  5  1  0
  5  6  1  0
  5 35  1  0
  6  7  2  0
  6 39  1  0
  7  8  1  0
  7 30  1  0
  8  9  1  0
  8 40  1  0
  8 41  1  0
  9 10  1  6
  9 11  1  0
  9 12  1  0
 11 42  1  0
 11 43  1  0
 11 44  1  0
 12 13  1  0
 12 45  1  0
 13 14  2  0
 13 15  1  0
 15 16  2  0
 15 46  1  0
 16 17  1  0
 16 47  1  0
 17 18  2  0
 17 29  1  0
 18 19  1  0
 18 48  1  0
 19 20  2  0
 19 49  1  0
 20 21  1  0
 20 28  1  0
 21 22  1  0
 22 23  2  0
 22 27  1  0
 23 24  1  0
 23 50  1  0
 24 25  2  0
 24 51  1  0
 25 26  1  0
 25 52  1  0
 26 27  2  0
 26 53  1  0
 27 54  1  0
 28 29  2  0
 28 55  1  0
 29 56  1  0
 30 31  1  0
 30 35  2  0
 31 32  2  0
 31 57  1  0
 32 33  1  0
 32 58  1  0
 33 34  2  0
 33 59  1  0
 34 35  1  0
 34 60  1  0
M  END

