
     RDKit          3D

 33 35  0  0  0  0  0  0  0  0999 V2000
    0.8232    1.2890    2.1645 C   0  0  0  0  0  0  0  0  0  0  0  0
    2.2527    1.7483    1.8792 C   0  0  0  0  0  0  0  0  0  0  0  0
    3.1279    0.6216    1.3232 C   0  0  0  0  0  0  0  0  0  0  0  0
    4.5050    1.0318    1.0858 N   0  0  0  0  0  0  0  0  0  0  0  0
    5.0799    1.3285   -0.1133 C   0  0  0  0  0  0  0  0  0  0  0  0
    6.3756    1.7256    0.1955 C   0  0  0  0  0  0  0  0  0  0  0  0
    7.4424    2.1320   -0.5727 O   0  0  0  0  0  0  0  0  0  0  0  0
    7.4348    2.2476   -1.8909 C   0  0  0  0  0  0  0  0  0  0  0  0
    6.3301    1.9579   -2.5864 N   0  0  0  0  0  0  0  0  0  0  0  0
    6.4558    2.1146   -3.8958 C   0  0  0  0  0  0  0  0  0  0  0  0
    5.0530    1.7533   -4.8538 Cl  0  0  0  0  0  0  0  0  0  0  0  0
    7.5339    2.5147   -4.5429 N   0  0  0  0  0  0  0  0  0  0  0  0
    8.5789    2.7764   -3.7406 C   0  0  0  0  0  0  0  0  0  0  0  0
    9.7489    3.2032   -4.3555 N   0  0  0  0  0  0  0  0  0  0  0  0
    9.9568    3.3920   -5.7211 C   0  0  0  0  0  0  0  0  0  0  0  0
   11.2530    3.8128   -5.8294 C   0  0  0  0  0  0  0  0  0  0  0  0
   11.8541    3.8912   -4.5834 N   0  0  0  0  0  0  0  0  0  0  0  0
   10.9469    3.5265   -3.7255 C   0  0  0  0  0  0  0  0  0  0  0  0
    8.5877    2.6621   -2.4186 N   0  0  0  0  0  0  0  0  0  0  0  0
    6.4774    1.6364    1.6019 C   0  0  0  0  0  0  0  0  0  0  0  0
    5.3304    1.2163    2.1240 N   0  0  0  0  0  0  0  0  0  0  0  0
    0.2166    2.1130    2.5703 H   0  0  0  0  0  0  0  0  0  0  0  0
    0.8031    0.4686    2.9011 H   0  0  0  0  0  0  0  0  0  0  0  0
    0.3219    0.9271    1.2510 H   0  0  0  0  0  0  0  0  0  0  0  0
    2.7262    2.1270    2.7996 H   0  0  0  0  0  0  0  0  0  0  0  0
    2.2485    2.5856    1.1601 H   0  0  0  0  0  0  0  0  0  0  0  0
    2.7272    0.2483    0.3679 H   0  0  0  0  0  0  0  0  0  0  0  0
    3.1538   -0.2252    2.0271 H   0  0  0  0  0  0  0  0  0  0  0  0
    4.5596    1.2370   -1.0588 H   0  0  0  0  0  0  0  0  0  0  0  0
    9.1664    3.2061   -6.4406 H   0  0  0  0  0  0  0  0  0  0  0  0
   11.7957    4.0667   -6.7390 H   0  0  0  0  0  0  0  0  0  0  0  0
   11.0447    3.4602   -2.6436 H   0  0  0  0  0  0  0  0  0  0  0  0
    7.3411    1.8576    2.2273 H   0  0  0  0  0  0  0  0  0  0  0  0
  1  2  1  0
  1 22  1  0
  1 23  1  0
  1 24  1  0
  2  3  1  0
  2 25  1  0
  2 26  1  0
  3  4  1  0
  3 27  1  0
  3 28  1  0
  4  5  1  0
  4 21  1  0
  5  6  2  0
  5 29  1  0
  6  7  1  0
  6 20  1  0
  7  8  1  0
  8  9  2  0
  8 19  1  0
  9 10  1  0
 10 11  1  0
 10 12  2  0
 12 13  1  0
 13 14  1  0
 13 19  2  0
 14 15  1  0
 14 18  1  0
 15 16  2  0
 15 30  1  0
 16 17  1  0
 16 31  1  0
 17 18  2  0
 18 32  1  0
 20 21  2  0
 20 33  1  0
M  END

