
     RDKit          3D

 24 25  0  0  0  0  0  0  0  0999 V2000
    0.9408    0.0182    0.0887 C   0  0  0  0  0  0  0  0  0  0  0  0
    2.4457   -0.0130    0.0942 C   0  0  0  0  0  0  0  0  0  0  0  0
    3.3281    1.1078    0.0956 C   0  0  0  0  0  0  0  0  0  0  0  0
    4.6269    0.6352    0.1012 C   0  0  0  0  0  0  0  0  0  0  0  0
    4.5660   -0.7399    0.1034 N   0  0  0  0  0  0  0  0  0  0  0  0
    5.6573   -1.5872    0.1095 N   0  0  0  0  0  0  0  0  0  0  0  0
    5.5963   -2.9623    0.1102 C   0  0  0  0  0  0  0  0  0  0  0  0
    6.8952   -3.4349    0.1163 C   0  0  0  0  0  0  0  0  0  0  0  0
    7.7776   -2.3141    0.1195 C   0  0  0  0  0  0  0  0  0  0  0  0
    9.2824   -2.3453    0.1263 C   0  0  0  0  0  0  0  0  0  0  0  0
    6.9770   -1.1822    0.1155 C   0  0  0  0  0  0  0  0  0  0  0  0
    3.2462   -1.1449    0.0987 C   0  0  0  0  0  0  0  0  0  0  0  0
    0.5734    1.0555    0.0865 H   0  0  0  0  0  0  0  0  0  0  0  0
    0.5123   -0.4796    0.9754 H   0  0  0  0  0  0  0  0  0  0  0  0
    0.5187   -0.4812   -0.8001 H   0  0  0  0  0  0  0  0  0  0  0  0
    3.0418    2.1588    0.0928 H   0  0  0  0  0  0  0  0  0  0  0  0
    5.5716    1.1681    0.1038 H   0  0  0  0  0  0  0  0  0  0  0  0
    4.6516   -3.4951    0.1061 H   0  0  0  0  0  0  0  0  0  0  0  0
    7.1814   -4.4859    0.1181 H   0  0  0  0  0  0  0  0  0  0  0  0
    9.6498   -3.3827    0.1243 H   0  0  0  0  0  0  0  0  0  0  0  0
    9.7037   -1.8499    1.0178 H   0  0  0  0  0  0  0  0  0  0  0  0
    9.7118   -1.8436   -0.7578 H   0  0  0  0  0  0  0  0  0  0  0  0
    7.2505   -0.1320    0.1165 H   0  0  0  0  0  0  0  0  0  0  0  0
    2.9727   -2.1951    0.0992 H   0  0  0  0  0  0  0  0  0  0  0  0
  1  2  1  0
  1 13  1  0
  1 14  1  0
  1 15  1  0
  2  3  1  0
  2 12  2  0
  3  4  2  0
  3 16  1  0
  4  5  1  0
  4 17  1  0
  5  6  1  0
  5 12  1  0
  6  7  1  0
  6 11  1  0
  7  8  2  0
  7 18  1  0
  8  9  1  0
  8 19  1  0
  9 10  1  0
  9 11  2  0
 10 20  1  0
 10 21  1  0
 10 22  1  0
 11 23  1  0
 12 24  1  0
M  END

