
     RDKit          3D

 48 49  0  0  0  0  0  0  0  0999 V2000
    1.5343   -0.1887    1.6958 C   0  0  0  0  0  0  0  0  0  0  0  0
    2.5914   -0.2800    0.5957 C   0  0  0  0  0  0  0  0  0  0  0  0
    3.2803   -1.6432    0.5262 C   0  0  0  0  0  0  0  0  0  0  0  0
    4.2498   -1.6900   -0.5475 N   0  0  0  0  0  0  0  0  0  0  0  0
    4.9187   -2.9557   -0.8223 C   0  0  1  0  0  0  0  0  0  0  0  0
    4.4712   -3.5188   -2.1705 C   0  0  0  0  0  0  0  0  0  0  0  0
    3.9751   -4.8195   -2.3024 C   0  0  0  0  0  0  0  0  0  0  0  0
    3.5549   -5.2774   -3.5552 C   0  0  0  0  0  0  0  0  0  0  0  0
    3.6481   -4.4072   -4.6420 C   0  0  0  0  0  0  0  0  0  0  0  0
    4.1053   -3.1547   -4.5363 N   0  0  0  0  0  0  0  0  0  0  0  0
    4.4941   -2.7275   -3.3349 C   0  0  0  0  0  0  0  0  0  0  0  0
    6.4776   -2.8072   -0.6878 C   0  0  1  0  0  0  0  0  0  0  0  0
    6.7577   -1.6545   -1.5008 O   0  0  0  0  0  0  0  0  0  0  0  0
    8.0812   -1.3086   -1.8260 C   0  0  0  0  0  0  0  0  0  0  0  0
    6.8697   -2.5111    0.7809 C   0  0  0  0  0  0  0  0  0  0  0  0
    6.7559   -3.7233    1.7192 C   0  0  0  0  0  0  0  0  0  0  0  0
    7.5229   -4.9612    1.2121 C   0  0  2  0  0  0  0  0  0  0  0  0
    9.0439   -4.8239    1.3745 C   0  0  0  0  0  0  0  0  0  0  0  0
    7.1021   -5.2652   -0.2404 C   0  0  0  0  0  0  0  0  0  0  0  0
    7.2448   -4.0529   -1.1741 C   0  0  0  0  0  0  0  0  0  0  0  0
    1.0635    0.8067    1.7182 H   0  0  0  0  0  0  0  0  0  0  0  0
    1.9695   -0.3722    2.6926 H   0  0  0  0  0  0  0  0  0  0  0  0
    0.7324   -0.9308    1.5443 H   0  0  0  0  0  0  0  0  0  0  0  0
    3.3593    0.4999    0.7553 H   0  0  0  0  0  0  0  0  0  0  0  0
    2.1436   -0.0684   -0.3900 H   0  0  0  0  0  0  0  0  0  0  0  0
    2.5150   -2.4202    0.3433 H   0  0  0  0  0  0  0  0  0  0  0  0
    3.7148   -1.8784    1.5279 H   0  0  0  0  0  0  0  0  0  0  0  0
    4.9035   -0.9126   -0.5465 H   0  0  0  0  0  0  0  0  0  0  0  0
    4.6133   -3.6923   -0.0604 H   0  0  0  0  0  0  0  0  0  0  0  0
    3.9073   -5.4742   -1.4277 H   0  0  0  0  0  0  0  0  0  0  0  0
    3.1572   -6.2871   -3.6841 H   0  0  0  0  0  0  0  0  0  0  0  0
    3.3330   -4.7326   -5.6411 H   0  0  0  0  0  0  0  0  0  0  0  0
    4.8435   -1.6937   -3.2657 H   0  0  0  0  0  0  0  0  0  0  0  0
    8.0413   -0.3087   -2.2833 H   0  0  0  0  0  0  0  0  0  0  0  0
    8.5363   -1.9994   -2.5590 H   0  0  0  0  0  0  0  0  0  0  0  0
    8.7461   -1.2513   -0.9437 H   0  0  0  0  0  0  0  0  0  0  0  0
    6.2551   -1.6796    1.1588 H   0  0  0  0  0  0  0  0  0  0  0  0
    7.9099   -2.1467    0.7867 H   0  0  0  0  0  0  0  0  0  0  0  0
    5.6929   -3.9915    1.8455 H   0  0  0  0  0  0  0  0  0  0  0  0
    7.1134   -3.4417    2.7244 H   0  0  0  0  0  0  0  0  0  0  0  0
    7.2134   -5.8204    1.8332 H   0  0  0  0  0  0  0  0  0  0  0  0
    9.4600   -3.9816    0.7989 H   0  0  0  0  0  0  0  0  0  0  0  0
    9.5603   -5.7372    1.0366 H   0  0  0  0  0  0  0  0  0  0  0  0
    9.3129   -4.6608    2.4308 H   0  0  0  0  0  0  0  0  0  0  0  0
    6.0568   -5.6166   -0.2427 H   0  0  0  0  0  0  0  0  0  0  0  0
    7.7003   -6.1021   -0.6390 H   0  0  0  0  0  0  0  0  0  0  0  0
    6.9296   -4.3129   -2.1958 H   0  0  0  0  0  0  0  0  0  0  0  0
    8.3128   -3.7917   -1.2403 H   0  0  0  0  0  0  0  0  0  0  0  0
  1  2  1  0
  1 21  1  0
  1 22  1  0
  1 23  1  0
  2  3  1  0
  2 24  1  0
  2 25  1  0
  3  4  1  0
  3 26  1  0
  3 27  1  0
  4  5  1  0
  4 28  1  0
  5  6  1  0
  5 12  1  0
  5 29  1  1
  6  7  2  0
  6 11  1  0
  7  8  1  0
  7 30  1  0
  8  9  2  0
  8 31  1  0
  9 10  1  0
  9 32  1  0
 10 11  2  0
 11 33  1  0
 12 13  1  6
 12 15  1  0
 12 20  1  0
 13 14  1  0
 14 34  1  0
 14 35  1  0
 14 36  1  0
 15 16  1  0
 15 37  1  0
 15 38  1  0
 16 17  1  0
 16 39  1  0
 16 40  1  0
 17 18  1  0
 17 19  1  0
 17 41  1  1
 18 42  1  0
 18 43  1  0
 18 44  1  0
 19 20  1  0
 19 45  1  0
 19 46  1  0
 20 47  1  0
 20 48  1  0
M  END

