
     RDKit          3D

 69 73  0  0  0  0  0  0  0  0999 V2000
    3.2460    5.4791   -1.0736 C   0  0  0  0  0  0  0  0  0  0  0  0
    3.7663    4.7794   -2.2305 N   0  0  0  0  0  0  0  0  0  0  0  0
    2.9719    3.6503   -2.6604 C   0  0  0  0  0  0  0  0  0  0  0  0
    3.6074    2.9301   -3.8473 C   0  0  0  0  0  0  0  0  0  0  0  0
    4.8819    2.3204   -3.5027 N   0  0  0  0  0  0  0  0  0  0  0  0
    5.9934    2.4378   -4.2820 C   0  0  0  0  0  0  0  0  0  0  0  0
    6.1064    3.1030   -5.2809 O   0  0  0  0  0  0  0  0  0  0  0  0
    6.9928    1.6597   -3.7398 O   0  0  0  0  0  0  0  0  0  0  0  0
    8.2416    1.6185   -4.3411 C   0  0  0  0  0  0  0  0  0  0  0  0
    8.9445    2.8251   -4.4652 C   0  0  0  0  0  0  0  0  0  0  0  0
   10.2248    2.8545   -4.9973 C   0  0  0  0  0  0  0  0  0  0  0  0
   10.8364    1.6611   -5.4210 C   0  0  0  0  0  0  0  0  0  0  0  0
   12.2068    1.6595   -5.9924 C   0  0  0  0  0  0  0  0  0  0  0  0
   13.1950    2.5427   -5.5182 C   0  0  0  0  0  0  0  0  0  0  0  0
   14.4802    2.5399   -6.0544 C   0  0  0  0  0  0  0  0  0  0  0  0
   14.8416    1.6565   -7.0909 C   0  0  0  0  0  0  0  0  0  0  0  0
   16.2056    1.7001   -7.6132 C   0  0  0  0  0  0  0  0  0  0  0  0
   16.7499    0.9547   -8.5971 C   0  0  0  0  0  0  0  0  0  0  0  0
   18.1732    1.1571   -8.9823 C   0  0  0  0  0  0  0  0  0  0  0  0
   18.9140    1.9566   -8.4693 O   0  0  0  0  0  0  0  0  0  0  0  0
   18.6226    0.3621   -9.9863 O   0  0  0  0  0  0  0  0  0  0  0  0
   13.8504    0.7731   -7.5678 C   0  0  0  0  0  0  0  0  0  0  0  0
   12.5682    0.7758   -7.0320 C   0  0  0  0  0  0  0  0  0  0  0  0
   10.1089    0.4710   -5.2804 C   0  0  0  0  0  0  0  0  0  0  0  0
    8.8059    0.3917   -4.7479 C   0  0  0  0  0  0  0  0  0  0  0  0
    8.1634   -1.0134   -4.6638 C   0  0  2  0  0  0  0  0  0  0  0  0
    9.0557   -1.9383   -3.7797 C   0  0  0  0  0  0  0  0  0  0  0  0
    8.5145   -3.3806   -3.7510 C   0  0  1  0  0  0  0  0  0  0  0  0
    7.0948   -3.3860   -3.1582 C   0  0  0  0  0  0  0  0  0  0  0  0
    6.1847   -2.5067   -4.0331 C   0  0  2  0  0  0  0  0  0  0  0  0
    6.1304   -3.0784   -5.4606 C   0  0  0  0  0  0  0  0  0  0  0  0
    7.5491   -3.0732   -6.0558 C   0  0  2  0  0  0  0  0  0  0  0  0
    8.4759   -3.9438   -5.1851 C   0  0  0  0  0  0  0  0  0  0  0  0
    8.0868   -1.6299   -6.0946 C   0  0  0  0  0  0  0  0  0  0  0  0
    6.7292   -1.0638   -4.0686 C   0  0  0  0  0  0  0  0  0  0  0  0
    3.9305    6.2925   -0.7865 H   0  0  0  0  0  0  0  0  0  0  0  0
    3.0848    4.8363   -0.1777 H   0  0  0  0  0  0  0  0  0  0  0  0
    2.2736    5.9413   -1.3165 H   0  0  0  0  0  0  0  0  0  0  0  0
    4.7254    4.4774   -2.0645 H   0  0  0  0  0  0  0  0  0  0  0  0
    1.9749    4.0097   -2.9732 H   0  0  0  0  0  0  0  0  0  0  0  0
    2.7786    2.9083   -1.8449 H   0  0  0  0  0  0  0  0  0  0  0  0
    3.8057    3.6443   -4.6582 H   0  0  0  0  0  0  0  0  0  0  0  0
    2.9052    2.1674   -4.2309 H   0  0  0  0  0  0  0  0  0  0  0  0
    4.9181    1.6377   -2.7536 H   0  0  0  0  0  0  0  0  0  0  0  0
    8.4591    3.7478   -4.1471 H   0  0  0  0  0  0  0  0  0  0  0  0
   10.7398    3.8109   -5.1075 H   0  0  0  0  0  0  0  0  0  0  0  0
   12.9601    3.2258   -4.6993 H   0  0  0  0  0  0  0  0  0  0  0  0
   15.2301    3.2308   -5.6599 H   0  0  0  0  0  0  0  0  0  0  0  0
   16.8780    2.4313   -7.1497 H   0  0  0  0  0  0  0  0  0  0  0  0
   16.1653    0.1952   -9.1272 H   0  0  0  0  0  0  0  0  0  0  0  0
   17.9175   -0.2222  -10.2968 H   0  0  0  0  0  0  0  0  0  0  0  0
   14.0823    0.0787   -8.3784 H   0  0  0  0  0  0  0  0  0  0  0  0
   11.8184    0.0974   -7.4446 H   0  0  0  0  0  0  0  0  0  0  0  0
   10.5965   -0.4559   -5.5835 H   0  0  0  0  0  0  0  0  0  0  0  0
    9.1006   -1.5262   -2.7569 H   0  0  0  0  0  0  0  0  0  0  0  0
   10.0900   -1.9464   -4.1581 H   0  0  0  0  0  0  0  0  0  0  0  0
    9.1820   -3.9997   -3.1274 H   0  0  0  0  0  0  0  0  0  0  0  0
    7.1141   -3.0033   -2.1229 H   0  0  0  0  0  0  0  0  0  0  0  0
    6.7021   -4.4166   -3.1110 H   0  0  0  0  0  0  0  0  0  0  0  0
    5.1677   -2.4858   -3.6045 H   0  0  0  0  0  0  0  0  0  0  0  0
    5.4530   -2.4733   -6.0879 H   0  0  0  0  0  0  0  0  0  0  0  0
    5.7232   -4.1044   -5.4476 H   0  0  0  0  0  0  0  0  0  0  0  0
    7.5236   -3.4722   -7.0844 H   0  0  0  0  0  0  0  0  0  0  0  0
    9.4935   -3.9626   -5.6135 H   0  0  0  0  0  0  0  0  0  0  0  0
    8.1170   -4.9875   -5.1738 H   0  0  0  0  0  0  0  0  0  0  0  0
    7.4406   -0.9964   -6.7261 H   0  0  0  0  0  0  0  0  0  0  0  0
    9.0830   -1.6262   -6.5645 H   0  0  0  0  0  0  0  0  0  0  0  0
    6.7333   -0.6481   -3.0504 H   0  0  0  0  0  0  0  0  0  0  0  0
    6.0501   -0.4381   -4.6673 H   0  0  0  0  0  0  0  0  0  0  0  0
  1  2  1  0
  1 36  1  0
  1 37  1  0
  1 38  1  0
  2  3  1  0
  2 39  1  0
  3  4  1  0
  3 40  1  0
  3 41  1  0
  4  5  1  0
  4 42  1  0
  4 43  1  0
  5  6  1  0
  5 44  1  0
  6  7  2  0
  6  8  1  0
  8  9  1  0
  9 10  2  0
  9 25  1  0
 10 11  1  0
 10 45  1  0
 11 12  2  0
 11 46  1  0
 12 13  1  0
 12 24  1  0
 13 14  2  0
 13 23  1  0
 14 15  1  0
 14 47  1  0
 15 16  2  0
 15 48  1  0
 16 17  1  0
 16 22  1  0
 17 18  2  0
 17 49  1  0
 18 19  1  0
 18 50  1  0
 19 20  2  0
 19 21  1  0
 21 51  1  0
 22 23  2  0
 22 52  1  0
 23 53  1  0
 24 25  2  0
 24 54  1  0
 26 25  1  6
 26 27  1  0
 26 34  1  0
 26 35  1  0
 27 28  1  0
 27 55  1  0
 27 56  1  0
 28 29  1  0
 28 33  1  0
 28 57  1  1
 29 30  1  0
 29 58  1  0
 29 59  1  0
 30 31  1  0
 30 35  1  0
 30 60  1  1
 31 32  1  0
 31 61  1  0
 31 62  1  0
 32 33  1  0
 32 34  1  0
 32 63  1  6
 33 64  1  0
 33 65  1  0
 34 66  1  0
 34 67  1  0
 35 68  1  0
 35 69  1  0
M  END

