
     RDKit          3D

 53 53  0  0  0  0  0  0  0  0999 V2000
    6.7534    1.3168   -0.3569 C   0  0  0  0  0  0  0  0  0  0  0  0
    5.3116    1.8495   -0.4686 C   0  0  1  0  0  0  0  0  0  0  0  0
    4.6128    1.6980    0.8957 C   0  0  0  0  0  0  0  0  0  0  0  0
    5.3679    3.3485   -0.8253 C   0  0  0  0  0  0  0  0  0  0  0  0
    4.5412    1.1267   -1.6102 C   0  0  0  0  0  0  0  0  0  0  0  0
    4.2543   -0.3874   -1.4691 C   0  0  1  0  0  0  0  0  0  0  0  0
    2.8629   -0.6658   -0.8567 C   0  0  0  0  0  0  0  0  0  0  0  0
    1.7739   -0.1628   -1.6927 N   0  0  0  0  0  0  0  0  0  0  0  0
    4.3728   -1.1538   -2.8173 C   0  0  0  0  0  0  0  0  0  0  0  0
    5.6814   -1.3779   -3.3951 N   0  0  0  0  0  0  0  0  0  0  0  0
    6.6003   -2.2002   -2.6452 C   0  0  0  0  0  0  0  0  0  0  0  0
    7.8481   -2.5451   -3.4147 C   0  0  0  0  0  0  0  0  0  0  0  0
    8.1662   -2.0429   -4.6197 C   0  0  0  0  0  0  0  0  0  0  0  0
    9.4461   -2.4161   -5.3861 C   0  0  1  0  0  0  0  0  0  0  0  0
    9.0792   -2.8525   -6.8237 C   0  0  0  0  0  0  0  0  0  0  0  0
   10.3861   -1.1884   -5.4528 C   0  0  0  0  0  0  0  0  0  0  0  0
   10.2135   -3.5688   -4.7152 C   0  0  0  0  0  0  0  0  0  0  0  0
    7.2141   -1.0522   -5.2663 C   0  0  0  0  0  0  0  0  0  0  0  0
    6.3102   -0.3769   -4.2308 C   0  0  0  0  0  0  0  0  0  0  0  0
    7.3137    1.8614    0.4213 H   0  0  0  0  0  0  0  0  0  0  0  0
    7.2992    1.4368   -1.3071 H   0  0  0  0  0  0  0  0  0  0  0  0
    6.7793    0.2481   -0.0901 H   0  0  0  0  0  0  0  0  0  0  0  0
    5.1407    2.2832    1.6673 H   0  0  0  0  0  0  0  0  0  0  0  0
    4.5978    0.6509    1.2377 H   0  0  0  0  0  0  0  0  0  0  0  0
    3.5722    2.0602    0.8580 H   0  0  0  0  0  0  0  0  0  0  0  0
    5.9252    3.9197   -0.0642 H   0  0  0  0  0  0  0  0  0  0  0  0
    4.3554    3.7789   -0.8953 H   0  0  0  0  0  0  0  0  0  0  0  0
    5.8661    3.5088   -1.7958 H   0  0  0  0  0  0  0  0  0  0  0  0
    5.1136    1.3053   -2.5336 H   0  0  0  0  0  0  0  0  0  0  0  0
    3.5716    1.6299   -1.7652 H   0  0  0  0  0  0  0  0  0  0  0  0
    4.9860   -0.8411   -0.7779 H   0  0  0  0  0  0  0  0  0  0  0  0
    2.7907   -0.1616    0.1181 H   0  0  0  0  0  0  0  0  0  0  0  0
    2.7908   -1.7552   -0.6431 H   0  0  0  0  0  0  0  0  0  0  0  0
    1.6117   -0.7761   -2.4911 H   0  0  0  0  0  0  0  0  0  0  0  0
    0.8998   -0.1436   -1.1695 H   0  0  0  0  0  0  0  0  0  0  0  0
    3.7585   -0.6340   -3.5734 H   0  0  0  0  0  0  0  0  0  0  0  0
    3.9090   -2.1504   -2.6689 H   0  0  0  0  0  0  0  0  0  0  0  0
    6.0849   -3.1382   -2.3563 H   0  0  0  0  0  0  0  0  0  0  0  0
    6.9179   -1.7394   -1.6769 H   0  0  0  0  0  0  0  0  0  0  0  0
    8.5125   -3.2491   -2.9082 H   0  0  0  0  0  0  0  0  0  0  0  0
    8.5862   -2.0469   -7.3888 H   0  0  0  0  0  0  0  0  0  0  0  0
    8.4014   -3.7215   -6.8125 H   0  0  0  0  0  0  0  0  0  0  0  0
    9.9863   -3.1377   -7.3813 H   0  0  0  0  0  0  0  0  0  0  0  0
    9.9154   -0.3313   -5.9586 H   0  0  0  0  0  0  0  0  0  0  0  0
   11.3038   -1.4355   -6.0121 H   0  0  0  0  0  0  0  0  0  0  0  0
   10.6805   -0.8640   -4.4421 H   0  0  0  0  0  0  0  0  0  0  0  0
    9.5947   -4.4763   -4.6354 H   0  0  0  0  0  0  0  0  0  0  0  0
   10.5571   -3.3000   -3.7042 H   0  0  0  0  0  0  0  0  0  0  0  0
   11.1068   -3.8220   -5.3085 H   0  0  0  0  0  0  0  0  0  0  0  0
    6.5846   -1.5729   -6.0099 H   0  0  0  0  0  0  0  0  0  0  0  0
    7.7721   -0.2788   -5.8207 H   0  0  0  0  0  0  0  0  0  0  0  0
    5.5226    0.2020   -4.7392 H   0  0  0  0  0  0  0  0  0  0  0  0
    6.9210    0.3554   -3.6550 H   0  0  0  0  0  0  0  0  0  0  0  0
  2  1  1  1
  1 20  1  0
  1 21  1  0
  1 22  1  0
  2  3  1  0
  2  4  1  0
  2  5  1  0
  3 23  1  0
  3 24  1  0
  3 25  1  0
  4 26  1  0
  4 27  1  0
  4 28  1  0
  5  6  1  0
  5 29  1  0
  5 30  1  0
  6  7  1  0
  6  9  1  0
  6 31  1  1
  7  8  1  0
  7 32  1  0
  7 33  1  0
  8 34  1  0
  8 35  1  0
  9 10  1  0
  9 36  1  0
  9 37  1  0
 10 11  1  0
 10 19  1  0
 11 12  1  0
 11 38  1  0
 11 39  1  0
 12 13  2  0
 12 40  1  0
 13 14  1  0
 13 18  1  0
 14 15  1  6
 14 16  1  0
 14 17  1  0
 15 41  1  0
 15 42  1  0
 15 43  1  0
 16 44  1  0
 16 45  1  0
 16 46  1  0
 17 47  1  0
 17 48  1  0
 17 49  1  0
 18 19  1  0
 18 50  1  0
 18 51  1  0
 19 52  1  0
 19 53  1  0
M  END

