
     RDKit          3D

 29 31  0  0  0  0  0  0  0  0999 V2000
    1.1382   -0.1199    0.4400 N   0  0  0  0  0  0  0  0  0  0  0  0
    2.4832   -0.0657    0.1380 C   0  0  0  0  0  0  0  0  0  0  0  0
    3.1394    1.1749   -0.0307 C   0  0  0  0  0  0  0  0  0  0  0  0
    4.5010    1.2299   -0.2914 C   0  0  0  0  0  0  0  0  0  0  0  0
    5.2671    0.0521   -0.3957 C   0  0  0  0  0  0  0  0  0  0  0  0
    6.6934    0.1403   -0.6715 C   0  0  0  0  0  0  0  0  0  0  0  0
    7.4136    1.2076   -0.8467 N   0  0  0  0  0  0  0  0  0  0  0  0
    8.6994    0.7411   -1.0758 C   0  0  0  0  0  0  0  0  0  0  0  0
    9.9061    1.4053   -1.3290 C   0  0  0  0  0  0  0  0  0  0  0  0
   11.0522    0.6319   -1.5204 C   0  0  0  0  0  0  0  0  0  0  0  0
   12.3654    1.1582   -1.7882 N   0  0  0  0  0  0  0  0  0  0  0  0
   11.0002   -0.7926   -1.4615 C   0  0  0  0  0  0  0  0  0  0  0  0
   12.1427   -1.4755   -1.6583 O   0  0  0  0  0  0  0  0  0  0  0  0
    9.7994   -1.4706   -1.2077 C   0  0  0  0  0  0  0  0  0  0  0  0
    8.6831   -0.6660   -1.0230 C   0  0  0  0  0  0  0  0  0  0  0  0
    7.3995   -1.0439   -0.7643 O   0  0  0  0  0  0  0  0  0  0  0  0
    4.6164   -1.1847   -0.2290 C   0  0  0  0  0  0  0  0  0  0  0  0
    3.2526   -1.2446    0.0321 C   0  0  0  0  0  0  0  0  0  0  0  0
    0.5785    0.7012    0.2466 H   0  0  0  0  0  0  0  0  0  0  0  0
    0.6567   -0.9980    0.2924 H   0  0  0  0  0  0  0  0  0  0  0  0
    2.5631    2.1012    0.0486 H   0  0  0  0  0  0  0  0  0  0  0  0
    5.0010    2.1915   -0.4220 H   0  0  0  0  0  0  0  0  0  0  0  0
    9.9482    2.4958   -1.3748 H   0  0  0  0  0  0  0  0  0  0  0  0
   12.6971    1.7599   -1.0337 H   0  0  0  0  0  0  0  0  0  0  0  0
   12.3881    1.7116   -2.6452 H   0  0  0  0  0  0  0  0  0  0  0  0
   12.8100   -0.7694   -1.8112 H   0  0  0  0  0  0  0  0  0  0  0  0
    9.7687   -2.5592   -1.1639 H   0  0  0  0  0  0  0  0  0  0  0  0
    5.1926   -2.1082   -0.3084 H   0  0  0  0  0  0  0  0  0  0  0  0
    2.7666   -2.2160    0.1603 H   0  0  0  0  0  0  0  0  0  0  0  0
  1  2  1  0
  1 19  1  0
  1 20  1  0
  2  3  2  0
  2 18  1  0
  3  4  1  0
  3 21  1  0
  4  5  2  0
  4 22  1  0
  5  6  1  0
  5 17  1  0
  6  7  2  0
  6 16  1  0
  7  8  1  0
  8  9  2  0
  8 15  1  0
  9 10  1  0
  9 23  1  0
 10 11  1  0
 10 12  2  0
 11 24  1  0
 11 25  1  0
 12 13  1  0
 12 14  1  0
 13 26  1  0
 14 15  2  0
 14 27  1  0
 15 16  1  0
 17 18  2  0
 17 28  1  0
 18 29  1  0
M  END

