
     RDKit          3D

 58 61  0  0  0  0  0  0  0  0999 V2000
    1.5142   -1.2421    0.1564 C   0  0  0  0  0  0  0  0  0  0  0  0
    2.8868   -0.7854    0.0361 N   0  0  0  0  0  0  0  0  0  0  0  0
    3.8700   -1.8232   -0.2509 C   0  0  0  0  0  0  0  0  0  0  0  0
    3.9264   -2.2250   -1.7322 C   0  0  0  0  0  0  0  0  0  0  0  0
    4.1153   -1.0346   -2.5691 N   0  0  0  0  0  0  0  0  0  0  0  0
    5.0120   -1.0932   -3.6014 C   0  0  0  0  0  0  0  0  0  0  0  0
    5.6771   -2.0954   -3.8327 O   0  0  0  0  0  0  0  0  0  0  0  0
    5.2333    0.1667   -4.4598 C   0  0  1  0  0  0  0  0  0  0  0  0
    6.0854    1.2481   -3.7237 C   0  0  0  0  0  0  0  0  0  0  0  0
    7.4583    0.7947   -3.2871 C   0  0  0  0  0  0  0  0  0  0  0  0
    8.5805    0.9706   -4.1118 C   0  0  0  0  0  0  0  0  0  0  0  0
    9.8420    0.5298   -3.7116 C   0  0  0  0  0  0  0  0  0  0  0  0
   10.0142   -0.0980   -2.4736 C   0  0  0  0  0  0  0  0  0  0  0  0
   11.6001   -0.6345   -1.9981 Cl  0  0  0  0  0  0  0  0  0  0  0  0
    8.9018   -0.2751   -1.6349 C   0  0  0  0  0  0  0  0  0  0  0  0
    9.0575   -1.0432   -0.0791 Cl  0  0  0  0  0  0  0  0  0  0  0  0
    7.6432    0.1708   -2.0462 C   0  0  0  0  0  0  0  0  0  0  0  0
    5.8507   -0.2690   -5.6938 N   0  0  0  0  0  0  0  0  0  0  0  0
    5.7500    0.4543   -6.8380 C   0  0  0  0  0  0  0  0  0  0  0  0
    5.2034    1.5479   -6.8861 O   0  0  0  0  0  0  0  0  0  0  0  0
    6.3439   -0.1989   -8.0883 C   0  0  1  0  0  0  0  0  0  0  0  0
    5.2817   -0.8268   -8.9513 C   0  0  0  0  0  0  0  0  0  0  0  0
    4.5980   -0.0335   -9.8889 C   0  0  0  0  0  0  0  0  0  0  0  0
    3.5812   -0.5417  -10.6953 C   0  0  0  0  0  0  0  0  0  0  0  0
    3.2248   -1.8868  -10.5662 C   0  0  0  0  0  0  0  0  0  0  0  0
    1.9614   -2.5538  -11.5720 Cl  0  0  0  0  0  0  0  0  0  0  0  0
    3.8638   -2.7081   -9.6367 C   0  0  0  0  0  0  0  0  0  0  0  0
    4.8746   -2.1692   -8.8343 C   0  0  0  0  0  0  0  0  0  0  0  0
    5.6143   -3.2382   -7.6565 Cl  0  0  0  0  0  0  0  0  0  0  0  0
    7.4740    0.5554   -8.7484 C   0  0  0  0  0  0  0  0  0  0  0  0
    7.7491   -0.7526   -8.0552 C   0  0  0  0  0  0  0  0  0  0  0  0
    3.1338    0.0231   -2.3262 C   0  0  0  0  0  0  0  0  0  0  0  0
    3.0890    0.3681   -0.8250 C   0  0  0  0  0  0  0  0  0  0  0  0
    1.4549   -2.0304    0.9240 H   0  0  0  0  0  0  0  0  0  0  0  0
    1.0614   -1.6533   -0.7730 H   0  0  0  0  0  0  0  0  0  0  0  0
    0.8756   -0.4083    0.4904 H   0  0  0  0  0  0  0  0  0  0  0  0
    3.6547   -2.7102    0.3660 H   0  0  0  0  0  0  0  0  0  0  0  0
    4.8676   -1.4539    0.0504 H   0  0  0  0  0  0  0  0  0  0  0  0
    2.9907   -2.7345   -2.0319 H   0  0  0  0  0  0  0  0  0  0  0  0
    4.7560   -2.9135   -1.9339 H   0  0  0  0  0  0  0  0  0  0  0  0
    4.2774    0.6482   -4.7194 H   0  0  0  0  0  0  0  0  0  0  0  0
    5.5203    1.6097   -2.8505 H   0  0  0  0  0  0  0  0  0  0  0  0
    6.1672    2.0930   -4.4234 H   0  0  0  0  0  0  0  0  0  0  0  0
    8.4706    1.4712   -5.0765 H   0  0  0  0  0  0  0  0  0  0  0  0
   10.7130    0.6727   -4.3534 H   0  0  0  0  0  0  0  0  0  0  0  0
    6.7973    0.0227   -1.3731 H   0  0  0  0  0  0  0  0  0  0  0  0
    6.2342   -1.2122   -5.6883 H   0  0  0  0  0  0  0  0  0  0  0  0
    4.8769    1.0189   -9.9724 H   0  0  0  0  0  0  0  0  0  0  0  0
    3.0666    0.0937  -11.4173 H   0  0  0  0  0  0  0  0  0  0  0  0
    3.5788   -3.7544   -9.5302 H   0  0  0  0  0  0  0  0  0  0  0  0
    7.8014    1.4844   -8.2739 H   0  0  0  0  0  0  0  0  0  0  0  0
    7.5001    0.5759   -9.8414 H   0  0  0  0  0  0  0  0  0  0  0  0
    8.2846   -0.7345   -7.1019 H   0  0  0  0  0  0  0  0  0  0  0  0
    7.9612   -1.6311   -8.6690 H   0  0  0  0  0  0  0  0  0  0  0  0
    2.1374   -0.3207   -2.6655 H   0  0  0  0  0  0  0  0  0  0  0  0
    3.3763    0.9208   -2.9062 H   0  0  0  0  0  0  0  0  0  0  0  0
    2.2937    1.1084   -0.6415 H   0  0  0  0  0  0  0  0  0  0  0  0
    4.0490    0.8447   -0.5520 H   0  0  0  0  0  0  0  0  0  0  0  0
  1  2  1  0
  1 34  1  0
  1 35  1  0
  1 36  1  0
  2  3  1  0
  2 33  1  0
  3  4  1  0
  3 37  1  0
  3 38  1  0
  4  5  1  0
  4 39  1  0
  4 40  1  0
  5  6  1  0
  5 32  1  0
  6  7  2  0
  6  8  1  0
  8  9  1  0
  8 18  1  0
  8 41  1  6
  9 10  1  0
  9 42  1  0
  9 43  1  0
 10 11  2  0
 10 17  1  0
 11 12  1  0
 11 44  1  0
 12 13  2  0
 12 45  1  0
 13 14  1  0
 13 15  1  0
 15 16  1  0
 15 17  2  0
 17 46  1  0
 18 19  1  0
 18 47  1  0
 19 20  2  0
 21 19  1  1
 21 22  1  0
 21 30  1  0
 21 31  1  0
 22 23  2  0
 22 28  1  0
 23 24  1  0
 23 48  1  0
 24 25  2  0
 24 49  1  0
 25 26  1  0
 25 27  1  0
 27 28  2  0
 27 50  1  0
 28 29  1  0
 30 31  1  0
 30 51  1  0
 30 52  1  0
 31 53  1  0
 31 54  1  0
 32 33  1  0
 32 55  1  0
 32 56  1  0
 33 57  1  0
 33 58  1  0
M  END

