
     RDKit          3D

 43 45  0  0  0  0  0  0  0  0999 V2000
    1.3015   -0.3138   -0.0593 C   0  0  0  0  0  0  0  0  0  0  0  0
    2.7903   -0.2281   -0.2881 C   0  0  0  0  0  0  0  0  0  0  0  0
    3.3252   -0.0076   -1.5666 C   0  0  0  0  0  0  0  0  0  0  0  0
    4.7059    0.0729   -1.7657 C   0  0  0  0  0  0  0  0  0  0  0  0
    5.5945   -0.0535   -0.6930 C   0  0  0  0  0  0  0  0  0  0  0  0
    7.0069   -0.0230   -0.8714 N   0  0  0  0  0  0  0  0  0  0  0  0
    7.9099    1.0409   -0.8037 C   0  0  0  0  0  0  0  0  0  0  0  0
    7.5576    2.5091   -0.5852 C   0  0  1  0  0  0  0  0  0  0  0  0
    6.7189    2.7136    0.6971 C   0  0  0  0  0  0  0  0  0  0  0  0
    8.8755    3.2941   -0.4363 C   0  0  0  0  0  0  0  0  0  0  0  0
    6.7862    3.0686   -1.8037 C   0  0  0  0  0  0  0  0  0  0  0  0
    9.1403    0.6093   -0.9830 N   0  0  0  0  0  0  0  0  0  0  0  0
    9.0658   -0.7473   -1.1634 C   0  0  0  0  0  0  0  0  0  0  0  0
    7.7658   -1.1722   -1.0860 C   0  0  0  0  0  0  0  0  0  0  0  0
    7.3058   -2.5883   -1.2061 C   0  0  0  0  0  0  0  0  0  0  0  0
    8.5624   -3.4919   -1.0892 C   0  0  0  0  0  0  0  0  0  0  0  0
    9.7304   -3.0205   -1.8248 N   0  0  0  0  0  0  0  0  0  0  0  0
   10.2060   -1.7016   -1.3927 C   0  0  0  0  0  0  0  0  0  0  0  0
    5.0513   -0.2906    0.5782 C   0  0  0  0  0  0  0  0  0  0  0  0
    5.8820   -0.4343    1.6166 F   0  0  0  0  0  0  0  0  0  0  0  0
    3.6803   -0.3719    0.7890 C   0  0  0  0  0  0  0  0  0  0  0  0
    0.7414   -0.2015   -0.9986 H   0  0  0  0  0  0  0  0  0  0  0  0
    0.9597    0.4722    0.6345 H   0  0  0  0  0  0  0  0  0  0  0  0
    1.0221   -1.2817    0.3887 H   0  0  0  0  0  0  0  0  0  0  0  0
    2.6528    0.0994   -2.4212 H   0  0  0  0  0  0  0  0  0  0  0  0
    5.1145    0.2355   -2.7650 H   0  0  0  0  0  0  0  0  0  0  0  0
    7.2001    2.2441    1.5688 H   0  0  0  0  0  0  0  0  0  0  0  0
    5.7032    2.3038    0.6033 H   0  0  0  0  0  0  0  0  0  0  0  0
    6.6158    3.7912    0.9041 H   0  0  0  0  0  0  0  0  0  0  0  0
    9.4531    2.9402    0.4298 H   0  0  0  0  0  0  0  0  0  0  0  0
    8.6534    4.3646   -0.2990 H   0  0  0  0  0  0  0  0  0  0  0  0
    9.5141    3.1731   -1.3217 H   0  0  0  0  0  0  0  0  0  0  0  0
    5.8121    2.5755   -1.9380 H   0  0  0  0  0  0  0  0  0  0  0  0
    7.3687    2.9408   -2.7297 H   0  0  0  0  0  0  0  0  0  0  0  0
    6.5957    4.1462   -1.6690 H   0  0  0  0  0  0  0  0  0  0  0  0
    6.7947   -2.7648   -2.1726 H   0  0  0  0  0  0  0  0  0  0  0  0
    6.5755   -2.8539   -0.4211 H   0  0  0  0  0  0  0  0  0  0  0  0
    8.3194   -4.5137   -1.4232 H   0  0  0  0  0  0  0  0  0  0  0  0
    8.8439   -3.5655   -0.0239 H   0  0  0  0  0  0  0  0  0  0  0  0
    9.5151   -2.9908   -2.8212 H   0  0  0  0  0  0  0  0  0  0  0  0
   10.9044   -1.3051   -2.1478 H   0  0  0  0  0  0  0  0  0  0  0  0
   10.7992   -1.8161   -0.4647 H   0  0  0  0  0  0  0  0  0  0  0  0
    3.3205   -0.5505    1.8051 H   0  0  0  0  0  0  0  0  0  0  0  0
  1  2  1  0
  1 22  1  0
  1 23  1  0
  1 24  1  0
  2  3  2  0
  2 21  1  0
  3  4  1  0
  3 25  1  0
  4  5  2  0
  4 26  1  0
  5  6  1  0
  5 19  1  0
  6  7  1  0
  6 14  1  0
  7  8  1  0
  7 12  2  0
  8  9  1  1
  8 10  1  0
  8 11  1  0
  9 27  1  0
  9 28  1  0
  9 29  1  0
 10 30  1  0
 10 31  1  0
 10 32  1  0
 11 33  1  0
 11 34  1  0
 11 35  1  0
 12 13  1  0
 13 14  2  0
 13 18  1  0
 14 15  1  0
 15 16  1  0
 15 36  1  0
 15 37  1  0
 16 17  1  0
 16 38  1  0
 16 39  1  0
 17 18  1  0
 17 40  1  0
 18 41  1  0
 18 42  1  0
 19 20  1  0
 19 21  2  0
 21 43  1  0
M  END

