
     RDKit          3D

 46 48  0  0  0  0  0  0  0  0999 V2000
    7.4299   -1.8904    0.4299 C   0  0  0  0  0  0  0  0  0  0  0  0
    6.3733   -1.2305   -0.2311 O   0  0  0  0  0  0  0  0  0  0  0  0
    5.7701   -0.1615    0.3641 C   0  0  0  0  0  0  0  0  0  0  0  0
    6.1265    0.3283    1.6290 C   0  0  0  0  0  0  0  0  0  0  0  0
    5.4433    1.4241    2.1684 C   0  0  0  0  0  0  0  0  0  0  0  0
    4.4102    2.0350    1.4584 C   0  0  0  0  0  0  0  0  0  0  0  0
    4.0645    1.5446    0.1945 C   0  0  0  0  0  0  0  0  0  0  0  0
    4.7323    0.4536   -0.3720 C   0  0  0  0  0  0  0  0  0  0  0  0
    4.3348   -0.0674   -1.7411 C   0  0  0  0  0  0  0  0  0  0  0  0
    3.2732   -1.0638   -1.7123 N   0  0  0  0  0  0  0  0  0  0  0  0
    3.4750   -2.4406   -1.2908 C   0  0  0  0  0  0  0  0  0  0  0  0
    2.1410   -3.1277   -1.6715 C   0  0  1  0  0  0  0  0  0  0  0  0
    2.2031   -3.4727   -2.7169 H   0  0  0  0  0  0  0  0  0  0  0  0
    1.8074   -4.2907   -0.7412 C   0  0  0  0  0  0  0  0  0  0  0  0
    1.7585   -4.1487    0.4712 O   0  0  0  0  0  0  0  0  0  0  0  0
    1.5523   -5.4836   -1.3565 N   0  0  0  0  0  0  0  0  0  0  0  0
    1.2422   -6.6946   -0.6093 C   0  0  0  0  0  0  0  0  0  0  0  0
    2.4235   -7.6325   -0.4525 C   0  0  0  0  0  0  0  0  0  0  0  0
    2.4985   -8.8556   -1.1270 C   0  0  0  0  0  0  0  0  0  0  0  0
    3.6244   -9.6645   -0.9540 C   0  0  0  0  0  0  0  0  0  0  0  0
    4.6410   -9.2139   -0.1084 C   0  0  0  0  0  0  0  0  0  0  0  0
    4.5852   -8.0508    0.5480 N   0  0  0  0  0  0  0  0  0  0  0  0
    3.5051   -7.2882    0.3799 C   0  0  0  0  0  0  0  0  0  0  0  0
    1.1254   -1.9735   -1.5801 C   0  0  0  0  0  0  0  0  0  0  0  0
    1.9532   -0.7162   -1.8437 C   0  0  0  0  0  0  0  0  0  0  0  0
    1.5306    0.3961   -2.0970 O   0  0  0  0  0  0  0  0  0  0  0  0
    7.7575   -2.7014   -0.2346 H   0  0  0  0  0  0  0  0  0  0  0  0
    7.1048   -2.3266    1.3913 H   0  0  0  0  0  0  0  0  0  0  0  0
    8.2834   -1.2142    0.6165 H   0  0  0  0  0  0  0  0  0  0  0  0
    6.9285   -0.1376    2.2016 H   0  0  0  0  0  0  0  0  0  0  0  0
    5.7282    1.7958    3.1562 H   0  0  0  0  0  0  0  0  0  0  0  0
    3.8757    2.8885    1.8816 H   0  0  0  0  0  0  0  0  0  0  0  0
    3.2523    2.0065   -0.3732 H   0  0  0  0  0  0  0  0  0  0  0  0
    5.2083   -0.5020   -2.2487 H   0  0  0  0  0  0  0  0  0  0  0  0
    3.9509    0.7642   -2.3480 H   0  0  0  0  0  0  0  0  0  0  0  0
    3.6457   -2.5151   -0.2024 H   0  0  0  0  0  0  0  0  0  0  0  0
    4.3427   -2.8869   -1.8024 H   0  0  0  0  0  0  0  0  0  0  0  0
    1.6956   -5.5560   -2.3566 H   0  0  0  0  0  0  0  0  0  0  0  0
    0.4103   -7.2210   -1.1045 H   0  0  0  0  0  0  0  0  0  0  0  0
    0.8926   -6.3598    0.3779 H   0  0  0  0  0  0  0  0  0  0  0  0
    1.6802   -9.1763   -1.7797 H   0  0  0  0  0  0  0  0  0  0  0  0
    3.7134  -10.6266   -1.4641 H   0  0  0  0  0  0  0  0  0  0  0  0
    5.5397   -9.8227    0.0483 H   0  0  0  0  0  0  0  0  0  0  0  0
    3.4740   -6.3426    0.9354 H   0  0  0  0  0  0  0  0  0  0  0  0
    0.7171   -1.8985   -0.5579 H   0  0  0  0  0  0  0  0  0  0  0  0
    0.2822   -2.0467   -2.2809 H   0  0  0  0  0  0  0  0  0  0  0  0
  1  2  1  0
  1 27  1  0
  1 28  1  0
  1 29  1  0
  2  3  1  0
  3  4  2  0
  3  8  1  0
  4  5  1  0
  4 30  1  0
  5  6  2  0
  5 31  1  0
  6  7  1  0
  6 32  1  0
  7  8  2  0
  7 33  1  0
  8  9  1  0
  9 10  1  0
  9 34  1  0
  9 35  1  0
 10 11  1  0
 10 25  1  0
 11 12  1  0
 11 36  1  0
 11 37  1  0
 12 13  1  6
 12 14  1  0
 12 24  1  0
 14 15  2  0
 14 16  1  0
 16 17  1  0
 16 38  1  0
 17 18  1  0
 17 39  1  0
 17 40  1  0
 18 19  2  0
 18 23  1  0
 19 20  1  0
 19 41  1  0
 20 21  2  0
 20 42  1  0
 21 22  1  0
 21 43  1  0
 22 23  2  0
 23 44  1  0
 24 25  1  0
 24 45  1  0
 24 46  1  0
 25 26  2  0
M  END

