
     RDKit          3D

 57 60  0  0  0  0  0  0  0  0999 V2000
    7.3511   -3.6448   -1.3683 O   0  0  0  0  0  0  0  0  0  0  0  0
    6.9166   -3.0727   -0.3850 C   0  0  0  0  0  0  0  0  0  0  0  0
    6.1132   -3.8491    0.6720 C   0  0  0  0  0  0  0  0  0  0  0  0
    5.4061   -2.9894    1.6200 N   0  0  0  0  0  0  0  0  0  0  0  0
    4.0458   -2.7433    1.4878 C   0  0  0  0  0  0  0  0  0  0  0  0
    3.5497   -1.6439    1.6917 O   0  0  0  0  0  0  0  0  0  0  0  0
    3.1637   -3.9126    1.1366 C   0  0  0  0  0  0  0  0  0  0  0  0
    3.3983   -5.2146    1.6117 C   0  0  0  0  0  0  0  0  0  0  0  0
    2.4994   -6.2439    1.3350 C   0  0  0  0  0  0  0  0  0  0  0  0
    1.3456   -5.9984    0.5707 C   0  0  0  0  0  0  0  0  0  0  0  0
    0.3670   -7.1234    0.2865 C   0  0  0  0  0  0  0  0  0  0  0  0
   -0.3865   -7.5559    1.4557 N   0  0  0  0  0  0  0  0  0  0  0  0
   -0.0077   -8.6256    2.2177 C   0  0  0  0  0  0  0  0  0  0  0  0
    0.9703   -9.3094    1.9482 O   0  0  0  0  0  0  0  0  0  0  0  0
   -0.8979   -8.9325    3.4175 C   0  0  1  0  0  0  0  0  0  0  0  0
   -1.5457  -10.3296    3.3327 C   0  0  0  0  0  0  0  0  0  0  0  0
   -2.0086  -10.6029    4.7724 C   0  0  0  0  0  0  0  0  0  0  0  0
   -0.9512   -9.9161    5.6795 C   0  0  0  0  0  0  0  0  0  0  0  0
   -0.1064   -9.0142    4.7420 C   0  0  0  0  0  0  0  0  0  0  0  0
    1.1119   -4.6970    0.1039 C   0  0  0  0  0  0  0  0  0  0  0  0
    2.0021   -3.6618    0.3930 C   0  0  0  0  0  0  0  0  0  0  0  0
    6.3087   -1.9518    2.1429 C   0  0  2  0  0  0  0  0  0  0  0  0
    5.8610   -1.2243    3.4152 C   0  0  0  0  0  0  0  0  0  0  0  0
    6.9569   -0.2524    3.8760 C   0  0  0  0  0  0  0  0  0  0  0  0
    7.3358    0.7360    2.7639 C   0  0  0  0  0  0  0  0  0  0  0  0
    7.7642    0.0039    1.4858 C   0  0  0  0  0  0  0  0  0  0  0  0
    6.6787   -0.9740    1.0178 C   0  0  1  0  0  0  0  0  0  0  0  0
    7.1198   -1.7445   -0.1440 N   0  0  0  0  0  0  0  0  0  0  0  0
    6.8195   -4.5176    1.1963 H   0  0  0  0  0  0  0  0  0  0  0  0
    5.4171   -4.4879    0.1177 H   0  0  0  0  0  0  0  0  0  0  0  0
    4.2835   -5.4187    2.2183 H   0  0  0  0  0  0  0  0  0  0  0  0
    2.6828   -7.2535    1.7117 H   0  0  0  0  0  0  0  0  0  0  0  0
    0.9104   -8.0095   -0.0720 H   0  0  0  0  0  0  0  0  0  0  0  0
   -0.3409   -6.8155   -0.4992 H   0  0  0  0  0  0  0  0  0  0  0  0
   -1.1401   -6.9670    1.7887 H   0  0  0  0  0  0  0  0  0  0  0  0
   -1.6944   -8.1714    3.5038 H   0  0  0  0  0  0  0  0  0  0  0  0
   -0.7671  -11.0469    3.0248 H   0  0  0  0  0  0  0  0  0  0  0  0
   -2.3601  -10.3833    2.5926 H   0  0  0  0  0  0  0  0  0  0  0  0
   -2.1171  -11.6787    4.9803 H   0  0  0  0  0  0  0  0  0  0  0  0
   -3.0001  -10.1484    4.9355 H   0  0  0  0  0  0  0  0  0  0  0  0
   -0.3115  -10.6552    6.1862 H   0  0  0  0  0  0  0  0  0  0  0  0
   -1.4374   -9.3300    6.4750 H   0  0  0  0  0  0  0  0  0  0  0  0
    0.8638   -9.4849    4.5207 H   0  0  0  0  0  0  0  0  0  0  0  0
    0.1003   -8.0203    5.1686 H   0  0  0  0  0  0  0  0  0  0  0  0
    0.2184   -4.4888   -0.4923 H   0  0  0  0  0  0  0  0  0  0  0  0
    1.8061   -2.6434    0.0516 H   0  0  0  0  0  0  0  0  0  0  0  0
    7.2362   -2.4974    2.4014 H   0  0  0  0  0  0  0  0  0  0  0  0
    5.6454   -1.9708    4.1971 H   0  0  0  0  0  0  0  0  0  0  0  0
    4.9276   -0.6798    3.2231 H   0  0  0  0  0  0  0  0  0  0  0  0
    7.8568   -0.8177    4.1817 H   0  0  0  0  0  0  0  0  0  0  0  0
    6.6155    0.2938    4.7702 H   0  0  0  0  0  0  0  0  0  0  0  0
    8.1446    1.4046    3.1011 H   0  0  0  0  0  0  0  0  0  0  0  0
    6.4683    1.3828    2.5411 H   0  0  0  0  0  0  0  0  0  0  0  0
    8.6940   -0.5647    1.6682 H   0  0  0  0  0  0  0  0  0  0  0  0
    7.9873    0.7258    0.6808 H   0  0  0  0  0  0  0  0  0  0  0  0
    5.7673   -0.4004    0.7655 H   0  0  0  0  0  0  0  0  0  0  0  0
    7.6114   -1.2565   -0.8884 H   0  0  0  0  0  0  0  0  0  0  0  0
  1  2  2  0
  2  3  1  0
  2 28  1  0
  3  4  1  0
  3 29  1  0
  3 30  1  0
  4  5  1  0
  4 22  1  0
  5  6  2  0
  5  7  1  0
  7  8  2  0
  7 21  1  0
  8  9  1  0
  8 31  1  0
  9 10  2  0
  9 32  1  0
 10 11  1  0
 10 20  1  0
 11 12  1  0
 11 33  1  0
 11 34  1  0
 12 13  1  0
 12 35  1  0
 13 14  2  0
 13 15  1  0
 15 16  1  0
 15 19  1  0
 15 36  1  1
 16 17  1  0
 16 37  1  0
 16 38  1  0
 17 18  1  0
 17 39  1  0
 17 40  1  0
 18 19  1  0
 18 41  1  0
 18 42  1  0
 19 43  1  0
 19 44  1  0
 20 21  2  0
 20 45  1  0
 21 46  1  0
 22 23  1  0
 22 27  1  0
 22 47  1  1
 23 24  1  0
 23 48  1  0
 23 49  1  0
 24 25  1  0
 24 50  1  0
 24 51  1  0
 25 26  1  0
 25 52  1  0
 25 53  1  0
 26 27  1  0
 26 54  1  0
 26 55  1  0
 27 28  1  0
 27 56  1  6
 28 57  1  0
M  END

