
     RDKit          3D

 32 34  0  0  0  0  0  0  0  0999 V2000
    1.3926   -0.5395    0.7085 C   0  0  0  0  0  0  0  0  0  0  0  0
    2.8050   -0.1099    0.4624 C   0  0  0  0  0  0  0  0  0  0  0  0
    3.8882   -0.9039    0.1108 C   0  0  0  0  0  0  0  0  0  0  0  0
    4.9466   -0.0268    0.0043 N   0  0  0  0  0  0  0  0  0  0  0  0
    6.2663   -0.1718   -0.3054 N   0  0  0  0  0  0  0  0  0  0  0  0
    6.8361    1.0025   -0.2625 C   0  0  0  0  0  0  0  0  0  0  0  0
    8.1477    1.2173   -0.5179 N   0  0  0  0  0  0  0  0  0  0  0  0
    8.8037    2.5132   -0.3516 C   0  0  0  0  0  0  0  0  0  0  0  0
   10.2512    2.2273   -0.7621 C   0  0  0  0  0  0  0  0  0  0  0  0
   10.4465    0.7463   -0.3916 C   0  0  2  0  0  0  0  0  0  0  0  0
   11.6920    0.0930   -0.9838 C   0  0  0  0  0  0  0  0  0  0  0  0
    9.0845    0.1059   -0.7732 C   0  0  2  0  0  0  0  0  0  0  0  0
    8.9690   -0.4222   -2.2066 C   0  0  0  0  0  0  0  0  0  0  0  0
    5.7687    2.3850    0.1693 S   0  0  0  0  0  0  0  0  0  0  0  0
    4.4565    1.2176    0.2901 C   0  0  0  0  0  0  0  0  0  0  0  0
    3.1786    1.2171    0.5706 N   0  0  0  0  0  0  0  0  0  0  0  0
    1.2837   -1.6290    0.6034 H   0  0  0  0  0  0  0  0  0  0  0  0
    0.7016   -0.0540   -0.0007 H   0  0  0  0  0  0  0  0  0  0  0  0
    1.0651   -0.2552    1.7221 H   0  0  0  0  0  0  0  0  0  0  0  0
    3.9966   -1.9699   -0.0657 H   0  0  0  0  0  0  0  0  0  0  0  0
    8.7419    2.8534    0.7004 H   0  0  0  0  0  0  0  0  0  0  0  0
    8.3259    3.2879   -0.9759 H   0  0  0  0  0  0  0  0  0  0  0  0
   10.9668    2.8933   -0.2573 H   0  0  0  0  0  0  0  0  0  0  0  0
   10.3784    2.3678   -1.8487 H   0  0  0  0  0  0  0  0  0  0  0  0
   10.5197    0.6902    0.7096 H   0  0  0  0  0  0  0  0  0  0  0  0
   11.7084    0.1587   -2.0830 H   0  0  0  0  0  0  0  0  0  0  0  0
   11.7594   -0.9719   -0.7084 H   0  0  0  0  0  0  0  0  0  0  0  0
   12.6017    0.5886   -0.6090 H   0  0  0  0  0  0  0  0  0  0  0  0
    8.8371   -0.7190   -0.0843 H   0  0  0  0  0  0  0  0  0  0  0  0
    9.2331    0.3460   -2.9506 H   0  0  0  0  0  0  0  0  0  0  0  0
    7.9362   -0.7475   -2.3958 H   0  0  0  0  0  0  0  0  0  0  0  0
    9.6280   -1.2913   -2.3564 H   0  0  0  0  0  0  0  0  0  0  0  0
  1  2  1  0
  1 17  1  0
  1 18  1  0
  1 19  1  0
  2  3  2  0
  2 16  1  0
  3  4  1  0
  3 20  1  0
  4  5  1  0
  4 15  1  0
  5  6  2  0
  6  7  1  0
  6 14  1  0
  7  8  1  0
  7 12  1  0
  8  9  1  0
  8 21  1  0
  8 22  1  0
  9 10  1  0
  9 23  1  0
  9 24  1  0
 10 11  1  0
 10 12  1  0
 10 25  1  1
 11 26  1  0
 11 27  1  0
 11 28  1  0
 12 13  1  0
 12 29  1  1
 13 30  1  0
 13 31  1  0
 13 32  1  0
 14 15  1  0
 15 16  2  0
M  END

