
     RDKit          3D

 49 51  0  0  0  0  0  0  0  0999 V2000
    5.9416    1.0696    4.3681 C   0  0  0  0  0  0  0  0  0  0  0  0
    5.8504   -0.3060    3.7542 C   0  0  0  0  0  0  0  0  0  0  0  0
    5.7267   -1.4572    4.5439 C   0  0  0  0  0  0  0  0  0  0  0  0
    5.6558   -2.7326    3.9679 C   0  0  0  0  0  0  0  0  0  0  0  0
    5.7029   -2.8843    2.5840 C   0  0  0  0  0  0  0  0  0  0  0  0
    5.8141   -1.7344    1.7937 C   0  0  0  0  0  0  0  0  0  0  0  0
    5.9203   -1.9079    0.0062 S   0  0  1  0  0  0  0  0  0  0  0  0
    6.1487   -0.5629   -0.5422 O   0  0  0  0  0  0  0  0  0  0  0  0
    6.8463   -3.0041   -0.2943 O   0  0  0  0  0  0  0  0  0  0  0  0
    4.3777   -2.4601   -0.4088 N   0  0  0  0  0  0  0  0  0  0  0  0
    3.3265   -1.4438   -0.5495 C   0  0  0  0  0  0  0  0  0  0  0  0
    3.2139   -0.9158   -1.9859 C   0  0  0  0  0  0  0  0  0  0  0  0
    3.0671   -2.0444   -3.0290 C   0  0  2  0  0  0  0  0  0  0  0  0
    1.6389   -2.6516   -3.0286 C   0  0  0  0  0  0  0  0  0  0  0  0
    1.3692   -3.6213   -4.1581 C   0  0  0  0  0  0  0  0  0  0  0  0
    1.3079   -5.0060   -3.9378 C   0  0  0  0  0  0  0  0  0  0  0  0
    1.0743   -5.8977   -4.9868 C   0  0  0  0  0  0  0  0  0  0  0  0
    0.8952   -5.4144   -6.2866 C   0  0  0  0  0  0  0  0  0  0  0  0
    0.5869   -6.3634   -7.4164 C   0  0  1  0  0  0  0  0  0  0  0  0
    1.0898   -7.5908   -7.1936 F   0  0  0  0  0  0  0  0  0  0  0  0
   -0.7415   -6.5123   -7.5934 F   0  0  0  0  0  0  0  0  0  0  0  0
    1.0871   -5.9270   -8.5867 F   0  0  0  0  0  0  0  0  0  0  0  0
    0.9527   -4.0357   -6.5262 C   0  0  0  0  0  0  0  0  0  0  0  0
    1.1857   -3.1545   -5.4715 C   0  0  0  0  0  0  0  0  0  0  0  0
    4.1831   -3.0889   -2.8161 C   0  0  0  0  0  0  0  0  0  0  0  0
    4.2753   -3.5724   -1.3640 C   0  0  0  0  0  0  0  0  0  0  0  0
    5.8962   -0.4626    2.3571 C   0  0  0  0  0  0  0  0  0  0  0  0
    5.8862    1.0274    5.4655 H   0  0  0  0  0  0  0  0  0  0  0  0
    5.1261    1.7209    4.0126 H   0  0  0  0  0  0  0  0  0  0  0  0
    6.8887    1.5641    4.0958 H   0  0  0  0  0  0  0  0  0  0  0  0
    5.6903   -1.3575    5.6323 H   0  0  0  0  0  0  0  0  0  0  0  0
    5.5691   -3.6136    4.6086 H   0  0  0  0  0  0  0  0  0  0  0  0
    5.6621   -3.8712    2.1202 H   0  0  0  0  0  0  0  0  0  0  0  0
    3.5280   -0.6191    0.1490 H   0  0  0  0  0  0  0  0  0  0  0  0
    2.3798   -1.9074   -0.2193 H   0  0  0  0  0  0  0  0  0  0  0  0
    4.1280   -0.3409   -2.2023 H   0  0  0  0  0  0  0  0  0  0  0  0
    2.3637   -0.2154   -2.0537 H   0  0  0  0  0  0  0  0  0  0  0  0
    3.2161   -1.5952   -4.0261 H   0  0  0  0  0  0  0  0  0  0  0  0
    0.9205   -1.8168   -3.0992 H   0  0  0  0  0  0  0  0  0  0  0  0
    1.4318   -3.1515   -2.0687 H   0  0  0  0  0  0  0  0  0  0  0  0
    1.4422   -5.3966   -2.9253 H   0  0  0  0  0  0  0  0  0  0  0  0
    1.0354   -6.9717   -4.7958 H   0  0  0  0  0  0  0  0  0  0  0  0
    0.8168   -3.6542   -7.5402 H   0  0  0  0  0  0  0  0  0  0  0  0
    1.2222   -2.0800   -5.6721 H   0  0  0  0  0  0  0  0  0  0  0  0
    5.1520   -2.6371   -3.0881 H   0  0  0  0  0  0  0  0  0  0  0  0
    4.0407   -3.9539   -3.4845 H   0  0  0  0  0  0  0  0  0  0  0  0
    5.1447   -4.2273   -1.2264 H   0  0  0  0  0  0  0  0  0  0  0  0
    3.3797   -4.1546   -1.0819 H   0  0  0  0  0  0  0  0  0  0  0  0
    6.0064    0.4015    1.6982 H   0  0  0  0  0  0  0  0  0  0  0  0
  1  2  1  0
  1 28  1  0
  1 29  1  0
  1 30  1  0
  2  3  2  0
  2 27  1  0
  3  4  1  0
  3 31  1  0
  4  5  2  0
  4 32  1  0
  5  6  1  0
  5 33  1  0
  7  6  1  1
  6 27  2  0
  7  8  2  0
  7  9  2  0
  7 10  1  0
 10 11  1  0
 10 26  1  0
 11 12  1  0
 11 34  1  0
 11 35  1  0
 12 13  1  0
 12 36  1  0
 12 37  1  0
 13 14  1  0
 13 25  1  0
 13 38  1  6
 14 15  1  0
 14 39  1  0
 14 40  1  0
 15 16  2  0
 15 24  1  0
 16 17  1  0
 16 41  1  0
 17 18  2  0
 17 42  1  0
 18 19  1  0
 18 23  1  0
 19 20  1  1
 19 21  1  0
 19 22  1  0
 23 24  2  0
 23 43  1  0
 24 44  1  0
 25 26  1  0
 25 45  1  0
 25 46  1  0
 26 47  1  0
 26 48  1  0
 27 49  1  0
M  END

