
     RDKit          3D

 39 40  0  0  0  0  0  0  0  0999 V2000
    0.6252    0.2253    0.0190 C   0  0  0  0  0  0  0  0  0  0  0  0
    2.1524    0.2081   -0.0702 C   0  0  0  0  0  0  0  0  0  0  0  0
    2.7963    1.4142    0.6209 C   0  0  0  0  0  0  0  0  0  0  0  0
    4.3324    1.3645    0.6534 C   0  0  1  0  0  0  0  0  0  0  0  0
    5.0291    1.3411   -0.7250 C   0  0  0  0  0  0  0  0  0  0  0  0
    4.6849    2.4928   -1.6707 C   0  0  0  0  0  0  0  0  0  0  0  0
    4.8550    2.4609    1.4885 N   0  0  0  0  0  0  0  0  0  0  0  0
    4.3227    3.6990    1.3882 N   0  0  0  0  0  0  0  0  0  0  0  0
    4.9720    4.4790    2.1855 N   0  0  0  0  0  0  0  0  0  0  0  0
    5.9478    3.7701    2.8220 C   0  0  0  0  0  0  0  0  0  0  0  0
    6.8417    4.4115    3.7933 C   0  0  0  0  0  0  0  0  0  0  0  0
    6.8119    5.8098    3.9630 C   0  0  0  0  0  0  0  0  0  0  0  0
    7.6777    6.3947    4.8810 C   0  0  0  0  0  0  0  0  0  0  0  0
    8.5540    5.5815    5.6086 C   0  0  0  0  0  0  0  0  0  0  0  0
    8.5107    4.2060    5.3816 C   0  0  0  0  0  0  0  0  0  0  0  0
    7.6808    3.6346    4.5041 N   0  0  0  0  0  0  0  0  0  0  0  0
    5.8903    2.4469    2.3744 C   0  0  0  0  0  0  0  0  0  0  0  0
    6.7561    1.2557    2.7082 C   0  0  0  0  0  0  0  0  0  0  0  0
    6.8612    1.0160    4.0797 O   0  0  0  0  0  0  0  0  0  0  0  0
    0.1823   -0.6454   -0.4899 H   0  0  0  0  0  0  0  0  0  0  0  0
    0.2083    1.1330   -0.4479 H   0  0  0  0  0  0  0  0  0  0  0  0
    0.2846    0.2088    1.0675 H   0  0  0  0  0  0  0  0  0  0  0  0
    2.4517    0.1760   -1.1322 H   0  0  0  0  0  0  0  0  0  0  0  0
    2.5369   -0.7255    0.3806 H   0  0  0  0  0  0  0  0  0  0  0  0
    2.4407    1.4689    1.6638 H   0  0  0  0  0  0  0  0  0  0  0  0
    2.4666    2.3497    0.1440 H   0  0  0  0  0  0  0  0  0  0  0  0
    4.6228    0.4416    1.1787 H   0  0  0  0  0  0  0  0  0  0  0  0
    4.7868    0.3770   -1.2031 H   0  0  0  0  0  0  0  0  0  0  0  0
    6.1182    1.3182   -0.5475 H   0  0  0  0  0  0  0  0  0  0  0  0
    3.6268    2.4695   -1.9755 H   0  0  0  0  0  0  0  0  0  0  0  0
    5.2930    2.4301   -2.5867 H   0  0  0  0  0  0  0  0  0  0  0  0
    4.8701    3.4708   -1.2022 H   0  0  0  0  0  0  0  0  0  0  0  0
    6.1102    6.3964    3.3695 H   0  0  0  0  0  0  0  0  0  0  0  0
    7.6722    7.4777    5.0294 H   0  0  0  0  0  0  0  0  0  0  0  0
    9.2508    5.9997    6.3377 H   0  0  0  0  0  0  0  0  0  0  0  0
    9.1709    3.5293    5.9352 H   0  0  0  0  0  0  0  0  0  0  0  0
    7.7485    1.4206    2.2345 H   0  0  0  0  0  0  0  0  0  0  0  0
    6.3416    0.3500    2.2384 H   0  0  0  0  0  0  0  0  0  0  0  0
    7.2532    1.8397    4.4512 H   0  0  0  0  0  0  0  0  0  0  0  0
  1  2  1  0
  1 20  1  0
  1 21  1  0
  1 22  1  0
  2  3  1  0
  2 23  1  0
  2 24  1  0
  3  4  1  0
  3 25  1  0
  3 26  1  0
  4  5  1  0
  4  7  1  0
  4 27  1  1
  5  6  1  0
  5 28  1  0
  5 29  1  0
  6 30  1  0
  6 31  1  0
  6 32  1  0
  7  8  1  0
  7 17  1  0
  8  9  2  0
  9 10  1  0
 10 11  1  0
 10 17  2  0
 11 12  2  0
 11 16  1  0
 12 13  1  0
 12 33  1  0
 13 14  2  0
 13 34  1  0
 14 15  1  0
 14 35  1  0
 15 16  2  0
 15 36  1  0
 17 18  1  0
 18 19  1  0
 18 37  1  0
 18 38  1  0
 19 39  1  0
M  END

