
     RDKit          3D

 36 37  0  0  0  0  0  0  0  0999 V2000
    1.4085   -0.0036    1.6365 C   0  0  0  0  0  0  0  0  0  0  0  0
    2.8658   -0.1063    1.2538 C   0  0  0  0  0  0  0  0  0  0  0  0
    3.7716    0.9177    1.5483 C   0  0  0  0  0  0  0  0  0  0  0  0
    5.1201    0.8058    1.1831 C   0  0  0  0  0  0  0  0  0  0  0  0
    5.5605   -0.3304    0.5261 C   0  0  0  0  0  0  0  0  0  0  0  0
    6.8509   -0.4571    0.1794 F   0  0  0  0  0  0  0  0  0  0  0  0
    4.6748   -1.3804    0.2124 C   0  0  0  0  0  0  0  0  0  0  0  0
    5.2244   -2.4387   -0.4392 O   0  0  0  0  0  0  0  0  0  0  0  0
    4.5123   -3.6665   -0.5824 C   0  0  1  0  0  0  0  0  0  0  0  0
    3.5583   -3.6395   -1.7624 C   0  0  0  0  0  0  0  0  0  0  0  0
    3.7213   -2.7652   -2.8436 C   0  0  0  0  0  0  0  0  0  0  0  0
    2.8194   -2.8277   -3.9069 C   0  0  0  0  0  0  0  0  0  0  0  0
    1.7840   -3.7658   -3.8534 C   0  0  0  0  0  0  0  0  0  0  0  0
    1.6106   -4.6020   -2.8266 N   0  0  0  0  0  0  0  0  0  0  0  0
    2.4751   -4.5317   -1.8138 C   0  0  0  0  0  0  0  0  0  0  0  0
    5.5876   -4.7746   -0.6646 C   0  0  1  0  0  0  0  0  0  0  0  0
    6.5310   -4.6129   -1.8652 C   0  0  0  0  0  0  0  0  0  0  0  0
    6.2600   -4.8183    0.6319 N   0  0  0  0  0  0  0  0  0  0  0  0
    3.3326   -1.2524    0.5810 C   0  0  0  0  0  0  0  0  0  0  0  0
    1.1916    0.9486    2.1423 H   0  0  0  0  0  0  0  0  0  0  0  0
    1.1131   -0.8202    2.3165 H   0  0  0  0  0  0  0  0  0  0  0  0
    0.7547   -0.0708    0.7508 H   0  0  0  0  0  0  0  0  0  0  0  0
    3.4289    1.8158    2.0678 H   0  0  0  0  0  0  0  0  0  0  0  0
    5.8421    1.5935    1.4089 H   0  0  0  0  0  0  0  0  0  0  0  0
    3.9484   -3.8668    0.3444 H   0  0  0  0  0  0  0  0  0  0  0  0
    4.5416   -2.0441   -2.8411 H   0  0  0  0  0  0  0  0  0  0  0  0
    2.9150   -2.1586   -4.7654 H   0  0  0  0  0  0  0  0  0  0  0  0
    1.0607   -3.8402   -4.6742 H   0  0  0  0  0  0  0  0  0  0  0  0
    2.3011   -5.2236   -0.9786 H   0  0  0  0  0  0  0  0  0  0  0  0
    5.0298   -5.7211   -0.7796 H   0  0  0  0  0  0  0  0  0  0  0  0
    7.0716   -3.6554   -1.8044 H   0  0  0  0  0  0  0  0  0  0  0  0
    5.9947   -4.6472   -2.8268 H   0  0  0  0  0  0  0  0  0  0  0  0
    7.2737   -5.4269   -1.8684 H   0  0  0  0  0  0  0  0  0  0  0  0
    6.7718   -3.9445    0.7685 H   0  0  0  0  0  0  0  0  0  0  0  0
    6.9553   -5.5645    0.6429 H   0  0  0  0  0  0  0  0  0  0  0  0
    2.6272   -2.0466    0.3331 H   0  0  0  0  0  0  0  0  0  0  0  0
  1  2  1  0
  1 20  1  0
  1 21  1  0
  1 22  1  0
  2  3  2  0
  2 19  1  0
  3  4  1  0
  3 23  1  0
  4  5  2  0
  4 24  1  0
  5  6  1  0
  5  7  1  0
  7  8  1  0
  7 19  2  0
  8  9  1  0
  9 10  1  0
  9 16  1  0
  9 25  1  1
 10 11  2  0
 10 15  1  0
 11 12  1  0
 11 26  1  0
 12 13  2  0
 12 27  1  0
 13 14  1  0
 13 28  1  0
 14 15  2  0
 15 29  1  0
 16 17  1  0
 16 18  1  0
 16 30  1  6
 17 31  1  0
 17 32  1  0
 17 33  1  0
 18 34  1  0
 18 35  1  0
 19 36  1  0
M  END

