
     RDKit          3D

 58 60  0  0  0  0  0  0  0  0999 V2000
    1.5848   -0.8808   -1.9737 O   0  0  0  0  0  0  0  0  0  0  0  0
    1.9876   -0.3769   -0.9328 C   0  0  0  0  0  0  0  0  0  0  0  0
    1.9344    0.9935   -0.7367 N   0  0  0  0  0  0  0  0  0  0  0  0
    1.2748    1.8262   -1.7294 C   0  0  0  0  0  0  0  0  0  0  0  0
    2.1277    1.9987   -2.9909 C   0  0  0  0  0  0  0  0  0  0  0  0
    1.3867    3.2264   -4.0896 S   0  0  1  0  0  0  0  0  0  0  0  0
    0.1053    2.6992   -4.5654 O   0  0  0  0  0  0  0  0  0  0  0  0
    1.4656    4.5241   -3.3974 O   0  0  0  0  0  0  0  0  0  0  0  0
    2.4378    3.2360   -5.4100 N   0  0  0  0  0  0  0  0  0  0  0  0
    3.2868    4.4061   -5.6374 C   0  0  0  0  0  0  0  0  0  0  0  0
    2.5997    5.4447   -6.5400 C   0  0  1  0  0  0  0  0  0  0  0  0
    3.4715    6.6681   -6.8606 C   0  0  0  0  0  0  0  0  0  0  0  0
    4.5326    6.3743   -7.9304 C   0  0  0  0  0  0  0  0  0  0  0  0
    3.8714    5.7245   -9.1508 C   0  0  0  0  0  0  0  0  0  0  0  0
    3.0590    4.5055   -8.7209 C   0  0  0  0  0  0  0  0  0  0  0  0
    2.0960    4.8252   -7.7260 O   0  0  0  0  0  0  0  0  0  0  0  0
    2.5432   -1.1251    0.0892 N   0  0  0  0  0  0  0  0  0  0  0  0
    3.1265   -0.6098    1.3149 C   0  0  0  0  0  0  0  0  0  0  0  0
    4.4454   -1.3245    1.6115 C   0  0  0  0  0  0  0  0  0  0  0  0
    4.2885   -2.7685    1.6323 N   0  0  0  0  0  0  0  0  0  0  0  0
    5.5203   -3.4344    2.0449 C   0  0  0  0  0  0  0  0  0  0  0  0
    5.3402   -4.9462    2.1642 C   0  0  0  0  0  0  0  0  0  0  0  0
    4.8195   -5.5293    0.8486 C   0  0  0  0  0  0  0  0  0  0  0  0
    3.5489   -4.7932    0.4185 C   0  0  0  0  0  0  0  0  0  0  0  0
    3.7508   -3.2740    0.3621 C   0  0  1  0  0  0  0  0  0  0  0  0
    2.4259   -2.5746    0.0449 C   0  0  0  0  0  0  0  0  0  0  0  0
    1.9516    1.3531    0.2078 H   0  0  0  0  0  0  0  0  0  0  0  0
    1.1007    2.8143   -1.2789 H   0  0  0  0  0  0  0  0  0  0  0  0
    0.3003    1.4027   -2.0209 H   0  0  0  0  0  0  0  0  0  0  0  0
    2.1946    1.0591   -3.5545 H   0  0  0  0  0  0  0  0  0  0  0  0
    3.1360    2.3654   -2.7492 H   0  0  0  0  0  0  0  0  0  0  0  0
    1.8950    2.9823   -6.2388 H   0  0  0  0  0  0  0  0  0  0  0  0
    4.2419    4.0614   -6.0676 H   0  0  0  0  0  0  0  0  0  0  0  0
    3.5140    4.8705   -4.6676 H   0  0  0  0  0  0  0  0  0  0  0  0
    1.6986    5.7765   -6.0012 H   0  0  0  0  0  0  0  0  0  0  0  0
    3.9324    7.0450   -5.9322 H   0  0  0  0  0  0  0  0  0  0  0  0
    2.8067    7.4674   -7.2295 H   0  0  0  0  0  0  0  0  0  0  0  0
    5.3089    5.6981   -7.5286 H   0  0  0  0  0  0  0  0  0  0  0  0
    5.0527    7.3038   -8.2138 H   0  0  0  0  0  0  0  0  0  0  0  0
    4.6218    5.4236   -9.9013 H   0  0  0  0  0  0  0  0  0  0  0  0
    3.1962    6.4497   -9.6382 H   0  0  0  0  0  0  0  0  0  0  0  0
    3.7448    3.7078   -8.3664 H   0  0  0  0  0  0  0  0  0  0  0  0
    2.4874    4.0879   -9.5640 H   0  0  0  0  0  0  0  0  0  0  0  0
    2.4341   -0.7512    2.1688 H   0  0  0  0  0  0  0  0  0  0  0  0
    3.3386    0.4631    1.2150 H   0  0  0  0  0  0  0  0  0  0  0  0
    4.8199   -0.9921    2.5941 H   0  0  0  0  0  0  0  0  0  0  0  0
    5.1966   -1.0061    0.8498 H   0  0  0  0  0  0  0  0  0  0  0  0
    5.8317   -3.0097    3.0141 H   0  0  0  0  0  0  0  0  0  0  0  0
    6.3493   -3.2210    1.3270 H   0  0  0  0  0  0  0  0  0  0  0  0
    4.6212   -5.1576    2.9747 H   0  0  0  0  0  0  0  0  0  0  0  0
    6.2992   -5.4089    2.4505 H   0  0  0  0  0  0  0  0  0  0  0  0
    4.6245   -6.6100    0.9473 H   0  0  0  0  0  0  0  0  0  0  0  0
    5.5932   -5.4193    0.0669 H   0  0  0  0  0  0  0  0  0  0  0  0
    2.7397   -5.0110    1.1380 H   0  0  0  0  0  0  0  0  0  0  0  0
    3.2054   -5.1444   -0.5686 H   0  0  0  0  0  0  0  0  0  0  0  0
    4.4637   -3.0427   -0.4665 H   0  0  0  0  0  0  0  0  0  0  0  0
    1.6710   -2.9082    0.7843 H   0  0  0  0  0  0  0  0  0  0  0  0
    2.0757   -2.8503   -0.9570 H   0  0  0  0  0  0  0  0  0  0  0  0
  1  2  2  0
  2  3  1  0
  2 17  1  0
  3  4  1  0
  3 27  1  0
  4  5  1  0
  4 28  1  0
  4 29  1  0
  5  6  1  0
  5 30  1  0
  5 31  1  0
  6  7  2  0
  6  8  2  0
  6  9  1  6
  9 10  1  0
  9 32  1  0
 10 11  1  0
 10 33  1  0
 10 34  1  0
 11 12  1  0
 11 16  1  0
 11 35  1  1
 12 13  1  0
 12 36  1  0
 12 37  1  0
 13 14  1  0
 13 38  1  0
 13 39  1  0
 14 15  1  0
 14 40  1  0
 14 41  1  0
 15 16  1  0
 15 42  1  0
 15 43  1  0
 17 18  1  0
 17 26  1  0
 18 19  1  0
 18 44  1  0
 18 45  1  0
 19 20  1  0
 19 46  1  0
 19 47  1  0
 20 21  1  0
 20 25  1  0
 21 22  1  0
 21 48  1  0
 21 49  1  0
 22 23  1  0
 22 50  1  0
 22 51  1  0
 23 24  1  0
 23 52  1  0
 23 53  1  0
 24 25  1  0
 24 54  1  0
 24 55  1  0
 25 26  1  0
 25 56  1  6
 26 57  1  0
 26 58  1  0
M  END

