
     RDKit          3D

 44 46  0  0  0  0  0  0  0  0999 V2000
    3.5317    0.1564    1.1202 C   0  0  0  0  0  0  0  0  0  0  0  0
    2.4615    0.1383    0.0285 C   0  0  0  0  0  0  0  0  0  0  0  0
    2.7525    1.0574   -1.1525 C   0  0  1  0  0  0  0  0  0  0  0  0
    1.8933    1.0270   -1.8553 H   0  0  0  0  0  0  0  0  0  0  0  0
    2.8877    2.3973   -0.6631 O   0  0  0  0  0  0  0  0  0  0  0  0
    3.3272    3.3364   -1.5449 C   0  0  0  0  0  0  0  0  0  0  0  0
    2.9427    4.6669   -1.3933 C   0  0  0  0  0  0  0  0  0  0  0  0
    3.4300    5.6617   -2.2563 C   0  0  0  0  0  0  0  0  0  0  0  0
    2.9874    7.1205   -2.1001 C   0  0  1  0  0  0  0  0  0  0  0  0
    3.6451    7.7228   -2.7524 H   0  0  0  0  0  0  0  0  0  0  0  0
    1.5442    7.3223   -2.5789 C   0  0  0  0  0  0  0  0  0  0  0  0
    3.1234    7.6730   -0.7540 N   0  0  0  0  0  0  0  0  0  0  0  0
    4.4538    7.6356   -0.1772 C   0  0  0  0  0  0  0  0  0  0  0  0
    4.5907    8.5190    1.0453 C   0  0  0  0  0  0  0  0  0  0  0  0
    3.6332    9.4863    1.3787 C   0  0  0  0  0  0  0  0  0  0  0  0
    3.8113   10.2806    2.5135 C   0  0  0  0  0  0  0  0  0  0  0  0
    4.8664   10.1780    3.3252 N   0  0  0  0  0  0  0  0  0  0  0  0
    5.7933    9.2712    3.0220 C   0  0  0  0  0  0  0  0  0  0  0  0
    5.6981    8.4334    1.9048 C   0  0  0  0  0  0  0  0  0  0  0  0
    6.9908    7.2919    1.5967 Cl  0  0  0  0  0  0  0  0  0  0  0  0
    4.3081    5.2826   -3.2803 C   0  0  0  0  0  0  0  0  0  0  0  0
    4.6936    3.9486   -3.4456 C   0  0  0  0  0  0  0  0  0  0  0  0
    4.2140    2.9672   -2.5753 C   0  0  0  0  0  0  0  0  0  0  0  0
    4.6020    1.6224   -2.6464 N   0  0  0  0  0  0  0  0  0  0  0  0
    3.9752    0.6070   -1.9700 C   0  0  0  0  0  0  0  0  0  0  0  0
    4.3183   -0.5550   -2.0600 O   0  0  0  0  0  0  0  0  0  0  0  0
    3.2457   -0.5072    1.9508 H   0  0  0  0  0  0  0  0  0  0  0  0
    3.6670    1.1699    1.5268 H   0  0  0  0  0  0  0  0  0  0  0  0
    4.5010   -0.1947    0.7334 H   0  0  0  0  0  0  0  0  0  0  0  0
    1.4850    0.4338    0.4459 H   0  0  0  0  0  0  0  0  0  0  0  0
    2.3484   -0.8775   -0.3799 H   0  0  0  0  0  0  0  0  0  0  0  0
    2.2590    4.9031   -0.5740 H   0  0  0  0  0  0  0  0  0  0  0  0
    1.4244    6.9856   -3.6194 H   0  0  0  0  0  0  0  0  0  0  0  0
    1.2665    8.3851   -2.5114 H   0  0  0  0  0  0  0  0  0  0  0  0
    0.8389    6.7416   -1.9605 H   0  0  0  0  0  0  0  0  0  0  0  0
    2.4443    7.2509   -0.1206 H   0  0  0  0  0  0  0  0  0  0  0  0
    5.1708    7.9943   -0.9392 H   0  0  0  0  0  0  0  0  0  0  0  0
    4.8055    6.6170    0.0825 H   0  0  0  0  0  0  0  0  0  0  0  0
    2.7607    9.6069    0.7348 H   0  0  0  0  0  0  0  0  0  0  0  0
    3.0627   11.0374    2.7757 H   0  0  0  0  0  0  0  0  0  0  0  0
    6.6625    9.1875    3.6838 H   0  0  0  0  0  0  0  0  0  0  0  0
    4.7016    6.0400   -3.9637 H   0  0  0  0  0  0  0  0  0  0  0  0
    5.3847    3.6679   -4.2451 H   0  0  0  0  0  0  0  0  0  0  0  0
    5.3647    1.3476   -3.2587 H   0  0  0  0  0  0  0  0  0  0  0  0
  1  2  1  0
  1 27  1  0
  1 28  1  0
  1 29  1  0
  2  3  1  0
  2 30  1  0
  2 31  1  0
  3  4  1  6
  3  5  1  0
  3 25  1  0
  5  6  1  0
  6  7  1  0
  6 23  2  0
  7  8  2  0
  7 32  1  0
  8  9  1  0
  8 21  1  0
  9 10  1  6
  9 11  1  0
  9 12  1  0
 11 33  1  0
 11 34  1  0
 11 35  1  0
 12 13  1  0
 12 36  1  0
 13 14  1  0
 13 37  1  0
 13 38  1  0
 14 15  2  0
 14 19  1  0
 15 16  1  0
 15 39  1  0
 16 17  2  0
 16 40  1  0
 17 18  1  0
 18 19  2  0
 18 41  1  0
 19 20  1  0
 21 22  2  0
 21 42  1  0
 22 23  1  0
 22 43  1  0
 23 24  1  0
 24 25  1  0
 24 44  1  0
 25 26  2  0
M  END

