
     RDKit          3D

 31 35  0  0  0  0  0  0  0  0999 V2000
    0.8387   -0.0659   -0.0674 O   0  0  0  0  0  0  0  0  0  0  0  0
    2.0434    0.0230   -0.0584 C   0  0  0  0  0  0  0  0  0  0  0  0
    2.7845    1.3144   -0.0336 C   0  0  0  0  0  0  0  0  0  0  0  0
    2.0494    2.4921   -0.0101 C   0  0  0  0  0  0  0  0  0  0  0  0
    2.7009    3.7433    0.0124 C   0  0  0  0  0  0  0  0  0  0  0  0
    4.0816    3.8107    0.0101 C   0  0  0  0  0  0  0  0  0  0  0  0
    4.8720    2.6291   -0.0144 C   0  0  0  0  0  0  0  0  0  0  0  0
    6.2939    2.6571   -0.0185 C   0  0  0  0  0  0  0  0  0  0  0  0
    7.0247    1.4836   -0.0426 C   0  0  0  0  0  0  0  0  0  0  0  0
    6.3727    0.2326   -0.0630 C   0  0  0  0  0  0  0  0  0  0  0  0
    4.9849    0.1671   -0.0596 C   0  0  0  0  0  0  0  0  0  0  0  0
    4.2088    1.3617   -0.0357 C   0  0  0  0  0  0  0  0  0  0  0  0
    4.2800   -1.1039   -0.0796 C   0  0  0  0  0  0  0  0  0  0  0  0
    4.8120   -2.2950   -0.1045 N   0  0  0  0  0  0  0  0  0  0  0  0
    3.7554   -3.1749   -0.1143 C   0  0  0  0  0  0  0  0  0  0  0  0
    3.8014   -4.5758   -0.1397 C   0  0  0  0  0  0  0  0  0  0  0  0
    4.9567   -5.2312   -0.1593 F   0  0  0  0  0  0  0  0  0  0  0  0
    2.5997   -5.2758   -0.1424 C   0  0  0  0  0  0  0  0  0  0  0  0
    2.5927   -6.6062   -0.1658 F   0  0  0  0  0  0  0  0  0  0  0  0
    1.3729   -4.5884   -0.1204 C   0  0  0  0  0  0  0  0  0  0  0  0
    0.2455   -5.2956   -0.1224 F   0  0  0  0  0  0  0  0  0  0  0  0
    1.3006   -3.1917   -0.0939 C   0  0  0  0  0  0  0  0  0  0  0  0
    0.0957   -2.6398   -0.0701 F   0  0  0  0  0  0  0  0  0  0  0  0
    2.5106   -2.4833   -0.0937 C   0  0  0  0  0  0  0  0  0  0  0  0
    2.8728   -1.1283   -0.0710 N   0  0  0  0  0  0  0  0  0  0  0  0
    0.9598    2.4240   -0.0099 H   0  0  0  0  0  0  0  0  0  0  0  0
    2.1072    4.6599    0.0316 H   0  0  0  0  0  0  0  0  0  0  0  0
    4.5863    4.7805    0.0270 H   0  0  0  0  0  0  0  0  0  0  0  0
    6.8022    3.6247   -0.0026 H   0  0  0  0  0  0  0  0  0  0  0  0
    8.1164    1.5193   -0.0458 H   0  0  0  0  0  0  0  0  0  0  0  0
    6.9423   -0.6983   -0.0814 H   0  0  0  0  0  0  0  0  0  0  0  0
  1  2  2  0
  2  3  1  0
  2 25  1  0
  3  4  2  0
  3 12  1  0
  4  5  1  0
  4 26  1  0
  5  6  2  0
  5 27  1  0
  6  7  1  0
  6 28  1  0
  7  8  1  0
  7 12  2  0
  8  9  2  0
  8 29  1  0
  9 10  1  0
  9 30  1  0
 10 11  2  0
 10 31  1  0
 11 12  1  0
 11 13  1  0
 13 14  2  0
 13 25  1  0
 14 15  1  0
 15 16  1  0
 15 24  2  0
 16 17  1  0
 16 18  2  0
 18 19  1  0
 18 20  1  0
 20 21  1  0
 20 22  2  0
 22 23  1  0
 22 24  1  0
 24 25  1  0
M  END

