
     RDKit          3D

 38 41  0  0  0  0  0  0  0  0999 V2000
    1.8403    0.3780    1.0275 O   0  0  0  0  0  0  0  0  0  0  0  0
    2.7037   -0.0482    0.2666 C   0  0  0  0  0  0  0  0  0  0  0  0
    3.0517   -1.4967    0.3221 C   0  0  0  0  0  0  0  0  0  0  0  0
    4.2058   -2.2156    0.0727 C   0  0  0  0  0  0  0  0  0  0  0  0
    4.1774   -3.5378    0.3796 N   0  0  0  0  0  0  0  0  0  0  0  0
    3.0067   -3.8780    0.8740 C   0  0  0  0  0  0  0  0  0  0  0  0
    2.6762   -5.2268    1.2734 C   0  0  0  0  0  0  0  0  0  0  0  0
    3.3990   -6.3974    1.2454 C   0  0  0  0  0  0  0  0  0  0  0  0
    2.5378   -7.4066    1.7734 C   0  0  0  0  0  0  0  0  0  0  0  0
    1.3603   -6.7795    2.0812 C   0  0  0  0  0  0  0  0  0  0  0  0
    1.4345   -5.4611    1.7822 O   0  0  0  0  0  0  0  0  0  0  0  0
    1.8625   -2.5645    1.0215 S   0  0  0  0  0  0  0  0  0  0  0  0
    3.3732    0.7701   -0.6198 N   0  0  0  0  0  0  0  0  0  0  0  0
    3.1814    2.2473   -0.4324 C   0  0  0  0  0  0  0  0  0  0  0  0
    2.2265    3.0876   -1.3822 C   0  0  0  0  0  0  0  0  0  0  0  0
    2.1628    2.7856   -2.9287 C   0  0  1  0  0  0  0  0  0  0  0  0
    3.2963    3.2659   -3.9301 C   0  0  0  0  0  0  0  0  0  0  0  0
    4.2494    2.0129   -4.1233 C   0  0  0  0  0  0  0  0  0  0  0  0
    3.7918    1.3327   -2.8313 C   0  0  2  0  0  0  0  0  0  0  0  0
    4.1456    0.2700   -1.8092 C   0  0  0  0  0  0  0  0  0  0  0  0
    2.3417    1.3467   -3.0524 N   0  0  0  0  0  0  0  0  0  0  0  0
    5.1287   -1.7894   -0.3222 H   0  0  0  0  0  0  0  0  0  0  0  0
    4.4201   -6.4985    0.8872 H   0  0  0  0  0  0  0  0  0  0  0  0
    2.7621   -8.4626    1.9078 H   0  0  0  0  0  0  0  0  0  0  0  0
    0.4186   -7.1224    2.5017 H   0  0  0  0  0  0  0  0  0  0  0  0
    4.1833    2.7068   -0.4045 H   0  0  0  0  0  0  0  0  0  0  0  0
    2.7613    2.3389    0.5762 H   0  0  0  0  0  0  0  0  0  0  0  0
    2.4523    4.1484   -1.1718 H   0  0  0  0  0  0  0  0  0  0  0  0
    1.1996    2.9231   -1.0151 H   0  0  0  0  0  0  0  0  0  0  0  0
    1.1802    3.1274   -3.2939 H   0  0  0  0  0  0  0  0  0  0  0  0
    3.8585    4.1243   -3.5276 H   0  0  0  0  0  0  0  0  0  0  0  0
    2.8423    3.5845   -4.8796 H   0  0  0  0  0  0  0  0  0  0  0  0
    5.3120    2.2995   -4.1318 H   0  0  0  0  0  0  0  0  0  0  0  0
    4.0076    1.4464   -5.0338 H   0  0  0  0  0  0  0  0  0  0  0  0
    4.0828    2.1777   -2.1919 H   0  0  0  0  0  0  0  0  0  0  0  0
    5.2305    0.2431   -1.6065 H   0  0  0  0  0  0  0  0  0  0  0  0
    3.8049   -0.7438   -2.0571 H   0  0  0  0  0  0  0  0  0  0  0  0
    1.8350    0.8515   -2.3215 H   0  0  0  0  0  0  0  0  0  0  0  0
  1  2  2  0
  2  3  1  0
  2 13  1  0
  3  4  2  0
  3 12  1  0
  4  5  1  0
  4 22  1  0
  5  6  2  0
  6  7  1  0
  6 12  1  0
  7  8  2  0
  7 11  1  0
  8  9  1  0
  8 23  1  0
  9 10  2  0
  9 24  1  0
 10 11  1  0
 10 25  1  0
 13 14  1  0
 13 20  1  0
 14 15  1  0
 14 26  1  0
 14 27  1  0
 15 16  1  0
 15 28  1  0
 15 29  1  0
 16 17  1  0
 16 21  1  0
 16 30  1  6
 17 18  1  0
 17 31  1  0
 17 32  1  0
 18 19  1  0
 18 33  1  0
 18 34  1  0
 19 20  1  0
 19 21  1  0
 19 35  1  1
 20 36  1  0
 20 37  1  0
 21 38  1  0
M  END

