
     RDKit          3D

 82 87  0  0  0  0  0  0  0  0999 V2000
    1.5586    3.7289    3.5928 C   0  0  0  0  0  0  0  0  0  0  0  0
    2.0935    3.3010    2.2232 C   0  0  0  0  0  0  0  0  0  0  0  0
    2.4047    1.7938    2.1523 C   0  0  1  0  0  0  0  0  0  0  0  0
    1.1663    0.9102    2.2038 C   0  0  0  0  0  0  0  0  0  0  0  0
    1.2237   -0.3448    2.8369 C   0  0  0  0  0  0  0  0  0  0  0  0
    0.0861   -1.1501    2.8596 C   0  0  0  0  0  0  0  0  0  0  0  0
   -1.0844   -0.6787    2.2591 C   0  0  0  0  0  0  0  0  0  0  0  0
   -1.0502    0.5837    1.6624 C   0  0  0  0  0  0  0  0  0  0  0  0
    0.0402    1.3549    1.6305 N   0  0  0  0  0  0  0  0  0  0  0  0
    3.3702    1.2967    1.0212 C   0  0  1  0  0  0  0  0  0  0  0  0
    2.8036    1.0961   -0.2836 N   0  0  0  0  0  0  0  0  0  0  0  0
    3.4895    0.1547   -1.1593 C   0  0  0  0  0  0  0  0  0  0  0  0
    2.5015   -0.5862   -2.0651 C   0  0  0  0  0  0  0  0  0  0  0  0
    1.6196    0.3949   -2.8670 C   0  0  2  0  0  0  0  0  0  0  0  0
    2.3434    1.1216   -3.9068 N   0  0  0  0  0  0  0  0  0  0  0  0
    2.8861    0.5451   -5.0223 C   0  0  0  0  0  0  0  0  0  0  0  0
    3.8266    1.0936   -5.7583 N   0  0  0  0  0  0  0  0  0  0  0  0
    4.0321    0.2091   -6.8075 C   0  0  0  0  0  0  0  0  0  0  0  0
    4.9311    0.2959   -7.8861 C   0  0  0  0  0  0  0  0  0  0  0  0
    5.8438    1.4962   -8.0397 C   0  0  0  0  0  0  0  0  0  0  0  0
    5.2254    2.6114   -8.8656 C   0  0  0  0  0  0  0  0  0  0  0  0
    4.2658    3.4757   -8.3072 C   0  0  0  0  0  0  0  0  0  0  0  0
    3.7119    4.4739   -9.1062 C   0  0  0  0  0  0  0  0  0  0  0  0
    4.1273    4.5825  -10.4369 C   0  0  0  0  0  0  0  0  0  0  0  0
    5.0833    3.6761  -10.9000 C   0  0  0  0  0  0  0  0  0  0  0  0
    5.6208    2.7172  -10.1407 N   0  0  0  0  0  0  0  0  0  0  0  0
    4.9176   -0.7592   -8.8088 C   0  0  0  0  0  0  0  0  0  0  0  0
    4.0601   -1.8646   -8.6705 C   0  0  0  0  0  0  0  0  0  0  0  0
    3.1702   -1.9658   -7.5949 C   0  0  0  0  0  0  0  0  0  0  0  0
    3.1779   -0.9152   -6.6796 C   0  0  0  0  0  0  0  0  0  0  0  0
    2.4561   -0.6723   -5.5126 N   0  0  0  0  0  0  0  0  0  0  0  0
    1.7157   -1.2477   -5.1362 H   0  0  0  0  0  0  0  0  0  0  0  0
    0.9657    1.3896   -1.8977 C   0  0  0  0  0  0  0  0  0  0  0  0
    1.9829    2.0775   -0.9767 C   0  0  0  0  0  0  0  0  0  0  0  0
    4.6496    2.0855    1.0561 N   0  0  0  0  0  0  0  0  0  0  0  0
    4.9171    3.0558    0.0066 C   0  0  0  0  0  0  0  0  0  0  0  0
    5.5650    1.6937    2.0056 C   0  0  0  0  0  0  0  0  0  0  0  0
    5.3668    0.7173    2.7244 O   0  0  0  0  0  0  0  0  0  0  0  0
    6.8344    2.4901    2.1970 C   0  0  0  0  0  0  0  0  0  0  0  0
    6.8419    3.8829    2.3739 C   0  0  0  0  0  0  0  0  0  0  0  0
    8.0328    4.5526    2.6695 C   0  0  0  0  0  0  0  0  0  0  0  0
    9.2298    3.8395    2.7804 C   0  0  0  0  0  0  0  0  0  0  0  0
    9.2281    2.4500    2.6162 C   0  0  0  0  0  0  0  0  0  0  0  0
    8.0357    1.7783    2.3433 C   0  0  0  0  0  0  0  0  0  0  0  0
    1.3789    4.8155    3.6254 H   0  0  0  0  0  0  0  0  0  0  0  0
    2.2709    3.4838    4.3985 H   0  0  0  0  0  0  0  0  0  0  0  0
    0.6047    3.2298    3.8245 H   0  0  0  0  0  0  0  0  0  0  0  0
    3.0204    3.8579    2.0126 H   0  0  0  0  0  0  0  0  0  0  0  0
    1.3602    3.5862    1.4559 H   0  0  0  0  0  0  0  0  0  0  0  0
    2.9864    1.5597    3.0585 H   0  0  0  0  0  0  0  0  0  0  0  0
    2.1535   -0.6730    3.3085 H   0  0  0  0  0  0  0  0  0  0  0  0
    0.1089   -2.1282    3.3476 H   0  0  0  0  0  0  0  0  0  0  0  0
   -2.0039   -1.2684    2.2587 H   0  0  0  0  0  0  0  0  0  0  0  0
   -1.9504    0.9935    1.1881 H   0  0  0  0  0  0  0  0  0  0  0  0
    3.6860    0.3021    1.3647 H   0  0  0  0  0  0  0  0  0  0  0  0
    4.0358   -0.5707   -0.5376 H   0  0  0  0  0  0  0  0  0  0  0  0
    4.2553    0.6530   -1.7957 H   0  0  0  0  0  0  0  0  0  0  0  0
    1.8455   -1.2163   -1.4411 H   0  0  0  0  0  0  0  0  0  0  0  0
    3.0510   -1.2537   -2.7491 H   0  0  0  0  0  0  0  0  0  0  0  0
    0.8121   -0.1732   -3.3638 H   0  0  0  0  0  0  0  0  0  0  0  0
    2.8270    1.9713   -3.6395 H   0  0  0  0  0  0  0  0  0  0  0  0
    6.7741    1.1967   -8.5418 H   0  0  0  0  0  0  0  0  0  0  0  0
    6.0905    1.8802   -7.0380 H   0  0  0  0  0  0  0  0  0  0  0  0
    3.9651    3.3403   -7.2657 H   0  0  0  0  0  0  0  0  0  0  0  0
    2.9650    5.1605   -8.6976 H   0  0  0  0  0  0  0  0  0  0  0  0
    3.7223    5.3499  -11.1008 H   0  0  0  0  0  0  0  0  0  0  0  0
    5.4350    3.7287  -11.9381 H   0  0  0  0  0  0  0  0  0  0  0  0
    5.5977   -0.7156   -9.6635 H   0  0  0  0  0  0  0  0  0  0  0  0
    4.0906   -2.6621   -9.4170 H   0  0  0  0  0  0  0  0  0  0  0  0
    2.5059   -2.8264   -7.4858 H   0  0  0  0  0  0  0  0  0  0  0  0
    0.2480    0.8432   -1.2677 H   0  0  0  0  0  0  0  0  0  0  0  0
    0.4041    2.1481   -2.4667 H   0  0  0  0  0  0  0  0  0  0  0  0
    1.4264    2.6688   -0.2429 H   0  0  0  0  0  0  0  0  0  0  0  0
    2.5920    2.7978   -1.5702 H   0  0  0  0  0  0  0  0  0  0  0  0
    4.7546    2.6079   -0.9841 H   0  0  0  0  0  0  0  0  0  0  0  0
    5.9613    3.3817    0.0501 H   0  0  0  0  0  0  0  0  0  0  0  0
    4.2713    3.9471    0.0856 H   0  0  0  0  0  0  0  0  0  0  0  0
    5.9101    4.4488    2.3011 H   0  0  0  0  0  0  0  0  0  0  0  0
    8.0238    5.6356    2.8172 H   0  0  0  0  0  0  0  0  0  0  0  0
   10.1619    4.3647    3.0037 H   0  0  0  0  0  0  0  0  0  0  0  0
   10.1596    1.8863    2.7124 H   0  0  0  0  0  0  0  0  0  0  0  0
    8.0190    0.6905    2.2491 H   0  0  0  0  0  0  0  0  0  0  0  0
  1  2  1  0
  1 45  1  0
  1 46  1  0
  1 47  1  0
  2  3  1  0
  2 48  1  0
  2 49  1  0
  3  4  1  0
  3 10  1  0
  3 50  1  1
  4  5  2  0
  4  9  1  0
  5  6  1  0
  5 51  1  0
  6  7  2  0
  6 52  1  0
  7  8  1  0
  7 53  1  0
  8  9  2  0
  8 54  1  0
 10 11  1  0
 10 35  1  0
 10 55  1  1
 11 12  1  0
 11 34  1  0
 12 13  1  0
 12 56  1  0
 12 57  1  0
 13 14  1  0
 13 58  1  0
 13 59  1  0
 14 15  1  0
 14 33  1  0
 14 60  1  6
 15 16  1  0
 15 61  1  0
 16 17  2  0
 16 31  1  0
 17 18  1  0
 18 19  2  0
 18 30  1  0
 19 20  1  0
 19 27  1  0
 20 21  1  0
 20 62  1  0
 20 63  1  0
 21 22  2  0
 21 26  1  0
 22 23  1  0
 22 64  1  0
 23 24  2  0
 23 65  1  0
 24 25  1  0
 24 66  1  0
 25 26  2  0
 25 67  1  0
 27 28  2  0
 27 68  1  0
 28 29  1  0
 28 69  1  0
 29 30  2  0
 29 70  1  0
 30 31  1  0
 31 32  1  0
 33 34  1  0
 33 71  1  0
 33 72  1  0
 34 73  1  0
 34 74  1  0
 35 36  1  0
 35 37  1  0
 36 75  1  0
 36 76  1  0
 36 77  1  0
 37 38  2  0
 37 39  1  0
 39 40  2  0
 39 44  1  0
 40 41  1  0
 40 78  1  0
 41 42  2  0
 41 79  1  0
 42 43  1  0
 42 80  1  0
 43 44  2  0
 43 81  1  0
 44 82  1  0
M  END

