
     RDKit          3D

 33 34  0  0  0  0  0  0  0  0999 V2000
    3.9820   -0.4533    1.8024 C   0  0  0  0  0  0  0  0  0  0  0  0
    3.2505   -0.2341    0.4800 C   0  0  0  0  0  0  0  0  0  0  0  0
    3.3804   -1.3592   -0.4340 N   0  0  0  0  0  0  0  0  0  0  0  0
    4.1942   -1.4445   -1.5289 C   0  0  0  0  0  0  0  0  0  0  0  0
    4.0216   -2.7277   -2.0340 C   0  0  0  0  0  0  0  0  0  0  0  0
    4.6121   -3.3327   -3.1489 N   0  0  0  0  0  0  0  0  0  0  0  0
    5.5205   -2.7193   -3.9876 C   0  0  0  0  0  0  0  0  0  0  0  0
    5.9008   -1.5686   -3.8332 O   0  0  0  0  0  0  0  0  0  0  0  0
    5.9340   -3.5211   -5.0380 N   0  0  0  0  0  0  0  0  0  0  0  0
    7.0350   -3.0980   -5.8725 C   0  0  0  0  0  0  0  0  0  0  0  0
    8.1321   -4.1348   -5.8790 C   0  0  0  0  0  0  0  0  0  0  0  0
    7.9541   -5.3620   -5.4882 N   0  0  0  0  0  0  0  0  0  0  0  0
    9.0905   -6.1311   -5.6362 C   0  0  0  0  0  0  0  0  0  0  0  0
    9.0654   -7.5725   -5.2243 C   0  0  0  0  0  0  0  0  0  0  0  0
   10.1607   -5.4567   -6.1662 C   0  0  0  0  0  0  0  0  0  0  0  0
    9.7406   -3.8040   -6.4824 S   0  0  0  0  0  0  0  0  0  0  0  0
    3.0823   -3.3311   -1.1592 C   0  0  0  0  0  0  0  0  0  0  0  0
    2.7089   -2.4883   -0.1978 N   0  0  0  0  0  0  0  0  0  0  0  0
    3.8303    0.4091    2.4709 H   0  0  0  0  0  0  0  0  0  0  0  0
    5.0640   -0.5798    1.6409 H   0  0  0  0  0  0  0  0  0  0  0  0
    3.5992   -1.3547    2.3035 H   0  0  0  0  0  0  0  0  0  0  0  0
    3.6355    0.6546   -0.0425 H   0  0  0  0  0  0  0  0  0  0  0  0
    2.1752   -0.0757    0.6568 H   0  0  0  0  0  0  0  0  0  0  0  0
    4.8154   -0.6278   -1.8790 H   0  0  0  0  0  0  0  0  0  0  0  0
    4.2841   -4.2610   -3.3839 H   0  0  0  0  0  0  0  0  0  0  0  0
    5.8653   -4.5306   -4.9369 H   0  0  0  0  0  0  0  0  0  0  0  0
    7.3983   -2.1300   -5.4948 H   0  0  0  0  0  0  0  0  0  0  0  0
    6.7035   -2.9286   -6.9157 H   0  0  0  0  0  0  0  0  0  0  0  0
    8.2888   -8.1222   -5.7808 H   0  0  0  0  0  0  0  0  0  0  0  0
    8.8224   -7.6657   -4.1532 H   0  0  0  0  0  0  0  0  0  0  0  0
   10.0340   -8.0592   -5.4051 H   0  0  0  0  0  0  0  0  0  0  0  0
   11.1594   -5.8353   -6.3761 H   0  0  0  0  0  0  0  0  0  0  0  0
    2.6658   -4.3382   -1.2028 H   0  0  0  0  0  0  0  0  0  0  0  0
  1  2  1  0
  1 19  1  0
  1 20  1  0
  1 21  1  0
  2  3  1  0
  2 22  1  0
  2 23  1  0
  3  4  1  0
  3 18  1  0
  4  5  2  0
  4 24  1  0
  5  6  1  0
  5 17  1  0
  6  7  1  0
  6 25  1  0
  7  8  2  0
  7  9  1  0
  9 10  1  0
  9 26  1  0
 10 11  1  0
 10 27  1  0
 10 28  1  0
 11 12  2  0
 11 16  1  0
 12 13  1  0
 13 14  1  0
 13 15  2  0
 14 29  1  0
 14 30  1  0
 14 31  1  0
 15 16  1  0
 15 32  1  0
 17 18  2  0
 17 33  1  0
M  END

