
     RDKit          3D

 34 36  0  0  0  0  0  0  0  0999 V2000
    1.2141    0.7254    0.0877 C   0  0  0  0  0  0  0  0  0  0  0  0
    2.6602    0.3711    0.3981 C   0  0  1  0  0  0  0  0  0  0  0  0
    3.0806    0.8261    1.7184 N   0  0  0  0  0  0  0  0  0  0  0  0
    4.3378    0.1262    1.9815 C   0  0  0  0  0  0  0  0  0  0  0  0
    4.2674   -1.2546    1.2567 C   0  0  0  0  0  0  0  0  0  0  0  0
    3.0025   -1.1639    0.3640 C   0  0  2  0  0  0  0  0  0  0  0  0
    3.2321   -1.6539   -1.0608 C   0  0  0  0  0  0  0  0  0  0  0  0
    4.2255   -1.2734   -1.6626 O   0  0  0  0  0  0  0  0  0  0  0  0
    2.2407   -2.5456   -1.7416 C   0  0  0  0  0  0  0  0  0  0  0  0
    1.0735   -3.0444   -1.1307 C   0  0  0  0  0  0  0  0  0  0  0  0
    0.1830   -3.8809   -1.8113 C   0  0  0  0  0  0  0  0  0  0  0  0
    0.4877   -4.2125   -3.1307 C   0  0  0  0  0  0  0  0  0  0  0  0
    1.6421   -3.7273   -3.7699 C   0  0  0  0  0  0  0  0  0  0  0  0
    2.5122   -2.8984   -3.0858 C   0  0  0  0  0  0  0  0  0  0  0  0
    1.6207   -4.2333   -5.1955 C   0  0  0  0  0  0  0  0  0  0  0  0
    0.4681   -5.2636   -5.1404 C   0  0  0  0  0  0  0  0  0  0  0  0
   -0.2658   -5.0070   -3.9205 O   0  0  0  0  0  0  0  0  0  0  0  0
    1.0625    1.8136    0.1546 H   0  0  0  0  0  0  0  0  0  0  0  0
    0.5241    0.2415    0.8016 H   0  0  0  0  0  0  0  0  0  0  0  0
    0.9302    0.3989   -0.9244 H   0  0  0  0  0  0  0  0  0  0  0  0
    3.3220    0.8521   -0.3456 H   0  0  0  0  0  0  0  0  0  0  0  0
    2.3790    0.5381    2.4032 H   0  0  0  0  0  0  0  0  0  0  0  0
    4.5156    0.0420    3.0643 H   0  0  0  0  0  0  0  0  0  0  0  0
    5.1693    0.7184    1.5635 H   0  0  0  0  0  0  0  0  0  0  0  0
    4.1852   -2.0906    1.9685 H   0  0  0  0  0  0  0  0  0  0  0  0
    5.1614   -1.4228    0.6402 H   0  0  0  0  0  0  0  0  0  0  0  0
    2.1710   -1.6976    0.8456 H   0  0  0  0  0  0  0  0  0  0  0  0
    0.8448   -2.7859   -0.0962 H   0  0  0  0  0  0  0  0  0  0  0  0
   -0.7175   -4.2699   -1.3334 H   0  0  0  0  0  0  0  0  0  0  0  0
    3.4166   -2.4960   -3.5465 H   0  0  0  0  0  0  0  0  0  0  0  0
    2.5703   -4.6924   -5.5098 H   0  0  0  0  0  0  0  0  0  0  0  0
    1.4036   -3.4134   -5.9018 H   0  0  0  0  0  0  0  0  0  0  0  0
    0.8470   -6.2989   -5.0944 H   0  0  0  0  0  0  0  0  0  0  0  0
   -0.2379   -5.1885   -5.9795 H   0  0  0  0  0  0  0  0  0  0  0  0
  1  2  1  0
  1 18  1  0
  1 19  1  0
  1 20  1  0
  2  3  1  0
  2  6  1  0
  2 21  1  6
  3  4  1  0
  3 22  1  0
  4  5  1  0
  4 23  1  0
  4 24  1  0
  5  6  1  0
  5 25  1  0
  5 26  1  0
  6  7  1  0
  6 27  1  1
  7  8  2  0
  7  9  1  0
  9 10  2  0
  9 14  1  0
 10 11  1  0
 10 28  1  0
 11 12  2  0
 11 29  1  0
 12 13  1  0
 12 17  1  0
 13 14  2  0
 13 15  1  0
 14 30  1  0
 15 16  1  0
 15 31  1  0
 15 32  1  0
 16 17  1  0
 16 33  1  0
 16 34  1  0
M  END

