
     RDKit          3D

 43 45  0  0  0  0  0  0  0  0999 V2000
    3.4983   -0.6028   -1.0473 C   0  0  0  0  0  0  0  0  0  0  0  0
    2.4328   -0.0617   -0.0636 C   0  0  2  0  0  0  0  0  0  0  0  0
    3.0846    0.0127    1.3340 C   0  0  0  0  0  0  0  0  0  0  0  0
    3.3624    1.2387    1.9412 C   0  0  0  0  0  0  0  0  0  0  0  0
    3.9918    1.2768    3.1982 C   0  0  0  0  0  0  0  0  0  0  0  0
    4.3006    2.4591    3.8819 N   0  0  0  0  0  0  0  0  0  0  0  0
    4.0638    3.7517    3.5132 C   0  0  0  0  0  0  0  0  0  0  0  0
    3.5238    4.1206    2.4816 O   0  0  0  0  0  0  0  0  0  0  0  0
    4.5511    4.7489    4.5435 C   0  0  0  0  0  0  0  0  0  0  0  0
    4.3782    6.1165    4.3020 C   0  0  0  0  0  0  0  0  0  0  0  0
    4.8305    7.0255    5.2575 C   0  0  0  0  0  0  0  0  0  0  0  0
    5.4358    6.5237    6.4126 C   0  0  0  0  0  0  0  0  0  0  0  0
    6.0785    7.6936    7.7610 Br  0  0  0  0  0  0  0  0  0  0  0  0
    5.5680    5.1366    6.5729 C   0  0  0  0  0  0  0  0  0  0  0  0
    5.1326    4.2793    5.6541 N   0  0  0  0  0  0  0  0  0  0  0  0
    4.3256    0.0537    3.7994 C   0  0  0  0  0  0  0  0  0  0  0  0
    4.0769   -1.1186    3.2211 N   0  0  0  0  0  0  0  0  0  0  0  0
    3.4948   -1.1257    2.0500 C   0  0  0  0  0  0  0  0  0  0  0  0
    3.2892   -2.3483    1.5149 F   0  0  0  0  0  0  0  0  0  0  0  0
    1.1941   -0.9975   -0.0968 C   0  0  0  0  0  0  0  0  0  0  0  0
   -0.1163   -0.2972    0.2542 C   0  0  1  0  0  0  0  0  0  0  0  0
   -0.9569   -0.9295   -0.0712 H   0  0  0  0  0  0  0  0  0  0  0  0
   -0.3878   -0.0477    1.7462 C   0  0  1  0  0  0  0  0  0  0  0  0
   -0.1082   -1.1459    2.4676 F   0  0  0  0  0  0  0  0  0  0  0  0
    0.3259    0.9718    2.2431 F   0  0  0  0  0  0  0  0  0  0  0  0
   -1.6843    0.2446    1.9381 F   0  0  0  0  0  0  0  0  0  0  0  0
   -0.2629    0.9315   -0.4387 O   0  0  0  0  0  0  0  0  0  0  0  0
    0.8824    1.6489   -0.6785 C   0  0  0  0  0  0  0  0  0  0  0  0
    0.5507    2.8674   -1.2063 N   0  0  0  0  0  0  0  0  0  0  0  0
    2.0880    1.2805   -0.5063 N   0  0  0  0  0  0  0  0  0  0  0  0
    3.8224   -1.6160   -0.7691 H   0  0  0  0  0  0  0  0  0  0  0  0
    4.3690    0.0682   -1.0489 H   0  0  0  0  0  0  0  0  0  0  0  0
    3.0825   -0.6255   -2.0666 H   0  0  0  0  0  0  0  0  0  0  0  0
    3.0845    2.1604    1.4373 H   0  0  0  0  0  0  0  0  0  0  0  0
    4.7623    2.3761    4.7874 H   0  0  0  0  0  0  0  0  0  0  0  0
    3.8964    6.4354    3.3768 H   0  0  0  0  0  0  0  0  0  0  0  0
    4.7174    8.1015    5.1120 H   0  0  0  0  0  0  0  0  0  0  0  0
    6.0390    4.7242    7.4707 H   0  0  0  0  0  0  0  0  0  0  0  0
    4.8129    0.0320    4.7824 H   0  0  0  0  0  0  0  0  0  0  0  0
    1.3259   -1.8830    0.5356 H   0  0  0  0  0  0  0  0  0  0  0  0
    1.0758   -1.3585   -1.1303 H   0  0  0  0  0  0  0  0  0  0  0  0
   -0.3674    3.2305   -0.9801 H   0  0  0  0  0  0  0  0  0  0  0  0
    1.3102    3.5359   -1.2480 H   0  0  0  0  0  0  0  0  0  0  0  0
  2  1  1  6
  1 31  1  0
  1 32  1  0
  1 33  1  0
  2  3  1  0
  2 20  1  0
  2 30  1  0
  3  4  2  0
  3 18  1  0
  4  5  1  0
  4 34  1  0
  5  6  1  0
  5 16  2  0
  6  7  1  0
  6 35  1  0
  7  8  2  0
  7  9  1  0
  9 10  2  0
  9 15  1  0
 10 11  1  0
 10 36  1  0
 11 12  2  0
 11 37  1  0
 12 13  1  0
 12 14  1  0
 14 15  2  0
 14 38  1  0
 16 17  1  0
 16 39  1  0
 17 18  2  0
 18 19  1  0
 20 21  1  0
 20 40  1  0
 20 41  1  0
 21 22  1  6
 21 23  1  0
 21 27  1  0
 23 24  1  1
 23 25  1  0
 23 26  1  0
 27 28  1  0
 28 29  1  0
 28 30  2  0
 29 42  1  0
 29 43  1  0
M  END

