
     RDKit          3D

 39 39  0  0  0  0  0  0  0  0999 V2000
    2.0444    3.1059    0.0065 C   0  0  0  0  0  0  0  0  0  0  0  0
    1.7770    1.7354   -0.6041 C   0  0  0  0  0  0  0  0  0  0  0  0
    2.8769    1.2393   -1.3552 O   0  0  0  0  0  0  0  0  0  0  0  0
    3.8762    0.5612   -0.6183 C   0  0  1  0  0  0  0  0  0  0  0  0
    3.4360   -0.8786   -0.2987 C   0  0  0  0  0  0  0  0  0  0  0  0
    3.7481   -1.4050    0.7460 O   0  0  0  0  0  0  0  0  0  0  0  0
    2.5977   -1.5984   -1.3634 C   0  0  0  0  0  0  0  0  0  0  0  0
    2.9072   -3.0555   -1.5092 C   0  0  0  0  0  0  0  0  0  0  0  0
    2.5497   -4.1528   -0.6719 C   0  0  0  0  0  0  0  0  0  0  0  0
    1.7473   -4.1187    0.5914 C   0  0  0  0  0  0  0  0  0  0  0  0
    3.0319   -5.2999   -1.1462 N   0  0  0  0  0  0  0  0  0  0  0  0
    3.7048   -4.9912   -2.2720 N   0  0  0  0  0  0  0  0  0  0  0  0
    4.3510   -6.0221   -3.0557 C   0  0  0  0  0  0  0  0  0  0  0  0
    3.6488   -3.6550   -2.5162 C   0  0  0  0  0  0  0  0  0  0  0  0
    4.4152   -2.9472   -3.8938 Cl  0  0  0  0  0  0  0  0  0  0  0  0
    5.1924    0.5686   -1.4357 C   0  0  1  0  0  0  0  0  0  0  0  0
    5.5481    1.9959   -1.8697 C   0  0  0  0  0  0  0  0  0  0  0  0
    6.3483   -0.0776   -0.6611 C   0  0  0  0  0  0  0  0  0  0  0  0
    1.1505    3.4674    0.5404 H   0  0  0  0  0  0  0  0  0  0  0  0
    2.2976    3.8361   -0.7777 H   0  0  0  0  0  0  0  0  0  0  0  0
    2.8756    3.0761    0.7286 H   0  0  0  0  0  0  0  0  0  0  0  0
    0.9327    1.7953   -1.3100 H   0  0  0  0  0  0  0  0  0  0  0  0
    1.4863    1.0142    0.1852 H   0  0  0  0  0  0  0  0  0  0  0  0
    4.0662    1.0539    0.3544 H   0  0  0  0  0  0  0  0  0  0  0  0
    2.6919   -1.0745   -2.3245 H   0  0  0  0  0  0  0  0  0  0  0  0
    1.5441   -1.4625   -1.0543 H   0  0  0  0  0  0  0  0  0  0  0  0
    0.7343   -3.7171    0.4158 H   0  0  0  0  0  0  0  0  0  0  0  0
    2.2344   -3.4766    1.3407 H   0  0  0  0  0  0  0  0  0  0  0  0
    1.6483   -5.1362    0.9945 H   0  0  0  0  0  0  0  0  0  0  0  0
    4.2195   -6.9641   -2.5108 H   0  0  0  0  0  0  0  0  0  0  0  0
    5.4252   -5.8125   -3.1750 H   0  0  0  0  0  0  0  0  0  0  0  0
    3.8951   -6.1096   -4.0548 H   0  0  0  0  0  0  0  0  0  0  0  0
    5.0095   -0.0281   -2.3481 H   0  0  0  0  0  0  0  0  0  0  0  0
    5.7409    2.6371   -0.9923 H   0  0  0  0  0  0  0  0  0  0  0  0
    4.7356    2.4500   -2.4522 H   0  0  0  0  0  0  0  0  0  0  0  0
    6.4609    1.9920   -2.4866 H   0  0  0  0  0  0  0  0  0  0  0  0
    6.5706    0.4864    0.2605 H   0  0  0  0  0  0  0  0  0  0  0  0
    7.2608   -0.0809   -1.2778 H   0  0  0  0  0  0  0  0  0  0  0  0
    6.1353   -1.1158   -0.3683 H   0  0  0  0  0  0  0  0  0  0  0  0
  1  2  1  0
  1 19  1  0
  1 20  1  0
  1 21  1  0
  2  3  1  0
  2 22  1  0
  2 23  1  0
  3  4  1  0
  4  5  1  0
  4 16  1  0
  4 24  1  1
  5  6  2  0
  5  7  1  0
  7  8  1  0
  7 25  1  0
  7 26  1  0
  8  9  1  0
  8 14  2  0
  9 10  1  0
  9 11  2  0
 10 27  1  0
 10 28  1  0
 10 29  1  0
 11 12  1  0
 12 13  1  0
 12 14  1  0
 13 30  1  0
 13 31  1  0
 13 32  1  0
 14 15  1  0
 16 17  1  0
 16 18  1  0
 16 33  1  6
 17 34  1  0
 17 35  1  0
 17 36  1  0
 18 37  1  0
 18 38  1  0
 18 39  1  0
M  END

