
     RDKit          3D

 45 46  0  0  0  0  0  0  0  0999 V2000
    2.6663   -1.3357    0.4774 C   0  0  0  0  0  0  0  0  0  0  0  0
    2.3589    0.0116   -0.1753 C   0  0  0  0  0  0  0  0  0  0  0  0
    3.0453    0.2121   -1.5421 C   0  0  1  0  0  0  0  0  0  0  0  0
    2.5908    1.4501   -2.1853 N   0  0  0  0  0  0  0  0  0  0  0  0
    1.4484    1.5155   -2.9266 C   0  0  0  0  0  0  0  0  0  0  0  0
    0.7110    0.5512   -3.0820 O   0  0  0  0  0  0  0  0  0  0  0  0
    1.1489    2.8681   -3.5697 C   0  0  1  0  0  0  0  0  0  0  0  0
    1.1229    2.7982   -5.1100 C   0  0  0  0  0  0  0  0  0  0  0  0
    0.3946    4.0876   -5.5163 C   0  0  0  0  0  0  0  0  0  0  0  0
   -0.6738    4.3111   -4.4132 C   0  0  0  0  0  0  0  0  0  0  0  0
   -0.2680    3.3867   -3.2336 C   0  0  0  0  0  0  0  0  0  0  0  0
    4.5663    0.1901   -1.5040 C   0  0  0  0  0  0  0  0  0  0  0  0
    5.2956    0.9500   -0.5833 C   0  0  0  0  0  0  0  0  0  0  0  0
    6.6957    0.9513   -0.5924 C   0  0  0  0  0  0  0  0  0  0  0  0
    7.3904    0.1795   -1.5319 C   0  0  0  0  0  0  0  0  0  0  0  0
    8.7465    0.1134   -1.6150 O   0  0  0  0  0  0  0  0  0  0  0  0
    9.5344    0.8551   -0.7128 C   0  0  0  0  0  0  0  0  0  0  0  0
    6.6829   -0.6026   -2.4750 C   0  0  0  0  0  0  0  0  0  0  0  0
    7.4436   -1.4308   -3.4761 C   0  0  0  0  0  0  0  0  0  0  0  0
    5.2878   -0.5746   -2.4377 C   0  0  0  0  0  0  0  0  0  0  0  0
    2.1146   -1.4501    1.4239 H   0  0  0  0  0  0  0  0  0  0  0  0
    3.7395   -1.4489    0.6988 H   0  0  0  0  0  0  0  0  0  0  0  0
    2.3723   -2.1712   -0.1795 H   0  0  0  0  0  0  0  0  0  0  0  0
    2.6352    0.8388    0.5023 H   0  0  0  0  0  0  0  0  0  0  0  0
    1.2745    0.1014   -0.3483 H   0  0  0  0  0  0  0  0  0  0  0  0
    2.6993   -0.6034   -2.1967 H   0  0  0  0  0  0  0  0  0  0  0  0
    3.1774    2.2717   -2.1064 H   0  0  0  0  0  0  0  0  0  0  0  0
    1.9036    3.6123   -3.2570 H   0  0  0  0  0  0  0  0  0  0  0  0
    0.5408    1.9078   -5.4007 H   0  0  0  0  0  0  0  0  0  0  0  0
    2.1263    2.7014   -5.5547 H   0  0  0  0  0  0  0  0  0  0  0  0
   -0.0384    4.0286   -6.5272 H   0  0  0  0  0  0  0  0  0  0  0  0
    1.1098    4.9275   -5.5266 H   0  0  0  0  0  0  0  0  0  0  0  0
   -1.6815    4.0541   -4.7753 H   0  0  0  0  0  0  0  0  0  0  0  0
   -0.7141    5.3690   -4.1096 H   0  0  0  0  0  0  0  0  0  0  0  0
   -0.9366    2.5144   -3.1760 H   0  0  0  0  0  0  0  0  0  0  0  0
   -0.3045    3.8931   -2.2563 H   0  0  0  0  0  0  0  0  0  0  0  0
    4.7780    1.5529    0.1679 H   0  0  0  0  0  0  0  0  0  0  0  0
    7.2322    1.5528    0.1416 H   0  0  0  0  0  0  0  0  0  0  0  0
   10.5826    0.6476   -0.9670 H   0  0  0  0  0  0  0  0  0  0  0  0
    9.3546    0.5538    0.3352 H   0  0  0  0  0  0  0  0  0  0  0  0
    9.3532    1.9415   -0.8042 H   0  0  0  0  0  0  0  0  0  0  0  0
    8.1009   -0.8004   -4.0976 H   0  0  0  0  0  0  0  0  0  0  0  0
    6.7594   -1.9801   -4.1386 H   0  0  0  0  0  0  0  0  0  0  0  0
    8.1021   -2.1580   -2.9732 H   0  0  0  0  0  0  0  0  0  0  0  0
    4.7356   -1.1753   -3.1669 H   0  0  0  0  0  0  0  0  0  0  0  0
  1  2  1  0
  1 21  1  0
  1 22  1  0
  1 23  1  0
  2  3  1  0
  2 24  1  0
  2 25  1  0
  3  4  1  0
  3 12  1  0
  3 26  1  6
  4  5  1  0
  4 27  1  0
  5  6  2  0
  5  7  1  0
  7  8  1  0
  7 11  1  0
  7 28  1  6
  8  9  1  0
  8 29  1  0
  8 30  1  0
  9 10  1  0
  9 31  1  0
  9 32  1  0
 10 11  1  0
 10 33  1  0
 10 34  1  0
 11 35  1  0
 11 36  1  0
 12 13  2  0
 12 20  1  0
 13 14  1  0
 13 37  1  0
 14 15  2  0
 14 38  1  0
 15 16  1  0
 15 18  1  0
 16 17  1  0
 17 39  1  0
 17 40  1  0
 17 41  1  0
 18 19  1  0
 18 20  2  0
 19 42  1  0
 19 43  1  0
 19 44  1  0
 20 45  1  0
M  END

