
     RDKit          3D

 70 73  0  0  0  0  0  0  0  0999 V2000
    4.5364   -0.9933    1.0052 C   0  0  0  0  0  0  0  0  0  0  0  0
    3.7975    0.2102    1.0504 O   0  0  0  0  0  0  0  0  0  0  0  0
    4.1322    1.2313    0.2305 C   0  0  0  0  0  0  0  0  0  0  0  0
    5.1090    1.1574   -0.7720 C   0  0  0  0  0  0  0  0  0  0  0  0
    5.3917    2.2489   -1.5977 C   0  0  0  0  0  0  0  0  0  0  0  0
    4.6939    3.4560   -1.4382 C   0  0  0  0  0  0  0  0  0  0  0  0
    4.9200    4.6041   -2.2256 N   0  0  0  0  0  0  0  0  0  0  0  0
    5.7973    4.7769   -3.2697 C   0  0  0  0  0  0  0  0  0  0  0  0
    6.5429    3.8934   -3.6718 O   0  0  0  0  0  0  0  0  0  0  0  0
    5.7655    6.1704   -3.9002 C   0  0  1  0  0  0  0  0  0  0  0  0
    7.1432    6.8697   -3.7928 C   0  0  0  0  0  0  0  0  0  0  0  0
    8.1764    6.3146   -4.7805 C   0  0  0  0  0  0  0  0  0  0  0  0
    7.6600    6.3014   -6.1575 N   0  0  0  0  0  0  0  0  0  0  0  0
    7.9032    7.6780   -7.1078 S   0  0  1  0  0  0  0  0  0  0  0  0
    6.6767    7.9369   -7.8743 O   0  0  0  0  0  0  0  0  0  0  0  0
    8.5071    8.7236   -6.2712 O   0  0  0  0  0  0  0  0  0  0  0  0
    9.1824    7.1241   -8.2962 C   0  0  0  0  0  0  0  0  0  0  0  0
    9.5570    8.2205   -9.2508 C   0  0  0  0  0  0  0  0  0  0  0  0
   10.5924    9.1142   -8.9456 C   0  0  0  0  0  0  0  0  0  0  0  0
   10.9154   10.1546   -9.8193 C   0  0  0  0  0  0  0  0  0  0  0  0
   10.2115   10.3413  -11.0179 C   0  0  0  0  0  0  0  0  0  0  0  0
   10.5587   11.4592  -11.9703 C   0  0  0  0  0  0  0  0  0  0  0  0
    9.1654    9.4495  -11.3109 C   0  0  0  0  0  0  0  0  0  0  0  0
    8.8392    8.4094  -10.4427 C   0  0  0  0  0  0  0  0  0  0  0  0
    6.3957    5.5680   -6.3172 C   0  0  0  0  0  0  0  0  0  0  0  0
    5.3080    6.1038   -5.3789 C   0  0  0  0  0  0  0  0  0  0  0  0
    3.7157    3.5378   -0.4338 C   0  0  0  0  0  0  0  0  0  0  0  0
    3.4346    2.4485    0.3862 C   0  0  0  0  0  0  0  0  0  0  0  0
    2.2126    2.6912    1.6986 S   0  0  1  0  0  0  0  0  0  0  0  0
    2.8199    2.3159    2.9735 O   0  0  0  0  0  0  0  0  0  0  0  0
    1.6782    4.0403    1.4786 O   0  0  0  0  0  0  0  0  0  0  0  0
    0.9522    1.6354    1.4317 N   0  0  0  0  0  0  0  0  0  0  0  0
    0.8811    0.3204    2.0641 C   0  0  0  0  0  0  0  0  0  0  0  0
   -0.5646    0.0714    2.4903 C   0  0  0  0  0  0  0  0  0  0  0  0
   -1.4551    0.2248    1.4014 O   0  0  0  0  0  0  0  0  0  0  0  0
   -1.4039    1.5273    0.8571 C   0  0  0  0  0  0  0  0  0  0  0  0
   -0.0012    1.8685    0.3511 C   0  0  0  0  0  0  0  0  0  0  0  0
    4.1192   -1.6418    1.7864 H   0  0  0  0  0  0  0  0  0  0  0  0
    5.6058   -0.8192    1.2154 H   0  0  0  0  0  0  0  0  0  0  0  0
    4.4379   -1.4981    0.0279 H   0  0  0  0  0  0  0  0  0  0  0  0
    5.6691    0.2349   -0.9246 H   0  0  0  0  0  0  0  0  0  0  0  0
    6.1524    2.1729   -2.3709 H   0  0  0  0  0  0  0  0  0  0  0  0
    4.3547    5.4077   -1.9795 H   0  0  0  0  0  0  0  0  0  0  0  0
    5.0337    6.7851   -3.3498 H   0  0  0  0  0  0  0  0  0  0  0  0
    7.5320    6.7930   -2.7634 H   0  0  0  0  0  0  0  0  0  0  0  0
    7.0062    7.9420   -4.0079 H   0  0  0  0  0  0  0  0  0  0  0  0
    8.4387    5.2781   -4.5203 H   0  0  0  0  0  0  0  0  0  0  0  0
    9.0888    6.9234   -4.7479 H   0  0  0  0  0  0  0  0  0  0  0  0
    8.7432    6.2514   -8.7995 H   0  0  0  0  0  0  0  0  0  0  0  0
   10.0260    6.7949   -7.6736 H   0  0  0  0  0  0  0  0  0  0  0  0
   11.1468    9.0004   -8.0106 H   0  0  0  0  0  0  0  0  0  0  0  0
   11.7298   10.8375   -9.5619 H   0  0  0  0  0  0  0  0  0  0  0  0
   11.3552   12.1022  -11.5678 H   0  0  0  0  0  0  0  0  0  0  0  0
    9.6821   12.0956  -12.1763 H   0  0  0  0  0  0  0  0  0  0  0  0
   10.9037   11.0649  -12.9413 H   0  0  0  0  0  0  0  0  0  0  0  0
    8.5940    9.5752  -12.2354 H   0  0  0  0  0  0  0  0  0  0  0  0
    8.0109    7.7390  -10.6854 H   0  0  0  0  0  0  0  0  0  0  0  0
    6.6033    4.5091   -6.1005 H   0  0  0  0  0  0  0  0  0  0  0  0
    6.0644    5.6514   -7.3599 H   0  0  0  0  0  0  0  0  0  0  0  0
    4.3980    5.4868   -5.4704 H   0  0  0  0  0  0  0  0  0  0  0  0
    5.0429    7.1218   -5.7081 H   0  0  0  0  0  0  0  0  0  0  0  0
    3.1560    4.4602   -0.2635 H   0  0  0  0  0  0  0  0  0  0  0  0
    1.5545    0.3070    2.9304 H   0  0  0  0  0  0  0  0  0  0  0  0
    1.2010   -0.4665    1.3563 H   0  0  0  0  0  0  0  0  0  0  0  0
   -0.8315    0.7711    3.3084 H   0  0  0  0  0  0  0  0  0  0  0  0
   -0.6827   -0.9594    2.8583 H   0  0  0  0  0  0  0  0  0  0  0  0
   -1.7024    2.2768    1.6181 H   0  0  0  0  0  0  0  0  0  0  0  0
   -2.1285    1.5599    0.0289 H   0  0  0  0  0  0  0  0  0  0  0  0
    0.0446    2.9242    0.0513 H   0  0  0  0  0  0  0  0  0  0  0  0
    0.2421    1.2362   -0.5258 H   0  0  0  0  0  0  0  0  0  0  0  0
  1  2  1  0
  1 38  1  0
  1 39  1  0
  1 40  1  0
  2  3  1  0
  3  4  2  0
  3 28  1  0
  4  5  1  0
  4 41  1  0
  5  6  2  0
  5 42  1  0
  6  7  1  0
  6 27  1  0
  7  8  1  0
  7 43  1  0
  8  9  2  0
  8 10  1  0
 10 11  1  0
 10 26  1  0
 10 44  1  1
 11 12  1  0
 11 45  1  0
 11 46  1  0
 12 13  1  0
 12 47  1  0
 12 48  1  0
 13 14  1  0
 13 25  1  0
 14 15  2  0
 14 16  2  0
 14 17  1  6
 17 18  1  0
 17 49  1  0
 17 50  1  0
 18 19  2  0
 18 24  1  0
 19 20  1  0
 19 51  1  0
 20 21  2  0
 20 52  1  0
 21 22  1  0
 21 23  1  0
 22 53  1  0
 22 54  1  0
 22 55  1  0
 23 24  2  0
 23 56  1  0
 24 57  1  0
 25 26  1  0
 25 58  1  0
 25 59  1  0
 26 60  1  0
 26 61  1  0
 27 28  2  0
 27 62  1  0
 29 28  1  6
 29 30  2  0
 29 31  2  0
 29 32  1  0
 32 33  1  0
 32 37  1  0
 33 34  1  0
 33 63  1  0
 33 64  1  0
 34 35  1  0
 34 65  1  0
 34 66  1  0
 35 36  1  0
 36 37  1  0
 36 67  1  0
 36 68  1  0
 37 69  1  0
 37 70  1  0
M  END

