
     RDKit          3D

 26 27  0  0  0  0  0  0  0  0999 V2000
    1.3315    0.4517   -0.4750 O   0  0  0  0  0  0  0  0  0  0  0  0
    2.5135    0.1978   -0.3175 C   0  0  0  0  0  0  0  0  0  0  0  0
    3.2759   -0.7746   -1.1360 C   0  0  0  0  0  0  0  0  0  0  0  0
    2.6178   -1.4219   -2.1229 C   0  0  0  0  0  0  0  0  0  0  0  0
    3.1309   -2.4157   -3.0605 C   0  0  0  0  0  0  0  0  0  0  0  0
    4.4557   -2.9011   -3.1073 C   0  0  0  0  0  0  0  0  0  0  0  0
    5.3497   -2.4315   -2.2298 F   0  0  0  0  0  0  0  0  0  0  0  0
    4.8878   -3.8515   -4.0257 C   0  0  0  0  0  0  0  0  0  0  0  0
    3.9784   -4.3619   -4.9555 C   0  0  0  0  0  0  0  0  0  0  0  0
    2.6530   -3.9218   -4.9606 C   0  0  0  0  0  0  0  0  0  0  0  0
    2.2606   -2.9704   -4.0259 C   0  0  0  0  0  0  0  0  0  0  0  0
    0.9872   -2.5571   -4.0413 F   0  0  0  0  0  0  0  0  0  0  0  0
    3.1865    0.8791    0.7130 N   0  0  0  0  0  0  0  0  0  0  0  0
    4.4911    0.8520    1.1673 C   0  0  0  0  0  0  0  0  0  0  0  0
    5.4683    0.1289    0.7088 N   0  0  0  0  0  0  0  0  0  0  0  0
    6.6279    0.3615    1.4052 C   0  0  0  0  0  0  0  0  0  0  0  0
    6.5545    1.2750    2.4169 C   0  0  0  0  0  0  0  0  0  0  0  0
    4.9331    1.8998    2.5238 S   0  0  0  0  0  0  0  0  0  0  0  0
    4.3282   -0.9238   -0.9075 H   0  0  0  0  0  0  0  0  0  0  0  0
    1.5597   -1.1754   -2.2438 H   0  0  0  0  0  0  0  0  0  0  0  0
    5.9293   -4.1751   -3.9962 H   0  0  0  0  0  0  0  0  0  0  0  0
    4.3062   -5.1088   -5.6818 H   0  0  0  0  0  0  0  0  0  0  0  0
    1.9180   -4.2997   -5.6725 H   0  0  0  0  0  0  0  0  0  0  0  0
    2.5535    1.5119    1.1942 H   0  0  0  0  0  0  0  0  0  0  0  0
    7.5338   -0.1799    1.1268 H   0  0  0  0  0  0  0  0  0  0  0  0
    7.3358    1.6142    3.0937 H   0  0  0  0  0  0  0  0  0  0  0  0
  1  2  2  0
  2  3  1  0
  2 13  1  0
  3  4  2  0
  3 19  1  0
  4  5  1  0
  4 20  1  0
  5  6  2  0
  5 11  1  0
  6  7  1  0
  6  8  1  0
  8  9  2  0
  8 21  1  0
  9 10  1  0
  9 22  1  0
 10 11  2  0
 10 23  1  0
 11 12  1  0
 13 14  1  0
 13 24  1  0
 14 15  2  0
 14 18  1  0
 15 16  1  0
 16 17  2  0
 16 25  1  0
 17 18  1  0
 17 26  1  0
M  END

