
     RDKit          3D

 31 31  0  0  0  0  0  0  0  0999 V2000
    1.9690    1.5545   -1.3100 C   0  0  0  0  0  0  0  0  0  0  0  0
    2.7905    0.7572   -0.4302 N   0  0  0  0  0  0  0  0  0  0  0  0
    2.6070    0.5461    0.9351 C   0  0  0  0  0  0  0  0  0  0  0  0
    3.6081   -0.2630    1.3644 C   0  0  0  0  0  0  0  0  0  0  0  0
    4.4202   -0.5500    0.2694 N   0  0  0  0  0  0  0  0  0  0  0  0
    5.5857   -1.4156    0.2363 C   0  0  0  0  0  0  0  0  0  0  0  0
    5.2185   -2.8976    0.0765 C   0  0  0  0  0  0  0  0  0  0  0  0
    6.3969   -3.9046    0.0343 C   0  0  1  0  0  0  0  0  0  0  0  0
    7.1834   -3.8882    1.3600 C   0  0  0  0  0  0  0  0  0  0  0  0
    5.8031   -5.3114   -0.1731 C   0  0  0  0  0  0  0  0  0  0  0  0
    7.3488   -3.5872   -1.1355 C   0  0  0  0  0  0  0  0  0  0  0  0
    3.9208    0.0723   -0.8709 C   0  0  0  0  0  0  0  0  0  0  0  0
    4.3762    0.0275   -2.0042 O   0  0  0  0  0  0  0  0  0  0  0  0
    0.9344    1.1745   -1.3501 H   0  0  0  0  0  0  0  0  0  0  0  0
    2.4101    1.4931   -2.3142 H   0  0  0  0  0  0  0  0  0  0  0  0
    1.9465    2.6107   -0.9933 H   0  0  0  0  0  0  0  0  0  0  0  0
    1.7839    0.9953    1.4840 H   0  0  0  0  0  0  0  0  0  0  0  0
    3.8196   -0.6497    2.3576 H   0  0  0  0  0  0  0  0  0  0  0  0
    6.1674   -1.2433    1.1557 H   0  0  0  0  0  0  0  0  0  0  0  0
    6.1926   -1.0768   -0.6153 H   0  0  0  0  0  0  0  0  0  0  0  0
    4.6338   -2.9966   -0.8541 H   0  0  0  0  0  0  0  0  0  0  0  0
    4.5404   -3.1830    0.9009 H   0  0  0  0  0  0  0  0  0  0  0  0
    6.5237   -4.0960    2.2192 H   0  0  0  0  0  0  0  0  0  0  0  0
    7.6769   -2.9195    1.5393 H   0  0  0  0  0  0  0  0  0  0  0  0
    7.9728   -4.6575    1.3538 H   0  0  0  0  0  0  0  0  0  0  0  0
    5.1137   -5.5793    0.6447 H   0  0  0  0  0  0  0  0  0  0  0  0
    6.5972   -6.0754   -0.2062 H   0  0  0  0  0  0  0  0  0  0  0  0
    5.2400   -5.3708   -1.1188 H   0  0  0  0  0  0  0  0  0  0  0  0
    7.8560   -2.6179   -1.0066 H   0  0  0  0  0  0  0  0  0  0  0  0
    6.8066   -3.5558   -2.0947 H   0  0  0  0  0  0  0  0  0  0  0  0
    8.1333   -4.3573   -1.2178 H   0  0  0  0  0  0  0  0  0  0  0  0
  1  2  1  0
  1 14  1  0
  1 15  1  0
  1 16  1  0
  2  3  1  0
  2 12  1  0
  3  4  2  0
  3 17  1  0
  4  5  1  0
  4 18  1  0
  5  6  1  0
  5 12  1  0
  6  7  1  0
  6 19  1  0
  6 20  1  0
  8  7  1  1
  7 21  1  0
  7 22  1  0
  8  9  1  0
  8 10  1  0
  8 11  1  0
  9 23  1  0
  9 24  1  0
  9 25  1  0
 10 26  1  0
 10 27  1  0
 10 28  1  0
 11 29  1  0
 11 30  1  0
 11 31  1  0
 12 13  2  0
M  END

