
     RDKit          3D

 27 28  0  0  0  0  0  0  0  0999 V2000
    3.7749   -0.4451    2.6998 N   0  0  0  0  0  0  0  0  0  0  0  0
    3.4835   -0.1457    1.4094 C   0  0  0  0  0  0  0  0  0  0  0  0
    3.8791    1.0643    0.7428 C   0  0  0  0  0  0  0  0  0  0  0  0
    3.4353    1.1226   -0.5525 C   0  0  0  0  0  0  0  0  0  0  0  0
    2.5312   -0.2632   -1.0306 S   0  0  0  0  0  0  0  0  0  0  0  0
    2.7364   -0.9770    0.5599 C   0  0  0  0  0  0  0  0  0  0  0  0
    2.2142   -2.2687    0.9389 C   0  0  0  0  0  0  0  0  0  0  0  0
    2.3657   -2.7779    2.0389 O   0  0  0  0  0  0  0  0  0  0  0  0
    1.5276   -2.8715   -0.0708 O   0  0  0  0  0  0  0  0  0  0  0  0
    0.9385   -4.1427    0.1780 C   0  0  0  0  0  0  0  0  0  0  0  0
   -0.5733   -4.0690    0.1814 C   0  0  0  0  0  0  0  0  0  0  0  0
   -1.2602   -2.8741   -0.0698 C   0  0  0  0  0  0  0  0  0  0  0  0
   -2.6569   -2.8342   -0.0632 C   0  0  0  0  0  0  0  0  0  0  0  0
   -3.3970   -3.9901    0.1899 C   0  0  0  0  0  0  0  0  0  0  0  0
   -2.7212   -5.1820    0.4351 C   0  0  0  0  0  0  0  0  0  0  0  0
   -3.4170   -6.2954    0.6775 F   0  0  0  0  0  0  0  0  0  0  0  0
   -1.3228   -5.2305    0.4324 C   0  0  0  0  0  0  0  0  0  0  0  0
   -0.5343   -6.7569    0.7443 Cl  0  0  0  0  0  0  0  0  0  0  0  0
    4.4148    0.1287    3.2285 H   0  0  0  0  0  0  0  0  0  0  0  0
    3.4968   -1.3600    3.0435 H   0  0  0  0  0  0  0  0  0  0  0  0
    4.4657    1.8512    1.2197 H   0  0  0  0  0  0  0  0  0  0  0  0
    3.6020    1.9325   -1.2625 H   0  0  0  0  0  0  0  0  0  0  0  0
    1.3046   -4.5368    1.1374 H   0  0  0  0  0  0  0  0  0  0  0  0
    1.2799   -4.8218   -0.6204 H   0  0  0  0  0  0  0  0  0  0  0  0
   -0.6819   -1.9725   -0.2736 H   0  0  0  0  0  0  0  0  0  0  0  0
   -3.1750   -1.8928   -0.2593 H   0  0  0  0  0  0  0  0  0  0  0  0
   -4.4886   -3.9926    0.2016 H   0  0  0  0  0  0  0  0  0  0  0  0
  1  2  1  0
  1 19  1  0
  1 20  1  0
  2  3  2  0
  2  6  1  0
  3  4  1  0
  3 21  1  0
  4  5  2  0
  4 22  1  0
  5  6  1  0
  6  7  2  0
  7  8  1  0
  7  9  1  0
  9 10  1  0
 10 11  1  0
 10 23  1  0
 10 24  1  0
 11 12  2  0
 11 17  1  0
 12 13  1  0
 12 25  1  0
 13 14  2  0
 13 26  1  0
 14 15  1  0
 14 27  1  0
 15 16  1  0
 15 17  2  0
 17 18  1  0
M  CHG  2   5   1   8  -1
M  END

