
     RDKit          3D

 40 40  0  0  0  0  0  0  0  0999 V2000
    3.0417    3.5354    0.5360 C   0  0  0  0  0  0  0  0  0  0  0  0
    2.5948    2.0890    0.7504 C   0  0  0  0  0  0  0  0  0  0  0  0
    3.0323    1.1039   -0.3440 C   0  0  0  0  0  0  0  0  0  0  0  0
    4.4892    0.9557   -0.4795 N   0  0  0  0  0  0  0  0  0  0  0  0
    5.1379    0.0436    0.4755 C   0  0  0  0  0  0  0  0  0  0  0  0
    4.9726   -1.4474    0.1385 C   0  0  0  0  0  0  0  0  0  0  0  0
    5.6183   -1.8828   -1.1771 C   0  0  0  0  0  0  0  0  0  0  0  0
    5.0898    1.6435   -1.4868 C   0  0  0  0  0  0  0  0  0  0  0  0
    4.4659    2.3685   -2.2609 O   0  0  0  0  0  0  0  0  0  0  0  0
    6.6345    1.5524   -1.7044 C   0  0  0  0  0  0  0  0  0  0  0  0
    7.4379    0.9747   -0.9795 O   0  0  0  0  0  0  0  0  0  0  0  0
    6.9752    2.2202   -2.8255 N   0  0  0  0  0  0  0  0  0  0  0  0
    8.3462    2.3405   -3.2887 C   0  0  0  0  0  0  0  0  0  0  0  0
    9.0321    3.6147   -2.8220 C   0  0  0  0  0  0  0  0  0  0  0  0
    9.4500    3.7568   -1.4875 C   0  0  0  0  0  0  0  0  0  0  0  0
   10.0571    4.9505   -1.1000 C   0  0  0  0  0  0  0  0  0  0  0  0
   10.2296    5.9588   -2.0527 C   0  0  0  0  0  0  0  0  0  0  0  0
    9.7823    5.7199   -3.3544 C   0  0  0  0  0  0  0  0  0  0  0  0
    9.1976    4.5797   -3.7334 N   0  0  0  0  0  0  0  0  0  0  0  0
    2.6468    4.1884    1.3307 H   0  0  0  0  0  0  0  0  0  0  0  0
    2.6963    3.9243   -0.4341 H   0  0  0  0  0  0  0  0  0  0  0  0
    4.1395    3.6246    0.5513 H   0  0  0  0  0  0  0  0  0  0  0  0
    1.4923    2.0425    0.7983 H   0  0  0  0  0  0  0  0  0  0  0  0
    2.9487    1.7313    1.7342 H   0  0  0  0  0  0  0  0  0  0  0  0
    2.6414    1.4283   -1.3172 H   0  0  0  0  0  0  0  0  0  0  0  0
    2.6128    0.1090   -0.1262 H   0  0  0  0  0  0  0  0  0  0  0  0
    4.6921    0.2414    1.4643 H   0  0  0  0  0  0  0  0  0  0  0  0
    6.2000    0.2970    0.5304 H   0  0  0  0  0  0  0  0  0  0  0  0
    3.9015   -1.7178    0.1370 H   0  0  0  0  0  0  0  0  0  0  0  0
    5.4191   -2.0119    0.9762 H   0  0  0  0  0  0  0  0  0  0  0  0
    5.1636   -1.3682   -2.0394 H   0  0  0  0  0  0  0  0  0  0  0  0
    5.4894   -2.9649   -1.3387 H   0  0  0  0  0  0  0  0  0  0  0  0
    6.6955   -1.6576   -1.1869 H   0  0  0  0  0  0  0  0  0  0  0  0
    6.2139    2.7179   -3.2834 H   0  0  0  0  0  0  0  0  0  0  0  0
    8.3547    2.3360   -4.3875 H   0  0  0  0  0  0  0  0  0  0  0  0
    8.8917    1.4608   -2.9167 H   0  0  0  0  0  0  0  0  0  0  0  0
    9.2908    2.9387   -0.7814 H   0  0  0  0  0  0  0  0  0  0  0  0
   10.3955    5.0921   -0.0700 H   0  0  0  0  0  0  0  0  0  0  0  0
   10.7021    6.9097   -1.7958 H   0  0  0  0  0  0  0  0  0  0  0  0
    9.9026    6.4866   -4.1293 H   0  0  0  0  0  0  0  0  0  0  0  0
  1  2  1  0
  1 20  1  0
  1 21  1  0
  1 22  1  0
  2  3  1  0
  2 23  1  0
  2 24  1  0
  3  4  1  0
  3 25  1  0
  3 26  1  0
  4  5  1  0
  4  8  1  0
  5  6  1  0
  5 27  1  0
  5 28  1  0
  6  7  1  0
  6 29  1  0
  6 30  1  0
  7 31  1  0
  7 32  1  0
  7 33  1  0
  8  9  2  0
  8 10  1  0
 10 11  2  0
 10 12  1  0
 12 13  1  0
 12 34  1  0
 13 14  1  0
 13 35  1  0
 13 36  1  0
 14 15  2  0
 14 19  1  0
 15 16  1  0
 15 37  1  0
 16 17  2  0
 16 38  1  0
 17 18  1  0
 17 39  1  0
 18 19  2  0
 18 40  1  0
M  END

