
     RDKit          3D

 53 57  0  0  0  0  0  0  0  0999 V2000
    4.2072    1.2558    1.9518 C   0  0  0  0  0  0  0  0  0  0  0  0
    3.2330    0.1400    1.6120 C   0  0  0  0  0  0  0  0  0  0  0  0
    3.8395   -1.1556    1.7320 O   0  0  0  0  0  0  0  0  0  0  0  0
    4.5350   -1.6052    0.6565 C   0  0  0  0  0  0  0  0  0  0  0  0
    4.6617   -0.9719   -0.3733 O   0  0  0  0  0  0  0  0  0  0  0  0
    5.0665   -2.8455    0.8819 N   0  0  0  0  0  0  0  0  0  0  0  0
    5.8908   -3.4747   -0.1450 C   0  0  0  0  0  0  0  0  0  0  0  0
    5.3115   -4.8245   -0.5792 C   0  0  0  0  0  0  0  0  0  0  0  0
    4.9255   -5.6426    0.6275 C   0  0  0  0  0  0  0  0  0  0  0  0
    4.7594   -5.0480    1.8476 C   0  0  0  0  0  0  0  0  0  0  0  0
    4.2933   -6.1747    3.0971 S   0  0  0  0  0  0  0  0  0  0  0  0
    4.3049   -7.4896    1.9476 C   0  0  0  0  0  0  0  0  0  0  0  0
    4.0550   -8.7916    2.3503 N   0  0  0  0  0  0  0  0  0  0  0  0
    3.6998   -9.1764    3.6258 C   0  0  0  0  0  0  0  0  0  0  0  0
    3.5485   -8.3806    4.5413 O   0  0  0  0  0  0  0  0  0  0  0  0
    3.5259  -10.6382    3.7809 C   0  0  0  0  0  0  0  0  0  0  0  0
    3.2423  -11.1909    4.9813 C   0  0  0  0  0  0  0  0  0  0  0  0
    3.0447  -12.5133    5.1684 O   0  0  0  0  0  0  0  0  0  0  0  0
    2.9367  -13.2661    3.9633 C   0  0  0  0  0  0  0  0  0  0  0  0
    3.9409  -12.7678    2.9313 C   0  0  0  0  0  0  0  0  0  0  0  0
    3.6985  -11.3978    2.6440 O   0  0  0  0  0  0  0  0  0  0  0  0
    4.6456   -7.0651    0.6632 C   0  0  0  0  0  0  0  0  0  0  0  0
    4.7359   -7.9266   -0.5154 C   0  0  0  0  0  0  0  0  0  0  0  0
    5.5796   -7.7714   -1.4896 N   0  0  0  0  0  0  0  0  0  0  0  0
    5.4214   -8.7088   -2.4862 C   0  0  0  0  0  0  0  0  0  0  0  0
    6.1962   -8.7930   -3.6571 C   0  0  0  0  0  0  0  0  0  0  0  0
    5.9312   -9.8052   -4.5746 C   0  0  0  0  0  0  0  0  0  0  0  0
    4.9033  -10.7394   -4.3448 C   0  0  0  0  0  0  0  0  0  0  0  0
    4.1219  -10.6765   -3.1908 C   0  0  0  0  0  0  0  0  0  0  0  0
    4.3871   -9.6579   -2.2687 C   0  0  0  0  0  0  0  0  0  0  0  0
    3.5863   -9.2924   -0.7599 S   0  0  0  0  0  0  0  0  0  0  0  0
    4.9179   -3.5770    2.1330 C   0  0  0  0  0  0  0  0  0  0  0  0
    3.6899    2.2285    1.9244 H   0  0  0  0  0  0  0  0  0  0  0  0
    5.0298    1.2843    1.2223 H   0  0  0  0  0  0  0  0  0  0  0  0
    4.6285    1.1185    2.9602 H   0  0  0  0  0  0  0  0  0  0  0  0
    2.8430    0.2603    0.5906 H   0  0  0  0  0  0  0  0  0  0  0  0
    2.3893    0.1190    2.3179 H   0  0  0  0  0  0  0  0  0  0  0  0
    6.9112   -3.6237    0.2565 H   0  0  0  0  0  0  0  0  0  0  0  0
    5.9563   -2.7782   -0.9886 H   0  0  0  0  0  0  0  0  0  0  0  0
    6.0415   -5.3724   -1.1910 H   0  0  0  0  0  0  0  0  0  0  0  0
    4.4269   -4.6640   -1.2221 H   0  0  0  0  0  0  0  0  0  0  0  0
    4.1761   -9.5361    1.6660 H   0  0  0  0  0  0  0  0  0  0  0  0
    3.1645  -10.5834    5.8826 H   0  0  0  0  0  0  0  0  0  0  0  0
    1.9113  -13.1688    3.5640 H   0  0  0  0  0  0  0  0  0  0  0  0
    3.1183  -14.3188    4.2235 H   0  0  0  0  0  0  0  0  0  0  0  0
    3.8447  -13.3214    1.9865 H   0  0  0  0  0  0  0  0  0  0  0  0
    4.9698  -12.8933    3.3169 H   0  0  0  0  0  0  0  0  0  0  0  0
    6.9908   -8.0628   -3.8220 H   0  0  0  0  0  0  0  0  0  0  0  0
    6.5283   -9.8772   -5.4869 H   0  0  0  0  0  0  0  0  0  0  0  0
    4.7121  -11.5249   -5.0800 H   0  0  0  0  0  0  0  0  0  0  0  0
    3.3233  -11.4010   -3.0172 H   0  0  0  0  0  0  0  0  0  0  0  0
    5.7967   -3.4057    2.7896 H   0  0  0  0  0  0  0  0  0  0  0  0
    4.0451   -3.1854    2.6711 H   0  0  0  0  0  0  0  0  0  0  0  0
  1  2  1  0
  1 33  1  0
  1 34  1  0
  1 35  1  0
  2  3  1  0
  2 36  1  0
  2 37  1  0
  3  4  1  0
  4  5  2  0
  4  6  1  0
  6  7  1  0
  6 32  1  0
  7  8  1  0
  7 38  1  0
  7 39  1  0
  8  9  1  0
  8 40  1  0
  8 41  1  0
  9 10  2  0
  9 22  1  0
 10 11  1  0
 10 32  1  0
 11 12  1  0
 12 13  1  0
 12 22  2  0
 13 14  1  0
 13 42  1  0
 14 15  2  0
 14 16  1  0
 16 17  2  0
 16 21  1  0
 17 18  1  0
 17 43  1  0
 18 19  1  0
 19 20  1  0
 19 44  1  0
 19 45  1  0
 20 21  1  0
 20 46  1  0
 20 47  1  0
 22 23  1  0
 23 24  2  0
 23 31  1  0
 24 25  1  0
 25 26  2  0
 25 30  1  0
 26 27  1  0
 26 48  1  0
 27 28  2  0
 27 49  1  0
 28 29  1  0
 28 50  1  0
 29 30  2  0
 29 51  1  0
 30 31  1  0
 32 52  1  0
 32 53  1  0
M  END

