
     RDKit          3D

 93 97  0  0  0  0  0  0  0  0999 V2000
    0.6734    0.8953   -2.1173 C   0  0  0  0  0  0  0  0  0  0  0  0
    2.0799    0.7160   -1.5440 C   0  0  0  0  0  0  0  0  0  0  0  0
    2.8104    2.0376   -1.2857 C   0  0  0  0  0  0  0  0  0  0  0  0
    4.2195    1.8670   -0.7109 C   0  0  0  0  0  0  0  0  0  0  0  0
    4.9494    3.1886   -0.4533 C   0  0  0  0  0  0  0  0  0  0  0  0
    6.3581    3.0172    0.1229 C   0  0  0  0  0  0  0  0  0  0  0  0
    7.0859    4.3416    0.3782 C   0  0  0  0  0  0  0  0  0  0  0  0
    8.4895    4.1482    0.9582 C   0  0  0  0  0  0  0  0  0  0  0  0
    9.3103    5.4389    1.2455 C   0  0  2  0  0  0  0  0  0  0  0  0
   10.6882    5.0165    1.8326 C   0  0  0  0  0  0  0  0  0  0  0  0
   11.6604    6.1457    2.1842 C   0  0  0  0  0  0  0  0  0  0  0  0
   12.9859    5.6344    2.7591 C   0  0  0  0  0  0  0  0  0  0  0  0
   13.9747    6.7485    3.1154 C   0  0  0  0  0  0  0  0  0  0  0  0
   15.3001    6.2405    3.6906 C   0  0  0  0  0  0  0  0  0  0  0  0
   16.2899    7.3534    4.0469 C   0  0  0  0  0  0  0  0  0  0  0  0
   17.6157    6.8454    4.6223 C   0  0  0  0  0  0  0  0  0  0  0  0
   18.5985    7.9627    4.9754 C   0  0  0  0  0  0  0  0  0  0  0  0
    8.5626    6.3956    2.1760 C   0  0  0  0  0  0  0  0  0  0  0  0
    8.1255    6.1776    3.4771 C   0  0  0  0  0  0  0  0  0  0  0  0
    7.4324    7.1918    4.1743 C   0  0  0  0  0  0  0  0  0  0  0  0
    6.9580    6.9682    5.5637 C   0  0  0  0  0  0  0  0  0  0  0  0
    7.7096    6.1987    6.4747 C   0  0  0  0  0  0  0  0  0  0  0  0
    7.2704    5.9844    7.7777 C   0  0  0  0  0  0  0  0  0  0  0  0
    6.0526    6.5394    8.2136 C   0  0  0  0  0  0  0  0  0  0  0  0
    5.5937    6.3217    9.5564 C   0  0  0  0  0  0  0  0  0  0  0  0
    5.2224    6.1453   10.6428 N   0  0  0  0  0  0  0  0  0  0  0  0
    5.2906    7.3103    7.3158 C   0  0  0  0  0  0  0  0  0  0  0  0
    5.7407    7.5172    6.0153 C   0  0  0  0  0  0  0  0  0  0  0  0
    7.2008    8.4220    3.5233 C   0  0  0  0  0  0  0  0  0  0  0  0
    7.6406    8.6502    2.2187 C   0  0  0  0  0  0  0  0  0  0  0  0
    8.3222    7.6335    1.5414 C   0  0  0  0  0  0  0  0  0  0  0  0
    8.8871    7.5803    0.1893 C   0  0  0  0  0  0  0  0  0  0  0  0
    8.9280    8.5341   -0.8332 C   0  0  0  0  0  0  0  0  0  0  0  0
    9.5479    8.2104   -2.0408 C   0  0  0  0  0  0  0  0  0  0  0  0
   10.1294    6.9425   -2.2539 C   0  0  0  0  0  0  0  0  0  0  0  0
   10.7832    6.6159   -3.5466 C   0  0  0  0  0  0  0  0  0  0  0  0
   11.5044    7.5908   -4.2654 C   0  0  0  0  0  0  0  0  0  0  0  0
   12.1196    7.2903   -5.4769 C   0  0  0  0  0  0  0  0  0  0  0  0
   12.0315    5.9913   -6.0119 C   0  0  0  0  0  0  0  0  0  0  0  0
   12.6643    5.6747   -7.2611 C   0  0  0  0  0  0  0  0  0  0  0  0
   13.1762    5.4183   -8.2716 N   0  0  0  0  0  0  0  0  0  0  0  0
   11.3151    5.0068   -5.3060 C   0  0  0  0  0  0  0  0  0  0  0  0
   10.7041    5.3199   -4.0955 C   0  0  0  0  0  0  0  0  0  0  0  0
   10.0759    5.9903   -1.2121 C   0  0  0  0  0  0  0  0  0  0  0  0
    9.4643    6.3068   -0.0048 C   0  0  0  0  0  0  0  0  0  0  0  0
    0.1791   -0.0740   -2.2901 H   0  0  0  0  0  0  0  0  0  0  0  0
    0.6984    1.4320   -3.0807 H   0  0  0  0  0  0  0  0  0  0  0  0
    0.0329    1.4779   -1.4339 H   0  0  0  0  0  0  0  0  0  0  0  0
    2.6831    0.0971   -2.2331 H   0  0  0  0  0  0  0  0  0  0  0  0
    2.0234    0.1429   -0.6004 H   0  0  0  0  0  0  0  0  0  0  0  0
    2.2076    2.6579   -0.5961 H   0  0  0  0  0  0  0  0  0  0  0  0
    2.8682    2.6120   -2.2294 H   0  0  0  0  0  0  0  0  0  0  0  0
    4.8218    1.2462   -1.4005 H   0  0  0  0  0  0  0  0  0  0  0  0
    4.1612    1.2929    0.2327 H   0  0  0  0  0  0  0  0  0  0  0  0
    4.3476    3.8097    0.2359 H   0  0  0  0  0  0  0  0  0  0  0  0
    5.0091    3.7629   -1.3966 H   0  0  0  0  0  0  0  0  0  0  0  0
    6.9597    2.3944   -0.5655 H   0  0  0  0  0  0  0  0  0  0  0  0
    6.2979    2.4438    1.0668 H   0  0  0  0  0  0  0  0  0  0  0  0
    6.4821    4.9599    1.0649 H   0  0  0  0  0  0  0  0  0  0  0  0
    7.1483    4.9092   -0.5665 H   0  0  0  0  0  0  0  0  0  0  0  0
    9.0827    3.5161    0.2733 H   0  0  0  0  0  0  0  0  0  0  0  0
    8.4174    3.5758    1.9004 H   0  0  0  0  0  0  0  0  0  0  0  0
   11.1699    4.3343    1.1094 H   0  0  0  0  0  0  0  0  0  0  0  0
   10.4986    4.4056    2.7335 H   0  0  0  0  0  0  0  0  0  0  0  0
   11.1893    6.8296    2.9114 H   0  0  0  0  0  0  0  0  0  0  0  0
   11.8658    6.7526    1.2853 H   0  0  0  0  0  0  0  0  0  0  0  0
   13.4590    4.9461    2.0341 H   0  0  0  0  0  0  0  0  0  0  0  0
   12.7844    5.0248    3.6600 H   0  0  0  0  0  0  0  0  0  0  0  0
   13.5019    7.4372    3.8401 H   0  0  0  0  0  0  0  0  0  0  0  0
   14.1769    7.3572    2.2145 H   0  0  0  0  0  0  0  0  0  0  0  0
   15.7719    5.5515    2.9653 H   0  0  0  0  0  0  0  0  0  0  0  0
   15.0970    5.6313    4.5913 H   0  0  0  0  0  0  0  0  0  0  0  0
   15.8186    8.0428    4.7723 H   0  0  0  0  0  0  0  0  0  0  0  0
   16.4937    7.9627    3.1463 H   0  0  0  0  0  0  0  0  0  0  0  0
   18.0854    6.1565    3.8966 H   0  0  0  0  0  0  0  0  0  0  0  0
   17.4107    6.2365    5.5218 H   0  0  0  0  0  0  0  0  0  0  0  0
   18.8542    8.5671    4.0888 H   0  0  0  0  0  0  0  0  0  0  0  0
   19.5389    7.5612    5.3858 H   0  0  0  0  0  0  0  0  0  0  0  0
   18.1733    8.6480    5.7280 H   0  0  0  0  0  0  0  0  0  0  0  0
    8.2906    5.2101    3.9576 H   0  0  0  0  0  0  0  0  0  0  0  0
    8.6698    5.7817    6.1645 H   0  0  0  0  0  0  0  0  0  0  0  0
    7.8722    5.3931    8.4706 H   0  0  0  0  0  0  0  0  0  0  0  0
    4.3405    7.7368    7.6430 H   0  0  0  0  0  0  0  0  0  0  0  0
    5.1222    8.0962    5.3267 H   0  0  0  0  0  0  0  0  0  0  0  0
    6.6903    9.2244    4.0601 H   0  0  0  0  0  0  0  0  0  0  0  0
    7.4566    9.6166    1.7428 H   0  0  0  0  0  0  0  0  0  0  0  0
    8.4766    9.5204   -0.6996 H   0  0  0  0  0  0  0  0  0  0  0  0
    9.5581    8.9467   -2.8472 H   0  0  0  0  0  0  0  0  0  0  0  0
   11.6068    8.5972   -3.8547 H   0  0  0  0  0  0  0  0  0  0  0  0
   12.6811    8.0575   -6.0135 H   0  0  0  0  0  0  0  0  0  0  0  0
   11.2338    3.9993   -5.7185 H   0  0  0  0  0  0  0  0  0  0  0  0
   10.1308    4.5489   -3.5770 H   0  0  0  0  0  0  0  0  0  0  0  0
   10.5438    5.0126   -1.3514 H   0  0  0  0  0  0  0  0  0  0  0  0
  1  2  1  0
  1 46  1  0
  1 47  1  0
  1 48  1  0
  2  3  1  0
  2 49  1  0
  2 50  1  0
  3  4  1  0
  3 51  1  0
  3 52  1  0
  4  5  1  0
  4 53  1  0
  4 54  1  0
  5  6  1  0
  5 55  1  0
  5 56  1  0
  6  7  1  0
  6 57  1  0
  6 58  1  0
  7  8  1  0
  7 59  1  0
  7 60  1  0
  9  8  1  6
  8 61  1  0
  8 62  1  0
  9 10  1  0
  9 18  1  0
  9 45  1  0
 10 11  1  0
 10 63  1  0
 10 64  1  0
 11 12  1  0
 11 65  1  0
 11 66  1  0
 12 13  1  0
 12 67  1  0
 12 68  1  0
 13 14  1  0
 13 69  1  0
 13 70  1  0
 14 15  1  0
 14 71  1  0
 14 72  1  0
 15 16  1  0
 15 73  1  0
 15 74  1  0
 16 17  1  0
 16 75  1  0
 16 76  1  0
 17 77  1  0
 17 78  1  0
 17 79  1  0
 18 19  2  0
 18 31  1  0
 19 20  1  0
 19 80  1  0
 20 21  1  0
 20 29  2  0
 21 22  2  0
 21 28  1  0
 22 23  1  0
 22 81  1  0
 23 24  2  0
 23 82  1  0
 24 25  1  0
 24 27  1  0
 25 26  3  0
 27 28  2  0
 27 83  1  0
 28 84  1  0
 29 30  1  0
 29 85  1  0
 30 31  2  0
 30 86  1  0
 31 32  1  0
 32 33  2  0
 32 45  1  0
 33 34  1  0
 33 87  1  0
 34 35  2  0
 34 88  1  0
 35 36  1  0
 35 44  1  0
 36 37  2  0
 36 43  1  0
 37 38  1  0
 37 89  1  0
 38 39  2  0
 38 90  1  0
 39 40  1  0
 39 42  1  0
 40 41  3  0
 42 43  2  0
 42 91  1  0
 43 92  1  0
 44 45  2  0
 44 93  1  0
M  END

