
     RDKit          3D

 41 43  0  0  0  0  0  0  0  0999 V2000
    0.9781    1.5489    1.5472 C   0  0  0  0  0  0  0  0  0  0  0  0
    2.4252    1.9664    1.3537 C   0  0  0  0  0  0  0  0  0  0  0  0
    3.1408    0.8494    0.8600 O   0  0  0  0  0  0  0  0  0  0  0  0
    4.5660    0.8957    0.8715 C   0  0  1  0  0  0  0  0  0  0  0  0
    5.0547    1.0079    2.3059 C   0  0  0  0  0  0  0  0  0  0  0  0
    5.9388    1.8930    2.6961 N   0  0  0  0  0  0  0  0  0  0  0  0
    6.1050    1.6153    4.0515 O   0  0  0  0  0  0  0  0  0  0  0  0
    5.2903    0.5837    4.3432 C   0  0  0  0  0  0  0  0  0  0  0  0
    5.2550    0.0812    5.7065 C   0  0  0  0  0  0  0  0  0  0  0  0
    6.0444    0.6317    6.7377 C   0  0  0  0  0  0  0  0  0  0  0  0
    5.9624    0.1064    8.0136 C   0  0  0  0  0  0  0  0  0  0  0  0
    5.0787   -0.9803    8.2448 C   0  0  0  0  0  0  0  0  0  0  0  0
    4.9353   -1.5333    9.4801 N   0  0  0  0  0  0  0  0  0  0  0  0
    4.3264   -1.5099    7.2634 N   0  0  0  0  0  0  0  0  0  0  0  0
    4.4140   -0.9943    6.0444 C   0  0  0  0  0  0  0  0  0  0  0  0
    4.6197    0.1698    3.3019 N   0  0  0  0  0  0  0  0  0  0  0  0
    5.0106   -0.4697    0.3020 C   0  0  0  0  0  0  0  0  0  0  0  0
    4.6035   -0.6380   -1.1664 C   0  0  0  0  0  0  0  0  0  0  0  0
    5.1304    0.5108   -2.0349 C   0  0  0  0  0  0  0  0  0  0  0  0
    4.7042    1.8738   -1.4745 C   0  0  0  0  0  0  0  0  0  0  0  0
    5.1199    2.0372   -0.0076 C   0  0  0  0  0  0  0  0  0  0  0  0
    0.3765    2.3950    1.9156 H   0  0  0  0  0  0  0  0  0  0  0  0
    0.9121    0.7249    2.2739 H   0  0  0  0  0  0  0  0  0  0  0  0
    0.5444    1.2022    0.5961 H   0  0  0  0  0  0  0  0  0  0  0  0
    2.8517    2.3136    2.3145 H   0  0  0  0  0  0  0  0  0  0  0  0
    2.4865    2.8182    0.6481 H   0  0  0  0  0  0  0  0  0  0  0  0
    6.7143    1.4673    6.5246 H   0  0  0  0  0  0  0  0  0  0  0  0
    6.5616    0.5169    8.8295 H   0  0  0  0  0  0  0  0  0  0  0  0
    5.5484   -1.2846   10.2423 H   0  0  0  0  0  0  0  0  0  0  0  0
    4.3581   -2.3605    9.5607 H   0  0  0  0  0  0  0  0  0  0  0  0
    3.7896   -1.4452    5.2654 H   0  0  0  0  0  0  0  0  0  0  0  0
    4.5681   -1.2578    0.9298 H   0  0  0  0  0  0  0  0  0  0  0  0
    6.1072   -0.5436    0.4027 H   0  0  0  0  0  0  0  0  0  0  0  0
    3.5036   -0.6714   -1.2260 H   0  0  0  0  0  0  0  0  0  0  0  0
    4.9737   -1.6069   -1.5416 H   0  0  0  0  0  0  0  0  0  0  0  0
    4.7789    0.3976   -3.0744 H   0  0  0  0  0  0  0  0  0  0  0  0
    6.2350    0.4641   -2.0732 H   0  0  0  0  0  0  0  0  0  0  0  0
    3.6083    1.9735   -1.5572 H   0  0  0  0  0  0  0  0  0  0  0  0
    5.1405    2.6902   -2.0739 H   0  0  0  0  0  0  0  0  0  0  0  0
    4.7984    3.0120    0.3904 H   0  0  0  0  0  0  0  0  0  0  0  0
    6.2185    2.0311    0.0780 H   0  0  0  0  0  0  0  0  0  0  0  0
  1  2  1  0
  1 22  1  0
  1 23  1  0
  1 24  1  0
  2  3  1  0
  2 25  1  0
  2 26  1  0
  4  3  1  1
  4  5  1  0
  4 17  1  0
  4 21  1  0
  5  6  2  0
  5 16  1  0
  6  7  1  0
  7  8  1  0
  8  9  1  0
  8 16  2  0
  9 10  2  0
  9 15  1  0
 10 11  1  0
 10 27  1  0
 11 12  2  0
 11 28  1  0
 12 13  1  0
 12 14  1  0
 13 29  1  0
 13 30  1  0
 14 15  2  0
 15 31  1  0
 17 18  1  0
 17 32  1  0
 17 33  1  0
 18 19  1  0
 18 34  1  0
 18 35  1  0
 19 20  1  0
 19 36  1  0
 19 37  1  0
 20 21  1  0
 20 38  1  0
 20 39  1  0
 21 40  1  0
 21 41  1  0
M  END

