
     RDKit          3D

 71 77  0  0  0  0  0  0  0  0999 V2000
   11.4687  -12.0602    1.6465 C   0  0  0  0  0  0  0  0  0  0  0  0
   10.5945  -11.7221    0.5906 O   0  0  0  0  0  0  0  0  0  0  0  0
    9.7602  -10.6653    0.7318 C   0  0  0  0  0  0  0  0  0  0  0  0
    9.6782   -9.8580    1.8677 C   0  0  0  0  0  0  0  0  0  0  0  0
    8.8014   -8.7628    1.9335 C   0  0  0  0  0  0  0  0  0  0  0  0
    7.9721   -8.4504    0.8379 C   0  0  0  0  0  0  0  0  0  0  0  0
    8.0704   -9.2724   -0.3062 C   0  0  0  0  0  0  0  0  0  0  0  0
    8.9301  -10.3587   -0.3787 C   0  0  0  0  0  0  0  0  0  0  0  0
    8.9965  -11.0683   -1.5411 O   0  0  0  0  0  0  0  0  0  0  0  0
    8.5441  -12.4159   -1.5085 C   0  0  0  0  0  0  0  0  0  0  0  0
    6.9833   -7.3277    0.8996 C   0  0  0  0  0  0  0  0  0  0  0  0
    6.2047   -6.9846   -0.1478 C   0  0  0  0  0  0  0  0  0  0  0  0
    5.1769   -5.8856   -0.2556 C   0  0  2  0  0  0  0  0  0  0  0  0
    4.6504   -6.0760   -1.2005 H   0  0  0  0  0  0  0  0  0  0  0  0
    5.7913   -4.4946   -0.4380 C   0  0  0  0  0  0  0  0  0  0  0  0
    6.5852   -3.8445    0.5225 C   0  0  0  0  0  0  0  0  0  0  0  0
    7.1168   -2.5766    0.2807 C   0  0  0  0  0  0  0  0  0  0  0  0
    6.8913   -1.9036   -0.9309 C   0  0  0  0  0  0  0  0  0  0  0  0
    7.4929   -0.5447   -1.1910 C   0  0  0  0  0  0  0  0  0  0  0  0
    6.1049   -2.5537   -1.8914 C   0  0  0  0  0  0  0  0  0  0  0  0
    5.5682   -3.8201   -1.6484 C   0  0  0  0  0  0  0  0  0  0  0  0
    4.0199   -6.0251    0.8149 C   0  0  2  0  0  0  0  0  0  0  0  0
    4.4844   -6.0142    2.2692 C   0  0  0  0  0  0  0  0  0  0  0  0
    3.4377   -5.7559    3.2153 C   0  0  0  0  0  0  0  0  0  0  0  0
    2.5601   -5.5495    3.9496 N   0  0  0  0  0  0  0  0  0  0  0  0
    5.7341   -6.2876    2.7936 C   0  0  0  0  0  0  0  0  0  0  0  0
    5.8592   -6.1609    4.2314 C   0  0  0  0  0  0  0  0  0  0  0  0
    5.9953   -6.0729    5.3808 N   0  0  0  0  0  0  0  0  0  0  0  0
    6.9036   -6.6781    2.1628 N   0  0  0  0  0  0  0  0  0  0  0  0
    8.2008   -6.5386    2.8499 C   0  0  0  0  0  0  0  0  0  0  0  0
    8.7704   -7.9080    3.1781 C   0  0  0  0  0  0  0  0  0  0  0  0
    3.2285   -7.3160    0.5063 C   0  0  0  0  0  0  0  0  0  0  0  0
    3.6339   -8.6417    0.6413 C   0  0  0  0  0  0  0  0  0  0  0  0
    2.7443   -9.6519    0.2505 C   0  0  0  0  0  0  0  0  0  0  0  0
    3.2828  -11.4763    0.4177 Br  0  0  0  0  0  0  0  0  0  0  0  0
    1.4723   -9.3582   -0.2530 C   0  0  0  0  0  0  0  0  0  0  0  0
    1.0659   -8.0255   -0.3650 C   0  0  0  0  0  0  0  0  0  0  0  0
    1.9415   -7.0057    0.0192 C   0  0  0  0  0  0  0  0  0  0  0  0
    1.7646   -5.5516    0.0476 C   0  0  0  0  0  0  0  0  0  0  0  0
    0.6640   -4.7605   -0.2952 C   0  0  0  0  0  0  0  0  0  0  0  0
    0.7351   -3.3769   -0.1177 C   0  0  0  0  0  0  0  0  0  0  0  0
    1.9015   -2.8047    0.4045 C   0  0  0  0  0  0  0  0  0  0  0  0
    1.9748   -0.9155    0.6599 Br  0  0  0  0  0  0  0  0  0  0  0  0
    3.0147   -3.5827    0.7456 C   0  0  0  0  0  0  0  0  0  0  0  0
    2.9398   -4.9605    0.5540 C   0  0  0  0  0  0  0  0  0  0  0  0
   12.0451  -12.9309    1.3072 H   0  0  0  0  0  0  0  0  0  0  0  0
   10.9176  -12.3297    2.5651 H   0  0  0  0  0  0  0  0  0  0  0  0
   12.1665  -11.2359    1.8770 H   0  0  0  0  0  0  0  0  0  0  0  0
   10.3153  -10.0613    2.7294 H   0  0  0  0  0  0  0  0  0  0  0  0
    7.4657   -9.0946   -1.1946 H   0  0  0  0  0  0  0  0  0  0  0  0
    8.6187  -12.7964   -2.5368 H   0  0  0  0  0  0  0  0  0  0  0  0
    7.4896  -12.4718   -1.1822 H   0  0  0  0  0  0  0  0  0  0  0  0
    9.1639  -13.0401   -0.8460 H   0  0  0  0  0  0  0  0  0  0  0  0
    6.3205   -7.5800   -1.0517 H   0  0  0  0  0  0  0  0  0  0  0  0
    6.7919   -4.3209    1.4786 H   0  0  0  0  0  0  0  0  0  0  0  0
    7.7210   -2.0973    1.0568 H   0  0  0  0  0  0  0  0  0  0  0  0
    7.4601    0.0900   -0.2916 H   0  0  0  0  0  0  0  0  0  0  0  0
    6.9661   -0.0172   -2.0002 H   0  0  0  0  0  0  0  0  0  0  0  0
    8.5529   -0.6298   -1.4885 H   0  0  0  0  0  0  0  0  0  0  0  0
    5.9007   -2.0606   -2.8460 H   0  0  0  0  0  0  0  0  0  0  0  0
    4.9512   -4.2913   -2.4187 H   0  0  0  0  0  0  0  0  0  0  0  0
    8.0744   -5.9284    3.7501 H   0  0  0  0  0  0  0  0  0  0  0  0
    8.8804   -5.9938    2.1729 H   0  0  0  0  0  0  0  0  0  0  0  0
    8.1565   -8.3833    3.9647 H   0  0  0  0  0  0  0  0  0  0  0  0
    9.7846   -7.7981    3.5957 H   0  0  0  0  0  0  0  0  0  0  0  0
    4.6107   -8.9030    1.0456 H   0  0  0  0  0  0  0  0  0  0  0  0
    0.8013  -10.1677   -0.5442 H   0  0  0  0  0  0  0  0  0  0  0  0
    0.0669   -7.7943   -0.7423 H   0  0  0  0  0  0  0  0  0  0  0  0
   -0.2516   -5.2104   -0.6862 H   0  0  0  0  0  0  0  0  0  0  0  0
   -0.1146   -2.7419   -0.3731 H   0  0  0  0  0  0  0  0  0  0  0  0
    3.9068   -3.1114    1.1562 H   0  0  0  0  0  0  0  0  0  0  0  0
  1  2  1  0
  1 46  1  0
  1 47  1  0
  1 48  1  0
  2  3  1  0
  3  4  2  0
  3  8  1  0
  4  5  1  0
  4 49  1  0
  5  6  2  0
  5 31  1  0
  6  7  1  0
  6 11  1  0
  7  8  2  0
  7 50  1  0
  8  9  1  0
  9 10  1  0
 10 51  1  0
 10 52  1  0
 10 53  1  0
 11 12  2  0
 11 29  1  0
 12 13  1  0
 12 54  1  0
 13 14  1  6
 13 15  1  0
 13 22  1  0
 15 16  2  0
 15 21  1  0
 16 17  1  0
 16 55  1  0
 17 18  2  0
 17 56  1  0
 18 19  1  0
 18 20  1  0
 19 57  1  0
 19 58  1  0
 19 59  1  0
 20 21  2  0
 20 60  1  0
 21 61  1  0
 22 23  1  1
 22 32  1  0
 22 45  1  0
 23 24  1  0
 23 26  2  0
 24 25  3  0
 26 27  1  0
 26 29  1  0
 27 28  3  0
 29 30  1  0
 30 31  1  0
 30 62  1  0
 30 63  1  0
 31 64  1  0
 31 65  1  0
 32 33  2  0
 32 38  1  0
 33 34  1  0
 33 66  1  0
 34 35  1  0
 34 36  2  0
 36 37  1  0
 36 67  1  0
 37 38  2  0
 37 68  1  0
 38 39  1  0
 39 40  2  0
 39 45  1  0
 40 41  1  0
 40 69  1  0
 41 42  2  0
 41 70  1  0
 42 43  1  0
 42 44  1  0
 44 45  2  0
 44 71  1  0
M  END

