
     RDKit          3D

 52 54  0  0  0  0  0  0  0  0999 V2000
    1.3763    3.4382   -0.9832 C   0  0  0  0  0  0  0  0  0  0  0  0
    2.5208    2.6450   -1.1551 O   0  0  0  0  0  0  0  0  0  0  0  0
    3.2439    2.4086    0.0353 C   0  0  0  0  0  0  0  0  0  0  0  0
    4.4887    1.6109   -0.3218 C   0  0  0  0  0  0  0  0  0  0  0  0
    5.3240    2.3053   -1.2850 N   0  0  0  0  0  0  0  0  0  0  0  0
    6.3845    3.1049   -0.9548 C   0  0  0  0  0  0  0  0  0  0  0  0
    6.9007    3.2851    0.6404 S   0  0  0  0  0  0  0  0  0  0  0  0
    7.0011    3.7305   -2.0132 N   0  0  0  0  0  0  0  0  0  0  0  0
    6.8055    3.3977   -3.4254 C   0  0  0  0  0  0  0  0  0  0  0  0
    6.4961    4.6619   -4.2374 C   0  0  0  0  0  0  0  0  0  0  0  0
    7.5201    5.6889   -4.0370 N   0  0  0  0  0  0  0  0  0  0  0  0
    8.8008    5.7182   -5.1451 S   0  0  1  0  0  0  0  0  0  0  0  0
    9.8719    6.4924   -4.5123 O   0  0  0  0  0  0  0  0  0  0  0  0
    9.0493    4.3623   -5.6565 O   0  0  0  0  0  0  0  0  0  0  0  0
    8.1359    6.6741   -6.5083 C   0  0  0  0  0  0  0  0  0  0  0  0
    7.8880    6.0499   -7.7323 C   0  0  0  0  0  0  0  0  0  0  0  0
    7.4027    6.8205   -8.7885 C   0  0  0  0  0  0  0  0  0  0  0  0
    7.1600    8.1924   -8.6397 C   0  0  0  0  0  0  0  0  0  0  0  0
    7.4229    8.8138   -7.3910 C   0  0  0  0  0  0  0  0  0  0  0  0
    7.9214    8.0434   -6.3373 C   0  0  0  0  0  0  0  0  0  0  0  0
    7.1373   10.1208   -7.1293 O   0  0  0  0  0  0  0  0  0  0  0  0
    7.6931   11.1380   -7.9576 C   0  0  0  0  0  0  0  0  0  0  0  0
    7.0077   11.2475   -9.3118 C   0  0  0  0  0  0  0  0  0  0  0  0
    7.2206   10.0293  -10.1983 C   0  0  0  0  0  0  0  0  0  0  0  0
    6.6040    8.8456   -9.6963 O   0  0  0  0  0  0  0  0  0  0  0  0
    7.8076    5.9679   -2.6229 C   0  0  0  0  0  0  0  0  0  0  0  0
    8.0836    4.6936   -1.8210 C   0  0  0  0  0  0  0  0  0  0  0  0
    0.8999    3.5635   -1.9669 H   0  0  0  0  0  0  0  0  0  0  0  0
    1.6224    4.4408   -0.5784 H   0  0  0  0  0  0  0  0  0  0  0  0
    0.6445    2.9662   -0.2967 H   0  0  0  0  0  0  0  0  0  0  0  0
    2.6288    1.8413    0.7647 H   0  0  0  0  0  0  0  0  0  0  0  0
    3.5393    3.3631    0.5150 H   0  0  0  0  0  0  0  0  0  0  0  0
    4.1857    0.6438   -0.7576 H   0  0  0  0  0  0  0  0  0  0  0  0
    5.0855    1.4256    0.5807 H   0  0  0  0  0  0  0  0  0  0  0  0
    4.8421    2.5038   -2.1545 H   0  0  0  0  0  0  0  0  0  0  0  0
    6.0126    2.6529   -3.5588 H   0  0  0  0  0  0  0  0  0  0  0  0
    7.7350    2.9519   -3.8235 H   0  0  0  0  0  0  0  0  0  0  0  0
    5.5260    5.0849   -3.9217 H   0  0  0  0  0  0  0  0  0  0  0  0
    6.4220    4.4160   -5.3060 H   0  0  0  0  0  0  0  0  0  0  0  0
    8.0884    4.9844   -7.8498 H   0  0  0  0  0  0  0  0  0  0  0  0
    7.1875    6.3730   -9.7609 H   0  0  0  0  0  0  0  0  0  0  0  0
    8.1214    8.5364   -5.3850 H   0  0  0  0  0  0  0  0  0  0  0  0
    8.7792   10.9635   -8.0839 H   0  0  0  0  0  0  0  0  0  0  0  0
    7.5666   12.0705   -7.3883 H   0  0  0  0  0  0  0  0  0  0  0  0
    7.4034   12.1354   -9.8365 H   0  0  0  0  0  0  0  0  0  0  0  0
    5.9269   11.4089   -9.1630 H   0  0  0  0  0  0  0  0  0  0  0  0
    8.3016    9.8458  -10.3523 H   0  0  0  0  0  0  0  0  0  0  0  0
    6.7629   10.1899  -11.1853 H   0  0  0  0  0  0  0  0  0  0  0  0
    6.9262    6.4849   -2.2047 H   0  0  0  0  0  0  0  0  0  0  0  0
    8.6664    6.6481   -2.5653 H   0  0  0  0  0  0  0  0  0  0  0  0
    8.1635    4.9101   -0.7483 H   0  0  0  0  0  0  0  0  0  0  0  0
    9.0403    4.2471   -2.1514 H   0  0  0  0  0  0  0  0  0  0  0  0
  1  2  1  0
  1 28  1  0
  1 29  1  0
  1 30  1  0
  2  3  1  0
  3  4  1  0
  3 31  1  0
  3 32  1  0
  4  5  1  0
  4 33  1  0
  4 34  1  0
  5  6  1  0
  5 35  1  0
  6  7  2  0
  6  8  1  0
  8  9  1  0
  8 27  1  0
  9 10  1  0
  9 36  1  0
  9 37  1  0
 10 11  1  0
 10 38  1  0
 10 39  1  0
 11 12  1  0
 11 26  1  0
 12 13  2  0
 12 14  2  0
 12 15  1  6
 15 16  2  0
 15 20  1  0
 16 17  1  0
 16 40  1  0
 17 18  2  0
 17 41  1  0
 18 19  1  0
 18 25  1  0
 19 20  2  0
 19 21  1  0
 20 42  1  0
 21 22  1  0
 22 23  1  0
 22 43  1  0
 22 44  1  0
 23 24  1  0
 23 45  1  0
 23 46  1  0
 24 25  1  0
 24 47  1  0
 24 48  1  0
 26 27  1  0
 26 49  1  0
 26 50  1  0
 27 51  1  0
 27 52  1  0
M  END

