
     RDKit          3D

 35 36  0  0  0  0  0  0  0  0999 V2000
    1.1790   -0.1380    0.4535 C   0  0  0  0  0  0  0  0  0  0  0  0
    2.5697   -0.5053   -0.0784 C   0  0  1  0  0  0  0  0  0  0  0  0
    2.5768   -1.8515   -0.8465 C   0  0  0  0  0  0  0  0  0  0  0  0
    1.9772   -1.7856   -2.1760 N   0  0  0  0  0  0  0  0  0  0  0  0
    2.5534   -0.7082   -2.9773 C   0  0  0  0  0  0  0  0  0  0  0  0
    2.5416    0.6430   -2.2447 C   0  0  0  0  0  0  0  0  0  0  0  0
    3.1330    0.5781   -0.9076 N   0  0  0  0  0  0  0  0  0  0  0  0
    4.5802    0.7167   -0.8349 C   0  0  0  0  0  0  0  0  0  0  0  0
    5.0285    1.5555    0.3831 C   0  0  0  0  0  0  0  0  0  0  0  0
    6.5277    1.7258    0.4603 C   0  0  0  0  0  0  0  0  0  0  0  0
    7.1684    2.8127   -0.1561 C   0  0  0  0  0  0  0  0  0  0  0  0
    8.5560    2.9451   -0.1217 C   0  0  0  0  0  0  0  0  0  0  0  0
    9.3428    1.9893    0.5296 C   0  0  0  0  0  0  0  0  0  0  0  0
   11.0731    2.1811    0.5601 Cl  0  0  0  0  0  0  0  0  0  0  0  0
    8.7180    0.8955    1.1504 C   0  0  0  0  0  0  0  0  0  0  0  0
    9.6504   -0.3192    1.9811 Cl  0  0  0  0  0  0  0  0  0  0  0  0
    7.3252    0.7738    1.1102 C   0  0  0  0  0  0  0  0  0  0  0  0
    0.8246   -0.8943    1.1724 H   0  0  0  0  0  0  0  0  0  0  0  0
    0.4296   -0.0743   -0.3520 H   0  0  0  0  0  0  0  0  0  0  0  0
    1.2079    0.8395    0.9574 H   0  0  0  0  0  0  0  0  0  0  0  0
    3.2306   -0.6169    0.7977 H   0  0  0  0  0  0  0  0  0  0  0  0
    2.0682   -2.6340   -0.2581 H   0  0  0  0  0  0  0  0  0  0  0  0
    3.6237   -2.1842   -0.9694 H   0  0  0  0  0  0  0  0  0  0  0  0
    0.9670   -1.6641   -2.1043 H   0  0  0  0  0  0  0  0  0  0  0  0
    2.0094   -0.6358   -3.9347 H   0  0  0  0  0  0  0  0  0  0  0  0
    3.5952   -0.9858   -3.2254 H   0  0  0  0  0  0  0  0  0  0  0  0
    1.4939    0.9875   -2.1551 H   0  0  0  0  0  0  0  0  0  0  0  0
    3.0689    1.4146   -2.8298 H   0  0  0  0  0  0  0  0  0  0  0  0
    4.9316    1.2233   -1.7482 H   0  0  0  0  0  0  0  0  0  0  0  0
    5.1149   -0.2572   -0.8105 H   0  0  0  0  0  0  0  0  0  0  0  0
    4.6623    1.0764    1.3058 H   0  0  0  0  0  0  0  0  0  0  0  0
    4.5336    2.5372    0.3194 H   0  0  0  0  0  0  0  0  0  0  0  0
    6.5725    3.5743   -0.6663 H   0  0  0  0  0  0  0  0  0  0  0  0
    9.0484    3.7950   -0.5974 H   0  0  0  0  0  0  0  0  0  0  0  0
    6.8667   -0.0837    1.6074 H   0  0  0  0  0  0  0  0  0  0  0  0
  1  2  1  0
  1 18  1  0
  1 19  1  0
  1 20  1  0
  2  3  1  0
  2  7  1  0
  2 21  1  1
  3  4  1  0
  3 22  1  0
  3 23  1  0
  4  5  1  0
  4 24  1  0
  5  6  1  0
  5 25  1  0
  5 26  1  0
  6  7  1  0
  6 27  1  0
  6 28  1  0
  7  8  1  0
  8  9  1  0
  8 29  1  0
  8 30  1  0
  9 10  1  0
  9 31  1  0
  9 32  1  0
 10 11  2  0
 10 17  1  0
 11 12  1  0
 11 33  1  0
 12 13  2  0
 12 34  1  0
 13 14  1  0
 13 15  1  0
 15 16  1  0
 15 17  2  0
 17 35  1  0
M  END

