
     RDKit          3D

 51 53  0  0  0  0  0  0  0  0999 V2000
    4.1800   -0.1964   -5.4330 C   0  0  0  0  0  0  0  0  0  0  0  0
    5.3309   -0.0989   -4.4476 C   0  0  0  0  0  0  0  0  0  0  0  0
    5.0121   -0.7287   -3.1862 O   0  0  0  0  0  0  0  0  0  0  0  0
    5.2663   -2.0347   -3.0628 C   0  0  0  0  0  0  0  0  0  0  0  0
    5.7164   -2.7354   -3.9380 O   0  0  0  0  0  0  0  0  0  0  0  0
    4.9700   -2.5281   -1.6468 C   0  0  2  0  0  0  0  0  0  0  0  0
    4.6233   -1.6813   -1.0478 H   0  0  0  0  0  0  0  0  0  0  0  0
    6.2970   -3.0562   -1.0843 C   0  0  0  0  0  0  0  0  0  0  0  0
    7.2073   -2.4302   -0.6285 O   0  0  0  0  0  0  0  0  0  0  0  0
    6.3044   -4.4066   -1.1932 O   0  0  0  0  0  0  0  0  0  0  0  0
    5.0941   -4.8926   -1.7836 C   0  0  0  0  0  0  0  0  0  0  0  0
    4.0347   -3.7751   -1.6049 C   0  0  2  0  0  0  0  0  0  0  0  0
    2.9675   -3.7869   -2.7034 C   0  0  0  0  0  0  0  0  0  0  0  0
    2.7039   -4.9338   -3.4667 C   0  0  0  0  0  0  0  0  0  0  0  0
    1.7015   -4.9435   -4.4410 C   0  0  0  0  0  0  0  0  0  0  0  0
    0.9213   -3.8079   -4.6939 C   0  0  0  0  0  0  0  0  0  0  0  0
   -0.1466   -3.8028   -5.7597 C   0  0  0  0  0  0  0  0  0  0  0  0
    1.1814   -2.6619   -3.9248 C   0  0  0  0  0  0  0  0  0  0  0  0
    2.1789   -2.6488   -2.9501 C   0  0  0  0  0  0  0  0  0  0  0  0
    3.3119   -3.8593   -0.1755 C   0  0  2  0  0  0  0  0  0  0  0  0
    2.2591   -4.9740   -0.1235 C   0  0  0  0  0  0  0  0  0  0  0  0
    2.6240   -2.6084   -0.0133 O   0  0  0  0  0  0  0  0  0  0  0  0
    3.0740   -1.9345    1.0906 C   0  0  0  0  0  0  0  0  0  0  0  0
    2.6516   -0.8553    1.4056 O   0  0  0  0  0  0  0  0  0  0  0  0
    4.0856   -2.7853    1.7629 C   0  0  0  0  0  0  0  0  0  0  0  0
    4.7238   -2.3299    3.0331 C   0  0  0  0  0  0  0  0  0  0  0  0
    4.2272   -3.9269    1.0559 C   0  0  0  0  0  0  0  0  0  0  0  0
    5.0078   -5.1396    1.4627 C   0  0  0  0  0  0  0  0  0  0  0  0
    4.4364    0.3505   -6.3545 H   0  0  0  0  0  0  0  0  0  0  0  0
    3.2624    0.2453   -5.0149 H   0  0  0  0  0  0  0  0  0  0  0  0
    3.9779   -1.2440   -5.6993 H   0  0  0  0  0  0  0  0  0  0  0  0
    5.5479    0.9457   -4.1834 H   0  0  0  0  0  0  0  0  0  0  0  0
    6.2404   -0.5663   -4.8522 H   0  0  0  0  0  0  0  0  0  0  0  0
    4.8388   -5.8411   -1.2923 H   0  0  0  0  0  0  0  0  0  0  0  0
    5.2834   -5.0735   -2.8496 H   0  0  0  0  0  0  0  0  0  0  0  0
    3.2765   -5.8504   -3.3111 H   0  0  0  0  0  0  0  0  0  0  0  0
    1.5267   -5.8573   -5.0161 H   0  0  0  0  0  0  0  0  0  0  0  0
   -0.3792   -4.8209   -6.1058 H   0  0  0  0  0  0  0  0  0  0  0  0
    0.1731   -3.2186   -6.6399 H   0  0  0  0  0  0  0  0  0  0  0  0
   -1.0794   -3.3455   -5.3927 H   0  0  0  0  0  0  0  0  0  0  0  0
    0.5867   -1.7581   -4.0873 H   0  0  0  0  0  0  0  0  0  0  0  0
    2.3339   -1.7438   -2.3628 H   0  0  0  0  0  0  0  0  0  0  0  0
    1.8229   -5.0169    0.8854 H   0  0  0  0  0  0  0  0  0  0  0  0
    2.6961   -5.9571   -0.3525 H   0  0  0  0  0  0  0  0  0  0  0  0
    1.4553   -4.7762   -0.8428 H   0  0  0  0  0  0  0  0  0  0  0  0
    3.9695   -1.8987    3.7094 H   0  0  0  0  0  0  0  0  0  0  0  0
    5.4552   -1.5304    2.8258 H   0  0  0  0  0  0  0  0  0  0  0  0
    5.2516   -3.1422    3.5516 H   0  0  0  0  0  0  0  0  0  0  0  0
    5.3089   -5.0698    2.5171 H   0  0  0  0  0  0  0  0  0  0  0  0
    5.9217   -5.2665    0.8637 H   0  0  0  0  0  0  0  0  0  0  0  0
    4.4047   -6.0544    1.3460 H   0  0  0  0  0  0  0  0  0  0  0  0
  1  2  1  0
  1 29  1  0
  1 30  1  0
  1 31  1  0
  2  3  1  0
  2 32  1  0
  2 33  1  0
  3  4  1  0
  4  5  2  0
  4  6  1  0
  6  7  1  1
  6  8  1  0
  6 12  1  0
  8  9  2  0
  8 10  1  0
 10 11  1  0
 11 12  1  0
 11 34  1  0
 11 35  1  0
 12 13  1  6
 12 20  1  0
 13 14  2  0
 13 19  1  0
 14 15  1  0
 14 36  1  0
 15 16  2  0
 15 37  1  0
 16 17  1  0
 16 18  1  0
 17 38  1  0
 17 39  1  0
 17 40  1  0
 18 19  2  0
 18 41  1  0
 19 42  1  0
 20 21  1  6
 20 22  1  0
 20 27  1  0
 21 43  1  0
 21 44  1  0
 21 45  1  0
 22 23  1  0
 23 24  2  0
 23 25  1  0
 25 26  1  0
 25 27  2  0
 26 46  1  0
 26 47  1  0
 26 48  1  0
 27 28  1  0
 28 49  1  0
 28 50  1  0
 28 51  1  0
M  END

