
     RDKit          3D

 50 54  0  0  0  0  0  0  0  0999 V2000
    2.0296   -2.8961   -3.6710 O   0  0  0  0  0  0  0  0  0  0  0  0
    1.7124   -2.0063   -2.9101 C   0  0  0  0  0  0  0  0  0  0  0  0
    2.5805   -1.1647   -2.2806 N   0  0  0  0  0  0  0  0  0  0  0  0
    4.0213   -1.2858   -2.4139 C   0  0  0  0  0  0  0  0  0  0  0  0
    4.6489   -2.0898   -1.2675 C   0  0  0  0  0  0  0  0  0  0  0  0
    6.1375   -2.2312   -1.3916 C   0  0  0  0  0  0  0  0  0  0  0  0
    6.9440   -1.7596   -2.4001 C   0  0  0  0  0  0  0  0  0  0  0  0
    8.3032   -2.1151   -2.1069 C   0  0  0  0  0  0  0  0  0  0  0  0
    9.5586   -1.9147   -2.7266 C   0  0  0  0  0  0  0  0  0  0  0  0
    9.6958   -1.2159   -4.0093 C   0  0  0  0  0  0  0  0  0  0  0  0
    8.8406   -1.2713   -5.1361 C   0  0  0  0  0  0  0  0  0  0  0  0
    9.2648   -0.5325   -6.1629 N   0  0  0  0  0  0  0  0  0  0  0  0
   10.3926    0.0295   -5.7332 N   0  0  0  0  0  0  0  0  0  0  0  0
   11.0878    0.8566   -6.5113 N   0  0  0  0  0  0  0  0  0  0  0  0
   12.1700    1.3668   -5.9767 C   0  0  0  0  0  0  0  0  0  0  0  0
   12.6160    1.0994   -4.6484 C   0  0  0  0  0  0  0  0  0  0  0  0
   11.8848    0.2397   -3.8645 C   0  0  0  0  0  0  0  0  0  0  0  0
   10.7219   -0.3443   -4.4203 C   0  0  0  0  0  0  0  0  0  0  0  0
   10.6678   -2.4390   -2.0384 C   0  0  0  0  0  0  0  0  0  0  0  0
   10.5060   -3.1197   -0.8224 C   0  0  0  0  0  0  0  0  0  0  0  0
    9.3265   -3.3187   -0.2289 N   0  0  0  0  0  0  0  0  0  0  0  0
    8.2847   -2.8147   -0.8716 C   0  0  0  0  0  0  0  0  0  0  0  0
    6.9534   -2.8909   -0.4434 N   0  0  0  0  0  0  0  0  0  0  0  0
    6.4929   -3.5966    1.0876 S   0  0  1  0  0  0  0  0  0  0  0  0
    7.3401   -3.0027    2.1088 O   0  0  0  0  0  0  0  0  0  0  0  0
    5.0377   -3.4749    1.1409 O   0  0  0  0  0  0  0  0  0  0  0  0
    6.9072   -5.3267    0.8979 C   0  0  0  0  0  0  0  0  0  0  0  0
    8.1316   -5.7916    1.3852 C   0  0  0  0  0  0  0  0  0  0  0  0
    8.4178   -7.1543    1.2735 C   0  0  0  0  0  0  0  0  0  0  0  0
    7.4930   -8.0232    0.6850 C   0  0  0  0  0  0  0  0  0  0  0  0
    6.2688   -7.5395    0.2093 C   0  0  0  0  0  0  0  0  0  0  0  0
    5.9634   -6.1817    0.3187 C   0  0  0  0  0  0  0  0  0  0  0  0
    0.6481   -1.7769   -2.6544 H   0  0  0  0  0  0  0  0  0  0  0  0
    2.2007   -0.4999   -1.6158 H   0  0  0  0  0  0  0  0  0  0  0  0
    4.4622   -0.2769   -2.4651 H   0  0  0  0  0  0  0  0  0  0  0  0
    4.2086   -1.7847   -3.3753 H   0  0  0  0  0  0  0  0  0  0  0  0
    4.1772   -3.0848   -1.2343 H   0  0  0  0  0  0  0  0  0  0  0  0
    4.3975   -1.6254   -0.3010 H   0  0  0  0  0  0  0  0  0  0  0  0
    6.5948   -1.1991   -3.2622 H   0  0  0  0  0  0  0  0  0  0  0  0
    7.9311   -1.8609   -5.2459 H   0  0  0  0  0  0  0  0  0  0  0  0
   12.7314    2.0417   -6.6293 H   0  0  0  0  0  0  0  0  0  0  0  0
   13.5205    1.5816   -4.2743 H   0  0  0  0  0  0  0  0  0  0  0  0
   12.1697    0.0063   -2.8376 H   0  0  0  0  0  0  0  0  0  0  0  0
   11.6679   -2.3587   -2.4680 H   0  0  0  0  0  0  0  0  0  0  0  0
   11.3833   -3.5335   -0.3132 H   0  0  0  0  0  0  0  0  0  0  0  0
    8.8366   -5.0890    1.8285 H   0  0  0  0  0  0  0  0  0  0  0  0
    9.3691   -7.5386    1.6492 H   0  0  0  0  0  0  0  0  0  0  0  0
    7.7253   -9.0878    0.6003 H   0  0  0  0  0  0  0  0  0  0  0  0
    5.5448   -8.2226   -0.2409 H   0  0  0  0  0  0  0  0  0  0  0  0
    5.0041   -5.7903   -0.0236 H   0  0  0  0  0  0  0  0  0  0  0  0
  1  2  2  0
  2  3  1  0
  2 33  1  0
  3  4  1  0
  3 34  1  0
  4  5  1  0
  4 35  1  0
  4 36  1  0
  5  6  1  0
  5 37  1  0
  5 38  1  0
  6  7  2  0
  6 23  1  0
  7  8  1  0
  7 39  1  0
  8  9  2  0
  8 22  1  0
  9 10  1  0
  9 19  1  0
 10 11  1  0
 10 18  2  0
 11 12  2  0
 11 40  1  0
 12 13  1  0
 13 14  1  0
 13 18  1  0
 14 15  2  0
 15 16  1  0
 15 41  1  0
 16 17  2  0
 16 42  1  0
 17 18  1  0
 17 43  1  0
 19 20  2  0
 19 44  1  0
 20 21  1  0
 20 45  1  0
 21 22  2  0
 22 23  1  0
 23 24  1  0
 24 25  2  0
 24 26  2  0
 24 27  1  6
 27 28  2  0
 27 32  1  0
 28 29  1  0
 28 46  1  0
 29 30  2  0
 29 47  1  0
 30 31  1  0
 30 48  1  0
 31 32  2  0
 31 49  1  0
 32 50  1  0
M  END

