
     RDKit          3D

 42 42  0  0  0  0  0  0  0  0999 V2000
    4.7254    1.6712   -2.3123 C   0  0  0  0  0  0  0  0  0  0  0  0
    4.3245    0.8341   -1.0959 C   0  0  0  0  0  0  0  0  0  0  0  0
    4.6934   -0.6472   -1.2392 C   0  0  0  0  0  0  0  0  0  0  0  0
    4.3956   -1.5285   -0.0142 C   0  0  1  0  0  0  0  0  0  0  0  0
    2.8825   -1.6791    0.2354 C   0  0  0  0  0  0  0  0  0  0  0  0
    2.5801   -2.3747    1.4852 N   0  0  0  0  0  0  0  0  0  0  0  0
    5.0458   -2.9195   -0.1436 C   0  0  0  0  0  0  0  0  0  0  0  0
    6.4971   -2.9311   -0.3451 N   0  0  0  0  0  0  0  0  0  0  0  0
    7.2453   -2.5397    0.8508 C   0  0  0  0  0  0  0  0  0  0  0  0
    8.6561   -2.0319    0.5579 C   0  0  0  0  0  0  0  0  0  0  0  0
    6.9411   -4.2131   -0.8810 C   0  0  0  0  0  0  0  0  0  0  0  0
    6.5998   -4.4400   -2.3432 C   0  0  0  0  0  0  0  0  0  0  0  0
    6.7189   -3.4095   -3.2906 C   0  0  0  0  0  0  0  0  0  0  0  0
    6.4450   -3.6885   -4.6287 C   0  0  0  0  0  0  0  0  0  0  0  0
    6.0616   -4.9852   -4.9829 C   0  0  0  0  0  0  0  0  0  0  0  0
    5.9708   -5.9415   -3.9686 C   0  0  0  0  0  0  0  0  0  0  0  0
    6.2284   -5.6806   -2.6843 N   0  0  0  0  0  0  0  0  0  0  0  0
    4.4558    2.7318   -2.1830 H   0  0  0  0  0  0  0  0  0  0  0  0
    4.2270    1.3111   -3.2282 H   0  0  0  0  0  0  0  0  0  0  0  0
    5.8129    1.6231   -2.4910 H   0  0  0  0  0  0  0  0  0  0  0  0
    3.2395    0.9469   -0.9260 H   0  0  0  0  0  0  0  0  0  0  0  0
    4.8128    1.2420   -0.1919 H   0  0  0  0  0  0  0  0  0  0  0  0
    5.7714   -0.7249   -1.4549 H   0  0  0  0  0  0  0  0  0  0  0  0
    4.1806   -1.0710   -2.1241 H   0  0  0  0  0  0  0  0  0  0  0  0
    4.8018   -1.0314    0.8848 H   0  0  0  0  0  0  0  0  0  0  0  0
    2.4247   -2.1488   -0.6648 H   0  0  0  0  0  0  0  0  0  0  0  0
    2.4421   -0.6724    0.3067 H   0  0  0  0  0  0  0  0  0  0  0  0
    2.6773   -3.3836    1.3742 H   0  0  0  0  0  0  0  0  0  0  0  0
    1.6081   -2.2180    1.7490 H   0  0  0  0  0  0  0  0  0  0  0  0
    4.5881   -3.4268   -1.0101 H   0  0  0  0  0  0  0  0  0  0  0  0
    4.7807   -3.5251    0.7509 H   0  0  0  0  0  0  0  0  0  0  0  0
    7.2895   -3.3763    1.5858 H   0  0  0  0  0  0  0  0  0  0  0  0
    6.6873   -1.7346    1.3503 H   0  0  0  0  0  0  0  0  0  0  0  0
    9.2922   -2.7996    0.0893 H   0  0  0  0  0  0  0  0  0  0  0  0
    9.1527   -1.7256    1.4926 H   0  0  0  0  0  0  0  0  0  0  0  0
    8.6248   -1.1632   -0.1184 H   0  0  0  0  0  0  0  0  0  0  0  0
    6.5412   -5.0785   -0.3108 H   0  0  0  0  0  0  0  0  0  0  0  0
    8.0386   -4.2684   -0.7883 H   0  0  0  0  0  0  0  0  0  0  0  0
    7.0160   -2.4123   -2.9629 H   0  0  0  0  0  0  0  0  0  0  0  0
    6.5302   -2.9054   -5.3872 H   0  0  0  0  0  0  0  0  0  0  0  0
    5.8354   -5.2508   -6.0182 H   0  0  0  0  0  0  0  0  0  0  0  0
    5.6698   -6.9695   -4.2054 H   0  0  0  0  0  0  0  0  0  0  0  0
  1  2  1  0
  1 18  1  0
  1 19  1  0
  1 20  1  0
  2  3  1  0
  2 21  1  0
  2 22  1  0
  3  4  1  0
  3 23  1  0
  3 24  1  0
  4  5  1  0
  4  7  1  0
  4 25  1  1
  5  6  1  0
  5 26  1  0
  5 27  1  0
  6 28  1  0
  6 29  1  0
  7  8  1  0
  7 30  1  0
  7 31  1  0
  8  9  1  0
  8 11  1  0
  9 10  1  0
  9 32  1  0
  9 33  1  0
 10 34  1  0
 10 35  1  0
 10 36  1  0
 11 12  1  0
 11 37  1  0
 11 38  1  0
 12 13  2  0
 12 17  1  0
 13 14  1  0
 13 39  1  0
 14 15  2  0
 14 40  1  0
 15 16  1  0
 15 41  1  0
 16 17  2  0
 16 42  1  0
M  END

