
     RDKit          3D

 34 35  0  0  0  0  0  0  0  0999 V2000
    5.4292   -3.6064   -2.6091 C   0  0  0  0  0  0  0  0  0  0  0  0
    5.1933   -2.2903   -2.1915 O   0  0  0  0  0  0  0  0  0  0  0  0
    6.0565   -1.3453   -2.7735 C   0  0  0  0  0  0  0  0  0  0  0  0
    5.7008    0.0367   -2.2456 C   0  0  0  0  0  0  0  0  0  0  0  0
    6.5904    1.1262   -2.8194 C   0  0  0  0  0  0  0  0  0  0  0  0
    6.1750    2.3712   -2.2665 O   0  0  0  0  0  0  0  0  0  0  0  0
    6.8486    3.4649   -2.6607 C   0  0  0  0  0  0  0  0  0  0  0  0
    7.8635    3.4393   -3.4985 N   0  0  0  0  0  0  0  0  0  0  0  0
    8.2956    4.7260   -3.6249 N   0  0  0  0  0  0  0  0  0  0  0  0
    9.3026    5.0509   -4.6012 C   0  0  0  0  0  0  0  0  0  0  0  0
    7.5204    5.5850   -2.8837 C   0  0  0  0  0  0  0  0  0  0  0  0
    7.5481    6.9804   -2.7057 C   0  0  0  0  0  0  0  0  0  0  0  0
    6.6107    7.5411   -1.8502 C   0  0  0  0  0  0  0  0  0  0  0  0
    5.6399    6.7609   -1.1543 C   0  0  0  0  0  0  0  0  0  0  0  0
    4.6939    7.4064   -0.3507 N   0  0  0  0  0  0  0  0  0  0  0  0
    5.6182    5.3764   -1.3397 C   0  0  0  0  0  0  0  0  0  0  0  0
    6.5555    4.7954   -2.2118 C   0  0  0  0  0  0  0  0  0  0  0  0
    4.7054   -4.2582   -2.0977 H   0  0  0  0  0  0  0  0  0  0  0  0
    6.4532   -3.9492   -2.3526 H   0  0  0  0  0  0  0  0  0  0  0  0
    5.2983   -3.7272   -3.7046 H   0  0  0  0  0  0  0  0  0  0  0  0
    5.9694   -1.3701   -3.8821 H   0  0  0  0  0  0  0  0  0  0  0  0
    7.1157   -1.5888   -2.5371 H   0  0  0  0  0  0  0  0  0  0  0  0
    5.7828    0.0338   -1.1464 H   0  0  0  0  0  0  0  0  0  0  0  0
    4.6478    0.2547   -2.4873 H   0  0  0  0  0  0  0  0  0  0  0  0
    6.5215    1.1713   -3.9215 H   0  0  0  0  0  0  0  0  0  0  0  0
    7.6551    0.9532   -2.5784 H   0  0  0  0  0  0  0  0  0  0  0  0
    9.9774    4.1905   -4.7045 H   0  0  0  0  0  0  0  0  0  0  0  0
    9.8877    5.9189   -4.2614 H   0  0  0  0  0  0  0  0  0  0  0  0
    8.8711    5.2822   -5.5929 H   0  0  0  0  0  0  0  0  0  0  0  0
    8.2735    7.6134   -3.2209 H   0  0  0  0  0  0  0  0  0  0  0  0
    6.6055    8.6256   -1.7059 H   0  0  0  0  0  0  0  0  0  0  0  0
    5.0063    8.2755    0.0696 H   0  0  0  0  0  0  0  0  0  0  0  0
    4.2333    6.8115    0.3299 H   0  0  0  0  0  0  0  0  0  0  0  0
    4.8845    4.7528   -0.8229 H   0  0  0  0  0  0  0  0  0  0  0  0
  1  2  1  0
  1 18  1  0
  1 19  1  0
  1 20  1  0
  2  3  1  0
  3  4  1  0
  3 21  1  0
  3 22  1  0
  4  5  1  0
  4 23  1  0
  4 24  1  0
  5  6  1  0
  5 25  1  0
  5 26  1  0
  6  7  1  0
  7  8  2  0
  7 17  1  0
  8  9  1  0
  9 10  1  0
  9 11  1  0
 10 27  1  0
 10 28  1  0
 10 29  1  0
 11 12  1  0
 11 17  2  0
 12 13  2  0
 12 30  1  0
 13 14  1  0
 13 31  1  0
 14 15  1  0
 14 16  2  0
 15 32  1  0
 15 33  1  0
 16 17  1  0
 16 34  1  0
M  END

