
     RDKit          3D

 30 32  0  0  0  0  0  0  0  0999 V2000
    1.3975   -0.1269    1.1524 C   0  0  0  0  0  0  0  0  0  0  0  0
    2.6437   -0.0238    0.3996 N   0  0  0  0  0  0  0  0  0  0  0  0
    3.2677    1.1511    0.4379 N   0  0  0  0  0  0  0  0  0  0  0  0
    4.3974    1.3083   -0.2135 C   0  0  0  0  0  0  0  0  0  0  0  0
    5.1032    2.6179   -0.1190 C   0  0  0  0  0  0  0  0  0  0  0  0
    6.4778    2.5991    0.0801 C   0  0  0  0  0  0  0  0  0  0  0  0
    7.2336    3.7879    0.1932 C   0  0  0  0  0  0  0  0  0  0  0  0
    6.6091    5.0109    0.0995 C   0  0  0  0  0  0  0  0  0  0  0  0
    5.2065    5.0924   -0.1204 C   0  0  0  0  0  0  0  0  0  0  0  0
    4.5599    6.3553   -0.2400 C   0  0  0  0  0  0  0  0  0  0  0  0
    3.2058    6.4418   -0.4773 C   0  0  0  0  0  0  0  0  0  0  0  0
    2.4396    5.2585   -0.6099 C   0  0  0  0  0  0  0  0  0  0  0  0
    3.0324    4.0184   -0.4904 C   0  0  0  0  0  0  0  0  0  0  0  0
    4.4286    3.8867   -0.2360 C   0  0  0  0  0  0  0  0  0  0  0  0
    4.9604    0.2198   -0.9710 C   0  0  0  0  0  0  0  0  0  0  0  0
    4.3226   -0.9807   -1.0062 C   0  0  0  0  0  0  0  0  0  0  0  0
    3.0754   -1.1820   -0.2856 C   0  0  0  0  0  0  0  0  0  0  0  0
    2.4158   -2.2089   -0.2399 O   0  0  0  0  0  0  0  0  0  0  0  0
    1.2244    0.8375    1.6414 H   0  0  0  0  0  0  0  0  0  0  0  0
    1.4730   -0.9337    1.8962 H   0  0  0  0  0  0  0  0  0  0  0  0
    0.5664   -0.3776    0.4763 H   0  0  0  0  0  0  0  0  0  0  0  0
    6.9909    1.6397    0.1824 H   0  0  0  0  0  0  0  0  0  0  0  0
    8.3111    3.7265    0.3638 H   0  0  0  0  0  0  0  0  0  0  0  0
    7.1824    5.9375    0.1895 H   0  0  0  0  0  0  0  0  0  0  0  0
    5.1648    7.2612   -0.1444 H   0  0  0  0  0  0  0  0  0  0  0  0
    2.7228    7.4179   -0.5688 H   0  0  0  0  0  0  0  0  0  0  0  0
    1.3670    5.3281   -0.8088 H   0  0  0  0  0  0  0  0  0  0  0  0
    2.4244    3.1206   -0.5815 H   0  0  0  0  0  0  0  0  0  0  0  0
    5.8861    0.3787   -1.5281 H   0  0  0  0  0  0  0  0  0  0  0  0
    4.6998   -1.8332   -1.5741 H   0  0  0  0  0  0  0  0  0  0  0  0
  1  2  1  0
  1 19  1  0
  1 20  1  0
  1 21  1  0
  2  3  1  0
  2 17  1  0
  3  4  2  0
  4  5  1  0
  4 15  1  0
  5  6  2  0
  5 14  1  0
  6  7  1  0
  6 22  1  0
  7  8  2  0
  7 23  1  0
  8  9  1  0
  8 24  1  0
  9 10  1  0
  9 14  2  0
 10 11  2  0
 10 25  1  0
 11 12  1  0
 11 26  1  0
 12 13  2  0
 12 27  1  0
 13 14  1  0
 13 28  1  0
 15 16  2  0
 15 29  1  0
 16 17  1  0
 16 30  1  0
 17 18  2  0
M  END

