
     RDKit          3D

 44 46  0  0  0  0  0  0  0  0999 V2000
    3.6109    0.2880   -0.6623 C   0  0  0  0  0  0  0  0  0  0  0  0
    3.3243   -1.1336   -0.2137 C   0  0  0  0  0  0  0  0  0  0  0  0
    2.7607   -1.9184   -0.9530 O   0  0  0  0  0  0  0  0  0  0  0  0
    3.7504   -1.5533    1.1651 C   0  0  0  0  0  0  0  0  0  0  0  0
    3.4529   -2.8849    1.5636 C   0  0  0  0  0  0  0  0  0  0  0  0
    3.7884   -3.3624    2.8193 C   0  0  0  0  0  0  0  0  0  0  0  0
    4.4466   -2.4795    3.6915 C   0  0  0  0  0  0  0  0  0  0  0  0
    4.8729   -2.6585    4.9895 N   0  0  0  0  0  0  0  0  0  0  0  0
    4.8132   -3.5209    5.5175 H   0  0  0  0  0  0  0  0  0  0  0  0
    5.4900   -1.5146    5.4495 C   0  0  0  0  0  0  0  0  0  0  0  0
    6.0926   -1.4946    6.8289 C   0  0  0  0  0  0  0  0  0  0  0  0
    5.2191   -1.8728    7.8126 N   0  0  0  0  0  0  0  0  0  0  0  0
    7.2694   -1.2709    7.0298 O   0  0  0  0  0  0  0  0  0  0  0  0
    5.4504   -0.5625    4.4468 C   0  0  0  0  0  0  0  0  0  0  0  0
    5.9710    1.1326    4.6049 S   0  0  1  0  0  0  0  0  0  0  0  0
    5.1433    1.9097    3.6656 O   0  0  0  0  0  0  0  0  0  0  0  0
    5.9729    1.4447    6.0403 O   0  0  0  0  0  0  0  0  0  0  0  0
    7.6691    1.1993    3.9999 C   0  0  0  0  0  0  0  0  0  0  0  0
    7.9211    1.8932    2.8139 C   0  0  0  0  0  0  0  0  0  0  0  0
    9.2372    1.9963    2.3454 C   0  0  0  0  0  0  0  0  0  0  0  0
    9.5569    2.7366    1.0688 C   0  0  0  0  0  0  0  0  0  0  0  0
   10.2602    1.3935    3.0958 C   0  0  0  0  0  0  0  0  0  0  0  0
   10.0116    0.7051    4.2921 C   0  0  0  0  0  0  0  0  0  0  0  0
   11.1381    0.0981    5.0933 C   0  0  0  0  0  0  0  0  0  0  0  0
    8.6881    0.6133    4.7507 C   0  0  0  0  0  0  0  0  0  0  0  0
    4.7778   -1.1495    3.3130 C   0  0  0  0  0  0  0  0  0  0  0  0
    4.4073   -0.6841    2.0390 C   0  0  0  0  0  0  0  0  0  0  0  0
    3.2288    0.4180   -1.6826 H   0  0  0  0  0  0  0  0  0  0  0  0
    4.6926    0.4968   -0.6472 H   0  0  0  0  0  0  0  0  0  0  0  0
    3.1303    1.0199    0.0065 H   0  0  0  0  0  0  0  0  0  0  0  0
    2.9388   -3.5204    0.8404 H   0  0  0  0  0  0  0  0  0  0  0  0
    3.5464   -4.3843    3.1208 H   0  0  0  0  0  0  0  0  0  0  0  0
    4.2229   -1.7388    7.6791 H   0  0  0  0  0  0  0  0  0  0  0  0
    5.5656   -1.8060    8.7653 H   0  0  0  0  0  0  0  0  0  0  0  0
    7.0912    2.3539    2.2753 H   0  0  0  0  0  0  0  0  0  0  0  0
    8.6500    3.1471    0.6016 H   0  0  0  0  0  0  0  0  0  0  0  0
   10.0457    2.0746    0.3346 H   0  0  0  0  0  0  0  0  0  0  0  0
   10.2483    3.5750    1.2559 H   0  0  0  0  0  0  0  0  0  0  0  0
   11.2910    1.4649    2.7334 H   0  0  0  0  0  0  0  0  0  0  0  0
   12.0303   -0.0748    4.4730 H   0  0  0  0  0  0  0  0  0  0  0  0
   10.8380   -0.8600    5.5444 H   0  0  0  0  0  0  0  0  0  0  0  0
   11.4348    0.7648    5.9215 H   0  0  0  0  0  0  0  0  0  0  0  0
    8.4529    0.0764    5.6729 H   0  0  0  0  0  0  0  0  0  0  0  0
    4.6287    0.3480    1.7709 H   0  0  0  0  0  0  0  0  0  0  0  0
  1  2  1  0
  1 28  1  0
  1 29  1  0
  1 30  1  0
  2  3  2  0
  2  4  1  0
  4  5  2  0
  4 27  1  0
  5  6  1  0
  5 31  1  0
  6  7  2  0
  6 32  1  0
  7  8  1  0
  7 26  1  0
  8  9  1  0
  8 10  1  0
 10 11  1  0
 10 14  2  0
 11 12  1  0
 11 13  2  0
 12 33  1  0
 12 34  1  0
 15 14  1  1
 14 26  1  0
 15 16  2  0
 15 17  2  0
 15 18  1  0
 18 19  2  0
 18 25  1  0
 19 20  1  0
 19 35  1  0
 20 21  1  0
 20 22  2  0
 21 36  1  0
 21 37  1  0
 21 38  1  0
 22 23  1  0
 22 39  1  0
 23 24  1  0
 23 25  2  0
 24 40  1  0
 24 41  1  0
 24 42  1  0
 25 43  1  0
 26 27  2  0
 27 44  1  0
M  END

