
     RDKit          3D

 39 40  0  0  0  0  0  0  0  0999 V2000
    0.8116   -3.6132   -3.0397 C   0  0  0  0  0  0  0  0  0  0  0  0
    2.2525   -3.5792   -2.8715 N   0  0  0  0  0  0  0  0  0  0  0  0
    3.0033   -3.1214   -4.0392 C   0  0  0  0  0  0  0  0  0  0  0  0
    3.0376   -1.5866   -4.1730 C   0  0  0  0  0  0  0  0  0  0  0  0
    3.5043   -0.9328   -2.9508 N   0  0  0  0  0  0  0  0  0  0  0  0
    4.9434   -0.8184   -2.7965 C   0  0  0  0  0  0  0  0  0  0  0  0
    5.5654    0.1699   -3.7724 C   0  0  0  0  0  0  0  0  0  0  0  0
    6.6064   -0.2601   -4.6058 C   0  0  0  0  0  0  0  0  0  0  0  0
    7.2525    0.5812   -5.5114 C   0  0  0  0  0  0  0  0  0  0  0  0
    6.8443    1.9175   -5.6282 C   0  0  0  0  0  0  0  0  0  0  0  0
    7.4350    2.8247   -6.5214 N   0  0  0  0  0  0  0  0  0  0  0  0
    8.1870    2.5555   -7.6397 C   0  0  0  0  0  0  0  0  0  0  0  0
    8.6563    3.4125   -8.3521 O   0  0  0  0  0  0  0  0  0  0  0  0
    5.8065    2.3703   -4.7982 C   0  0  0  0  0  0  0  0  0  0  0  0
    5.1770    1.5252   -3.8809 C   0  0  0  0  0  0  0  0  0  0  0  0
    4.0543    2.1350   -3.0568 C   0  0  1  0  0  0  0  0  0  0  0  0
    4.0503    1.7039   -1.7830 F   0  0  0  0  0  0  0  0  0  0  0  0
    4.1757    3.4797   -2.9989 F   0  0  0  0  0  0  0  0  0  0  0  0
    2.8435    1.8899   -3.5798 F   0  0  0  0  0  0  0  0  0  0  0  0
    2.7541   -1.3838   -1.7810 C   0  0  0  0  0  0  0  0  0  0  0  0
    2.7208   -2.9184   -1.6543 C   0  0  0  0  0  0  0  0  0  0  0  0
    0.5574   -4.2338   -3.9148 H   0  0  0  0  0  0  0  0  0  0  0  0
    0.3168   -2.6269   -3.1826 H   0  0  0  0  0  0  0  0  0  0  0  0
    0.3486   -4.0839   -2.1568 H   0  0  0  0  0  0  0  0  0  0  0  0
    2.5753   -3.5788   -4.9471 H   0  0  0  0  0  0  0  0  0  0  0  0
    4.0387   -3.5022   -3.9518 H   0  0  0  0  0  0  0  0  0  0  0  0
    2.0237   -1.2088   -4.3987 H   0  0  0  0  0  0  0  0  0  0  0  0
    3.6778   -1.2831   -5.0172 H   0  0  0  0  0  0  0  0  0  0  0  0
    5.4933   -1.7786   -2.9040 H   0  0  0  0  0  0  0  0  0  0  0  0
    5.1371   -0.4728   -1.7691 H   0  0  0  0  0  0  0  0  0  0  0  0
    6.9362   -1.2999   -4.5324 H   0  0  0  0  0  0  0  0  0  0  0  0
    8.0781    0.1901   -6.1069 H   0  0  0  0  0  0  0  0  0  0  0  0
    7.2455    3.8139   -6.3783 H   0  0  0  0  0  0  0  0  0  0  0  0
    8.3131    1.4664   -7.8349 H   0  0  0  0  0  0  0  0  0  0  0  0
    5.4874    3.4114   -4.8671 H   0  0  0  0  0  0  0  0  0  0  0  0
    1.7213   -0.9988   -1.8707 H   0  0  0  0  0  0  0  0  0  0  0  0
    3.1828   -0.9233   -0.8763 H   0  0  0  0  0  0  0  0  0  0  0  0
    2.0821   -3.2239   -0.8084 H   0  0  0  0  0  0  0  0  0  0  0  0
    3.7406   -3.2865   -1.4319 H   0  0  0  0  0  0  0  0  0  0  0  0
  1  2  1  0
  1 22  1  0
  1 23  1  0
  1 24  1  0
  2  3  1  0
  2 21  1  0
  3  4  1  0
  3 25  1  0
  3 26  1  0
  4  5  1  0
  4 27  1  0
  4 28  1  0
  5  6  1  0
  5 20  1  0
  6  7  1  0
  6 29  1  0
  6 30  1  0
  7  8  2  0
  7 15  1  0
  8  9  1  0
  8 31  1  0
  9 10  2  0
  9 32  1  0
 10 11  1  0
 10 14  1  0
 11 12  1  0
 11 33  1  0
 12 13  2  0
 12 34  1  0
 14 15  2  0
 14 35  1  0
 15 16  1  0
 16 17  1  1
 16 18  1  0
 16 19  1  0
 20 21  1  0
 20 36  1  0
 20 37  1  0
 21 38  1  0
 21 39  1  0
M  END

