
     RDKit          3D

 45 48  0  0  0  0  0  0  0  0999 V2000
    1.0673    0.3723   -0.5470 F   0  0  0  0  0  0  0  0  0  0  0  0
    2.2672    0.2324    0.0158 C   0  0  0  0  0  0  0  0  0  0  0  0
    2.7517    1.2293    0.8319 C   0  0  0  0  0  0  0  0  0  0  0  0
    4.0290    1.0851    1.4181 C   0  0  0  0  0  0  0  0  0  0  0  0
    4.7828   -0.0492    1.1869 C   0  0  0  0  0  0  0  0  0  0  0  0
    4.2896   -1.0953    0.3619 C   0  0  0  0  0  0  0  0  0  0  0  0
    5.0217   -2.3145    0.0969 C   0  0  0  0  0  0  0  0  0  0  0  0
    6.2455   -2.5216    0.6758 N   0  0  0  0  0  0  0  0  0  0  0  0
    7.0086   -3.7448    0.5348 C   0  0  0  0  0  0  0  0  0  0  0  0
    8.3668   -3.6224    1.2397 C   0  0  0  0  0  0  0  0  0  0  0  0
    9.2135   -4.8674    1.1005 C   0  0  0  0  0  0  0  0  0  0  0  0
   10.0996   -5.0233    0.0237 C   0  0  0  0  0  0  0  0  0  0  0  0
   10.8549   -6.1864   -0.1278 C   0  0  0  0  0  0  0  0  0  0  0  0
   10.7546   -7.2455    0.7934 C   0  0  0  0  0  0  0  0  0  0  0  0
   11.5609   -8.4854    0.6350 C   0  0  0  0  0  0  0  0  0  0  0  0
   12.8825   -8.4352    0.1519 C   0  0  0  0  0  0  0  0  0  0  0  0
   13.6391   -9.5993    0.0027 C   0  0  0  0  0  0  0  0  0  0  0  0
   13.0921  -10.8427    0.3332 C   0  0  0  0  0  0  0  0  0  0  0  0
   11.7811  -10.9100    0.8144 C   0  0  0  0  0  0  0  0  0  0  0  0
   11.0252   -9.7455    0.9634 C   0  0  0  0  0  0  0  0  0  0  0  0
    9.8659   -7.0858    1.8728 C   0  0  0  0  0  0  0  0  0  0  0  0
    9.1122   -5.9212    2.0216 C   0  0  0  0  0  0  0  0  0  0  0  0
    4.4347   -3.2358   -0.7714 C   0  0  0  0  0  0  0  0  0  0  0  0
    3.1690   -2.9596   -1.3312 C   0  0  0  0  0  0  0  0  0  0  0  0
    2.4576   -1.8788   -1.0949 N   0  0  0  0  0  0  0  0  0  0  0  0
    3.0058   -0.9579   -0.2611 C   0  0  0  0  0  0  0  0  0  0  0  0
    2.1408    2.1177    1.0033 H   0  0  0  0  0  0  0  0  0  0  0  0
    4.4214    1.8840    2.0515 H   0  0  0  0  0  0  0  0  0  0  0  0
    5.7781   -0.1166    1.6319 H   0  0  0  0  0  0  0  0  0  0  0  0
    6.4690   -1.9503    1.4803 H   0  0  0  0  0  0  0  0  0  0  0  0
    7.1742   -3.9518   -0.5366 H   0  0  0  0  0  0  0  0  0  0  0  0
    6.4586   -4.6187    0.9388 H   0  0  0  0  0  0  0  0  0  0  0  0
    8.1952   -3.4113    2.3103 H   0  0  0  0  0  0  0  0  0  0  0  0
    8.9004   -2.7522    0.8229 H   0  0  0  0  0  0  0  0  0  0  0  0
   10.1996   -4.2204   -0.7129 H   0  0  0  0  0  0  0  0  0  0  0  0
   11.5200   -6.2823   -0.9891 H   0  0  0  0  0  0  0  0  0  0  0  0
   13.3322   -7.4685   -0.0868 H   0  0  0  0  0  0  0  0  0  0  0  0
   14.6659   -9.5332   -0.3664 H   0  0  0  0  0  0  0  0  0  0  0  0
   13.6840  -11.7540    0.2165 H   0  0  0  0  0  0  0  0  0  0  0  0
   11.3397  -11.8774    1.0680 H   0  0  0  0  0  0  0  0  0  0  0  0
    9.9939   -9.8165    1.3168 H   0  0  0  0  0  0  0  0  0  0  0  0
    9.7835   -7.8744    2.6242 H   0  0  0  0  0  0  0  0  0  0  0  0
    8.4418   -5.8245    2.8810 H   0  0  0  0  0  0  0  0  0  0  0  0
    4.9288   -4.1758   -1.0165 H   0  0  0  0  0  0  0  0  0  0  0  0
    2.7252   -3.7003   -2.0094 H   0  0  0  0  0  0  0  0  0  0  0  0
  1  2  1  0
  2  3  2  0
  2 26  1  0
  3  4  1  0
  3 27  1  0
  4  5  2  0
  4 28  1  0
  5  6  1  0
  5 29  1  0
  6  7  1  0
  6 26  2  0
  7  8  1  0
  7 23  2  0
  8  9  1  0
  8 30  1  0
  9 10  1  0
  9 31  1  0
  9 32  1  0
 10 11  1  0
 10 33  1  0
 10 34  1  0
 11 12  2  0
 11 22  1  0
 12 13  1  0
 12 35  1  0
 13 14  2  0
 13 36  1  0
 14 15  1  0
 14 21  1  0
 15 16  2  0
 15 20  1  0
 16 17  1  0
 16 37  1  0
 17 18  2  0
 17 38  1  0
 18 19  1  0
 18 39  1  0
 19 20  2  0
 19 40  1  0
 20 41  1  0
 21 22  2  0
 21 42  1  0
 22 43  1  0
 23 24  1  0
 23 44  1  0
 24 25  2  0
 24 45  1  0
 25 26  1  0
M  END

