
     RDKit          3D

 32 32  0  0  0  0  0  0  0  0999 V2000
    1.3202   -0.2461    0.1350 C   0  0  0  0  0  0  0  0  0  0  0  0
    2.8400   -0.1493   -0.0515 C   0  0  1  0  0  0  0  0  0  0  0  0
    3.3630   -1.3376   -0.8699 C   0  0  0  0  0  0  0  0  0  0  0  0
    3.2239    1.2107   -0.6656 C   0  0  0  0  0  0  0  0  0  0  0  0
    4.7260    1.5057   -0.7298 C   0  0  0  0  0  0  0  0  0  0  0  0
    5.0430    2.9027   -1.2725 C   0  0  0  0  0  0  0  0  0  0  0  0
    6.5353    3.2283   -1.3597 C   0  0  0  0  0  0  0  0  0  0  0  0
    7.2291    2.3801   -2.3251 N   0  0  0  0  0  0  0  0  0  0  0  0
    8.4756    1.8946   -2.1366 C   0  0  0  0  0  0  0  0  0  0  0  0
    9.1728    2.0556   -1.0346 N   0  0  0  0  0  0  0  0  0  0  0  0
   10.3700    1.4401   -1.1268 C   0  0  0  0  0  0  0  0  0  0  0  0
   11.4655    1.5089    0.2046 Cl  0  0  0  0  0  0  0  0  0  0  0  0
   10.6637    0.7783   -2.3052 C   0  0  0  0  0  0  0  0  0  0  0  0
   11.8267    0.0688   -2.6685 C   0  0  0  0  0  0  0  0  0  0  0  0
   12.7778   -0.5218   -2.9874 N   0  0  0  0  0  0  0  0  0  0  0  0
    9.2816    0.9531   -3.3969 S   0  0  0  0  0  0  0  0  0  0  0  0
    1.0341   -1.1962    0.6142 H   0  0  0  0  0  0  0  0  0  0  0  0
    0.7989   -0.1945   -0.8367 H   0  0  0  0  0  0  0  0  0  0  0  0
    0.9360    0.5751    0.7619 H   0  0  0  0  0  0  0  0  0  0  0  0
    3.3048   -0.2008    0.9520 H   0  0  0  0  0  0  0  0  0  0  0  0
    2.9491   -1.3231   -1.8935 H   0  0  0  0  0  0  0  0  0  0  0  0
    3.0692   -2.2943   -0.4087 H   0  0  0  0  0  0  0  0  0  0  0  0
    4.4609   -1.3386   -0.9521 H   0  0  0  0  0  0  0  0  0  0  0  0
    2.7320    2.0096   -0.0810 H   0  0  0  0  0  0  0  0  0  0  0  0
    2.7929    1.2774   -1.6832 H   0  0  0  0  0  0  0  0  0  0  0  0
    5.2346    0.7532   -1.3553 H   0  0  0  0  0  0  0  0  0  0  0  0
    5.1647    1.4047    0.2799 H   0  0  0  0  0  0  0  0  0  0  0  0
    4.5732    3.6693   -0.6320 H   0  0  0  0  0  0  0  0  0  0  0  0
    4.5810    3.0315   -2.2704 H   0  0  0  0  0  0  0  0  0  0  0  0
    7.0299    3.0765   -0.3902 H   0  0  0  0  0  0  0  0  0  0  0  0
    6.6737    4.2923   -1.6278 H   0  0  0  0  0  0  0  0  0  0  0  0
    6.8130    2.2715   -3.2428 H   0  0  0  0  0  0  0  0  0  0  0  0
  1  2  1  0
  1 17  1  0
  1 18  1  0
  1 19  1  0
  2  3  1  0
  2  4  1  0
  2 20  1  1
  3 21  1  0
  3 22  1  0
  3 23  1  0
  4  5  1  0
  4 24  1  0
  4 25  1  0
  5  6  1  0
  5 26  1  0
  5 27  1  0
  6  7  1  0
  6 28  1  0
  6 29  1  0
  7  8  1  0
  7 30  1  0
  7 31  1  0
  8  9  1  0
  8 32  1  0
  9 10  2  0
  9 16  1  0
 10 11  1  0
 11 12  1  0
 11 13  2  0
 13 14  1  0
 13 16  1  0
 14 15  3  0
M  END

