
     RDKit          3D

 55 58  0  0  0  0  0  0  0  0999 V2000
    4.3486   -4.9716    3.7020 C   0  0  0  0  0  0  0  0  0  0  0  0
    5.2953   -4.0584    3.1013 N   0  0  0  0  0  0  0  0  0  0  0  0
    6.3740   -3.4642    3.6744 C   0  0  0  0  0  0  0  0  0  0  0  0
    6.9776   -2.6797    2.7079 C   0  0  0  0  0  0  0  0  0  0  0  0
    6.1610   -2.8732    1.5588 C   0  0  0  0  0  0  0  0  0  0  0  0
    6.2592   -2.3186    0.2622 N   0  0  0  0  0  0  0  0  0  0  0  0
    5.2295   -2.7825   -0.6963 C   0  0  0  0  0  0  0  0  0  0  0  0
    5.1945   -1.9914   -1.9969 C   0  0  0  0  0  0  0  0  0  0  0  0
    6.5993   -1.7436   -2.5307 C   0  0  0  0  0  0  0  0  0  0  0  0
    7.3502   -0.9151   -1.4894 C   0  0  2  0  0  0  0  0  0  0  0  0
    8.7321   -0.6372   -1.8269 N   0  0  0  0  0  0  0  0  0  0  0  0
    8.9942    0.3618   -2.7511 C   0  0  0  0  0  0  0  0  0  0  0  0
    8.0924    0.9074   -3.3776 O   0  0  0  0  0  0  0  0  0  0  0  0
   10.3309    0.6754   -2.9455 N   0  0  0  0  0  0  0  0  0  0  0  0
   11.4278    0.0179   -2.2564 C   0  0  0  0  0  0  0  0  0  0  0  0
   11.9941    0.8328   -1.0749 C   0  0  0  0  0  0  0  0  0  0  0  0
   13.0728    1.8523   -1.4625 C   0  0  0  0  0  0  0  0  0  0  0  0
   12.7466    2.6867   -2.6140 N   0  0  0  0  0  0  0  0  0  0  0  0
   13.7593    3.2913   -3.3257 C   0  0  0  0  0  0  0  0  0  0  0  0
   15.1176    3.2670   -2.9022 C   0  0  0  0  0  0  0  0  0  0  0  0
   16.0447    3.8886   -3.7154 C   0  0  0  0  0  0  0  0  0  0  0  0
   15.5882    4.5131   -4.8856 C   0  0  0  0  0  0  0  0  0  0  0  0
   14.3002    4.5313   -5.2186 N   0  0  0  0  0  0  0  0  0  0  0  0
   13.4049    3.9313   -4.4616 N   0  0  0  0  0  0  0  0  0  0  0  0
   11.3508    2.9627   -2.9645 C   0  0  0  0  0  0  0  0  0  0  0  0
   10.6584    1.8410   -3.7537 C   0  0  0  0  0  0  0  0  0  0  0  0
    7.3499   -1.5598   -0.0928 C   0  0  0  0  0  0  0  0  0  0  0  0
    8.2897   -1.3456    0.6637 O   0  0  0  0  0  0  0  0  0  0  0  0
    5.1526   -3.7099    1.8136 N   0  0  0  0  0  0  0  0  0  0  0  0
    4.6303   -5.1429    4.7494 H   0  0  0  0  0  0  0  0  0  0  0  0
    4.3495   -5.9333    3.1660 H   0  0  0  0  0  0  0  0  0  0  0  0
    3.3318   -4.5507    3.6660 H   0  0  0  0  0  0  0  0  0  0  0  0
    6.6368   -3.6391    4.7159 H   0  0  0  0  0  0  0  0  0  0  0  0
    7.8650   -2.0671    2.7927 H   0  0  0  0  0  0  0  0  0  0  0  0
    4.2600   -2.7451   -0.1823 H   0  0  0  0  0  0  0  0  0  0  0  0
    5.4211   -3.8508   -0.8991 H   0  0  0  0  0  0  0  0  0  0  0  0
    4.6888   -1.0230   -1.8383 H   0  0  0  0  0  0  0  0  0  0  0  0
    4.5797   -2.5501   -2.7199 H   0  0  0  0  0  0  0  0  0  0  0  0
    6.5839   -1.1875   -3.4782 H   0  0  0  0  0  0  0  0  0  0  0  0
    7.1325   -2.6950   -2.7034 H   0  0  0  0  0  0  0  0  0  0  0  0
    6.7982    0.0411   -1.3824 H   0  0  0  0  0  0  0  0  0  0  0  0
    9.3329   -0.7200   -1.0094 H   0  0  0  0  0  0  0  0  0  0  0  0
   12.2344   -0.1775   -2.9875 H   0  0  0  0  0  0  0  0  0  0  0  0
   11.0885   -0.9682   -1.9142 H   0  0  0  0  0  0  0  0  0  0  0  0
   12.4581    0.1498   -0.3435 H   0  0  0  0  0  0  0  0  0  0  0  0
   11.1576    1.3173   -0.5462 H   0  0  0  0  0  0  0  0  0  0  0  0
   13.9865    1.2845   -1.7060 H   0  0  0  0  0  0  0  0  0  0  0  0
   13.3203    2.4684   -0.5732 H   0  0  0  0  0  0  0  0  0  0  0  0
   15.4238    2.8016   -1.9663 H   0  0  0  0  0  0  0  0  0  0  0  0
   17.1041    3.9083   -3.4472 H   0  0  0  0  0  0  0  0  0  0  0  0
   16.2684    5.0239   -5.5732 H   0  0  0  0  0  0  0  0  0  0  0  0
   11.3505    3.8652   -3.5863 H   0  0  0  0  0  0  0  0  0  0  0  0
   10.7803    3.1791   -2.0456 H   0  0  0  0  0  0  0  0  0  0  0  0
   11.3102    1.5511   -4.5969 H   0  0  0  0  0  0  0  0  0  0  0  0
    9.7133    2.2130   -4.1692 H   0  0  0  0  0  0  0  0  0  0  0  0
  1  2  1  0
  1 30  1  0
  1 31  1  0
  1 32  1  0
  2  3  1  0
  2 29  1  0
  3  4  2  0
  3 33  1  0
  4  5  1  0
  4 34  1  0
  5  6  1  0
  5 29  2  0
  6  7  1  0
  6 27  1  0
  7  8  1  0
  7 35  1  0
  7 36  1  0
  8  9  1  0
  8 37  1  0
  8 38  1  0
  9 10  1  0
  9 39  1  0
  9 40  1  0
 10 11  1  0
 10 27  1  0
 10 41  1  1
 11 12  1  0
 11 42  1  0
 12 13  2  0
 12 14  1  0
 14 15  1  0
 14 26  1  0
 15 16  1  0
 15 43  1  0
 15 44  1  0
 16 17  1  0
 16 45  1  0
 16 46  1  0
 17 18  1  0
 17 47  1  0
 17 48  1  0
 18 19  1  0
 18 25  1  0
 19 20  2  0
 19 24  1  0
 20 21  1  0
 20 49  1  0
 21 22  2  0
 21 50  1  0
 22 23  1  0
 22 51  1  0
 23 24  2  0
 25 26  1  0
 25 52  1  0
 25 53  1  0
 26 54  1  0
 26 55  1  0
 27 28  2  0
M  END

