
     RDKit          3D

 46 49  0  0  0  0  0  0  0  0999 V2000
    1.1616   -0.3815    0.0001 C   0  0  0  0  0  0  0  0  0  0  0  0
    2.5439    0.0587   -0.0156 N   0  0  0  0  0  0  0  0  0  0  0  0
    3.4667   -0.9889    0.4236 C   0  0  0  0  0  0  0  0  0  0  0  0
    4.9265   -0.5249    0.3779 C   0  0  0  0  0  0  0  0  0  0  0  0
    5.1382    0.6754    1.1083 O   0  0  0  0  0  0  0  0  0  0  0  0
    4.2634    1.6584    0.6235 C   0  0  2  0  0  0  0  0  0  0  0  0
    4.3108    2.9980    1.3467 C   0  0  0  0  0  0  0  0  0  0  0  0
    3.0011    3.5610    0.9798 N   0  0  0  0  0  0  0  0  0  0  0  0
    2.6348    4.8747    0.9436 C   0  0  0  0  0  0  0  0  0  0  0  0
    1.5775    5.2322    0.4439 O   0  0  0  0  0  0  0  0  0  0  0  0
    3.5960    5.8943    1.5130 C   0  0  0  0  0  0  0  0  0  0  0  0
    3.9169    7.0014    0.7187 C   0  0  0  0  0  0  0  0  0  0  0  0
    4.7534    8.0262    1.2001 C   0  0  0  0  0  0  0  0  0  0  0  0
    5.0858    9.1390    0.4052 N   0  0  0  0  0  0  0  0  0  0  0  0
    5.7959   10.2977    0.9341 C   0  0  0  0  0  0  0  0  0  0  0  0
    5.7588   11.2864   -0.2444 C   0  0  0  0  0  0  0  0  0  0  0  0
    5.6366   10.3806   -1.3688 N   0  0  0  0  0  0  0  0  0  0  0  0
    5.0615    9.1775   -0.9989 C   0  0  0  0  0  0  0  0  0  0  0  0
    4.6348    8.3294   -1.7520 O   0  0  0  0  0  0  0  0  0  0  0  0
    5.2343    7.9391    2.5214 C   0  0  0  0  0  0  0  0  0  0  0  0
    4.8900    6.8569    3.3324 C   0  0  0  0  0  0  0  0  0  0  0  0
    4.0815    5.8484    2.8242 C   0  0  0  0  0  0  0  0  0  0  0  0
    3.7457    4.8205    3.6291 F   0  0  0  0  0  0  0  0  0  0  0  0
    2.0836    2.5514    0.4201 C   0  0  0  0  0  0  0  0  0  0  0  0
    2.7984    1.2482    0.7736 C   0  0  1  0  0  0  0  0  0  0  0  0
    1.0432   -1.2633   -0.6496 H   0  0  0  0  0  0  0  0  0  0  0  0
    0.5025    0.4094   -0.3888 H   0  0  0  0  0  0  0  0  0  0  0  0
    0.8017   -0.6589    1.0177 H   0  0  0  0  0  0  0  0  0  0  0  0
    3.3540   -1.8690   -0.2317 H   0  0  0  0  0  0  0  0  0  0  0  0
    3.2297   -1.3197    1.4620 H   0  0  0  0  0  0  0  0  0  0  0  0
    5.2292   -0.3768   -0.6781 H   0  0  0  0  0  0  0  0  0  0  0  0
    5.5787   -1.2913    0.8222 H   0  0  0  0  0  0  0  0  0  0  0  0
    4.4476    1.8204   -0.4595 H   0  0  0  0  0  0  0  0  0  0  0  0
    5.1344    3.6429    1.0088 H   0  0  0  0  0  0  0  0  0  0  0  0
    4.4101    2.8436    2.4335 H   0  0  0  0  0  0  0  0  0  0  0  0
    3.5166    7.0595   -0.2907 H   0  0  0  0  0  0  0  0  0  0  0  0
    6.8375   10.0383    1.2037 H   0  0  0  0  0  0  0  0  0  0  0  0
    5.3019   10.6989    1.8318 H   0  0  0  0  0  0  0  0  0  0  0  0
    6.6720   11.8987   -0.2952 H   0  0  0  0  0  0  0  0  0  0  0  0
    4.8915   11.9695   -0.1596 H   0  0  0  0  0  0  0  0  0  0  0  0
    5.4478   10.7076   -2.3090 H   0  0  0  0  0  0  0  0  0  0  0  0
    5.8806    8.7138    2.9339 H   0  0  0  0  0  0  0  0  0  0  0  0
    5.2421    6.7884    4.3635 H   0  0  0  0  0  0  0  0  0  0  0  0
    1.9791    2.6733   -0.6729 H   0  0  0  0  0  0  0  0  0  0  0  0
    1.0833    2.6607    0.8623 H   0  0  0  0  0  0  0  0  0  0  0  0
    2.6292    1.0442    1.8589 H   0  0  0  0  0  0  0  0  0  0  0  0
  1  2  1  0
  1 26  1  0
  1 27  1  0
  1 28  1  0
  2  3  1  0
  2 25  1  0
  3  4  1  0
  3 29  1  0
  3 30  1  0
  4  5  1  0
  4 31  1  0
  4 32  1  0
  5  6  1  0
  6  7  1  0
  6 25  1  0
  6 33  1  6
  7  8  1  0
  7 34  1  0
  7 35  1  0
  8  9  1  0
  8 24  1  0
  9 10  2  0
  9 11  1  0
 11 12  2  0
 11 22  1  0
 12 13  1  0
 12 36  1  0
 13 14  1  0
 13 20  2  0
 14 15  1  0
 14 18  1  0
 15 16  1  0
 15 37  1  0
 15 38  1  0
 16 17  1  0
 16 39  1  0
 16 40  1  0
 17 18  1  0
 17 41  1  0
 18 19  2  0
 20 21  1  0
 20 42  1  0
 21 22  2  0
 21 43  1  0
 22 23  1  0
 24 25  1  0
 24 44  1  0
 24 45  1  0
 25 46  1  1
M  END

