
     RDKit          3D

 58 61  0  0  0  0  0  0  0  0999 V2000
    1.6972   -1.2426   -2.2375 O   0  0  0  0  0  0  0  0  0  0  0  0
    2.2418   -0.3085   -1.6623 C   0  0  0  0  0  0  0  0  0  0  0  0
    3.6259   -0.4734   -1.0161 C   0  0  2  0  0  0  0  0  0  0  0  0
    3.5980   -0.0368   -0.0064 H   0  0  0  0  0  0  0  0  0  0  0  0
    4.7864    0.1844   -1.8312 C   0  0  0  0  0  0  0  0  0  0  0  0
    5.6772   -0.9236   -2.1572 N   0  0  0  0  0  0  0  0  0  0  0  0
    5.5585   -1.9131   -1.0977 C   0  0  0  0  0  0  0  0  0  0  0  0
    4.0373   -1.9684   -0.8970 C   0  0  1  0  0  0  0  0  0  0  0  0
    3.6126   -2.4685   -1.7776 H   0  0  0  0  0  0  0  0  0  0  0  0
    3.5133   -2.6664    0.3424 C   0  0  0  0  0  0  0  0  0  0  0  0
    4.1412   -2.5682    1.5944 C   0  0  0  0  0  0  0  0  0  0  0  0
    3.5997   -3.2029    2.7168 C   0  0  0  0  0  0  0  0  0  0  0  0
    2.4243   -3.9476    2.6126 C   0  0  0  0  0  0  0  0  0  0  0  0
    1.7761   -4.0519    1.3736 C   0  0  0  0  0  0  0  0  0  0  0  0
    0.5276   -4.8832    1.2242 C   0  0  0  0  0  0  0  0  0  0  0  0
   -0.3025   -4.7281    2.3740 O   0  0  0  0  0  0  0  0  0  0  0  0
   -1.4684   -5.4067    2.3730 C   0  0  0  0  0  0  0  0  0  0  0  0
   -1.2469   -7.6456    2.7518 I   0  0  0  0  0  0  0  0  0  0  0  0
    2.3222   -3.4072    0.2576 C   0  0  0  0  0  0  0  0  0  0  0  0
    1.6438    0.9259   -1.5753 N   0  0  0  0  0  0  0  0  0  0  0  0
    2.1793    2.1103   -0.9147 C   0  0  0  0  0  0  0  0  0  0  0  0
    2.2022    3.3211   -1.8642 C   0  0  0  0  0  0  0  0  0  0  0  0
    0.8564    3.5977   -2.5661 C   0  0  2  0  0  0  0  0  0  0  0  0
   -0.2063    4.3098   -1.7223 C   0  0  0  0  0  0  0  0  0  0  0  0
   -0.0298    4.6671   -0.3763 C   0  0  0  0  0  0  0  0  0  0  0  0
   -1.0276    5.3464    0.3338 C   0  0  0  0  0  0  0  0  0  0  0  0
   -2.2273    5.6913   -0.2887 C   0  0  0  0  0  0  0  0  0  0  0  0
   -2.4171    5.3564   -1.6336 C   0  0  0  0  0  0  0  0  0  0  0  0
   -1.4199    4.6780   -2.3349 C   0  0  0  0  0  0  0  0  0  0  0  0
    0.3465    2.2701   -3.1826 C   0  0  0  0  0  0  0  0  0  0  0  0
    0.3212    1.1268   -2.1666 C   0  0  0  0  0  0  0  0  0  0  0  0
    5.2690    0.9719   -1.2124 H   0  0  0  0  0  0  0  0  0  0  0  0
    4.4267    0.6775   -2.7510 H   0  0  0  0  0  0  0  0  0  0  0  0
    6.6330   -0.6289   -2.3400 H   0  0  0  0  0  0  0  0  0  0  0  0
    6.0766   -1.6211   -0.1570 H   0  0  0  0  0  0  0  0  0  0  0  0
    5.9716   -2.8858   -1.4111 H   0  0  0  0  0  0  0  0  0  0  0  0
    5.0633   -1.9922    1.7033 H   0  0  0  0  0  0  0  0  0  0  0  0
    4.1037   -3.1170    3.6832 H   0  0  0  0  0  0  0  0  0  0  0  0
    1.9988   -4.4409    3.4887 H   0  0  0  0  0  0  0  0  0  0  0  0
    0.7809   -5.9571    1.1243 H   0  0  0  0  0  0  0  0  0  0  0  0
   -0.0313   -4.5884    0.3167 H   0  0  0  0  0  0  0  0  0  0  0  0
   -2.0096   -5.3957    1.4142 H   0  0  0  0  0  0  0  0  0  0  0  0
   -2.0897   -5.0860    3.2149 H   0  0  0  0  0  0  0  0  0  0  0  0
    1.8090   -3.4555   -0.7067 H   0  0  0  0  0  0  0  0  0  0  0  0
    3.1951    1.9175   -0.5520 H   0  0  0  0  0  0  0  0  0  0  0  0
    1.5604    2.3307   -0.0256 H   0  0  0  0  0  0  0  0  0  0  0  0
    2.9539    3.1218   -2.6463 H   0  0  0  0  0  0  0  0  0  0  0  0
    2.5532    4.2102   -1.3165 H   0  0  0  0  0  0  0  0  0  0  0  0
    1.0699    4.2810   -3.4072 H   0  0  0  0  0  0  0  0  0  0  0  0
    0.8991    4.4263    0.1420 H   0  0  0  0  0  0  0  0  0  0  0  0
   -0.8588    5.6069    1.3820 H   0  0  0  0  0  0  0  0  0  0  0  0
   -3.0063    6.2213    0.2650 H   0  0  0  0  0  0  0  0  0  0  0  0
   -3.3459    5.6300   -2.1413 H   0  0  0  0  0  0  0  0  0  0  0  0
   -1.5842    4.4394   -3.3896 H   0  0  0  0  0  0  0  0  0  0  0  0
    1.0139    1.9855   -4.0139 H   0  0  0  0  0  0  0  0  0  0  0  0
   -0.6583    2.3989   -3.6131 H   0  0  0  0  0  0  0  0  0  0  0  0
    0.0249    0.1815   -2.6360 H   0  0  0  0  0  0  0  0  0  0  0  0
   -0.4032    1.3513   -1.3607 H   0  0  0  0  0  0  0  0  0  0  0  0
  1  2  2  0
  2  3  1  0
  2 20  1  0
  3  4  1  1
  3  5  1  0
  3  8  1  0
  5  6  1  0
  5 32  1  0
  5 33  1  0
  6  7  1  0
  6 34  1  0
  7  8  1  0
  7 35  1  0
  7 36  1  0
  8  9  1  6
  8 10  1  0
 10 11  2  0
 10 19  1  0
 11 12  1  0
 11 37  1  0
 12 13  2  0
 12 38  1  0
 13 14  1  0
 13 39  1  0
 14 15  1  0
 14 19  2  0
 15 16  1  0
 15 40  1  0
 15 41  1  0
 16 17  1  0
 17 18  1  0
 17 42  1  0
 17 43  1  0
 19 44  1  0
 20 21  1  0
 20 31  1  0
 21 22  1  0
 21 45  1  0
 21 46  1  0
 22 23  1  0
 22 47  1  0
 22 48  1  0
 23 24  1  0
 23 30  1  0
 23 49  1  6
 24 25  2  0
 24 29  1  0
 25 26  1  0
 25 50  1  0
 26 27  2  0
 26 51  1  0
 27 28  1  0
 27 52  1  0
 28 29  2  0
 28 53  1  0
 29 54  1  0
 30 31  1  0
 30 55  1  0
 30 56  1  0
 31 57  1  0
 31 58  1  0
M  END

