
     RDKit          3D

 41 43  0  0  0  0  0  0  0  0999 V2000
    7.3440    1.3253   -8.4085 F   0  0  0  0  0  0  0  0  0  0  0  0
    7.3188    0.7132   -7.2137 C   0  0  0  0  0  0  0  0  0  0  0  0
    8.5206    0.3807   -6.5926 C   0  0  0  0  0  0  0  0  0  0  0  0
    8.4870   -0.2551   -5.3495 C   0  0  0  0  0  0  0  0  0  0  0  0
    7.2678   -0.5580   -4.7217 C   0  0  0  0  0  0  0  0  0  0  0  0
    7.2312   -1.2835   -3.3917 C   0  0  0  0  0  0  0  0  0  0  0  0
    8.3286   -0.9034   -2.5152 N   0  0  0  0  0  0  0  0  0  0  0  0
    8.3475   -1.5880   -1.2301 C   0  0  0  0  0  0  0  0  0  0  0  0
    8.8097   -3.0318   -1.3231 C   0  0  0  0  0  0  0  0  0  0  0  0
    9.9203   -3.3825   -2.1074 C   0  0  0  0  0  0  0  0  0  0  0  0
   10.3796   -4.6976   -2.1585 C   0  0  0  0  0  0  0  0  0  0  0  0
    9.7266   -5.6951   -1.4234 C   0  0  0  0  0  0  0  0  0  0  0  0
   10.1847   -6.9815   -1.5737 O   0  0  0  0  0  0  0  0  0  0  0  0
   10.1851   -7.8839   -0.5382 C   0  0  0  0  0  0  0  0  0  0  0  0
    9.8941   -9.2157   -0.8571 C   0  0  0  0  0  0  0  0  0  0  0  0
    9.9511  -10.1941    0.1376 C   0  0  0  0  0  0  0  0  0  0  0  0
   10.2899   -9.8510    1.4506 C   0  0  0  0  0  0  0  0  0  0  0  0
   10.5804   -8.5183    1.7595 C   0  0  0  0  0  0  0  0  0  0  0  0
   10.5346   -7.5304    0.7723 C   0  0  0  0  0  0  0  0  0  0  0  0
    8.6095   -5.3705   -0.6452 C   0  0  0  0  0  0  0  0  0  0  0  0
    8.1645   -4.0461   -0.6031 C   0  0  0  0  0  0  0  0  0  0  0  0
    6.0772   -0.2002   -5.3726 C   0  0  0  0  0  0  0  0  0  0  0  0
    6.0917    0.4310   -6.6191 C   0  0  0  0  0  0  0  0  0  0  0  0
    9.4636    0.6216   -7.0879 H   0  0  0  0  0  0  0  0  0  0  0  0
    9.4191   -0.5180   -4.8457 H   0  0  0  0  0  0  0  0  0  0  0  0
    7.3082   -2.3724   -3.5679 H   0  0  0  0  0  0  0  0  0  0  0  0
    6.2327   -1.1289   -2.9242 H   0  0  0  0  0  0  0  0  0  0  0  0
    8.3278    0.1057   -2.3758 H   0  0  0  0  0  0  0  0  0  0  0  0
    7.3606   -1.5676   -0.7159 H   0  0  0  0  0  0  0  0  0  0  0  0
    9.0438   -1.0327   -0.5766 H   0  0  0  0  0  0  0  0  0  0  0  0
   10.4243   -2.6055   -2.6866 H   0  0  0  0  0  0  0  0  0  0  0  0
   11.2428   -4.9759   -2.7667 H   0  0  0  0  0  0  0  0  0  0  0  0
    9.6317   -9.4619   -1.8879 H   0  0  0  0  0  0  0  0  0  0  0  0
    9.7245  -11.2328   -0.1166 H   0  0  0  0  0  0  0  0  0  0  0  0
   10.3302  -10.6176    2.2278 H   0  0  0  0  0  0  0  0  0  0  0  0
   10.8553   -8.2407    2.7806 H   0  0  0  0  0  0  0  0  0  0  0  0
   10.7730   -6.4926    1.0123 H   0  0  0  0  0  0  0  0  0  0  0  0
    8.0852   -6.1481   -0.0868 H   0  0  0  0  0  0  0  0  0  0  0  0
    7.2855   -3.8018    0.0011 H   0  0  0  0  0  0  0  0  0  0  0  0
    5.1162   -0.4172   -4.8971 H   0  0  0  0  0  0  0  0  0  0  0  0
    5.1694    0.7128   -7.1308 H   0  0  0  0  0  0  0  0  0  0  0  0
  1  2  1  0
  2  3  2  0
  2 23  1  0
  3  4  1  0
  3 24  1  0
  4  5  2  0
  4 25  1  0
  5  6  1  0
  5 22  1  0
  6  7  1  0
  6 26  1  0
  6 27  1  0
  7  8  1  0
  7 28  1  0
  8  9  1  0
  8 29  1  0
  8 30  1  0
  9 10  2  0
  9 21  1  0
 10 11  1  0
 10 31  1  0
 11 12  2  0
 11 32  1  0
 12 13  1  0
 12 20  1  0
 13 14  1  0
 14 15  2  0
 14 19  1  0
 15 16  1  0
 15 33  1  0
 16 17  2  0
 16 34  1  0
 17 18  1  0
 17 35  1  0
 18 19  2  0
 18 36  1  0
 19 37  1  0
 20 21  2  0
 20 38  1  0
 21 39  1  0
 22 23  2  0
 22 40  1  0
 23 41  1  0
M  END

