
     RDKit          3D

 49 51  0  0  0  0  0  0  0  0999 V2000
    0.7846    0.5300   -1.2626 C   0  0  0  0  0  0  0  0  0  0  0  0
    2.1901    0.1283   -0.7880 C   0  0  0  0  0  0  0  0  0  0  0  0
    2.6299   -1.2409   -1.2652 C   0  0  0  0  0  0  0  0  0  0  0  0
    3.5562   -1.3442   -2.3128 C   0  0  0  0  0  0  0  0  0  0  0  0
    3.9384   -2.5826   -2.8288 C   0  0  0  0  0  0  0  0  0  0  0  0
    3.4028   -3.7495   -2.2863 C   0  0  0  0  0  0  0  0  0  0  0  0
    2.4954   -3.6982   -1.2188 C   0  0  0  0  0  0  0  0  0  0  0  0
    2.0090   -4.9883   -0.5889 C   0  0  0  0  0  0  0  0  0  0  0  0
    2.8103   -5.3847    0.6622 C   0  0  0  0  0  0  0  0  0  0  0  0
    2.1082   -2.4347   -0.7169 C   0  0  0  0  0  0  0  0  0  0  0  0
    1.1347   -2.3781    0.3256 N   0  0  0  0  0  0  0  0  0  0  0  0
    1.4042   -1.9575    1.6248 C   0  0  0  0  0  0  0  0  0  0  0  0
    2.4855   -1.5238    1.9804 O   0  0  0  0  0  0  0  0  0  0  0  0
    0.3153   -2.0740    2.4691 N   0  0  0  0  0  0  0  0  0  0  0  0
    0.3592   -1.6154    3.8435 C   0  0  0  0  0  0  0  0  0  0  0  0
   -0.1563   -2.6545    4.8591 C   0  0  0  0  0  0  0  0  0  0  0  0
    0.7022   -3.8935    4.9919 C   0  0  0  0  0  0  0  0  0  0  0  0
    1.7166   -3.9516    5.9578 C   0  0  0  0  0  0  0  0  0  0  0  0
    2.5632   -5.0690    6.0951 C   0  0  0  0  0  0  0  0  0  0  0  0
    2.3560   -6.1226    5.2239 C   0  0  0  0  0  0  0  0  0  0  0  0
    1.3504   -6.0800    4.2571 C   0  0  0  0  0  0  0  0  0  0  0  0
    0.5107   -4.9905    4.1182 C   0  0  0  0  0  0  0  0  0  0  0  0
    1.3605   -7.2476    3.5404 O   0  0  0  0  0  0  0  0  0  0  0  0
    2.4403   -8.0285    4.0523 C   0  0  0  0  0  0  0  0  0  0  0  0
    3.0149   -7.3194    5.1449 O   0  0  0  0  0  0  0  0  0  0  0  0
    0.5214    1.5360   -0.8967 H   0  0  0  0  0  0  0  0  0  0  0  0
    0.0223   -0.1729   -0.8931 H   0  0  0  0  0  0  0  0  0  0  0  0
    0.7230    0.5446   -2.3629 H   0  0  0  0  0  0  0  0  0  0  0  0
    2.2477    0.1695    0.3097 H   0  0  0  0  0  0  0  0  0  0  0  0
    2.9165    0.8699   -1.1585 H   0  0  0  0  0  0  0  0  0  0  0  0
    3.9737   -0.4270   -2.7377 H   0  0  0  0  0  0  0  0  0  0  0  0
    4.6529   -2.6372   -3.6542 H   0  0  0  0  0  0  0  0  0  0  0  0
    3.7005   -4.7242   -2.6837 H   0  0  0  0  0  0  0  0  0  0  0  0
    2.0759   -5.7954   -1.3366 H   0  0  0  0  0  0  0  0  0  0  0  0
    0.9388   -4.9213   -0.3262 H   0  0  0  0  0  0  0  0  0  0  0  0
    3.8602   -5.5904    0.3997 H   0  0  0  0  0  0  0  0  0  0  0  0
    2.3855   -6.2845    1.1351 H   0  0  0  0  0  0  0  0  0  0  0  0
    2.8135   -4.5775    1.4105 H   0  0  0  0  0  0  0  0  0  0  0  0
    0.3498   -3.0107    0.2186 H   0  0  0  0  0  0  0  0  0  0  0  0
   -0.5979   -2.2147    2.0529 H   0  0  0  0  0  0  0  0  0  0  0  0
   -0.2305   -0.6857    3.9582 H   0  0  0  0  0  0  0  0  0  0  0  0
    1.4080   -1.3614    4.0510 H   0  0  0  0  0  0  0  0  0  0  0  0
   -1.1889   -2.9390    4.5883 H   0  0  0  0  0  0  0  0  0  0  0  0
   -0.2268   -2.1498    5.8367 H   0  0  0  0  0  0  0  0  0  0  0  0
    1.8579   -3.1022    6.6313 H   0  0  0  0  0  0  0  0  0  0  0  0
    3.3467   -5.1066    6.8533 H   0  0  0  0  0  0  0  0  0  0  0  0
   -0.2727   -4.9834    3.3590 H   0  0  0  0  0  0  0  0  0  0  0  0
    3.1988   -8.1755    3.2607 H   0  0  0  0  0  0  0  0  0  0  0  0
    2.0592   -9.0053    4.4000 H   0  0  0  0  0  0  0  0  0  0  0  0
  1  2  1  0
  1 26  1  0
  1 27  1  0
  1 28  1  0
  2  3  1  0
  2 29  1  0
  2 30  1  0
  3  4  2  0
  3 10  1  0
  4  5  1  0
  4 31  1  0
  5  6  2  0
  5 32  1  0
  6  7  1  0
  6 33  1  0
  7  8  1  0
  7 10  2  0
  8  9  1  0
  8 34  1  0
  8 35  1  0
  9 36  1  0
  9 37  1  0
  9 38  1  0
 10 11  1  0
 11 12  1  0
 11 39  1  0
 12 13  2  0
 12 14  1  0
 14 15  1  0
 14 40  1  0
 15 16  1  0
 15 41  1  0
 15 42  1  0
 16 17  1  0
 16 43  1  0
 16 44  1  0
 17 18  2  0
 17 22  1  0
 18 19  1  0
 18 45  1  0
 19 20  2  0
 19 46  1  0
 20 21  1  0
 20 25  1  0
 21 22  2  0
 21 23  1  0
 22 47  1  0
 23 24  1  0
 24 25  1  0
 24 48  1  0
 24 49  1  0
M  END

