
     RDKit          3D

 36 38  0  0  0  0  0  0  0  0999 V2000
    1.6297    0.7264   -0.8165 C   0  0  0  0  0  0  0  0  0  0  0  0
    2.5317   -0.1477   -0.0948 N   0  0  0  0  0  0  0  0  0  0  0  0
    2.6619   -1.5351   -0.4910 C   0  0  0  0  0  0  0  0  0  0  0  0
    3.2635    0.3393    0.9691 C   0  0  0  0  0  0  0  0  0  0  0  0
    3.1483    1.6876    1.3952 C   0  0  0  0  0  0  0  0  0  0  0  0
    3.8925    2.1695    2.4660 C   0  0  0  0  0  0  0  0  0  0  0  0
    4.7879    1.3546    3.1851 C   0  0  0  0  0  0  0  0  0  0  0  0
    5.5772    1.8779    4.3237 C   0  0  0  0  0  0  0  0  0  0  0  0
    5.9444    1.0329    5.4089 C   0  0  0  0  0  0  0  0  0  0  0  0
    6.6797    1.5139    6.4754 C   0  0  0  0  0  0  0  0  0  0  0  0
    7.0887    2.8639    6.5221 C   0  0  0  0  0  0  0  0  0  0  0  0
    7.8653    3.4056    7.6325 C   0  0  0  0  0  0  0  0  0  0  0  0
    8.2461    2.7858    8.6292 O   0  0  0  0  0  0  0  0  0  0  0  0
    8.2067    4.8298    7.5093 C   0  0  0  0  0  0  0  0  0  0  0  0
    8.9239    5.3418    8.5225 O   0  0  0  0  0  0  0  0  0  0  0  0
    7.8091    5.5485    6.4293 C   0  0  0  0  0  0  0  0  0  0  0  0
    7.0835    5.0111    5.4155 O   0  0  0  0  0  0  0  0  0  0  0  0
    6.7234    3.7032    5.4497 C   0  0  0  0  0  0  0  0  0  0  0  0
    5.9817    3.2171    4.3653 C   0  0  0  0  0  0  0  0  0  0  0  0
    4.8955    0.0157    2.7630 C   0  0  0  0  0  0  0  0  0  0  0  0
    4.1658   -0.4840    1.6900 C   0  0  0  0  0  0  0  0  0  0  0  0
    1.1534    0.1665   -1.6314 H   0  0  0  0  0  0  0  0  0  0  0  0
    2.1554    1.5896   -1.2651 H   0  0  0  0  0  0  0  0  0  0  0  0
    0.8265    1.1265   -0.1698 H   0  0  0  0  0  0  0  0  0  0  0  0
    1.9967   -1.7358   -1.3405 H   0  0  0  0  0  0  0  0  0  0  0  0
    2.3848   -2.2295    0.3237 H   0  0  0  0  0  0  0  0  0  0  0  0
    3.6923   -1.7862   -0.8050 H   0  0  0  0  0  0  0  0  0  0  0  0
    2.4617    2.3680    0.8933 H   0  0  0  0  0  0  0  0  0  0  0  0
    3.7475    3.2093    2.7684 H   0  0  0  0  0  0  0  0  0  0  0  0
    5.6146   -0.0074    5.4111 H   0  0  0  0  0  0  0  0  0  0  0  0
    6.9552    0.8713    7.3141 H   0  0  0  0  0  0  0  0  0  0  0  0
    9.0445    4.5797    9.1291 H   0  0  0  0  0  0  0  0  0  0  0  0
    8.0304    6.6047    6.2772 H   0  0  0  0  0  0  0  0  0  0  0  0
    5.7567    3.9058    3.5501 H   0  0  0  0  0  0  0  0  0  0  0  0
    5.5936   -0.6557    3.2684 H   0  0  0  0  0  0  0  0  0  0  0  0
    4.3092   -1.5258    1.4062 H   0  0  0  0  0  0  0  0  0  0  0  0
  1  2  1  0
  1 22  1  0
  1 23  1  0
  1 24  1  0
  2  3  1  0
  2  4  1  0
  3 25  1  0
  3 26  1  0
  3 27  1  0
  4  5  2  0
  4 21  1  0
  5  6  1  0
  5 28  1  0
  6  7  2  0
  6 29  1  0
  7  8  1  0
  7 20  1  0
  8  9  2  0
  8 19  1  0
  9 10  1  0
  9 30  1  0
 10 11  2  0
 10 31  1  0
 11 12  1  0
 11 18  1  0
 12 13  2  0
 12 14  1  0
 14 15  1  0
 14 16  2  0
 15 32  1  0
 16 17  1  0
 16 33  1  0
 17 18  1  0
 18 19  2  0
 19 34  1  0
 20 21  2  0
 20 35  1  0
 21 36  1  0
M  END

