
     RDKit          3D

 84 87  0  0  0  0  0  0  0  0999 V2000
    3.1869   -5.4227   -2.9483 C   0  0  0  0  0  0  0  0  0  0  0  0
    3.0069   -4.1053   -3.6818 C   0  0  0  0  0  0  0  0  0  0  0  0
    3.5085   -3.0050   -2.8885 O   0  0  0  0  0  0  0  0  0  0  0  0
    4.7740   -2.6227   -3.0930 C   0  0  0  0  0  0  0  0  0  0  0  0
    5.5037   -3.0655   -3.9409 O   0  0  0  0  0  0  0  0  0  0  0  0
    5.1908   -1.4576   -2.1679 C   0  0  1  0  0  0  0  0  0  0  0  0
    4.1877   -1.0576   -1.0702 C   0  0  0  0  0  0  0  0  0  0  0  0
    3.9831   -2.0238    0.1215 C   0  0  1  0  0  0  0  0  0  0  0  0
    4.9263   -1.7029    1.2902 C   0  0  0  0  0  0  0  0  0  0  0  0
    2.5214   -1.9906    0.5880 C   0  0  0  0  0  0  0  0  0  0  0  0
    6.5612   -1.6923   -1.7145 N   0  0  0  0  0  0  0  0  0  0  0  0
    7.6203   -0.7785   -1.7165 C   0  0  0  0  0  0  0  0  0  0  0  0
    7.4598    0.6342   -2.1707 C   0  0  0  0  0  0  0  0  0  0  0  0
    8.7459   -1.3002   -1.2960 N   0  0  0  0  0  0  0  0  0  0  0  0
    8.4476   -2.6156   -1.0166 C   0  0  0  0  0  0  0  0  0  0  0  0
    9.1864   -3.7194   -0.5522 C   0  0  0  0  0  0  0  0  0  0  0  0
   10.4880   -3.5418   -0.2887 O   0  0  0  0  0  0  0  0  0  0  0  0
   11.3166   -4.4523    0.3475 C   0  0  0  0  0  0  0  0  0  0  0  0
   10.9094   -5.1789    1.4716 C   0  0  0  0  0  0  0  0  0  0  0  0
   11.8306   -6.0073    2.1140 C   0  0  0  0  0  0  0  0  0  0  0  0
   13.1398   -6.1205    1.6342 C   0  0  0  0  0  0  0  0  0  0  0  0
   13.5253   -5.3995    0.5050 C   0  0  0  0  0  0  0  0  0  0  0  0
   12.6306   -4.5336   -0.1426 C   0  0  0  0  0  0  0  0  0  0  0  0
   13.0907   -3.8789   -1.4306 C   0  0  0  0  0  0  0  0  0  0  0  0
   13.5444   -4.5951   -2.3141 O   0  0  0  0  0  0  0  0  0  0  0  0
   13.0029   -2.5176   -1.5526 N   0  0  0  0  0  0  0  0  0  0  0  0
   12.6223   -1.5934   -0.4996 C   0  0  0  0  0  0  0  0  0  0  0  0
   13.3300   -1.9117   -2.8312 C   0  0  0  0  0  0  0  0  0  0  0  0
    8.5986   -4.8975   -0.4114 N   0  0  0  0  0  0  0  0  0  0  0  0
    7.2971   -5.0040   -0.6862 C   0  0  0  0  0  0  0  0  0  0  0  0
    6.7095   -6.2215   -0.5433 O   0  0  0  0  0  0  0  0  0  0  0  0
    7.4470   -7.3051   -0.1005 C   0  0  0  0  0  0  0  0  0  0  0  0
    7.7803   -8.3038   -1.0095 C   0  0  0  0  0  0  0  0  0  0  0  0
    8.4907   -9.4414   -0.5957 C   0  0  0  0  0  0  0  0  0  0  0  0
    8.8235  -10.5160   -1.5877 C   0  0  0  0  0  0  0  0  0  0  0  0
    8.0680  -10.9004   -2.5503 N   0  0  0  0  0  0  0  0  0  0  0  0
   10.0346  -11.1473   -1.3701 N   0  0  0  0  0  0  0  0  0  0  0  0
    8.8631   -9.5491    0.7536 C   0  0  0  0  0  0  0  0  0  0  0  0
    8.5109   -8.5548    1.6679 C   0  0  0  0  0  0  0  0  0  0  0  0
    7.7991   -7.4237    1.2570 C   0  0  0  0  0  0  0  0  0  0  0  0
    7.5100   -6.4386    2.1571 O   0  0  0  0  0  0  0  0  0  0  0  0
    6.1425   -6.3283    2.5762 C   0  0  0  0  0  0  0  0  0  0  0  0
    6.0497   -5.2163    3.6007 C   0  0  0  0  0  0  0  0  0  0  0  0
    6.4731   -4.0532   -1.1051 N   0  0  0  0  0  0  0  0  0  0  0  0
    7.0902   -2.8835   -1.2710 C   0  0  0  0  0  0  0  0  0  0  0  0
    2.7937   -6.2471   -3.5647 H   0  0  0  0  0  0  0  0  0  0  0  0
    2.6442   -5.4196   -1.9904 H   0  0  0  0  0  0  0  0  0  0  0  0
    4.2495   -5.6163   -2.7411 H   0  0  0  0  0  0  0  0  0  0  0  0
    1.9445   -3.8740   -3.8467 H   0  0  0  0  0  0  0  0  0  0  0  0
    3.5320   -4.1086   -4.6471 H   0  0  0  0  0  0  0  0  0  0  0  0
    5.2534   -0.6064   -2.8651 H   0  0  0  0  0  0  0  0  0  0  0  0
    3.2297   -0.9049   -1.5896 H   0  0  0  0  0  0  0  0  0  0  0  0
    4.4856   -0.0653   -0.6876 H   0  0  0  0  0  0  0  0  0  0  0  0
    4.2035   -3.0459   -0.2253 H   0  0  0  0  0  0  0  0  0  0  0  0
    4.7104   -0.7029    1.7054 H   0  0  0  0  0  0  0  0  0  0  0  0
    5.9850   -1.7156    0.9907 H   0  0  0  0  0  0  0  0  0  0  0  0
    4.8046   -2.4324    2.1069 H   0  0  0  0  0  0  0  0  0  0  0  0
    2.2257   -0.9749    0.9045 H   0  0  0  0  0  0  0  0  0  0  0  0
    2.3615   -2.6630    1.4465 H   0  0  0  0  0  0  0  0  0  0  0  0
    1.8393   -2.3042   -0.2183 H   0  0  0  0  0  0  0  0  0  0  0  0
    6.6814    1.1684   -1.6021 H   0  0  0  0  0  0  0  0  0  0  0  0
    7.1940    0.6898   -3.2399 H   0  0  0  0  0  0  0  0  0  0  0  0
    8.4170    1.1505   -2.0271 H   0  0  0  0  0  0  0  0  0  0  0  0
    9.8823   -5.1118    1.8285 H   0  0  0  0  0  0  0  0  0  0  0  0
   11.5148   -6.5737    2.9935 H   0  0  0  0  0  0  0  0  0  0  0  0
   13.8553   -6.7778    2.1340 H   0  0  0  0  0  0  0  0  0  0  0  0
   14.5333   -5.5012    0.0974 H   0  0  0  0  0  0  0  0  0  0  0  0
   12.5986   -2.0990    0.4727 H   0  0  0  0  0  0  0  0  0  0  0  0
   11.6293   -1.1521   -0.6890 H   0  0  0  0  0  0  0  0  0  0  0  0
   13.3675   -0.7805   -0.4394 H   0  0  0  0  0  0  0  0  0  0  0  0
   13.5659   -2.7060   -3.5484 H   0  0  0  0  0  0  0  0  0  0  0  0
   14.2027   -1.2402   -2.7380 H   0  0  0  0  0  0  0  0  0  0  0  0
   12.4775   -1.3164   -3.2027 H   0  0  0  0  0  0  0  0  0  0  0  0
    7.5003   -8.1702   -2.0562 H   0  0  0  0  0  0  0  0  0  0  0  0
    7.1657  -10.4223   -2.5107 H   0  0  0  0  0  0  0  0  0  0  0  0
   10.7958  -10.5795   -1.0140 H   0  0  0  0  0  0  0  0  0  0  0  0
   10.2962  -11.7948   -2.1077 H   0  0  0  0  0  0  0  0  0  0  0  0
    9.4098  -10.4320    1.0903 H   0  0  0  0  0  0  0  0  0  0  0  0
    8.7820   -8.6355    2.7228 H   0  0  0  0  0  0  0  0  0  0  0  0
    5.8204   -7.2929    3.0109 H   0  0  0  0  0  0  0  0  0  0  0  0
    5.4988   -6.1205    1.7039 H   0  0  0  0  0  0  0  0  0  0  0  0
    6.6976   -5.4267    4.4657 H   0  0  0  0  0  0  0  0  0  0  0  0
    5.0131   -5.1152    3.9583 H   0  0  0  0  0  0  0  0  0  0  0  0
    6.3604   -4.2553    3.1629 H   0  0  0  0  0  0  0  0  0  0  0  0
  1  2  1  0
  1 46  1  0
  1 47  1  0
  1 48  1  0
  2  3  1  0
  2 49  1  0
  2 50  1  0
  3  4  1  0
  4  5  2  0
  4  6  1  0
  6  7  1  0
  6 11  1  0
  6 51  1  6
  7  8  1  0
  7 52  1  0
  7 53  1  0
  8  9  1  0
  8 10  1  0
  8 54  1  6
  9 55  1  0
  9 56  1  0
  9 57  1  0
 10 58  1  0
 10 59  1  0
 10 60  1  0
 11 12  1  0
 11 45  1  0
 12 13  1  0
 12 14  2  0
 13 61  1  0
 13 62  1  0
 13 63  1  0
 14 15  1  0
 15 16  1  0
 15 45  2  0
 16 17  1  0
 16 29  2  0
 17 18  1  0
 18 19  2  0
 18 23  1  0
 19 20  1  0
 19 64  1  0
 20 21  2  0
 20 65  1  0
 21 22  1  0
 21 66  1  0
 22 23  2  0
 22 67  1  0
 23 24  1  0
 24 25  2  0
 24 26  1  0
 26 27  1  0
 26 28  1  0
 27 68  1  0
 27 69  1  0
 27 70  1  0
 28 71  1  0
 28 72  1  0
 28 73  1  0
 29 30  1  0
 30 31  1  0
 30 44  2  0
 31 32  1  0
 32 33  2  0
 32 40  1  0
 33 34  1  0
 33 74  1  0
 34 35  1  0
 34 38  2  0
 35 36  2  0
 35 37  1  0
 36 75  1  0
 37 76  1  0
 37 77  1  0
 38 39  1  0
 38 78  1  0
 39 40  2  0
 39 79  1  0
 40 41  1  0
 41 42  1  0
 42 43  1  0
 42 80  1  0
 42 81  1  0
 43 82  1  0
 43 83  1  0
 43 84  1  0
 44 45  1  0
M  END

