
     RDKit          3D

 50 52  0  0  0  0  0  0  0  0999 V2000
    2.0319    1.0342   -0.8564 C   0  0  0  0  0  0  0  0  0  0  0  0
    2.7294    0.0617   -0.1059 O   0  0  0  0  0  0  0  0  0  0  0  0
    3.2944    0.4096    1.0768 C   0  0  0  0  0  0  0  0  0  0  0  0
    3.1789    1.6800    1.6619 C   0  0  0  0  0  0  0  0  0  0  0  0
    3.8415    1.9723    2.8555 C   0  0  0  0  0  0  0  0  0  0  0  0
    4.5863    0.9878    3.5121 C   0  0  0  0  0  0  0  0  0  0  0  0
    5.3072    1.2549    4.7160 N   0  0  0  0  0  0  0  0  0  0  0  0
    6.9563    1.7286    4.5754 S   0  0  1  0  0  0  0  0  0  0  0  0
    7.1683    2.4935    3.3464 O   0  0  0  0  0  0  0  0  0  0  0  0
    7.2743    2.3128    5.8805 O   0  0  0  0  0  0  0  0  0  0  0  0
    7.7789    0.1368    4.3721 C   0  0  0  0  0  0  0  0  0  0  0  0
    8.2931   -0.1245    3.1024 C   0  0  0  0  0  0  0  0  0  0  0  0
    8.8866   -1.3615    2.8705 C   0  0  0  0  0  0  0  0  0  0  0  0
    9.3934   -1.6736    1.5207 N   0  0  0  0  0  0  0  0  0  0  0  0
    9.5153   -0.7507    0.7379 O   0  0  0  0  0  0  0  0  0  0  0  0
    9.6729   -2.8398    1.2859 O   0  0  0  0  0  0  0  0  0  0  0  0
    8.9924   -2.3176    3.8757 C   0  0  0  0  0  0  0  0  0  0  0  0
    8.4949   -2.0199    5.1445 C   0  0  0  0  0  0  0  0  0  0  0  0
    7.8677   -0.7962    5.4325 C   0  0  0  0  0  0  0  0  0  0  0  0
    7.3204   -0.5359    6.8105 C   0  0  0  0  0  0  0  0  0  0  0  0
    4.6558   -0.2951    2.9547 C   0  0  0  0  0  0  0  0  0  0  0  0
    4.0430   -0.5929    1.7387 C   0  0  0  0  0  0  0  0  0  0  0  0
    4.1931   -1.8828    1.1444 N   0  0  0  0  0  0  0  0  0  0  0  0
    2.9868   -2.7246    1.0588 C   0  0  0  0  0  0  0  0  0  0  0  0
    3.1370   -3.8719    0.0679 C   0  0  0  0  0  0  0  0  0  0  0  0
    4.4374   -4.6290    0.3261 C   0  0  0  0  0  0  0  0  0  0  0  0
    5.6170   -3.6730    0.1573 C   0  0  0  0  0  0  0  0  0  0  0  0
    5.4724   -2.3170    0.8390 C   0  0  0  0  0  0  0  0  0  0  0  0
    6.4566   -1.6278    1.0538 O   0  0  0  0  0  0  0  0  0  0  0  0
    1.7011    0.5372   -1.7779 H   0  0  0  0  0  0  0  0  0  0  0  0
    2.6820    1.8861   -1.1213 H   0  0  0  0  0  0  0  0  0  0  0  0
    1.1460    1.4130   -0.3161 H   0  0  0  0  0  0  0  0  0  0  0  0
    2.6043    2.4643    1.1701 H   0  0  0  0  0  0  0  0  0  0  0  0
    3.7916    2.9824    3.2685 H   0  0  0  0  0  0  0  0  0  0  0  0
    4.8761    1.9362    5.3427 H   0  0  0  0  0  0  0  0  0  0  0  0
    8.2062    0.6044    2.2984 H   0  0  0  0  0  0  0  0  0  0  0  0
    9.4553   -3.2785    3.6518 H   0  0  0  0  0  0  0  0  0  0  0  0
    8.5855   -2.7627    5.9409 H   0  0  0  0  0  0  0  0  0  0  0  0
    7.4577   -1.4158    7.4542 H   0  0  0  0  0  0  0  0  0  0  0  0
    6.2471   -0.2938    6.7637 H   0  0  0  0  0  0  0  0  0  0  0  0
    7.8122    0.3327    7.2715 H   0  0  0  0  0  0  0  0  0  0  0  0
    5.2246   -1.0706    3.4657 H   0  0  0  0  0  0  0  0  0  0  0  0
    2.1460   -2.0802    0.7682 H   0  0  0  0  0  0  0  0  0  0  0  0
    2.7589   -3.1265    2.0654 H   0  0  0  0  0  0  0  0  0  0  0  0
    3.1367   -3.4717   -0.9612 H   0  0  0  0  0  0  0  0  0  0  0  0
    2.2592   -4.5323    0.1577 H   0  0  0  0  0  0  0  0  0  0  0  0
    4.5421   -5.4879   -0.3560 H   0  0  0  0  0  0  0  0  0  0  0  0
    4.4256   -5.0421    1.3509 H   0  0  0  0  0  0  0  0  0  0  0  0
    5.7706   -3.4464   -0.9133 H   0  0  0  0  0  0  0  0  0  0  0  0
    6.5693   -4.0947    0.5116 H   0  0  0  0  0  0  0  0  0  0  0  0
  1  2  1  0
  1 30  1  0
  1 31  1  0
  1 32  1  0
  2  3  1  0
  3  4  2  0
  3 22  1  0
  4  5  1  0
  4 33  1  0
  5  6  2  0
  5 34  1  0
  6  7  1  0
  6 21  1  0
  8  7  1  1
  7 35  1  0
  8  9  2  0
  8 10  2  0
  8 11  1  0
 11 12  2  0
 11 19  1  0
 12 13  1  0
 12 36  1  0
 13 14  1  0
 13 17  2  0
 14 15  2  0
 14 16  1  0
 17 18  1  0
 17 37  1  0
 18 19  2  0
 18 38  1  0
 19 20  1  0
 20 39  1  0
 20 40  1  0
 20 41  1  0
 21 22  2  0
 21 42  1  0
 22 23  1  0
 23 24  1  0
 23 28  1  0
 24 25  1  0
 24 43  1  0
 24 44  1  0
 25 26  1  0
 25 45  1  0
 25 46  1  0
 26 27  1  0
 26 47  1  0
 26 48  1  0
 27 28  1  0
 27 49  1  0
 27 50  1  0
 28 29  2  0
M  CHG  2  14   1  16  -1
M  END

