
     RDKit          3D

 38 40  0  0  0  0  0  0  0  0999 V2000
    0.8929   -0.1724    0.0238 F   0  0  0  0  0  0  0  0  0  0  0  0
    2.3018   -0.0970   -0.1096 C   0  0  1  0  0  0  0  0  0  0  0  0
    2.8780   -0.0215    1.3162 C   0  0  0  0  0  0  0  0  0  0  0  0
    2.5764   -1.2216    2.1849 C   0  0  0  0  0  0  0  0  0  0  0  0
    1.2748   -1.3940    2.7496 C   0  0  0  0  0  0  0  0  0  0  0  0
    1.0221   -2.4896    3.5399 C   0  0  0  0  0  0  0  0  0  0  0  0
    2.0566   -3.4330    3.7846 C   0  0  0  0  0  0  0  0  0  0  0  0
    1.8918   -4.5920    4.5907 C   0  0  0  0  0  0  0  0  0  0  0  0
    2.9418   -5.4664    4.7826 C   0  0  0  0  0  0  0  0  0  0  0  0
    4.1999   -5.2167    4.1760 C   0  0  0  0  0  0  0  0  0  0  0  0
    4.3898   -4.0998    3.3890 C   0  0  0  0  0  0  0  0  0  0  0  0
    3.3271   -3.1786    3.1713 C   0  0  0  0  0  0  0  0  0  0  0  0
    3.5528   -2.0853    2.3911 N   0  0  0  0  0  0  0  0  0  0  0  0
    2.6866   -1.3564   -0.8999 C   0  0  0  0  0  0  0  0  0  0  0  0
    4.1741   -1.5680   -1.2030 C   0  0  0  0  0  0  0  0  0  0  0  0
    4.8959   -0.3865   -1.8647 C   0  0  0  0  0  0  0  0  0  0  0  0
    5.0271    0.7501   -0.9586 N   0  0  0  0  0  0  0  0  0  0  0  0
    3.9774    1.7581   -0.9515 C   0  0  0  0  0  0  0  0  0  0  0  0
    2.5480    1.1912   -0.9131 C   0  0  0  0  0  0  0  0  0  0  0  0
    2.4638    0.8870    1.7854 H   0  0  0  0  0  0  0  0  0  0  0  0
    3.9671    0.0909    1.2422 H   0  0  0  0  0  0  0  0  0  0  0  0
    0.4982   -0.6595    2.5331 H   0  0  0  0  0  0  0  0  0  0  0  0
    0.0347   -2.6459    3.9844 H   0  0  0  0  0  0  0  0  0  0  0  0
    0.9194   -4.7790    5.0553 H   0  0  0  0  0  0  0  0  0  0  0  0
    2.8082   -6.3559    5.4033 H   0  0  0  0  0  0  0  0  0  0  0  0
    5.0230   -5.9177    4.3372 H   0  0  0  0  0  0  0  0  0  0  0  0
    5.3490   -3.8850    2.9134 H   0  0  0  0  0  0  0  0  0  0  0  0
    2.1128   -1.3111   -1.8418 H   0  0  0  0  0  0  0  0  0  0  0  0
    2.3037   -2.2305   -0.3498 H   0  0  0  0  0  0  0  0  0  0  0  0
    4.2599   -2.4498   -1.8621 H   0  0  0  0  0  0  0  0  0  0  0  0
    4.7069   -1.8152   -0.2707 H   0  0  0  0  0  0  0  0  0  0  0  0
    4.3988   -0.1183   -2.8237 H   0  0  0  0  0  0  0  0  0  0  0  0
    5.9117   -0.7170   -2.1357 H   0  0  0  0  0  0  0  0  0  0  0  0
    5.9355    1.1943   -1.0535 H   0  0  0  0  0  0  0  0  0  0  0  0
    4.0257    2.4443   -1.8273 H   0  0  0  0  0  0  0  0  0  0  0  0
    4.1404    2.3918   -0.0624 H   0  0  0  0  0  0  0  0  0  0  0  0
    2.1861    1.0024   -1.9365 H   0  0  0  0  0  0  0  0  0  0  0  0
    1.8814    1.9645   -0.4986 H   0  0  0  0  0  0  0  0  0  0  0  0
  2  1  1  1
  2  3  1  0
  2 14  1  0
  2 19  1  0
  3  4  1  0
  3 20  1  0
  3 21  1  0
  4  5  2  0
  4 13  1  0
  5  6  1  0
  5 22  1  0
  6  7  2  0
  6 23  1  0
  7  8  1  0
  7 12  1  0
  8  9  2  0
  8 24  1  0
  9 10  1  0
  9 25  1  0
 10 11  2  0
 10 26  1  0
 11 12  1  0
 11 27  1  0
 12 13  2  0
 14 15  1  0
 14 28  1  0
 14 29  1  0
 15 16  1  0
 15 30  1  0
 15 31  1  0
 16 17  1  0
 16 32  1  0
 16 33  1  0
 17 18  1  0
 17 34  1  0
 18 19  1  0
 18 35  1  0
 18 36  1  0
 19 37  1  0
 19 38  1  0
M  END

