
     RDKit          3D

 22 24  0  0  0  0  0  0  0  0999 V2000
    3.8236   -3.4028    0.0833 N   0  0  0  0  0  0  0  0  0  0  0  0
    4.1956   -2.3035    0.0834 C   0  0  0  0  0  0  0  0  0  0  0  0
    4.6536   -0.9457    0.0838 C   0  0  0  0  0  0  0  0  0  0  0  0
    5.9936   -0.6665    0.0768 N   0  0  0  0  0  0  0  0  0  0  0  0
    6.2379    0.6150    0.0782 C   0  0  0  0  0  0  0  0  0  0  0  0
    7.5810    1.2074    0.0718 C   0  0  0  0  0  0  0  0  0  0  0  0
    8.6950    0.3481    0.0638 C   0  0  0  0  0  0  0  0  0  0  0  0
   10.0077    0.8438    0.0575 C   0  0  0  0  0  0  0  0  0  0  0  0
   10.1631    2.2207    0.0598 C   0  0  0  0  0  0  0  0  0  0  0  0
    9.0615    3.0840    0.0678 C   0  0  0  0  0  0  0  0  0  0  0  0
    7.7644    2.6146    0.0738 C   0  0  0  0  0  0  0  0  0  0  0  0
    9.4997    4.3763    0.0672 O   0  0  0  0  0  0  0  0  0  0  0  0
   10.9253    4.3267    0.0662 C   0  0  0  0  0  0  0  0  0  0  0  0
   11.3106    2.9516    0.0541 O   0  0  0  0  0  0  0  0  0  0  0  0
    4.7726    1.6102    0.0888 S   0  0  0  0  0  0  0  0  0  0  0  0
    3.8217    0.1614    0.0910 C   0  0  0  0  0  0  0  0  0  0  0  0
    1.9542    0.1962    0.1018 Br  0  0  0  0  0  0  0  0  0  0  0  0
    8.5150   -0.7275    0.0625 H   0  0  0  0  0  0  0  0  0  0  0  0
   10.8714    0.1779    0.0511 H   0  0  0  0  0  0  0  0  0  0  0  0
    6.9271    3.3145    0.0798 H   0  0  0  0  0  0  0  0  0  0  0  0
   11.3169    4.8140    0.9771 H   0  0  0  0  0  0  0  0  0  0  0  0
   11.3163    4.8299   -0.8359 H   0  0  0  0  0  0  0  0  0  0  0  0
  1  2  3  0
  2  3  1  0
  3  4  1  0
  3 16  2  0
  4  5  2  0
  5  6  1  0
  5 15  1  0
  6  7  2  0
  6 11  1  0
  7  8  1  0
  7 18  1  0
  8  9  2  0
  8 19  1  0
  9 10  1  0
  9 14  1  0
 10 11  2  0
 10 12  1  0
 11 20  1  0
 12 13  1  0
 13 14  1  0
 13 21  1  0
 13 22  1  0
 15 16  1  0
 16 17  1  0
M  END

