
     RDKit          3D

 49 51  0  0  0  0  0  0  0  0999 V2000
   13.1165    0.0925   -7.8074 C   0  0  0  0  0  0  0  0  0  0  0  0
   12.2228   -0.5634   -6.7849 C   0  0  0  0  0  0  0  0  0  0  0  0
   11.0681    0.0856   -6.3143 C   0  0  0  0  0  0  0  0  0  0  0  0
   10.2515   -0.5013   -5.3479 C   0  0  0  0  0  0  0  0  0  0  0  0
   10.5983   -1.7578   -4.8452 C   0  0  0  0  0  0  0  0  0  0  0  0
    9.5570   -2.5194   -3.6175 S   0  0  1  0  0  0  0  0  0  0  0  0
    8.2030   -1.9791   -3.7047 O   0  0  0  0  0  0  0  0  0  0  0  0
    9.7902   -3.9625   -3.6188 O   0  0  0  0  0  0  0  0  0  0  0  0
   10.2767   -1.8845   -2.2733 O   0  0  0  0  0  0  0  0  0  0  0  0
    9.5002   -1.7977   -1.0500 C   0  0  2  0  0  0  0  0  0  0  0  0
    8.5206   -1.3516   -1.2722 H   0  0  0  0  0  0  0  0  0  0  0  0
   10.3495   -1.0113   -0.0535 C   0  0  0  0  0  0  0  0  0  0  0  0
   11.3578   -2.0389    0.5300 C   0  0  0  0  0  0  0  0  0  0  0  0
   10.8243   -3.4376    0.1130 C   0  0  0  0  0  0  0  0  0  0  0  0
    9.4066   -3.1966   -0.4027 C   0  0  1  0  0  0  0  0  0  0  0  0
    9.0286   -3.9708   -1.0853 H   0  0  0  0  0  0  0  0  0  0  0  0
    8.5489   -3.1278    0.7663 O   0  0  0  0  0  0  0  0  0  0  0  0
    6.9138   -3.0721    0.5389 S   0  0  1  0  0  0  0  0  0  0  0  0
    6.5174   -1.6695    0.4289 O   0  0  0  0  0  0  0  0  0  0  0  0
    6.5685   -4.0327   -0.5057 O   0  0  0  0  0  0  0  0  0  0  0  0
    6.4156   -3.6977    2.1301 C   0  0  0  0  0  0  0  0  0  0  0  0
    6.1428   -2.8007    3.1635 C   0  0  0  0  0  0  0  0  0  0  0  0
    5.7497   -3.3035    4.4058 C   0  0  0  0  0  0  0  0  0  0  0  0
    5.6220   -4.6842    4.6248 C   0  0  0  0  0  0  0  0  0  0  0  0
    5.1853   -5.2269    5.9625 C   0  0  0  0  0  0  0  0  0  0  0  0
    5.8972   -5.5600    3.5580 C   0  0  0  0  0  0  0  0  0  0  0  0
    6.2909   -5.0787    2.3115 C   0  0  0  0  0  0  0  0  0  0  0  0
   11.7311   -2.4366   -5.3001 C   0  0  0  0  0  0  0  0  0  0  0  0
   12.5351   -1.8320   -6.2665 C   0  0  0  0  0  0  0  0  0  0  0  0
   12.5613    0.8087   -8.4313 H   0  0  0  0  0  0  0  0  0  0  0  0
   13.5868   -0.6504   -8.4694 H   0  0  0  0  0  0  0  0  0  0  0  0
   13.9312    0.6505   -7.3133 H   0  0  0  0  0  0  0  0  0  0  0  0
   10.7992    1.0657   -6.7174 H   0  0  0  0  0  0  0  0  0  0  0  0
    9.3465   -0.0046   -4.9938 H   0  0  0  0  0  0  0  0  0  0  0  0
    9.6783   -0.6308    0.7299 H   0  0  0  0  0  0  0  0  0  0  0  0
   10.8269   -0.1491   -0.5403 H   0  0  0  0  0  0  0  0  0  0  0  0
   11.4240   -1.9426    1.6237 H   0  0  0  0  0  0  0  0  0  0  0  0
   12.3707   -1.8754    0.1334 H   0  0  0  0  0  0  0  0  0  0  0  0
   10.8214   -4.1721    0.9308 H   0  0  0  0  0  0  0  0  0  0  0  0
   11.4163   -3.8538   -0.7148 H   0  0  0  0  0  0  0  0  0  0  0  0
    6.2292   -1.7272    2.9878 H   0  0  0  0  0  0  0  0  0  0  0  0
    5.5336   -2.6070    5.2202 H   0  0  0  0  0  0  0  0  0  0  0  0
    5.1067   -4.4320    6.7179 H   0  0  0  0  0  0  0  0  0  0  0  0
    5.8935   -5.9845    6.3357 H   0  0  0  0  0  0  0  0  0  0  0  0
    4.2004   -5.7179    5.8864 H   0  0  0  0  0  0  0  0  0  0  0  0
    5.7958   -6.6386    3.7071 H   0  0  0  0  0  0  0  0  0  0  0  0
    6.4908   -5.7565    1.4796 H   0  0  0  0  0  0  0  0  0  0  0  0
   11.9630   -3.4282   -4.9082 H   0  0  0  0  0  0  0  0  0  0  0  0
   13.4205   -2.3599   -6.6314 H   0  0  0  0  0  0  0  0  0  0  0  0
  1  2  1  0
  1 30  1  0
  1 31  1  0
  1 32  1  0
  2  3  2  0
  2 29  1  0
  3  4  1  0
  3 33  1  0
  4  5  2  0
  4 34  1  0
  5  6  1  0
  5 28  1  0
  6  7  2  0
  6  8  2  0
  6  9  1  1
  9 10  1  0
 10 11  1  6
 10 12  1  0
 10 15  1  0
 12 13  1  0
 12 35  1  0
 12 36  1  0
 13 14  1  0
 13 37  1  0
 13 38  1  0
 14 15  1  0
 14 39  1  0
 14 40  1  0
 15 16  1  6
 15 17  1  0
 18 17  1  1
 18 19  2  0
 18 20  2  0
 18 21  1  0
 21 22  2  0
 21 27  1  0
 22 23  1  0
 22 41  1  0
 23 24  2  0
 23 42  1  0
 24 25  1  0
 24 26  1  0
 25 43  1  0
 25 44  1  0
 25 45  1  0
 26 27  2  0
 26 46  1  0
 27 47  1  0
 28 29  2  0
 28 48  1  0
 29 49  1  0
M  END

