
     RDKit          3D

 46 48  0  0  0  0  0  0  0  0999 V2000
    6.8248   -9.8128    1.3363 C   0  0  0  0  0  0  0  0  0  0  0  0
    5.3306   -9.8329    0.9701 C   0  0  0  0  0  0  0  0  0  0  0  0
    5.0752   -9.7270   -0.5155 C   0  0  0  0  0  0  0  0  0  0  0  0
    4.8282  -10.8446   -1.2565 C   0  0  0  0  0  0  0  0  0  0  0  0
    4.6438  -10.8218   -2.7002 C   0  0  0  0  0  0  0  0  0  0  0  0
    4.4961  -11.7726   -3.4246 O   0  0  0  0  0  0  0  0  0  0  0  0
    4.6479   -9.5577   -3.2832 O   0  0  0  0  0  0  0  0  0  0  0  0
    4.8941   -8.4211   -2.5876 C   0  0  0  0  0  0  0  0  0  0  0  0
    4.9154   -7.2368   -3.3328 C   0  0  0  0  0  0  0  0  0  0  0  0
    5.2084   -6.0316   -2.6904 C   0  0  0  0  0  0  0  0  0  0  0  0
    5.3367   -4.8297   -3.3129 O   0  0  0  0  0  0  0  0  0  0  0  0
    4.8533   -4.5991   -4.6461 C   0  0  2  0  0  0  0  0  0  0  0  0
    5.1270   -3.5442   -4.8148 H   0  0  0  0  0  0  0  0  0  0  0  0
    3.3434   -4.7295   -4.7816 C   0  0  0  0  0  0  0  0  0  0  0  0
    5.6340   -5.4043   -5.7129 C   0  0  0  0  0  0  0  0  0  0  0  0
    5.0842   -5.8126   -6.7243 O   0  0  0  0  0  0  0  0  0  0  0  0
    6.9589   -5.5533   -5.4551 N   0  0  0  0  0  0  0  0  0  0  0  0
    7.8403   -6.3299   -6.3217 C   0  0  0  0  0  0  0  0  0  0  0  0
    8.0064   -7.7678   -5.8598 C   0  0  0  0  0  0  0  0  0  0  0  0
    6.9907   -8.7147   -6.0749 C   0  0  0  0  0  0  0  0  0  0  0  0
    7.1556  -10.0055   -5.5723 C   0  0  0  0  0  0  0  0  0  0  0  0
    8.3392  -10.3116   -4.8944 C   0  0  0  0  0  0  0  0  0  0  0  0
    9.2978   -9.3059   -4.7459 C   0  0  0  0  0  0  0  0  0  0  0  0
    9.1377   -8.0620   -5.2076 N   0  0  0  0  0  0  0  0  0  0  0  0
    5.4418   -6.0205   -1.2974 C   0  0  0  0  0  0  0  0  0  0  0  0
    5.3965   -7.2002   -0.5739 C   0  0  0  0  0  0  0  0  0  0  0  0
    5.1288   -8.4416   -1.1956 C   0  0  0  0  0  0  0  0  0  0  0  0
    6.9555   -9.8941    2.4268 H   0  0  0  0  0  0  0  0  0  0  0  0
    7.3171   -8.8857    1.0047 H   0  0  0  0  0  0  0  0  0  0  0  0
    7.3544  -10.6561    0.8667 H   0  0  0  0  0  0  0  0  0  0  0  0
    4.8091   -9.0159    1.4958 H   0  0  0  0  0  0  0  0  0  0  0  0
    4.8829  -10.7701    1.3354 H   0  0  0  0  0  0  0  0  0  0  0  0
    4.7804  -11.8352   -0.8007 H   0  0  0  0  0  0  0  0  0  0  0  0
    4.7219   -7.3107   -4.4006 H   0  0  0  0  0  0  0  0  0  0  0  0
    3.0503   -4.4378   -5.7991 H   0  0  0  0  0  0  0  0  0  0  0  0
    2.8475   -4.0656   -4.0586 H   0  0  0  0  0  0  0  0  0  0  0  0
    2.9923   -5.7573   -4.6193 H   0  0  0  0  0  0  0  0  0  0  0  0
    7.3005   -5.2757   -4.5410 H   0  0  0  0  0  0  0  0  0  0  0  0
    8.8327   -5.8580   -6.3375 H   0  0  0  0  0  0  0  0  0  0  0  0
    7.4043   -6.2941   -7.3294 H   0  0  0  0  0  0  0  0  0  0  0  0
    6.0864   -8.4270   -6.6161 H   0  0  0  0  0  0  0  0  0  0  0  0
    6.3696  -10.7556   -5.6900 H   0  0  0  0  0  0  0  0  0  0  0  0
    8.5151  -11.3094   -4.4861 H   0  0  0  0  0  0  0  0  0  0  0  0
   10.2400   -9.5138   -4.2241 H   0  0  0  0  0  0  0  0  0  0  0  0
    5.6581   -5.0656   -0.8160 H   0  0  0  0  0  0  0  0  0  0  0  0
    5.5749   -7.1647    0.5019 H   0  0  0  0  0  0  0  0  0  0  0  0
  1  2  1  0
  1 28  1  0
  1 29  1  0
  1 30  1  0
  2  3  1  0
  2 31  1  0
  2 32  1  0
  3  4  2  0
  3 27  1  0
  4  5  1  0
  4 33  1  0
  5  6  2  0
  5  7  1  0
  7  8  1  0
  8  9  1  0
  8 27  2  0
  9 10  2  0
  9 34  1  0
 10 11  1  0
 10 25  1  0
 11 12  1  0
 12 13  1  6
 12 14  1  0
 12 15  1  0
 14 35  1  0
 14 36  1  0
 14 37  1  0
 15 16  2  0
 15 17  1  0
 17 18  1  0
 17 38  1  0
 18 19  1  0
 18 39  1  0
 18 40  1  0
 19 20  2  0
 19 24  1  0
 20 21  1  0
 20 41  1  0
 21 22  2  0
 21 42  1  0
 22 23  1  0
 22 43  1  0
 23 24  2  0
 23 44  1  0
 25 26  2  0
 25 45  1  0
 26 27  1  0
 26 46  1  0
M  END

