
     RDKit          3D

 47 49  0  0  0  0  0  0  0  0999 V2000
    3.6050    1.3218    1.6895 C   0  0  0  0  0  0  0  0  0  0  0  0
    2.4559    0.8712    1.0080 O   0  0  0  0  0  0  0  0  0  0  0  0
    2.2916   -0.4615    0.7970 C   0  0  0  0  0  0  0  0  0  0  0  0
    1.1319   -0.8464    0.1122 C   0  0  0  0  0  0  0  0  0  0  0  0
    0.8833   -2.1962   -0.1468 C   0  0  0  0  0  0  0  0  0  0  0  0
    1.7862   -3.1755    0.2735 C   0  0  0  0  0  0  0  0  0  0  0  0
    1.6403   -4.5246    0.0757 O   0  0  0  0  0  0  0  0  0  0  0  0
    0.5367   -4.9947   -0.6652 C   0  0  0  0  0  0  0  0  0  0  0  0
    2.9586   -2.7878    0.9629 C   0  0  0  0  0  0  0  0  0  0  0  0
    3.8197   -3.8280    1.3493 N   0  0  0  0  0  0  0  0  0  0  0  0
    4.9981   -3.7573    2.0263 C   0  0  0  0  0  0  0  0  0  0  0  0
    5.5409   -2.7448    2.4337 O   0  0  0  0  0  0  0  0  0  0  0  0
    5.6791   -5.1063    2.2702 C   0  0  0  0  0  0  0  0  0  0  0  0
    4.8593   -6.2027    1.8524 O   0  0  0  0  0  0  0  0  0  0  0  0
    5.4404   -7.2361    1.2054 C   0  0  0  0  0  0  0  0  0  0  0  0
    6.6227   -7.3252    0.9702 O   0  0  0  0  0  0  0  0  0  0  0  0
    4.4521   -8.2495    0.8113 C   0  0  0  0  0  0  0  0  0  0  0  0
    3.0772   -8.3706    0.9649 C   0  0  0  0  0  0  0  0  0  0  0  0
    2.7501   -9.6000    0.3338 C   0  0  0  0  0  0  0  0  0  0  0  0
    1.4312  -10.2399    0.1825 C   0  0  0  0  0  0  0  0  0  0  0  0
    0.2781   -9.6799    0.7586 C   0  0  0  0  0  0  0  0  0  0  0  0
   -0.9709  -10.2855    0.6105 C   0  0  0  0  0  0  0  0  0  0  0  0
   -1.0751  -11.4700   -0.1230 C   0  0  0  0  0  0  0  0  0  0  0  0
   -2.7767  -12.3042   -0.3322 Br  0  0  0  0  0  0  0  0  0  0  0  0
    0.0576  -12.0493   -0.7038 C   0  0  0  0  0  0  0  0  0  0  0  0
    1.2990  -11.4344   -0.5488 C   0  0  0  0  0  0  0  0  0  0  0  0
    3.8572  -10.1779   -0.1643 N   0  0  0  0  0  0  0  0  0  0  0  0
    4.8544   -9.3595    0.1317 N   0  0  0  0  0  0  0  0  0  0  0  0
    5.8102   -9.5713   -0.1382 H   0  0  0  0  0  0  0  0  0  0  0  0
    3.2092   -1.4341    1.2242 C   0  0  0  0  0  0  0  0  0  0  0  0
    3.5272    2.4162    1.7435 H   0  0  0  0  0  0  0  0  0  0  0  0
    4.5340    1.0548    1.1542 H   0  0  0  0  0  0  0  0  0  0  0  0
    3.6627    0.9158    2.7154 H   0  0  0  0  0  0  0  0  0  0  0  0
    0.4321   -0.0745   -0.2122 H   0  0  0  0  0  0  0  0  0  0  0  0
   -0.0255   -2.4754   -0.6806 H   0  0  0  0  0  0  0  0  0  0  0  0
    0.6378   -6.0869   -0.7245 H   0  0  0  0  0  0  0  0  0  0  0  0
    0.5260   -4.5800   -1.6892 H   0  0  0  0  0  0  0  0  0  0  0  0
   -0.4217   -4.7493   -0.1729 H   0  0  0  0  0  0  0  0  0  0  0  0
    3.4981   -4.7560    1.0901 H   0  0  0  0  0  0  0  0  0  0  0  0
    5.8813   -5.1936    3.3491 H   0  0  0  0  0  0  0  0  0  0  0  0
    6.6421   -5.1274    1.7393 H   0  0  0  0  0  0  0  0  0  0  0  0
    2.4220   -7.6592    1.4587 H   0  0  0  0  0  0  0  0  0  0  0  0
    0.3472   -8.7586    1.3412 H   0  0  0  0  0  0  0  0  0  0  0  0
   -1.8576   -9.8409    1.0653 H   0  0  0  0  0  0  0  0  0  0  0  0
   -0.0317  -12.9754   -1.2742 H   0  0  0  0  0  0  0  0  0  0  0  0
    2.1882  -11.8787   -0.9989 H   0  0  0  0  0  0  0  0  0  0  0  0
    4.1206   -1.1796    1.7568 H   0  0  0  0  0  0  0  0  0  0  0  0
  1  2  1  0
  1 31  1  0
  1 32  1  0
  1 33  1  0
  2  3  1  0
  3  4  2  0
  3 30  1  0
  4  5  1  0
  4 34  1  0
  5  6  2  0
  5 35  1  0
  6  7  1  0
  6  9  1  0
  7  8  1  0
  8 36  1  0
  8 37  1  0
  8 38  1  0
  9 10  1  0
  9 30  2  0
 10 11  1  0
 10 39  1  0
 11 12  2  0
 11 13  1  0
 13 14  1  0
 13 40  1  0
 13 41  1  0
 14 15  1  0
 15 16  2  0
 15 17  1  0
 17 18  2  0
 17 28  1  0
 18 19  1  0
 18 42  1  0
 19 20  1  0
 19 27  2  0
 20 21  2  0
 20 26  1  0
 21 22  1  0
 21 43  1  0
 22 23  2  0
 22 44  1  0
 23 24  1  0
 23 25  1  0
 25 26  2  0
 25 45  1  0
 26 46  1  0
 27 28  1  0
 28 29  1  0
 30 47  1  0
M  END

