
     RDKit          3D

 47 51  0  0  0  0  0  0  0  0999 V2000
    2.7368   -1.7114    0.1162 O   0  0  0  0  0  0  0  0  0  0  0  0
    2.3584   -0.6871   -0.4258 C   0  0  0  0  0  0  0  0  0  0  0  0
    0.8570   -0.4749   -0.7210 C   0  0  0  0  0  0  0  0  0  0  0  0
    0.5138   -0.6038   -2.1428 N   0  0  0  0  0  0  0  0  0  0  0  0
    0.0579   -1.8069   -2.6424 C   0  0  0  0  0  0  0  0  0  0  0  0
   -0.2963   -2.0221   -3.8599 N   0  0  0  0  0  0  0  0  0  0  0  0
   -0.2184   -0.9728   -4.7460 C   0  0  0  0  0  0  0  0  0  0  0  0
   -0.6078   -1.1439   -6.1025 C   0  0  0  0  0  0  0  0  0  0  0  0
   -1.1843   -2.6885   -6.6438 Cl  0  0  0  0  0  0  0  0  0  0  0  0
   -0.5348   -0.0897   -7.0032 C   0  0  0  0  0  0  0  0  0  0  0  0
   -0.0685    1.1685   -6.5776 C   0  0  0  0  0  0  0  0  0  0  0  0
    0.0112    2.4712   -7.7340 Cl  0  0  0  0  0  0  0  0  0  0  0  0
    0.3249    1.3783   -5.2645 C   0  0  0  0  0  0  0  0  0  0  0  0
    0.2468    0.3091   -4.3557 C   0  0  0  0  0  0  0  0  0  0  0  0
    0.6691    0.5187   -2.9653 C   0  0  0  0  0  0  0  0  0  0  0  0
    1.1256    1.5667   -2.5187 O   0  0  0  0  0  0  0  0  0  0  0  0
    3.1429    0.3543   -0.8243 N   0  0  0  0  0  0  0  0  0  0  0  0
    4.5482    0.4833   -0.7510 C   0  0  0  0  0  0  0  0  0  0  0  0
    5.3762   -0.4742   -0.1453 C   0  0  0  0  0  0  0  0  0  0  0  0
    6.7723   -0.2894   -0.0963 C   0  0  0  0  0  0  0  0  0  0  0  0
    7.2968    0.8595   -0.6578 C   0  0  0  0  0  0  0  0  0  0  0  0
    6.4702    1.8113   -1.2606 C   0  0  0  0  0  0  0  0  0  0  0  0
    5.1000    1.6564   -1.3269 C   0  0  0  0  0  0  0  0  0  0  0  0
    7.2321    2.8300   -1.7485 O   0  0  0  0  0  0  0  0  0  0  0  0
    8.5879    2.5899   -1.3321 C   0  0  2  0  0  0  0  0  0  0  0  0
    9.0723    3.6064   -0.2915 C   0  0  0  0  0  0  0  0  0  0  0  0
   10.5963    3.5203   -0.4174 C   0  0  0  0  0  0  0  0  0  0  0  0
   10.8207    3.4459   -1.9440 C   0  0  0  0  0  0  0  0  0  0  0  0
    9.5931    2.6791   -2.4978 C   0  0  0  0  0  0  0  0  0  0  0  0
    8.5979    1.2604   -0.7625 O   0  0  0  0  0  0  0  0  0  0  0  0
    0.5300    0.5207   -0.3892 H   0  0  0  0  0  0  0  0  0  0  0  0
    0.3173   -1.2463   -0.1605 H   0  0  0  0  0  0  0  0  0  0  0  0
    0.0072   -2.6186   -1.9075 H   0  0  0  0  0  0  0  0  0  0  0  0
   -0.8384   -0.2393   -8.0393 H   0  0  0  0  0  0  0  0  0  0  0  0
    0.6916    2.3457   -4.9217 H   0  0  0  0  0  0  0  0  0  0  0  0
    2.6461    1.1105   -1.2980 H   0  0  0  0  0  0  0  0  0  0  0  0
    4.9252   -1.3643    0.2859 H   0  0  0  0  0  0  0  0  0  0  0  0
    7.4186   -1.0344    0.3706 H   0  0  0  0  0  0  0  0  0  0  0  0
    4.4703    2.4074   -1.8076 H   0  0  0  0  0  0  0  0  0  0  0  0
    8.6725    3.3854    0.7088 H   0  0  0  0  0  0  0  0  0  0  0  0
    8.7098    4.6016   -0.5996 H   0  0  0  0  0  0  0  0  0  0  0  0
   10.9502    2.5942    0.0650 H   0  0  0  0  0  0  0  0  0  0  0  0
   11.1221    4.3628    0.0564 H   0  0  0  0  0  0  0  0  0  0  0  0
   11.7743    2.9643   -2.2061 H   0  0  0  0  0  0  0  0  0  0  0  0
   10.8514    4.4644   -2.3642 H   0  0  0  0  0  0  0  0  0  0  0  0
    9.8376    1.6605   -2.8306 H   0  0  0  0  0  0  0  0  0  0  0  0
    9.1131    3.1996   -3.3386 H   0  0  0  0  0  0  0  0  0  0  0  0
  1  2  2  0
  2  3  1  0
  2 17  1  0
  3  4  1  0
  3 31  1  0
  3 32  1  0
  4  5  1  0
  4 15  1  0
  5  6  2  0
  5 33  1  0
  6  7  1  0
  7  8  2  0
  7 14  1  0
  8  9  1  0
  8 10  1  0
 10 11  2  0
 10 34  1  0
 11 12  1  0
 11 13  1  0
 13 14  2  0
 13 35  1  0
 14 15  1  0
 15 16  2  0
 17 18  1  0
 17 36  1  0
 18 19  2  0
 18 23  1  0
 19 20  1  0
 19 37  1  0
 20 21  2  0
 20 38  1  0
 21 22  1  0
 21 30  1  0
 22 23  2  0
 22 24  1  0
 23 39  1  0
 25 24  1  6
 25 26  1  0
 25 29  1  0
 25 30  1  0
 26 27  1  0
 26 40  1  0
 26 41  1  0
 27 28  1  0
 27 42  1  0
 27 43  1  0
 28 29  1  0
 28 44  1  0
 28 45  1  0
 29 46  1  0
 29 47  1  0
M  END

