
     RDKit          3D

 68 69  0  0  0  0  0  0  0  0999 V2000
    6.7535    3.9148   -6.3735 C   0  0  0  0  0  0  0  0  0  0  0  0
    6.0748    3.4865   -5.0716 C   0  0  0  0  0  0  0  0  0  0  0  0
    4.7558    4.2188   -4.8079 C   0  0  0  0  0  0  0  0  0  0  0  0
    4.0328    3.7936   -3.5229 C   0  0  0  0  0  0  0  0  0  0  0  0
    4.7641    4.0924   -2.3026 N   0  0  0  0  0  0  0  0  0  0  0  0
    5.3640    3.1390   -1.5403 C   0  0  0  0  0  0  0  0  0  0  0  0
    5.3173    1.9386   -1.7720 O   0  0  0  0  0  0  0  0  0  0  0  0
    6.1671    3.7065   -0.3462 C   0  0  1  0  0  0  0  0  0  0  0  0
    6.2188    2.7110    0.8064 C   0  0  0  0  0  0  0  0  0  0  0  0
    7.5025    4.1256   -0.8338 N   0  0  0  0  0  0  0  0  0  0  0  0
    8.5147    3.0880   -1.0384 C   0  0  0  0  0  0  0  0  0  0  0  0
    9.4214    2.7875    0.1491 C   0  0  0  0  0  0  0  0  0  0  0  0
    9.8392    3.7864    1.0403 C   0  0  0  0  0  0  0  0  0  0  0  0
   10.7150    3.4838    2.0879 C   0  0  0  0  0  0  0  0  0  0  0  0
   11.1898    2.1820    2.2651 C   0  0  0  0  0  0  0  0  0  0  0  0
   10.7720    1.1891    1.3744 C   0  0  0  0  0  0  0  0  0  0  0  0
   11.3466   -0.4517    1.5789 Cl  0  0  0  0  0  0  0  0  0  0  0  0
    9.8950    1.4797    0.3260 C   0  0  0  0  0  0  0  0  0  0  0  0
    7.6226    5.4106   -1.2997 C   0  0  0  0  0  0  0  0  0  0  0  0
    6.6608    6.1796   -1.3232 O   0  0  0  0  0  0  0  0  0  0  0  0
    8.9855    5.8724   -1.8092 C   0  0  0  0  0  0  0  0  0  0  0  0
    9.1461    7.3964   -1.7970 C   0  0  0  0  0  0  0  0  0  0  0  0
    9.0352    8.0622   -0.4184 C   0  0  0  0  0  0  0  0  0  0  0  0
    9.8683    7.4100    0.6061 N   0  0  0  0  0  0  0  0  0  0  0  0
   11.3102    7.4299    0.3250 C   0  0  0  0  0  0  0  0  0  0  0  0
    9.5671    7.9622    2.2109 S   0  0  1  0  0  0  0  0  0  0  0  0
   10.4113    7.1322    3.0787 O   0  0  0  0  0  0  0  0  0  0  0  0
    9.6710    9.4265    2.2594 O   0  0  0  0  0  0  0  0  0  0  0  0
    7.8500    7.5312    2.5152 C   0  0  0  0  0  0  0  0  0  0  0  0
    7.5330    6.2408    2.9506 C   0  0  0  0  0  0  0  0  0  0  0  0
    6.2033    5.9403    3.2548 C   0  0  0  0  0  0  0  0  0  0  0  0
    5.2140    6.9228    3.1326 C   0  0  0  0  0  0  0  0  0  0  0  0
    5.5501    8.2146    2.7160 C   0  0  0  0  0  0  0  0  0  0  0  0
    6.8768    8.5296    2.4117 C   0  0  0  0  0  0  0  0  0  0  0  0
    7.6995    3.3733   -6.5341 H   0  0  0  0  0  0  0  0  0  0  0  0
    6.9831    4.9940   -6.3721 H   0  0  0  0  0  0  0  0  0  0  0  0
    6.1081    3.7191   -7.2464 H   0  0  0  0  0  0  0  0  0  0  0  0
    6.7609    3.6604   -4.2240 H   0  0  0  0  0  0  0  0  0  0  0  0
    5.8892    2.3982   -5.0844 H   0  0  0  0  0  0  0  0  0  0  0  0
    4.0652    4.0497   -5.6541 H   0  0  0  0  0  0  0  0  0  0  0  0
    4.9369    5.3099   -4.7809 H   0  0  0  0  0  0  0  0  0  0  0  0
    3.8569    2.7079   -3.5243 H   0  0  0  0  0  0  0  0  0  0  0  0
    3.0474    4.2892   -3.4779 H   0  0  0  0  0  0  0  0  0  0  0  0
    4.9801    5.0620   -2.0736 H   0  0  0  0  0  0  0  0  0  0  0  0
    5.6840    4.6320   -0.0085 H   0  0  0  0  0  0  0  0  0  0  0  0
    6.6010    1.7318    0.4894 H   0  0  0  0  0  0  0  0  0  0  0  0
    5.1972    2.5485    1.1821 H   0  0  0  0  0  0  0  0  0  0  0  0
    6.8380    3.0932    1.6296 H   0  0  0  0  0  0  0  0  0  0  0  0
    9.1374    3.3653   -1.9021 H   0  0  0  0  0  0  0  0  0  0  0  0
    7.9911    2.1692   -1.3440 H   0  0  0  0  0  0  0  0  0  0  0  0
    9.4882    4.8129    0.9256 H   0  0  0  0  0  0  0  0  0  0  0  0
   11.0265    4.2804    2.7689 H   0  0  0  0  0  0  0  0  0  0  0  0
   11.8716    1.9327    3.0797 H   0  0  0  0  0  0  0  0  0  0  0  0
    9.5799    0.6779   -0.3457 H   0  0  0  0  0  0  0  0  0  0  0  0
    9.0831    5.5165   -2.8512 H   0  0  0  0  0  0  0  0  0  0  0  0
    9.7977    5.3954   -1.2452 H   0  0  0  0  0  0  0  0  0  0  0  0
    8.3660    7.8485   -2.4280 H   0  0  0  0  0  0  0  0  0  0  0  0
   10.1120    7.6451   -2.2657 H   0  0  0  0  0  0  0  0  0  0  0  0
    7.9878    7.9977   -0.0938 H   0  0  0  0  0  0  0  0  0  0  0  0
    9.2950    9.1346   -0.5120 H   0  0  0  0  0  0  0  0  0  0  0  0
   11.5232    6.7740   -0.5311 H   0  0  0  0  0  0  0  0  0  0  0  0
   11.8536    7.0402    1.1944 H   0  0  0  0  0  0  0  0  0  0  0  0
   11.6797    8.4472    0.0955 H   0  0  0  0  0  0  0  0  0  0  0  0
    8.3187    5.4934    3.0662 H   0  0  0  0  0  0  0  0  0  0  0  0
    5.9408    4.9375    3.6000 H   0  0  0  0  0  0  0  0  0  0  0  0
    4.1759    6.6821    3.3752 H   0  0  0  0  0  0  0  0  0  0  0  0
    4.7788    8.9842    2.6357 H   0  0  0  0  0  0  0  0  0  0  0  0
    7.1678    9.5374    2.1114 H   0  0  0  0  0  0  0  0  0  0  0  0
  1  2  1  0
  1 35  1  0
  1 36  1  0
  1 37  1  0
  2  3  1  0
  2 38  1  0
  2 39  1  0
  3  4  1  0
  3 40  1  0
  3 41  1  0
  4  5  1  0
  4 42  1  0
  4 43  1  0
  5  6  1  0
  5 44  1  0
  6  7  2  0
  6  8  1  0
  8  9  1  0
  8 10  1  0
  8 45  1  1
  9 46  1  0
  9 47  1  0
  9 48  1  0
 10 11  1  0
 10 19  1  0
 11 12  1  0
 11 49  1  0
 11 50  1  0
 12 13  2  0
 12 18  1  0
 13 14  1  0
 13 51  1  0
 14 15  2  0
 14 52  1  0
 15 16  1  0
 15 53  1  0
 16 17  1  0
 16 18  2  0
 18 54  1  0
 19 20  2  0
 19 21  1  0
 21 22  1  0
 21 55  1  0
 21 56  1  0
 22 23  1  0
 22 57  1  0
 22 58  1  0
 23 24  1  0
 23 59  1  0
 23 60  1  0
 24 25  1  0
 26 24  1  6
 25 61  1  0
 25 62  1  0
 25 63  1  0
 26 27  2  0
 26 28  2  0
 26 29  1  0
 29 30  2  0
 29 34  1  0
 30 31  1  0
 30 64  1  0
 31 32  2  0
 31 65  1  0
 32 33  1  0
 32 66  1  0
 33 34  2  0
 33 67  1  0
 34 68  1  0
M  END

