
     RDKit          3D

 48 49  0  0  0  0  0  0  0  0999 V2000
    1.1895    0.4325    0.1336 C   0  0  0  0  0  0  0  0  0  0  0  0
    2.7082    0.4082    0.3119 C   0  0  0  0  0  0  0  0  0  0  0  0
    3.2734   -0.9939    0.5618 C   0  0  0  0  0  0  0  0  0  0  0  0
    4.7942   -1.0180    0.7465 C   0  0  0  0  0  0  0  0  0  0  0  0
    5.3644   -2.4217    1.0404 C   0  0  1  0  0  0  0  0  0  0  0  0
    5.0747   -3.4485    0.0265 N   0  0  0  0  0  0  0  0  0  0  0  0
    5.2883   -3.1795   -1.3996 C   0  0  1  0  0  0  0  0  0  0  0  0
    6.7697   -2.9540   -1.7199 C   0  0  0  0  0  0  0  0  0  0  0  0
    4.7120   -4.3559   -2.2123 C   0  0  1  0  0  0  0  0  0  0  0  0
    3.2095   -4.6408   -2.0082 C   0  0  0  0  0  0  0  0  0  0  0  0
    2.8590   -5.5682   -3.1789 C   0  0  0  0  0  0  0  0  0  0  0  0
    3.6506   -4.9900   -4.3732 C   0  0  0  0  0  0  0  0  0  0  0  0
    4.8311   -4.1925   -3.7498 C   0  0  0  0  0  0  0  0  0  0  0  0
    6.8452   -2.4350    1.4514 C   0  0  0  0  0  0  0  0  0  0  0  0
    7.6105   -1.2753    1.6421 C   0  0  0  0  0  0  0  0  0  0  0  0
    8.9436   -1.3520    2.0658 C   0  0  0  0  0  0  0  0  0  0  0  0
    9.5354   -2.5912    2.3122 C   0  0  0  0  0  0  0  0  0  0  0  0
    8.7823   -3.7569    2.1279 C   0  0  0  0  0  0  0  0  0  0  0  0
    7.4571   -3.6765    1.7003 C   0  0  0  0  0  0  0  0  0  0  0  0
    0.8185    1.4544   -0.0449 H   0  0  0  0  0  0  0  0  0  0  0  0
    0.6742    0.0434    1.0279 H   0  0  0  0  0  0  0  0  0  0  0  0
    0.8762   -0.1890   -0.7221 H   0  0  0  0  0  0  0  0  0  0  0  0
    2.9922    1.0696    1.1506 H   0  0  0  0  0  0  0  0  0  0  0  0
    3.1919    0.8382   -0.5841 H   0  0  0  0  0  0  0  0  0  0  0  0
    2.9828   -1.6517   -0.2760 H   0  0  0  0  0  0  0  0  0  0  0  0
    2.7924   -1.4241    1.4608 H   0  0  0  0  0  0  0  0  0  0  0  0
    5.0482   -0.3528    1.5884 H   0  0  0  0  0  0  0  0  0  0  0  0
    5.2853   -0.5818   -0.1413 H   0  0  0  0  0  0  0  0  0  0  0  0
    4.8246   -2.7792    1.9376 H   0  0  0  0  0  0  0  0  0  0  0  0
    4.1284   -3.7875    0.1642 H   0  0  0  0  0  0  0  0  0  0  0  0
    4.7361   -2.2702   -1.7329 H   0  0  0  0  0  0  0  0  0  0  0  0
    7.3650   -3.8421   -1.4557 H   0  0  0  0  0  0  0  0  0  0  0  0
    7.1844   -2.1022   -1.1637 H   0  0  0  0  0  0  0  0  0  0  0  0
    6.9055   -2.7451   -2.7916 H   0  0  0  0  0  0  0  0  0  0  0  0
    5.2663   -5.2622   -1.9053 H   0  0  0  0  0  0  0  0  0  0  0  0
    2.6372   -3.6969   -2.0858 H   0  0  0  0  0  0  0  0  0  0  0  0
    2.9715   -5.0940   -1.0321 H   0  0  0  0  0  0  0  0  0  0  0  0
    1.7765   -5.6368   -3.3702 H   0  0  0  0  0  0  0  0  0  0  0  0
    3.2095   -6.5889   -2.9490 H   0  0  0  0  0  0  0  0  0  0  0  0
    3.0106   -4.3220   -4.9717 H   0  0  0  0  0  0  0  0  0  0  0  0
    3.9958   -5.7819   -5.0558 H   0  0  0  0  0  0  0  0  0  0  0  0
    4.7517   -3.1248   -4.0162 H   0  0  0  0  0  0  0  0  0  0  0  0
    5.8080   -4.5349   -4.1224 H   0  0  0  0  0  0  0  0  0  0  0  0
    7.1784   -0.2908    1.4567 H   0  0  0  0  0  0  0  0  0  0  0  0
    9.5195   -0.4325    2.2018 H   0  0  0  0  0  0  0  0  0  0  0  0
   10.5751   -2.6511    2.6443 H   0  0  0  0  0  0  0  0  0  0  0  0
    9.2333   -4.7351    2.3171 H   0  0  0  0  0  0  0  0  0  0  0  0
    6.8734   -4.5843    1.5338 H   0  0  0  0  0  0  0  0  0  0  0  0
  1  2  1  0
  1 20  1  0
  1 21  1  0
  1 22  1  0
  2  3  1  0
  2 23  1  0
  2 24  1  0
  3  4  1  0
  3 25  1  0
  3 26  1  0
  4  5  1  0
  4 27  1  0
  4 28  1  0
  5  6  1  0
  5 14  1  0
  5 29  1  1
  6  7  1  0
  6 30  1  0
  7  8  1  0
  7  9  1  0
  7 31  1  6
  8 32  1  0
  8 33  1  0
  8 34  1  0
  9 10  1  0
  9 13  1  0
  9 35  1  1
 10 11  1  0
 10 36  1  0
 10 37  1  0
 11 12  1  0
 11 38  1  0
 11 39  1  0
 12 13  1  0
 12 40  1  0
 12 41  1  0
 13 42  1  0
 13 43  1  0
 14 15  2  0
 14 19  1  0
 15 16  1  0
 15 44  1  0
 16 17  2  0
 16 45  1  0
 17 18  1  0
 17 46  1  0
 18 19  2  0
 18 47  1  0
 19 48  1  0
M  END

