
     RDKit          3D

 43 47  0  0  0  0  0  0  0  0999 V2000
    1.1590   -0.0988    0.1046 N   0  0  0  0  0  0  0  0  0  0  0  0
    2.3189   -0.0446    0.0987 C   0  0  0  0  0  0  0  0  0  0  0  0
    3.7479    0.0209    0.0909 C   0  0  0  0  0  0  0  0  0  0  0  0
    4.4674    0.5777   -0.9832 C   0  0  0  0  0  0  0  0  0  0  0  0
    5.7915    0.6404   -0.9867 N   0  0  0  0  0  0  0  0  0  0  0  0
    6.4516    0.1447    0.0761 C   0  0  0  0  0  0  0  0  0  0  0  0
    7.9425    0.2129    0.0679 C   0  0  0  0  0  0  0  0  0  0  0  0
    8.5909    1.4643   -0.0998 C   0  0  0  0  0  0  0  0  0  0  0  0
    7.8727    2.7000   -0.2277 C   0  0  0  0  0  0  0  0  0  0  0  0
    8.5220    3.9011   -0.3636 C   0  0  0  0  0  0  0  0  0  0  0  0
    9.9433    3.9562   -0.3806 C   0  0  0  0  0  0  0  0  0  0  0  0
   10.6738    2.8033   -0.2513 C   0  0  0  0  0  0  0  0  0  0  0  0
   10.0380    1.5251   -0.1028 C   0  0  0  0  0  0  0  0  0  0  0  0
   10.7986    0.3431    0.0505 C   0  0  0  0  0  0  0  0  0  0  0  0
   12.2959    0.4110    0.0404 C   0  0  0  0  0  0  0  0  0  0  0  0
   13.0155    0.5499    1.2393 C   0  0  0  0  0  0  0  0  0  0  0  0
   14.4119    0.6136    1.2296 C   0  0  0  0  0  0  0  0  0  0  0  0
   15.1108    0.5385    0.0211 C   0  0  0  0  0  0  0  0  0  0  0  0
   14.4051    0.3996   -1.1777 C   0  0  0  0  0  0  0  0  0  0  0  0
   13.0086    0.3367   -1.1682 C   0  0  0  0  0  0  0  0  0  0  0  0
   10.1506   -0.9031    0.2125 C   0  0  0  0  0  0  0  0  0  0  0  0
   10.9018   -2.1180    0.3524 C   0  0  0  0  0  0  0  0  0  0  0  0
   10.2809   -3.3325    0.4900 C   0  0  0  0  0  0  0  0  0  0  0  0
    8.8604   -3.4070    0.4904 C   0  0  0  0  0  0  0  0  0  0  0  0
    8.1028   -2.2701    0.3632 C   0  0  0  0  0  0  0  0  0  0  0  0
    8.7040   -0.9742    0.2272 C   0  0  0  0  0  0  0  0  0  0  0  0
    5.8512   -0.4084    1.1461 N   0  0  0  0  0  0  0  0  0  0  0  0
    4.5270   -0.4670    1.1570 C   0  0  0  0  0  0  0  0  0  0  0  0
    3.9398    0.9784   -1.8565 H   0  0  0  0  0  0  0  0  0  0  0  0
    6.7848    2.6856   -0.2235 H   0  0  0  0  0  0  0  0  0  0  0  0
    7.9425    4.8229   -0.4579 H   0  0  0  0  0  0  0  0  0  0  0  0
   10.4499    4.9181   -0.4906 H   0  0  0  0  0  0  0  0  0  0  0  0
   11.7633    2.8450   -0.2544 H   0  0  0  0  0  0  0  0  0  0  0  0
   12.4724    0.6089    2.1860 H   0  0  0  0  0  0  0  0  0  0  0  0
   14.9558    0.7226    2.1716 H   0  0  0  0  0  0  0  0  0  0  0  0
   16.2026    0.5880    0.0136 H   0  0  0  0  0  0  0  0  0  0  0  0
   14.9436    0.3397   -2.1272 H   0  0  0  0  0  0  0  0  0  0  0  0
   12.4602    0.2281   -2.1074 H   0  0  0  0  0  0  0  0  0  0  0  0
   11.9906   -2.0603    0.3422 H   0  0  0  0  0  0  0  0  0  0  0  0
   10.8743   -4.2443    0.5934 H   0  0  0  0  0  0  0  0  0  0  0  0
    8.3684   -4.3777    0.5912 H   0  0  0  0  0  0  0  0  0  0  0  0
    7.0182   -2.3546    0.3723 H   0  0  0  0  0  0  0  0  0  0  0  0
    4.0477   -0.9137    2.0358 H   0  0  0  0  0  0  0  0  0  0  0  0
  1  2  3  0
  2  3  1  0
  3  4  2  0
  3 28  1  0
  4  5  1  0
  4 29  1  0
  5  6  2  0
  6  7  1  0
  6 27  1  0
  7  8  1  0
  7 26  2  0
  8  9  2  0
  8 13  1  0
  9 10  1  0
  9 30  1  0
 10 11  2  0
 10 31  1  0
 11 12  1  0
 11 32  1  0
 12 13  2  0
 12 33  1  0
 13 14  1  0
 14 15  1  0
 14 21  2  0
 15 16  2  0
 15 20  1  0
 16 17  1  0
 16 34  1  0
 17 18  2  0
 17 35  1  0
 18 19  1  0
 18 36  1  0
 19 20  2  0
 19 37  1  0
 20 38  1  0
 21 22  1  0
 21 26  1  0
 22 23  2  0
 22 39  1  0
 23 24  1  0
 23 40  1  0
 24 25  2  0
 24 41  1  0
 25 26  1  0
 25 42  1  0
 27 28  2  0
 28 43  1  0
M  END

