
     RDKit          3D

 40 41  0  0  0  0  0  0  0  0999 V2000
    0.9765   -0.6919    0.2430 C   0  0  0  0  0  0  0  0  0  0  0  0
    2.5000   -0.5636    0.2047 C   0  0  0  0  0  0  0  0  0  0  0  0
    3.0643    0.3608    1.2881 C   0  0  0  0  0  0  0  0  0  0  0  0
    4.5906    0.4904    1.2575 C   0  0  0  0  0  0  0  0  0  0  0  0
    5.1385    1.4254    2.3413 C   0  0  0  0  0  0  0  0  0  0  0  0
    6.6758    1.4691    2.4152 C   0  0  1  0  0  0  0  0  0  0  0  0
    7.3728    2.0185    1.1659 C   0  0  0  0  0  0  0  0  0  0  0  0
    7.1262    2.1663    3.6297 N   0  0  0  0  0  0  0  0  0  0  0  0
    7.7998    1.5155    4.6556 C   0  0  0  0  0  0  0  0  0  0  0  0
    8.2326   -0.0890    4.7631 S   0  0  0  0  0  0  0  0  0  0  0  0
    8.0535    2.4801    5.6024 N   0  0  0  0  0  0  0  0  0  0  0  0
    8.5415    2.2546    6.4593 H   0  0  0  0  0  0  0  0  0  0  0  0
    7.5620    3.7144    5.2150 C   0  0  0  0  0  0  0  0  0  0  0  0
    7.5738    4.9640    5.8255 C   0  0  0  0  0  0  0  0  0  0  0  0
    6.9699    6.0274    5.1424 C   0  0  0  0  0  0  0  0  0  0  0  0
    6.3664    5.8578    3.8836 C   0  0  0  0  0  0  0  0  0  0  0  0
    5.7183    7.0224    3.1713 C   0  0  0  0  0  0  0  0  0  0  0  0
    6.3642    4.5855    3.2807 C   0  0  0  0  0  0  0  0  0  0  0  0
    6.9640    3.5172    3.9494 C   0  0  0  0  0  0  0  0  0  0  0  0
    0.6063   -1.3627   -0.5487 H   0  0  0  0  0  0  0  0  0  0  0  0
    0.4876    0.2872    0.1045 H   0  0  0  0  0  0  0  0  0  0  0  0
    0.6324   -1.0968    1.2095 H   0  0  0  0  0  0  0  0  0  0  0  0
    2.8144   -0.1931   -0.7883 H   0  0  0  0  0  0  0  0  0  0  0  0
    2.9574   -1.5644    0.3086 H   0  0  0  0  0  0  0  0  0  0  0  0
    2.7493   -0.0075    2.2820 H   0  0  0  0  0  0  0  0  0  0  0  0
    2.6100    1.3641    1.1837 H   0  0  0  0  0  0  0  0  0  0  0  0
    4.8986    0.8456    0.2582 H   0  0  0  0  0  0  0  0  0  0  0  0
    5.0442   -0.5106    1.3772 H   0  0  0  0  0  0  0  0  0  0  0  0
    4.7691    1.0884    3.3248 H   0  0  0  0  0  0  0  0  0  0  0  0
    4.7302    2.4400    2.1903 H   0  0  0  0  0  0  0  0  0  0  0  0
    7.0303    0.4385    2.5749 H   0  0  0  0  0  0  0  0  0  0  0  0
    7.0585    3.0444    0.9196 H   0  0  0  0  0  0  0  0  0  0  0  0
    7.1493    1.3823    0.2969 H   0  0  0  0  0  0  0  0  0  0  0  0
    8.4642    2.0186    1.3066 H   0  0  0  0  0  0  0  0  0  0  0  0
    8.0369    5.1134    6.8032 H   0  0  0  0  0  0  0  0  0  0  0  0
    6.9675    7.0185    5.6030 H   0  0  0  0  0  0  0  0  0  0  0  0
    5.8129    7.9525    3.7505 H   0  0  0  0  0  0  0  0  0  0  0  0
    4.6433    6.8430    3.0010 H   0  0  0  0  0  0  0  0  0  0  0  0
    6.1757    7.1960    2.1827 H   0  0  0  0  0  0  0  0  0  0  0  0
    5.8951    4.4502    2.3060 H   0  0  0  0  0  0  0  0  0  0  0  0
  1  2  1  0
  1 20  1  0
  1 21  1  0
  1 22  1  0
  2  3  1  0
  2 23  1  0
  2 24  1  0
  3  4  1  0
  3 25  1  0
  3 26  1  0
  4  5  1  0
  4 27  1  0
  4 28  1  0
  5  6  1  0
  5 29  1  0
  5 30  1  0
  6  7  1  0
  6  8  1  0
  6 31  1  1
  7 32  1  0
  7 33  1  0
  7 34  1  0
  8  9  1  0
  8 19  1  0
  9 10  2  0
  9 11  1  0
 11 12  1  0
 11 13  1  0
 13 14  1  0
 13 19  2  0
 14 15  2  0
 14 35  1  0
 15 16  1  0
 15 36  1  0
 16 17  1  0
 16 18  2  0
 17 37  1  0
 17 38  1  0
 17 39  1  0
 18 19  1  0
 18 40  1  0
M  END

