
     RDKit          3D

 46 46  0  0  0  0  0  0  0  0999 V2000
    0.8020   -0.5079   -0.9224 O   0  0  0  0  0  0  0  0  0  0  0  0
    1.9280   -0.7303   -0.4957 C   0  0  0  0  0  0  0  0  0  0  0  0
    2.2438   -1.3906    0.6328 N   0  0  0  0  0  0  0  0  0  0  0  0
    1.2784   -1.9987    1.5254 C   0  0  0  0  0  0  0  0  0  0  0  0
    1.1734   -3.5230    1.3600 C   0  0  0  0  0  0  0  0  0  0  0  0
    2.5299   -4.2429    1.3268 C   0  0  0  0  0  0  0  0  0  0  0  0
    3.4438   -3.8052    2.3803 N   0  0  0  0  0  0  0  0  0  0  0  0
    3.0881   -4.2099    3.7429 C   0  0  0  0  0  0  0  0  0  0  0  0
    3.5287   -5.6417    4.0666 C   0  0  0  0  0  0  0  0  0  0  0  0
    4.9136   -5.8121    3.8291 O   0  0  0  0  0  0  0  0  0  0  0  0
    5.2663   -5.5083    2.4912 C   0  0  0  0  0  0  0  0  0  0  0  0
    4.8631   -4.0741    2.1368 C   0  0  0  0  0  0  0  0  0  0  0  0
    3.1906   -0.2487   -1.2499 C   0  0  0  0  0  0  0  0  0  0  0  0
    4.3201   -0.5136   -0.8578 O   0  0  0  0  0  0  0  0  0  0  0  0
    2.8739    0.4665   -2.3463 N   0  0  0  0  0  0  0  0  0  0  0  0
    3.8457    1.0205   -3.2613 C   0  0  0  0  0  0  0  0  0  0  0  0
    3.5662    0.6024   -4.6959 C   0  0  0  0  0  0  0  0  0  0  0  0
    2.2834    1.0719   -5.0481 O   0  0  0  0  0  0  0  0  0  0  0  0
    1.8298    0.6727   -6.3279 C   0  0  0  0  0  0  0  0  0  0  0  0
    0.5197    1.3956   -6.5882 C   0  0  0  0  0  0  0  0  0  0  0  0
    0.6873    2.7921   -6.5690 O   0  0  0  0  0  0  0  0  0  0  0  0
    3.2377   -1.4886    0.8275 H   0  0  0  0  0  0  0  0  0  0  0  0
    0.3034   -1.5315    1.3240 H   0  0  0  0  0  0  0  0  0  0  0  0
    1.5672   -1.7548    2.5593 H   0  0  0  0  0  0  0  0  0  0  0  0
    0.6444   -3.7601    0.4216 H   0  0  0  0  0  0  0  0  0  0  0  0
    0.5362   -3.9128    2.1727 H   0  0  0  0  0  0  0  0  0  0  0  0
    3.0193   -4.0090    0.3675 H   0  0  0  0  0  0  0  0  0  0  0  0
    2.3466   -5.3393    1.3126 H   0  0  0  0  0  0  0  0  0  0  0  0
    2.0037   -4.0987    3.8998 H   0  0  0  0  0  0  0  0  0  0  0  0
    3.5910   -3.5248    4.4493 H   0  0  0  0  0  0  0  0  0  0  0  0
    2.9454   -6.3717    3.4659 H   0  0  0  0  0  0  0  0  0  0  0  0
    3.3549   -5.8720    5.1297 H   0  0  0  0  0  0  0  0  0  0  0  0
    4.7863   -6.2294    1.7956 H   0  0  0  0  0  0  0  0  0  0  0  0
    6.3568   -5.6405    2.4097 H   0  0  0  0  0  0  0  0  0  0  0  0
    5.1061   -3.8480    1.0857 H   0  0  0  0  0  0  0  0  0  0  0  0
    5.4560   -3.3861    2.7666 H   0  0  0  0  0  0  0  0  0  0  0  0
    1.8798    0.5707   -2.5400 H   0  0  0  0  0  0  0  0  0  0  0  0
    4.8393    0.6708   -2.9452 H   0  0  0  0  0  0  0  0  0  0  0  0
    3.8418    2.1243   -3.2040 H   0  0  0  0  0  0  0  0  0  0  0  0
    3.6113   -0.5018   -4.7846 H   0  0  0  0  0  0  0  0  0  0  0  0
    4.3401    1.0249   -5.3690 H   0  0  0  0  0  0  0  0  0  0  0  0
    1.6905   -0.4270   -6.3727 H   0  0  0  0  0  0  0  0  0  0  0  0
    2.5731    0.9557   -7.1001 H   0  0  0  0  0  0  0  0  0  0  0  0
   -0.2292    1.0570   -5.8423 H   0  0  0  0  0  0  0  0  0  0  0  0
    0.1409    1.1164   -7.5850 H   0  0  0  0  0  0  0  0  0  0  0  0
    1.1387    2.9966   -5.7373 H   0  0  0  0  0  0  0  0  0  0  0  0
  1  2  2  0
  2  3  1  0
  2 13  1  0
  3  4  1  0
  3 22  1  0
  4  5  1  0
  4 23  1  0
  4 24  1  0
  5  6  1  0
  5 25  1  0
  5 26  1  0
  6  7  1  0
  6 27  1  0
  6 28  1  0
  7  8  1  0
  7 12  1  0
  8  9  1  0
  8 29  1  0
  8 30  1  0
  9 10  1  0
  9 31  1  0
  9 32  1  0
 10 11  1  0
 11 12  1  0
 11 33  1  0
 11 34  1  0
 12 35  1  0
 12 36  1  0
 13 14  2  0
 13 15  1  0
 15 16  1  0
 15 37  1  0
 16 17  1  0
 16 38  1  0
 16 39  1  0
 17 18  1  0
 17 40  1  0
 17 41  1  0
 18 19  1  0
 19 20  1  0
 19 42  1  0
 19 43  1  0
 20 21  1  0
 20 44  1  0
 20 45  1  0
 21 46  1  0
M  END

