
     RDKit          3D

 48 51  0  0  0  0  0  0  0  0999 V2000
    3.9797   -0.3697   -1.1596 C   0  0  0  0  0  0  0  0  0  0  0  0
    2.6704   -0.2540   -0.3781 C   0  0  0  0  0  0  0  0  0  0  0  0
    2.7216    0.7391    0.6913 N   0  0  0  0  0  0  0  0  0  0  0  0
    2.4456    2.1092    0.6082 C   0  0  0  0  0  0  0  0  0  0  0  0
    1.8468    2.7880   -0.5543 C   0  0  0  0  0  0  0  0  0  0  0  0
    0.6471    2.3455   -1.1506 C   0  0  0  0  0  0  0  0  0  0  0  0
    0.0794    3.0432   -2.2151 C   0  0  0  0  0  0  0  0  0  0  0  0
    0.6837    4.2032   -2.7087 C   0  0  0  0  0  0  0  0  0  0  0  0
    1.8845    4.6561   -2.1258 C   0  0  0  0  0  0  0  0  0  0  0  0
    2.4522    3.9499   -1.0629 C   0  0  0  0  0  0  0  0  0  0  0  0
    2.5225    5.7750   -2.5847 O   0  0  0  0  0  0  0  0  0  0  0  0
    2.0882    6.2193   -3.8605 C   0  0  0  0  0  0  0  0  0  0  0  0
    0.5710    6.1928   -3.9396 C   0  0  0  0  0  0  0  0  0  0  0  0
    0.0920    4.8711   -3.7439 O   0  0  0  0  0  0  0  0  0  0  0  0
    2.8239    2.6200    1.8338 C   0  0  0  0  0  0  0  0  0  0  0  0
    3.3186    1.6359    2.6498 N   0  0  0  0  0  0  0  0  0  0  0  0
    3.2539    0.5334    1.9389 C   0  0  0  0  0  0  0  0  0  0  0  0
    3.7944   -1.0698    2.4652 S   0  0  0  0  0  0  0  0  0  0  0  0
    4.0257   -0.6956    4.2254 C   0  0  0  0  0  0  0  0  0  0  0  0
    2.7149   -0.5761    4.9968 C   0  0  0  0  0  0  0  0  0  0  0  0
    1.6226   -0.7810    4.5203 O   0  0  0  0  0  0  0  0  0  0  0  0
    2.8128   -0.1800    6.3421 N   0  0  0  0  0  0  0  0  0  0  0  0
    1.5799    0.0556    7.1074 C   0  0  0  0  0  0  0  0  0  0  0  0
    2.0689    0.8338    8.3391 C   0  0  0  0  0  0  0  0  0  0  0  0
    3.5057    0.3388    8.5316 C   0  0  0  0  0  0  0  0  0  0  0  0
    3.9649   -0.0518    7.1303 C   0  0  0  0  0  0  0  0  0  0  0  0
    5.1020   -0.2468    6.7681 O   0  0  0  0  0  0  0  0  0  0  0  0
    3.8847   -1.1382   -1.9432 H   0  0  0  0  0  0  0  0  0  0  0  0
    4.8128   -0.6557   -0.4992 H   0  0  0  0  0  0  0  0  0  0  0  0
    4.2335    0.5855   -1.6445 H   0  0  0  0  0  0  0  0  0  0  0  0
    2.4057   -1.2186    0.0841 H   0  0  0  0  0  0  0  0  0  0  0  0
    1.8476    0.0141   -1.0533 H   0  0  0  0  0  0  0  0  0  0  0  0
    0.1293    1.4719   -0.7495 H   0  0  0  0  0  0  0  0  0  0  0  0
   -0.8580    2.7184   -2.6718 H   0  0  0  0  0  0  0  0  0  0  0  0
    3.3919    4.3165   -0.6460 H   0  0  0  0  0  0  0  0  0  0  0  0
    2.5152    5.5744   -4.6519 H   0  0  0  0  0  0  0  0  0  0  0  0
    2.4752    7.2402   -3.9937 H   0  0  0  0  0  0  0  0  0  0  0  0
    0.2186    6.5189   -4.9292 H   0  0  0  0  0  0  0  0  0  0  0  0
    0.1446    6.8673   -3.1731 H   0  0  0  0  0  0  0  0  0  0  0  0
    2.7253    3.6514    2.1707 H   0  0  0  0  0  0  0  0  0  0  0  0
    4.5989    0.2351    4.3225 H   0  0  0  0  0  0  0  0  0  0  0  0
    4.6508   -1.4963    4.6448 H   0  0  0  0  0  0  0  0  0  0  0  0
    1.1152   -0.9087    7.3782 H   0  0  0  0  0  0  0  0  0  0  0  0
    0.8557    0.6020    6.4893 H   0  0  0  0  0  0  0  0  0  0  0  0
    1.4246    0.6722    9.2147 H   0  0  0  0  0  0  0  0  0  0  0  0
    2.0692    1.9134    8.1196 H   0  0  0  0  0  0  0  0  0  0  0  0
    3.5539   -0.5700    9.1578 H   0  0  0  0  0  0  0  0  0  0  0  0
    4.2026    1.0684    8.9671 H   0  0  0  0  0  0  0  0  0  0  0  0
  1  2  1  0
  1 28  1  0
  1 29  1  0
  1 30  1  0
  2  3  1  0
  2 31  1  0
  2 32  1  0
  3  4  1  0
  3 17  1  0
  4  5  1  0
  4 15  2  0
  5  6  2  0
  5 10  1  0
  6  7  1  0
  6 33  1  0
  7  8  2  0
  7 34  1  0
  8  9  1  0
  8 14  1  0
  9 10  2  0
  9 11  1  0
 10 35  1  0
 11 12  1  0
 12 13  1  0
 12 36  1  0
 12 37  1  0
 13 14  1  0
 13 38  1  0
 13 39  1  0
 15 16  1  0
 15 40  1  0
 16 17  2  0
 17 18  1  0
 18 19  1  0
 19 20  1  0
 19 41  1  0
 19 42  1  0
 20 21  2  0
 20 22  1  0
 22 23  1  0
 22 26  1  0
 23 24  1  0
 23 43  1  0
 23 44  1  0
 24 25  1  0
 24 45  1  0
 24 46  1  0
 25 26  1  0
 25 47  1  0
 25 48  1  0
 26 27  2  0
M  END

