
     RDKit          3D

 59 64  0  0  0  0  0  0  0  0999 V2000
    1.1691   -0.2243    0.5380 N   0  0  0  0  0  0  0  0  0  0  0  0
    2.4778   -0.0921    0.1871 C   0  0  0  0  0  0  0  0  0  0  0  0
    3.2945   -1.1019    0.4288 N   0  0  0  0  0  0  0  0  0  0  0  0
    4.6181   -1.0077    0.1027 C   0  0  0  0  0  0  0  0  0  0  0  0
    5.4520   -2.2310    0.4095 C   0  0  1  0  0  0  0  0  0  0  0  0
    5.4799   -2.6281    1.9128 C   0  0  0  0  0  0  0  0  0  0  0  0
    5.7323   -4.1188    1.8780 C   0  0  0  0  0  0  0  0  0  0  0  0
    6.1594   -4.9675    2.9007 C   0  0  0  0  0  0  0  0  0  0  0  0
    6.3057   -6.3359    2.6377 C   0  0  0  0  0  0  0  0  0  0  0  0
    6.0237   -6.8465    1.3653 C   0  0  0  0  0  0  0  0  0  0  0  0
    5.5918   -5.9952    0.3397 C   0  0  0  0  0  0  0  0  0  0  0  0
    5.4493   -4.6314    0.6007 C   0  0  0  0  0  0  0  0  0  0  0  0
    4.9858   -3.5233   -0.3184 C   0  0  0  0  0  0  0  0  0  0  0  0
    5.2241    0.0331   -0.4288 N   0  0  0  0  0  0  0  0  0  0  0  0
    4.4124    1.0842   -0.6959 C   0  0  0  0  0  0  0  0  0  0  0  0
    4.8147    2.2513   -1.2248 N   0  0  0  0  0  0  0  0  0  0  0  0
    3.6910    2.9712   -1.2967 N   0  0  0  0  0  0  0  0  0  0  0  0
    3.7295    3.8878   -1.7304 H   0  0  0  0  0  0  0  0  0  0  0  0
    2.5557    2.3542   -0.8661 C   0  0  0  0  0  0  0  0  0  0  0  0
    1.2467    3.0192   -0.9147 C   0  0  0  0  0  0  0  0  0  0  0  0
    0.0929    2.3153   -1.2984 C   0  0  0  0  0  0  0  0  0  0  0  0
   -1.1365    2.9749   -1.3574 C   0  0  0  0  0  0  0  0  0  0  0  0
   -1.2471    4.3309   -1.0519 C   0  0  0  0  0  0  0  0  0  0  0  0
   -2.5851    5.0298   -1.1208 C   0  0  1  0  0  0  0  0  0  0  0  0
   -3.5542    4.1901   -1.5296 F   0  0  0  0  0  0  0  0  0  0  0  0
   -2.9623    5.5182    0.0709 F   0  0  0  0  0  0  0  0  0  0  0  0
   -2.5707    6.0612   -1.9883 F   0  0  0  0  0  0  0  0  0  0  0  0
   -0.0903    5.0516   -0.6683 C   0  0  0  0  0  0  0  0  0  0  0  0
   -0.2649    6.3522   -0.3716 O   0  0  0  0  0  0  0  0  0  0  0  0
    0.8451    7.1849   -0.0690 C   0  0  0  0  0  0  0  0  0  0  0  0
    0.3786    8.6119    0.1000 C   0  0  0  0  0  0  0  0  0  0  0  0
    1.1359    9.4942    0.8839 C   0  0  0  0  0  0  0  0  0  0  0  0
    0.7582   10.8331    1.0115 C   0  0  0  0  0  0  0  0  0  0  0  0
   -0.3888   11.3012    0.3634 C   0  0  0  0  0  0  0  0  0  0  0  0
   -1.1523   10.4231   -0.4112 C   0  0  0  0  0  0  0  0  0  0  0  0
   -0.7716    9.0849   -0.5468 C   0  0  0  0  0  0  0  0  0  0  0  0
    1.1426    4.3894   -0.5991 C   0  0  0  0  0  0  0  0  0  0  0  0
    2.9979    1.0861   -0.4464 C   0  0  0  0  0  0  0  0  0  0  0  0
    0.9319   -1.0397    1.0916 H   0  0  0  0  0  0  0  0  0  0  0  0
    0.5709    0.5882    0.6011 H   0  0  0  0  0  0  0  0  0  0  0  0
    6.4773   -1.9964    0.0891 H   0  0  0  0  0  0  0  0  0  0  0  0
    4.4983   -2.4174    2.3735 H   0  0  0  0  0  0  0  0  0  0  0  0
    6.2374   -2.0649    2.4808 H   0  0  0  0  0  0  0  0  0  0  0  0
    6.3847   -4.5716    3.8953 H   0  0  0  0  0  0  0  0  0  0  0  0
    6.6481   -7.0081    3.4292 H   0  0  0  0  0  0  0  0  0  0  0  0
    6.1471   -7.9150    1.1692 H   0  0  0  0  0  0  0  0  0  0  0  0
    5.3763   -6.3974   -0.6545 H   0  0  0  0  0  0  0  0  0  0  0  0
    3.8841   -3.5305   -0.3999 H   0  0  0  0  0  0  0  0  0  0  0  0
    5.3912   -3.5985   -1.3400 H   0  0  0  0  0  0  0  0  0  0  0  0
    0.1612    1.2631   -1.5781 H   0  0  0  0  0  0  0  0  0  0  0  0
   -2.0305    2.4301   -1.6634 H   0  0  0  0  0  0  0  0  0  0  0  0
    1.5839    7.1191   -0.8918 H   0  0  0  0  0  0  0  0  0  0  0  0
    1.3449    6.8346    0.8524 H   0  0  0  0  0  0  0  0  0  0  0  0
    2.0284    9.1323    1.4038 H   0  0  0  0  0  0  0  0  0  0  0  0
    1.3569   11.5100    1.6263 H   0  0  0  0  0  0  0  0  0  0  0  0
   -0.6896   12.3468    0.4671 H   0  0  0  0  0  0  0  0  0  0  0  0
   -2.0544   10.7805   -0.9145 H   0  0  0  0  0  0  0  0  0  0  0  0
   -1.3739    8.3986   -1.1439 H   0  0  0  0  0  0  0  0  0  0  0  0
    2.0277    4.9251   -0.2585 H   0  0  0  0  0  0  0  0  0  0  0  0
  1  2  1  0
  1 39  1  0
  1 40  1  0
  2  3  2  0
  2 38  1  0
  3  4  1  0
  4  5  1  0
  4 14  2  0
  5  6  1  0
  5 13  1  0
  5 41  1  6
  6  7  1  0
  6 42  1  0
  6 43  1  0
  7  8  1  0
  7 12  2  0
  8  9  2  0
  8 44  1  0
  9 10  1  0
  9 45  1  0
 10 11  2  0
 10 46  1  0
 11 12  1  0
 11 47  1  0
 12 13  1  0
 13 48  1  0
 13 49  1  0
 14 15  1  0
 15 16  2  0
 15 38  1  0
 16 17  1  0
 17 18  1  0
 17 19  1  0
 19 20  1  0
 19 38  2  0
 20 21  2  0
 20 37  1  0
 21 22  1  0
 21 50  1  0
 22 23  2  0
 22 51  1  0
 23 24  1  0
 23 28  1  0
 24 25  1  6
 24 26  1  0
 24 27  1  0
 28 29  1  0
 28 37  2  0
 29 30  1  0
 30 31  1  0
 30 52  1  0
 30 53  1  0
 31 32  2  0
 31 36  1  0
 32 33  1  0
 32 54  1  0
 33 34  2  0
 33 55  1  0
 34 35  1  0
 34 56  1  0
 35 36  2  0
 35 57  1  0
 36 58  1  0
 37 59  1  0
M  END

