
     RDKit          3D

 95 97  0  0  0  0  0  0  0  0999 V2000
    3.8679    2.0040    1.4283 C   0  0  0  0  0  0  0  0  0  0  0  0
    3.3475    0.6596    0.9099 C   0  0  0  0  0  0  0  0  0  0  0  0
    3.0254    0.5144   -0.6176 C   0  0  1  0  0  0  0  0  0  0  0  0
    2.3487   -0.8635   -0.7702 C   0  0  0  0  0  0  0  0  0  0  0  0
    2.1105    1.6872   -1.1223 C   0  0  0  0  0  0  0  0  0  0  0  0
    0.5800    1.8719   -0.7711 C   0  0  1  0  0  0  0  0  0  0  0  0
   -0.2776    0.9289   -1.6432 C   0  0  0  0  0  0  0  0  0  0  0  0
    0.2920    1.5874    0.7183 C   0  0  0  0  0  0  0  0  0  0  0  0
    0.2025    3.4061   -1.0641 C   0  0  1  0  0  0  0  0  0  0  0  0
    0.9387    4.0203   -2.2577 C   0  0  0  0  0  0  0  0  0  0  0  0
    0.6296    3.6977   -3.5943 C   0  0  0  0  0  0  0  0  0  0  0  0
    1.2632    4.3202   -4.6660 C   0  0  0  0  0  0  0  0  0  0  0  0
    2.2424    5.3040   -4.4461 C   0  0  0  0  0  0  0  0  0  0  0  0
    2.7992    5.8525   -5.5610 O   0  0  0  0  0  0  0  0  0  0  0  0
    3.6511    6.9975   -5.4923 C   0  0  1  0  0  0  0  0  0  0  0  0
    5.1030    6.5891   -5.3245 C   0  0  0  0  0  0  0  0  0  0  0  0
    3.5329    7.6834   -6.6902 O   0  0  0  0  0  0  0  0  0  0  0  0
    2.2693    8.2720   -6.9347 C   0  0  0  0  0  0  0  0  0  0  0  0
    2.3150    9.1314   -8.1769 C   0  0  0  0  0  0  0  0  0  0  0  0
    1.1145    9.5174   -8.7928 C   0  0  0  0  0  0  0  0  0  0  0  0
    1.1243   10.3454   -9.9173 C   0  0  0  0  0  0  0  0  0  0  0  0
    2.3388   10.7923  -10.4483 C   0  0  0  0  0  0  0  0  0  0  0  0
    3.5382   10.4047   -9.8452 C   0  0  0  0  0  0  0  0  0  0  0  0
    3.5278    9.5810   -8.7150 C   0  0  0  0  0  0  0  0  0  0  0  0
    2.5729    5.6388   -3.1254 C   0  0  0  0  0  0  0  0  0  0  0  0
    1.9195    5.0009   -2.0628 C   0  0  0  0  0  0  0  0  0  0  0  0
   -1.3210    3.7848   -1.1970 C   0  0  1  0  0  0  0  0  0  0  0  0
   -2.2675    3.3355   -0.0707 C   0  0  0  0  0  0  0  0  0  0  0  0
   -1.4796    5.3112   -1.3468 C   0  0  0  0  0  0  0  0  0  0  0  0
    4.4500    0.5752   -1.3882 C   0  0  1  0  0  0  0  0  0  0  0  0
    5.4083   -0.5098   -0.8794 C   0  0  0  0  0  0  0  0  0  0  0  0
    5.3111   -1.8702   -1.2228 C   0  0  0  0  0  0  0  0  0  0  0  0
    6.2241   -2.8201   -0.7568 C   0  0  0  0  0  0  0  0  0  0  0  0
    7.2811   -2.4375    0.0788 C   0  0  0  0  0  0  0  0  0  0  0  0
    8.1958   -3.3185    0.5650 O   0  0  0  0  0  0  0  0  0  0  0  0
    7.4110   -1.0876    0.4266 C   0  0  0  0  0  0  0  0  0  0  0  0
    6.4905   -0.1552   -0.0520 C   0  0  0  0  0  0  0  0  0  0  0  0
    4.5499    0.7559   -2.9828 C   0  0  1  0  0  0  0  0  0  0  0  0
    4.4122    2.2503   -3.3631 C   0  0  0  0  0  0  0  0  0  0  0  0
    5.9675    0.3594   -3.4687 C   0  0  0  0  0  0  0  0  0  0  0  0
    3.5401   -0.0712   -3.8041 C   0  0  0  0  0  0  0  0  0  0  0  0
    4.1192    1.9215    2.4982 H   0  0  0  0  0  0  0  0  0  0  0  0
    3.1263    2.8122    1.3337 H   0  0  0  0  0  0  0  0  0  0  0  0
    4.7802    2.3396    0.9109 H   0  0  0  0  0  0  0  0  0  0  0  0
    2.4471    0.3985    1.4817 H   0  0  0  0  0  0  0  0  0  0  0  0
    4.0792   -0.1198    1.1710 H   0  0  0  0  0  0  0  0  0  0  0  0
    1.4171   -0.9036   -0.1901 H   0  0  0  0  0  0  0  0  0  0  0  0
    2.9896   -1.6610   -0.3718 H   0  0  0  0  0  0  0  0  0  0  0  0
    2.1018   -1.1114   -1.8108 H   0  0  0  0  0  0  0  0  0  0  0  0
    2.1378    1.6726   -2.2141 H   0  0  0  0  0  0  0  0  0  0  0  0
    2.6276    2.6168   -0.8443 H   0  0  0  0  0  0  0  0  0  0  0  0
   -0.0705   -0.1251   -1.4191 H   0  0  0  0  0  0  0  0  0  0  0  0
   -0.0786    1.0745   -2.7158 H   0  0  0  0  0  0  0  0  0  0  0  0
   -1.3537    1.0841   -1.4800 H   0  0  0  0  0  0  0  0  0  0  0  0
    0.4813    0.5354    0.9687 H   0  0  0  0  0  0  0  0  0  0  0  0
   -0.7510    1.7863    0.9805 H   0  0  0  0  0  0  0  0  0  0  0  0
    0.9178    2.2092    1.3758 H   0  0  0  0  0  0  0  0  0  0  0  0
    0.5731    3.9516   -0.1778 H   0  0  0  0  0  0  0  0  0  0  0  0
   -0.1398    2.9549   -3.8142 H   0  0  0  0  0  0  0  0  0  0  0  0
    1.0104    4.0632   -5.6968 H   0  0  0  0  0  0  0  0  0  0  0  0
    3.3031    7.6354   -4.6524 H   0  0  0  0  0  0  0  0  0  0  0  0
    5.4031    5.9764   -6.1870 H   0  0  0  0  0  0  0  0  0  0  0  0
    5.2427    6.0011   -4.4065 H   0  0  0  0  0  0  0  0  0  0  0  0
    5.7446    7.4814   -5.2800 H   0  0  0  0  0  0  0  0  0  0  0  0
    1.9744    8.8920   -6.0608 H   0  0  0  0  0  0  0  0  0  0  0  0
    1.4970    7.4901   -7.0437 H   0  0  0  0  0  0  0  0  0  0  0  0
    0.1606    9.1631   -8.3894 H   0  0  0  0  0  0  0  0  0  0  0  0
    0.1804   10.6369  -10.3855 H   0  0  0  0  0  0  0  0  0  0  0  0
    2.3489   11.4361  -11.3316 H   0  0  0  0  0  0  0  0  0  0  0  0
    4.4921   10.7446  -10.2575 H   0  0  0  0  0  0  0  0  0  0  0  0
    4.4624    9.2713   -8.2456 H   0  0  0  0  0  0  0  0  0  0  0  0
    3.3365    6.3842   -2.9023 H   0  0  0  0  0  0  0  0  0  0  0  0
    2.1880    5.2902   -1.0426 H   0  0  0  0  0  0  0  0  0  0  0  0
   -1.6926    3.3265   -2.1306 H   0  0  0  0  0  0  0  0  0  0  0  0
   -1.9342    3.7048    0.9133 H   0  0  0  0  0  0  0  0  0  0  0  0
   -2.3885    2.2465   -0.0034 H   0  0  0  0  0  0  0  0  0  0  0  0
   -3.2704    3.7557   -0.2509 H   0  0  0  0  0  0  0  0  0  0  0  0
   -1.1055    5.8327   -0.4483 H   0  0  0  0  0  0  0  0  0  0  0  0
   -2.5431    5.5757   -1.4604 H   0  0  0  0  0  0  0  0  0  0  0  0
   -0.9402    5.7141   -2.2140 H   0  0  0  0  0  0  0  0  0  0  0  0
    4.8927    1.5139   -1.0241 H   0  0  0  0  0  0  0  0  0  0  0  0
    4.5176   -2.2126   -1.8873 H   0  0  0  0  0  0  0  0  0  0  0  0
    6.1149   -3.8695   -1.0507 H   0  0  0  0  0  0  0  0  0  0  0  0
    7.9887   -4.2053    0.2426 H   0  0  0  0  0  0  0  0  0  0  0  0
    8.2403   -0.7853    1.0695 H   0  0  0  0  0  0  0  0  0  0  0  0
    6.6228    0.8930    0.2295 H   0  0  0  0  0  0  0  0  0  0  0  0
    5.1768    2.8529   -2.8451 H   0  0  0  0  0  0  0  0  0  0  0  0
    3.4360    2.6860   -3.1308 H   0  0  0  0  0  0  0  0  0  0  0  0
    4.5741    2.3784   -4.4458 H   0  0  0  0  0  0  0  0  0  0  0  0
    6.7527    0.8757   -2.8948 H   0  0  0  0  0  0  0  0  0  0  0  0
    6.0831    0.6478   -4.5261 H   0  0  0  0  0  0  0  0  0  0  0  0
    6.1614   -0.7185   -3.3941 H   0  0  0  0  0  0  0  0  0  0  0  0
    2.4962    0.2133   -3.6120 H   0  0  0  0  0  0  0  0  0  0  0  0
    3.6378   -1.1509   -3.6148 H   0  0  0  0  0  0  0  0  0  0  0  0
    3.7246    0.0845   -4.8800 H   0  0  0  0  0  0  0  0  0  0  0  0
  1  2  1  0
  1 42  1  0
  1 43  1  0
  1 44  1  0
  3  2  1  1
  2 45  1  0
  2 46  1  0
  3  4  1  0
  3  5  1  0
  3 30  1  0
  4 47  1  0
  4 48  1  0
  4 49  1  0
  6  5  1  1
  5 50  1  0
  5 51  1  0
  6  7  1  0
  6  8  1  0
  6  9  1  0
  7 52  1  0
  7 53  1  0
  7 54  1  0
  8 55  1  0
  8 56  1  0
  8 57  1  0
  9 10  1  0
  9 27  1  0
  9 58  1  1
 10 11  2  0
 10 26  1  0
 11 12  1  0
 11 59  1  0
 12 13  2  0
 12 60  1  0
 13 14  1  0
 13 25  1  0
 14 15  1  0
 15 16  1  0
 15 17  1  0
 15 61  1  1
 16 62  1  0
 16 63  1  0
 16 64  1  0
 17 18  1  0
 18 19  1  0
 18 65  1  0
 18 66  1  0
 19 20  2  0
 19 24  1  0
 20 21  1  0
 20 67  1  0
 21 22  2  0
 21 68  1  0
 22 23  1  0
 22 69  1  0
 23 24  2  0
 23 70  1  0
 24 71  1  0
 25 26  2  0
 25 72  1  0
 26 73  1  0
 27 28  1  0
 27 29  1  0
 27 74  1  6
 28 75  1  0
 28 76  1  0
 28 77  1  0
 29 78  1  0
 29 79  1  0
 29 80  1  0
 30 31  1  0
 30 38  1  0
 30 81  1  1
 31 32  2  0
 31 37  1  0
 32 33  1  0
 32 82  1  0
 33 34  2  0
 33 83  1  0
 34 35  1  0
 34 36  1  0
 35 84  1  0
 36 37  2  0
 36 85  1  0
 37 86  1  0
 38 39  1  1
 38 40  1  0
 38 41  1  0
 39 87  1  0
 39 88  1  0
 39 89  1  0
 40 90  1  0
 40 91  1  0
 40 92  1  0
 41 93  1  0
 41 94  1  0
 41 95  1  0
M  END

