
     RDKit          3D

 80 83  0  0  0  0  0  0  0  0999 V2000
   -7.5711   -7.8815    6.5632 C   0  0  0  0  0  0  0  0  0  0  0  0
   -8.1680   -6.4949    6.5500 C   0  0  0  0  0  0  0  0  0  0  0  0
   -8.8349   -5.9850    7.6738 C   0  0  0  0  0  0  0  0  0  0  0  0
   -9.4372   -4.7265    7.6436 C   0  0  0  0  0  0  0  0  0  0  0  0
   -9.3962   -3.9641    6.4754 C   0  0  0  0  0  0  0  0  0  0  0  0
   -8.7408   -4.4301    5.3258 C   0  0  0  0  0  0  0  0  0  0  0  0
   -8.7424   -3.6358    4.0448 C   0  0  0  0  0  0  0  0  0  0  0  0
   -8.1122   -5.6890    5.3951 C   0  0  0  0  0  0  0  0  0  0  0  0
   -7.4868   -6.1580    4.2532 O   0  0  0  0  0  0  0  0  0  0  0  0
   -6.0869   -6.2694    4.2519 C   0  0  0  0  0  0  0  0  0  0  0  0
   -5.4835   -5.6508    2.9795 C   0  0  0  0  0  0  0  0  0  0  0  0
   -6.0901   -4.8705    2.2701 O   0  0  0  0  0  0  0  0  0  0  0  0
   -4.1876   -6.0320    2.7518 N   0  0  0  0  0  0  0  0  0  0  0  0
   -3.3309   -5.3339    1.8009 C   0  0  1  0  0  0  0  0  0  0  0  0
   -4.0046   -4.8829    1.0634 H   0  0  0  0  0  0  0  0  0  0  0  0
   -2.5480   -4.1773    2.4807 C   0  0  0  0  0  0  0  0  0  0  0  0
   -1.6548   -4.5961    3.6288 C   0  0  0  0  0  0  0  0  0  0  0  0
   -0.3406   -5.0445    3.4030 C   0  0  0  0  0  0  0  0  0  0  0  0
    0.4723   -5.4530    4.4638 C   0  0  0  0  0  0  0  0  0  0  0  0
   -0.0115   -5.4231    5.7758 C   0  0  0  0  0  0  0  0  0  0  0  0
   -1.3129   -4.9754    6.0180 C   0  0  0  0  0  0  0  0  0  0  0  0
   -2.1231   -4.5653    4.9539 C   0  0  0  0  0  0  0  0  0  0  0  0
   -2.4206   -6.3410    1.0748 C   0  0  2  0  0  0  0  0  0  0  0  0
   -1.8747   -6.9229    1.8475 H   0  0  0  0  0  0  0  0  0  0  0  0
   -1.4787   -5.5842    0.3229 O   0  0  0  0  0  0  0  0  0  0  0  0
   -3.1460   -7.4033    0.2289 C   0  0  0  0  0  0  0  0  0  0  0  0
   -4.1871   -6.9430   -0.7027 N   0  0  0  0  0  0  0  0  0  0  0  0
   -3.7234   -6.0984   -1.8400 C   0  0  0  0  0  0  0  0  0  0  0  0
   -4.7142   -5.0315   -2.3421 C   0  0  1  0  0  0  0  0  0  0  0  0
   -5.0676   -3.9890   -1.2770 C   0  0  0  0  0  0  0  0  0  0  0  0
   -4.1181   -4.3669   -3.5905 C   0  0  0  0  0  0  0  0  0  0  0  0
   -5.1090   -8.2915   -1.2695 S   0  0  1  0  0  0  0  0  0  0  0  0
   -6.0609   -7.7719   -2.2521 O   0  0  0  0  0  0  0  0  0  0  0  0
   -4.1961   -9.3806   -1.6573 O   0  0  0  0  0  0  0  0  0  0  0  0
   -5.9944   -8.8278    0.1886 C   0  0  0  0  0  0  0  0  0  0  0  0
   -6.8980   -7.9505    0.8127 C   0  0  0  0  0  0  0  0  0  0  0  0
   -7.6353   -8.3606    1.9255 C   0  0  0  0  0  0  0  0  0  0  0  0
   -7.4546   -9.6729    2.3811 C   0  0  0  0  0  0  0  0  0  0  0  0
   -8.0112  -10.3581    3.4519 N   0  0  0  0  0  0  0  0  0  0  0  0
   -7.4718  -11.5406    3.3818 C   0  0  0  0  0  0  0  0  0  0  0  0
   -7.7003  -12.6027    4.1791 N   0  0  0  0  0  0  0  0  0  0  0  0
   -6.5804  -11.7369    2.3662 O   0  0  0  0  0  0  0  0  0  0  0  0
   -6.5555  -10.5253    1.7094 C   0  0  0  0  0  0  0  0  0  0  0  0
   -5.7993  -10.1518    0.6152 C   0  0  0  0  0  0  0  0  0  0  0  0
   -7.9265   -8.4456    7.4381 H   0  0  0  0  0  0  0  0  0  0  0  0
   -6.4688   -7.8619    6.6181 H   0  0  0  0  0  0  0  0  0  0  0  0
   -7.8410   -8.4462    5.6561 H   0  0  0  0  0  0  0  0  0  0  0  0
   -8.8902   -6.5958    8.5795 H   0  0  0  0  0  0  0  0  0  0  0  0
   -9.9518   -4.3447    8.5291 H   0  0  0  0  0  0  0  0  0  0  0  0
   -9.8820   -2.9847    6.4458 H   0  0  0  0  0  0  0  0  0  0  0  0
   -8.9865   -2.5806    4.2379 H   0  0  0  0  0  0  0  0  0  0  0  0
   -9.5026   -4.0306    3.3477 H   0  0  0  0  0  0  0  0  0  0  0  0
   -7.7844   -3.7035    3.5117 H   0  0  0  0  0  0  0  0  0  0  0  0
   -5.7769   -7.3287    4.3173 H   0  0  0  0  0  0  0  0  0  0  0  0
   -5.6467   -5.7406    5.1179 H   0  0  0  0  0  0  0  0  0  0  0  0
   -3.7251   -6.5800    3.4715 H   0  0  0  0  0  0  0  0  0  0  0  0
   -3.3000   -3.4577    2.8403 H   0  0  0  0  0  0  0  0  0  0  0  0
   -1.9566   -3.6719    1.7052 H   0  0  0  0  0  0  0  0  0  0  0  0
    0.0394   -5.0661    2.3788 H   0  0  0  0  0  0  0  0  0  0  0  0
    1.4930   -5.7915    4.2656 H   0  0  0  0  0  0  0  0  0  0  0  0
    0.6261   -5.7384    6.6057 H   0  0  0  0  0  0  0  0  0  0  0  0
   -1.6972   -4.9342    7.0407 H   0  0  0  0  0  0  0  0  0  0  0  0
   -3.1316   -4.1927    5.1574 H   0  0  0  0  0  0  0  0  0  0  0  0
   -0.8928   -6.1987   -0.1392 H   0  0  0  0  0  0  0  0  0  0  0  0
   -3.6246   -8.0962    0.9365 H   0  0  0  0  0  0  0  0  0  0  0  0
   -2.3702   -7.9959   -0.2998 H   0  0  0  0  0  0  0  0  0  0  0  0
   -3.4180   -6.7424   -2.6864 H   0  0  0  0  0  0  0  0  0  0  0  0
   -2.8154   -5.5932   -1.4846 H   0  0  0  0  0  0  0  0  0  0  0  0
   -5.6362   -5.5504   -2.6405 H   0  0  0  0  0  0  0  0  0  0  0  0
   -4.1728   -3.4271   -0.9549 H   0  0  0  0  0  0  0  0  0  0  0  0
   -5.5270   -4.4400   -0.3852 H   0  0  0  0  0  0  0  0  0  0  0  0
   -5.7850   -3.2559   -1.6802 H   0  0  0  0  0  0  0  0  0  0  0  0
   -3.1674   -3.8546   -3.3583 H   0  0  0  0  0  0  0  0  0  0  0  0
   -4.8076   -3.6120   -4.0003 H   0  0  0  0  0  0  0  0  0  0  0  0
   -3.9176   -5.1021   -4.3871 H   0  0  0  0  0  0  0  0  0  0  0  0
   -7.0054   -6.9315    0.4384 H   0  0  0  0  0  0  0  0  0  0  0  0
   -8.3045   -7.6722    2.4408 H   0  0  0  0  0  0  0  0  0  0  0  0
   -8.2983  -12.4801    4.9842 H   0  0  0  0  0  0  0  0  0  0  0  0
   -7.1345  -13.4351    4.0926 H   0  0  0  0  0  0  0  0  0  0  0  0
   -5.0984  -10.8123    0.1048 H   0  0  0  0  0  0  0  0  0  0  0  0
  1  2  1  0
  1 45  1  0
  1 46  1  0
  1 47  1  0
  2  3  2  0
  2  8  1  0
  3  4  1  0
  3 48  1  0
  4  5  2  0
  4 49  1  0
  5  6  1  0
  5 50  1  0
  6  7  1  0
  6  8  2  0
  7 51  1  0
  7 52  1  0
  7 53  1  0
  8  9  1  0
  9 10  1  0
 10 11  1  0
 10 54  1  0
 10 55  1  0
 11 12  2  0
 11 13  1  0
 13 14  1  0
 13 56  1  0
 14 15  1  6
 14 16  1  0
 14 23  1  0
 16 17  1  0
 16 57  1  0
 16 58  1  0
 17 18  2  0
 17 22  1  0
 18 19  1  0
 18 59  1  0
 19 20  2  0
 19 60  1  0
 20 21  1  0
 20 61  1  0
 21 22  2  0
 21 62  1  0
 22 63  1  0
 23 24  1  1
 23 25  1  0
 23 26  1  0
 25 64  1  0
 26 27  1  0
 26 65  1  0
 26 66  1  0
 27 28  1  0
 32 27  1  1
 28 29  1  0
 28 67  1  0
 28 68  1  0
 29 30  1  0
 29 31  1  0
 29 69  1  6
 30 70  1  0
 30 71  1  0
 30 72  1  0
 31 73  1  0
 31 74  1  0
 31 75  1  0
 32 33  2  0
 32 34  2  0
 32 35  1  0
 35 36  2  0
 35 44  1  0
 36 37  1  0
 36 76  1  0
 37 38  2  0
 37 77  1  0
 38 39  1  0
 38 43  1  0
 39 40  2  0
 40 41  1  0
 40 42  1  0
 41 78  1  0
 41 79  1  0
 42 43  1  0
 43 44  2  0
 44 80  1  0
M  END

