
     RDKit          3D

 37 39  0  0  0  0  0  0  0  0999 V2000
    2.3549   -0.1652   -1.8566 O   0  0  0  0  0  0  0  0  0  0  0  0
    3.1998    0.4188   -1.2173 C   0  0  0  0  0  0  0  0  0  0  0  0
    4.6825    0.3421   -1.5250 C   0  0  0  0  0  0  0  0  0  0  0  0
    5.2479   -0.7265   -0.5532 C   0  0  0  0  0  0  0  0  0  0  0  0
    5.1071   -0.4047    0.8886 N   0  0  0  0  0  0  0  0  0  0  0  0
    6.2459   -0.9318    1.6424 C   0  0  0  0  0  0  0  0  0  0  0  0
    7.5251   -0.1332    1.4425 C   0  0  0  0  0  0  0  0  0  0  0  0
    8.6528   -0.7552    1.5290 N   0  0  0  0  0  0  0  0  0  0  0  0
   10.1019    0.0849    1.6136 S   0  0  1  0  0  0  0  0  0  0  0  0
   10.4096    0.2685    3.0313 O   0  0  0  0  0  0  0  0  0  0  0  0
   11.0686   -0.5624    0.7349 O   0  0  0  0  0  0  0  0  0  0  0  0
    9.6930    1.6867    0.9298 C   0  0  0  0  0  0  0  0  0  0  0  0
   10.7176    2.5478    0.5242 C   0  0  0  0  0  0  0  0  0  0  0  0
   10.4091    3.8386    0.0988 C   0  0  0  0  0  0  0  0  0  0  0  0
    9.0723    4.2621    0.0767 C   0  0  0  0  0  0  0  0  0  0  0  0
    8.0469    3.4013    0.4605 C   0  0  0  0  0  0  0  0  0  0  0  0
    8.3504    2.0979    0.8905 C   0  0  0  0  0  0  0  0  0  0  0  0
    7.3384    1.2004    1.2303 N   0  0  0  0  0  0  0  0  0  0  0  0
    3.8279   -0.8089    1.5169 C   0  0  0  0  0  0  0  0  0  0  0  0
    2.5677   -0.0059    1.0288 C   0  0  0  0  0  0  0  0  0  0  0  0
    2.9403    1.0038    0.0329 N   0  0  0  0  0  0  0  0  0  0  0  0
    5.1961    1.3063   -1.3752 H   0  0  0  0  0  0  0  0  0  0  0  0
    4.8397    0.0152   -2.5627 H   0  0  0  0  0  0  0  0  0  0  0  0
    6.3186   -0.8521   -0.7720 H   0  0  0  0  0  0  0  0  0  0  0  0
    4.7667   -1.6983   -0.7805 H   0  0  0  0  0  0  0  0  0  0  0  0
    6.4823   -1.9877    1.4148 H   0  0  0  0  0  0  0  0  0  0  0  0
    6.0149   -0.8855    2.7192 H   0  0  0  0  0  0  0  0  0  0  0  0
   11.7500    2.1931    0.5491 H   0  0  0  0  0  0  0  0  0  0  0  0
   11.2059    4.5172   -0.2132 H   0  0  0  0  0  0  0  0  0  0  0  0
    8.8260    5.2739   -0.2536 H   0  0  0  0  0  0  0  0  0  0  0  0
    7.0055    3.7331    0.4246 H   0  0  0  0  0  0  0  0  0  0  0  0
    6.3640    1.4786    1.1397 H   0  0  0  0  0  0  0  0  0  0  0  0
    3.9528   -0.6463    2.5975 H   0  0  0  0  0  0  0  0  0  0  0  0
    3.6537   -1.8972    1.3863 H   0  0  0  0  0  0  0  0  0  0  0  0
    2.0606    0.4674    1.8827 H   0  0  0  0  0  0  0  0  0  0  0  0
    1.8406   -0.6740    0.5513 H   0  0  0  0  0  0  0  0  0  0  0  0
    3.7706    1.4862    0.3683 H   0  0  0  0  0  0  0  0  0  0  0  0
  1  2  2  0
  2  3  1  0
  2 21  1  0
  3  4  1  0
  3 22  1  0
  3 23  1  0
  4  5  1  0
  4 24  1  0
  4 25  1  0
  5  6  1  0
  5 19  1  0
  6  7  1  0
  6 26  1  0
  6 27  1  0
  7  8  2  0
  7 18  1  0
  9  8  1  1
  9 10  2  0
  9 11  2  0
  9 12  1  0
 12 13  2  0
 12 17  1  0
 13 14  1  0
 13 28  1  0
 14 15  2  0
 14 29  1  0
 15 16  1  0
 15 30  1  0
 16 17  2  0
 16 31  1  0
 17 18  1  0
 18 32  1  0
 19 20  1  0
 19 33  1  0
 19 34  1  0
 20 21  1  0
 20 35  1  0
 20 36  1  0
 21 37  1  0
M  END

