
     RDKit          3D

 41 42  0  0  0  0  0  0  0  0999 V2000
    5.9289   -0.3646    0.0467 C   0  0  0  0  0  0  0  0  0  0  0  0
    4.8279   -1.1259   -0.3877 O   0  0  0  0  0  0  0  0  0  0  0  0
    4.3276   -0.9323   -1.6414 C   0  0  0  0  0  0  0  0  0  0  0  0
    4.8447    0.0130   -2.5387 C   0  0  0  0  0  0  0  0  0  0  0  0
    4.2512    0.2089   -3.7904 C   0  0  0  0  0  0  0  0  0  0  0  0
    3.1431   -0.5521   -4.1600 C   0  0  0  0  0  0  0  0  0  0  0  0
    2.6509   -1.5205   -3.2819 C   0  0  0  0  0  0  0  0  0  0  0  0
    3.2167   -1.7395   -2.0148 C   0  0  0  0  0  0  0  0  0  0  0  0
    2.6562   -2.7238   -1.1743 N   0  0  0  0  0  0  0  0  0  0  0  0
    1.3034   -2.5382   -0.6622 C   0  0  0  0  0  0  0  0  0  0  0  0
    0.6135   -3.8851   -0.4460 C   0  0  0  0  0  0  0  0  0  0  0  0
    1.4433   -4.7289    0.4040 N   0  0  0  0  0  0  0  0  0  0  0  0
    0.8379   -5.8118    1.1370 C   0  0  1  0  0  0  0  0  0  0  0  0
   -0.3401   -5.3733    2.0373 C   0  0  0  0  0  0  0  0  0  0  0  0
   -0.0645   -4.1084    2.6988 N   0  0  0  0  0  0  0  0  0  0  0  0
    0.3942   -7.0110    0.2755 C   0  0  1  0  0  0  0  0  0  0  0  0
   -0.5834   -6.6836   -0.5914 F   0  0  0  0  0  0  0  0  0  0  0  0
    1.4150   -7.5067   -0.4458 F   0  0  0  0  0  0  0  0  0  0  0  0
   -0.0739   -8.0202    1.0399 F   0  0  0  0  0  0  0  0  0  0  0  0
    2.7893   -4.9167   -0.1214 C   0  0  0  0  0  0  0  0  0  0  0  0
    3.4737   -3.5601   -0.3105 C   0  0  0  0  0  0  0  0  0  0  0  0
    6.1480   -0.6884    1.0735 H   0  0  0  0  0  0  0  0  0  0  0  0
    5.7057    0.7179    0.0547 H   0  0  0  0  0  0  0  0  0  0  0  0
    6.8240   -0.5350   -0.5791 H   0  0  0  0  0  0  0  0  0  0  0  0
    5.7012    0.6248   -2.2546 H   0  0  0  0  0  0  0  0  0  0  0  0
    4.6630    0.9593   -4.4698 H   0  0  0  0  0  0  0  0  0  0  0  0
    2.6741   -0.4130   -5.1370 H   0  0  0  0  0  0  0  0  0  0  0  0
    1.8102   -2.1525   -3.5780 H   0  0  0  0  0  0  0  0  0  0  0  0
    0.7223   -1.9365   -1.3754 H   0  0  0  0  0  0  0  0  0  0  0  0
    1.3159   -1.9964    0.3080 H   0  0  0  0  0  0  0  0  0  0  0  0
    0.4173   -4.3540   -1.4339 H   0  0  0  0  0  0  0  0  0  0  0  0
   -0.3506   -3.7076    0.0491 H   0  0  0  0  0  0  0  0  0  0  0  0
    1.6241   -6.2315    1.7919 H   0  0  0  0  0  0  0  0  0  0  0  0
   -0.5453   -6.2219    2.7199 H   0  0  0  0  0  0  0  0  0  0  0  0
   -1.2477   -5.2586    1.4193 H   0  0  0  0  0  0  0  0  0  0  0  0
    0.8590   -4.1154    3.1314 H   0  0  0  0  0  0  0  0  0  0  0  0
   -0.7436   -3.9424    3.4404 H   0  0  0  0  0  0  0  0  0  0  0  0
    2.7937   -5.4585   -1.0904 H   0  0  0  0  0  0  0  0  0  0  0  0
    3.3711   -5.5206    0.5949 H   0  0  0  0  0  0  0  0  0  0  0  0
    4.4594   -3.7076   -0.7740 H   0  0  0  0  0  0  0  0  0  0  0  0
    3.6359   -3.0994    0.6842 H   0  0  0  0  0  0  0  0  0  0  0  0
  1  2  1  0
  1 22  1  0
  1 23  1  0
  1 24  1  0
  2  3  1  0
  3  4  2  0
  3  8  1  0
  4  5  1  0
  4 25  1  0
  5  6  2  0
  5 26  1  0
  6  7  1  0
  6 27  1  0
  7  8  2  0
  7 28  1  0
  8  9  1  0
  9 10  1  0
  9 21  1  0
 10 11  1  0
 10 29  1  0
 10 30  1  0
 11 12  1  0
 11 31  1  0
 11 32  1  0
 12 13  1  0
 12 20  1  0
 13 14  1  0
 13 16  1  0
 13 33  1  1
 14 15  1  0
 14 34  1  0
 14 35  1  0
 15 36  1  0
 15 37  1  0
 16 17  1  6
 16 18  1  0
 16 19  1  0
 20 21  1  0
 20 38  1  0
 20 39  1  0
 21 40  1  0
 21 41  1  0
M  END

