
     RDKit          3D

 52 55  0  0  0  0  0  0  0  0999 V2000
    3.0847   -1.3383   -2.3971 O   0  0  0  0  0  0  0  0  0  0  0  0
    3.2440   -0.7300   -1.3512 C   0  0  0  0  0  0  0  0  0  0  0  0
    3.0368    0.6327   -1.2173 N   0  0  0  0  0  0  0  0  0  0  0  0
    2.6592    1.5682   -2.2045 C   0  0  0  0  0  0  0  0  0  0  0  0
    2.2192    1.1490   -3.4764 C   0  0  0  0  0  0  0  0  0  0  0  0
    1.8056    2.0794   -4.4275 C   0  0  0  0  0  0  0  0  0  0  0  0
    1.7981    3.4464   -4.1381 C   0  0  0  0  0  0  0  0  0  0  0  0
    2.2272    3.8690   -2.8845 C   0  0  0  0  0  0  0  0  0  0  0  0
    2.6872    2.9618   -1.9144 C   0  0  0  0  0  0  0  0  0  0  0  0
    3.1446    3.6066   -0.6298 C   0  0  0  0  0  0  0  0  0  0  0  0
    2.6954    4.6805   -0.2602 O   0  0  0  0  0  0  0  0  0  0  0  0
    4.1132    2.9525    0.1062 N   0  0  0  0  0  0  0  0  0  0  0  0
    4.7517    3.6051    1.2435 C   0  0  0  0  0  0  0  0  0  0  0  0
    4.1176    3.3266    2.6060 C   0  0  1  0  0  0  0  0  0  0  0  0
    2.6587    3.7342    2.8220 C   0  0  0  0  0  0  0  0  0  0  0  0
    2.2763    2.8565    4.0187 C   0  0  0  0  0  0  0  0  0  0  0  0
    3.0579    1.5630    3.7379 C   0  0  0  0  0  0  0  0  0  0  0  0
    4.1482    1.9232    2.8818 O   0  0  0  0  0  0  0  0  0  0  0  0
    3.7038   -1.4456   -0.1088 C   0  0  0  0  0  0  0  0  0  0  0  0
    3.7415   -2.8492   -0.1689 C   0  0  0  0  0  0  0  0  0  0  0  0
    4.1747   -3.6062    0.9140 C   0  0  0  0  0  0  0  0  0  0  0  0
    4.6129   -2.9730    2.0907 C   0  0  0  0  0  0  0  0  0  0  0  0
    5.0687   -3.7343    3.1887 N   0  0  0  0  0  0  0  0  0  0  0  0
    5.6858   -4.9734    3.1162 C   0  0  0  0  0  0  0  0  0  0  0  0
    5.9844   -5.3873    4.3948 C   0  0  0  0  0  0  0  0  0  0  0  0
    5.5283   -4.3703    5.2888 C   0  0  0  0  0  0  0  0  0  0  0  0
    4.9768   -3.3684    4.5224 C   0  0  0  0  0  0  0  0  0  0  0  0
    4.5924   -1.5706    2.1543 C   0  0  0  0  0  0  0  0  0  0  0  0
    4.1343   -0.8196    1.0725 C   0  0  0  0  0  0  0  0  0  0  0  0
    3.1104    1.0039   -0.2772 H   0  0  0  0  0  0  0  0  0  0  0  0
    2.2074    0.0855   -3.6966 H   0  0  0  0  0  0  0  0  0  0  0  0
    1.4734    1.7219   -5.4057 H   0  0  0  0  0  0  0  0  0  0  0  0
    1.4603    4.1736   -4.8798 H   0  0  0  0  0  0  0  0  0  0  0  0
    2.2255    4.9268   -2.6168 H   0  0  0  0  0  0  0  0  0  0  0  0
    4.6604    2.2485   -0.3757 H   0  0  0  0  0  0  0  0  0  0  0  0
    4.7481    4.6947    1.0818 H   0  0  0  0  0  0  0  0  0  0  0  0
    5.7977    3.2653    1.2783 H   0  0  0  0  0  0  0  0  0  0  0  0
    4.7514    3.8568    3.3491 H   0  0  0  0  0  0  0  0  0  0  0  0
    2.0549    3.4834    1.9375 H   0  0  0  0  0  0  0  0  0  0  0  0
    2.5432    4.8123    3.0034 H   0  0  0  0  0  0  0  0  0  0  0  0
    1.1936    2.6844    4.1089 H   0  0  0  0  0  0  0  0  0  0  0  0
    2.6200    3.3183    4.9588 H   0  0  0  0  0  0  0  0  0  0  0  0
    2.4361    0.8107    3.2200 H   0  0  0  0  0  0  0  0  0  0  0  0
    3.4495    1.0964    4.6588 H   0  0  0  0  0  0  0  0  0  0  0  0
    3.4109   -3.3329   -1.0894 H   0  0  0  0  0  0  0  0  0  0  0  0
    4.1564   -4.6954    0.8564 H   0  0  0  0  0  0  0  0  0  0  0  0
    5.9023   -5.4341    2.1564 H   0  0  0  0  0  0  0  0  0  0  0  0
    6.4871   -6.3156    4.6601 H   0  0  0  0  0  0  0  0  0  0  0  0
    5.5882   -4.3784    6.3756 H   0  0  0  0  0  0  0  0  0  0  0  0
    4.4849   -2.4449    4.8146 H   0  0  0  0  0  0  0  0  0  0  0  0
    4.9630   -1.0518    3.0391 H   0  0  0  0  0  0  0  0  0  0  0  0
    4.1535    0.2661    1.1949 H   0  0  0  0  0  0  0  0  0  0  0  0
  1  2  2  0
  2  3  1  0
  2 19  1  0
  3  4  1  0
  3 30  1  0
  4  5  2  0
  4  9  1  0
  5  6  1  0
  5 31  1  0
  6  7  2  0
  6 32  1  0
  7  8  1  0
  7 33  1  0
  8  9  2  0
  8 34  1  0
  9 10  1  0
 10 11  2  0
 10 12  1  0
 12 13  1  0
 12 35  1  0
 13 14  1  0
 13 36  1  0
 13 37  1  0
 14 15  1  0
 14 18  1  0
 14 38  1  1
 15 16  1  0
 15 39  1  0
 15 40  1  0
 16 17  1  0
 16 41  1  0
 16 42  1  0
 17 18  1  0
 17 43  1  0
 17 44  1  0
 19 20  2  0
 19 29  1  0
 20 21  1  0
 20 45  1  0
 21 22  2  0
 21 46  1  0
 22 23  1  0
 22 28  1  0
 23 24  1  0
 23 27  1  0
 24 25  2  0
 24 47  1  0
 25 26  1  0
 25 48  1  0
 26 27  2  0
 26 49  1  0
 27 50  1  0
 28 29  2  0
 28 51  1  0
 29 52  1  0
M  END

