
     RDKit          3D

 55 56  0  0  0  0  0  0  0  0999 V2000
    3.8451   -1.3011    5.2029 C   0  0  0  0  0  0  0  0  0  0  0  0
    3.2823   -0.7494    3.9005 C   0  0  0  0  0  0  0  0  0  0  0  0
    3.8076   -1.4026    2.7456 O   0  0  0  0  0  0  0  0  0  0  0  0
    5.0081   -1.0525    2.2424 C   0  0  0  0  0  0  0  0  0  0  0  0
    5.8350   -0.0610    2.7543 C   0  0  0  0  0  0  0  0  0  0  0  0
    7.0805    0.2509    2.1475 C   0  0  0  0  0  0  0  0  0  0  0  0
    8.0267    1.2570    2.5829 C   0  0  0  0  0  0  0  0  0  0  0  0
    8.1361    2.1992    3.5793 C   0  0  0  0  0  0  0  0  0  0  0  0
    7.1815    2.4637    4.6741 C   0  0  0  0  0  0  0  0  0  0  0  0
    6.1747    1.8402    4.9196 O   0  0  0  0  0  0  0  0  0  0  0  0
    7.4821    3.4958    5.5039 O   0  0  0  0  0  0  0  0  0  0  0  0
    8.5316    4.4476    5.3299 C   0  0  2  0  0  0  0  0  0  0  0  0
    9.2046    4.5649    6.6936 C   0  0  0  0  0  0  0  0  0  0  0  0
    7.9220    5.7833    4.7663 C   0  0  1  0  0  0  0  0  0  0  0  0
    6.8424    6.3138    5.7298 C   0  0  0  0  0  0  0  0  0  0  0  0
    9.0360    6.8353    4.5984 C   0  0  0  0  0  0  0  0  0  0  0  0
    7.2744    5.5267    3.3910 C   0  0  0  0  0  0  0  0  0  0  0  0
    9.5449    3.9867    4.4413 O   0  0  0  0  0  0  0  0  0  0  0  0
    9.3974    3.0003    3.5222 C   0  0  0  0  0  0  0  0  0  0  0  0
   10.2902    2.8180    2.7330 O   0  0  0  0  0  0  0  0  0  0  0  0
    7.4601   -0.4821    1.0015 C   0  0  0  0  0  0  0  0  0  0  0  0
    6.6435   -1.4823    0.4780 C   0  0  0  0  0  0  0  0  0  0  0  0
    5.4170   -1.7820    1.0838 C   0  0  0  0  0  0  0  0  0  0  0  0
    4.5584   -2.7281    0.6574 O   0  0  0  0  0  0  0  0  0  0  0  0
    4.8809   -3.4951   -0.4701 C   0  0  0  0  0  0  0  0  0  0  0  0
    3.7574   -4.4879   -0.7319 C   0  0  0  0  0  0  0  0  0  0  0  0
    2.7544   -4.6179   -0.0884 O   0  0  0  0  0  0  0  0  0  0  0  0
    4.0712   -5.2138   -1.8209 O   0  0  0  0  0  0  0  0  0  0  0  0
    3.1208   -6.2063   -2.2152 C   0  0  0  0  0  0  0  0  0  0  0  0
    3.3279   -0.8348    6.0566 H   0  0  0  0  0  0  0  0  0  0  0  0
    4.9194   -1.0915    5.3103 H   0  0  0  0  0  0  0  0  0  0  0  0
    3.6915   -2.3900    5.2563 H   0  0  0  0  0  0  0  0  0  0  0  0
    3.4378    0.3410    3.8271 H   0  0  0  0  0  0  0  0  0  0  0  0
    2.1988   -0.9332    3.8462 H   0  0  0  0  0  0  0  0  0  0  0  0
    5.5501    0.4935    3.6425 H   0  0  0  0  0  0  0  0  0  0  0  0
    8.9099    1.2915    1.9356 H   0  0  0  0  0  0  0  0  0  0  0  0
    8.4879    4.8928    7.4570 H   0  0  0  0  0  0  0  0  0  0  0  0
   10.0482    5.2654    6.6535 H   0  0  0  0  0  0  0  0  0  0  0  0
    9.5868    3.5737    6.9752 H   0  0  0  0  0  0  0  0  0  0  0  0
    7.2645    6.6110    6.7017 H   0  0  0  0  0  0  0  0  0  0  0  0
    6.0606    5.5617    5.9096 H   0  0  0  0  0  0  0  0  0  0  0  0
    6.3657    7.2063    5.2949 H   0  0  0  0  0  0  0  0  0  0  0  0
    9.4727    7.1338    5.5635 H   0  0  0  0  0  0  0  0  0  0  0  0
    8.6196    7.7430    4.1343 H   0  0  0  0  0  0  0  0  0  0  0  0
    9.8459    6.4625    3.9546 H   0  0  0  0  0  0  0  0  0  0  0  0
    6.4476    4.8028    3.4479 H   0  0  0  0  0  0  0  0  0  0  0  0
    8.0031    5.1727    2.6465 H   0  0  0  0  0  0  0  0  0  0  0  0
    6.8524    6.4683    3.0068 H   0  0  0  0  0  0  0  0  0  0  0  0
    8.4129   -0.2637    0.5144 H   0  0  0  0  0  0  0  0  0  0  0  0
    6.9698   -2.0275   -0.4073 H   0  0  0  0  0  0  0  0  0  0  0  0
    5.8201   -4.0628   -0.3311 H   0  0  0  0  0  0  0  0  0  0  0  0
    5.0107   -2.8709   -1.3739 H   0  0  0  0  0  0  0  0  0  0  0  0
    3.5376   -6.6922   -3.1057 H   0  0  0  0  0  0  0  0  0  0  0  0
    2.1500   -5.7447   -2.4508 H   0  0  0  0  0  0  0  0  0  0  0  0
    2.9710   -6.9436   -1.4123 H   0  0  0  0  0  0  0  0  0  0  0  0
  1  2  1  0
  1 30  1  0
  1 31  1  0
  1 32  1  0
  2  3  1  0
  2 33  1  0
  2 34  1  0
  3  4  1  0
  4  5  2  0
  4 23  1  0
  5  6  1  0
  5 35  1  0
  6  7  1  0
  6 21  2  0
  7  8  2  0
  7 36  1  0
  8  9  1  0
  8 19  1  0
  9 10  2  0
  9 11  1  0
 11 12  1  0
 12 13  1  1
 12 14  1  0
 12 18  1  0
 13 37  1  0
 13 38  1  0
 13 39  1  0
 14 15  1  1
 14 16  1  0
 14 17  1  0
 15 40  1  0
 15 41  1  0
 15 42  1  0
 16 43  1  0
 16 44  1  0
 16 45  1  0
 17 46  1  0
 17 47  1  0
 17 48  1  0
 18 19  1  0
 19 20  2  0
 21 22  1  0
 21 49  1  0
 22 23  2  0
 22 50  1  0
 23 24  1  0
 24 25  1  0
 25 26  1  0
 25 51  1  0
 25 52  1  0
 26 27  2  0
 26 28  1  0
 28 29  1  0
 29 53  1  0
 29 54  1  0
 29 55  1  0
M  END

