
     RDKit          3D

 65 69  0  0  0  0  0  0  0  0999 V2000
   -1.5795   -1.8406    2.8489 C   0  0  0  0  0  0  0  0  0  0  0  0
   -0.8731   -1.2521    3.9195 O   0  0  0  0  0  0  0  0  0  0  0  0
    0.4586   -1.0338    3.8086 C   0  0  0  0  0  0  0  0  0  0  0  0
    1.2191   -1.3655    2.6676 C   0  0  0  0  0  0  0  0  0  0  0  0
    2.5924   -1.1048    2.6384 C   0  0  0  0  0  0  0  0  0  0  0  0
    3.1890   -0.5150    3.7487 C   0  0  0  0  0  0  0  0  0  0  0  0
    2.4339   -0.1857    4.8821 C   0  0  0  0  0  0  0  0  0  0  0  0
    1.0710   -0.4371    4.9303 C   0  0  0  0  0  0  0  0  0  0  0  0
    3.3490    0.4356    5.9126 C   0  0  0  0  0  0  0  0  0  0  0  0
    4.6418    0.4214    5.2462 N   0  0  0  0  0  0  0  0  0  0  0  0
    5.8654    0.9133    5.8371 C   0  0  0  0  0  0  0  0  0  0  0  0
    6.6426   -0.1575    6.6172 C   0  0  0  0  0  0  0  0  0  0  0  0
    7.9110    0.4021    7.2556 C   0  0  0  0  0  0  0  0  0  0  0  0
    8.6612   -0.6650    7.9150 N   0  0  0  0  0  0  0  0  0  0  0  0
    9.7158   -0.4391    8.7515 C   0  0  0  0  0  0  0  0  0  0  0  0
   10.1559    0.7090    9.4336 C   0  0  0  0  0  0  0  0  0  0  0  0
    9.5372    1.9872    9.4391 C   0  0  0  0  0  0  0  0  0  0  0  0
    8.9619    2.9976    9.4118 N   0  0  0  0  0  0  0  0  0  0  0  0
   11.3342    0.2804   10.1387 C   0  0  0  0  0  0  0  0  0  0  0  0
   12.1850    1.1845   10.9770 C   0  0  0  0  0  0  0  0  0  0  0  0
   11.9567    2.3814   10.9095 O   0  0  0  0  0  0  0  0  0  0  0  0
   13.2798    0.6667   11.8596 C   0  0  0  0  0  0  0  0  0  0  0  0
   13.4855   -0.6841   12.1877 C   0  0  0  0  0  0  0  0  0  0  0  0
   14.5213   -1.0505   13.0504 C   0  0  0  0  0  0  0  0  0  0  0  0
   15.3834   -0.0952   13.6072 C   0  0  0  0  0  0  0  0  0  0  0  0
   16.5063   -0.4903   14.5327 C   0  0  0  0  0  0  0  0  0  0  0  0
   15.1707    1.2564   13.2759 C   0  0  0  0  0  0  0  0  0  0  0  0
   14.1384    1.6312   12.4248 C   0  0  0  0  0  0  0  0  0  0  0  0
   11.5881   -0.9954    9.9144 N   0  0  0  0  0  0  0  0  0  0  0  0
   10.6057   -1.4374    9.0887 N   0  0  0  0  0  0  0  0  0  0  0  0
   10.6292   -2.7889    8.6464 C   0  0  0  0  0  0  0  0  0  0  0  0
    9.4611   -3.5646    8.6305 C   0  0  0  0  0  0  0  0  0  0  0  0
    9.5084   -4.8922    8.1992 C   0  0  0  0  0  0  0  0  0  0  0  0
   10.7288   -5.4479    7.8064 C   0  0  0  0  0  0  0  0  0  0  0  0
   10.7917   -7.1079    7.2739 Cl  0  0  0  0  0  0  0  0  0  0  0  0
   11.9026   -4.6860    7.8428 C   0  0  0  0  0  0  0  0  0  0  0  0
   11.8511   -3.3571    8.2579 C   0  0  0  0  0  0  0  0  0  0  0  0
    4.6083   -0.1362    3.9779 C   0  0  0  0  0  0  0  0  0  0  0  0
    5.5708   -0.2706    3.2430 O   0  0  0  0  0  0  0  0  0  0  0  0
   -2.6271   -1.9133    3.1700 H   0  0  0  0  0  0  0  0  0  0  0  0
   -1.2054   -2.8538    2.6171 H   0  0  0  0  0  0  0  0  0  0  0  0
   -1.5276   -1.2236    1.9340 H   0  0  0  0  0  0  0  0  0  0  0  0
    0.7437   -1.8260    1.8017 H   0  0  0  0  0  0  0  0  0  0  0  0
    3.1939   -1.3561    1.7615 H   0  0  0  0  0  0  0  0  0  0  0  0
    0.4507   -0.1935    5.7957 H   0  0  0  0  0  0  0  0  0  0  0  0
    3.3607   -0.1468    6.8538 H   0  0  0  0  0  0  0  0  0  0  0  0
    3.0394    1.4657    6.1738 H   0  0  0  0  0  0  0  0  0  0  0  0
    5.6270    1.7683    6.4929 H   0  0  0  0  0  0  0  0  0  0  0  0
    6.4956    1.2900    5.0157 H   0  0  0  0  0  0  0  0  0  0  0  0
    6.8998   -0.9693    5.9139 H   0  0  0  0  0  0  0  0  0  0  0  0
    6.0043   -0.5976    7.4025 H   0  0  0  0  0  0  0  0  0  0  0  0
    7.6522    1.1676    7.9996 H   0  0  0  0  0  0  0  0  0  0  0  0
    8.5319    0.9069    6.4896 H   0  0  0  0  0  0  0  0  0  0  0  0
    8.7318   -1.5200    7.3709 H   0  0  0  0  0  0  0  0  0  0  0  0
   12.8363   -1.4490   11.7661 H   0  0  0  0  0  0  0  0  0  0  0  0
   14.6607   -2.1069   13.2974 H   0  0  0  0  0  0  0  0  0  0  0  0
   16.5201   -1.5743   14.7174 H   0  0  0  0  0  0  0  0  0  0  0  0
   16.4180    0.0196   15.5066 H   0  0  0  0  0  0  0  0  0  0  0  0
   17.4858   -0.2061   14.1122 H   0  0  0  0  0  0  0  0  0  0  0  0
   15.8269    2.0235   13.6979 H   0  0  0  0  0  0  0  0  0  0  0  0
   13.9677    2.6803   12.1770 H   0  0  0  0  0  0  0  0  0  0  0  0
    8.5157   -3.1416    8.9746 H   0  0  0  0  0  0  0  0  0  0  0  0
    8.6035   -5.5015    8.1850 H   0  0  0  0  0  0  0  0  0  0  0  0
   12.8497   -5.1347    7.5391 H   0  0  0  0  0  0  0  0  0  0  0  0
   12.7559   -2.7494    8.2951 H   0  0  0  0  0  0  0  0  0  0  0  0
  1  2  1  0
  1 40  1  0
  1 41  1  0
  1 42  1  0
  2  3  1  0
  3  4  2  0
  3  8  1  0
  4  5  1  0
  4 43  1  0
  5  6  2  0
  5 44  1  0
  6  7  1  0
  6 38  1  0
  7  8  2  0
  7  9  1  0
  8 45  1  0
  9 10  1  0
  9 46  1  0
  9 47  1  0
 10 11  1  0
 10 38  1  0
 11 12  1  0
 11 48  1  0
 11 49  1  0
 12 13  1  0
 12 50  1  0
 12 51  1  0
 13 14  1  0
 13 52  1  0
 13 53  1  0
 14 15  1  0
 14 54  1  0
 15 16  2  0
 15 30  1  0
 16 17  1  0
 16 19  1  0
 17 18  3  0
 19 20  1  0
 19 29  2  0
 20 21  2  0
 20 22  1  0
 22 23  2  0
 22 28  1  0
 23 24  1  0
 23 55  1  0
 24 25  2  0
 24 56  1  0
 25 26  1  0
 25 27  1  0
 26 57  1  0
 26 58  1  0
 26 59  1  0
 27 28  2  0
 27 60  1  0
 28 61  1  0
 29 30  1  0
 30 31  1  0
 31 32  2  0
 31 37  1  0
 32 33  1  0
 32 62  1  0
 33 34  2  0
 33 63  1  0
 34 35  1  0
 34 36  1  0
 36 37  2  0
 36 64  1  0
 37 65  1  0
 38 39  2  0
M  END

