
     RDKit          3D

 48 51  0  0  0  0  0  0  0  0999 V2000
    2.4514    2.9161   -2.6775 C   0  0  0  0  0  0  0  0  0  0  0  0
    1.4671    2.8826   -1.6829 C   0  0  0  0  0  0  0  0  0  0  0  0
    1.3061    1.7406   -0.8970 C   0  0  0  0  0  0  0  0  0  0  0  0
    2.1224    0.6141   -1.0894 C   0  0  0  0  0  0  0  0  0  0  0  0
    1.9098   -0.6134   -0.2073 C   0  0  0  0  0  0  0  0  0  0  0  0
    2.7900   -1.7339   -0.4506 N   0  0  0  0  0  0  0  0  0  0  0  0
    4.0329   -1.8244    0.1709 C   0  0  0  0  0  0  0  0  0  0  0  0
    4.9208   -2.8070   -0.1158 C   0  0  0  0  0  0  0  0  0  0  0  0
    4.6539   -3.8456   -1.1099 C   0  0  0  0  0  0  0  0  0  0  0  0
    5.5495   -4.8566   -1.4289 C   0  0  0  0  0  0  0  0  0  0  0  0
    6.8671   -4.9999   -0.8112 C   0  0  0  0  0  0  0  0  0  0  0  0
    7.7199   -6.0023   -1.1331 C   0  0  0  0  0  0  0  0  0  0  0  0
    7.4131   -6.9685   -2.0879 N   0  0  0  0  0  0  0  0  0  0  0  0
    8.2949   -8.0882   -2.3296 C   0  0  0  0  0  0  0  0  0  0  0  0
    8.1118   -9.2987   -1.4178 C   0  0  0  0  0  0  0  0  0  0  0  0
    7.1046   -9.3554   -0.4468 C   0  0  0  0  0  0  0  0  0  0  0  0
    6.9652  -10.4872    0.3655 C   0  0  0  0  0  0  0  0  0  0  0  0
    7.8292  -11.5740    0.2170 C   0  0  0  0  0  0  0  0  0  0  0  0
    8.8390  -11.5245   -0.7510 C   0  0  0  0  0  0  0  0  0  0  0  0
    8.9775  -10.3954   -1.5596 C   0  0  0  0  0  0  0  0  0  0  0  0
    6.1706   -6.8778   -2.7096 C   0  0  0  0  0  0  0  0  0  0  0  0
    5.2826   -5.8951   -2.4231 C   0  0  0  0  0  0  0  0  0  0  0  0
    3.3362   -3.7025   -1.7275 C   0  0  0  0  0  0  0  0  0  0  0  0
    2.4833   -2.7001   -1.4053 C   0  0  0  0  0  0  0  0  0  0  0  0
    3.1048    0.6553   -2.0863 C   0  0  0  0  0  0  0  0  0  0  0  0
    3.2673    1.8005   -2.8752 C   0  0  0  0  0  0  0  0  0  0  0  0
    2.5796    3.8093   -3.2943 H   0  0  0  0  0  0  0  0  0  0  0  0
    0.8229    3.7508   -1.5195 H   0  0  0  0  0  0  0  0  0  0  0  0
    0.5339    1.7227   -0.1209 H   0  0  0  0  0  0  0  0  0  0  0  0
    0.8678   -0.9601   -0.3208 H   0  0  0  0  0  0  0  0  0  0  0  0
    2.0106   -0.3159    0.8511 H   0  0  0  0  0  0  0  0  0  0  0  0
    4.2419   -1.0522    0.9139 H   0  0  0  0  0  0  0  0  0  0  0  0
    5.8595   -2.8017    0.4385 H   0  0  0  0  0  0  0  0  0  0  0  0
    7.2075   -4.2825   -0.0643 H   0  0  0  0  0  0  0  0  0  0  0  0
    8.7012   -6.1021   -0.6649 H   0  0  0  0  0  0  0  0  0  0  0  0
    9.3380   -7.7348   -2.2506 H   0  0  0  0  0  0  0  0  0  0  0  0
    8.1677   -8.4070   -3.3789 H   0  0  0  0  0  0  0  0  0  0  0  0
    6.4246   -8.5104   -0.3221 H   0  0  0  0  0  0  0  0  0  0  0  0
    6.1741  -10.5155    1.1193 H   0  0  0  0  0  0  0  0  0  0  0  0
    7.7193  -12.4566    0.8522 H   0  0  0  0  0  0  0  0  0  0  0  0
    9.5218  -12.3694   -0.8748 H   0  0  0  0  0  0  0  0  0  0  0  0
    9.7709  -10.3642   -2.3135 H   0  0  0  0  0  0  0  0  0  0  0  0
    5.9618   -7.6496   -3.4531 H   0  0  0  0  0  0  0  0  0  0  0  0
    4.3441   -5.9003   -2.9776 H   0  0  0  0  0  0  0  0  0  0  0  0
    2.9957   -4.4199   -2.4743 H   0  0  0  0  0  0  0  0  0  0  0  0
    1.5017   -2.6007   -1.8731 H   0  0  0  0  0  0  0  0  0  0  0  0
    3.7481   -0.2118   -2.2487 H   0  0  0  0  0  0  0  0  0  0  0  0
    4.0390    1.8167   -3.6493 H   0  0  0  0  0  0  0  0  0  0  0  0
  1  2  2  0
  1 26  1  0
  1 27  1  0
  2  3  1  0
  2 28  1  0
  3  4  2  0
  3 29  1  0
  4  5  1  0
  4 25  1  0
  5  6  1  0
  5 30  1  0
  5 31  1  0
  6  7  1  0
  6 24  1  0
  7  8  2  0
  7 32  1  0
  8  9  1  0
  8 33  1  0
  9 10  2  0
  9 23  1  0
 10 11  1  0
 10 22  1  0
 11 12  2  0
 11 34  1  0
 12 13  1  0
 12 35  1  0
 13 14  1  0
 13 21  1  0
 14 15  1  0
 14 36  1  0
 14 37  1  0
 15 16  2  0
 15 20  1  0
 16 17  1  0
 16 38  1  0
 17 18  2  0
 17 39  1  0
 18 19  1  0
 18 40  1  0
 19 20  2  0
 19 41  1  0
 20 42  1  0
 21 22  2  0
 21 43  1  0
 22 44  1  0
 23 24  2  0
 23 45  1  0
 24 46  1  0
 25 26  2  0
 25 47  1  0
 26 48  1  0
M  END

