
     RDKit          3D

 29 30  0  0  0  0  0  0  0  0999 V2000
    2.4048    2.8218    3.1080 C   0  0  0  0  0  0  0  0  0  0  0  0
    2.3266    1.2372    2.2555 S   0  0  1  0  0  0  0  0  0  0  0  0
    2.7362    0.2166    3.2200 O   0  0  0  0  0  0  0  0  0  0  0  0
    1.0559    1.1771    1.5380 O   0  0  0  0  0  0  0  0  0  0  0  0
    3.5059    1.2692    1.0496 N   0  0  0  0  0  0  0  0  0  0  0  0
    4.9014    1.2211    1.3227 C   0  0  0  0  0  0  0  0  0  0  0  0
    5.6116    2.4264    1.4340 C   0  0  0  0  0  0  0  0  0  0  0  0
    6.9814    2.4644    1.7231 C   0  0  0  0  0  0  0  0  0  0  0  0
    7.6693    3.7189    1.8174 C   0  0  0  0  0  0  0  0  0  0  0  0
    8.2232    4.7373    1.8943 N   0  0  0  0  0  0  0  0  0  0  0  0
    7.6586    1.2440    1.9306 C   0  0  0  0  0  0  0  0  0  0  0  0
    6.9751    0.0470    1.8145 C   0  0  0  0  0  0  0  0  0  0  0  0
    5.6009   -0.0049    1.4881 C   0  0  0  0  0  0  0  0  0  0  0  0
    5.1189   -1.2524    1.3761 O   0  0  0  0  0  0  0  0  0  0  0  0
    3.8854   -1.5953    0.7790 C   0  0  1  0  0  0  0  0  0  0  0  0
    3.7711   -1.5626   -0.7150 C   0  0  0  0  0  0  0  0  0  0  0  0
    3.9019   -2.8817    0.0192 C   0  0  0  0  0  0  0  0  0  0  0  0
    1.6525    2.7708    3.9072 H   0  0  0  0  0  0  0  0  0  0  0  0
    2.1558    3.6218    2.3989 H   0  0  0  0  0  0  0  0  0  0  0  0
    3.4063    2.9525    3.5376 H   0  0  0  0  0  0  0  0  0  0  0  0
    3.1860    1.7422    0.2073 H   0  0  0  0  0  0  0  0  0  0  0  0
    5.0679    3.3620    1.2869 H   0  0  0  0  0  0  0  0  0  0  0  0
    8.7233    1.2473    2.1707 H   0  0  0  0  0  0  0  0  0  0  0  0
    7.4861   -0.9073    1.9531 H   0  0  0  0  0  0  0  0  0  0  0  0
    3.0209   -1.3529    1.3988 H   0  0  0  0  0  0  0  0  0  0  0  0
    4.6426   -1.2190   -1.2797 H   0  0  0  0  0  0  0  0  0  0  0  0
    2.8057   -1.2808   -1.1453 H   0  0  0  0  0  0  0  0  0  0  0  0
    4.8628   -3.3987   -0.0501 H   0  0  0  0  0  0  0  0  0  0  0  0
    3.0301   -3.5362    0.1013 H   0  0  0  0  0  0  0  0  0  0  0  0
  1  2  1  0
  1 18  1  0
  1 19  1  0
  1 20  1  0
  2  3  2  0
  2  4  2  0
  2  5  1  6
  5  6  1  0
  5 21  1  0
  6  7  2  0
  6 13  1  0
  7  8  1  0
  7 22  1  0
  8  9  1  0
  8 11  2  0
  9 10  3  0
 11 12  1  0
 11 23  1  0
 12 13  2  0
 12 24  1  0
 13 14  1  0
 14 15  1  0
 15 16  1  0
 15 17  1  0
 15 25  1  1
 16 17  1  0
 16 26  1  0
 16 27  1  0
 17 28  1  0
 17 29  1  0
M  END

