
     RDKit          3D

 63 66  0  0  0  0  0  0  0  0999 V2000
    1.8290    0.6283    0.4738 C   0  0  0  0  0  0  0  0  0  0  0  0
    1.8803   -0.7714    0.2865 O   0  0  0  0  0  0  0  0  0  0  0  0
    2.5029   -1.2815   -0.8089 C   0  0  0  0  0  0  0  0  0  0  0  0
    3.1371   -0.5201   -1.7908 C   0  0  0  0  0  0  0  0  0  0  0  0
    3.7500   -1.1500   -2.8818 C   0  0  0  0  0  0  0  0  0  0  0  0
    3.7166   -2.5376   -2.9663 C   0  0  0  0  0  0  0  0  0  0  0  0
    4.4370   -3.3394   -4.4020 S   0  0  1  0  0  0  0  0  0  0  0  0
    3.4308   -4.2231   -4.9983 O   0  0  0  0  0  0  0  0  0  0  0  0
    5.0639   -2.2784   -5.2058 O   0  0  0  0  0  0  0  0  0  0  0  0
    5.6141   -4.3403   -3.7269 N   0  0  0  0  0  0  0  0  0  0  0  0
    5.7021   -5.7316   -4.1909 C   0  0  0  0  0  0  0  0  0  0  0  0
    6.6855   -5.8916   -5.3557 C   0  0  0  0  0  0  0  0  0  0  0  0
    8.0546   -5.2895   -5.0097 C   0  0  0  0  0  0  0  0  0  0  0  0
    7.9173   -3.8351   -4.5381 C   0  0  0  0  0  0  0  0  0  0  0  0
    6.9032   -3.7210   -3.3933 C   0  0  0  0  0  0  0  0  0  0  0  0
    3.0793   -3.3252   -1.9981 C   0  0  0  0  0  0  0  0  0  0  0  0
    2.4712   -2.7032   -0.9055 C   0  0  0  0  0  0  0  0  0  0  0  0
    1.8132   -3.3783    0.1262 N   0  0  0  0  0  0  0  0  0  0  0  0
    1.6662   -4.7313    0.3022 C   0  0  0  0  0  0  0  0  0  0  0  0
    2.0999   -5.5908   -0.4511 O   0  0  0  0  0  0  0  0  0  0  0  0
    0.9071   -5.0894    1.5284 C   0  0  0  0  0  0  0  0  0  0  0  0
    0.4443   -4.1834    2.3932 N   0  0  0  0  0  0  0  0  0  0  0  0
   -0.1591   -4.8970    3.3290 N   0  0  0  0  0  0  0  0  0  0  0  0
   -0.8607   -4.3261    4.4357 C   0  0  0  0  0  0  0  0  0  0  0  0
   -2.0006   -5.0050    4.8888 C   0  0  0  0  0  0  0  0  0  0  0  0
   -2.7313   -4.5115    5.9635 C   0  0  0  0  0  0  0  0  0  0  0  0
   -2.3438   -3.3261    6.6082 C   0  0  0  0  0  0  0  0  0  0  0  0
   -3.1444   -2.7763    7.7627 C   0  0  0  0  0  0  0  0  0  0  0  0
   -1.1952   -2.6756    6.1419 C   0  0  0  0  0  0  0  0  0  0  0  0
   -0.4224   -3.1439    5.0658 C   0  0  0  0  0  0  0  0  0  0  0  0
    0.8202   -2.3874    4.6646 C   0  0  0  0  0  0  0  0  0  0  0  0
   -0.1326   -6.2189    3.1266 N   0  0  0  0  0  0  0  0  0  0  0  0
    0.5400   -6.3825    1.9898 C   0  0  0  0  0  0  0  0  0  0  0  0
    0.8105   -7.7249    1.3972 C   0  0  0  0  0  0  0  0  0  0  0  0
    1.2755    0.7981    1.4065 H   0  0  0  0  0  0  0  0  0  0  0  0
    1.3004    1.1287   -0.3561 H   0  0  0  0  0  0  0  0  0  0  0  0
    2.8399    1.0616    0.5700 H   0  0  0  0  0  0  0  0  0  0  0  0
    3.1597    0.5671   -1.7191 H   0  0  0  0  0  0  0  0  0  0  0  0
    4.2453   -0.5717   -3.6623 H   0  0  0  0  0  0  0  0  0  0  0  0
    4.6951   -6.0697   -4.4644 H   0  0  0  0  0  0  0  0  0  0  0  0
    6.0346   -6.3360   -3.3267 H   0  0  0  0  0  0  0  0  0  0  0  0
    6.2653   -5.3866   -6.2431 H   0  0  0  0  0  0  0  0  0  0  0  0
    6.7822   -6.9606   -5.6110 H   0  0  0  0  0  0  0  0  0  0  0  0
    8.7323   -5.3483   -5.8774 H   0  0  0  0  0  0  0  0  0  0  0  0
    8.5232   -5.8918   -4.2082 H   0  0  0  0  0  0  0  0  0  0  0  0
    7.5695   -3.2001   -5.3693 H   0  0  0  0  0  0  0  0  0  0  0  0
    8.8922   -3.4385   -4.2067 H   0  0  0  0  0  0  0  0  0  0  0  0
    6.7352   -2.6701   -3.1170 H   0  0  0  0  0  0  0  0  0  0  0  0
    7.2849   -4.2331   -2.4907 H   0  0  0  0  0  0  0  0  0  0  0  0
    3.0496   -4.4096   -2.0754 H   0  0  0  0  0  0  0  0  0  0  0  0
    1.3965   -2.7831    0.8376 H   0  0  0  0  0  0  0  0  0  0  0  0
   -2.2941   -5.9264    4.3857 H   0  0  0  0  0  0  0  0  0  0  0  0
   -3.6181   -5.0539    6.3030 H   0  0  0  0  0  0  0  0  0  0  0  0
   -3.3133   -3.5442    8.5351 H   0  0  0  0  0  0  0  0  0  0  0  0
   -4.1388   -2.4334    7.4290 H   0  0  0  0  0  0  0  0  0  0  0  0
   -2.6394   -1.9225    8.2377 H   0  0  0  0  0  0  0  0  0  0  0  0
   -0.8670   -1.7617    6.6459 H   0  0  0  0  0  0  0  0  0  0  0  0
    1.0978   -1.6719    5.4522 H   0  0  0  0  0  0  0  0  0  0  0  0
    0.6718   -1.8309    3.7266 H   0  0  0  0  0  0  0  0  0  0  0  0
    1.6726   -3.0609    4.4914 H   0  0  0  0  0  0  0  0  0  0  0  0
    0.3603   -8.5077    2.0226 H   0  0  0  0  0  0  0  0  0  0  0  0
    1.8930   -7.9032    1.3103 H   0  0  0  0  0  0  0  0  0  0  0  0
    0.4048   -7.7909    0.3765 H   0  0  0  0  0  0  0  0  0  0  0  0
  1  2  1  0
  1 35  1  0
  1 36  1  0
  1 37  1  0
  2  3  1  0
  3  4  2  0
  3 17  1  0
  4  5  1  0
  4 38  1  0
  5  6  2  0
  5 39  1  0
  7  6  1  1
  6 16  1  0
  7  8  2  0
  7  9  2  0
  7 10  1  0
 10 11  1  0
 10 15  1  0
 11 12  1  0
 11 40  1  0
 11 41  1  0
 12 13  1  0
 12 42  1  0
 12 43  1  0
 13 14  1  0
 13 44  1  0
 13 45  1  0
 14 15  1  0
 14 46  1  0
 14 47  1  0
 15 48  1  0
 15 49  1  0
 16 17  2  0
 16 50  1  0
 17 18  1  0
 18 19  1  0
 18 51  1  0
 19 20  2  0
 19 21  1  0
 21 22  2  0
 21 33  1  0
 22 23  1  0
 23 24  1  0
 23 32  1  0
 24 25  2  0
 24 30  1  0
 25 26  1  0
 25 52  1  0
 26 27  2  0
 26 53  1  0
 27 28  1  0
 27 29  1  0
 28 54  1  0
 28 55  1  0
 28 56  1  0
 29 30  2  0
 29 57  1  0
 30 31  1  0
 31 58  1  0
 31 59  1  0
 31 60  1  0
 32 33  2  0
 33 34  1  0
 34 61  1  0
 34 62  1  0
 34 63  1  0
M  END

