
     RDKit          3D

 41 44  0  0  0  0  0  0  0  0999 V2000
    0.5862   -0.0094    0.4062 C   0  0  0  0  0  0  0  0  0  0  0  0
    2.0081   -0.2607    0.4988 N   0  0  0  0  0  0  0  0  0  0  0  0
    3.0239    0.6832    0.5164 C   0  0  0  0  0  0  0  0  0  0  0  0
    2.7075    2.0151    0.4344 N   0  0  0  0  0  0  0  0  0  0  0  0
    3.5745    3.1086    0.4122 C   0  0  0  0  0  0  0  0  0  0  0  0
    4.9749    3.0269    0.4677 C   0  0  0  0  0  0  0  0  0  0  0  0
    5.7294    4.1954    0.4364 C   0  0  0  0  0  0  0  0  0  0  0  0
    7.0600    4.1250    0.4892 F   0  0  0  0  0  0  0  0  0  0  0  0
    5.1374    5.4579    0.3515 C   0  0  0  0  0  0  0  0  0  0  0  0
    5.8738    6.5660    0.3235 F   0  0  0  0  0  0  0  0  0  0  0  0
    3.7425    5.5414    0.2967 C   0  0  0  0  0  0  0  0  0  0  0  0
    3.1475    6.7271    0.2159 F   0  0  0  0  0  0  0  0  0  0  0  0
    2.9779    4.3788    0.3268 C   0  0  0  0  0  0  0  0  0  0  0  0
    1.6347    4.4632    0.2739 F   0  0  0  0  0  0  0  0  0  0  0  0
    4.2271    0.1683    0.6132 N   0  0  0  0  0  0  0  0  0  0  0  0
    4.0283   -1.1962    0.6711 C   0  0  0  0  0  0  0  0  0  0  0  0
    4.9637   -2.2332    0.7794 C   0  0  0  0  0  0  0  0  0  0  0  0
    4.4744   -3.5376    0.8229 C   0  0  0  0  0  0  0  0  0  0  0  0
    5.3765   -4.5860    0.9901 O   0  0  0  0  0  0  0  0  0  0  0  0
    5.8445   -5.2695   -0.0794 C   0  0  0  0  0  0  0  0  0  0  0  0
    6.7220   -6.3346    0.1725 C   0  0  0  0  0  0  0  0  0  0  0  0
    7.2222   -7.0573   -0.9097 C   0  0  0  0  0  0  0  0  0  0  0  0
    6.9182   -6.8025   -2.1843 N   0  0  0  0  0  0  0  0  0  0  0  0
    6.0815   -5.7832   -2.4120 C   0  0  0  0  0  0  0  0  0  0  0  0
    5.7501   -5.5071   -3.7951 C   0  0  0  0  0  0  0  0  0  0  0  0
    5.4656   -5.2659   -4.8934 N   0  0  0  0  0  0  0  0  0  0  0  0
    5.5134   -4.9803   -1.4096 C   0  0  0  0  0  0  0  0  0  0  0  0
    3.1011   -3.8320    0.7700 C   0  0  0  0  0  0  0  0  0  0  0  0
    2.1598   -2.8039    0.6608 C   0  0  0  0  0  0  0  0  0  0  0  0
    2.6419   -1.4962    0.6085 C   0  0  0  0  0  0  0  0  0  0  0  0
    0.3628    0.6849   -0.4206 H   0  0  0  0  0  0  0  0  0  0  0  0
    0.1753    0.4023    1.3444 H   0  0  0  0  0  0  0  0  0  0  0  0
    0.0664   -0.9512    0.1892 H   0  0  0  0  0  0  0  0  0  0  0  0
    1.7256    2.2579    0.3965 H   0  0  0  0  0  0  0  0  0  0  0  0
    5.4607    2.0552    0.5366 H   0  0  0  0  0  0  0  0  0  0  0  0
    6.0340   -2.0310    0.8347 H   0  0  0  0  0  0  0  0  0  0  0  0
    6.9964   -6.5777    1.2004 H   0  0  0  0  0  0  0  0  0  0  0  0
    7.9090   -7.8925   -0.7322 H   0  0  0  0  0  0  0  0  0  0  0  0
    4.8405   -4.1631   -1.6667 H   0  0  0  0  0  0  0  0  0  0  0  0
    2.7809   -4.8739    0.8256 H   0  0  0  0  0  0  0  0  0  0  0  0
    1.0932   -3.0351    0.6272 H   0  0  0  0  0  0  0  0  0  0  0  0
  1  2  1  0
  1 31  1  0
  1 32  1  0
  1 33  1  0
  2  3  1  0
  2 30  1  0
  3  4  1  0
  3 15  2  0
  4  5  1  0
  4 34  1  0
  5  6  2  0
  5 13  1  0
  6  7  1  0
  6 35  1  0
  7  8  1  0
  7  9  2  0
  9 10  1  0
  9 11  1  0
 11 12  1  0
 11 13  2  0
 13 14  1  0
 15 16  1  0
 16 17  1  0
 16 30  2  0
 17 18  2  0
 17 36  1  0
 18 19  1  0
 18 28  1  0
 19 20  1  0
 20 21  2  0
 20 27  1  0
 21 22  1  0
 21 37  1  0
 22 23  2  0
 22 38  1  0
 23 24  1  0
 24 25  1  0
 24 27  2  0
 25 26  3  0
 27 39  1  0
 28 29  2  0
 28 40  1  0
 29 30  1  0
 29 41  1  0
M  END

