
     RDKit          3D

 48 49  0  0  0  0  0  0  0  0999 V2000
    0.9661   -3.7440    2.3866 C   0  0  0  0  0  0  0  0  0  0  0  0
    2.3127   -3.4686    2.6956 O   0  0  0  0  0  0  0  0  0  0  0  0
    2.8341   -2.2565    2.3647 C   0  0  0  0  0  0  0  0  0  0  0  0
    2.1191   -1.2294    1.7308 C   0  0  0  0  0  0  0  0  0  0  0  0
    2.7791   -0.0279    1.4457 C   0  0  0  0  0  0  0  0  0  0  0  0
    4.1175    0.1815    1.7703 C   0  0  0  0  0  0  0  0  0  0  0  0
    4.8295   -0.8548    2.4078 C   0  0  0  0  0  0  0  0  0  0  0  0
    6.1781   -0.7385    2.7767 N   0  0  0  0  0  0  0  0  0  0  0  0
    7.0533    0.2990    2.5890 C   0  0  0  0  0  0  0  0  0  0  0  0
    6.8029    1.3544    2.0367 O   0  0  0  0  0  0  0  0  0  0  0  0
    8.4352    0.0395    3.2111 C   0  0  0  0  0  0  0  0  0  0  0  0
    8.7494   -1.3724    3.4135 N   0  0  0  0  0  0  0  0  0  0  0  0
    9.2185   -2.0206    2.1953 C   0  0  0  0  0  0  0  0  0  0  0  0
    9.5650   -1.6773    4.6081 C   0  0  1  0  0  0  0  0  0  0  0  0
    9.7467   -2.7627    4.5729 H   0  0  0  0  0  0  0  0  0  0  0  0
   10.9196   -0.9639    4.6798 C   0  0  0  0  0  0  0  0  0  0  0  0
    8.7236   -1.3593    5.8627 C   0  0  0  0  0  0  0  0  0  0  0  0
    8.8233   -0.2802    6.4357 O   0  0  0  0  0  0  0  0  0  0  0  0
    7.8409   -2.3070    6.2817 N   0  0  0  0  0  0  0  0  0  0  0  0
    7.5888   -3.6251    5.6877 C   0  0  0  0  0  0  0  0  0  0  0  0
    6.2744   -4.0644    6.3479 C   0  0  0  0  0  0  0  0  0  0  0  0
    6.3446   -3.4101    7.7353 C   0  0  0  0  0  0  0  0  0  0  0  0
    6.9836   -2.0469    7.4476 C   0  0  0  0  0  0  0  0  0  0  0  0
    4.1821   -2.0642    2.6976 C   0  0  0  0  0  0  0  0  0  0  0  0
    0.7666   -4.7663    2.7360 H   0  0  0  0  0  0  0  0  0  0  0  0
    0.7734   -3.6949    1.2994 H   0  0  0  0  0  0  0  0  0  0  0  0
    0.2743   -3.0508    2.8990 H   0  0  0  0  0  0  0  0  0  0  0  0
    1.0707   -1.3501    1.4600 H   0  0  0  0  0  0  0  0  0  0  0  0
    2.2242    0.7743    0.9517 H   0  0  0  0  0  0  0  0  0  0  0  0
    4.6226    1.1173    1.5443 H   0  0  0  0  0  0  0  0  0  0  0  0
    6.6108   -1.5316    3.2478 H   0  0  0  0  0  0  0  0  0  0  0  0
    8.4349    0.5560    4.1845 H   0  0  0  0  0  0  0  0  0  0  0  0
    9.1672    0.5685    2.5716 H   0  0  0  0  0  0  0  0  0  0  0  0
    8.4796   -1.8787    1.3911 H   0  0  0  0  0  0  0  0  0  0  0  0
    9.3310   -3.1040    2.3597 H   0  0  0  0  0  0  0  0  0  0  0  0
   10.1885   -1.6250    1.8287 H   0  0  0  0  0  0  0  0  0  0  0  0
   11.5064   -1.1357    3.7645 H   0  0  0  0  0  0  0  0  0  0  0  0
   11.5052   -1.3407    5.5326 H   0  0  0  0  0  0  0  0  0  0  0  0
   10.7882    0.1165    4.8288 H   0  0  0  0  0  0  0  0  0  0  0  0
    8.4052   -4.3331    5.9272 H   0  0  0  0  0  0  0  0  0  0  0  0
    7.5120   -3.5631    4.5919 H   0  0  0  0  0  0  0  0  0  0  0  0
    6.1651   -5.1586    6.3797 H   0  0  0  0  0  0  0  0  0  0  0  0
    5.4179   -3.6599    5.7828 H   0  0  0  0  0  0  0  0  0  0  0  0
    6.9953   -4.0024    8.4007 H   0  0  0  0  0  0  0  0  0  0  0  0
    5.3635   -3.3215    8.2242 H   0  0  0  0  0  0  0  0  0  0  0  0
    7.5811   -1.6466    8.2799 H   0  0  0  0  0  0  0  0  0  0  0  0
    6.2288   -1.2793    7.1993 H   0  0  0  0  0  0  0  0  0  0  0  0
    4.7131   -2.8850    3.1860 H   0  0  0  0  0  0  0  0  0  0  0  0
  1  2  1  0
  1 25  1  0
  1 26  1  0
  1 27  1  0
  2  3  1  0
  3  4  2  0
  3 24  1  0
  4  5  1  0
  4 28  1  0
  5  6  2  0
  5 29  1  0
  6  7  1  0
  6 30  1  0
  7  8  1  0
  7 24  2  0
  8  9  1  0
  8 31  1  0
  9 10  2  0
  9 11  1  0
 11 12  1  0
 11 32  1  0
 11 33  1  0
 12 13  1  0
 12 14  1  0
 13 34  1  0
 13 35  1  0
 13 36  1  0
 14 15  1  1
 14 16  1  0
 14 17  1  0
 16 37  1  0
 16 38  1  0
 16 39  1  0
 17 18  2  0
 17 19  1  0
 19 20  1  0
 19 23  1  0
 20 21  1  0
 20 40  1  0
 20 41  1  0
 21 22  1  0
 21 42  1  0
 21 43  1  0
 22 23  1  0
 22 44  1  0
 22 45  1  0
 23 46  1  0
 23 47  1  0
 24 48  1  0
M  END

