
     RDKit          3D

 82 86  0  0  0  0  0  0  0  0999 V2000
    5.4368   -0.1462    2.1515 O   0  0  0  0  0  0  0  0  0  0  0  0
    4.4639   -0.2702    1.4548 C   0  0  0  0  0  0  0  0  0  0  0  0
    3.2981    0.3273    1.7997 O   0  0  0  0  0  0  0  0  0  0  0  0
    4.4513   -1.0768    0.1880 C   0  0  0  0  0  0  0  0  0  0  0  0
    5.4837   -2.0062   -0.0115 C   0  0  0  0  0  0  0  0  0  0  0  0
    5.5237   -2.7758   -1.1711 C   0  0  0  0  0  0  0  0  0  0  0  0
    4.5504   -2.6360   -2.1776 C   0  0  0  0  0  0  0  0  0  0  0  0
    4.6123   -3.5033   -3.4164 C   0  0  0  0  0  0  0  0  0  0  0  0
    3.9679   -4.9036   -3.2447 C   0  0  1  0  0  0  0  0  0  0  0  0
    2.4563   -4.8838   -3.1291 C   0  0  0  0  0  0  0  0  0  0  0  0
    1.6232   -4.0350   -3.7560 C   0  0  0  0  0  0  0  0  0  0  0  0
    0.1524   -4.0420   -3.7017 C   0  0  0  0  0  0  0  0  0  0  0  0
   -0.5932   -5.1652   -3.3075 C   0  0  0  0  0  0  0  0  0  0  0  0
   -1.9877   -5.1460   -3.2560 C   0  0  0  0  0  0  0  0  0  0  0  0
   -2.6705   -3.9823   -3.6127 C   0  0  0  0  0  0  0  0  0  0  0  0
   -1.9639   -2.8461   -4.0193 C   0  0  0  0  0  0  0  0  0  0  0  0
   -0.5625   -2.8682   -4.0668 C   0  0  0  0  0  0  0  0  0  0  0  0
    0.1899   -1.7954   -4.4407 O   0  0  0  0  0  0  0  0  0  0  0  0
   -0.4422   -0.5977   -4.8708 C   0  0  0  0  0  0  0  0  0  0  0  0
    0.6288    0.3992   -5.2939 C   0  0  0  0  0  0  0  0  0  0  0  0
    1.5066   -0.0331   -6.4770 C   0  0  0  0  0  0  0  0  0  0  0  0
    0.7666   -0.1762   -7.8110 C   0  0  0  0  0  0  0  0  0  0  0  0
    1.6972   -0.5456   -8.9809 C   0  0  0  0  0  0  0  0  0  0  0  0
    0.9738   -0.6919  -10.3019 C   0  0  0  0  0  0  0  0  0  0  0  0
    0.8000    0.4095  -11.1556 C   0  0  0  0  0  0  0  0  0  0  0  0
    0.0985    0.2858  -12.3582 C   0  0  0  0  0  0  0  0  0  0  0  0
   -0.4446   -0.9475  -12.7305 C   0  0  0  0  0  0  0  0  0  0  0  0
   -0.2785   -2.0537  -11.8918 C   0  0  0  0  0  0  0  0  0  0  0  0
    0.4239   -1.9245  -10.6904 C   0  0  0  0  0  0  0  0  0  0  0  0
    4.3850   -5.8810   -4.3743 C   0  0  0  0  0  0  0  0  0  0  0  0
    5.8601   -6.3279   -4.3455 C   0  0  0  0  0  0  0  0  0  0  0  0
    6.1945   -7.3171   -5.4395 C   0  0  0  0  0  0  0  0  0  0  0  0
    6.6307   -6.8806   -6.7013 C   0  0  0  0  0  0  0  0  0  0  0  0
    6.9044   -7.7858   -7.7258 C   0  0  0  0  0  0  0  0  0  0  0  0
    6.7469   -9.1648   -7.5116 C   0  0  0  0  0  0  0  0  0  0  0  0
    7.0390  -10.1154   -8.5901 C   0  0  0  0  0  0  0  0  0  0  0  0
    7.4644   -9.7504   -9.8354 N   0  0  0  0  0  0  0  0  0  0  0  0
    7.6194  -10.8440  -10.5185 N   0  0  0  0  0  0  0  0  0  0  0  0
    7.2936  -11.8286   -9.6970 N   0  0  0  0  0  0  0  0  0  0  0  0
    7.3265  -12.8040   -9.9801 H   0  0  0  0  0  0  0  0  0  0  0  0
    6.9258  -11.4410   -8.4888 N   0  0  0  0  0  0  0  0  0  0  0  0
    6.3125   -9.6133   -6.2534 C   0  0  0  0  0  0  0  0  0  0  0  0
    6.0414   -8.6991   -5.2369 C   0  0  0  0  0  0  0  0  0  0  0  0
    3.5343   -1.6865   -1.9827 C   0  0  0  0  0  0  0  0  0  0  0  0
    3.4857   -0.9182   -0.8180 C   0  0  0  0  0  0  0  0  0  0  0  0
    2.5820    0.0203    1.2266 H   0  0  0  0  0  0  0  0  0  0  0  0
    6.2492   -2.1058    0.7605 H   0  0  0  0  0  0  0  0  0  0  0  0
    6.3351   -3.4971   -1.3067 H   0  0  0  0  0  0  0  0  0  0  0  0
    5.6711   -3.6406   -3.6851 H   0  0  0  0  0  0  0  0  0  0  0  0
    4.1470   -2.9838   -4.2687 H   0  0  0  0  0  0  0  0  0  0  0  0
    4.3579   -5.3232   -2.2993 H   0  0  0  0  0  0  0  0  0  0  0  0
    2.0330   -5.6754   -2.4994 H   0  0  0  0  0  0  0  0  0  0  0  0
    2.0449   -3.2307   -4.3620 H   0  0  0  0  0  0  0  0  0  0  0  0
   -0.0616   -6.0847   -3.0523 H   0  0  0  0  0  0  0  0  0  0  0  0
   -2.5371   -6.0387   -2.9487 H   0  0  0  0  0  0  0  0  0  0  0  0
   -3.7626   -3.9508   -3.5818 H   0  0  0  0  0  0  0  0  0  0  0  0
   -2.5140   -1.9462   -4.2925 H   0  0  0  0  0  0  0  0  0  0  0  0
   -1.0464   -0.1755   -4.0463 H   0  0  0  0  0  0  0  0  0  0  0  0
   -1.1326   -0.8171   -5.7056 H   0  0  0  0  0  0  0  0  0  0  0  0
    1.2693    0.6095   -4.4204 H   0  0  0  0  0  0  0  0  0  0  0  0
    0.1162    1.3472   -5.5362 H   0  0  0  0  0  0  0  0  0  0  0  0
    2.0042   -0.9865   -6.2288 H   0  0  0  0  0  0  0  0  0  0  0  0
    2.3157    0.7091   -6.5948 H   0  0  0  0  0  0  0  0  0  0  0  0
    0.2443    0.7679   -8.0504 H   0  0  0  0  0  0  0  0  0  0  0  0
   -0.0208   -0.9460   -7.7334 H   0  0  0  0  0  0  0  0  0  0  0  0
    2.2173   -1.4885   -8.7391 H   0  0  0  0  0  0  0  0  0  0  0  0
    2.4811    0.2259   -9.0732 H   0  0  0  0  0  0  0  0  0  0  0  0
    1.2267    1.3777  -10.8762 H   0  0  0  0  0  0  0  0  0  0  0  0
   -0.0204    1.1557  -13.0098 H   0  0  0  0  0  0  0  0  0  0  0  0
   -0.9903   -1.0473  -13.6722 H   0  0  0  0  0  0  0  0  0  0  0  0
   -0.6938   -3.0242  -12.1764 H   0  0  0  0  0  0  0  0  0  0  0  0
    0.5539   -2.7979  -10.0440 H   0  0  0  0  0  0  0  0  0  0  0  0
    4.1506   -5.4215   -5.3506 H   0  0  0  0  0  0  0  0  0  0  0  0
    3.7500   -6.7806   -4.3113 H   0  0  0  0  0  0  0  0  0  0  0  0
    6.0760   -6.7804   -3.3623 H   0  0  0  0  0  0  0  0  0  0  0  0
    6.5227   -5.4522   -4.4395 H   0  0  0  0  0  0  0  0  0  0  0  0
    6.7641   -5.8102   -6.8836 H   0  0  0  0  0  0  0  0  0  0  0  0
    7.2466   -7.4361   -8.7014 H   0  0  0  0  0  0  0  0  0  0  0  0
    6.1934  -10.6846   -6.0791 H   0  0  0  0  0  0  0  0  0  0  0  0
    5.7092   -9.0659   -4.2612 H   0  0  0  0  0  0  0  0  0  0  0  0
    2.7699   -1.5422   -2.7485 H   0  0  0  0  0  0  0  0  0  0  0  0
    2.6948   -0.1675   -0.7225 H   0  0  0  0  0  0  0  0  0  0  0  0
  1  2  2  0
  2  3  1  0
  2  4  1  0
  3 46  1  0
  4  5  2  0
  4 45  1  0
  5  6  1  0
  5 47  1  0
  6  7  2  0
  6 48  1  0
  7  8  1  0
  7 44  1  0
  8  9  1  0
  8 49  1  0
  8 50  1  0
  9 10  1  0
  9 30  1  0
  9 51  1  1
 10 11  2  0
 10 52  1  0
 11 12  1  0
 11 53  1  0
 12 13  2  0
 12 17  1  0
 13 14  1  0
 13 54  1  0
 14 15  2  0
 14 55  1  0
 15 16  1  0
 15 56  1  0
 16 17  2  0
 16 57  1  0
 17 18  1  0
 18 19  1  0
 19 20  1  0
 19 58  1  0
 19 59  1  0
 20 21  1  0
 20 60  1  0
 20 61  1  0
 21 22  1  0
 21 62  1  0
 21 63  1  0
 22 23  1  0
 22 64  1  0
 22 65  1  0
 23 24  1  0
 23 66  1  0
 23 67  1  0
 24 25  2  0
 24 29  1  0
 25 26  1  0
 25 68  1  0
 26 27  2  0
 26 69  1  0
 27 28  1  0
 27 70  1  0
 28 29  2  0
 28 71  1  0
 29 72  1  0
 30 31  1  0
 30 73  1  0
 30 74  1  0
 31 32  1  0
 31 75  1  0
 31 76  1  0
 32 33  2  0
 32 43  1  0
 33 34  1  0
 33 77  1  0
 34 35  2  0
 34 78  1  0
 35 36  1  0
 35 42  1  0
 36 37  1  0
 36 41  2  0
 37 38  2  0
 38 39  1  0
 39 40  1  0
 39 41  1  0
 42 43  2  0
 42 79  1  0
 43 80  1  0
 44 45  2  0
 44 81  1  0
 45 82  1  0
M  END

