
     RDKit          3D

 37 38  0  0  0  0  0  0  0  0999 V2000
    2.4691   -2.0603    1.7841 C   0  0  0  0  0  0  0  0  0  0  0  0
    3.2889   -1.1303    0.9242 C   0  0  0  0  0  0  0  0  0  0  0  0
    2.9655   -0.9208   -0.4297 C   0  0  0  0  0  0  0  0  0  0  0  0
    3.7111   -0.0623   -1.2519 C   0  0  0  0  0  0  0  0  0  0  0  0
    4.7975    0.5900   -0.6851 C   0  0  0  0  0  0  0  0  0  0  0  0
    5.1319    0.3925    0.6586 C   0  0  0  0  0  0  0  0  0  0  0  0
    4.3994   -0.4555    1.4749 C   0  0  0  0  0  0  0  0  0  0  0  0
    6.3395    1.2230    0.9656 C   0  0  0  0  0  0  0  0  0  0  0  0
    6.9449    1.3342    2.0072 O   0  0  0  0  0  0  0  0  0  0  0  0
    6.6609    1.8783   -0.2322 N   0  0  0  0  0  0  0  0  0  0  0  0
    7.7761    2.7999   -0.3740 C   0  0  0  0  0  0  0  0  0  0  0  0
    7.4194    4.2391    0.0229 C   0  0  0  0  0  0  0  0  0  0  0  0
    8.6116    5.2038   -0.0074 C   0  0  0  0  0  0  0  0  0  0  0  0
    9.2067    5.4518   -1.3979 C   0  0  0  0  0  0  0  0  0  0  0  0
   10.3406    6.4746   -1.3814 C   0  0  0  0  0  0  0  0  0  0  0  0
   10.9821    6.6949   -2.7461 C   0  0  0  0  0  0  0  0  0  0  0  0
   10.7033    6.0821   -3.7385 O   0  0  0  0  0  0  0  0  0  0  0  0
   11.9377    7.6565   -2.7828 O   0  0  0  0  0  0  0  0  0  0  0  0
    5.7787    1.5495   -1.2772 C   0  0  0  0  0  0  0  0  0  0  0  0
    5.8450    1.9785   -2.4054 O   0  0  0  0  0  0  0  0  0  0  0  0
    1.6392   -2.5108    1.2212 H   0  0  0  0  0  0  0  0  0  0  0  0
    2.0423   -1.5271    2.6497 H   0  0  0  0  0  0  0  0  0  0  0  0
    3.0896   -2.8782    2.1865 H   0  0  0  0  0  0  0  0  0  0  0  0
    2.1043   -1.4463   -0.8513 H   0  0  0  0  0  0  0  0  0  0  0  0
    3.4497    0.0899   -2.3014 H   0  0  0  0  0  0  0  0  0  0  0  0
    4.6816   -0.5944    2.5219 H   0  0  0  0  0  0  0  0  0  0  0  0
    8.0976    2.7494   -1.4242 H   0  0  0  0  0  0  0  0  0  0  0  0
    8.5931    2.4267    0.2633 H   0  0  0  0  0  0  0  0  0  0  0  0
    7.0005    4.2208    1.0425 H   0  0  0  0  0  0  0  0  0  0  0  0
    6.6219    4.6070   -0.6458 H   0  0  0  0  0  0  0  0  0  0  0  0
    9.4010    4.8270    0.6700 H   0  0  0  0  0  0  0  0  0  0  0  0
    8.2869    6.1681    0.4224 H   0  0  0  0  0  0  0  0  0  0  0  0
    8.4199    5.7993   -2.0886 H   0  0  0  0  0  0  0  0  0  0  0  0
    9.5907    4.5175   -1.8373 H   0  0  0  0  0  0  0  0  0  0  0  0
   11.1389    6.1589   -0.6828 H   0  0  0  0  0  0  0  0  0  0  0  0
    9.9829    7.4504   -1.0022 H   0  0  0  0  0  0  0  0  0  0  0  0
   12.0461    8.0604   -1.9101 H   0  0  0  0  0  0  0  0  0  0  0  0
  1  2  1  0
  1 21  1  0
  1 22  1  0
  1 23  1  0
  2  3  2  0
  2  7  1  0
  3  4  1  0
  3 24  1  0
  4  5  2  0
  4 25  1  0
  5  6  1  0
  5 19  1  0
  6  7  2  0
  6  8  1  0
  7 26  1  0
  8  9  2  0
  8 10  1  0
 10 11  1  0
 10 19  1  0
 11 12  1  0
 11 27  1  0
 11 28  1  0
 12 13  1  0
 12 29  1  0
 12 30  1  0
 13 14  1  0
 13 31  1  0
 13 32  1  0
 14 15  1  0
 14 33  1  0
 14 34  1  0
 15 16  1  0
 15 35  1  0
 15 36  1  0
 16 17  2  0
 16 18  1  0
 18 37  1  0
 19 20  2  0
M  END

