
     RDKit          3D

 40 42  0  0  0  0  0  0  0  0999 V2000
    0.9079    0.3809   -0.9290 O   0  0  0  0  0  0  0  0  0  0  0  0
    2.0458   -0.0126   -0.6762 C   0  0  0  0  0  0  0  0  0  0  0  0
    2.4240   -1.3192   -0.6421 N   0  0  0  0  0  0  0  0  0  0  0  0
    1.6838   -2.5616   -0.9376 C   0  0  1  0  0  0  0  0  0  0  0  0
    1.3948   -3.3584    0.3529 C   0  0  0  0  0  0  0  0  0  0  0  0
    0.1944   -2.7978    1.1240 C   0  0  0  0  0  0  0  0  0  0  0  0
   -1.0323   -2.7050    0.1994 C   0  0  0  0  0  0  0  0  0  0  0  0
   -0.7872   -1.9499   -1.0202 N   0  0  0  0  0  0  0  0  0  0  0  0
    0.3798   -2.3943   -1.7554 C   0  0  0  0  0  0  0  0  0  0  0  0
    3.1658    0.9656   -0.3891 C   0  0  0  0  0  0  0  0  0  0  0  0
    4.4359    0.7462   -0.9539 C   0  0  0  0  0  0  0  0  0  0  0  0
    5.4801    1.6502   -0.7612 C   0  0  0  0  0  0  0  0  0  0  0  0
    5.2678    2.7923    0.0148 C   0  0  0  0  0  0  0  0  0  0  0  0
    4.0139    3.0193    0.5825 C   0  0  0  0  0  0  0  0  0  0  0  0
    2.9493    2.1258    0.3879 C   0  0  0  0  0  0  0  0  0  0  0  0
    1.6114    2.4675    1.0261 C   0  0  0  0  0  0  0  0  0  0  0  0
    0.9332    3.5660    0.3482 N   0  0  0  0  0  0  0  0  0  0  0  0
    0.1469    3.5419   -0.7559 C   0  0  0  0  0  0  0  0  0  0  0  0
   -0.2130    4.7709   -1.0807 N   0  0  0  0  0  0  0  0  0  0  0  0
    0.4006    5.5262   -0.1322 C   0  0  0  0  0  0  0  0  0  0  0  0
    1.1099    4.8421    0.7532 N   0  0  0  0  0  0  0  0  0  0  0  0
    3.3671   -1.4786   -0.3055 H   0  0  0  0  0  0  0  0  0  0  0  0
    2.3752   -3.1584   -1.5594 H   0  0  0  0  0  0  0  0  0  0  0  0
    2.2987   -3.3945    0.9857 H   0  0  0  0  0  0  0  0  0  0  0  0
    1.1818   -4.4019    0.0586 H   0  0  0  0  0  0  0  0  0  0  0  0
    0.4355   -1.7927    1.5147 H   0  0  0  0  0  0  0  0  0  0  0  0
   -0.0250   -3.4325    1.9998 H   0  0  0  0  0  0  0  0  0  0  0  0
   -1.8846   -2.2515    0.7310 H   0  0  0  0  0  0  0  0  0  0  0  0
   -1.3486   -3.7304   -0.0756 H   0  0  0  0  0  0  0  0  0  0  0  0
   -0.6676   -0.9582   -0.8155 H   0  0  0  0  0  0  0  0  0  0  0  0
    0.5488   -1.7204   -2.6081 H   0  0  0  0  0  0  0  0  0  0  0  0
    0.1714   -3.3953   -2.1786 H   0  0  0  0  0  0  0  0  0  0  0  0
    4.5981   -0.1308   -1.5854 H   0  0  0  0  0  0  0  0  0  0  0  0
    6.4530    1.4670   -1.2237 H   0  0  0  0  0  0  0  0  0  0  0  0
    6.0769    3.5093    0.1745 H   0  0  0  0  0  0  0  0  0  0  0  0
    3.8390    3.9179    1.1796 H   0  0  0  0  0  0  0  0  0  0  0  0
    1.7685    2.8063    2.0590 H   0  0  0  0  0  0  0  0  0  0  0  0
    0.9363    1.6069    1.0336 H   0  0  0  0  0  0  0  0  0  0  0  0
   -0.1047    2.6121   -1.2645 H   0  0  0  0  0  0  0  0  0  0  0  0
    0.3206    6.6125   -0.0844 H   0  0  0  0  0  0  0  0  0  0  0  0
  1  2  2  0
  2  3  1  0
  2 10  1  0
  3  4  1  0
  3 22  1  0
  4  5  1  0
  4  9  1  0
  4 23  1  6
  5  6  1  0
  5 24  1  0
  5 25  1  0
  6  7  1  0
  6 26  1  0
  6 27  1  0
  7  8  1  0
  7 28  1  0
  7 29  1  0
  8  9  1  0
  8 30  1  0
  9 31  1  0
  9 32  1  0
 10 11  2  0
 10 15  1  0
 11 12  1  0
 11 33  1  0
 12 13  2  0
 12 34  1  0
 13 14  1  0
 13 35  1  0
 14 15  2  0
 14 36  1  0
 15 16  1  0
 16 17  1  0
 16 37  1  0
 16 38  1  0
 17 18  1  0
 17 21  1  0
 18 19  2  0
 18 39  1  0
 19 20  1  0
 20 21  2  0
 20 40  1  0
M  END

