
     RDKit          3D

 53 54  0  0  0  0  0  0  0  0999 V2000
    7.6790   -0.4241   -5.2676 C   0  0  0  0  0  0  0  0  0  0  0  0
    7.6536   -0.9972   -3.8505 C   0  0  0  0  0  0  0  0  0  0  0  0
    8.2567   -0.0712   -2.7858 C   0  0  0  0  0  0  0  0  0  0  0  0
    7.5554    1.1960   -2.6299 N   0  0  0  0  0  0  0  0  0  0  0  0
    6.5348    1.3557   -1.7419 C   0  0  0  0  0  0  0  0  0  0  0  0
    6.1099    0.4650   -1.0298 O   0  0  0  0  0  0  0  0  0  0  0  0
    5.8705    2.7495   -1.7536 C   0  0  1  0  0  0  0  0  0  0  0  0
    5.0653    3.0355   -0.4974 C   0  0  0  0  0  0  0  0  0  0  0  0
    6.8145    3.8037   -2.0933 O   0  0  0  0  0  0  0  0  0  0  0  0
    7.8361    4.0728   -1.2640 C   0  0  0  0  0  0  0  0  0  0  0  0
    8.0526    3.4455   -0.2506 O   0  0  0  0  0  0  0  0  0  0  0  0
    8.7228    5.2000   -1.7865 C   0  0  1  0  0  0  0  0  0  0  0  0
    7.9571    6.4012   -2.3847 C   0  0  0  0  0  0  0  0  0  0  0  0
    7.3129    7.2749   -1.2987 C   0  0  0  0  0  0  0  0  0  0  0  0
    8.3225    7.6565   -0.2081 C   0  0  0  0  0  0  0  0  0  0  0  0
    8.9535    6.4546    0.3170 N   0  0  0  0  0  0  0  0  0  0  0  0
    8.9929    6.2523    1.6971 C   0  0  0  0  0  0  0  0  0  0  0  0
    8.7557    7.1546    2.4842 O   0  0  0  0  0  0  0  0  0  0  0  0
    9.2901    4.9497    2.0618 N   0  0  0  0  0  0  0  0  0  0  0  0
    9.5348    4.4602    3.3564 C   0  0  0  0  0  0  0  0  0  0  0  0
    9.7581    5.2841    4.4754 C   0  0  0  0  0  0  0  0  0  0  0  0
   10.0285    4.7046    5.7175 C   0  0  0  0  0  0  0  0  0  0  0  0
   10.0785    3.3170    5.8778 C   0  0  0  0  0  0  0  0  0  0  0  0
    9.8512    2.4992    4.7665 C   0  0  0  0  0  0  0  0  0  0  0  0
    9.5830    3.0617    3.5193 C   0  0  0  0  0  0  0  0  0  0  0  0
    9.6728    5.6783   -0.6782 C   0  0  0  0  0  0  0  0  0  0  0  0
    7.2384   -1.1265   -5.9923 H   0  0  0  0  0  0  0  0  0  0  0  0
    8.7098   -0.2101   -5.5990 H   0  0  0  0  0  0  0  0  0  0  0  0
    7.1041    0.5146   -5.3335 H   0  0  0  0  0  0  0  0  0  0  0  0
    8.2120   -1.9493   -3.8227 H   0  0  0  0  0  0  0  0  0  0  0  0
    6.6188   -1.2383   -3.5542 H   0  0  0  0  0  0  0  0  0  0  0  0
    9.3111    0.1489   -3.0251 H   0  0  0  0  0  0  0  0  0  0  0  0
    8.2336   -0.5727   -1.8075 H   0  0  0  0  0  0  0  0  0  0  0  0
    7.8045    1.9793   -3.2209 H   0  0  0  0  0  0  0  0  0  0  0  0
    5.1963    2.7610   -2.6254 H   0  0  0  0  0  0  0  0  0  0  0  0
    5.6955    3.0113    0.3996 H   0  0  0  0  0  0  0  0  0  0  0  0
    4.2957    2.2587   -0.3930 H   0  0  0  0  0  0  0  0  0  0  0  0
    4.5727    4.0160   -0.5791 H   0  0  0  0  0  0  0  0  0  0  0  0
    9.3226    4.7363   -2.5928 H   0  0  0  0  0  0  0  0  0  0  0  0
    7.2058    6.0506   -3.1069 H   0  0  0  0  0  0  0  0  0  0  0  0
    8.6857    7.0075   -2.9511 H   0  0  0  0  0  0  0  0  0  0  0  0
    6.4717    6.7340   -0.8307 H   0  0  0  0  0  0  0  0  0  0  0  0
    6.8907    8.1860   -1.7542 H   0  0  0  0  0  0  0  0  0  0  0  0
    7.8477    8.1843    0.6279 H   0  0  0  0  0  0  0  0  0  0  0  0
    9.0920    8.3353   -0.6295 H   0  0  0  0  0  0  0  0  0  0  0  0
    9.0701    4.2400    1.3651 H   0  0  0  0  0  0  0  0  0  0  0  0
    9.6991    6.3642    4.3639 H   0  0  0  0  0  0  0  0  0  0  0  0
   10.1985    5.3584    6.5775 H   0  0  0  0  0  0  0  0  0  0  0  0
   10.2879    2.8778    6.8561 H   0  0  0  0  0  0  0  0  0  0  0  0
    9.8808    1.4110    4.8679 H   0  0  0  0  0  0  0  0  0  0  0  0
    9.4047    2.4147    2.6552 H   0  0  0  0  0  0  0  0  0  0  0  0
   10.1892    4.8352   -0.2075 H   0  0  0  0  0  0  0  0  0  0  0  0
   10.4523    6.3139   -1.1439 H   0  0  0  0  0  0  0  0  0  0  0  0
  1  2  1  0
  1 27  1  0
  1 28  1  0
  1 29  1  0
  2  3  1  0
  2 30  1  0
  2 31  1  0
  3  4  1  0
  3 32  1  0
  3 33  1  0
  4  5  1  0
  4 34  1  0
  5  6  2  0
  5  7  1  0
  7  8  1  0
  7  9  1  0
  7 35  1  6
  8 36  1  0
  8 37  1  0
  8 38  1  0
  9 10  1  0
 10 11  2  0
 10 12  1  0
 12 13  1  0
 12 26  1  0
 12 39  1  6
 13 14  1  0
 13 40  1  0
 13 41  1  0
 14 15  1  0
 14 42  1  0
 14 43  1  0
 15 16  1  0
 15 44  1  0
 15 45  1  0
 16 17  1  0
 16 26  1  0
 17 18  2  0
 17 19  1  0
 19 20  1  0
 19 46  1  0
 20 21  2  0
 20 25  1  0
 21 22  1  0
 21 47  1  0
 22 23  2  0
 22 48  1  0
 23 24  1  0
 23 49  1  0
 24 25  2  0
 24 50  1  0
 25 51  1  0
 26 52  1  0
 26 53  1  0
M  END

