
     RDKit          3D

 53 57  0  0  0  0  0  0  0  0999 V2000
    5.6091   12.1428   -1.0510 C   0  0  0  0  0  0  0  0  0  0  0  0
    5.0097   10.7967   -0.7358 C   0  0  0  0  0  0  0  0  0  0  0  0
    3.6202   10.5931   -0.6714 C   0  0  0  0  0  0  0  0  0  0  0  0
    3.0806    9.3417   -0.3620 C   0  0  0  0  0  0  0  0  0  0  0  0
    1.3424    9.1494   -0.2851 Cl  0  0  0  0  0  0  0  0  0  0  0  0
    3.9035    8.2339   -0.1156 C   0  0  0  0  0  0  0  0  0  0  0  0
    5.2786    8.4148   -0.1938 C   0  0  0  0  0  0  0  0  0  0  0  0
    5.8117    9.6796   -0.4827 C   0  0  0  0  0  0  0  0  0  0  0  0
    7.2130    9.6142   -0.4386 N   0  0  0  0  0  0  0  0  0  0  0  0
    7.6625    8.3687   -0.0836 C   0  0  0  0  0  0  0  0  0  0  0  0
    8.8228    8.0644    0.1095 O   0  0  0  0  0  0  0  0  0  0  0  0
    6.4161    7.4275    0.0211 C   0  0  1  0  0  0  0  0  0  0  0  0
    6.3684    6.7423    1.3014 N   0  0  0  0  0  0  0  0  0  0  0  0
    6.6414    5.3040    1.2079 C   0  0  2  0  0  0  0  0  0  0  0  0
    5.9244    4.7528    1.8389 H   0  0  0  0  0  0  0  0  0  0  0  0
    8.0715    4.9134    1.6616 C   0  0  2  0  0  0  0  0  0  0  0  0
    8.0938    3.8082    1.6718 H   0  0  0  0  0  0  0  0  0  0  0  0
    8.3946    5.4233    3.0636 C   0  0  0  0  0  0  0  0  0  0  0  0
    9.0445    5.2972    0.7149 O   0  0  0  0  0  0  0  0  0  0  0  0
    6.4230    4.9669   -0.2786 C   0  0  1  0  0  0  0  0  0  0  0  0
    7.1332    4.1989   -0.6215 H   0  0  0  0  0  0  0  0  0  0  0  0
    5.0180    4.4860   -0.6317 C   0  0  0  0  0  0  0  0  0  0  0  0
    4.3783    3.6128   -0.0935 O   0  0  0  0  0  0  0  0  0  0  0  0
    4.5799    5.2259   -1.7318 N   0  0  0  0  0  0  0  0  0  0  0  0
    3.3316    4.9455   -2.4428 C   0  0  0  0  0  0  0  0  0  0  0  0
    3.4894    3.9318   -3.5588 C   0  0  0  0  0  0  0  0  0  0  0  0
    3.2936    2.5638   -3.3128 C   0  0  0  0  0  0  0  0  0  0  0  0
    3.4509    1.6226   -4.3327 C   0  0  0  0  0  0  0  0  0  0  0  0
    3.8096    2.0637   -5.6045 C   0  0  0  0  0  0  0  0  0  0  0  0
    3.9591    1.1662   -6.5896 F   0  0  0  0  0  0  0  0  0  0  0  0
    4.0163    3.4142   -5.8794 C   0  0  0  0  0  0  0  0  0  0  0  0
    3.8555    4.3439   -4.8502 C   0  0  0  0  0  0  0  0  0  0  0  0
    5.4612    6.2426   -2.1026 C   0  0  0  0  0  0  0  0  0  0  0  0
    5.3199    6.9611   -3.0635 O   0  0  0  0  0  0  0  0  0  0  0  0
    6.5784    6.2748   -1.0670 C   0  0  1  0  0  0  0  0  0  0  0  0
    7.5472    6.3687   -1.5723 H   0  0  0  0  0  0  0  0  0  0  0  0
    4.8285   12.8975   -1.2194 H   0  0  0  0  0  0  0  0  0  0  0  0
    6.2353   12.1033   -1.9590 H   0  0  0  0  0  0  0  0  0  0  0  0
    6.2483   12.5059   -0.2272 H   0  0  0  0  0  0  0  0  0  0  0  0
    2.9448   11.4297   -0.8602 H   0  0  0  0  0  0  0  0  0  0  0  0
    3.4596    7.2665    0.1253 H   0  0  0  0  0  0  0  0  0  0  0  0
    7.8425   10.4008   -0.5493 H   0  0  0  0  0  0  0  0  0  0  0  0
    5.5618    6.9921    1.8604 H   0  0  0  0  0  0  0  0  0  0  0  0
    9.4094    5.1093    3.3494 H   0  0  0  0  0  0  0  0  0  0  0  0
    7.6844    5.0311    3.8105 H   0  0  0  0  0  0  0  0  0  0  0  0
    8.3442    6.5228    3.0894 H   0  0  0  0  0  0  0  0  0  0  0  0
    9.0897    6.2718    0.6669 H   0  0  0  0  0  0  0  0  0  0  0  0
    2.9722    5.9046   -2.8401 H   0  0  0  0  0  0  0  0  0  0  0  0
    2.6187    4.5793   -1.6913 H   0  0  0  0  0  0  0  0  0  0  0  0
    3.0224    2.2314   -2.3076 H   0  0  0  0  0  0  0  0  0  0  0  0
    3.2993    0.5557   -4.1576 H   0  0  0  0  0  0  0  0  0  0  0  0
    4.2978    3.7189   -6.8893 H   0  0  0  0  0  0  0  0  0  0  0  0
    4.0259    5.4053   -5.0465 H   0  0  0  0  0  0  0  0  0  0  0  0
  1  2  1  0
  1 37  1  0
  1 38  1  0
  1 39  1  0
  2  3  2  0
  2  8  1  0
  3  4  1  0
  3 40  1  0
  4  5  1  0
  4  6  2  0
  6  7  1  0
  6 41  1  0
  7  8  2  0
  7 12  1  0
  8  9  1  0
  9 10  1  0
  9 42  1  0
 10 11  2  0
 12 10  1  1
 12 13  1  0
 12 35  1  0
 13 14  1  0
 13 43  1  0
 14 15  1  1
 14 16  1  0
 14 20  1  0
 16 17  1  1
 16 18  1  0
 16 19  1  0
 18 44  1  0
 18 45  1  0
 18 46  1  0
 19 47  1  0
 20 21  1  6
 20 22  1  0
 20 35  1  0
 22 23  2  0
 22 24  1  0
 24 25  1  0
 24 33  1  0
 25 26  1  0
 25 48  1  0
 25 49  1  0
 26 27  2  0
 26 32  1  0
 27 28  1  0
 27 50  1  0
 28 29  2  0
 28 51  1  0
 29 30  1  0
 29 31  1  0
 31 32  2  0
 31 52  1  0
 32 53  1  0
 33 34  2  0
 33 35  1  0
 35 36  1  6
M  END

