
     RDKit          3D

 23 24  0  0  0  0  0  0  0  0999 V2000
    0.9247    0.0420   -0.3129 S   0  0  0  0  0  0  0  0  0  0  0  0
    2.7728    0.0635   -0.2761 C   0  0  0  0  0  0  0  0  0  0  0  0
    3.2987   -0.6596    0.9577 C   0  0  1  0  0  0  0  0  0  0  0  0
    3.0899    0.0694    2.2642 C   0  0  0  0  0  0  0  0  0  0  0  0
    3.9527    1.1128    2.6369 C   0  0  0  0  0  0  0  0  0  0  0  0
    3.7486    1.8178    3.8247 C   0  0  0  0  0  0  0  0  0  0  0  0
    2.6799    1.4966    4.6670 C   0  0  0  0  0  0  0  0  0  0  0  0
    1.8222    0.4596    4.2942 C   0  0  0  0  0  0  0  0  0  0  0  0
    0.3562    0.0009    5.4297 Br  0  0  0  0  0  0  0  0  0  0  0  0
    2.0148   -0.2508    3.1066 C   0  0  0  0  0  0  0  0  0  0  0  0
    3.2632   -2.1716    0.9423 C   0  0  0  0  0  0  0  0  0  0  0  0
    4.5786   -1.4555    0.7819 C   0  0  0  0  0  0  0  0  0  0  0  0
    0.7895    0.8829   -1.3643 H   0  0  0  0  0  0  0  0  0  0  0  0
    3.1192    1.1082   -0.2765 H   0  0  0  0  0  0  0  0  0  0  0  0
    3.1519   -0.4267   -1.1856 H   0  0  0  0  0  0  0  0  0  0  0  0
    4.7972    1.3677    1.9910 H   0  0  0  0  0  0  0  0  0  0  0  0
    4.4301    2.6247    4.1059 H   0  0  0  0  0  0  0  0  0  0  0  0
    2.5167    2.0403    5.5989 H   0  0  0  0  0  0  0  0  0  0  0  0
    1.3271   -1.0526    2.8342 H   0  0  0  0  0  0  0  0  0  0  0  0
    2.8231   -2.6582    0.0675 H   0  0  0  0  0  0  0  0  0  0  0  0
    3.0765   -2.6913    1.8858 H   0  0  0  0  0  0  0  0  0  0  0  0
    5.0562   -1.4529   -0.2023 H   0  0  0  0  0  0  0  0  0  0  0  0
    5.2786   -1.4765    1.6217 H   0  0  0  0  0  0  0  0  0  0  0  0
  1  2  1  0
  1 13  1  0
  3  2  1  6
  2 14  1  0
  2 15  1  0
  3  4  1  0
  3 11  1  0
  3 12  1  0
  4  5  2  0
  4 10  1  0
  5  6  1  0
  5 16  1  0
  6  7  2  0
  6 17  1  0
  7  8  1  0
  7 18  1  0
  8  9  1  0
  8 10  2  0
 10 19  1  0
 11 12  1  0
 11 20  1  0
 11 21  1  0
 12 22  1  0
 12 23  1  0
M  END

