
     RDKit          3D

 64 69  0  0  0  0  0  0  0  0999 V2000
    6.7299    0.3444    0.8294 C   0  0  0  0  0  0  0  0  0  0  0  0
    6.6549    0.5696   -0.6715 C   0  0  0  0  0  0  0  0  0  0  0  0
    6.3920   -0.6545   -1.3822 O   0  0  0  0  0  0  0  0  0  0  0  0
    5.1065   -1.0287   -1.5236 C   0  0  0  0  0  0  0  0  0  0  0  0
    4.1711   -0.3929   -1.0931 O   0  0  0  0  0  0  0  0  0  0  0  0
    4.9678   -2.3131   -2.2759 C   0  0  0  0  0  0  0  0  0  0  0  0
    6.0731   -3.0254   -2.7649 C   0  0  0  0  0  0  0  0  0  0  0  0
    5.8919   -4.2190   -3.4601 C   0  0  0  0  0  0  0  0  0  0  0  0
    4.5958   -4.7092   -3.6779 C   0  0  0  0  0  0  0  0  0  0  0  0
    4.4127   -5.9320   -4.3948 N   0  0  0  0  0  0  0  0  0  0  0  0
    5.1617   -6.2879   -5.5328 C   0  0  0  0  0  0  0  0  0  0  0  0
    5.9653   -5.5913   -6.0943 O   0  0  0  0  0  0  0  0  0  0  0  0
    4.7889   -7.7248   -5.9055 C   0  0  1  0  0  0  0  0  0  0  0  0
    6.2523   -8.7948   -5.4619 S   0  0  0  0  0  0  0  0  0  0  0  0
    5.6057   -9.6539   -4.0609 C   0  0  0  0  0  0  0  0  0  0  0  0
    6.4927  -10.2048   -3.1441 N   0  0  0  0  0  0  0  0  0  0  0  0
    7.4995  -10.0802   -3.1828 H   0  0  0  0  0  0  0  0  0  0  0  0
    5.9384  -10.9127   -2.0895 C   0  0  0  0  0  0  0  0  0  0  0  0
    6.5337  -11.4600   -1.1981 O   0  0  0  0  0  0  0  0  0  0  0  0
    4.1370  -10.8406   -2.3070 S   0  0  0  0  0  0  0  0  0  0  0  0
    4.3008   -9.8898   -3.7883 C   0  0  0  0  0  0  0  0  0  0  0  0
    3.1353   -9.3841   -4.5907 C   0  0  2  0  0  0  0  0  0  0  0  0
    2.6123  -10.3446   -5.6583 C   0  0  0  0  0  0  0  0  0  0  0  0
    1.2331  -10.4810   -5.8504 C   0  0  0  0  0  0  0  0  0  0  0  0
    0.7037  -11.3224   -6.8361 C   0  0  0  0  0  0  0  0  0  0  0  0
    1.5713  -12.0546   -7.6591 C   0  0  0  0  0  0  0  0  0  0  0  0
    1.1707  -12.9001   -8.6434 O   0  0  0  0  0  0  0  0  0  0  0  0
   -0.2065  -13.0803   -8.8940 C   0  0  0  0  0  0  0  0  0  0  0  0
   -0.4056  -14.0378  -10.0477 C   0  0  0  0  0  0  0  0  0  0  0  0
   -1.6809  -14.5743  -10.2807 C   0  0  0  0  0  0  0  0  0  0  0  0
   -1.8989  -15.4310  -11.3608 C   0  0  0  0  0  0  0  0  0  0  0  0
   -0.8509  -15.7714  -12.2209 C   0  0  0  0  0  0  0  0  0  0  0  0
    0.4164  -15.2371  -11.9786 C   0  0  0  0  0  0  0  0  0  0  0  0
    1.7440  -15.6544  -13.0400 Cl  0  0  0  0  0  0  0  0  0  0  0  0
    0.6490  -14.3740  -10.9035 C   0  0  0  0  0  0  0  0  0  0  0  0
    2.9594  -11.9323   -7.4735 C   0  0  0  0  0  0  0  0  0  0  0  0
    3.4671  -11.0928   -6.4879 C   0  0  0  0  0  0  0  0  0  0  0  0
    3.4731   -7.9822   -5.1600 C   0  0  1  0  0  0  0  0  0  0  0  0
    3.4473   -6.9017   -4.0718 C   0  0  0  0  0  0  0  0  0  0  0  0
    2.6933   -6.8589   -3.1342 O   0  0  0  0  0  0  0  0  0  0  0  0
    3.4846   -4.0027   -3.1935 C   0  0  0  0  0  0  0  0  0  0  0  0
    3.6763   -2.8138   -2.4950 C   0  0  0  0  0  0  0  0  0  0  0  0
    7.0095    1.2832    1.3342 H   0  0  0  0  0  0  0  0  0  0  0  0
    7.4854   -0.4174    1.0771 H   0  0  0  0  0  0  0  0  0  0  0  0
    5.7561    0.0208    1.2253 H   0  0  0  0  0  0  0  0  0  0  0  0
    7.6167    0.9219   -1.0715 H   0  0  0  0  0  0  0  0  0  0  0  0
    5.8715    1.3003   -0.9210 H   0  0  0  0  0  0  0  0  0  0  0  0
    7.0787   -2.6401   -2.5945 H   0  0  0  0  0  0  0  0  0  0  0  0
    6.7541   -4.7638   -3.8426 H   0  0  0  0  0  0  0  0  0  0  0  0
    4.7071   -7.8118   -6.9956 H   0  0  0  0  0  0  0  0  0  0  0  0
    2.3062   -9.1957   -3.8909 H   0  0  0  0  0  0  0  0  0  0  0  0
    0.5413   -9.9239   -5.2111 H   0  0  0  0  0  0  0  0  0  0  0  0
   -0.3781  -11.4019   -6.9413 H   0  0  0  0  0  0  0  0  0  0  0  0
   -0.6787  -12.1070   -9.1348 H   0  0  0  0  0  0  0  0  0  0  0  0
   -0.7155  -13.4716   -7.9926 H   0  0  0  0  0  0  0  0  0  0  0  0
   -2.5092  -14.3231   -9.6118 H   0  0  0  0  0  0  0  0  0  0  0  0
   -2.8946  -15.8459  -11.5356 H   0  0  0  0  0  0  0  0  0  0  0  0
   -1.0079  -16.4436  -13.0658 H   0  0  0  0  0  0  0  0  0  0  0  0
    1.6453  -13.9709  -10.7284 H   0  0  0  0  0  0  0  0  0  0  0  0
    3.6236  -12.5153   -8.1146 H   0  0  0  0  0  0  0  0  0  0  0  0
    4.5494  -11.0210   -6.3601 H   0  0  0  0  0  0  0  0  0  0  0  0
    2.6560   -7.7077   -5.8508 H   0  0  0  0  0  0  0  0  0  0  0  0
    2.4785   -4.3887   -3.3501 H   0  0  0  0  0  0  0  0  0  0  0  0
    2.8247   -2.2506   -2.1092 H   0  0  0  0  0  0  0  0  0  0  0  0
  1  2  1  0
  1 43  1  0
  1 44  1  0
  1 45  1  0
  2  3  1  0
  2 46  1  0
  2 47  1  0
  3  4  1  0
  4  5  2  0
  4  6  1  0
  6  7  2  0
  6 42  1  0
  7  8  1  0
  7 48  1  0
  8  9  2  0
  8 49  1  0
  9 10  1  0
  9 41  1  0
 10 11  1  0
 10 39  1  0
 11 12  2  0
 11 13  1  0
 13 14  1  0
 13 38  1  0
 13 50  1  6
 14 15  1  0
 15 16  1  0
 15 21  2  0
 16 17  1  0
 16 18  1  0
 18 19  2  0
 18 20  1  0
 20 21  1  0
 21 22  1  0
 22 23  1  0
 22 38  1  0
 22 51  1  1
 23 24  2  0
 23 37  1  0
 24 25  1  0
 24 52  1  0
 25 26  2  0
 25 53  1  0
 26 27  1  0
 26 36  1  0
 27 28  1  0
 28 29  1  0
 28 54  1  0
 28 55  1  0
 29 30  2  0
 29 35  1  0
 30 31  1  0
 30 56  1  0
 31 32  2  0
 31 57  1  0
 32 33  1  0
 32 58  1  0
 33 34  1  0
 33 35  2  0
 35 59  1  0
 36 37  2  0
 36 60  1  0
 37 61  1  0
 38 39  1  0
 38 62  1  6
 39 40  2  0
 41 42  2  0
 41 63  1  0
 42 64  1  0
M  END

