
     RDKit          3D

 76 86  0  0  0  0  0  0  0  0999 V2000
   -3.9744   -7.4408    1.0457 C   0  0  0  0  0  0  0  0  0  0  0  0
   -2.7715   -7.3930    0.3330 C   0  0  0  0  0  0  0  0  0  0  0  0
   -2.1641   -6.1654    0.0632 C   0  0  0  0  0  0  0  0  0  0  0  0
   -2.7374   -4.9752    0.5328 C   0  0  0  0  0  0  0  0  0  0  0  0
   -3.9665   -5.0238    1.2156 C   0  0  0  0  0  0  0  0  0  0  0  0
   -4.5810   -6.2570    1.4686 C   0  0  0  0  0  0  0  0  0  0  0  0
   -4.7294   -3.5065    1.7502 S   0  0  0  0  0  0  0  0  0  0  0  0
   -4.2327   -2.4756    0.3832 C   0  0  0  0  0  0  0  0  0  0  0  0
   -5.0776   -1.4590   -0.0783 C   0  0  0  0  0  0  0  0  0  0  0  0
   -4.6641   -0.6266   -1.1205 C   0  0  0  0  0  0  0  0  0  0  0  0
   -3.4214   -0.8327   -1.7275 C   0  0  0  0  0  0  0  0  0  0  0  0
   -2.5853   -1.8607   -1.2872 C   0  0  0  0  0  0  0  0  0  0  0  0
   -2.9719   -2.6706   -0.2100 C   0  0  0  0  0  0  0  0  0  0  0  0
   -2.1271   -3.7048    0.2960 N   0  0  0  0  0  0  0  0  0  0  0  0
   -0.8029   -3.4450    0.6028 C   0  0  0  0  0  0  0  0  0  0  0  0
   -0.1755   -2.0905    0.5761 C   0  0  0  0  0  0  0  0  0  0  0  0
    1.0792   -2.2023    0.0622 C   0  0  0  0  0  0  0  0  0  0  0  0
    2.0340   -2.6715    1.0992 C   0  0  0  0  0  0  0  0  0  0  0  0
    1.4595   -3.8613    1.6281 C   0  0  0  0  0  0  0  0  0  0  0  0
    2.2617   -4.6702    2.4990 C   0  0  0  0  0  0  0  0  0  0  0  0
    3.5388   -4.3019    2.8465 C   0  0  0  0  0  0  0  0  0  0  0  0
    4.1283   -3.1108    2.3229 C   0  0  0  0  0  0  0  0  0  0  0  0
    5.3801   -2.7744    2.6696 N   0  0  0  0  0  0  0  0  0  0  0  0
    5.9010   -1.6704    2.1332 C   0  0  0  0  0  0  0  0  0  0  0  0
    7.2438   -1.2790    2.4833 C   0  0  0  0  0  0  0  0  0  0  0  0
    7.8114   -0.1659    1.9438 C   0  0  0  0  0  0  0  0  0  0  0  0
    7.0976    0.6675    1.0020 C   0  0  0  0  0  0  0  0  0  0  0  0
    7.6926    1.8205    0.4435 C   0  0  0  0  0  0  0  0  0  0  0  0
    6.9990    2.6173   -0.4620 C   0  0  0  0  0  0  0  0  0  0  0  0
    7.5946    3.7914   -1.0368 N   0  0  0  0  0  0  0  0  0  0  0  0
    8.4248    3.6381   -2.1759 C   0  0  0  0  0  0  0  0  0  0  0  0
    8.9429    2.3831   -2.5456 C   0  0  0  0  0  0  0  0  0  0  0  0
    9.7614    2.2407   -3.6696 C   0  0  0  0  0  0  0  0  0  0  0  0
   10.1073    3.3503   -4.4403 C   0  0  0  0  0  0  0  0  0  0  0  0
    9.6063    4.6050   -4.0835 C   0  0  0  0  0  0  0  0  0  0  0  0
    8.7552    4.7494   -2.9837 C   0  0  0  0  0  0  0  0  0  0  0  0
    7.9881    6.3276   -2.7006 S   0  0  0  0  0  0  0  0  0  0  0  0
    7.7853    6.2428   -0.9368 C   0  0  0  0  0  0  0  0  0  0  0  0
    7.7686    7.4344   -0.2055 C   0  0  0  0  0  0  0  0  0  0  0  0
    7.4562    7.4331    1.1565 C   0  0  0  0  0  0  0  0  0  0  0  0
    7.1791    6.2194    1.7849 C   0  0  0  0  0  0  0  0  0  0  0  0
    7.2323    5.0200    1.0695 C   0  0  0  0  0  0  0  0  0  0  0  0
    7.5383    5.0040   -0.3039 C   0  0  0  0  0  0  0  0  0  0  0  0
    5.6817    2.2727   -0.8291 C   0  0  0  0  0  0  0  0  0  0  0  0
    5.0777    1.1452   -0.2925 C   0  0  0  0  0  0  0  0  0  0  0  0
    5.7678    0.3272    0.6245 C   0  0  0  0  0  0  0  0  0  0  0  0
    5.1458   -0.8638    1.1996 C   0  0  0  0  0  0  0  0  0  0  0  0
    3.9041   -1.1848    0.8602 N   0  0  0  0  0  0  0  0  0  0  0  0
    3.3631   -2.2927    1.4062 C   0  0  0  0  0  0  0  0  0  0  0  0
    0.0914   -4.2868    1.2545 C   0  0  0  0  0  0  0  0  0  0  0  0
   -4.4536   -8.4002    1.2541 H   0  0  0  0  0  0  0  0  0  0  0  0
   -2.3080   -8.3148   -0.0260 H   0  0  0  0  0  0  0  0  0  0  0  0
   -1.2332   -6.1223   -0.5042 H   0  0  0  0  0  0  0  0  0  0  0  0
   -5.5403   -6.2802    1.9908 H   0  0  0  0  0  0  0  0  0  0  0  0
   -6.0582   -1.3251    0.3843 H   0  0  0  0  0  0  0  0  0  0  0  0
   -5.3223    0.1722   -1.4698 H   0  0  0  0  0  0  0  0  0  0  0  0
   -3.1027   -0.1983   -2.5577 H   0  0  0  0  0  0  0  0  0  0  0  0
   -1.6253   -2.0367   -1.7730 H   0  0  0  0  0  0  0  0  0  0  0  0
   -0.2636   -1.5906    1.5543 H   0  0  0  0  0  0  0  0  0  0  0  0
    1.1704   -2.7782   -0.8754 H   0  0  0  0  0  0  0  0  0  0  0  0
    1.8383   -5.5956    2.8986 H   0  0  0  0  0  0  0  0  0  0  0  0
    4.1461   -4.9060    3.5236 H   0  0  0  0  0  0  0  0  0  0  0  0
    7.7761   -1.9151    3.1933 H   0  0  0  0  0  0  0  0  0  0  0  0
    8.8307    0.1205    2.2162 H   0  0  0  0  0  0  0  0  0  0  0  0
    8.7128    2.0900    0.7272 H   0  0  0  0  0  0  0  0  0  0  0  0
    8.6955    1.5027   -1.9543 H   0  0  0  0  0  0  0  0  0  0  0  0
   10.1352    1.2479   -3.9319 H   0  0  0  0  0  0  0  0  0  0  0  0
   10.7560    3.2462   -5.3128 H   0  0  0  0  0  0  0  0  0  0  0  0
    9.8571    5.4897   -4.6743 H   0  0  0  0  0  0  0  0  0  0  0  0
    7.9840    8.3725   -0.7233 H   0  0  0  0  0  0  0  0  0  0  0  0
    7.4270    8.3720    1.7137 H   0  0  0  0  0  0  0  0  0  0  0  0
    6.9262    6.1929    2.8477 H   0  0  0  0  0  0  0  0  0  0  0  0
    7.0217    4.0843    1.5856 H   0  0  0  0  0  0  0  0  0  0  0  0
    5.1509    2.9091   -1.5400 H   0  0  0  0  0  0  0  0  0  0  0  0
    4.0591    0.8654   -0.5651 H   0  0  0  0  0  0  0  0  0  0  0  0
   -0.2291   -5.2676    1.6132 H   0  0  0  0  0  0  0  0  0  0  0  0
  1  2  2  0
  1  6  1  0
  1 51  1  0
  2  3  1  0
  2 52  1  0
  3  4  2  0
  3 53  1  0
  4  5  1  0
  4 14  1  0
  5  6  2  0
  5  7  1  0
  6 54  1  0
  7  8  1  0
  8  9  2  0
  8 13  1  0
  9 10  1  0
  9 55  1  0
 10 11  2  0
 10 56  1  0
 11 12  1  0
 11 57  1  0
 12 13  2  0
 12 58  1  0
 13 14  1  0
 14 15  1  0
 15 16  2  0
 15 50  1  0
 16 17  1  0
 16 59  1  0
 17 18  2  0
 17 60  1  0
 18 19  1  0
 18 49  1  0
 19 20  1  0
 19 50  2  0
 20 21  2  0
 20 61  1  0
 21 22  1  0
 21 62  1  0
 22 23  1  0
 22 49  2  0
 23 24  2  0
 24 25  1  0
 24 47  1  0
 25 26  2  0
 25 63  1  0
 26 27  1  0
 26 64  1  0
 27 28  1  0
 27 46  2  0
 28 29  2  0
 28 65  1  0
 29 30  1  0
 29 44  1  0
 30 31  1  0
 30 43  1  0
 31 32  2  0
 31 36  1  0
 32 33  1  0
 32 66  1  0
 33 34  2  0
 33 67  1  0
 34 35  1  0
 34 68  1  0
 35 36  2  0
 35 69  1  0
 36 37  1  0
 37 38  1  0
 38 39  2  0
 38 43  1  0
 39 40  1  0
 39 70  1  0
 40 41  2  0
 40 71  1  0
 41 42  1  0
 41 72  1  0
 42 43  2  0
 42 73  1  0
 44 45  2  0
 44 74  1  0
 45 46  1  0
 45 75  1  0
 46 47  1  0
 47 48  2  0
 48 49  1  0
 50 76  1  0
M  END

