
     RDKit          3D

 41 45  0  0  0  0  0  0  0  0999 V2000
    1.9567    1.1020    0.3343 C   0  0  0  0  0  0  0  0  0  0  0  0
    3.3542    0.7264   -0.0365 C   0  0  0  0  0  0  0  0  0  0  0  0
    4.3310    1.4483   -0.7293 C   0  0  0  0  0  0  0  0  0  0  0  0
    5.4852    0.6458   -0.7960 C   0  0  0  0  0  0  0  0  0  0  0  0
    5.1962   -0.5700   -0.1495 C   0  0  0  0  0  0  0  0  0  0  0  0
    6.0362   -1.7216    0.0286 C   0  0  0  0  0  0  0  0  0  0  0  0
    5.6168   -2.9970    0.2272 N   0  0  0  0  0  0  0  0  0  0  0  0
    6.7229   -3.8518    0.3410 C   0  0  0  0  0  0  0  0  0  0  0  0
    6.5798   -5.2112    0.5217 C   0  0  0  0  0  0  0  0  0  0  0  0
    5.3171   -5.8254    0.5922 C   0  0  0  0  0  0  0  0  0  0  0  0
    4.9428   -7.1730    0.7730 C   0  0  0  0  0  0  0  0  0  0  0  0
    3.5442   -7.2102    0.7488 C   0  0  0  0  0  0  0  0  0  0  0  0
    3.0876   -5.8923    0.5526 C   0  0  0  0  0  0  0  0  0  0  0  0
    1.6804   -5.4041    0.4471 C   0  0  0  0  0  0  0  0  0  0  0  0
    4.1641   -5.0635    0.4607 N   0  0  0  0  0  0  0  0  0  0  0  0
    4.1292   -3.5361    0.2457 B   0  0  1  0  0  0  0  0  0  0  0  0
    3.4387   -2.9331    1.3303 F   0  0  0  0  0  0  0  0  0  0  0  0
    3.4945   -3.2035   -0.9385 F   0  0  0  0  0  0  0  0  0  0  0  0
    7.9135   -3.0531    0.2142 C   0  0  0  0  0  0  0  0  0  0  0  0
    9.2808   -3.3725    0.2692 C   0  0  0  0  0  0  0  0  0  0  0  0
   10.2065   -2.3430    0.1471 C   0  0  0  0  0  0  0  0  0  0  0  0
    9.7888   -1.0025   -0.0105 C   0  0  0  0  0  0  0  0  0  0  0  0
    8.4391   -0.6756   -0.0656 C   0  0  0  0  0  0  0  0  0  0  0  0
    7.4890   -1.7112    0.0243 C   0  0  0  0  0  0  0  0  0  0  0  0
    3.8907   -0.4768    0.2948 N   0  0  0  0  0  0  0  0  0  0  0  0
    3.4275   -1.2260    0.8112 H   0  0  0  0  0  0  0  0  0  0  0  0
    1.7142    2.1006   -0.0541 H   0  0  0  0  0  0  0  0  0  0  0  0
    1.8157    1.1213    1.4288 H   0  0  0  0  0  0  0  0  0  0  0  0
    1.2234    0.3883   -0.0780 H   0  0  0  0  0  0  0  0  0  0  0  0
    4.2021    2.4459   -1.1446 H   0  0  0  0  0  0  0  0  0  0  0  0
    6.4111    0.8883   -1.3094 H   0  0  0  0  0  0  0  0  0  0  0  0
    7.4740   -5.8316    0.6016 H   0  0  0  0  0  0  0  0  0  0  0  0
    5.6301   -8.0072    0.9036 H   0  0  0  0  0  0  0  0  0  0  0  0
    2.9035   -8.0836    0.8561 H   0  0  0  0  0  0  0  0  0  0  0  0
    0.9754   -6.2409    0.5441 H   0  0  0  0  0  0  0  0  0  0  0  0
    1.5093   -4.9031   -0.5191 H   0  0  0  0  0  0  0  0  0  0  0  0
    1.4617   -4.6618    1.2317 H   0  0  0  0  0  0  0  0  0  0  0  0
    9.6128   -4.4037    0.4111 H   0  0  0  0  0  0  0  0  0  0  0  0
   11.2750   -2.5693    0.1878 H   0  0  0  0  0  0  0  0  0  0  0  0
   10.5394   -0.2115   -0.0792 H   0  0  0  0  0  0  0  0  0  0  0  0
    8.1313    0.3659   -0.1554 H   0  0  0  0  0  0  0  0  0  0  0  0
  1  2  1  0
  1 27  1  0
  1 28  1  0
  1 29  1  0
  2  3  1  0
  2 25  2  0
  3  4  2  0
  3 30  1  0
  4  5  1  0
  4 31  1  0
  5  6  2  0
  5 25  1  0
  6  7  1  0
  6 24  1  0
  7  8  1  0
  7 16  1  0
  8  9  2  0
  8 19  1  0
  9 10  1  0
  9 32  1  0
 10 11  2  0
 10 15  1  0
 11 12  1  0
 11 33  1  0
 12 13  2  0
 12 34  1  0
 13 14  1  0
 13 15  1  0
 14 35  1  0
 14 36  1  0
 14 37  1  0
 15 16  1  0
 16 17  1  1
 16 18  1  0
 19 20  1  0
 19 24  2  0
 20 21  2  0
 20 38  1  0
 21 22  1  0
 21 39  1  0
 22 23  2  0
 22 40  1  0
 23 24  1  0
 23 41  1  0
 25 26  1  0
M  CHG  2  16  -1  25   1
M  END

