
     RDKit          3D

 49 50  0  0  0  0  0  0  0  0999 V2000
    1.4296    1.2907    2.0579 C   0  0  0  0  0  0  0  0  0  0  0  0
    2.3237    0.3099    1.6049 O   0  0  0  0  0  0  0  0  0  0  0  0
    1.7126   -0.9225    1.2974 C   0  0  0  0  0  0  0  0  0  0  0  0
    2.7509   -1.9337    0.8243 C   0  0  0  0  0  0  0  0  0  0  0  0
    3.5999   -2.4546    1.8888 N   0  0  0  0  0  0  0  0  0  0  0  0
    4.0472   -3.8360    1.7264 C   0  0  0  0  0  0  0  0  0  0  0  0
    5.2394   -3.9980    0.7687 C   0  0  0  0  0  0  0  0  0  0  0  0
    6.4226   -3.1019    1.1918 C   0  0  2  0  0  0  0  0  0  0  0  0
    7.0869   -3.6028    2.3963 N   0  0  0  0  0  0  0  0  0  0  0  0
    8.2572   -4.3022    2.3641 C   0  0  0  0  0  0  0  0  0  0  0  0
    8.8605   -4.5589    1.3348 O   0  0  0  0  0  0  0  0  0  0  0  0
    8.7573   -4.7781    3.7329 C   0  0  0  0  0  0  0  0  0  0  0  0
   10.2585   -5.0501    3.7024 C   0  0  0  0  0  0  0  0  0  0  0  0
   10.7629   -5.7652    5.3077 S   0  0  0  0  0  0  0  0  0  0  0  0
   12.4970   -6.0555    5.1198 C   0  0  0  0  0  0  0  0  0  0  0  0
   13.1705   -6.5733    6.2461 C   0  0  0  0  0  0  0  0  0  0  0  0
   14.5323   -6.8402    6.1991 C   0  0  0  0  0  0  0  0  0  0  0  0
   15.2661   -6.5945    5.0205 C   0  0  0  0  0  0  0  0  0  0  0  0
   16.6735   -6.8668    4.9682 C   0  0  0  0  0  0  0  0  0  0  0  0
   17.8134   -7.0874    4.9271 N   0  0  0  0  0  0  0  0  0  0  0  0
   14.5962   -6.0780    3.8974 C   0  0  0  0  0  0  0  0  0  0  0  0
   13.2289   -5.8118    3.9436 C   0  0  0  0  0  0  0  0  0  0  0  0
    5.9324   -1.6566    1.3940 C   0  0  0  0  0  0  0  0  0  0  0  0
    4.6971   -1.5839    2.3130 C   0  0  0  0  0  0  0  0  0  0  0  0
    2.0054    2.2046    2.2649 H   0  0  0  0  0  0  0  0  0  0  0  0
    0.9093    0.9826    2.9874 H   0  0  0  0  0  0  0  0  0  0  0  0
    0.6560    1.5260    1.2986 H   0  0  0  0  0  0  0  0  0  0  0  0
    0.9573   -0.7789    0.4946 H   0  0  0  0  0  0  0  0  0  0  0  0
    1.1852   -1.3307    2.1839 H   0  0  0  0  0  0  0  0  0  0  0  0
    3.3145   -1.4733   -0.0163 H   0  0  0  0  0  0  0  0  0  0  0  0
    2.1944   -2.7818    0.3942 H   0  0  0  0  0  0  0  0  0  0  0  0
    3.1971   -4.4548    1.3977 H   0  0  0  0  0  0  0  0  0  0  0  0
    4.3333   -4.2205    2.7244 H   0  0  0  0  0  0  0  0  0  0  0  0
    4.9345   -3.7138   -0.2535 H   0  0  0  0  0  0  0  0  0  0  0  0
    5.5668   -5.0496    0.7231 H   0  0  0  0  0  0  0  0  0  0  0  0
    7.1953   -3.1353    0.4104 H   0  0  0  0  0  0  0  0  0  0  0  0
    6.6605   -3.4273    3.2982 H   0  0  0  0  0  0  0  0  0  0  0  0
    8.2125   -5.7056    3.9848 H   0  0  0  0  0  0  0  0  0  0  0  0
    8.5056   -4.0432    4.5156 H   0  0  0  0  0  0  0  0  0  0  0  0
   10.8162   -4.1183    3.5228 H   0  0  0  0  0  0  0  0  0  0  0  0
   10.4850   -5.7458    2.8827 H   0  0  0  0  0  0  0  0  0  0  0  0
   12.6147   -6.7658    7.1672 H   0  0  0  0  0  0  0  0  0  0  0  0
   15.0406   -7.2409    7.0783 H   0  0  0  0  0  0  0  0  0  0  0  0
   15.1542   -5.8850    2.9790 H   0  0  0  0  0  0  0  0  0  0  0  0
   12.7418   -5.4162    3.0527 H   0  0  0  0  0  0  0  0  0  0  0  0
    5.6748   -1.2388    0.4062 H   0  0  0  0  0  0  0  0  0  0  0  0
    6.7486   -1.0338    1.7965 H   0  0  0  0  0  0  0  0  0  0  0  0
    4.3261   -0.5530    2.3728 H   0  0  0  0  0  0  0  0  0  0  0  0
    4.9817   -1.8706    3.3452 H   0  0  0  0  0  0  0  0  0  0  0  0
  1  2  1  0
  1 25  1  0
  1 26  1  0
  1 27  1  0
  2  3  1  0
  3  4  1  0
  3 28  1  0
  3 29  1  0
  4  5  1  0
  4 30  1  0
  4 31  1  0
  5  6  1  0
  5 24  1  0
  6  7  1  0
  6 32  1  0
  6 33  1  0
  7  8  1  0
  7 34  1  0
  7 35  1  0
  8  9  1  0
  8 23  1  0
  8 36  1  6
  9 10  1  0
  9 37  1  0
 10 11  2  0
 10 12  1  0
 12 13  1  0
 12 38  1  0
 12 39  1  0
 13 14  1  0
 13 40  1  0
 13 41  1  0
 14 15  1  0
 15 16  2  0
 15 22  1  0
 16 17  1  0
 16 42  1  0
 17 18  2  0
 17 43  1  0
 18 19  1  0
 18 21  1  0
 19 20  3  0
 21 22  2  0
 21 44  1  0
 22 45  1  0
 23 24  1  0
 23 46  1  0
 23 47  1  0
 24 48  1  0
 24 49  1  0
M  END

