
     RDKit          3D

 30 31  0  0  0  0  0  0  0  0999 V2000
    0.9104   -0.7888    0.3239 C   0  0  0  0  0  0  0  0  0  0  0  0
    2.2627   -0.0719    0.1077 C   0  0  1  0  0  0  0  0  0  0  0  0
    2.7558    0.5496    1.4202 C   0  0  0  0  0  0  0  0  0  0  0  0
    3.2829   -1.0079   -0.3729 N   0  0  0  0  0  0  0  0  0  0  0  0
    3.5068   -1.3666   -1.6648 C   0  0  0  0  0  0  0  0  0  0  0  0
    4.2313   -2.2853   -1.9980 O   0  0  0  0  0  0  0  0  0  0  0  0
    2.7796   -0.5291   -2.7088 C   0  0  0  0  0  0  0  0  0  0  0  0
    2.3144    0.7733   -2.2328 N   0  0  0  0  0  0  0  0  0  0  0  0
    2.0403    1.7746   -3.2167 C   0  0  0  0  0  0  0  0  0  0  0  0
    3.0267    2.7241   -3.5140 C   0  0  0  0  0  0  0  0  0  0  0  0
    2.7957    3.7001   -4.4834 C   0  0  0  0  0  0  0  0  0  0  0  0
    4.1504    4.9802   -4.8699 Br  0  0  0  0  0  0  0  0  0  0  0  0
    1.5808    3.7456   -5.1721 C   0  0  0  0  0  0  0  0  0  0  0  0
    0.5928    2.8045   -4.8797 C   0  0  0  0  0  0  0  0  0  0  0  0
    0.8180    1.8260   -3.9077 C   0  0  0  0  0  0  0  0  0  0  0  0
   -0.5657    0.5734   -3.5290 Br  0  0  0  0  0  0  0  0  0  0  0  0
    2.0309    1.0614   -0.9165 C   0  0  0  0  0  0  0  0  0  0  0  0
    1.5821    2.1355   -0.5671 O   0  0  0  0  0  0  0  0  0  0  0  0
    1.0257   -1.5901    1.0711 H   0  0  0  0  0  0  0  0  0  0  0  0
    0.5442   -1.2401   -0.6109 H   0  0  0  0  0  0  0  0  0  0  0  0
    0.1528   -0.0768    0.6830 H   0  0  0  0  0  0  0  0  0  0  0  0
    2.8646   -0.2299    2.1917 H   0  0  0  0  0  0  0  0  0  0  0  0
    2.0372    1.3005    1.7715 H   0  0  0  0  0  0  0  0  0  0  0  0
    3.7293    1.0418    1.2777 H   0  0  0  0  0  0  0  0  0  0  0  0
    3.7316   -1.6068    0.3163 H   0  0  0  0  0  0  0  0  0  0  0  0
    1.9427   -1.1338   -3.1062 H   0  0  0  0  0  0  0  0  0  0  0  0
    3.4872   -0.3834   -3.5374 H   0  0  0  0  0  0  0  0  0  0  0  0
    3.9718    2.6891   -2.9710 H   0  0  0  0  0  0  0  0  0  0  0  0
    1.4029    4.5097   -5.9303 H   0  0  0  0  0  0  0  0  0  0  0  0
   -0.3613    2.8330   -5.4084 H   0  0  0  0  0  0  0  0  0  0  0  0
  2  1  1  1
  1 19  1  0
  1 20  1  0
  1 21  1  0
  2  3  1  0
  2  4  1  0
  2 17  1  0
  3 22  1  0
  3 23  1  0
  3 24  1  0
  4  5  1  0
  4 25  1  0
  5  6  2  0
  5  7  1  0
  7  8  1  0
  7 26  1  0
  7 27  1  0
  8  9  1  0
  8 17  1  0
  9 10  2  0
  9 15  1  0
 10 11  1  0
 10 28  1  0
 11 12  1  0
 11 13  2  0
 13 14  1  0
 13 29  1  0
 14 15  2  0
 14 30  1  0
 15 16  1  0
 17 18  2  0
M  END

