
     RDKit          3D

 43 43  0  0  0  0  0  0  0  0999 V2000
    0.9877    0.4867    0.0472 C   0  0  0  0  0  0  0  0  0  0  0  0
    2.5017    0.3080   -0.0722 C   0  0  0  0  0  0  0  0  0  0  0  0
    2.9131   -0.9482   -0.8480 C   0  0  0  0  0  0  0  0  0  0  0  0
    4.4306   -1.1212   -0.9645 C   0  0  0  0  0  0  0  0  0  0  0  0
    4.8981   -2.4263   -1.6362 C   0  0  1  0  0  0  0  0  0  0  0  0
    4.4447   -2.5838   -3.1048 C   0  0  0  0  0  0  0  0  0  0  0  0
    4.9543   -1.5242   -4.0870 C   0  0  0  0  0  0  0  0  0  0  0  0
    6.4198   -2.6120   -1.4982 C   0  0  0  0  0  0  0  0  0  0  0  0
    6.8353   -2.7760   -0.1120 N   0  0  0  0  0  0  0  0  0  0  0  0
    8.2659   -2.9280    0.0718 C   0  0  0  0  0  0  0  0  0  0  0  0
    8.6704   -3.0264    1.5289 C   0  0  0  0  0  0  0  0  0  0  0  0
    9.7922   -3.7845    1.9042 C   0  0  0  0  0  0  0  0  0  0  0  0
   10.2031   -3.8533    3.2345 C   0  0  0  0  0  0  0  0  0  0  0  0
    9.4711   -3.1576    4.1975 C   0  0  0  0  0  0  0  0  0  0  0  0
    9.8935   -3.2290    5.6107 N   0  0  0  0  0  0  0  0  0  0  0  0
   10.8803   -3.8987    5.8727 O   0  0  0  0  0  0  0  0  0  0  0  0
    9.2307   -2.6134    6.4306 O   0  0  0  0  0  0  0  0  0  0  0  0
    8.3482   -2.4006    3.8600 C   0  0  0  0  0  0  0  0  0  0  0  0
    7.9547   -2.3392    2.5240 C   0  0  0  0  0  0  0  0  0  0  0  0
    0.7299    1.3982    0.6100 H   0  0  0  0  0  0  0  0  0  0  0  0
    0.5226   -0.3675    0.5676 H   0  0  0  0  0  0  0  0  0  0  0  0
    0.5129    0.5638   -0.9455 H   0  0  0  0  0  0  0  0  0  0  0  0
    2.9509    0.2733    0.9371 H   0  0  0  0  0  0  0  0  0  0  0  0
    2.9405    1.1961   -0.5627 H   0  0  0  0  0  0  0  0  0  0  0  0
    2.4528   -0.9122   -1.8519 H   0  0  0  0  0  0  0  0  0  0  0  0
    2.4803   -1.8380   -0.3525 H   0  0  0  0  0  0  0  0  0  0  0  0
    4.8765   -1.0874    0.0429 H   0  0  0  0  0  0  0  0  0  0  0  0
    4.8579   -0.2568   -1.5054 H   0  0  0  0  0  0  0  0  0  0  0  0
    4.4290   -3.2645   -1.0825 H   0  0  0  0  0  0  0  0  0  0  0  0
    3.3425   -2.6001   -3.1351 H   0  0  0  0  0  0  0  0  0  0  0  0
    4.7616   -3.5815   -3.4575 H   0  0  0  0  0  0  0  0  0  0  0  0
    4.6160   -0.5113   -3.8161 H   0  0  0  0  0  0  0  0  0  0  0  0
    4.5845   -1.7291   -5.1044 H   0  0  0  0  0  0  0  0  0  0  0  0
    6.0550   -1.5019   -4.1409 H   0  0  0  0  0  0  0  0  0  0  0  0
    6.9430   -1.7263   -1.9012 H   0  0  0  0  0  0  0  0  0  0  0  0
    6.7381   -3.4694   -2.1349 H   0  0  0  0  0  0  0  0  0  0  0  0
    6.3471   -3.5692    0.3057 H   0  0  0  0  0  0  0  0  0  0  0  0
    8.7574   -2.0378   -0.3665 H   0  0  0  0  0  0  0  0  0  0  0  0
    8.6939   -3.7968   -0.4780 H   0  0  0  0  0  0  0  0  0  0  0  0
   10.3521   -4.3334    1.1421 H   0  0  0  0  0  0  0  0  0  0  0  0
   11.0702   -4.4374    3.5414 H   0  0  0  0  0  0  0  0  0  0  0  0
    7.8052   -1.8740    4.6446 H   0  0  0  0  0  0  0  0  0  0  0  0
    7.0787   -1.7570    2.2337 H   0  0  0  0  0  0  0  0  0  0  0  0
  1  2  1  0
  1 20  1  0
  1 21  1  0
  1 22  1  0
  2  3  1  0
  2 23  1  0
  2 24  1  0
  3  4  1  0
  3 25  1  0
  3 26  1  0
  4  5  1  0
  4 27  1  0
  4 28  1  0
  5  6  1  0
  5  8  1  0
  5 29  1  1
  6  7  1  0
  6 30  1  0
  6 31  1  0
  7 32  1  0
  7 33  1  0
  7 34  1  0
  8  9  1  0
  8 35  1  0
  8 36  1  0
  9 10  1  0
  9 37  1  0
 10 11  1  0
 10 38  1  0
 10 39  1  0
 11 12  2  0
 11 19  1  0
 12 13  1  0
 12 40  1  0
 13 14  2  0
 13 41  1  0
 14 15  1  0
 14 18  1  0
 15 16  2  0
 15 17  1  0
 18 19  2  0
 18 42  1  0
 19 43  1  0
M  CHG  2  15   1  17  -1
M  END

