
     RDKit          3D

 68 73  0  0  0  0  0  0  0  0999 V2000
    2.0556   -5.5915   -5.7968 C   0  0  0  0  0  0  0  0  0  0  0  0
    2.5825   -4.2634   -5.3648 C   0  0  0  0  0  0  0  0  0  0  0  0
    2.7745   -3.2932   -6.2687 N   0  0  0  0  0  0  0  0  0  0  0  0
    3.2466   -2.2472   -5.5707 N   0  0  0  0  0  0  0  0  0  0  0  0
    3.5850   -1.0331   -6.0705 C   0  0  0  0  0  0  0  0  0  0  0  0
    4.0514   -0.0818   -5.1937 C   0  0  0  0  0  0  0  0  0  0  0  0
    4.1549   -0.4204   -3.8152 C   0  0  0  0  0  0  0  0  0  0  0  0
    3.8260   -1.6021   -3.3333 N   0  0  0  0  0  0  0  0  0  0  0  0
    3.3688   -2.5266   -4.1991 C   0  0  0  0  0  0  0  0  0  0  0  0
    2.9355   -3.8493   -4.0480 C   0  0  0  0  0  0  0  0  0  0  0  0
    2.8409   -4.6637   -2.8106 C   0  0  0  0  0  0  0  0  0  0  0  0
    2.4193   -5.8163   -2.8350 O   0  0  0  0  0  0  0  0  0  0  0  0
    3.2488   -4.0291   -1.6698 N   0  0  0  0  0  0  0  0  0  0  0  0
    3.2510   -4.6398   -0.3356 C   0  0  1  0  0  0  0  0  0  0  0  0
    1.8584   -5.1214    0.0936 C   0  0  0  0  0  0  0  0  0  0  0  0
    4.3417   -5.7060   -0.2000 C   0  0  0  0  0  0  0  0  0  0  0  0
    4.1062   -7.0276   -0.4069 C   0  0  0  0  0  0  0  0  0  0  0  0
    5.1558   -8.0052   -0.3103 C   0  0  0  0  0  0  0  0  0  0  0  0
    4.8872   -9.3740   -0.5360 C   0  0  0  0  0  0  0  0  0  0  0  0
    5.9046  -10.3111   -0.4428 C   0  0  0  0  0  0  0  0  0  0  0  0
    7.2079   -9.9112   -0.1250 C   0  0  0  0  0  0  0  0  0  0  0  0
    7.5202   -8.5603    0.1053 C   0  0  0  0  0  0  0  0  0  0  0  0
    8.8755   -8.2343    0.4218 C   0  0  0  0  0  0  0  0  0  0  0  0
   10.0467   -8.0393    0.6863 C   0  0  0  0  0  0  0  0  0  0  0  0
   11.4135   -7.6424    1.0063 C   0  0  1  0  0  0  0  0  0  0  0  0
   12.3846   -7.6160   -0.2019 C   0  0  0  0  0  0  0  0  0  0  0  0
   13.5436   -6.7572    0.3135 C   0  0  0  0  0  0  0  0  0  0  0  0
   12.8414   -5.6052    1.0610 C   0  0  0  0  0  0  0  0  0  0  0  0
   11.5164   -6.2021    1.6096 C   0  0  0  0  0  0  0  0  0  0  0  0
    6.4750   -7.5892    0.0110 C   0  0  0  0  0  0  0  0  0  0  0  0
    6.7503   -6.1565    0.2447 C   0  0  0  0  0  0  0  0  0  0  0  0
    7.8381   -5.6873    0.5349 O   0  0  0  0  0  0  0  0  0  0  0  0
    5.6362   -5.2825    0.1208 N   0  0  0  0  0  0  0  0  0  0  0  0
    5.9357   -3.8946    0.3798 C   0  0  0  0  0  0  0  0  0  0  0  0
    6.2915   -3.0461   -0.6729 C   0  0  0  0  0  0  0  0  0  0  0  0
    6.5907   -1.7052   -0.4155 C   0  0  0  0  0  0  0  0  0  0  0  0
    6.5435   -1.2122    0.8915 C   0  0  0  0  0  0  0  0  0  0  0  0
    6.1997   -2.0661    1.9447 C   0  0  0  0  0  0  0  0  0  0  0  0
    5.9002   -3.4063    1.6911 C   0  0  0  0  0  0  0  0  0  0  0  0
    1.8860   -5.5899   -6.8821 H   0  0  0  0  0  0  0  0  0  0  0  0
    1.1186   -5.8265   -5.2705 H   0  0  0  0  0  0  0  0  0  0  0  0
    2.7595   -6.3933   -5.5282 H   0  0  0  0  0  0  0  0  0  0  0  0
    3.4591   -0.9026   -7.1466 H   0  0  0  0  0  0  0  0  0  0  0  0
    4.3347    0.9078   -5.5517 H   0  0  0  0  0  0  0  0  0  0  0  0
    4.5243    0.3215   -3.0988 H   0  0  0  0  0  0  0  0  0  0  0  0
    3.5857   -3.0717   -1.7586 H   0  0  0  0  0  0  0  0  0  0  0  0
    3.5236   -3.8188    0.3402 H   0  0  0  0  0  0  0  0  0  0  0  0
    1.4685   -5.8910   -0.5833 H   0  0  0  0  0  0  0  0  0  0  0  0
    1.1612   -4.2695    0.0738 H   0  0  0  0  0  0  0  0  0  0  0  0
    1.8898   -5.5220    1.1180 H   0  0  0  0  0  0  0  0  0  0  0  0
    3.1087   -7.3515   -0.6942 H   0  0  0  0  0  0  0  0  0  0  0  0
    3.8684   -9.6791   -0.7865 H   0  0  0  0  0  0  0  0  0  0  0  0
    5.6928  -11.3691   -0.6186 H   0  0  0  0  0  0  0  0  0  0  0  0
    8.0082  -10.6497   -0.0525 H   0  0  0  0  0  0  0  0  0  0  0  0
   11.8263   -8.3612    1.7385 H   0  0  0  0  0  0  0  0  0  0  0  0
   11.8907   -7.1232   -1.0566 H   0  0  0  0  0  0  0  0  0  0  0  0
   12.6824   -8.6253   -0.5259 H   0  0  0  0  0  0  0  0  0  0  0  0
   14.2146   -6.4077   -0.4871 H   0  0  0  0  0  0  0  0  0  0  0  0
   14.1571   -7.3498    1.0148 H   0  0  0  0  0  0  0  0  0  0  0  0
   12.6204   -4.7867    0.3567 H   0  0  0  0  0  0  0  0  0  0  0  0
   13.4738   -5.1760    1.8538 H   0  0  0  0  0  0  0  0  0  0  0  0
   10.6431   -5.6105    1.2998 H   0  0  0  0  0  0  0  0  0  0  0  0
   11.4981   -6.2462    2.7092 H   0  0  0  0  0  0  0  0  0  0  0  0
    6.3358   -3.4426   -1.6885 H   0  0  0  0  0  0  0  0  0  0  0  0
    6.8686   -1.0463   -1.2418 H   0  0  0  0  0  0  0  0  0  0  0  0
    6.7810   -0.1644    1.0917 H   0  0  0  0  0  0  0  0  0  0  0  0
    6.1702   -1.6888    2.9699 H   0  0  0  0  0  0  0  0  0  0  0  0
    5.6429   -4.0849    2.5072 H   0  0  0  0  0  0  0  0  0  0  0  0
  1  2  1  0
  1 40  1  0
  1 41  1  0
  1 42  1  0
  2  3  2  0
  2 10  1  0
  3  4  1  0
  4  5  1  0
  4  9  1  0
  5  6  2  0
  5 43  1  0
  6  7  1  0
  6 44  1  0
  7  8  2  0
  7 45  1  0
  8  9  1  0
  9 10  2  0
 10 11  1  0
 11 12  2  0
 11 13  1  0
 13 14  1  0
 13 46  1  0
 14 15  1  0
 14 16  1  0
 14 47  1  1
 15 48  1  0
 15 49  1  0
 15 50  1  0
 16 17  2  0
 16 33  1  0
 17 18  1  0
 17 51  1  0
 18 19  2  0
 18 30  1  0
 19 20  1  0
 19 52  1  0
 20 21  2  0
 20 53  1  0
 21 22  1  0
 21 54  1  0
 22 23  1  0
 22 30  2  0
 23 24  3  0
 24 25  1  0
 25 26  1  0
 25 29  1  0
 25 55  1  1
 26 27  1  0
 26 56  1  0
 26 57  1  0
 27 28  1  0
 27 58  1  0
 27 59  1  0
 28 29  1  0
 28 60  1  0
 28 61  1  0
 29 62  1  0
 29 63  1  0
 30 31  1  0
 31 32  2  0
 31 33  1  0
 33 34  1  0
 34 35  2  0
 34 39  1  0
 35 36  1  0
 35 64  1  0
 36 37  2  0
 36 65  1  0
 37 38  1  0
 37 66  1  0
 38 39  2  0
 38 67  1  0
 39 68  1  0
M  END

