
     RDKit          3D

 65 67  0  0  0  0  0  0  0  0999 V2000
    0.6008   -0.8775    1.2378 C   0  0  0  0  0  0  0  0  0  0  0  0
    2.0984   -1.1190    1.0745 C   0  0  0  0  0  0  0  0  0  0  0  0
    2.9302   -0.4094    2.0519 N   0  0  0  0  0  0  0  0  0  0  0  0
    2.6032   -0.6619    3.4527 C   0  0  0  0  0  0  0  0  0  0  0  0
    2.7967   -2.1283    3.8706 C   0  0  0  0  0  0  0  0  0  0  0  0
    1.9313   -2.9599    3.8034 O   0  0  0  0  0  0  0  0  0  0  0  0
    4.0531   -2.4791    4.2435 O   0  0  0  0  0  0  0  0  0  0  0  0
    4.3459   -0.5214    1.7506 C   0  0  1  0  0  0  0  0  0  0  0  0
    4.8657    0.1784    0.4687 C   0  0  0  0  0  0  0  0  0  0  0  0
    6.1190    0.6333    1.2584 C   0  0  2  0  0  0  0  0  0  0  0  0
    7.2335   -0.2770    1.0548 N   0  0  0  0  0  0  0  0  0  0  0  0
    8.3812   -0.1115    1.8105 C   0  0  0  0  0  0  0  0  0  0  0  0
    8.3912    0.6881    2.7406 O   0  0  0  0  0  0  0  0  0  0  0  0
    9.4765   -0.8984    1.4715 N   0  0  0  0  0  0  0  0  0  0  0  0
    9.4322   -1.8938    0.4097 C   0  0  0  0  0  0  0  0  0  0  0  0
    8.9113   -3.2868    0.8043 C   0  0  1  0  0  0  0  0  0  0  0  0
    7.4014   -3.5459    0.8166 C   0  0  0  0  0  0  0  0  0  0  0  0
    7.3539   -5.0652    0.6134 C   0  0  0  0  0  0  0  0  0  0  0  0
    8.5286   -5.2984   -0.3502 C   0  0  0  0  0  0  0  0  0  0  0  0
    9.4211   -4.1994   -0.1692 O   0  0  0  0  0  0  0  0  0  0  0  0
   10.7299   -0.6189    2.2089 C   0  0  1  0  0  0  0  0  0  0  0  0
   11.3606   -1.8366    2.9237 C   0  0  0  0  0  0  0  0  0  0  0  0
   12.3069   -2.6979    2.0698 C   0  0  0  0  0  0  0  0  0  0  0  0
   13.3992   -1.8684    1.3593 C   0  0  2  0  0  0  0  0  0  0  0  0
   14.4786   -1.3591    2.3267 C   0  0  0  0  0  0  0  0  0  0  0  0
   12.7487   -0.7278    0.5465 C   0  0  0  0  0  0  0  0  0  0  0  0
   11.7947    0.1441    1.3809 C   0  0  0  0  0  0  0  0  0  0  0  0
    5.3307    0.3556    2.5654 C   0  0  0  0  0  0  0  0  0  0  0  0
    0.0614   -1.2879    0.3701 H   0  0  0  0  0  0  0  0  0  0  0  0
    0.3803    0.2002    1.3013 H   0  0  0  0  0  0  0  0  0  0  0  0
    0.2038   -1.3773    2.1337 H   0  0  0  0  0  0  0  0  0  0  0  0
    2.4132   -0.7625    0.0799 H   0  0  0  0  0  0  0  0  0  0  0  0
    2.2943   -2.2140    1.0878 H   0  0  0  0  0  0  0  0  0  0  0  0
    1.5506   -0.4109    3.6368 H   0  0  0  0  0  0  0  0  0  0  0  0
    3.2153    0.0034    4.0840 H   0  0  0  0  0  0  0  0  0  0  0  0
    4.6282   -1.7004    4.2679 H   0  0  0  0  0  0  0  0  0  0  0  0
    4.6902   -1.5782    1.7517 H   0  0  0  0  0  0  0  0  0  0  0  0
    4.2291    1.0380    0.2135 H   0  0  0  0  0  0  0  0  0  0  0  0
    5.0246   -0.4349   -0.4330 H   0  0  0  0  0  0  0  0  0  0  0  0
    6.4346    1.6809    1.1256 H   0  0  0  0  0  0  0  0  0  0  0  0
    7.2953   -0.7197    0.1479 H   0  0  0  0  0  0  0  0  0  0  0  0
   10.4501   -2.0490    0.0390 H   0  0  0  0  0  0  0  0  0  0  0  0
    8.8724   -1.5285   -0.4702 H   0  0  0  0  0  0  0  0  0  0  0  0
    9.3254   -3.5345    1.8018 H   0  0  0  0  0  0  0  0  0  0  0  0
    6.9231   -3.0338   -0.0363 H   0  0  0  0  0  0  0  0  0  0  0  0
    6.9073   -3.2061    1.7373 H   0  0  0  0  0  0  0  0  0  0  0  0
    6.3937   -5.4244    0.2143 H   0  0  0  0  0  0  0  0  0  0  0  0
    7.5291   -5.5807    1.5716 H   0  0  0  0  0  0  0  0  0  0  0  0
    8.1960   -5.3177   -1.4046 H   0  0  0  0  0  0  0  0  0  0  0  0
    9.0585   -6.2460   -0.1506 H   0  0  0  0  0  0  0  0  0  0  0  0
   10.3883    0.0679    2.9907 H   0  0  0  0  0  0  0  0  0  0  0  0
   10.5661   -2.4546    3.3723 H   0  0  0  0  0  0  0  0  0  0  0  0
   11.9335   -1.4336    3.7764 H   0  0  0  0  0  0  0  0  0  0  0  0
   11.7402   -3.2661    1.3139 H   0  0  0  0  0  0  0  0  0  0  0  0
   12.7813   -3.4584    2.7140 H   0  0  0  0  0  0  0  0  0  0  0  0
   13.9063   -2.5374    0.6416 H   0  0  0  0  0  0  0  0  0  0  0  0
   14.0782   -0.6719    3.0891 H   0  0  0  0  0  0  0  0  0  0  0  0
   15.2700   -0.8175    1.7831 H   0  0  0  0  0  0  0  0  0  0  0  0
   14.9554   -2.1973    2.8606 H   0  0  0  0  0  0  0  0  0  0  0  0
   12.2138   -1.1639   -0.3141 H   0  0  0  0  0  0  0  0  0  0  0  0
   13.5345   -0.0880    0.1086 H   0  0  0  0  0  0  0  0  0  0  0  0
   11.2908    0.8872    0.7418 H   0  0  0  0  0  0  0  0  0  0  0  0
   12.3950    0.7292    2.0991 H   0  0  0  0  0  0  0  0  0  0  0  0
    4.8376    1.2733    2.9192 H   0  0  0  0  0  0  0  0  0  0  0  0
    5.9113   -0.0870    3.3883 H   0  0  0  0  0  0  0  0  0  0  0  0
  1  2  1  0
  1 29  1  0
  1 30  1  0
  1 31  1  0
  2  3  1  0
  2 32  1  0
  2 33  1  0
  3  4  1  0
  3  8  1  0
  4  5  1  0
  4 34  1  0
  4 35  1  0
  5  6  2  0
  5  7  1  0
  7 36  1  0
  8  9  1  0
  8 28  1  0
  8 37  1  6
  9 10  1  0
  9 38  1  0
  9 39  1  0
 10 11  1  0
 10 28  1  0
 10 40  1  6
 11 12  1  0
 11 41  1  0
 12 13  2  0
 12 14  1  0
 14 15  1  0
 14 21  1  0
 15 16  1  0
 15 42  1  0
 15 43  1  0
 16 17  1  0
 16 20  1  0
 16 44  1  1
 17 18  1  0
 17 45  1  0
 17 46  1  0
 18 19  1  0
 18 47  1  0
 18 48  1  0
 19 20  1  0
 19 49  1  0
 19 50  1  0
 21 22  1  0
 21 27  1  0
 21 51  1  1
 22 23  1  0
 22 52  1  0
 22 53  1  0
 23 24  1  0
 23 54  1  0
 23 55  1  0
 24 25  1  0
 24 26  1  0
 24 56  1  6
 25 57  1  0
 25 58  1  0
 25 59  1  0
 26 27  1  0
 26 60  1  0
 26 61  1  0
 27 62  1  0
 27 63  1  0
 28 64  1  0
 28 65  1  0
M  END

