
     RDKit          3D

 60 65  0  0  0  0  0  0  0  0999 V2000
    7.3885   -5.2447    3.1674 C   0  0  0  0  0  0  0  0  0  0  0  0
    7.2831   -3.9190    2.3953 C   0  0  2  0  0  0  0  0  0  0  0  0
    6.3261   -2.9677    3.1217 C   0  0  0  0  0  0  0  0  0  0  0  0
    6.3851   -2.6787    4.3014 O   0  0  0  0  0  0  0  0  0  0  0  0
    5.4249   -2.5093    2.1940 N   0  0  0  0  0  0  0  0  0  0  0  0
    4.3136   -1.6380    2.4489 C   0  0  0  0  0  0  0  0  0  0  0  0
    3.0340   -2.2062    2.3675 C   0  0  0  0  0  0  0  0  0  0  0  0
    1.8946   -1.4263    2.5478 C   0  0  0  0  0  0  0  0  0  0  0  0
    2.0285   -0.0575    2.7965 C   0  0  0  0  0  0  0  0  0  0  0  0
    3.2976    0.5124    2.8585 C   0  0  0  0  0  0  0  0  0  0  0  0
    4.4625   -0.2591    2.7047 C   0  0  0  0  0  0  0  0  0  0  0  0
    5.7611    0.5285    2.7408 C   0  0  0  0  0  0  0  0  0  0  0  0
    5.8504    1.5817    2.1263 O   0  0  0  0  0  0  0  0  0  0  0  0
    6.7554    0.0388    3.5291 N   0  0  0  0  0  0  0  0  0  0  0  0
    8.0241    0.7271    3.6771 C   0  0  0  0  0  0  0  0  0  0  0  0
    8.5512    0.6417    5.0980 C   0  0  2  0  0  0  0  0  0  0  0  0
    7.7477    0.9564    5.7964 H   0  0  0  0  0  0  0  0  0  0  0  0
    9.8298    1.4441    5.3855 C   0  0  0  0  0  0  0  0  0  0  0  0
   10.5055    0.6482    6.5299 C   0  0  0  0  0  0  0  0  0  0  0  0
    9.6631   -0.6474    6.6179 C   0  0  0  0  0  0  0  0  0  0  0  0
    8.9182   -0.7083    5.4080 O   0  0  0  0  0  0  0  0  0  0  0  0
    5.6163   -3.1552    0.9227 C   0  0  0  0  0  0  0  0  0  0  0  0
    4.9706   -2.9313   -0.0695 O   0  0  0  0  0  0  0  0  0  0  0  0
    6.6407   -4.0546    1.0875 N   0  0  0  0  0  0  0  0  0  0  0  0
    7.4042   -4.5692   -0.0434 C   0  0  0  0  0  0  0  0  0  0  0  0
    8.6506   -3.7077   -0.3315 C   0  0  0  0  0  0  0  0  0  0  0  0
    9.2637   -3.2126    0.9484 C   0  0  0  0  0  0  0  0  0  0  0  0
    8.6256   -3.2608    2.1695 C   0  0  0  0  0  0  0  0  0  0  0  0
    9.4062   -2.6840    3.1533 N   0  0  0  0  0  0  0  0  0  0  0  0
    9.0670   -2.3607    4.0600 H   0  0  0  0  0  0  0  0  0  0  0  0
   10.5669   -2.2203    2.5641 C   0  0  0  0  0  0  0  0  0  0  0  0
   11.6556   -1.5392    3.1265 C   0  0  0  0  0  0  0  0  0  0  0  0
   12.7135   -1.1998    2.2860 C   0  0  0  0  0  0  0  0  0  0  0  0
   12.6924   -1.5273    0.9126 C   0  0  0  0  0  0  0  0  0  0  0  0
   11.6088   -2.1971    0.3524 C   0  0  0  0  0  0  0  0  0  0  0  0
   10.5231   -2.5503    1.1767 C   0  0  0  0  0  0  0  0  0  0  0  0
    6.3972   -5.7114    3.2704 H   0  0  0  0  0  0  0  0  0  0  0  0
    7.7933   -5.0524    4.1708 H   0  0  0  0  0  0  0  0  0  0  0  0
    8.0621   -5.9400    2.6462 H   0  0  0  0  0  0  0  0  0  0  0  0
    2.9439   -3.2713    2.1469 H   0  0  0  0  0  0  0  0  0  0  0  0
    0.9055   -1.8859    2.4840 H   0  0  0  0  0  0  0  0  0  0  0  0
    1.1428    0.5686    2.9291 H   0  0  0  0  0  0  0  0  0  0  0  0
    3.4160    1.5862    3.0140 H   0  0  0  0  0  0  0  0  0  0  0  0
    6.5920   -0.8020    4.0824 H   0  0  0  0  0  0  0  0  0  0  0  0
    7.8665    1.7795    3.3974 H   0  0  0  0  0  0  0  0  0  0  0  0
    8.7869    0.3182    2.9890 H   0  0  0  0  0  0  0  0  0  0  0  0
    9.6081    2.4866    5.6563 H   0  0  0  0  0  0  0  0  0  0  0  0
   10.4674    1.4571    4.4877 H   0  0  0  0  0  0  0  0  0  0  0  0
   10.4917    1.1953    7.4843 H   0  0  0  0  0  0  0  0  0  0  0  0
   11.5580    0.4300    6.2960 H   0  0  0  0  0  0  0  0  0  0  0  0
    8.9725   -0.6110    7.4822 H   0  0  0  0  0  0  0  0  0  0  0  0
   10.2619   -1.5668    6.6983 H   0  0  0  0  0  0  0  0  0  0  0  0
    6.7282   -4.5993   -0.9080 H   0  0  0  0  0  0  0  0  0  0  0  0
    7.7001   -5.6049    0.1888 H   0  0  0  0  0  0  0  0  0  0  0  0
    8.3680   -2.8478   -0.9658 H   0  0  0  0  0  0  0  0  0  0  0  0
    9.3710   -4.2990   -0.9225 H   0  0  0  0  0  0  0  0  0  0  0  0
   11.6725   -1.2883    4.1885 H   0  0  0  0  0  0  0  0  0  0  0  0
   13.5777   -0.6722    2.6978 H   0  0  0  0  0  0  0  0  0  0  0  0
   13.5406   -1.2471    0.2831 H   0  0  0  0  0  0  0  0  0  0  0  0
   11.5998   -2.4418   -0.7130 H   0  0  0  0  0  0  0  0  0  0  0  0
  2  1  1  1
  1 37  1  0
  1 38  1  0
  1 39  1  0
  2  3  1  0
  2 24  1  0
  2 28  1  0
  3  4  2  0
  3  5  1  0
  5  6  1  0
  5 22  1  0
  6  7  2  0
  6 11  1  0
  7  8  1  0
  7 40  1  0
  8  9  2  0
  8 41  1  0
  9 10  1  0
  9 42  1  0
 10 11  2  0
 10 43  1  0
 11 12  1  0
 12 13  2  0
 12 14  1  0
 14 15  1  0
 14 44  1  0
 15 16  1  0
 15 45  1  0
 15 46  1  0
 16 17  1  1
 16 18  1  0
 16 21  1  0
 18 19  1  0
 18 47  1  0
 18 48  1  0
 19 20  1  0
 19 49  1  0
 19 50  1  0
 20 21  1  0
 20 51  1  0
 20 52  1  0
 22 23  2  0
 22 24  1  0
 24 25  1  0
 25 26  1  0
 25 53  1  0
 25 54  1  0
 26 27  1  0
 26 55  1  0
 26 56  1  0
 27 28  2  0
 27 36  1  0
 28 29  1  0
 29 30  1  0
 29 31  1  0
 31 32  1  0
 31 36  2  0
 32 33  2  0
 32 57  1  0
 33 34  1  0
 33 58  1  0
 34 35  2  0
 34 59  1  0
 35 36  1  0
 35 60  1  0
M  END

