
     RDKit          3D

 36 38  0  0  0  0  0  0  0  0999 V2000
   -0.5138   -1.1637    0.1808 C   0  0  0  0  0  0  0  0  0  0  0  0
    0.8763   -1.0276    0.1914 C   0  0  0  0  0  0  0  0  0  0  0  0
    1.4292    0.2502    0.1202 C   0  0  0  0  0  0  0  0  0  0  0  0
    0.5657    1.3555    0.0401 C   0  0  0  0  0  0  0  0  0  0  0  0
    1.1223    2.7390   -0.0373 C   0  0  0  0  0  0  0  0  0  0  0  0
    0.2743    3.8372   -0.1161 C   0  0  0  0  0  0  0  0  0  0  0  0
    0.8736    5.1213   -0.1884 C   0  0  0  0  0  0  0  0  0  0  0  0
    0.1436    6.2721   -0.3084 N   0  0  0  0  0  0  0  0  0  0  0  0
    0.7923    7.5832   -0.2629 C   0  0  0  0  0  0  0  0  0  0  0  0
    0.8206    8.2133    1.1355 C   0  0  0  0  0  0  0  0  0  0  0  0
   -0.5334    8.2505    1.8615 C   0  0  0  0  0  0  0  0  0  0  0  0
   -1.0200    6.9144    2.1836 N   0  0  0  0  0  0  0  0  0  0  0  0
   -1.8713    6.2349    1.2254 C   0  0  0  0  0  0  0  0  0  0  0  0
   -1.3050    6.2786   -0.2120 C   0  0  0  0  0  0  0  0  0  0  0  0
    2.2173    5.2325   -0.1613 N   0  0  0  0  0  0  0  0  0  0  0  0
    2.9249    4.1103   -0.0842 C   0  0  0  0  0  0  0  0  0  0  0  0
    2.4656    2.8656   -0.0213 N   0  0  0  0  0  0  0  0  0  0  0  0
   -0.7696    1.2224    0.0299 N   0  0  0  0  0  0  0  0  0  0  0  0
   -1.2892   -0.0014    0.0984 C   0  0  0  0  0  0  0  0  0  0  0  0
   -0.9919   -2.1444    0.2347 H   0  0  0  0  0  0  0  0  0  0  0  0
    1.5223   -1.9073    0.2546 H   0  0  0  0  0  0  0  0  0  0  0  0
    2.5048    0.4263    0.1243 H   0  0  0  0  0  0  0  0  0  0  0  0
   -0.7995    3.6675   -0.1138 H   0  0  0  0  0  0  0  0  0  0  0  0
    0.2456    8.2421   -0.9607 H   0  0  0  0  0  0  0  0  0  0  0  0
    1.8161    7.4672   -0.6373 H   0  0  0  0  0  0  0  0  0  0  0  0
    1.2140    9.2415    1.0401 H   0  0  0  0  0  0  0  0  0  0  0  0
    1.5262    7.6484    1.7659 H   0  0  0  0  0  0  0  0  0  0  0  0
   -1.2676    8.8480    1.2742 H   0  0  0  0  0  0  0  0  0  0  0  0
   -0.3960    8.7967    2.8086 H   0  0  0  0  0  0  0  0  0  0  0  0
   -1.4306    6.8773    3.1111 H   0  0  0  0  0  0  0  0  0  0  0  0
   -2.9058    6.6473    1.1649 H   0  0  0  0  0  0  0  0  0  0  0  0
   -1.9734    5.1872    1.5554 H   0  0  0  0  0  0  0  0  0  0  0  0
   -1.6448    7.2007   -0.7074 H   0  0  0  0  0  0  0  0  0  0  0  0
   -1.7337    5.4491   -0.7953 H   0  0  0  0  0  0  0  0  0  0  0  0
    4.0163    4.2308   -0.0669 H   0  0  0  0  0  0  0  0  0  0  0  0
   -2.3839   -0.0695    0.0874 H   0  0  0  0  0  0  0  0  0  0  0  0
  1  2  2  0
  1 19  1  0
  1 20  1  0
  2  3  1  0
  2 21  1  0
  3  4  2  0
  3 22  1  0
  4  5  1  0
  4 18  1  0
  5  6  2  0
  5 17  1  0
  6  7  1  0
  6 23  1  0
  7  8  1  0
  7 15  2  0
  8  9  1  0
  8 14  1  0
  9 10  1  0
  9 24  1  0
  9 25  1  0
 10 11  1  0
 10 26  1  0
 10 27  1  0
 11 12  1  0
 11 28  1  0
 11 29  1  0
 12 13  1  0
 12 30  1  0
 13 14  1  0
 13 31  1  0
 13 32  1  0
 14 33  1  0
 14 34  1  0
 15 16  1  0
 16 17  2  0
 16 35  1  0
 18 19  2  0
 19 36  1  0
M  END

