
     RDKit          3D

 72 76  0  0  0  0  0  0  0  0999 V2000
    3.4124    0.9613    2.6277 C   0  0  0  0  0  0  0  0  0  0  0  0
    2.8054   -0.2780    1.9658 C   0  0  0  0  0  0  0  0  0  0  0  0
    3.6593   -0.8983    0.8506 C   0  0  0  0  0  0  0  0  0  0  0  0
    5.0841   -1.3317    1.2630 C   0  0  0  0  0  0  0  0  0  0  0  0
    5.1625   -2.3064    2.3995 C   0  0  0  0  0  0  0  0  0  0  0  0
    5.3467   -1.9545    3.6632 N   0  0  0  0  0  0  0  0  0  0  0  0
    5.3703   -3.1122    4.3629 C   0  0  0  0  0  0  0  0  0  0  0  0
    5.6125   -3.1443    6.0825 Cl  0  0  0  0  0  0  0  0  0  0  0  0
    5.1951   -4.2142    3.5488 C   0  0  0  0  0  0  0  0  0  0  0  0
    5.1955   -5.6792    3.8424 C   0  0  0  0  0  0  0  0  0  0  0  0
    6.2582   -6.4052    3.2396 O   0  0  0  0  0  0  0  0  0  0  0  0
    7.5477   -6.0624    3.7235 C   0  0  0  0  0  0  0  0  0  0  0  0
    8.5640   -6.9933    3.0986 C   0  0  0  0  0  0  0  0  0  0  0  0
    8.8323   -8.1983    3.7644 C   0  0  0  0  0  0  0  0  0  0  0  0
    9.7448   -9.1288    3.2665 C   0  0  0  0  0  0  0  0  0  0  0  0
   10.4263   -8.8606    2.0771 C   0  0  0  0  0  0  0  0  0  0  0  0
   10.1834   -7.6670    1.4012 C   0  0  0  0  0  0  0  0  0  0  0  0
    9.2496   -6.7321    1.8869 C   0  0  0  0  0  0  0  0  0  0  0  0
    9.0063   -5.4849    1.0949 C   0  0  0  0  0  0  0  0  0  0  0  0
    8.0459   -4.7525    1.1955 O   0  0  0  0  0  0  0  0  0  0  0  0
    9.9960   -5.2452    0.2110 O   0  0  0  0  0  0  0  0  0  0  0  0
    9.8456   -4.0912   -0.6129 C   0  0  0  0  0  0  0  0  0  0  0  0
    5.0567   -3.6701    2.2763 N   0  0  0  0  0  0  0  0  0  0  0  0
    4.8948   -4.4489    1.0583 C   0  0  0  0  0  0  0  0  0  0  0  0
    3.4582   -4.7752    0.6823 C   0  0  0  0  0  0  0  0  0  0  0  0
    2.3696   -4.5313    1.5274 C   0  0  0  0  0  0  0  0  0  0  0  0
    1.0788   -4.8933    1.1380 C   0  0  0  0  0  0  0  0  0  0  0  0
    0.8138   -5.5022   -0.0993 C   0  0  0  0  0  0  0  0  0  0  0  0
   -0.5825   -5.9356   -0.3957 C   0  0  0  0  0  0  0  0  0  0  0  0
   -1.6443   -5.0186   -0.3229 C   0  0  0  0  0  0  0  0  0  0  0  0
   -2.9608   -5.4296   -0.5461 C   0  0  0  0  0  0  0  0  0  0  0  0
   -3.2394   -6.7675   -0.8374 C   0  0  0  0  0  0  0  0  0  0  0  0
   -2.1920   -7.6918   -0.9030 C   0  0  0  0  0  0  0  0  0  0  0  0
   -0.8766   -7.2796   -0.6852 C   0  0  0  0  0  0  0  0  0  0  0  0
    1.9101   -5.7132   -0.9736 C   0  0  0  0  0  0  0  0  0  0  0  0
    1.7560   -6.2467   -2.3404 C   0  0  0  0  0  0  0  0  0  0  0  0
    0.6902   -6.0160   -3.1620 N   0  0  0  0  0  0  0  0  0  0  0  0
    0.9545   -6.5919   -4.2951 N   0  0  0  0  0  0  0  0  0  0  0  0
    2.1490   -7.1443   -4.1483 N   0  0  0  0  0  0  0  0  0  0  0  0
    2.5993   -7.6700   -4.8921 H   0  0  0  0  0  0  0  0  0  0  0  0
    2.6959   -6.9642   -2.9599 N   0  0  0  0  0  0  0  0  0  0  0  0
    3.2056   -5.3610   -0.5628 C   0  0  0  0  0  0  0  0  0  0  0  0
    2.6985    1.4213    3.3298 H   0  0  0  0  0  0  0  0  0  0  0  0
    3.6819    1.7279    1.8804 H   0  0  0  0  0  0  0  0  0  0  0  0
    4.3159    0.7048    3.2019 H   0  0  0  0  0  0  0  0  0  0  0  0
    1.8214   -0.0234    1.5340 H   0  0  0  0  0  0  0  0  0  0  0  0
    2.6066   -1.0377    2.7418 H   0  0  0  0  0  0  0  0  0  0  0  0
    3.7607   -0.1724    0.0235 H   0  0  0  0  0  0  0  0  0  0  0  0
    3.1224   -1.7652    0.4293 H   0  0  0  0  0  0  0  0  0  0  0  0
    5.6641   -0.4514    1.5758 H   0  0  0  0  0  0  0  0  0  0  0  0
    5.5996   -1.7447    0.3798 H   0  0  0  0  0  0  0  0  0  0  0  0
    4.2783   -6.1609    3.4673 H   0  0  0  0  0  0  0  0  0  0  0  0
    5.2121   -5.7952    4.9423 H   0  0  0  0  0  0  0  0  0  0  0  0
    7.5756   -6.1951    4.8231 H   0  0  0  0  0  0  0  0  0  0  0  0
    7.7799   -5.0088    3.5076 H   0  0  0  0  0  0  0  0  0  0  0  0
    8.3074   -8.4053    4.7007 H   0  0  0  0  0  0  0  0  0  0  0  0
    9.9263  -10.0599    3.8094 H   0  0  0  0  0  0  0  0  0  0  0  0
   11.1477   -9.5775    1.6776 H   0  0  0  0  0  0  0  0  0  0  0  0
   10.7133   -7.4453    0.4751 H   0  0  0  0  0  0  0  0  0  0  0  0
   10.7428   -4.0469   -1.2426 H   0  0  0  0  0  0  0  0  0  0  0  0
    9.7634   -3.1807   -0.0005 H   0  0  0  0  0  0  0  0  0  0  0  0
    8.9444   -4.1707   -1.2403 H   0  0  0  0  0  0  0  0  0  0  0  0
    5.4755   -5.3734    1.1913 H   0  0  0  0  0  0  0  0  0  0  0  0
    5.3851   -3.9070    0.2373 H   0  0  0  0  0  0  0  0  0  0  0  0
    2.5264   -4.0635    2.5018 H   0  0  0  0  0  0  0  0  0  0  0  0
    0.2471   -4.7265    1.8263 H   0  0  0  0  0  0  0  0  0  0  0  0
   -1.4317   -3.9685   -0.1071 H   0  0  0  0  0  0  0  0  0  0  0  0
   -3.7722   -4.6988   -0.4961 H   0  0  0  0  0  0  0  0  0  0  0  0
   -4.2692   -7.0900   -1.0112 H   0  0  0  0  0  0  0  0  0  0  0  0
   -2.4013   -8.7423   -1.1215 H   0  0  0  0  0  0  0  0  0  0  0  0
   -0.0653   -8.0109   -0.7253 H   0  0  0  0  0  0  0  0  0  0  0  0
    4.0317   -5.5376   -1.2561 H   0  0  0  0  0  0  0  0  0  0  0  0
  1  2  1  0
  1 43  1  0
  1 44  1  0
  1 45  1  0
  2  3  1  0
  2 46  1  0
  2 47  1  0
  3  4  1  0
  3 48  1  0
  3 49  1  0
  4  5  1  0
  4 50  1  0
  4 51  1  0
  5  6  2  0
  5 23  1  0
  6  7  1  0
  7  8  1  0
  7  9  2  0
  9 10  1  0
  9 23  1  0
 10 11  1  0
 10 52  1  0
 10 53  1  0
 11 12  1  0
 12 13  1  0
 12 54  1  0
 12 55  1  0
 13 14  2  0
 13 18  1  0
 14 15  1  0
 14 56  1  0
 15 16  2  0
 15 57  1  0
 16 17  1  0
 16 58  1  0
 17 18  2  0
 17 59  1  0
 18 19  1  0
 19 20  2  0
 19 21  1  0
 21 22  1  0
 22 60  1  0
 22 61  1  0
 22 62  1  0
 23 24  1  0
 24 25  1  0
 24 63  1  0
 24 64  1  0
 25 26  2  0
 25 42  1  0
 26 27  1  0
 26 65  1  0
 27 28  2  0
 27 66  1  0
 28 29  1  0
 28 35  1  0
 29 30  2  0
 29 34  1  0
 30 31  1  0
 30 67  1  0
 31 32  2  0
 31 68  1  0
 32 33  1  0
 32 69  1  0
 33 34  2  0
 33 70  1  0
 34 71  1  0
 35 36  1  0
 35 42  2  0
 36 37  1  0
 36 41  2  0
 37 38  2  0
 38 39  1  0
 39 40  1  0
 39 41  1  0
 42 72  1  0
M  END

