
     RDKit          3D

 47 47  0  0  0  0  0  0  0  0999 V2000
    1.3178    0.8588    3.2234 C   0  0  0  0  0  0  0  0  0  0  0  0
    1.8421   -0.5070    2.8095 C   0  0  1  0  0  0  0  0  0  0  0  0
    0.8287   -1.3583    2.0565 C   0  0  0  0  0  0  0  0  0  0  0  0
    3.0020   -0.2665    1.9609 O   0  0  0  0  0  0  0  0  0  0  0  0
    4.2424   -1.3074    1.9359 P   0  0  1  0  0  0  0  0  0  0  0  0
    3.8824   -2.7521    1.8555 O   0  0  0  0  0  0  0  0  0  0  0  0
    5.1303   -0.7482    0.7114 O   0  0  0  0  0  0  0  0  0  0  0  0
    4.9230   -1.2366   -0.6511 C   0  0  1  0  0  0  0  0  0  0  0  0
    4.0941   -0.2096   -1.4110 C   0  0  0  0  0  0  0  0  0  0  0  0
    6.2959   -1.4869   -1.2550 C   0  0  0  0  0  0  0  0  0  0  0  0
    5.3214   -0.7525    3.6588 S   0  0  0  0  0  0  0  0  0  0  0  0
    6.4385   -2.2184    3.7557 C   0  0  0  0  0  0  0  0  0  0  0  0
    7.7018   -2.0294    2.9163 C   0  0  0  0  0  0  0  0  0  0  0  0
    8.5198   -3.2402    3.0088 N   0  0  0  0  0  0  0  0  0  0  0  0
    9.2513   -3.7490    1.7801 S   0  0  1  0  0  0  0  0  0  0  0  0
    8.6454   -3.9344    0.4442 O   0  0  0  0  0  0  0  0  0  0  0  0
   10.5577   -2.7459    1.4793 O   0  0  0  0  0  0  0  0  0  0  0  0
   10.0486   -5.2568    2.2963 C   0  0  0  0  0  0  0  0  0  0  0  0
   10.1741   -6.2779    1.3516 C   0  0  0  0  0  0  0  0  0  0  0  0
   10.8192   -7.4616    1.7219 C   0  0  0  0  0  0  0  0  0  0  0  0
   11.3267   -7.6087    3.0158 C   0  0  0  0  0  0  0  0  0  0  0  0
   11.1887   -6.5748    3.9503 C   0  0  0  0  0  0  0  0  0  0  0  0
   10.5467   -5.3874    3.5967 C   0  0  0  0  0  0  0  0  0  0  0  0
    0.4461    0.7490    3.8873 H   0  0  0  0  0  0  0  0  0  0  0  0
    1.0109    1.4379    2.3380 H   0  0  0  0  0  0  0  0  0  0  0  0
    2.0941    1.4275    3.7567 H   0  0  0  0  0  0  0  0  0  0  0  0
    2.1838   -1.0538    3.7060 H   0  0  0  0  0  0  0  0  0  0  0  0
    0.4847   -0.8370    1.1485 H   0  0  0  0  0  0  0  0  0  0  0  0
   -0.0478   -1.5600    2.6929 H   0  0  0  0  0  0  0  0  0  0  0  0
    1.2820   -2.3173    1.7681 H   0  0  0  0  0  0  0  0  0  0  0  0
    4.3738   -2.1897   -0.5806 H   0  0  0  0  0  0  0  0  0  0  0  0
    4.6255    0.7541   -1.4613 H   0  0  0  0  0  0  0  0  0  0  0  0
    3.1276   -0.0431   -0.9132 H   0  0  0  0  0  0  0  0  0  0  0  0
    3.9030   -0.5566   -2.4390 H   0  0  0  0  0  0  0  0  0  0  0  0
    6.8851   -0.5556   -1.2661 H   0  0  0  0  0  0  0  0  0  0  0  0
    6.1906   -1.8403   -2.2932 H   0  0  0  0  0  0  0  0  0  0  0  0
    6.8516   -2.2494   -0.6888 H   0  0  0  0  0  0  0  0  0  0  0  0
    5.8712   -3.0998    3.4253 H   0  0  0  0  0  0  0  0  0  0  0  0
    6.6838   -2.3431    4.8208 H   0  0  0  0  0  0  0  0  0  0  0  0
    8.2678   -1.1588    3.2929 H   0  0  0  0  0  0  0  0  0  0  0  0
    7.4034   -1.7919    1.8816 H   0  0  0  0  0  0  0  0  0  0  0  0
   10.7198   -2.7669    0.5205 H   0  0  0  0  0  0  0  0  0  0  0  0
    9.7579   -6.1433    0.3517 H   0  0  0  0  0  0  0  0  0  0  0  0
   10.9191   -8.2724    0.9965 H   0  0  0  0  0  0  0  0  0  0  0  0
   11.8293   -8.5361    3.3014 H   0  0  0  0  0  0  0  0  0  0  0  0
   11.5812   -6.6954    4.9629 H   0  0  0  0  0  0  0  0  0  0  0  0
   10.4140   -4.5741    4.3108 H   0  0  0  0  0  0  0  0  0  0  0  0
  1  2  1  0
  1 24  1  0
  1 25  1  0
  1 26  1  0
  2  3  1  0
  2  4  1  0
  2 27  1  1
  3 28  1  0
  3 29  1  0
  3 30  1  0
  5  4  1  1
  5  6  2  0
  5  7  1  0
  5 11  1  0
  7  8  1  0
  8  9  1  0
  8 10  1  0
  8 31  1  1
  9 32  1  0
  9 33  1  0
  9 34  1  0
 10 35  1  0
 10 36  1  0
 10 37  1  0
 11 12  1  0
 12 13  1  0
 12 38  1  0
 12 39  1  0
 13 14  1  0
 13 40  1  0
 13 41  1  0
 14 15  2  0
 15 16  2  0
 15 17  1  6
 15 18  1  0
 17 42  1  0
 18 19  2  0
 18 23  1  0
 19 20  1  0
 19 43  1  0
 20 21  2  0
 20 44  1  0
 21 22  1  0
 21 45  1  0
 22 23  2  0
 22 46  1  0
 23 47  1  0
M  END

