
     RDKit          3D

 36 38  0  0  0  0  0  0  0  0999 V2000
    1.2911    0.0255    0.7137 C   0  0  0  0  0  0  0  0  0  0  0  0
    2.4207    0.0115   -0.1318 O   0  0  0  0  0  0  0  0  0  0  0  0
    2.9340   -1.1744   -0.5315 C   0  0  0  0  0  0  0  0  0  0  0  0
    4.0743   -1.0783   -1.3840 C   0  0  0  0  0  0  0  0  0  0  0  0
    4.6864   -2.2107   -1.8583 C   0  0  0  0  0  0  0  0  0  0  0  0
    4.2035   -3.5094   -1.5145 C   0  0  0  0  0  0  0  0  0  0  0  0
    4.8175   -4.6913   -1.9911 C   0  0  0  0  0  0  0  0  0  0  0  0
    4.3323   -5.9522   -1.6444 C   0  0  0  0  0  0  0  0  0  0  0  0
    4.9571   -7.1381   -2.1291 C   0  0  0  0  0  0  0  0  0  0  0  0
    5.4861   -8.1594   -2.5390 C   0  0  0  0  0  0  0  0  0  0  0  0
    6.1049   -9.3490   -3.0182 C   0  0  0  0  0  0  0  0  0  0  0  0
    7.2403   -9.2820   -3.8599 C   0  0  0  0  0  0  0  0  0  0  0  0
    7.8464  -10.4420   -4.3292 C   0  0  0  0  0  0  0  0  0  0  0  0
    7.3176  -11.6804   -3.9573 C   0  0  0  0  0  0  0  0  0  0  0  0
    7.9583  -12.9120   -4.4534 N   0  0  0  0  0  0  0  0  0  0  0  0
    8.9353  -12.7894   -5.1762 O   0  0  0  0  0  0  0  0  0  0  0  0
    7.4722  -13.9792   -4.1118 O   0  0  0  0  0  0  0  0  0  0  0  0
    6.1981  -11.7833   -3.1281 C   0  0  0  0  0  0  0  0  0  0  0  0
    5.5958  -10.6202   -2.6616 C   0  0  0  0  0  0  0  0  0  0  0  0
    3.1889   -6.0383   -0.7884 C   0  0  0  0  0  0  0  0  0  0  0  0
    2.5773   -4.9013   -0.3143 C   0  0  0  0  0  0  0  0  0  0  0  0
    3.0577   -3.6045   -0.6567 C   0  0  0  0  0  0  0  0  0  0  0  0
    2.4373   -2.4189   -0.1754 C   0  0  0  0  0  0  0  0  0  0  0  0
    1.0530    1.0808    0.9015 H   0  0  0  0  0  0  0  0  0  0  0  0
    1.4962   -0.4746    1.6771 H   0  0  0  0  0  0  0  0  0  0  0  0
    0.4197   -0.4601    0.2390 H   0  0  0  0  0  0  0  0  0  0  0  0
    4.4350   -0.0801   -1.6399 H   0  0  0  0  0  0  0  0  0  0  0  0
    5.5595   -2.1274   -2.5108 H   0  0  0  0  0  0  0  0  0  0  0  0
    5.6897   -4.6113   -2.6440 H   0  0  0  0  0  0  0  0  0  0  0  0
    7.6391   -8.3055   -4.1398 H   0  0  0  0  0  0  0  0  0  0  0  0
    8.7213  -10.4099   -4.9780 H   0  0  0  0  0  0  0  0  0  0  0  0
    5.8201  -12.7706   -2.8642 H   0  0  0  0  0  0  0  0  0  0  0  0
    4.7203  -10.6807   -2.0129 H   0  0  0  0  0  0  0  0  0  0  0  0
    2.8082   -7.0248   -0.5165 H   0  0  0  0  0  0  0  0  0  0  0  0
    1.7044   -4.9849    0.3388 H   0  0  0  0  0  0  0  0  0  0  0  0
    1.5686   -2.5173    0.4759 H   0  0  0  0  0  0  0  0  0  0  0  0
  1  2  1  0
  1 24  1  0
  1 25  1  0
  1 26  1  0
  2  3  1  0
  3  4  2  0
  3 23  1  0
  4  5  1  0
  4 27  1  0
  5  6  2  0
  5 28  1  0
  6  7  1  0
  6 22  1  0
  7  8  2  0
  7 29  1  0
  8  9  1  0
  8 20  1  0
  9 10  3  0
 10 11  1  0
 11 12  2  0
 11 19  1  0
 12 13  1  0
 12 30  1  0
 13 14  2  0
 13 31  1  0
 14 15  1  0
 14 18  1  0
 15 16  2  0
 15 17  1  0
 18 19  2  0
 18 32  1  0
 19 33  1  0
 20 21  2  0
 20 34  1  0
 21 22  1  0
 21 35  1  0
 22 23  2  0
 23 36  1  0
M  CHG  2  15   1  17  -1
M  END

