
     RDKit          3D

 52 55  0  0  0  0  0  0  0  0999 V2000
    0.7850   -1.3580   -1.9826 C   0  0  0  0  0  0  0  0  0  0  0  0
    2.0221   -1.5637   -1.1019 C   0  0  1  0  0  0  0  0  0  0  0  0
    2.5908   -2.9711   -1.2213 C   0  0  0  0  0  0  0  0  0  0  0  0
    3.0544   -0.4013   -1.3565 C   0  0  2  0  0  0  0  0  0  0  0  0
    2.9559   -0.0572   -2.3966 H   0  0  0  0  0  0  0  0  0  0  0  0
    4.5182   -0.8274   -1.2101 C   0  0  0  0  0  0  0  0  0  0  0  0
    5.1279   -1.3490   -2.1106 O   0  0  0  0  0  0  0  0  0  0  0  0
    5.0097   -0.5720    0.0073 O   0  0  0  0  0  0  0  0  0  0  0  0
    6.4184   -0.8650    0.2463 C   0  0  1  0  0  0  0  0  0  0  0  0
    7.2433    0.3380   -0.1755 C   0  0  0  0  0  0  0  0  0  0  0  0
    7.1271    1.5579    0.5103 C   0  0  0  0  0  0  0  0  0  0  0  0
    7.8605    2.6721    0.1006 C   0  0  0  0  0  0  0  0  0  0  0  0
    8.7241    2.5798   -0.9976 C   0  0  0  0  0  0  0  0  0  0  0  0
    8.8441    1.3705   -1.6860 C   0  0  0  0  0  0  0  0  0  0  0  0
    8.1010    0.2568   -1.2799 C   0  0  0  0  0  0  0  0  0  0  0  0
    6.5768   -1.2869    1.7005 C   0  0  0  0  0  0  0  0  0  0  0  0
    5.4991   -1.8110    2.4309 C   0  0  0  0  0  0  0  0  0  0  0  0
    5.6905   -2.2553    3.7441 C   0  0  0  0  0  0  0  0  0  0  0  0
    6.9522   -2.1922    4.3402 C   0  0  0  0  0  0  0  0  0  0  0  0
    8.0305   -1.6785    3.6132 C   0  0  0  0  0  0  0  0  0  0  0  0
    7.8436   -1.2272    2.3046 C   0  0  0  0  0  0  0  0  0  0  0  0
    2.6721    0.6813   -0.4787 N   0  0  0  0  0  0  0  0  0  0  0  0
    1.7897    1.7422   -0.6857 C   0  0  0  0  0  0  0  0  0  0  0  0
    1.5203    2.3878   -1.6608 O   0  0  0  0  0  0  0  0  0  0  0  0
    1.2750    1.6399    0.7730 C   0  0  1  0  0  0  0  0  0  0  0  0
    1.6704    2.4454    1.4156 H   0  0  0  0  0  0  0  0  0  0  0  0
   -0.2343    1.5105    0.9645 C   0  0  0  0  0  0  0  0  0  0  0  0
   -0.5742    1.1025    2.2681 O   0  0  0  0  0  0  0  0  0  0  0  0
    2.1603    0.3652    0.8383 C   0  0  1  0  0  0  0  0  0  0  0  0
    2.8949    0.2567    1.6495 H   0  0  0  0  0  0  0  0  0  0  0  0
    1.4038   -1.3720    0.7325 S   0  0  0  0  0  0  0  0  0  0  0  0
    2.2736   -2.2319    1.6263 O   0  0  0  0  0  0  0  0  0  0  0  0
    1.0475   -1.5339   -3.0389 H   0  0  0  0  0  0  0  0  0  0  0  0
    0.3795   -0.3361   -1.9147 H   0  0  0  0  0  0  0  0  0  0  0  0
   -0.0155   -2.0625   -1.7108 H   0  0  0  0  0  0  0  0  0  0  0  0
    3.0824   -3.0976   -2.1978 H   0  0  0  0  0  0  0  0  0  0  0  0
    1.7908   -3.7217   -1.1321 H   0  0  0  0  0  0  0  0  0  0  0  0
    3.3259   -3.1722   -0.4292 H   0  0  0  0  0  0  0  0  0  0  0  0
    6.6792   -1.7108   -0.4078 H   0  0  0  0  0  0  0  0  0  0  0  0
    6.4594    1.6291    1.3725 H   0  0  0  0  0  0  0  0  0  0  0  0
    7.7622    3.6171    0.6410 H   0  0  0  0  0  0  0  0  0  0  0  0
    9.3009    3.4521   -1.3158 H   0  0  0  0  0  0  0  0  0  0  0  0
    9.5123    1.2930   -2.5474 H   0  0  0  0  0  0  0  0  0  0  0  0
    8.1794   -0.6830   -1.8323 H   0  0  0  0  0  0  0  0  0  0  0  0
    4.5025   -1.8820    1.9899 H   0  0  0  0  0  0  0  0  0  0  0  0
    4.8377   -2.6565    4.2976 H   0  0  0  0  0  0  0  0  0  0  0  0
    7.0967   -2.5416    5.3659 H   0  0  0  0  0  0  0  0  0  0  0  0
    9.0235   -1.6240    4.0670 H   0  0  0  0  0  0  0  0  0  0  0  0
    8.6924   -0.8220    1.7492 H   0  0  0  0  0  0  0  0  0  0  0  0
   -0.7100    2.4676    0.6760 H   0  0  0  0  0  0  0  0  0  0  0  0
   -0.6371    0.7405    0.2874 H   0  0  0  0  0  0  0  0  0  0  0  0
   -0.3523    1.8136    2.8838 H   0  0  0  0  0  0  0  0  0  0  0  0
  2  1  1  6
  1 33  1  0
  1 34  1  0
  1 35  1  0
  2  3  1  0
  2  4  1  0
  2 31  1  0
  3 36  1  0
  3 37  1  0
  3 38  1  0
  4  5  1  6
  4  6  1  0
  4 22  1  0
  6  7  2  0
  6  8  1  0
  8  9  1  0
  9 10  1  0
  9 16  1  0
  9 39  1  6
 10 11  2  0
 10 15  1  0
 11 12  1  0
 11 40  1  0
 12 13  2  0
 12 41  1  0
 13 14  1  0
 13 42  1  0
 14 15  2  0
 14 43  1  0
 15 44  1  0
 16 17  2  0
 16 21  1  0
 17 18  1  0
 17 45  1  0
 18 19  2  0
 18 46  1  0
 19 20  1  0
 19 47  1  0
 20 21  2  0
 20 48  1  0
 21 49  1  0
 22 23  1  0
 22 29  1  0
 23 24  2  0
 23 25  1  0
 25 26  1  1
 25 27  1  0
 25 29  1  0
 27 28  1  0
 27 50  1  0
 27 51  1  0
 28 52  1  0
 29 30  1  1
 29 31  1  0
 31 32  1  1
M  CHG  2  31   1  32  -1
M  END

