
     RDKit          3D

 63 67  0  0  0  0  0  0  0  0999 V2000
    8.5152    2.4464   -1.2197 C   0  0  0  0  0  0  0  0  0  0  0  0
    7.5188    1.3919   -0.7177 C   0  0  1  0  0  0  0  0  0  0  0  0
    7.8773    1.0578    0.2727 H   0  0  0  0  0  0  0  0  0  0  0  0
    6.0747    1.8999   -0.5224 C   0  0  0  0  0  0  0  0  0  0  0  0
    5.2486    2.0409   -1.8207 C   0  0  1  0  0  0  0  0  0  0  0  0
    4.1867    2.0749   -1.5169 H   0  0  0  0  0  0  0  0  0  0  0  0
    5.5169    3.3218   -2.6224 C   0  0  0  0  0  0  0  0  0  0  0  0
    5.4037    0.7600   -2.6628 C   0  0  0  0  0  0  0  0  0  0  0  0
    6.7988    0.3534   -2.8642 N   0  0  0  0  0  0  0  0  0  0  0  0
    7.3823    0.3993   -4.1068 C   0  0  0  0  0  0  0  0  0  0  0  0
    6.7753    1.2031   -5.0061 N   0  0  0  0  0  0  0  0  0  0  0  0
    7.3140    1.3971   -6.1927 C   0  0  0  0  0  0  0  0  0  0  0  0
    6.6843    2.2546   -7.1516 C   0  0  0  0  0  0  0  0  0  0  0  0
    7.2642    2.5038   -8.3677 C   0  0  0  0  0  0  0  0  0  0  0  0
    8.5103    1.8986   -8.6961 C   0  0  0  0  0  0  0  0  0  0  0  0
    9.0996    1.0671   -7.7876 C   0  0  0  0  0  0  0  0  0  0  0  0
    8.5193    0.8158   -6.5670 N   0  0  0  0  0  0  0  0  0  0  0  0
    9.1911   -0.1603   -5.7007 C   0  0  0  0  0  0  0  0  0  0  0  0
   10.1629   -0.7357   -6.1527 O   0  0  0  0  0  0  0  0  0  0  0  0
    8.5423   -0.3625   -4.4302 C   0  0  0  0  0  0  0  0  0  0  0  0
    8.9317   -1.5200   -3.6431 C   0  0  0  0  0  0  0  0  0  0  0  0
   10.1813   -2.0087   -3.4207 C   0  0  0  0  0  0  0  0  0  0  0  0
   10.5106   -3.6060   -2.7378 S   0  0  0  0  0  0  0  0  0  0  0  0
   12.2685   -3.3764   -2.8225 C   0  0  0  0  0  0  0  0  0  0  0  0
   13.2993   -4.5709   -2.3529 S   0  0  0  0  0  0  0  0  0  0  0  0
   12.5573   -2.1201   -3.3023 N   0  0  0  0  0  0  0  0  0  0  0  0
   13.9261   -1.5603   -3.4786 C   0  0  2  0  0  0  0  0  0  0  0  0
   13.7061   -0.5594   -3.8745 H   0  0  0  0  0  0  0  0  0  0  0  0
   14.7167   -2.3128   -4.5504 C   0  0  0  0  0  0  0  0  0  0  0  0
   14.6293   -1.3404   -2.1400 C   0  0  0  0  0  0  0  0  0  0  0  0
   14.1349   -0.3425   -1.2824 C   0  0  0  0  0  0  0  0  0  0  0  0
   14.7496   -0.0806   -0.0564 C   0  0  0  0  0  0  0  0  0  0  0  0
   15.8810   -0.8069    0.3291 C   0  0  0  0  0  0  0  0  0  0  0  0
   16.3873   -1.7931   -0.5207 C   0  0  0  0  0  0  0  0  0  0  0  0
   15.7647   -2.0596   -1.7444 C   0  0  0  0  0  0  0  0  0  0  0  0
   11.4549   -1.2744   -3.5928 C   0  0  0  0  0  0  0  0  0  0  0  0
   11.5820   -0.0985   -3.8607 O   0  0  0  0  0  0  0  0  0  0  0  0
    7.5203    0.1313   -1.6085 C   0  0  0  0  0  0  0  0  0  0  0  0
    8.4733    3.3559   -0.5992 H   0  0  0  0  0  0  0  0  0  0  0  0
    8.3241    2.7455   -2.2603 H   0  0  0  0  0  0  0  0  0  0  0  0
    9.5453    2.0576   -1.1782 H   0  0  0  0  0  0  0  0  0  0  0  0
    6.0806    2.8549    0.0300 H   0  0  0  0  0  0  0  0  0  0  0  0
    5.5532    1.1751    0.1283 H   0  0  0  0  0  0  0  0  0  0  0  0
    6.5029    3.3208   -3.1059 H   0  0  0  0  0  0  0  0  0  0  0  0
    5.4540    4.2096   -1.9722 H   0  0  0  0  0  0  0  0  0  0  0  0
    4.7698    3.4371   -3.4236 H   0  0  0  0  0  0  0  0  0  0  0  0
    4.9292    0.8747   -3.6432 H   0  0  0  0  0  0  0  0  0  0  0  0
    4.9031   -0.0727   -2.1327 H   0  0  0  0  0  0  0  0  0  0  0  0
    5.7347    2.6974   -6.8510 H   0  0  0  0  0  0  0  0  0  0  0  0
    6.7732    3.1664   -9.0845 H   0  0  0  0  0  0  0  0  0  0  0  0
    8.9965    2.0830   -9.6546 H   0  0  0  0  0  0  0  0  0  0  0  0
   10.0393    0.5358   -7.9380 H   0  0  0  0  0  0  0  0  0  0  0  0
    8.0958   -2.1018   -3.2338 H   0  0  0  0  0  0  0  0  0  0  0  0
   15.6669   -1.7894   -4.7361 H   0  0  0  0  0  0  0  0  0  0  0  0
   14.1458   -2.3259   -5.4913 H   0  0  0  0  0  0  0  0  0  0  0  0
   14.9334   -3.3495   -4.2636 H   0  0  0  0  0  0  0  0  0  0  0  0
   13.2622    0.2410   -1.5891 H   0  0  0  0  0  0  0  0  0  0  0  0
   14.3500    0.7003    0.5962 H   0  0  0  0  0  0  0  0  0  0  0  0
   16.3675   -0.6019    1.2863 H   0  0  0  0  0  0  0  0  0  0  0  0
   17.2710   -2.3667   -0.2288 H   0  0  0  0  0  0  0  0  0  0  0  0
   16.1658   -2.8433   -2.3878 H   0  0  0  0  0  0  0  0  0  0  0  0
    8.5522   -0.1675   -1.8190 H   0  0  0  0  0  0  0  0  0  0  0  0
    7.0402   -0.7032   -1.0645 H   0  0  0  0  0  0  0  0  0  0  0  0
  1  2  1  0
  1 39  1  0
  1 40  1  0
  1 41  1  0
  2  3  1  1
  2  4  1  0
  2 38  1  0
  4  5  1  0
  4 42  1  0
  4 43  1  0
  5  6  1  1
  5  7  1  0
  5  8  1  0
  7 44  1  0
  7 45  1  0
  7 46  1  0
  8  9  1  0
  8 47  1  0
  8 48  1  0
  9 10  1  0
  9 38  1  0
 10 11  1  0
 10 20  2  0
 11 12  2  0
 12 13  1  0
 12 17  1  0
 13 14  2  0
 13 49  1  0
 14 15  1  0
 14 50  1  0
 15 16  2  0
 15 51  1  0
 16 17  1  0
 16 52  1  0
 17 18  1  0
 18 19  2  0
 18 20  1  0
 20 21  1  0
 21 22  2  0
 21 53  1  0
 22 23  1  0
 22 36  1  0
 23 24  1  0
 24 25  2  0
 24 26  1  0
 26 27  1  0
 26 36  1  0
 27 28  1  6
 27 29  1  0
 27 30  1  0
 29 54  1  0
 29 55  1  0
 29 56  1  0
 30 31  2  0
 30 35  1  0
 31 32  1  0
 31 57  1  0
 32 33  2  0
 32 58  1  0
 33 34  1  0
 33 59  1  0
 34 35  2  0
 34 60  1  0
 35 61  1  0
 36 37  2  0
 38 62  1  0
 38 63  1  0
M  END

