
     RDKit          3D

 58 63  0  0  0  0  0  0  0  0999 V2000
    4.4345   -1.1011   -2.4402 O   0  0  0  0  0  0  0  0  0  0  0  0
    4.2948   -0.5957   -1.3358 C   0  0  0  0  0  0  0  0  0  0  0  0
    3.1433   -1.0617   -0.4251 C   0  0  0  0  0  0  0  0  0  0  0  0
    2.1642   -1.8424   -1.1500 N   0  0  0  0  0  0  0  0  0  0  0  0
    2.3877   -3.0815   -1.7508 C   0  0  0  0  0  0  0  0  0  0  0  0
    1.3109   -3.6109   -2.3804 C   0  0  0  0  0  0  0  0  0  0  0  0
   -0.0889   -2.5567   -2.2454 S   0  0  0  0  0  0  0  0  0  0  0  0
    0.8777   -1.3378   -1.3262 C   0  0  0  0  0  0  0  0  0  0  0  0
    0.4701   -0.2756   -0.9169 O   0  0  0  0  0  0  0  0  0  0  0  0
    1.3767   -4.9927   -2.9792 C   0  0  2  0  0  0  0  0  0  0  0  0
    0.1836   -5.4239   -3.7825 C   0  0  0  0  0  0  0  0  0  0  0  0
   -1.0999   -5.8241   -3.5174 C   0  0  0  0  0  0  0  0  0  0  0  0
   -1.7257   -6.0454   -4.7886 C   0  0  0  0  0  0  0  0  0  0  0  0
   -0.7795   -5.7632   -5.7310 C   0  0  0  0  0  0  0  0  0  0  0  0
    0.3779   -5.3876   -5.1361 O   0  0  0  0  0  0  0  0  0  0  0  0
    1.8537   -5.9729   -1.8605 C   0  0  2  0  0  0  0  0  0  0  0  0
    0.9559   -6.0042   -0.6158 C   0  0  0  0  0  0  0  0  0  0  0  0
   -0.2466   -6.0853   -0.5883 O   0  0  0  0  0  0  0  0  0  0  0  0
    1.7750   -5.9734    0.5254 N   0  0  0  0  0  0  0  0  0  0  0  0
    1.2806   -6.0882    1.8627 C   0  0  0  0  0  0  0  0  0  0  0  0
    0.2732   -7.0152    2.1661 C   0  0  0  0  0  0  0  0  0  0  0  0
   -0.2080   -7.1235    3.4708 C   0  0  0  0  0  0  0  0  0  0  0  0
    0.3314   -6.3089    4.4636 C   0  0  0  0  0  0  0  0  0  0  0  0
   -0.1262   -6.4151    5.7177 F   0  0  0  0  0  0  0  0  0  0  0  0
    1.3365   -5.3864    4.1820 C   0  0  0  0  0  0  0  0  0  0  0  0
    1.8087   -5.2739    2.8745 C   0  0  0  0  0  0  0  0  0  0  0  0
    3.1400   -5.8455    0.2114 C   0  0  0  0  0  0  0  0  0  0  0  0
    4.0441   -5.8683    1.0063 O   0  0  0  0  0  0  0  0  0  0  0  0
    3.2525   -5.6552   -1.2963 C   0  0  2  0  0  0  0  0  0  0  0  0
    3.9208   -3.9483   -1.6819 S   0  0  0  0  0  0  0  0  0  0  0  0
    5.1434    0.3500   -0.8357 N   0  0  0  0  0  0  0  0  0  0  0  0
    5.0450    0.9901    0.4748 C   0  0  0  0  0  0  0  0  0  0  0  0
    6.3446    0.8175    1.2727 C   0  0  0  0  0  0  0  0  0  0  0  0
    7.5582    1.2975    0.4675 C   0  0  0  0  0  0  0  0  0  0  0  0
    7.5991    0.6227   -0.9091 C   0  0  0  0  0  0  0  0  0  0  0  0
    6.2723    0.8022   -1.6534 C   0  0  0  0  0  0  0  0  0  0  0  0
    2.5906   -0.2131   -0.0002 H   0  0  0  0  0  0  0  0  0  0  0  0
    3.5612   -1.6565    0.4056 H   0  0  0  0  0  0  0  0  0  0  0  0
    2.2087   -4.9785   -3.7061 H   0  0  0  0  0  0  0  0  0  0  0  0
   -1.5279   -5.9492   -2.5277 H   0  0  0  0  0  0  0  0  0  0  0  0
   -2.7473   -6.3725   -4.9711 H   0  0  0  0  0  0  0  0  0  0  0  0
   -0.7752   -5.7824   -6.8178 H   0  0  0  0  0  0  0  0  0  0  0  0
    1.8505   -6.9977   -2.2710 H   0  0  0  0  0  0  0  0  0  0  0  0
   -0.1481   -7.6425    1.3817 H   0  0  0  0  0  0  0  0  0  0  0  0
   -0.9957   -7.8341    3.7274 H   0  0  0  0  0  0  0  0  0  0  0  0
    1.7366   -4.7656    4.9855 H   0  0  0  0  0  0  0  0  0  0  0  0
    2.6000   -4.5614    2.6450 H   0  0  0  0  0  0  0  0  0  0  0  0
    4.0411   -6.3174   -1.6783 H   0  0  0  0  0  0  0  0  0  0  0  0
    4.1964    0.5839    1.0366 H   0  0  0  0  0  0  0  0  0  0  0  0
    4.8432    2.0694    0.3292 H   0  0  0  0  0  0  0  0  0  0  0  0
    6.4664   -0.2500    1.5282 H   0  0  0  0  0  0  0  0  0  0  0  0
    6.2608    1.3691    2.2238 H   0  0  0  0  0  0  0  0  0  0  0  0
    8.4894    1.1038    1.0242 H   0  0  0  0  0  0  0  0  0  0  0  0
    7.4955    2.3937    0.3354 H   0  0  0  0  0  0  0  0  0  0  0  0
    7.7994   -0.4566   -0.7906 H   0  0  0  0  0  0  0  0  0  0  0  0
    8.4179    1.0346   -1.5219 H   0  0  0  0  0  0  0  0  0  0  0  0
    6.2474    0.2342   -2.5907 H   0  0  0  0  0  0  0  0  0  0  0  0
    6.1222    1.8713   -1.8991 H   0  0  0  0  0  0  0  0  0  0  0  0
  1  2  2  0
  2  3  1  0
  2 31  1  0
  3  4  1  0
  3 37  1  0
  3 38  1  0
  4  5  1  0
  4  8  1  0
  5  6  2  0
  5 30  1  0
  6  7  1  0
  6 10  1  0
  7  8  2  0
  8  9  1  0
 10 11  1  0
 10 16  1  0
 10 39  1  6
 11 12  2  0
 11 15  1  0
 12 13  1  0
 12 40  1  0
 13 14  2  0
 13 41  1  0
 14 15  1  0
 14 42  1  0
 16 17  1  0
 16 29  1  0
 16 43  1  6
 17 18  2  0
 17 19  1  0
 19 20  1  0
 19 27  1  0
 20 21  2  0
 20 26  1  0
 21 22  1  0
 21 44  1  0
 22 23  2  0
 22 45  1  0
 23 24  1  0
 23 25  1  0
 25 26  2  0
 25 46  1  0
 26 47  1  0
 27 28  2  0
 27 29  1  0
 29 30  1  0
 29 48  1  6
 31 32  1  0
 31 36  1  0
 32 33  1  0
 32 49  1  0
 32 50  1  0
 33 34  1  0
 33 51  1  0
 33 52  1  0
 34 35  1  0
 34 53  1  0
 34 54  1  0
 35 36  1  0
 35 55  1  0
 35 56  1  0
 36 57  1  0
 36 58  1  0
M  CHG  2   7   1   9  -1
M  END

