
     RDKit          3D

 40 40  0  0  0  0  0  0  0  0999 V2000
    5.1004    3.5078   -8.7697 C   0  0  0  0  0  0  0  0  0  0  0  0
    5.7053    2.8886   -7.6585 O   0  0  0  0  0  0  0  0  0  0  0  0
    4.9127    2.3577   -6.6954 C   0  0  0  0  0  0  0  0  0  0  0  0
    3.5135    2.3594   -6.6966 C   0  0  0  0  0  0  0  0  0  0  0  0
    2.8191    1.7794   -5.6258 C   0  0  0  0  0  0  0  0  0  0  0  0
    3.4984    1.1968   -4.5602 C   0  0  0  0  0  0  0  0  0  0  0  0
    4.9090    1.1714   -4.5349 C   0  0  0  0  0  0  0  0  0  0  0  0
    5.6747    0.5715   -3.3730 C   0  0  0  0  0  0  0  0  0  0  0  0
    5.8085   -0.9867   -3.3224 C   0  0  1  0  0  0  0  0  0  0  0  0
    6.6051   -1.3524   -2.0415 C   0  0  0  0  0  0  0  0  0  0  0  0
    5.8944   -1.0020   -0.7958 N   0  0  0  0  0  0  0  0  0  0  0  0
    4.3944   -1.6280   -3.2256 C   0  0  0  0  0  0  0  0  0  0  0  0
    3.5611   -1.0313   -2.2602 O   0  0  0  0  0  0  0  0  0  0  0  0
    6.5445   -1.5291   -4.5988 C   0  0  1  0  0  0  0  0  0  0  0  0
    8.0249   -1.1194   -4.6975 C   0  0  0  0  0  0  0  0  0  0  0  0
    6.4337   -3.0516   -4.8048 C   0  0  0  0  0  0  0  0  0  0  0  0
    5.5793    1.7588   -5.6064 C   0  0  0  0  0  0  0  0  0  0  0  0
    6.9271    1.7816   -5.6230 F   0  0  0  0  0  0  0  0  0  0  0  0
    5.9169    3.8638   -9.4122 H   0  0  0  0  0  0  0  0  0  0  0  0
    4.4769    4.3707   -8.4722 H   0  0  0  0  0  0  0  0  0  0  0  0
    4.4744    2.8015   -9.3453 H   0  0  0  0  0  0  0  0  0  0  0  0
    2.9621    2.8121   -7.5208 H   0  0  0  0  0  0  0  0  0  0  0  0
    1.7263    1.7913   -5.6314 H   0  0  0  0  0  0  0  0  0  0  0  0
    2.9575    0.7493   -3.7240 H   0  0  0  0  0  0  0  0  0  0  0  0
    5.1576    0.8843   -2.4546 H   0  0  0  0  0  0  0  0  0  0  0  0
    6.6820    1.0117   -3.3433 H   0  0  0  0  0  0  0  0  0  0  0  0
    7.6099   -0.8932   -2.0848 H   0  0  0  0  0  0  0  0  0  0  0  0
    6.7597   -2.4431   -2.0297 H   0  0  0  0  0  0  0  0  0  0  0  0
    6.0521   -0.0238   -0.5520 H   0  0  0  0  0  0  0  0  0  0  0  0
    6.2567   -1.5476   -0.0147 H   0  0  0  0  0  0  0  0  0  0  0  0
    4.5101   -2.7109   -3.0234 H   0  0  0  0  0  0  0  0  0  0  0  0
    3.8845   -1.5425   -4.1997 H   0  0  0  0  0  0  0  0  0  0  0  0
    4.0970   -1.0360   -1.4389 H   0  0  0  0  0  0  0  0  0  0  0  0
    6.0239   -1.0609   -5.4525 H   0  0  0  0  0  0  0  0  0  0  0  0
    8.6507   -1.6626   -3.9701 H   0  0  0  0  0  0  0  0  0  0  0  0
    8.1793   -0.0420   -4.5521 H   0  0  0  0  0  0  0  0  0  0  0  0
    8.4128   -1.3655   -5.6990 H   0  0  0  0  0  0  0  0  0  0  0  0
    6.8686   -3.6194   -3.9649 H   0  0  0  0  0  0  0  0  0  0  0  0
    6.9908   -3.3438   -5.7096 H   0  0  0  0  0  0  0  0  0  0  0  0
    5.3977   -3.3931   -4.9405 H   0  0  0  0  0  0  0  0  0  0  0  0
  1  2  1  0
  1 19  1  0
  1 20  1  0
  1 21  1  0
  2  3  1  0
  3  4  2  0
  3 17  1  0
  4  5  1  0
  4 22  1  0
  5  6  2  0
  5 23  1  0
  6  7  1  0
  6 24  1  0
  7  8  1  0
  7 17  2  0
  9  8  1  6
  8 25  1  0
  8 26  1  0
  9 10  1  0
  9 12  1  0
  9 14  1  0
 10 11  1  0
 10 27  1  0
 10 28  1  0
 11 29  1  0
 11 30  1  0
 12 13  1  0
 12 31  1  0
 12 32  1  0
 13 33  1  0
 14 15  1  0
 14 16  1  0
 14 34  1  6
 15 35  1  0
 15 36  1  0
 15 37  1  0
 16 38  1  0
 16 39  1  0
 16 40  1  0
 17 18  1  0
M  END

