
     RDKit          3D

 36 37  0  0  0  0  0  0  0  0999 V2000
    0.7942    0.6040    0.3977 C   0  0  0  0  0  0  0  0  0  0  0  0
    2.2805    0.7583    0.6480 C   0  0  0  0  0  0  0  0  0  0  0  0
    2.7808   -0.5025    1.1104 O   0  0  0  0  0  0  0  0  0  0  0  0
    4.0932   -0.5997    1.4073 C   0  0  0  0  0  0  0  0  0  0  0  0
    4.8944    0.4454    1.2652 N   0  0  0  0  0  0  0  0  0  0  0  0
    6.1671    0.2707    1.6302 C   0  0  0  0  0  0  0  0  0  0  0  0
    6.7026   -0.8578    2.0721 N   0  0  0  0  0  0  0  0  0  0  0  0
    5.9055   -1.9325    2.1938 C   0  0  0  0  0  0  0  0  0  0  0  0
    6.4573   -3.1336    2.6707 N   0  0  0  0  0  0  0  0  0  0  0  0
    6.3230   -4.3085    1.8078 C   0  0  0  0  0  0  0  0  0  0  0  0
    7.7589   -3.0450    3.3305 C   0  0  0  0  0  0  0  0  0  0  0  0
    7.9431   -4.1050    4.3965 C   0  0  0  0  0  0  0  0  0  0  0  0
    6.9887   -4.3117    5.4028 C   0  0  0  0  0  0  0  0  0  0  0  0
    7.2281   -5.2724    6.3841 C   0  0  0  0  0  0  0  0  0  0  0  0
    8.4221   -6.0015    6.3283 C   0  0  0  0  0  0  0  0  0  0  0  0
    9.3394   -5.8234    5.3771 N   0  0  0  0  0  0  0  0  0  0  0  0
    9.0970   -4.9014    4.4417 C   0  0  0  0  0  0  0  0  0  0  0  0
    4.5237   -1.8475    1.9090 C   0  0  0  0  0  0  0  0  0  0  0  0
    3.6296   -2.9019    2.0712 N   0  0  0  0  0  0  0  0  0  0  0  0
    0.3731    1.5549    0.0361 H   0  0  0  0  0  0  0  0  0  0  0  0
    0.2645    0.3223    1.3213 H   0  0  0  0  0  0  0  0  0  0  0  0
    0.6002   -0.1701   -0.3609 H   0  0  0  0  0  0  0  0  0  0  0  0
    2.4934    1.5333    1.4029 H   0  0  0  0  0  0  0  0  0  0  0  0
    2.8228    1.0495   -0.2663 H   0  0  0  0  0  0  0  0  0  0  0  0
    6.8295    1.1402    1.5464 H   0  0  0  0  0  0  0  0  0  0  0  0
    5.3076   -4.3761    1.3971 H   0  0  0  0  0  0  0  0  0  0  0  0
    6.5264   -5.2204    2.3888 H   0  0  0  0  0  0  0  0  0  0  0  0
    7.0390   -4.2737    0.9621 H   0  0  0  0  0  0  0  0  0  0  0  0
    7.8376   -2.0440    3.7773 H   0  0  0  0  0  0  0  0  0  0  0  0
    8.5876   -3.1093    2.5977 H   0  0  0  0  0  0  0  0  0  0  0  0
    6.0673   -3.7229    5.4052 H   0  0  0  0  0  0  0  0  0  0  0  0
    6.5060   -5.4562    7.1836 H   0  0  0  0  0  0  0  0  0  0  0  0
    8.6403   -6.7638    7.0862 H   0  0  0  0  0  0  0  0  0  0  0  0
    9.8667   -4.7786    3.6683 H   0  0  0  0  0  0  0  0  0  0  0  0
    3.8400   -3.4937    2.8716 H   0  0  0  0  0  0  0  0  0  0  0  0
    2.6590   -2.6033    2.0505 H   0  0  0  0  0  0  0  0  0  0  0  0
  1  2  1  0
  1 20  1  0
  1 21  1  0
  1 22  1  0
  2  3  1  0
  2 23  1  0
  2 24  1  0
  3  4  1  0
  4  5  2  0
  4 18  1  0
  5  6  1  0
  6  7  2  0
  6 25  1  0
  7  8  1  0
  8  9  1  0
  8 18  2  0
  9 10  1  0
  9 11  1  0
 10 26  1  0
 10 27  1  0
 10 28  1  0
 11 12  1  0
 11 29  1  0
 11 30  1  0
 12 13  2  0
 12 17  1  0
 13 14  1  0
 13 31  1  0
 14 15  2  0
 14 32  1  0
 15 16  1  0
 15 33  1  0
 16 17  2  0
 17 34  1  0
 18 19  1  0
 19 35  1  0
 19 36  1  0
M  END

