
     RDKit          3D

 96106  0  0  0  0  0  0  0  0999 V2000
    5.2668   -1.2923   -2.0507 C   0  0  0  0  0  0  0  0  0  0  0  0
    4.5564   -0.6609   -0.8748 C   0  0  0  0  0  0  0  0  0  0  0  0
    5.0348    0.5457   -0.3606 C   0  0  0  0  0  0  0  0  0  0  0  0
    4.4429    1.2289    0.7187 C   0  0  0  0  0  0  0  0  0  0  0  0
    5.0922    2.4937    1.1581 C   0  0  0  0  0  0  0  0  0  0  0  0
    5.9744    3.0604    0.3165 N   0  0  0  0  0  0  0  0  0  0  0  0
    6.5617    4.1870    0.7270 C   0  0  0  0  0  0  0  0  0  0  0  0
    7.5349    4.8450   -0.1853 C   0  0  0  0  0  0  0  0  0  0  0  0
    7.7732    4.3229   -1.4688 C   0  0  0  0  0  0  0  0  0  0  0  0
    8.6857    4.9415   -2.3237 C   0  0  0  0  0  0  0  0  0  0  0  0
    9.3727    6.0875   -1.9083 C   0  0  0  0  0  0  0  0  0  0  0  0
    9.1408    6.6136   -0.6328 C   0  0  0  0  0  0  0  0  0  0  0  0
    8.2272    5.9983    0.2235 C   0  0  0  0  0  0  0  0  0  0  0  0
    6.3220    4.7619    1.9143 N   0  0  0  0  0  0  0  0  0  0  0  0
    5.4366    4.1398    2.6998 C   0  0  0  0  0  0  0  0  0  0  0  0
    5.1417    4.7369    4.0298 C   0  0  0  0  0  0  0  0  0  0  0  0
    5.7635    5.9343    4.4255 C   0  0  0  0  0  0  0  0  0  0  0  0
    5.4871    6.4948    5.6727 C   0  0  0  0  0  0  0  0  0  0  0  0
    4.5874    5.8675    6.5414 C   0  0  0  0  0  0  0  0  0  0  0  0
    3.9646    4.6756    6.1556 C   0  0  0  0  0  0  0  0  0  0  0  0
    4.2388    4.1132    4.9086 C   0  0  0  0  0  0  0  0  0  0  0  0
    4.8008    3.0094    2.3601 N   0  0  0  0  0  0  0  0  0  0  0  0
    3.2703    0.6835    1.3056 C   0  0  0  0  0  0  0  0  0  0  0  0
    2.5022    1.3045    2.4477 C   0  0  0  0  0  0  0  0  0  0  0  0
    2.7867   -0.5184    0.7734 C   0  0  0  0  0  0  0  0  0  0  0  0
    3.3951   -1.2165   -0.2837 C   0  0  0  0  0  0  0  0  0  0  0  0
    2.7775   -2.4912   -0.7432 C   0  0  0  0  0  0  0  0  0  0  0  0
    3.5177   -3.6786   -0.8890 C   0  0  0  0  0  0  0  0  0  0  0  0
    2.9069   -4.8647   -1.2737 C   0  0  0  0  0  0  0  0  0  0  0  0
    1.5203   -4.9240   -1.5419 C   0  0  0  0  0  0  0  0  0  0  0  0
    0.7590   -3.7435   -1.4065 C   0  0  0  0  0  0  0  0  0  0  0  0
    1.4029   -2.5656   -1.0066 C   0  0  0  0  0  0  0  0  0  0  0  0
   -0.7448   -3.7004   -1.7045 C   0  0  2  0  0  0  0  0  0  0  0  0
   -1.0519   -2.7007   -2.8361 C   0  0  0  0  0  0  0  0  0  0  0  0
   -0.6237   -2.7352   -4.1601 C   0  0  0  0  0  0  0  0  0  0  0  0
   -1.0248   -1.7134   -5.0307 C   0  0  0  0  0  0  0  0  0  0  0  0
   -1.8450   -0.6714   -4.5767 C   0  0  0  0  0  0  0  0  0  0  0  0
   -2.2774   -0.6340   -3.2472 C   0  0  0  0  0  0  0  0  0  0  0  0
   -1.8774   -1.6543   -2.3768 C   0  0  0  0  0  0  0  0  0  0  0  0
   -2.1687   -1.8774   -0.9520 C   0  0  0  0  0  0  0  0  0  0  0  0
   -2.9316   -1.1347   -0.0433 C   0  0  0  0  0  0  0  0  0  0  0  0
   -3.0401   -1.5863    1.2759 C   0  0  0  0  0  0  0  0  0  0  0  0
   -2.3962   -2.7634    1.6821 C   0  0  0  0  0  0  0  0  0  0  0  0
   -1.6325   -3.5074    0.7730 C   0  0  0  0  0  0  0  0  0  0  0  0
   -1.5221   -3.0604   -0.5407 C   0  0  0  0  0  0  0  0  0  0  0  0
   -1.2946   -5.0917   -2.0412 C   0  0  0  0  0  0  0  0  0  0  0  0
   -2.6712   -5.2404   -2.2695 C   0  0  0  0  0  0  0  0  0  0  0  0
   -3.2409   -6.4664   -2.6026 C   0  0  0  0  0  0  0  0  0  0  0  0
   -2.4116   -7.5863   -2.7136 C   0  0  0  0  0  0  0  0  0  0  0  0
   -1.0435   -7.4704   -2.4918 C   0  0  0  0  0  0  0  0  0  0  0  0
   -0.4628   -6.2270   -2.1520 C   0  0  0  0  0  0  0  0  0  0  0  0
    0.9229   -6.1326   -1.9295 N   0  0  0  0  0  0  0  0  0  0  0  0
    1.7377   -7.3069   -2.0630 C   0  0  0  0  0  0  0  0  0  0  0  0
    2.3230   -7.6179   -3.2969 C   0  0  0  0  0  0  0  0  0  0  0  0
    3.1169   -8.7609   -3.4273 C   0  0  0  0  0  0  0  0  0  0  0  0
    3.3292   -9.5970   -2.3265 C   0  0  0  0  0  0  0  0  0  0  0  0
    2.7453   -9.2876   -1.0938 C   0  0  0  0  0  0  0  0  0  0  0  0
    1.9510   -8.1454   -0.9610 C   0  0  0  0  0  0  0  0  0  0  0  0
    5.8503   -0.5378   -2.5989 H   0  0  0  0  0  0  0  0  0  0  0  0
    4.5608   -1.7601   -2.7528 H   0  0  0  0  0  0  0  0  0  0  0  0
    5.9734   -2.0789   -1.7354 H   0  0  0  0  0  0  0  0  0  0  0  0
    5.9157    1.0008   -0.8141 H   0  0  0  0  0  0  0  0  0  0  0  0
    7.2287    3.4314   -1.7811 H   0  0  0  0  0  0  0  0  0  0  0  0
    8.8622    4.5289   -3.3203 H   0  0  0  0  0  0  0  0  0  0  0  0
   10.0881    6.5710   -2.5789 H   0  0  0  0  0  0  0  0  0  0  0  0
    9.6754    7.5087   -0.3046 H   0  0  0  0  0  0  0  0  0  0  0  0
    8.0368    6.3984    1.2197 H   0  0  0  0  0  0  0  0  0  0  0  0
    6.4620    6.4134    3.7391 H   0  0  0  0  0  0  0  0  0  0  0  0
    5.9756    7.4263    5.9700 H   0  0  0  0  0  0  0  0  0  0  0  0
    4.3718    6.3073    7.5188 H   0  0  0  0  0  0  0  0  0  0  0  0
    3.2614    4.1819    6.8312 H   0  0  0  0  0  0  0  0  0  0  0  0
    3.7600    3.1850    4.5974 H   0  0  0  0  0  0  0  0  0  0  0  0
    2.3073    2.3737    2.2856 H   0  0  0  0  0  0  0  0  0  0  0  0
    3.0646    1.2371    3.3912 H   0  0  0  0  0  0  0  0  0  0  0  0
    1.5407    0.7862    2.5798 H   0  0  0  0  0  0  0  0  0  0  0  0
    1.8885   -0.9510    1.2211 H   0  0  0  0  0  0  0  0  0  0  0  0
    4.5869   -3.6866   -0.6695 H   0  0  0  0  0  0  0  0  0  0  0  0
    3.5111   -5.7665   -1.3609 H   0  0  0  0  0  0  0  0  0  0  0  0
    0.8026   -1.6581   -0.9145 H   0  0  0  0  0  0  0  0  0  0  0  0
    0.0155   -3.5467   -4.5175 H   0  0  0  0  0  0  0  0  0  0  0  0
   -0.6953   -1.7283   -6.0728 H   0  0  0  0  0  0  0  0  0  0  0  0
   -2.1489    0.1189   -5.2679 H   0  0  0  0  0  0  0  0  0  0  0  0
   -2.9167    0.1808   -2.8977 H   0  0  0  0  0  0  0  0  0  0  0  0
   -3.4352   -0.2161   -0.3553 H   0  0  0  0  0  0  0  0  0  0  0  0
   -3.6324   -1.0167    1.9967 H   0  0  0  0  0  0  0  0  0  0  0  0
   -2.4914   -3.1036    2.7165 H   0  0  0  0  0  0  0  0  0  0  0  0
   -1.1320   -4.4253    1.0920 H   0  0  0  0  0  0  0  0  0  0  0  0
   -3.3095   -4.3582   -2.1832 H   0  0  0  0  0  0  0  0  0  0  0  0
   -4.3165   -6.5464   -2.7744 H   0  0  0  0  0  0  0  0  0  0  0  0
   -2.8297   -8.5620   -2.9745 H   0  0  0  0  0  0  0  0  0  0  0  0
   -0.4115   -8.3527   -2.5810 H   0  0  0  0  0  0  0  0  0  0  0  0
    2.1498   -6.9578   -4.1496 H   0  0  0  0  0  0  0  0  0  0  0  0
    3.5711   -8.9989   -4.3924 H   0  0  0  0  0  0  0  0  0  0  0  0
    3.9501  -10.4904   -2.4293 H   0  0  0  0  0  0  0  0  0  0  0  0
    2.9085   -9.9382   -0.2310 H   0  0  0  0  0  0  0  0  0  0  0  0
    1.4899   -7.8940   -0.0034 H   0  0  0  0  0  0  0  0  0  0  0  0
  1  2  1  0
  1 59  1  0
  1 60  1  0
  1 61  1  0
  2  3  2  0
  2 26  1  0
  3  4  1  0
  3 62  1  0
  4  5  1  0
  4 23  2  0
  5  6  2  0
  5 22  1  0
  6  7  1  0
  7  8  1  0
  7 14  2  0
  8  9  2  0
  8 13  1  0
  9 10  1  0
  9 63  1  0
 10 11  2  0
 10 64  1  0
 11 12  1  0
 11 65  1  0
 12 13  2  0
 12 66  1  0
 13 67  1  0
 14 15  1  0
 15 16  1  0
 15 22  2  0
 16 17  2  0
 16 21  1  0
 17 18  1  0
 17 68  1  0
 18 19  2  0
 18 69  1  0
 19 20  1  0
 19 70  1  0
 20 21  2  0
 20 71  1  0
 21 72  1  0
 23 24  1  0
 23 25  1  0
 24 73  1  0
 24 74  1  0
 24 75  1  0
 25 26  2  0
 25 76  1  0
 26 27  1  0
 27 28  2  0
 27 32  1  0
 28 29  1  0
 28 77  1  0
 29 30  2  0
 29 78  1  0
 30 31  1  0
 30 52  1  0
 31 32  2  0
 33 31  1  1
 32 79  1  0
 33 34  1  0
 33 45  1  0
 33 46  1  0
 34 35  2  0
 34 39  1  0
 35 36  1  0
 35 80  1  0
 36 37  2  0
 36 81  1  0
 37 38  1  0
 37 82  1  0
 38 39  2  0
 38 83  1  0
 39 40  1  0
 40 41  2  0
 40 45  1  0
 41 42  1  0
 41 84  1  0
 42 43  2  0
 42 85  1  0
 43 44  1  0
 43 86  1  0
 44 45  2  0
 44 87  1  0
 46 47  1  0
 46 51  2  0
 47 48  2  0
 47 88  1  0
 48 49  1  0
 48 89  1  0
 49 50  2  0
 49 90  1  0
 50 51  1  0
 50 91  1  0
 51 52  1  0
 52 53  1  0
 53 54  2  0
 53 58  1  0
 54 55  1  0
 54 92  1  0
 55 56  2  0
 55 93  1  0
 56 57  1  0
 56 94  1  0
 57 58  2  0
 57 95  1  0
 58 96  1  0
M  END

