
     RDKit          3D

 31 33  0  0  0  0  0  0  0  0999 V2000
    5.5351    2.5850    0.5358 Cl  0  0  0  0  0  0  0  0  0  0  0  0
    4.6672    1.1087    0.2191 C   0  0  0  0  0  0  0  0  0  0  0  0
    3.3175    1.1849   -0.1322 C   0  0  0  0  0  0  0  0  0  0  0  0
    2.6027    0.0121   -0.3901 C   0  0  0  0  0  0  0  0  0  0  0  0
    3.2289   -1.2252   -0.2984 C   0  0  0  0  0  0  0  0  0  0  0  0
    4.5896   -1.3315    0.0542 C   0  0  0  0  0  0  0  0  0  0  0  0
    5.2365   -2.6438    0.1469 C   0  0  0  0  0  0  0  0  0  0  0  0
    4.5879   -3.7319   -0.0844 N   0  0  0  0  0  0  0  0  0  0  0  0
    5.2313   -4.8944    0.0175 N   0  0  0  0  0  0  0  0  0  0  0  0
    4.6228   -6.1146   -0.2141 C   0  0  0  0  0  0  0  0  0  0  0  0
    3.2332   -6.2064   -0.5835 C   0  0  0  0  0  0  0  0  0  0  0  0
    2.6659   -7.3615   -0.8005 N   0  0  0  0  0  0  0  0  0  0  0  0
    3.4271   -8.4884   -0.6671 C   0  0  0  0  0  0  0  0  0  0  0  0
    2.8501   -9.7634   -0.8940 C   0  0  0  0  0  0  0  0  0  0  0  0
    3.6162  -10.9047   -0.7596 C   0  0  0  0  0  0  0  0  0  0  0  0
    4.9832  -10.8088   -0.3941 C   0  0  0  0  0  0  0  0  0  0  0  0
    5.5715   -9.5800   -0.1670 C   0  0  0  0  0  0  0  0  0  0  0  0
    4.8076   -8.3901   -0.2981 C   0  0  0  0  0  0  0  0  0  0  0  0
    5.3825   -7.1780   -0.0763 N   0  0  0  0  0  0  0  0  0  0  0  0
    5.3071   -0.1405    0.3140 C   0  0  0  0  0  0  0  0  0  0  0  0
    6.9962   -0.2015    0.7567 Cl  0  0  0  0  0  0  0  0  0  0  0  0
    2.8429    2.1648   -0.1993 H   0  0  0  0  0  0  0  0  0  0  0  0
    1.5472    0.0724   -0.6647 H   0  0  0  0  0  0  0  0  0  0  0  0
    2.6798   -2.1460   -0.4979 H   0  0  0  0  0  0  0  0  0  0  0  0
    6.3014   -2.6673    0.4238 H   0  0  0  0  0  0  0  0  0  0  0  0
    6.2222   -4.9372    0.2731 H   0  0  0  0  0  0  0  0  0  0  0  0
    2.6384   -5.2947   -0.6855 H   0  0  0  0  0  0  0  0  0  0  0  0
    1.7953   -9.8015   -1.1738 H   0  0  0  0  0  0  0  0  0  0  0  0
    3.1724  -11.8878   -0.9343 H   0  0  0  0  0  0  0  0  0  0  0  0
    5.5759  -11.7215   -0.2918 H   0  0  0  0  0  0  0  0  0  0  0  0
    6.6221   -9.4856    0.1150 H   0  0  0  0  0  0  0  0  0  0  0  0
  1  2  1  0
  2  3  2  0
  2 20  1  0
  3  4  1  0
  3 22  1  0
  4  5  2  0
  4 23  1  0
  5  6  1  0
  5 24  1  0
  6  7  1  0
  6 20  2  0
  7  8  2  0
  7 25  1  0
  8  9  1  0
  9 10  1  0
  9 26  1  0
 10 11  2  0
 10 19  1  0
 11 12  1  0
 11 27  1  0
 12 13  2  0
 13 14  1  0
 13 18  1  0
 14 15  2  0
 14 28  1  0
 15 16  1  0
 15 29  1  0
 16 17  2  0
 16 30  1  0
 17 18  1  0
 17 31  1  0
 18 19  2  0
 20 21  1  0
M  END

