
     RDKit          3D

 50 51  0  0  0  0  0  0  0  0999 V2000
    1.0699   -0.0770   -0.3646 C   0  0  0  0  0  0  0  0  0  0  0  0
    2.5186   -0.0497    0.1077 C   0  0  0  0  0  0  0  0  0  0  0  0
    3.0502   -1.3983    0.2218 N   0  0  0  0  0  0  0  0  0  0  0  0
    4.3798   -1.6807    0.3711 C   0  0  0  0  0  0  0  0  0  0  0  0
    5.2387   -0.6547    0.2698 N   0  0  0  0  0  0  0  0  0  0  0  0
    6.5424   -0.9153    0.3861 C   0  0  0  0  0  0  0  0  0  0  0  0
    7.5371    0.2515    0.1865 C   0  0  1  0  0  0  0  0  0  0  0  0
    8.0858    0.1488   -1.1371 O   0  0  0  0  0  0  0  0  0  0  0  0
    7.2323    0.2800   -2.2555 C   0  0  0  0  0  0  0  0  0  0  0  0
    8.0672    0.0437   -3.5031 C   0  0  0  0  0  0  0  0  0  0  0  0
    6.8874    1.6302    0.4188 C   0  0  0  0  0  0  0  0  0  0  0  0
    6.5769    1.9077    1.8969 C   0  0  0  0  0  0  0  0  0  0  0  0
    7.8110    1.7334    2.7889 C   0  0  0  0  0  0  0  0  0  0  0  0
    8.4489    0.3549    2.5804 C   0  0  0  0  0  0  0  0  0  0  0  0
    8.7631    0.0985    1.1035 C   0  0  0  0  0  0  0  0  0  0  0  0
    7.0628   -2.1199    0.6052 N   0  0  0  0  0  0  0  0  0  0  0  0
    6.2191   -3.1624    0.7145 C   0  0  0  0  0  0  0  0  0  0  0  0
    6.8622   -4.5062    0.9658 C   0  0  0  0  0  0  0  0  0  0  0  0
    4.8313   -3.0110    0.6097 C   0  0  0  0  0  0  0  0  0  0  0  0
    3.8631   -4.1691    0.7008 C   0  0  0  0  0  0  0  0  0  0  0  0
    3.3889   -4.6957   -0.6654 C   0  0  0  0  0  0  0  0  0  0  0  0
    0.6729    0.9461   -0.4467 H   0  0  0  0  0  0  0  0  0  0  0  0
    0.4228   -0.6240    0.3428 H   0  0  0  0  0  0  0  0  0  0  0  0
    0.9808   -0.5596   -1.3512 H   0  0  0  0  0  0  0  0  0  0  0  0
    2.5964    0.4887    1.0724 H   0  0  0  0  0  0  0  0  0  0  0  0
    3.1493    0.5088   -0.5991 H   0  0  0  0  0  0  0  0  0  0  0  0
    2.3934   -2.1310    0.4554 H   0  0  0  0  0  0  0  0  0  0  0  0
    6.7730    1.2871   -2.2939 H   0  0  0  0  0  0  0  0  0  0  0  0
    6.3988   -0.4473   -2.2125 H   0  0  0  0  0  0  0  0  0  0  0  0
    8.8906    0.7727   -3.5608 H   0  0  0  0  0  0  0  0  0  0  0  0
    7.4488    0.1418   -4.4097 H   0  0  0  0  0  0  0  0  0  0  0  0
    8.5085   -0.9650   -3.4856 H   0  0  0  0  0  0  0  0  0  0  0  0
    5.9671    1.7235   -0.1736 H   0  0  0  0  0  0  0  0  0  0  0  0
    7.6046    2.3806    0.0425 H   0  0  0  0  0  0  0  0  0  0  0  0
    5.7794    1.2226    2.2325 H   0  0  0  0  0  0  0  0  0  0  0  0
    6.1693    2.9281    2.0002 H   0  0  0  0  0  0  0  0  0  0  0  0
    7.5423    1.8805    3.8491 H   0  0  0  0  0  0  0  0  0  0  0  0
    8.5524    2.5167    2.5437 H   0  0  0  0  0  0  0  0  0  0  0  0
    7.7663   -0.4293    2.9545 H   0  0  0  0  0  0  0  0  0  0  0  0
    9.3732    0.2640    3.1756 H   0  0  0  0  0  0  0  0  0  0  0  0
    9.1791   -0.9064    0.9536 H   0  0  0  0  0  0  0  0  0  0  0  0
    9.5109    0.8255    0.7448 H   0  0  0  0  0  0  0  0  0  0  0  0
    7.9525   -4.3892    0.9313 H   0  0  0  0  0  0  0  0  0  0  0  0
    6.5610   -5.2549    0.2158 H   0  0  0  0  0  0  0  0  0  0  0  0
    6.5857   -4.9070    1.9557 H   0  0  0  0  0  0  0  0  0  0  0  0
    2.9841   -3.8723    1.3037 H   0  0  0  0  0  0  0  0  0  0  0  0
    4.3233   -4.9930    1.2658 H   0  0  0  0  0  0  0  0  0  0  0  0
    2.9006   -3.9028   -1.2536 H   0  0  0  0  0  0  0  0  0  0  0  0
    2.6707   -5.5227   -0.5453 H   0  0  0  0  0  0  0  0  0  0  0  0
    4.2381   -5.0678   -1.2597 H   0  0  0  0  0  0  0  0  0  0  0  0
  1  2  1  0
  1 22  1  0
  1 23  1  0
  1 24  1  0
  2  3  1  0
  2 25  1  0
  2 26  1  0
  3  4  1  0
  3 27  1  0
  4  5  2  0
  4 19  1  0
  5  6  1  0
  6  7  1  0
  6 16  2  0
  7  8  1  6
  7 11  1  0
  7 15  1  0
  8  9  1  0
  9 10  1  0
  9 28  1  0
  9 29  1  0
 10 30  1  0
 10 31  1  0
 10 32  1  0
 11 12  1  0
 11 33  1  0
 11 34  1  0
 12 13  1  0
 12 35  1  0
 12 36  1  0
 13 14  1  0
 13 37  1  0
 13 38  1  0
 14 15  1  0
 14 39  1  0
 14 40  1  0
 15 41  1  0
 15 42  1  0
 16 17  1  0
 17 18  1  0
 17 19  2  0
 18 43  1  0
 18 44  1  0
 18 45  1  0
 19 20  1  0
 20 21  1  0
 20 46  1  0
 20 47  1  0
 21 48  1  0
 21 49  1  0
 21 50  1  0
M  END

