
     RDKit          3D

 47 49  0  0  0  0  0  0  0  0999 V2000
    4.1926   -5.6586   -0.4034 C   0  0  0  0  0  0  0  0  0  0  0  0
    4.2785   -4.5604   -1.4140 C   0  0  0  0  0  0  0  0  0  0  0  0
    4.9947   -4.7172   -2.4999 N   0  0  0  0  0  0  0  0  0  0  0  0
    4.8956   -3.5266   -3.2115 O   0  0  0  0  0  0  0  0  0  0  0  0
    4.1253   -2.6520   -2.5561 C   0  0  0  0  0  0  0  0  0  0  0  0
    3.9292   -1.3164   -3.1788 C   0  0  0  0  0  0  0  0  0  0  0  0
    3.6885   -3.2460   -1.3930 C   0  0  0  0  0  0  0  0  0  0  0  0
    2.6452   -2.5384   -0.1437 S   0  0  1  0  0  0  0  0  0  0  0  0
    2.9471   -3.2458    1.1006 O   0  0  0  0  0  0  0  0  0  0  0  0
    2.7456   -1.0849   -0.2677 O   0  0  0  0  0  0  0  0  0  0  0  0
    1.0656   -2.8988   -0.5224 N   0  0  0  0  0  0  0  0  0  0  0  0
    0.5044   -4.2289   -0.3521 C   0  0  0  0  0  0  0  0  0  0  0  0
   -1.0132   -4.1497   -0.0585 C   0  0  1  0  0  0  0  0  0  0  0  0
   -1.7238   -3.3832   -1.1696 C   0  0  0  0  0  0  0  0  0  0  0  0
   -1.9915   -4.0006   -2.4036 C   0  0  0  0  0  0  0  0  0  0  0  0
   -2.5934   -3.2955   -3.4467 C   0  0  0  0  0  0  0  0  0  0  0  0
   -2.9265   -1.9553   -3.2512 C   0  0  0  0  0  0  0  0  0  0  0  0
   -3.5054   -1.2731   -4.2498 F   0  0  0  0  0  0  0  0  0  0  0  0
   -2.6750   -1.3123   -2.0426 C   0  0  0  0  0  0  0  0  0  0  0  0
   -2.0745   -2.0350   -1.0063 C   0  0  0  0  0  0  0  0  0  0  0  0
   -1.5705   -5.4868    0.0945 N   0  0  0  0  0  0  0  0  0  0  0  0
   -0.9069   -6.3687    1.0577 C   0  0  0  0  0  0  0  0  0  0  0  0
   -1.8798   -7.5532    1.2246 C   0  0  0  0  0  0  0  0  0  0  0  0
   -3.2529   -7.0014    0.7595 C   0  0  0  0  0  0  0  0  0  0  0  0
   -2.9839   -5.5180    0.4756 C   0  0  0  0  0  0  0  0  0  0  0  0
    4.8591   -6.4794   -0.6995 H   0  0  0  0  0  0  0  0  0  0  0  0
    3.1651   -6.0475   -0.3278 H   0  0  0  0  0  0  0  0  0  0  0  0
    4.4706   -5.2846    0.5919 H   0  0  0  0  0  0  0  0  0  0  0  0
    4.9022   -0.8935   -3.4728 H   0  0  0  0  0  0  0  0  0  0  0  0
    3.4371   -0.6431   -2.4675 H   0  0  0  0  0  0  0  0  0  0  0  0
    3.3180   -1.4029   -4.0925 H   0  0  0  0  0  0  0  0  0  0  0  0
    0.7021   -2.3238   -1.2799 H   0  0  0  0  0  0  0  0  0  0  0  0
    1.0232   -4.6785    0.5044 H   0  0  0  0  0  0  0  0  0  0  0  0
    0.6652   -4.8768   -1.2354 H   0  0  0  0  0  0  0  0  0  0  0  0
   -1.1180   -3.5615    0.8823 H   0  0  0  0  0  0  0  0  0  0  0  0
   -1.7394   -5.0559   -2.5312 H   0  0  0  0  0  0  0  0  0  0  0  0
   -2.8124   -3.7666   -4.4071 H   0  0  0  0  0  0  0  0  0  0  0  0
   -2.9546   -0.2638   -1.9230 H   0  0  0  0  0  0  0  0  0  0  0  0
   -1.8787   -1.5385   -0.0522 H   0  0  0  0  0  0  0  0  0  0  0  0
   -0.7526   -5.8549    2.0344 H   0  0  0  0  0  0  0  0  0  0  0  0
    0.0819   -6.6914    0.6992 H   0  0  0  0  0  0  0  0  0  0  0  0
   -1.8962   -7.9053    2.2667 H   0  0  0  0  0  0  0  0  0  0  0  0
   -1.5691   -8.4044    0.6010 H   0  0  0  0  0  0  0  0  0  0  0  0
   -4.0457   -7.1349    1.5104 H   0  0  0  0  0  0  0  0  0  0  0  0
   -3.5825   -7.5104   -0.1588 H   0  0  0  0  0  0  0  0  0  0  0  0
   -3.1629   -4.9088    1.3921 H   0  0  0  0  0  0  0  0  0  0  0  0
   -3.6220   -5.1045   -0.3186 H   0  0  0  0  0  0  0  0  0  0  0  0
  1  2  1  0
  1 26  1  0
  1 27  1  0
  1 28  1  0
  2  3  2  0
  2  7  1  0
  3  4  1  0
  4  5  1  0
  5  6  1  0
  5  7  2  0
  6 29  1  0
  6 30  1  0
  6 31  1  0
  7  8  1  0
  8  9  2  0
  8 10  2  0
  8 11  1  6
 11 12  1  0
 11 32  1  0
 12 13  1  0
 12 33  1  0
 12 34  1  0
 13 14  1  0
 13 21  1  0
 13 35  1  1
 14 15  2  0
 14 20  1  0
 15 16  1  0
 15 36  1  0
 16 17  2  0
 16 37  1  0
 17 18  1  0
 17 19  1  0
 19 20  2  0
 19 38  1  0
 20 39  1  0
 21 22  1  0
 21 25  1  0
 22 23  1  0
 22 40  1  0
 22 41  1  0
 23 24  1  0
 23 42  1  0
 23 43  1  0
 24 25  1  0
 24 44  1  0
 24 45  1  0
 25 46  1  0
 25 47  1  0
M  END

