
     RDKit          3D

 31 32  0  0  0  0  0  0  0  0999 V2000
    2.3645   -1.4138    1.5990 C   0  0  0  0  0  0  0  0  0  0  0  0
    3.2482   -0.5787    0.6894 C   0  0  0  0  0  0  0  0  0  0  0  0
    3.8809    0.3630    1.1277 O   0  0  0  0  0  0  0  0  0  0  0  0
    3.3266   -0.9382   -0.7656 C   0  0  0  0  0  0  0  0  0  0  0  0
    4.1470   -0.1638   -1.6021 C   0  0  0  0  0  0  0  0  0  0  0  0
    4.2601   -0.4489   -2.9584 C   0  0  0  0  0  0  0  0  0  0  0  0
    3.5543   -1.5248   -3.5161 C   0  0  0  0  0  0  0  0  0  0  0  0
    3.5850   -1.8487   -4.8371 O   0  0  0  0  0  0  0  0  0  0  0  0
    4.5336   -1.3289   -5.6861 C   0  0  0  0  0  0  0  0  0  0  0  0
    4.1282   -0.5587   -6.7748 C   0  0  0  0  0  0  0  0  0  0  0  0
    5.0569   -0.0827   -7.7157 C   0  0  0  0  0  0  0  0  0  0  0  0
    4.5939    0.7402   -8.8936 C   0  0  0  0  0  0  0  0  0  0  0  0
    6.4103   -0.3976   -7.5274 C   0  0  0  0  0  0  0  0  0  0  0  0
    6.8308   -1.1691   -6.4385 C   0  0  0  0  0  0  0  0  0  0  0  0
    5.8929   -1.6356   -5.5272 C   0  0  0  0  0  0  0  0  0  0  0  0
    6.2737   -2.3795   -4.4809 F   0  0  0  0  0  0  0  0  0  0  0  0
    2.7246   -2.3032   -2.6847 C   0  0  0  0  0  0  0  0  0  0  0  0
    1.8328   -3.6372   -3.3655 Cl  0  0  0  0  0  0  0  0  0  0  0  0
    2.6152   -2.0112   -1.3273 C   0  0  0  0  0  0  0  0  0  0  0  0
    2.4290   -1.0117    2.6179 H   0  0  0  0  0  0  0  0  0  0  0  0
    2.6835   -2.4687    1.6017 H   0  0  0  0  0  0  0  0  0  0  0  0
    1.3152   -1.3904    1.2629 H   0  0  0  0  0  0  0  0  0  0  0  0
    4.6918    0.6713   -1.1583 H   0  0  0  0  0  0  0  0  0  0  0  0
    4.8942    0.1655   -3.5995 H   0  0  0  0  0  0  0  0  0  0  0  0
    3.0616   -0.3447   -6.8776 H   0  0  0  0  0  0  0  0  0  0  0  0
    4.0330    1.6309   -8.5659 H   0  0  0  0  0  0  0  0  0  0  0  0
    3.9223    0.1592   -9.5475 H   0  0  0  0  0  0  0  0  0  0  0  0
    5.4422    1.0822   -9.5040 H   0  0  0  0  0  0  0  0  0  0  0  0
    7.1536   -0.0380   -8.2433 H   0  0  0  0  0  0  0  0  0  0  0  0
    7.8820   -1.4233   -6.2875 H   0  0  0  0  0  0  0  0  0  0  0  0
    1.9644   -2.6414   -0.7209 H   0  0  0  0  0  0  0  0  0  0  0  0
  1  2  1  0
  1 20  1  0
  1 21  1  0
  1 22  1  0
  2  3  2  0
  2  4  1  0
  4  5  2  0
  4 19  1  0
  5  6  1  0
  5 23  1  0
  6  7  2  0
  6 24  1  0
  7  8  1  0
  7 17  1  0
  8  9  1  0
  9 10  2  0
  9 15  1  0
 10 11  1  0
 10 25  1  0
 11 12  1  0
 11 13  2  0
 12 26  1  0
 12 27  1  0
 12 28  1  0
 13 14  1  0
 13 29  1  0
 14 15  2  0
 14 30  1  0
 15 16  1  0
 17 18  1  0
 17 19  2  0
 19 31  1  0
M  END

