
     RDKit          3D

 33 34  0  0  0  0  0  0  0  0999 V2000
    5.4725   -3.1839    5.9129 C   0  0  0  0  0  0  0  0  0  0  0  0
    4.9815   -3.6353    4.5756 C   0  0  0  0  0  0  0  0  0  0  0  0
    4.3379   -4.7444    4.3720 N   0  0  0  0  0  0  0  0  0  0  0  0
    4.0266   -4.9721    3.0700 N   0  0  0  0  0  0  0  0  0  0  0  0
    4.4193   -4.0141    2.2784 C   0  0  0  0  0  0  0  0  0  0  0  0
    4.1262   -4.0152    0.9257 N   0  0  0  0  0  0  0  0  0  0  0  0
    5.2466   -3.5732   -0.2932 S   0  0  1  0  0  0  0  0  0  0  0  0
    4.5317   -3.8419   -1.5366 O   0  0  0  0  0  0  0  0  0  0  0  0
    5.6283   -2.1973    0.0571 O   0  0  0  0  0  0  0  0  0  0  0  0
    6.6799   -4.6421   -0.1012 C   0  0  0  0  0  0  0  0  0  0  0  0
    7.9723   -4.0547    0.0737 C   0  0  0  0  0  0  0  0  0  0  0  0
    8.2378   -2.7195    0.0652 N   0  0  0  0  0  0  0  0  0  0  0  0
    9.0524   -4.9551    0.2430 C   0  0  0  0  0  0  0  0  0  0  0  0
    8.8624   -6.3220    0.2356 C   0  0  0  0  0  0  0  0  0  0  0  0
    7.5965   -6.9047    0.0445 C   0  0  0  0  0  0  0  0  0  0  0  0
    7.4592   -8.4100    0.0554 C   0  0  0  0  0  0  0  0  0  0  0  0
    6.4922   -6.0552   -0.1448 C   0  0  0  0  0  0  0  0  0  0  0  0
    5.1325   -6.6849   -0.3607 C   0  0  0  0  0  0  0  0  0  0  0  0
    5.2450   -2.7027    3.0985 S   0  0  0  0  0  0  0  0  0  0  0  0
    5.1739   -3.9334    6.6583 H   0  0  0  0  0  0  0  0  0  0  0  0
    5.0441   -2.2091    6.1959 H   0  0  0  0  0  0  0  0  0  0  0  0
    6.5700   -3.0853    5.9278 H   0  0  0  0  0  0  0  0  0  0  0  0
    3.5074   -4.7743    0.6461 H   0  0  0  0  0  0  0  0  0  0  0  0
    7.4732   -2.0532    0.0734 H   0  0  0  0  0  0  0  0  0  0  0  0
    9.1716   -2.4156    0.2992 H   0  0  0  0  0  0  0  0  0  0  0  0
   10.0546   -4.5411    0.3830 H   0  0  0  0  0  0  0  0  0  0  0  0
    9.7282   -6.9742    0.3814 H   0  0  0  0  0  0  0  0  0  0  0  0
    8.4268   -8.8838    0.2761 H   0  0  0  0  0  0  0  0  0  0  0  0
    7.1154   -8.8070   -0.9155 H   0  0  0  0  0  0  0  0  0  0  0  0
    6.7405   -8.7580    0.8157 H   0  0  0  0  0  0  0  0  0  0  0  0
    5.2330   -7.6573   -0.8592 H   0  0  0  0  0  0  0  0  0  0  0  0
    4.4813   -6.0684   -0.9911 H   0  0  0  0  0  0  0  0  0  0  0  0
    4.6307   -6.8735    0.6055 H   0  0  0  0  0  0  0  0  0  0  0  0
  1  2  1  0
  1 20  1  0
  1 21  1  0
  1 22  1  0
  2  3  2  0
  2 19  1  0
  3  4  1  0
  4  5  2  0
  5  6  1  0
  5 19  1  0
  7  6  1  1
  6 23  1  0
  7  8  2  0
  7  9  2  0
  7 10  1  0
 10 11  2  0
 10 17  1  0
 11 12  1  0
 11 13  1  0
 12 24  1  0
 12 25  1  0
 13 14  2  0
 13 26  1  0
 14 15  1  0
 14 27  1  0
 15 16  1  0
 15 17  2  0
 16 28  1  0
 16 29  1  0
 16 30  1  0
 17 18  1  0
 18 31  1  0
 18 32  1  0
 18 33  1  0
M  END

