
     RDKit          3D

 31 32  0  0  0  0  0  0  0  0999 V2000
    1.6346   -0.0870   -2.0259 C   0  0  0  0  0  0  0  0  0  0  0  0
    2.7346    0.0828   -1.0083 C   0  0  0  0  0  0  0  0  0  0  0  0
    3.4481    1.2860   -0.9421 C   0  0  0  0  0  0  0  0  0  0  0  0
    4.4786    1.4389   -0.0117 C   0  0  0  0  0  0  0  0  0  0  0  0
    4.8485    0.4711    0.8248 N   0  0  0  0  0  0  0  0  0  0  0  0
    4.1784   -0.6831    0.7616 C   0  0  0  0  0  0  0  0  0  0  0  0
    3.1038   -0.9429   -0.1038 C   0  0  0  0  0  0  0  0  0  0  0  0
    2.4212   -2.3188   -0.1306 C   0  0  1  0  0  0  0  0  0  0  0  0
    3.0348   -3.3687    0.6882 N   0  0  0  0  0  0  0  0  0  0  0  0
    2.9338   -3.3009    2.0890 N   0  0  0  0  0  0  0  0  0  0  0  0
    0.9299   -2.2633    0.1838 C   0  0  0  0  0  0  0  0  0  0  0  0
    0.3862   -1.4273    1.1686 C   0  0  0  0  0  0  0  0  0  0  0  0
   -0.9743   -1.4556    1.4877 C   0  0  0  0  0  0  0  0  0  0  0  0
   -1.8140   -2.3380    0.8155 C   0  0  0  0  0  0  0  0  0  0  0  0
   -3.1173   -2.3886    1.0930 F   0  0  0  0  0  0  0  0  0  0  0  0
   -1.3060   -3.1842   -0.1743 C   0  0  0  0  0  0  0  0  0  0  0  0
   -2.1095   -4.0207   -0.8266 F   0  0  0  0  0  0  0  0  0  0  0  0
    0.0585   -3.1417   -0.4711 C   0  0  0  0  0  0  0  0  0  0  0  0
    0.5116   -3.9564   -1.4282 F   0  0  0  0  0  0  0  0  0  0  0  0
    1.6536    0.7280   -2.7636 H   0  0  0  0  0  0  0  0  0  0  0  0
    0.6415   -0.0873   -1.5484 H   0  0  0  0  0  0  0  0  0  0  0  0
    1.7220   -1.0409   -2.5704 H   0  0  0  0  0  0  0  0  0  0  0  0
    3.2048    2.1048   -1.6245 H   0  0  0  0  0  0  0  0  0  0  0  0
    5.0327    2.3835    0.0476 H   0  0  0  0  0  0  0  0  0  0  0  0
    4.5311   -1.4664    1.4408 H   0  0  0  0  0  0  0  0  0  0  0  0
    2.5095   -2.6902   -1.1660 H   0  0  0  0  0  0  0  0  0  0  0  0
    4.0030   -3.5274    0.4199 H   0  0  0  0  0  0  0  0  0  0  0  0
    2.0558   -3.7230    2.3873 H   0  0  0  0  0  0  0  0  0  0  0  0
    2.9611   -2.3461    2.4566 H   0  0  0  0  0  0  0  0  0  0  0  0
    1.0396   -0.7230    1.6870 H   0  0  0  0  0  0  0  0  0  0  0  0
   -1.3999   -0.8034    2.2522 H   0  0  0  0  0  0  0  0  0  0  0  0
  1  2  1  0
  1 20  1  0
  1 21  1  0
  1 22  1  0
  2  3  2  0
  2  7  1  0
  3  4  1  0
  3 23  1  0
  4  5  2  0
  4 24  1  0
  5  6  1  0
  6  7  2  0
  6 25  1  0
  7  8  1  0
  8  9  1  0
  8 11  1  0
  8 26  1  6
  9 10  1  0
  9 27  1  0
 10 28  1  0
 10 29  1  0
 11 12  2  0
 11 18  1  0
 12 13  1  0
 12 30  1  0
 13 14  2  0
 13 31  1  0
 14 15  1  0
 14 16  1  0
 16 17  1  0
 16 18  2  0
 18 19  1  0
M  END

