
     RDKit          3D

 79 82  0  0  0  0  0  0  0  0999 V2000
   18.4058    2.8067    1.7407 C   0  0  0  0  0  0  0  0  0  0  0  0
   18.7283    1.7930    0.6599 C   0  0  0  0  0  0  0  0  0  0  0  0
   18.2399    0.5267    1.0802 O   0  0  0  0  0  0  0  0  0  0  0  0
   18.4058   -0.5539    0.2725 C   0  0  0  0  0  0  0  0  0  0  0  0
   19.0270   -0.5168   -0.9797 C   0  0  0  0  0  0  0  0  0  0  0  0
   19.1777   -1.6841   -1.7508 C   0  0  0  0  0  0  0  0  0  0  0  0
   19.8490   -1.5798   -3.1300 C   0  0  1  0  0  0  0  0  0  0  0  0
   20.6496   -0.8303   -3.0492 H   0  0  0  0  0  0  0  0  0  0  0  0
   20.4588   -2.8347   -3.5615 N   0  0  0  0  0  0  0  0  0  0  0  0
   19.7995   -3.8031   -4.2577 C   0  0  0  0  0  0  0  0  0  0  0  0
   20.1580   -4.9600   -4.3699 O   0  0  0  0  0  0  0  0  0  0  0  0
   18.6412   -3.3387   -4.9007 N   0  0  0  0  0  0  0  0  0  0  0  0
   18.2754   -2.0136   -5.0209 C   0  0  0  0  0  0  0  0  0  0  0  0
   17.2253   -1.7530   -6.0699 C   0  0  0  0  0  0  0  0  0  0  0  0
   18.8943   -1.0913   -4.2206 C   0  0  0  0  0  0  0  0  0  0  0  0
   18.7443    0.3650   -4.3151 C   0  0  0  0  0  0  0  0  0  0  0  0
   19.3539    1.1584   -3.6197 O   0  0  0  0  0  0  0  0  0  0  0  0
   17.8761    0.7858   -5.2666 O   0  0  0  0  0  0  0  0  0  0  0  0
   17.7242    2.1974   -5.3947 C   0  0  0  0  0  0  0  0  0  0  0  0
   18.7041   -2.8984   -1.2437 C   0  0  0  0  0  0  0  0  0  0  0  0
   18.0713   -2.9390    0.0045 C   0  0  0  0  0  0  0  0  0  0  0  0
   17.9142   -1.7863    0.7695 C   0  0  0  0  0  0  0  0  0  0  0  0
   17.3602   -1.8869    2.0125 O   0  0  0  0  0  0  0  0  0  0  0  0
   16.2039   -1.1275    2.3235 C   0  0  0  0  0  0  0  0  0  0  0  0
   15.2066   -2.0340    3.0380 C   0  0  2  0  0  0  0  0  0  0  0  0
   15.7187   -2.5113    3.8928 H   0  0  0  0  0  0  0  0  0  0  0  0
   14.7174   -2.9551    2.1071 O   0  0  0  0  0  0  0  0  0  0  0  0
   14.0858   -1.2852    3.6043 N   0  0  0  0  0  0  0  0  0  0  0  0
   14.3228   -0.6553    4.7618 N   0  0  0  0  0  0  0  0  0  0  0  0
   13.5584    0.2697    5.2328 C   0  0  0  0  0  0  0  0  0  0  0  0
   12.3135    0.8500    4.6907 C   0  0  0  0  0  0  0  0  0  0  0  0
   11.4152    0.1527    3.8576 C   0  0  0  0  0  0  0  0  0  0  0  0
   10.2410    0.7634    3.4136 C   0  0  0  0  0  0  0  0  0  0  0  0
    8.9502   -0.3235    2.1191 I   0  0  0  0  0  0  0  0  0  0  0  0
    9.9069    2.0809    3.7774 C   0  0  0  0  0  0  0  0  0  0  0  0
    8.7902    2.6862    3.2942 O   0  0  0  0  0  0  0  0  0  0  0  0
    7.5980    2.5716    4.0712 C   0  0  0  0  0  0  0  0  0  0  0  0
    6.4658    3.3029    3.3939 C   0  0  0  0  0  0  0  0  0  0  0  0
    5.1886    3.2752    3.9795 C   0  0  0  0  0  0  0  0  0  0  0  0
    4.1219    3.9449    3.3893 C   0  0  0  0  0  0  0  0  0  0  0  0
    4.3007    4.6459    2.1851 C   0  0  0  0  0  0  0  0  0  0  0  0
    3.1094    5.3537    1.6030 C   0  0  0  0  0  0  0  0  0  0  0  0
    2.1157    5.5998    2.2346 O   0  0  0  0  0  0  0  0  0  0  0  0
    3.1950    5.7097    0.3000 O   0  0  0  0  0  0  0  0  0  0  0  0
    5.5788    4.6827    1.6091 C   0  0  0  0  0  0  0  0  0  0  0  0
    6.6530    4.0179    2.2060 C   0  0  0  0  0  0  0  0  0  0  0  0
   10.8111    2.7686    4.6132 C   0  0  0  0  0  0  0  0  0  0  0  0
   10.4105    4.7849    5.1555 I   0  0  0  0  0  0  0  0  0  0  0  0
   11.9808    2.1668    5.0679 C   0  0  0  0  0  0  0  0  0  0  0  0
   18.7809    3.8008    1.4522 H   0  0  0  0  0  0  0  0  0  0  0  0
   18.8745    2.5212    2.6950 H   0  0  0  0  0  0  0  0  0  0  0  0
   17.3186    2.8790    1.8990 H   0  0  0  0  0  0  0  0  0  0  0  0
   19.8194    1.7352    0.4894 H   0  0  0  0  0  0  0  0  0  0  0  0
   18.2632    2.0784   -0.3020 H   0  0  0  0  0  0  0  0  0  0  0  0
   19.4031    0.4223   -1.3828 H   0  0  0  0  0  0  0  0  0  0  0  0
   21.2535   -3.1814   -3.0348 H   0  0  0  0  0  0  0  0  0  0  0  0
   18.1863   -4.0402   -5.4735 H   0  0  0  0  0  0  0  0  0  0  0  0
   16.8068   -2.7014   -6.4387 H   0  0  0  0  0  0  0  0  0  0  0  0
   17.6533   -1.2057   -6.9229 H   0  0  0  0  0  0  0  0  0  0  0  0
   16.4126   -1.1320   -5.6746 H   0  0  0  0  0  0  0  0  0  0  0  0
   16.9954    2.3541   -6.2002 H   0  0  0  0  0  0  0  0  0  0  0  0
   18.6820    2.6758   -5.6496 H   0  0  0  0  0  0  0  0  0  0  0  0
   17.3564    2.6418   -4.4573 H   0  0  0  0  0  0  0  0  0  0  0  0
   18.8253   -3.8273   -1.8031 H   0  0  0  0  0  0  0  0  0  0  0  0
   17.6846   -3.8734    0.4159 H   0  0  0  0  0  0  0  0  0  0  0  0
   15.7313   -0.7266    1.4100 H   0  0  0  0  0  0  0  0  0  0  0  0
   16.4654   -0.2864    2.9854 H   0  0  0  0  0  0  0  0  0  0  0  0
   14.1976   -3.6165    2.5839 H   0  0  0  0  0  0  0  0  0  0  0  0
   13.5022   -0.8211    2.9011 H   0  0  0  0  0  0  0  0  0  0  0  0
   13.9041    0.6979    6.1815 H   0  0  0  0  0  0  0  0  0  0  0  0
   11.6072   -0.8845    3.5869 H   0  0  0  0  0  0  0  0  0  0  0  0
    7.7674    2.9946    5.0784 H   0  0  0  0  0  0  0  0  0  0  0  0
    7.3345    1.5055    4.1960 H   0  0  0  0  0  0  0  0  0  0  0  0
    5.0297    2.7246    4.9115 H   0  0  0  0  0  0  0  0  0  0  0  0
    3.1295    3.9391    3.8438 H   0  0  0  0  0  0  0  0  0  0  0  0
    3.9867    5.3278   -0.1035 H   0  0  0  0  0  0  0  0  0  0  0  0
    5.7678    5.2590    0.6979 H   0  0  0  0  0  0  0  0  0  0  0  0
    7.6453    4.0558    1.7566 H   0  0  0  0  0  0  0  0  0  0  0  0
   12.6592    2.7230    5.7174 H   0  0  0  0  0  0  0  0  0  0  0  0
  1  2  1  0
  1 50  1  0
  1 51  1  0
  1 52  1  0
  2  3  1  0
  2 53  1  0
  2 54  1  0
  3  4  1  0
  4  5  2  0
  4 22  1  0
  5  6  1  0
  5 55  1  0
  6  7  1  0
  6 20  2  0
  7  8  1  1
  7  9  1  0
  7 15  1  0
  9 10  1  0
  9 56  1  0
 10 11  2  0
 10 12  1  0
 12 13  1  0
 12 57  1  0
 13 14  1  0
 13 15  2  0
 14 58  1  0
 14 59  1  0
 14 60  1  0
 15 16  1  0
 16 17  2  0
 16 18  1  0
 18 19  1  0
 19 61  1  0
 19 62  1  0
 19 63  1  0
 20 21  1  0
 20 64  1  0
 21 22  2  0
 21 65  1  0
 22 23  1  0
 23 24  1  0
 24 25  1  0
 24 66  1  0
 24 67  1  0
 25 26  1  1
 25 27  1  0
 25 28  1  0
 27 68  1  0
 28 29  1  0
 28 69  1  0
 29 30  2  0
 30 31  1  0
 30 70  1  0
 31 32  2  0
 31 49  1  0
 32 33  1  0
 32 71  1  0
 33 34  1  0
 33 35  2  0
 35 36  1  0
 35 47  1  0
 36 37  1  0
 37 38  1  0
 37 72  1  0
 37 73  1  0
 38 39  2  0
 38 46  1  0
 39 40  1  0
 39 74  1  0
 40 41  2  0
 40 75  1  0
 41 42  1  0
 41 45  1  0
 42 43  2  0
 42 44  1  0
 44 76  1  0
 45 46  2  0
 45 77  1  0
 46 78  1  0
 47 48  1  0
 47 49  2  0
 49 79  1  0
M  END

