
     RDKit          3D

 39 40  0  0  0  0  0  0  0  0999 V2000
    3.2156   -3.3037    1.3967 C   0  0  0  0  0  0  0  0  0  0  0  0
    2.9397   -2.8414    0.0473 N   0  0  0  0  0  0  0  0  0  0  0  0
    1.5460   -3.0330   -0.3121 C   0  0  0  0  0  0  0  0  0  0  0  0
    3.4095   -1.4808   -0.2063 C   0  0  0  0  0  0  0  0  0  0  0  0
    4.9311   -1.3998   -0.3459 C   0  0  0  0  0  0  0  0  0  0  0  0
    5.4025   -2.3328   -1.3453 N   0  0  0  0  0  0  0  0  0  0  0  0
    6.2713   -1.9751   -2.3422 C   0  0  0  0  0  0  0  0  0  0  0  0
    6.7398   -0.8449   -2.4221 O   0  0  0  0  0  0  0  0  0  0  0  0
    6.6177   -3.0427   -3.3370 C   0  0  0  0  0  0  0  0  0  0  0  0
    7.2392   -2.6451   -4.5329 C   0  0  0  0  0  0  0  0  0  0  0  0
    7.5856   -3.5771   -5.5003 C   0  0  0  0  0  0  0  0  0  0  0  0
    7.3436   -4.9546   -5.3019 C   0  0  0  0  0  0  0  0  0  0  0  0
    6.7416   -5.3769   -4.0878 C   0  0  0  0  0  0  0  0  0  0  0  0
    6.3884   -4.4140   -3.1408 C   0  0  0  0  0  0  0  0  0  0  0  0
    6.5238   -6.8573   -3.8372 C   0  0  0  0  0  0  0  0  0  0  0  0
    6.4470   -7.6506   -5.1466 C   0  0  0  0  0  0  0  0  0  0  0  0
    7.6312   -7.3002   -6.0475 C   0  0  0  0  0  0  0  0  0  0  0  0
    7.6625   -5.8702   -6.2845 N   0  0  0  0  0  0  0  0  0  0  0  0
    2.9265   -4.3617    1.4989 H   0  0  0  0  0  0  0  0  0  0  0  0
    2.6653   -2.7251    2.1742 H   0  0  0  0  0  0  0  0  0  0  0  0
    4.2894   -3.2309    1.6242 H   0  0  0  0  0  0  0  0  0  0  0  0
    1.2684   -4.0928   -0.1943 H   0  0  0  0  0  0  0  0  0  0  0  0
    1.3824   -2.7560   -1.3651 H   0  0  0  0  0  0  0  0  0  0  0  0
    0.8443   -2.4319    0.3110 H   0  0  0  0  0  0  0  0  0  0  0  0
    3.0733   -0.7693    0.5827 H   0  0  0  0  0  0  0  0  0  0  0  0
    2.9594   -1.1434   -1.1536 H   0  0  0  0  0  0  0  0  0  0  0  0
    5.4198   -1.5857    0.6297 H   0  0  0  0  0  0  0  0  0  0  0  0
    5.2324   -0.3896   -0.6588 H   0  0  0  0  0  0  0  0  0  0  0  0
    4.8909   -3.2068   -1.3974 H   0  0  0  0  0  0  0  0  0  0  0  0
    7.4390   -1.5819   -4.6792 H   0  0  0  0  0  0  0  0  0  0  0  0
    8.0545   -3.2491   -6.4332 H   0  0  0  0  0  0  0  0  0  0  0  0
    5.9458   -4.7678   -2.2045 H   0  0  0  0  0  0  0  0  0  0  0  0
    5.6082   -7.0085   -3.2423 H   0  0  0  0  0  0  0  0  0  0  0  0
    7.3534   -7.2555   -3.2227 H   0  0  0  0  0  0  0  0  0  0  0  0
    5.5110   -7.4077   -5.6780 H   0  0  0  0  0  0  0  0  0  0  0  0
    6.4395   -8.7338   -4.9474 H   0  0  0  0  0  0  0  0  0  0  0  0
    7.5439   -7.8171   -7.0171 H   0  0  0  0  0  0  0  0  0  0  0  0
    8.5700   -7.6616   -5.5755 H   0  0  0  0  0  0  0  0  0  0  0  0
    8.2437   -5.5364   -7.0426 H   0  0  0  0  0  0  0  0  0  0  0  0
  1  2  1  0
  1 19  1  0
  1 20  1  0
  1 21  1  0
  2  3  1  0
  2  4  1  0
  3 22  1  0
  3 23  1  0
  3 24  1  0
  4  5  1  0
  4 25  1  0
  4 26  1  0
  5  6  1  0
  5 27  1  0
  5 28  1  0
  6  7  1  0
  6 29  1  0
  7  8  2  0
  7  9  1  0
  9 10  2  0
  9 14  1  0
 10 11  1  0
 10 30  1  0
 11 12  2  0
 11 31  1  0
 12 13  1  0
 12 18  1  0
 13 14  2  0
 13 15  1  0
 14 32  1  0
 15 16  1  0
 15 33  1  0
 15 34  1  0
 16 17  1  0
 16 35  1  0
 16 36  1  0
 17 18  1  0
 17 37  1  0
 17 38  1  0
 18 39  1  0
M  END

