
     RDKit          3D

 44 47  0  0  0  0  0  0  0  0999 V2000
    5.9183   -2.9243   -4.1219 N   0  0  0  0  0  0  0  0  0  0  0  0
    5.7408   -2.2209   -3.2155 C   0  0  0  0  0  0  0  0  0  0  0  0
    5.5530   -1.3245   -2.1115 C   0  0  0  0  0  0  0  0  0  0  0  0
    6.4231   -0.2336   -1.9228 C   0  0  0  0  0  0  0  0  0  0  0  0
    6.2387    0.6403   -0.8541 C   0  0  0  0  0  0  0  0  0  0  0  0
    5.1859    0.4249    0.0428 C   0  0  0  0  0  0  0  0  0  0  0  0
    4.3170   -0.6548   -0.1227 C   0  0  0  0  0  0  0  0  0  0  0  0
    4.4933   -1.5298   -1.2006 C   0  0  0  0  0  0  0  0  0  0  0  0
    3.7293   -2.6450   -1.3851 O   0  0  0  0  0  0  0  0  0  0  0  0
    2.3796   -2.6763   -1.1457 C   0  0  0  0  0  0  0  0  0  0  0  0
    1.8519   -3.8928   -0.6921 C   0  0  0  0  0  0  0  0  0  0  0  0
    0.4846   -4.0326   -0.4832 C   0  0  0  0  0  0  0  0  0  0  0  0
   -0.3901   -2.9456   -0.7248 C   0  0  0  0  0  0  0  0  0  0  0  0
   -1.7700   -2.9097   -0.5655 N   0  0  0  0  0  0  0  0  0  0  0  0
   -2.6606   -3.7441   -0.2001 C   0  0  0  0  0  0  0  0  0  0  0  0
   -2.5890   -5.1974    0.2493 C   0  0  0  0  0  0  0  0  0  0  0  0
   -1.6385   -5.9369    0.3758 O   0  0  0  0  0  0  0  0  0  0  0  0
   -3.9016   -5.5725    0.5178 N   0  0  0  0  0  0  0  0  0  0  0  0
   -4.8679   -4.5916    0.3276 C   0  0  0  0  0  0  0  0  0  0  0  0
   -6.0494   -4.7392    0.5050 O   0  0  0  0  0  0  0  0  0  0  0  0
   -4.1295   -3.3222   -0.1212 C   0  0  2  0  0  0  0  0  0  0  0  0
   -4.7612   -2.6984   -1.3549 C   0  0  0  0  0  0  0  0  0  0  0  0
   -5.9634   -1.9875   -1.2200 C   0  0  0  0  0  0  0  0  0  0  0  0
   -6.5965   -1.4417   -2.3343 C   0  0  0  0  0  0  0  0  0  0  0  0
   -6.0420   -1.5930   -3.6099 C   0  0  0  0  0  0  0  0  0  0  0  0
   -6.8503   -0.8935   -4.9821 Cl  0  0  0  0  0  0  0  0  0  0  0  0
   -4.8404   -2.3042   -3.7549 C   0  0  0  0  0  0  0  0  0  0  0  0
   -4.1068   -2.5199   -5.3189 Cl  0  0  0  0  0  0  0  0  0  0  0  0
   -4.2106   -2.8513   -2.6316 C   0  0  0  0  0  0  0  0  0  0  0  0
    0.1688   -1.7319   -1.1900 C   0  0  0  0  0  0  0  0  0  0  0  0
    1.5346   -1.5880   -1.4045 C   0  0  0  0  0  0  0  0  0  0  0  0
    7.2404   -0.0845   -2.6307 H   0  0  0  0  0  0  0  0  0  0  0  0
    6.9161    1.4855   -0.7169 H   0  0  0  0  0  0  0  0  0  0  0  0
    5.0426    1.1001    0.8899 H   0  0  0  0  0  0  0  0  0  0  0  0
    3.5064   -0.8300    0.5862 H   0  0  0  0  0  0  0  0  0  0  0  0
    2.5356   -4.7246   -0.5122 H   0  0  0  0  0  0  0  0  0  0  0  0
    0.0804   -4.9794   -0.1296 H   0  0  0  0  0  0  0  0  0  0  0  0
   -4.1352   -6.5108    0.8348 H   0  0  0  0  0  0  0  0  0  0  0  0
   -4.2334   -2.6023    0.7114 H   0  0  0  0  0  0  0  0  0  0  0  0
   -6.4177   -1.8680   -0.2345 H   0  0  0  0  0  0  0  0  0  0  0  0
   -7.5310   -0.8885   -2.2285 H   0  0  0  0  0  0  0  0  0  0  0  0
   -3.2741   -3.3877   -2.7803 H   0  0  0  0  0  0  0  0  0  0  0  0
   -0.5151   -0.9046   -1.3878 H   0  0  0  0  0  0  0  0  0  0  0  0
    1.9406   -0.6474   -1.7798 H   0  0  0  0  0  0  0  0  0  0  0  0
  1  2  3  0
  2  3  1  0
  3  4  2  0
  3  8  1  0
  4  5  1  0
  4 32  1  0
  5  6  2  0
  5 33  1  0
  6  7  1  0
  6 34  1  0
  7  8  2  0
  7 35  1  0
  8  9  1  0
  9 10  1  0
 10 11  2  0
 10 31  1  0
 11 12  1  0
 11 36  1  0
 12 13  2  0
 12 37  1  0
 13 14  1  0
 13 30  1  0
 14 15  2  0
 15 16  1  0
 15 21  1  0
 16 17  2  0
 16 18  1  0
 18 19  1  0
 18 38  1  0
 19 20  2  0
 19 21  1  0
 21 22  1  0
 21 39  1  1
 22 23  2  0
 22 29  1  0
 23 24  1  0
 23 40  1  0
 24 25  2  0
 24 41  1  0
 25 26  1  0
 25 27  1  0
 27 28  1  0
 27 29  2  0
 29 42  1  0
 30 31  2  0
 30 43  1  0
 31 44  1  0
M  END

