
     RDKit          3D

 48 48  0  0  0  0  0  0  0  0999 V2000
    0.7479    0.7796    0.7471 C   0  0  0  0  0  0  0  0  0  0  0  0
    2.1026    1.4220    0.5120 C   0  0  0  0  0  0  0  0  0  0  0  0
    3.0894    0.6688    1.1868 O   0  0  0  0  0  0  0  0  0  0  0  0
    4.3969    1.1443    1.0298 C   0  0  1  0  0  0  0  0  0  0  0  0
    4.8557    2.3702    1.8532 C   0  0  0  0  0  0  0  0  0  0  0  0
    6.1820    1.6267    2.1751 C   0  0  2  0  0  0  0  0  0  0  0  0
    6.6505    1.6511    3.5408 N   0  0  0  0  0  0  0  0  0  0  0  0
    7.1921    2.7746    4.0806 C   0  0  0  0  0  0  0  0  0  0  0  0
    7.2310    3.8518    3.5067 O   0  0  0  0  0  0  0  0  0  0  0  0
    7.7815    2.5741    5.4886 C   0  0  0  0  0  0  0  0  0  0  0  0
    9.0132    1.7957    5.4849 N   0  0  0  0  0  0  0  0  0  0  0  0
    9.0154    0.4381    5.3895 C   0  0  0  0  0  0  0  0  0  0  0  0
    7.9734   -0.2102    5.3389 O   0  0  0  0  0  0  0  0  0  0  0  0
   10.3868   -0.2234    5.3212 C   0  0  0  0  0  0  0  0  0  0  0  0
   10.3947   -1.6245    5.9284 C   0  0  0  0  0  0  0  0  0  0  0  0
    7.2803    2.0333    1.1876 C   0  0  0  0  0  0  0  0  0  0  0  0
    7.0799    2.5556    0.1181 O   0  0  0  0  0  0  0  0  0  0  0  0
    8.5065    1.6727    1.6093 O   0  0  0  0  0  0  0  0  0  0  0  0
    9.5875    2.0247    0.7470 C   0  0  0  0  0  0  0  0  0  0  0  0
    5.4825    0.2655    1.7180 C   0  0  1  0  0  0  0  0  0  0  0  0
    4.9141   -0.5197    2.9057 C   0  0  0  0  0  0  0  0  0  0  0  0
    6.2829   -0.6662    0.8076 C   0  0  0  0  0  0  0  0  0  0  0  0
   -0.0434    1.3419    0.2270 H   0  0  0  0  0  0  0  0  0  0  0  0
    0.5106    0.7578    1.8222 H   0  0  0  0  0  0  0  0  0  0  0  0
    0.7421   -0.2570    0.3754 H   0  0  0  0  0  0  0  0  0  0  0  0
    2.0999    2.4707    0.8734 H   0  0  0  0  0  0  0  0  0  0  0  0
    2.3320    1.4621   -0.5736 H   0  0  0  0  0  0  0  0  0  0  0  0
    4.6295    1.2872   -0.0427 H   0  0  0  0  0  0  0  0  0  0  0  0
    4.2536    2.4841    2.7645 H   0  0  0  0  0  0  0  0  0  0  0  0
    4.9582    3.3329    1.3393 H   0  0  0  0  0  0  0  0  0  0  0  0
    6.7822    0.7765    4.0500 H   0  0  0  0  0  0  0  0  0  0  0  0
    7.0511    2.0587    6.1314 H   0  0  0  0  0  0  0  0  0  0  0  0
    7.9881    3.5697    5.9003 H   0  0  0  0  0  0  0  0  0  0  0  0
    9.8929    2.2930    5.4192 H   0  0  0  0  0  0  0  0  0  0  0  0
   11.1452    0.4230    5.7941 H   0  0  0  0  0  0  0  0  0  0  0  0
   10.6494   -0.2770    4.2485 H   0  0  0  0  0  0  0  0  0  0  0  0
   10.2094   -1.5904    7.0135 H   0  0  0  0  0  0  0  0  0  0  0  0
   11.3640   -2.1183    5.7624 H   0  0  0  0  0  0  0  0  0  0  0  0
    9.6026   -2.2384    5.4767 H   0  0  0  0  0  0  0  0  0  0  0  0
   10.5009    1.6595    1.2335 H   0  0  0  0  0  0  0  0  0  0  0  0
    9.6363    3.1159    0.6142 H   0  0  0  0  0  0  0  0  0  0  0  0
    9.4708    1.5581   -0.2429 H   0  0  0  0  0  0  0  0  0  0  0  0
    4.3530    0.1147    3.6055 H   0  0  0  0  0  0  0  0  0  0  0  0
    5.7163   -1.0293    3.4640 H   0  0  0  0  0  0  0  0  0  0  0  0
    4.2195   -1.2855    2.5313 H   0  0  0  0  0  0  0  0  0  0  0  0
    6.6476   -0.1503   -0.0932 H   0  0  0  0  0  0  0  0  0  0  0  0
    5.6463   -1.5027    0.4766 H   0  0  0  0  0  0  0  0  0  0  0  0
    7.1505   -1.0909    1.3379 H   0  0  0  0  0  0  0  0  0  0  0  0
  1  2  1  0
  1 23  1  0
  1 24  1  0
  1 25  1  0
  2  3  1  0
  2 26  1  0
  2 27  1  0
  3  4  1  0
  4  5  1  0
  4 20  1  0
  4 28  1  6
  5  6  1  0
  5 29  1  0
  5 30  1  0
  6  7  1  0
  6 16  1  6
  6 20  1  0
  7  8  1  0
  7 31  1  0
  8  9  2  0
  8 10  1  0
 10 11  1  0
 10 32  1  0
 10 33  1  0
 11 12  1  0
 11 34  1  0
 12 13  2  0
 12 14  1  0
 14 15  1  0
 14 35  1  0
 14 36  1  0
 15 37  1  0
 15 38  1  0
 15 39  1  0
 16 17  2  0
 16 18  1  0
 18 19  1  0
 19 40  1  0
 19 41  1  0
 19 42  1  0
 20 21  1  1
 20 22  1  0
 21 43  1  0
 21 44  1  0
 21 45  1  0
 22 46  1  0
 22 47  1  0
 22 48  1  0
M  END

