
     RDKit          3D

 48 50  0  0  0  0  0  0  0  0999 V2000
    1.3020   -0.3543   -0.2824 C   0  0  0  0  0  0  0  0  0  0  0  0
    2.5592   -0.0844   -1.0973 C   0  0  1  0  0  0  0  0  0  0  0  0
    2.2985   -0.2712   -2.9397 S   0  0  0  0  0  0  0  0  0  0  0  0
    1.0266    0.9414   -3.3016 C   0  0  0  0  0  0  0  0  0  0  0  0
    1.3600    2.2795   -3.5628 C   0  0  0  0  0  0  0  0  0  0  0  0
    0.3630    3.1980   -3.8990 C   0  0  0  0  0  0  0  0  0  0  0  0
   -0.9708    2.7873   -3.9877 C   0  0  0  0  0  0  0  0  0  0  0  0
   -1.3068    1.4532   -3.7394 C   0  0  0  0  0  0  0  0  0  0  0  0
   -0.3127    0.5319   -3.3977 C   0  0  0  0  0  0  0  0  0  0  0  0
    3.1540    1.2931   -0.7840 C   0  0  0  0  0  0  0  0  0  0  0  0
    2.4515    2.1981   -0.3532 O   0  0  0  0  0  0  0  0  0  0  0  0
    4.4870    1.4771   -1.0210 N   0  0  0  0  0  0  0  0  0  0  0  0
    5.0861    2.7983   -0.8261 C   0  0  0  0  0  0  0  0  0  0  0  0
    6.4096    2.7290   -1.5990 C   0  0  1  0  0  0  0  0  0  0  0  0
    6.2007    2.9340   -2.6659 H   0  0  0  0  0  0  0  0  0  0  0  0
    7.4806    3.7181   -1.1197 C   0  0  0  0  0  0  0  0  0  0  0  0
    7.1549    5.1331   -1.2339 N   0  0  0  0  0  0  0  0  0  0  0  0
    6.8028    1.2359   -1.4632 C   0  0  2  0  0  0  0  0  0  0  0  0
    7.1832    1.0958   -0.4359 H   0  0  0  0  0  0  0  0  0  0  0  0
    7.8640    0.7346   -2.4224 C   0  0  0  0  0  0  0  0  0  0  0  0
    7.6683    0.7649   -3.8147 C   0  0  0  0  0  0  0  0  0  0  0  0
    8.6550    0.3050   -4.6896 C   0  0  0  0  0  0  0  0  0  0  0  0
    9.8615   -0.1966   -4.1902 C   0  0  0  0  0  0  0  0  0  0  0  0
   10.0709   -0.2335   -2.8098 C   0  0  0  0  0  0  0  0  0  0  0  0
    9.0798    0.2278   -1.9376 C   0  0  0  0  0  0  0  0  0  0  0  0
    5.4441    0.5101   -1.5628 C   0  0  0  0  0  0  0  0  0  0  0  0
    0.8820   -1.3388   -0.5346 H   0  0  0  0  0  0  0  0  0  0  0  0
    0.5487    0.4236   -0.4662 H   0  0  0  0  0  0  0  0  0  0  0  0
    1.5367   -0.3335    0.7943 H   0  0  0  0  0  0  0  0  0  0  0  0
    3.3061   -0.8726   -0.9164 H   0  0  0  0  0  0  0  0  0  0  0  0
    2.4032    2.5947   -3.5040 H   0  0  0  0  0  0  0  0  0  0  0  0
    0.6300    4.2396   -4.0950 H   0  0  0  0  0  0  0  0  0  0  0  0
   -1.7487    3.5075   -4.2539 H   0  0  0  0  0  0  0  0  0  0  0  0
   -2.3473    1.1262   -3.8119 H   0  0  0  0  0  0  0  0  0  0  0  0
   -0.5674   -0.5127   -3.2066 H   0  0  0  0  0  0  0  0  0  0  0  0
    5.2618    2.9917    0.2507 H   0  0  0  0  0  0  0  0  0  0  0  0
    4.3986    3.5805   -1.1791 H   0  0  0  0  0  0  0  0  0  0  0  0
    7.7142    3.5025   -0.0607 H   0  0  0  0  0  0  0  0  0  0  0  0
    8.4131    3.5301   -1.6787 H   0  0  0  0  0  0  0  0  0  0  0  0
    6.3259    5.3656   -0.6871 H   0  0  0  0  0  0  0  0  0  0  0  0
    6.9441    5.3797   -2.2014 H   0  0  0  0  0  0  0  0  0  0  0  0
    6.7315    1.1508   -4.2262 H   0  0  0  0  0  0  0  0  0  0  0  0
    8.4802    0.3374   -5.7682 H   0  0  0  0  0  0  0  0  0  0  0  0
   10.6334   -0.5570   -4.8750 H   0  0  0  0  0  0  0  0  0  0  0  0
   11.0094   -0.6233   -2.4070 H   0  0  0  0  0  0  0  0  0  0  0  0
    9.2529    0.1941   -0.8580 H   0  0  0  0  0  0  0  0  0  0  0  0
    5.4521   -0.4313   -0.9892 H   0  0  0  0  0  0  0  0  0  0  0  0
    5.1975    0.2558   -2.6077 H   0  0  0  0  0  0  0  0  0  0  0  0
  1  2  1  0
  1 27  1  0
  1 28  1  0
  1 29  1  0
  2  3  1  0
  2 10  1  0
  2 30  1  1
  3  4  1  0
  4  5  2  0
  4  9  1  0
  5  6  1  0
  5 31  1  0
  6  7  2  0
  6 32  1  0
  7  8  1  0
  7 33  1  0
  8  9  2  0
  8 34  1  0
  9 35  1  0
 10 11  2  0
 10 12  1  0
 12 13  1  0
 12 26  1  0
 13 14  1  0
 13 36  1  0
 13 37  1  0
 14 15  1  6
 14 16  1  0
 14 18  1  0
 16 17  1  0
 16 38  1  0
 16 39  1  0
 17 40  1  0
 17 41  1  0
 18 19  1  1
 18 20  1  0
 18 26  1  0
 20 21  2  0
 20 25  1  0
 21 22  1  0
 21 42  1  0
 22 23  2  0
 22 43  1  0
 23 24  1  0
 23 44  1  0
 24 25  2  0
 24 45  1  0
 25 46  1  0
 26 47  1  0
 26 48  1  0
M  END

