
     RDKit          3D

 43 44  0  0  0  0  0  0  0  0999 V2000
    2.2283    0.6890    0.8097 O   0  0  0  0  0  0  0  0  0  0  0  0
    1.6916   -0.2522    0.2475 C   0  0  0  0  0  0  0  0  0  0  0  0
    2.5046   -1.4603   -0.2424 C   0  0  0  0  0  0  0  0  0  0  0  0
    1.8297   -2.2841   -1.2375 N   0  0  0  0  0  0  0  0  0  0  0  0
    1.9152   -1.6665   -2.5623 C   0  0  0  0  0  0  0  0  0  0  0  0
    1.0689   -2.3050   -3.6691 C   0  0  0  0  0  0  0  0  0  0  0  0
    1.5714   -3.6705   -4.1605 C   0  0  0  0  0  0  0  0  0  0  0  0
    1.1818   -4.8816   -3.2938 C   0  0  0  0  0  0  0  0  0  0  0  0
    1.1355   -4.6394   -1.7738 C   0  0  0  0  0  0  0  0  0  0  0  0
    2.1983   -3.7031   -1.1803 C   0  0  0  0  0  0  0  0  0  0  0  0
    0.3519   -0.3561    0.0410 N   0  0  0  0  0  0  0  0  0  0  0  0
   -0.5881    0.6390    0.5127 C   0  0  0  0  0  0  0  0  0  0  0  0
   -1.0667    0.3963    1.9606 C   0  0  0  0  0  0  0  0  0  0  0  0
   -2.0197    1.4657    2.4436 C   0  0  0  0  0  0  0  0  0  0  0  0
   -3.4104    1.2863    2.3736 C   0  0  0  0  0  0  0  0  0  0  0  0
   -4.2884    2.2940    2.7841 C   0  0  0  0  0  0  0  0  0  0  0  0
   -3.7878    3.5046    3.2712 C   0  0  0  0  0  0  0  0  0  0  0  0
   -2.4046    3.6981    3.3456 C   0  0  0  0  0  0  0  0  0  0  0  0
   -1.5308    2.6881    2.9352 C   0  0  0  0  0  0  0  0  0  0  0  0
    2.7081   -2.0670    0.6552 H   0  0  0  0  0  0  0  0  0  0  0  0
    3.4858   -1.0654   -0.5765 H   0  0  0  0  0  0  0  0  0  0  0  0
    2.9754   -1.6356   -2.9074 H   0  0  0  0  0  0  0  0  0  0  0  0
    1.6017   -0.6165   -2.4487 H   0  0  0  0  0  0  0  0  0  0  0  0
    1.0900   -1.6006   -4.5178 H   0  0  0  0  0  0  0  0  0  0  0  0
    0.0134   -2.3645   -3.3494 H   0  0  0  0  0  0  0  0  0  0  0  0
    2.6711   -3.6137   -4.2470 H   0  0  0  0  0  0  0  0  0  0  0  0
    1.2081   -3.8465   -5.1868 H   0  0  0  0  0  0  0  0  0  0  0  0
    1.8851   -5.7032   -3.5141 H   0  0  0  0  0  0  0  0  0  0  0  0
    0.1907   -5.2535   -3.6063 H   0  0  0  0  0  0  0  0  0  0  0  0
    1.2133   -5.6167   -1.2681 H   0  0  0  0  0  0  0  0  0  0  0  0
    0.1544   -4.2283   -1.4832 H   0  0  0  0  0  0  0  0  0  0  0  0
    3.1909   -3.8922   -1.6493 H   0  0  0  0  0  0  0  0  0  0  0  0
    2.3140   -3.9554   -0.1154 H   0  0  0  0  0  0  0  0  0  0  0  0
    0.0418   -1.2169   -0.4028 H   0  0  0  0  0  0  0  0  0  0  0  0
   -1.4533    0.6665   -0.1694 H   0  0  0  0  0  0  0  0  0  0  0  0
   -0.0909    1.6192    0.4599 H   0  0  0  0  0  0  0  0  0  0  0  0
   -0.1752    0.3640    2.6070 H   0  0  0  0  0  0  0  0  0  0  0  0
   -1.5479   -0.5944    2.0188 H   0  0  0  0  0  0  0  0  0  0  0  0
   -3.8116    0.3395    1.9990 H   0  0  0  0  0  0  0  0  0  0  0  0
   -5.3680    2.1310    2.7263 H   0  0  0  0  0  0  0  0  0  0  0  0
   -4.4722    4.2929    3.5952 H   0  0  0  0  0  0  0  0  0  0  0  0
   -2.0034    4.6400    3.7292 H   0  0  0  0  0  0  0  0  0  0  0  0
   -0.4500    2.8452    3.0008 H   0  0  0  0  0  0  0  0  0  0  0  0
  1  2  2  0
  2  3  1  0
  2 11  1  0
  3  4  1  0
  3 20  1  0
  3 21  1  0
  4  5  1  0
  4 10  1  0
  5  6  1  0
  5 22  1  0
  5 23  1  0
  6  7  1  0
  6 24  1  0
  6 25  1  0
  7  8  1  0
  7 26  1  0
  7 27  1  0
  8  9  1  0
  8 28  1  0
  8 29  1  0
  9 10  1  0
  9 30  1  0
  9 31  1  0
 10 32  1  0
 10 33  1  0
 11 12  1  0
 11 34  1  0
 12 13  1  0
 12 35  1  0
 12 36  1  0
 13 14  1  0
 13 37  1  0
 13 38  1  0
 14 15  2  0
 14 19  1  0
 15 16  1  0
 15 39  1  0
 16 17  2  0
 16 40  1  0
 17 18  1  0
 17 41  1  0
 18 19  2  0
 18 42  1  0
 19 43  1  0
M  END

