
     RDKit          3D

 95 96  0  0  0  0  0  0  0  0999 V2000
    3.2054   -0.6478   -2.7636 C   0  0  0  0  0  0  0  0  0  0  0  0
    2.7031    0.4394   -1.7975 C   0  0  1  0  0  0  0  0  0  0  0  0
    3.2100    1.8219   -2.2397 C   0  0  0  0  0  0  0  0  0  0  0  0
    1.1627    0.4713   -1.7346 C   0  0  0  0  0  0  0  0  0  0  0  0
    0.5221   -0.8130   -1.2184 C   0  0  0  0  0  0  0  0  0  0  0  0
   -0.8989   -0.6485   -1.0475 O   0  0  0  0  0  0  0  0  0  0  0  0
   -1.6828   -0.8364   -2.1277 C   0  0  0  0  0  0  0  0  0  0  0  0
   -1.2566   -1.1263   -3.2197 O   0  0  0  0  0  0  0  0  0  0  0  0
   -3.1556   -0.6880   -1.7892 C   0  0  0  0  0  0  0  0  0  0  0  0
   -3.5081    0.4438   -0.8169 C   0  0  0  0  0  0  0  0  0  0  0  0
   -3.2068    1.8426   -1.3614 C   0  0  0  0  0  0  0  0  0  0  0  0
   -3.5849    2.9503   -0.3813 C   0  0  0  0  0  0  0  0  0  0  0  0
   -3.2476    4.3415   -0.8765 C   0  0  0  0  0  0  0  0  0  0  0  0
   -2.6435    4.5931   -1.8921 O   0  0  0  0  0  0  0  0  0  0  0  0
   -3.7022    5.2781   -0.0208 O   0  0  0  0  0  0  0  0  0  0  0  0
   -3.4514    6.6648   -0.3442 C   0  0  0  0  0  0  0  0  0  0  0  0
   -4.5738    7.2730   -1.1506 C   0  0  0  0  0  0  0  0  0  0  0  0
   -5.6483    7.9045   -0.5060 C   0  0  0  0  0  0  0  0  0  0  0  0
   -6.6996    8.4551   -1.2439 C   0  0  0  0  0  0  0  0  0  0  0  0
   -6.6876    8.3792   -2.6399 C   0  0  0  0  0  0  0  0  0  0  0  0
   -5.6216    7.7513   -3.2923 C   0  0  0  0  0  0  0  0  0  0  0  0
   -4.5711    7.2011   -2.5534 C   0  0  0  0  0  0  0  0  0  0  0  0
    3.0996    0.1609   -0.4445 O   0  0  0  0  0  0  0  0  0  0  0  0
    4.4693    0.0075   -0.1391 C   0  0  0  0  0  0  0  0  0  0  0  0
    4.5664   -0.2190    1.3668 C   0  0  0  0  0  0  0  0  0  0  0  0
    5.9792   -0.4869    1.9200 C   0  0  1  0  0  0  0  0  0  0  0  0
    6.9483    0.6610    1.6236 C   0  0  0  0  0  0  0  0  0  0  0  0
    5.9275   -0.7558    3.4281 C   0  0  0  0  0  0  0  0  0  0  0  0
    6.5986   -1.6265    1.2271 O   0  0  0  0  0  0  0  0  0  0  0  0
    6.0974   -2.8759    1.2803 C   0  0  0  0  0  0  0  0  0  0  0  0
    5.0868   -3.1923    1.8615 O   0  0  0  0  0  0  0  0  0  0  0  0
    6.9785   -3.8390    0.5056 C   0  0  0  0  0  0  0  0  0  0  0  0
    8.4177   -3.9194    1.0429 C   0  0  0  0  0  0  0  0  0  0  0  0
    9.2994   -4.9520    0.3303 C   0  0  0  0  0  0  0  0  0  0  0  0
    9.5983   -4.6206   -1.1312 C   0  0  0  0  0  0  0  0  0  0  0  0
   10.5286   -5.6154   -1.7956 C   0  0  0  0  0  0  0  0  0  0  0  0
   11.0217   -6.5771   -1.2557 O   0  0  0  0  0  0  0  0  0  0  0  0
   10.7428   -5.2827   -3.0831 O   0  0  0  0  0  0  0  0  0  0  0  0
   11.6066   -6.1390   -3.8662 C   0  0  0  0  0  0  0  0  0  0  0  0
   10.8374   -7.2301   -4.5716 C   0  0  0  0  0  0  0  0  0  0  0  0
   10.3305   -7.0190   -5.8629 C   0  0  0  0  0  0  0  0  0  0  0  0
    9.6023   -8.0171   -6.5157 C   0  0  0  0  0  0  0  0  0  0  0  0
    9.3721   -9.2416   -5.8814 C   0  0  0  0  0  0  0  0  0  0  0  0
    9.8728   -9.4622   -4.5942 C   0  0  0  0  0  0  0  0  0  0  0  0
   10.6006   -8.4634   -3.9424 C   0  0  0  0  0  0  0  0  0  0  0  0
    2.7342   -0.5293   -3.7513 H   0  0  0  0  0  0  0  0  0  0  0  0
    2.9675   -1.6549   -2.3896 H   0  0  0  0  0  0  0  0  0  0  0  0
    4.2950   -0.5887   -2.9083 H   0  0  0  0  0  0  0  0  0  0  0  0
    2.7937    2.0874   -3.2236 H   0  0  0  0  0  0  0  0  0  0  0  0
    4.3069    1.8476   -2.3292 H   0  0  0  0  0  0  0  0  0  0  0  0
    2.9018    2.5915   -1.5154 H   0  0  0  0  0  0  0  0  0  0  0  0
    0.7678    0.6964   -2.7373 H   0  0  0  0  0  0  0  0  0  0  0  0
    0.8671    1.2963   -1.0658 H   0  0  0  0  0  0  0  0  0  0  0  0
    0.9097   -1.0609   -0.2230 H   0  0  0  0  0  0  0  0  0  0  0  0
    0.6971   -1.6541   -1.9037 H   0  0  0  0  0  0  0  0  0  0  0  0
   -3.4716   -1.6542   -1.3567 H   0  0  0  0  0  0  0  0  0  0  0  0
   -3.6870   -0.5818   -2.7468 H   0  0  0  0  0  0  0  0  0  0  0  0
   -2.9621    0.2873    0.1278 H   0  0  0  0  0  0  0  0  0  0  0  0
   -4.5822    0.3676   -0.5722 H   0  0  0  0  0  0  0  0  0  0  0  0
   -3.7420    2.0009   -2.3133 H   0  0  0  0  0  0  0  0  0  0  0  0
   -2.1352    1.9329   -1.6036 H   0  0  0  0  0  0  0  0  0  0  0  0
   -3.0732    2.8162    0.5887 H   0  0  0  0  0  0  0  0  0  0  0  0
   -4.6622    2.9338   -0.1414 H   0  0  0  0  0  0  0  0  0  0  0  0
   -2.4966    6.7340   -0.8833 H   0  0  0  0  0  0  0  0  0  0  0  0
   -3.3597    7.1637    0.6302 H   0  0  0  0  0  0  0  0  0  0  0  0
   -5.6596    7.9681    0.5861 H   0  0  0  0  0  0  0  0  0  0  0  0
   -7.5285    8.9469   -0.7283 H   0  0  0  0  0  0  0  0  0  0  0  0
   -7.5076    8.8113   -3.2194 H   0  0  0  0  0  0  0  0  0  0  0  0
   -5.6071    7.6910   -4.3837 H   0  0  0  0  0  0  0  0  0  0  0  0
   -3.7427    6.6997   -3.0591 H   0  0  0  0  0  0  0  0  0  0  0  0
    5.0450    0.9034   -0.4377 H   0  0  0  0  0  0  0  0  0  0  0  0
    4.9092   -0.8527   -0.6777 H   0  0  0  0  0  0  0  0  0  0  0  0
    3.9136   -1.0626    1.6295 H   0  0  0  0  0  0  0  0  0  0  0  0
    4.1648    0.6701    1.8808 H   0  0  0  0  0  0  0  0  0  0  0  0
    6.5606    1.6042    2.0376 H   0  0  0  0  0  0  0  0  0  0  0  0
    7.0993    0.7894    0.5422 H   0  0  0  0  0  0  0  0  0  0  0  0
    7.9297    0.4591    2.0785 H   0  0  0  0  0  0  0  0  0  0  0  0
    5.5955    0.1532    3.9533 H   0  0  0  0  0  0  0  0  0  0  0  0
    6.9292   -1.0186    3.8027 H   0  0  0  0  0  0  0  0  0  0  0  0
    5.2348   -1.5726    3.6653 H   0  0  0  0  0  0  0  0  0  0  0  0
    6.9846   -3.5109   -0.5477 H   0  0  0  0  0  0  0  0  0  0  0  0
    6.4890   -4.8230    0.5497 H   0  0  0  0  0  0  0  0  0  0  0  0
    8.3789   -4.1731    2.1160 H   0  0  0  0  0  0  0  0  0  0  0  0
    8.8795   -2.9200    0.9783 H   0  0  0  0  0  0  0  0  0  0  0  0
    8.8334   -5.9503    0.3875 H   0  0  0  0  0  0  0  0  0  0  0  0
   10.2551   -5.0441    0.8709 H   0  0  0  0  0  0  0  0  0  0  0  0
   10.0573   -3.6208   -1.2305 H   0  0  0  0  0  0  0  0  0  0  0  0
    8.6834   -4.5789   -1.7464 H   0  0  0  0  0  0  0  0  0  0  0  0
   12.3757   -6.5620   -3.2056 H   0  0  0  0  0  0  0  0  0  0  0  0
   12.0781   -5.4640   -4.5934 H   0  0  0  0  0  0  0  0  0  0  0  0
   10.5112   -6.0630   -6.3633 H   0  0  0  0  0  0  0  0  0  0  0  0
    9.2160   -7.8398   -7.5227 H   0  0  0  0  0  0  0  0  0  0  0  0
    8.8047  -10.0247   -6.3910 H   0  0  0  0  0  0  0  0  0  0  0  0
    9.6968  -10.4187   -4.0952 H   0  0  0  0  0  0  0  0  0  0  0  0
   10.9833   -8.6281   -2.9326 H   0  0  0  0  0  0  0  0  0  0  0  0
  1  2  1  0
  1 46  1  0
  1 47  1  0
  1 48  1  0
  2  3  1  0
  2  4  1  0
  2 23  1  1
  3 49  1  0
  3 50  1  0
  3 51  1  0
  4  5  1  0
  4 52  1  0
  4 53  1  0
  5  6  1  0
  5 54  1  0
  5 55  1  0
  6  7  1  0
  7  8  2  0
  7  9  1  0
  9 10  1  0
  9 56  1  0
  9 57  1  0
 10 11  1  0
 10 58  1  0
 10 59  1  0
 11 12  1  0
 11 60  1  0
 11 61  1  0
 12 13  1  0
 12 62  1  0
 12 63  1  0
 13 14  2  0
 13 15  1  0
 15 16  1  0
 16 17  1  0
 16 64  1  0
 16 65  1  0
 17 18  2  0
 17 22  1  0
 18 19  1  0
 18 66  1  0
 19 20  2  0
 19 67  1  0
 20 21  1  0
 20 68  1  0
 21 22  2  0
 21 69  1  0
 22 70  1  0
 23 24  1  0
 24 25  1  0
 24 71  1  0
 24 72  1  0
 25 26  1  0
 25 73  1  0
 25 74  1  0
 26 27  1  0
 26 28  1  0
 26 29  1  6
 27 75  1  0
 27 76  1  0
 27 77  1  0
 28 78  1  0
 28 79  1  0
 28 80  1  0
 29 30  1  0
 30 31  2  0
 30 32  1  0
 32 33  1  0
 32 81  1  0
 32 82  1  0
 33 34  1  0
 33 83  1  0
 33 84  1  0
 34 35  1  0
 34 85  1  0
 34 86  1  0
 35 36  1  0
 35 87  1  0
 35 88  1  0
 36 37  2  0
 36 38  1  0
 38 39  1  0
 39 40  1  0
 39 89  1  0
 39 90  1  0
 40 41  2  0
 40 45  1  0
 41 42  1  0
 41 91  1  0
 42 43  2  0
 42 92  1  0
 43 44  1  0
 43 93  1  0
 44 45  2  0
 44 94  1  0
 45 95  1  0
M  END

