
     RDKit          3D

 39 40  0  0  0  0  0  0  0  0999 V2000
    0.9807   -0.2525    0.1546 C   0  0  0  0  0  0  0  0  0  0  0  0
    2.4750   -0.2089   -0.0231 C   0  0  0  0  0  0  0  0  0  0  0  0
    3.1262   -0.6485   -1.1858 C   0  0  0  0  0  0  0  0  0  0  0  0
    4.5147   -0.5953   -1.3157 C   0  0  0  0  0  0  0  0  0  0  0  0
    5.3200   -0.0930   -0.2795 C   0  0  0  0  0  0  0  0  0  0  0  0
    6.8372   -0.0234   -0.4713 C   0  0  1  0  0  0  0  0  0  0  0  0
    7.6120    0.4437    0.7699 C   0  0  0  0  0  0  0  0  0  0  0  0
    7.3052   -1.3073   -0.9787 N   0  0  0  0  0  0  0  0  0  0  0  0
    8.5159   -1.5141   -1.6300 C   0  0  0  0  0  0  0  0  0  0  0  0
    9.2905   -0.4414   -2.1159 C   0  0  0  0  0  0  0  0  0  0  0  0
   10.4752   -0.6874   -2.8073 C   0  0  0  0  0  0  0  0  0  0  0  0
   10.9148   -1.9924   -3.0180 C   0  0  0  0  0  0  0  0  0  0  0  0
   10.1652   -3.0809   -2.5405 C   0  0  0  0  0  0  0  0  0  0  0  0
   10.6747   -4.4840   -2.7896 C   0  0  0  0  0  0  0  0  0  0  0  0
    8.9612   -2.8505   -1.8454 C   0  0  0  0  0  0  0  0  0  0  0  0
    8.1080   -3.9841   -1.3269 C   0  0  0  0  0  0  0  0  0  0  0  0
    4.6861    0.3492    0.8894 C   0  0  0  0  0  0  0  0  0  0  0  0
    3.2992    0.2838    0.9923 C   0  0  0  0  0  0  0  0  0  0  0  0
    2.7219    0.7153    2.1309 F   0  0  0  0  0  0  0  0  0  0  0  0
    0.4880   -0.6518   -0.7434 H   0  0  0  0  0  0  0  0  0  0  0  0
    0.5713    0.7513    0.3547 H   0  0  0  0  0  0  0  0  0  0  0  0
    0.6968   -0.8844    1.0123 H   0  0  0  0  0  0  0  0  0  0  0  0
    2.5230   -1.0409   -2.0095 H   0  0  0  0  0  0  0  0  0  0  0  0
    4.9890   -0.9523   -2.2321 H   0  0  0  0  0  0  0  0  0  0  0  0
    7.0083    0.7188   -1.2713 H   0  0  0  0  0  0  0  0  0  0  0  0
    7.4383   -0.2316    1.6230 H   0  0  0  0  0  0  0  0  0  0  0  0
    7.3248    1.4632    1.0706 H   0  0  0  0  0  0  0  0  0  0  0  0
    8.6909    0.4477    0.5577 H   0  0  0  0  0  0  0  0  0  0  0  0
    6.9274   -2.1070   -0.4866 H   0  0  0  0  0  0  0  0  0  0  0  0
    8.9690    0.5885   -1.9586 H   0  0  0  0  0  0  0  0  0  0  0  0
   11.0634    0.1555   -3.1801 H   0  0  0  0  0  0  0  0  0  0  0  0
   11.8480   -2.1768   -3.5560 H   0  0  0  0  0  0  0  0  0  0  0  0
   11.6275   -4.4599   -3.3379 H   0  0  0  0  0  0  0  0  0  0  0  0
    9.9661   -5.0828   -3.3865 H   0  0  0  0  0  0  0  0  0  0  0  0
   10.8485   -5.0351   -1.8501 H   0  0  0  0  0  0  0  0  0  0  0  0
    8.5217   -4.9690   -1.5728 H   0  0  0  0  0  0  0  0  0  0  0  0
    7.0859   -3.9448   -1.7450 H   0  0  0  0  0  0  0  0  0  0  0  0
    8.0020   -3.9489   -0.2259 H   0  0  0  0  0  0  0  0  0  0  0  0
    5.2403    0.7502    1.7379 H   0  0  0  0  0  0  0  0  0  0  0  0
  1  2  1  0
  1 20  1  0
  1 21  1  0
  1 22  1  0
  2  3  2  0
  2 18  1  0
  3  4  1  0
  3 23  1  0
  4  5  2  0
  4 24  1  0
  5  6  1  0
  5 17  1  0
  6  7  1  0
  6  8  1  0
  6 25  1  6
  7 26  1  0
  7 27  1  0
  7 28  1  0
  8  9  1  0
  8 29  1  0
  9 10  2  0
  9 15  1  0
 10 11  1  0
 10 30  1  0
 11 12  2  0
 11 31  1  0
 12 13  1  0
 12 32  1  0
 13 14  1  0
 13 15  2  0
 14 33  1  0
 14 34  1  0
 14 35  1  0
 15 16  1  0
 16 36  1  0
 16 37  1  0
 16 38  1  0
 17 18  2  0
 17 39  1  0
 18 19  1  0
M  END

