
     RDKit          3D

 35 35  0  0  0  0  0  0  0  0999 V2000
    1.0471   -0.0498    0.2054 C   0  0  0  0  0  0  0  0  0  0  0  0
    2.5823   -0.0255    0.1822 C   0  0  1  0  0  0  0  0  0  0  0  0
    3.1356   -1.0370    1.1967 C   0  0  0  0  0  0  0  0  0  0  0  0
    3.1382   -0.2989   -1.2458 C   0  0  1  0  0  0  0  0  0  0  0  0
    2.5613    0.6168   -2.3607 C   0  0  0  0  0  0  0  0  0  0  0  0
    2.7901    2.1248   -2.2302 C   0  0  0  0  0  0  0  0  0  0  0  0
    2.1552    2.9172   -3.3739 C   0  0  0  0  0  0  0  0  0  0  0  0
    2.4622    4.3391   -3.2560 N   0  0  0  0  0  0  0  0  0  0  0  0
    4.6613   -0.3762   -1.3318 C   0  0  0  0  0  0  0  0  0  0  0  0
    5.2580   -1.4519   -2.0114 C   0  0  0  0  0  0  0  0  0  0  0  0
    6.6405   -1.5435   -2.1465 C   0  0  0  0  0  0  0  0  0  0  0  0
    7.1618   -2.5921   -2.8035 F   0  0  0  0  0  0  0  0  0  0  0  0
    7.4926   -0.5805   -1.6141 C   0  0  0  0  0  0  0  0  0  0  0  0
    6.9237    0.4962   -0.9326 C   0  0  0  0  0  0  0  0  0  0  0  0
    5.5391    0.5837   -0.8054 C   0  0  0  0  0  0  0  0  0  0  0  0
    5.0473    1.6450   -0.1312 F   0  0  0  0  0  0  0  0  0  0  0  0
    0.6764    0.0764    1.2353 H   0  0  0  0  0  0  0  0  0  0  0  0
    0.6565   -1.0121   -0.1695 H   0  0  0  0  0  0  0  0  0  0  0  0
    0.6005    0.7520   -0.4014 H   0  0  0  0  0  0  0  0  0  0  0  0
    2.9096    0.9770    0.4987 H   0  0  0  0  0  0  0  0  0  0  0  0
    2.8420   -2.0675    0.9301 H   0  0  0  0  0  0  0  0  0  0  0  0
    2.7434   -0.8318    2.2057 H   0  0  0  0  0  0  0  0  0  0  0  0
    4.2339   -1.0096    1.2559 H   0  0  0  0  0  0  0  0  0  0  0  0
    2.7893   -1.3146   -1.5051 H   0  0  0  0  0  0  0  0  0  0  0  0
    1.4777    0.4224   -2.4352 H   0  0  0  0  0  0  0  0  0  0  0  0
    2.9857    0.2754   -3.3212 H   0  0  0  0  0  0  0  0  0  0  0  0
    3.8641    2.3636   -2.2034 H   0  0  0  0  0  0  0  0  0  0  0  0
    2.3760    2.4896   -1.2727 H   0  0  0  0  0  0  0  0  0  0  0  0
    1.0659    2.6861   -3.4101 H   0  0  0  0  0  0  0  0  0  0  0  0
    2.5703    2.5578   -4.3328 H   0  0  0  0  0  0  0  0  0  0  0  0
    2.0323    4.7224   -2.4126 H   0  0  0  0  0  0  0  0  0  0  0  0
    2.0612    4.8582   -4.0370 H   0  0  0  0  0  0  0  0  0  0  0  0
    4.6382   -2.2405   -2.4442 H   0  0  0  0  0  0  0  0  0  0  0  0
    8.5728   -0.6803   -1.7333 H   0  0  0  0  0  0  0  0  0  0  0  0
    7.5411    1.2817   -0.4926 H   0  0  0  0  0  0  0  0  0  0  0  0
  1  2  1  0
  1 17  1  0
  1 18  1  0
  1 19  1  0
  2  3  1  0
  2  4  1  0
  2 20  1  1
  3 21  1  0
  3 22  1  0
  3 23  1  0
  4  5  1  0
  4  9  1  0
  4 24  1  6
  5  6  1  0
  5 25  1  0
  5 26  1  0
  6  7  1  0
  6 27  1  0
  6 28  1  0
  7  8  1  0
  7 29  1  0
  7 30  1  0
  8 31  1  0
  8 32  1  0
  9 10  2  0
  9 15  1  0
 10 11  1  0
 10 33  1  0
 11 12  1  0
 11 13  2  0
 13 14  1  0
 13 34  1  0
 14 15  2  0
 14 35  1  0
 15 16  1  0
M  END

