
     RDKit          3D

 37 38  0  0  0  0  0  0  0  0999 V2000
    0.9454    0.1401    0.2668 C   0  0  0  0  0  0  0  0  0  0  0  0
    2.4216   -0.2399    0.1450 C   0  0  0  0  0  0  0  0  0  0  0  0
    2.9729   -0.0994   -1.2782 C   0  0  0  0  0  0  0  0  0  0  0  0
    4.4524   -0.4766   -1.3904 C   0  0  0  0  0  0  0  0  0  0  0  0
    5.0291   -0.4557   -2.8160 C   0  0  1  0  0  0  0  0  0  0  0  0
    4.9847    0.9360   -3.4657 C   0  0  0  0  0  0  0  0  0  0  0  0
    6.3903   -0.9771   -2.7600 N   0  0  0  0  0  0  0  0  0  0  0  0
    7.0780   -1.5426   -3.7953 C   0  0  0  0  0  0  0  0  0  0  0  0
    6.4924   -1.7610   -5.0692 C   0  0  0  0  0  0  0  0  0  0  0  0
    7.1904   -2.3723   -6.1056 C   0  0  0  0  0  0  0  0  0  0  0  0
    8.5097   -2.8038   -5.9313 C   0  0  0  0  0  0  0  0  0  0  0  0
    9.1203   -2.5901   -4.6979 C   0  0  0  0  0  0  0  0  0  0  0  0
    8.4402   -1.9527   -3.6542 C   0  0  0  0  0  0  0  0  0  0  0  0
    9.1678   -1.6735   -2.4562 N   0  0  0  0  0  0  0  0  0  0  0  0
   10.4814   -1.3814   -2.2962 C   0  0  0  0  0  0  0  0  0  0  0  0
   10.7288   -1.2148   -1.0149 N   0  0  0  0  0  0  0  0  0  0  0  0
    9.5534   -1.3934   -0.3820 N   0  0  0  0  0  0  0  0  0  0  0  0
    8.6155   -1.6717   -1.2213 N   0  0  0  0  0  0  0  0  0  0  0  0
    0.5832    0.0267    1.3009 H   0  0  0  0  0  0  0  0  0  0  0  0
    0.3133   -0.4933   -0.3781 H   0  0  0  0  0  0  0  0  0  0  0  0
    0.7743    1.1879   -0.0322 H   0  0  0  0  0  0  0  0  0  0  0  0
    2.5657   -1.2802    0.4887 H   0  0  0  0  0  0  0  0  0  0  0  0
    3.0224    0.3864    0.8291 H   0  0  0  0  0  0  0  0  0  0  0  0
    2.8184    0.9391   -1.6201 H   0  0  0  0  0  0  0  0  0  0  0  0
    2.3795   -0.7351   -1.9620 H   0  0  0  0  0  0  0  0  0  0  0  0
    4.5976   -1.4923   -0.9827 H   0  0  0  0  0  0  0  0  0  0  0  0
    5.0544    0.1992   -0.7542 H   0  0  0  0  0  0  0  0  0  0  0  0
    4.4153   -1.1449   -3.4262 H   0  0  0  0  0  0  0  0  0  0  0  0
    5.5194    1.6690   -2.8397 H   0  0  0  0  0  0  0  0  0  0  0  0
    3.9495    1.2851   -3.6018 H   0  0  0  0  0  0  0  0  0  0  0  0
    5.4663    0.9250   -4.4553 H   0  0  0  0  0  0  0  0  0  0  0  0
    6.8387   -1.0264   -1.8488 H   0  0  0  0  0  0  0  0  0  0  0  0
    5.4630   -1.4472   -5.2386 H   0  0  0  0  0  0  0  0  0  0  0  0
    6.6880   -2.5233   -7.0646 H   0  0  0  0  0  0  0  0  0  0  0  0
    9.0517   -3.3029   -6.7362 H   0  0  0  0  0  0  0  0  0  0  0  0
   10.1443   -2.9310   -4.5305 H   0  0  0  0  0  0  0  0  0  0  0  0
   11.1931   -1.2842   -3.1120 H   0  0  0  0  0  0  0  0  0  0  0  0
  1  2  1  0
  1 19  1  0
  1 20  1  0
  1 21  1  0
  2  3  1  0
  2 22  1  0
  2 23  1  0
  3  4  1  0
  3 24  1  0
  3 25  1  0
  4  5  1  0
  4 26  1  0
  4 27  1  0
  5  6  1  0
  5  7  1  0
  5 28  1  6
  6 29  1  0
  6 30  1  0
  6 31  1  0
  7  8  1  0
  7 32  1  0
  8  9  2  0
  8 13  1  0
  9 10  1  0
  9 33  1  0
 10 11  2  0
 10 34  1  0
 11 12  1  0
 11 35  1  0
 12 13  2  0
 12 36  1  0
 13 14  1  0
 14 15  1  0
 14 18  1  0
 15 16  2  0
 15 37  1  0
 16 17  1  0
 17 18  2  0
M  END

