
     RDKit          3D

 42 43  0  0  0  0  0  0  0  0999 V2000
    8.2117   -1.9007   -4.6158 C   0  0  0  0  0  0  0  0  0  0  0  0
    7.8080   -0.7542   -3.7082 C   0  0  0  0  0  0  0  0  0  0  0  0
    6.6178   -1.1227   -3.0316 O   0  0  0  0  0  0  0  0  0  0  0  0
    6.0207   -0.2493   -2.1703 C   0  0  0  0  0  0  0  0  0  0  0  0
    6.5519    1.0099   -1.8533 C   0  0  0  0  0  0  0  0  0  0  0  0
    5.8897    1.8381   -0.9398 C   0  0  0  0  0  0  0  0  0  0  0  0
    4.7016    1.4185   -0.3438 C   0  0  0  0  0  0  0  0  0  0  0  0
    4.1739    0.1645   -0.6725 C   0  0  0  0  0  0  0  0  0  0  0  0
    4.8084   -0.6840   -1.5833 C   0  0  0  0  0  0  0  0  0  0  0  0
    4.2508   -2.0739   -1.9059 C   0  0  1  0  0  0  0  0  0  0  0  0
    4.9367   -3.1060   -0.9971 C   0  0  0  0  0  0  0  0  0  0  0  0
    2.7832   -2.0761   -1.7903 N   0  0  0  0  0  0  0  0  0  0  0  0
    2.1096   -1.3541   -2.8713 C   0  0  0  0  0  0  0  0  0  0  0  0
    1.9451   -2.1862   -4.1552 C   0  0  0  0  0  0  0  0  0  0  0  0
    1.2332   -3.5122   -3.8619 C   0  0  0  0  0  0  0  0  0  0  0  0
    1.9139   -4.2748   -2.7188 C   0  0  2  0  0  0  0  0  0  0  0  0
    1.1725   -5.4958   -2.4152 N   0  0  0  0  0  0  0  0  0  0  0  0
    2.0910   -3.3270   -1.5071 C   0  0  0  0  0  0  0  0  0  0  0  0
    9.1370   -1.6495   -5.1572 H   0  0  0  0  0  0  0  0  0  0  0  0
    7.4226   -2.1102   -5.3542 H   0  0  0  0  0  0  0  0  0  0  0  0
    8.3885   -2.8170   -4.0319 H   0  0  0  0  0  0  0  0  0  0  0  0
    7.6391    0.1686   -4.2949 H   0  0  0  0  0  0  0  0  0  0  0  0
    8.6082   -0.5361   -2.9757 H   0  0  0  0  0  0  0  0  0  0  0  0
    7.4814    1.3516   -2.3084 H   0  0  0  0  0  0  0  0  0  0  0  0
    6.3144    2.8165   -0.6998 H   0  0  0  0  0  0  0  0  0  0  0  0
    4.1828    2.0624    0.3706 H   0  0  0  0  0  0  0  0  0  0  0  0
    3.2354   -0.1806   -0.2334 H   0  0  0  0  0  0  0  0  0  0  0  0
    4.5702   -2.3098   -2.9397 H   0  0  0  0  0  0  0  0  0  0  0  0
    4.6535   -2.9569    0.0569 H   0  0  0  0  0  0  0  0  0  0  0  0
    6.0258   -2.9838   -1.0786 H   0  0  0  0  0  0  0  0  0  0  0  0
    4.6992   -4.1415   -1.2856 H   0  0  0  0  0  0  0  0  0  0  0  0
    2.6593   -0.4237   -3.0779 H   0  0  0  0  0  0  0  0  0  0  0  0
    1.1072   -1.0533   -2.5111 H   0  0  0  0  0  0  0  0  0  0  0  0
    2.9379   -2.3882   -4.5954 H   0  0  0  0  0  0  0  0  0  0  0  0
    1.3859   -1.6045   -4.9079 H   0  0  0  0  0  0  0  0  0  0  0  0
    1.1787   -4.1536   -4.7564 H   0  0  0  0  0  0  0  0  0  0  0  0
    0.1867   -3.3045   -3.5622 H   0  0  0  0  0  0  0  0  0  0  0  0
    2.9189   -4.5834   -3.0643 H   0  0  0  0  0  0  0  0  0  0  0  0
    0.2440   -5.2588   -2.0586 H   0  0  0  0  0  0  0  0  0  0  0  0
    1.6348   -6.0179   -1.6693 H   0  0  0  0  0  0  0  0  0  0  0  0
    2.5847   -3.8604   -0.6818 H   0  0  0  0  0  0  0  0  0  0  0  0
    1.0759   -3.0726   -1.1399 H   0  0  0  0  0  0  0  0  0  0  0  0
  1  2  1  0
  1 19  1  0
  1 20  1  0
  1 21  1  0
  2  3  1  0
  2 22  1  0
  2 23  1  0
  3  4  1  0
  4  5  2  0
  4  9  1  0
  5  6  1  0
  5 24  1  0
  6  7  2  0
  6 25  1  0
  7  8  1  0
  7 26  1  0
  8  9  2  0
  8 27  1  0
  9 10  1  0
 10 11  1  0
 10 12  1  0
 10 28  1  6
 11 29  1  0
 11 30  1  0
 11 31  1  0
 12 13  1  0
 12 18  1  0
 13 14  1  0
 13 32  1  0
 13 33  1  0
 14 15  1  0
 14 34  1  0
 14 35  1  0
 15 16  1  0
 15 36  1  0
 15 37  1  0
 16 17  1  0
 16 18  1  0
 16 38  1  6
 17 39  1  0
 17 40  1  0
 18 41  1  0
 18 42  1  0
M  END

