
     RDKit          3D

 45 48  0  0  0  0  0  0  0  0999 V2000
    4.7468   -1.1731    1.2527 C   0  0  0  0  0  0  0  0  0  0  0  0
    5.2166   -2.4023    0.6389 N   0  0  0  0  0  0  0  0  0  0  0  0
    6.4370   -2.9899    0.8339 C   0  0  0  0  0  0  0  0  0  0  0  0
    6.5077   -4.1417    0.2189 N   0  0  0  0  0  0  0  0  0  0  0  0
    5.3029   -4.3382   -0.3986 N   0  0  0  0  0  0  0  0  0  0  0  0
    4.5296   -3.3037   -0.1416 C   0  0  0  0  0  0  0  0  0  0  0  0
    3.1212   -3.1225   -0.6494 C   0  0  1  0  0  0  0  0  0  0  0  0
    3.0751   -2.1523   -1.1789 H   0  0  0  0  0  0  0  0  0  0  0  0
    2.7175   -4.2383   -1.6386 C   0  0  0  0  0  0  0  0  0  0  0  0
    2.4689   -5.5808   -0.9351 C   0  0  0  0  0  0  0  0  0  0  0  0
    1.5338   -5.4505    0.2765 C   0  0  0  0  0  0  0  0  0  0  0  0
    1.9562   -4.3598    1.1595 N   0  0  0  0  0  0  0  0  0  0  0  0
    2.5458   -4.4878    2.3963 C   0  0  0  0  0  0  0  0  0  0  0  0
    3.1431   -3.5525    2.9254 O   0  0  0  0  0  0  0  0  0  0  0  0
    2.4253   -5.7978    3.1162 C   0  0  0  0  0  0  0  0  0  0  0  0
    1.2369   -6.4361    3.3842 C   0  0  0  0  0  0  0  0  0  0  0  0
    1.4673   -7.8497    4.3509 S   0  0  0  0  0  0  0  0  0  0  0  0
    3.1918   -7.5997    4.3984 C   0  0  0  0  0  0  0  0  0  0  0  0
    3.5577   -6.4616    3.7175 C   0  0  0  0  0  0  0  0  0  0  0  0
    4.9983   -6.0175    3.6189 C   0  0  0  0  0  0  0  0  0  0  0  0
    5.8946   -6.7688    4.6152 C   0  0  0  0  0  0  0  0  0  0  0  0
    5.5812   -8.2695    4.6507 C   0  0  0  0  0  0  0  0  0  0  0  0
    4.1374   -8.5261    5.1141 C   0  0  0  0  0  0  0  0  0  0  0  0
    2.0647   -3.0755    0.4818 C   0  0  0  0  0  0  0  0  0  0  0  0
    5.6129   -0.5560    1.5288 H   0  0  0  0  0  0  0  0  0  0  0  0
    4.1570   -1.4035    2.1527 H   0  0  0  0  0  0  0  0  0  0  0  0
    4.1324   -0.6012    0.5423 H   0  0  0  0  0  0  0  0  0  0  0  0
    7.2282   -2.5311    1.4262 H   0  0  0  0  0  0  0  0  0  0  0  0
    3.4926   -4.3599   -2.4090 H   0  0  0  0  0  0  0  0  0  0  0  0
    1.7951   -3.9095   -2.1499 H   0  0  0  0  0  0  0  0  0  0  0  0
    3.4359   -5.9879   -0.6058 H   0  0  0  0  0  0  0  0  0  0  0  0
    2.0309   -6.3015   -1.6460 H   0  0  0  0  0  0  0  0  0  0  0  0
    1.5084   -6.3887    0.8408 H   0  0  0  0  0  0  0  0  0  0  0  0
    0.5005   -5.2391   -0.0592 H   0  0  0  0  0  0  0  0  0  0  0  0
    0.2347   -6.1346    3.0827 H   0  0  0  0  0  0  0  0  0  0  0  0
    5.0518   -4.9318    3.7874 H   0  0  0  0  0  0  0  0  0  0  0  0
    5.3628   -6.1753    2.5868 H   0  0  0  0  0  0  0  0  0  0  0  0
    5.7503   -6.3493    5.6275 H   0  0  0  0  0  0  0  0  0  0  0  0
    6.9532   -6.6048    4.3572 H   0  0  0  0  0  0  0  0  0  0  0  0
    6.2822   -8.7978    5.3172 H   0  0  0  0  0  0  0  0  0  0  0  0
    5.7217   -8.6953    3.6413 H   0  0  0  0  0  0  0  0  0  0  0  0
    4.0626   -8.3667    6.2064 H   0  0  0  0  0  0  0  0  0  0  0  0
    3.8577   -9.5792    4.9417 H   0  0  0  0  0  0  0  0  0  0  0  0
    2.2864   -2.3111    1.2326 H   0  0  0  0  0  0  0  0  0  0  0  0
    1.0872   -2.8344    0.0274 H   0  0  0  0  0  0  0  0  0  0  0  0
  1  2  1  0
  1 25  1  0
  1 26  1  0
  1 27  1  0
  2  3  1  0
  2  6  1  0
  3  4  2  0
  3 28  1  0
  4  5  1  0
  5  6  2  0
  6  7  1  0
  7  8  1  6
  7  9  1  0
  7 24  1  0
  9 10  1  0
  9 29  1  0
  9 30  1  0
 10 11  1  0
 10 31  1  0
 10 32  1  0
 11 12  1  0
 11 33  1  0
 11 34  1  0
 12 13  1  0
 12 24  1  0
 13 14  2  0
 13 15  1  0
 15 16  2  0
 15 19  1  0
 16 17  1  0
 16 35  1  0
 17 18  1  0
 18 19  2  0
 18 23  1  0
 19 20  1  0
 20 21  1  0
 20 36  1  0
 20 37  1  0
 21 22  1  0
 21 38  1  0
 21 39  1  0
 22 23  1  0
 22 40  1  0
 22 41  1  0
 23 42  1  0
 23 43  1  0
 24 44  1  0
 24 45  1  0
M  END

