
     RDKit          3D

 38 38  0  0  0  0  0  0  0  0999 V2000
    3.2417    2.4484   -1.5887 C   0  0  0  0  0  0  0  0  0  0  0  0
    3.5231    1.2694   -0.7862 N   0  0  0  0  0  0  0  0  0  0  0  0
    3.2088    1.3839    0.6252 C   0  0  0  0  0  0  0  0  0  0  0  0
    4.0800    0.1729   -1.3878 C   0  0  0  0  0  0  0  0  0  0  0  0
    4.3425    0.1360   -2.5815 O   0  0  0  0  0  0  0  0  0  0  0  0
    4.3491   -1.0604   -0.4998 C   0  0  0  0  0  0  0  0  0  0  0  0
    5.0532   -2.0935   -1.2420 N   0  0  0  0  0  0  0  0  0  0  0  0
    4.2914   -2.8684   -2.1949 C   0  0  0  0  0  0  0  0  0  0  0  0
    3.4650   -3.9892   -1.5713 C   0  0  1  0  0  0  0  0  0  0  0  0
    2.4941   -3.5141   -0.7602 F   0  0  0  0  0  0  0  0  0  0  0  0
    2.8606   -4.6941   -2.5420 F   0  0  0  0  0  0  0  0  0  0  0  0
    4.2076   -4.8331   -0.8464 F   0  0  0  0  0  0  0  0  0  0  0  0
    6.4353   -2.0846   -1.1514 C   0  0  0  0  0  0  0  0  0  0  0  0
    7.0052   -1.3573   -0.3543 O   0  0  0  0  0  0  0  0  0  0  0  0
    7.2517   -3.0206   -2.0467 C   0  0  0  0  0  0  0  0  0  0  0  0
    7.3289   -4.4494   -1.5368 C   0  0  0  0  0  0  0  0  0  0  0  0
    7.6603   -4.7066   -0.1959 C   0  0  0  0  0  0  0  0  0  0  0  0
    7.7539   -6.0197    0.2695 C   0  0  0  0  0  0  0  0  0  0  0  0
    7.5230   -7.1007   -0.5870 C   0  0  0  0  0  0  0  0  0  0  0  0
    7.1997   -6.8315   -1.9133 C   0  0  0  0  0  0  0  0  0  0  0  0
    6.9766   -7.8528   -2.7544 F   0  0  0  0  0  0  0  0  0  0  0  0
    7.0993   -5.5290   -2.3992 C   0  0  0  0  0  0  0  0  0  0  0  0
    2.1685    2.7044   -1.5419 H   0  0  0  0  0  0  0  0  0  0  0  0
    3.5223    2.2416   -2.6275 H   0  0  0  0  0  0  0  0  0  0  0  0
    3.8177    3.3163   -1.2218 H   0  0  0  0  0  0  0  0  0  0  0  0
    2.1380    1.6163    0.7672 H   0  0  0  0  0  0  0  0  0  0  0  0
    3.7919    2.1977    1.0932 H   0  0  0  0  0  0  0  0  0  0  0  0
    3.4269    0.4588    1.1684 H   0  0  0  0  0  0  0  0  0  0  0  0
    3.4011   -1.4591   -0.1107 H   0  0  0  0  0  0  0  0  0  0  0  0
    4.9844   -0.7846    0.3511 H   0  0  0  0  0  0  0  0  0  0  0  0
    4.9509   -3.3452   -2.9273 H   0  0  0  0  0  0  0  0  0  0  0  0
    3.6081   -2.2146   -2.7581 H   0  0  0  0  0  0  0  0  0  0  0  0
    8.2582   -2.5766   -2.0430 H   0  0  0  0  0  0  0  0  0  0  0  0
    6.8982   -3.0027   -3.0876 H   0  0  0  0  0  0  0  0  0  0  0  0
    7.8467   -3.8689    0.4801 H   0  0  0  0  0  0  0  0  0  0  0  0
    8.0114   -6.2079    1.3147 H   0  0  0  0  0  0  0  0  0  0  0  0
    7.5890   -8.1358   -0.2471 H   0  0  0  0  0  0  0  0  0  0  0  0
    6.8453   -5.3796   -3.4513 H   0  0  0  0  0  0  0  0  0  0  0  0
  1  2  1  0
  1 23  1  0
  1 24  1  0
  1 25  1  0
  2  3  1  0
  2  4  1  0
  3 26  1  0
  3 27  1  0
  3 28  1  0
  4  5  2  0
  4  6  1  0
  6  7  1  0
  6 29  1  0
  6 30  1  0
  7  8  1  0
  7 13  1  0
  8  9  1  0
  8 31  1  0
  8 32  1  0
  9 10  1  1
  9 11  1  0
  9 12  1  0
 13 14  2  0
 13 15  1  0
 15 16  1  0
 15 33  1  0
 15 34  1  0
 16 17  2  0
 16 22  1  0
 17 18  1  0
 17 35  1  0
 18 19  2  0
 18 36  1  0
 19 20  1  0
 19 37  1  0
 20 21  1  0
 20 22  2  0
 22 38  1  0
M  END

