
     RDKit          3D

 85 87  0  0  0  0  0  0  0  0999 V2000
    2.5671   -1.4643   -0.1460 C   0  0  0  0  0  0  0  0  0  0  0  0
    3.1299   -1.1043   -1.5276 C   0  0  1  0  0  0  0  0  0  0  0  0
    2.1687   -1.5466   -2.6389 C   0  0  0  0  0  0  0  0  0  0  0  0
    3.4529    0.3959   -1.6628 C   0  0  0  0  0  0  0  0  0  0  0  0
    4.5436    0.9157   -0.7065 C   0  0  0  0  0  0  0  0  0  0  0  0
    4.9210    2.3669   -0.9043 C   0  0  0  0  0  0  0  0  0  0  0  0
    5.9255    2.7579   -1.7712 C   0  0  0  0  0  0  0  0  0  0  0  0
    6.6273    1.9540   -2.5729 O   0  0  0  0  0  0  0  0  0  0  0  0
    6.2349    4.2250   -1.6252 C   0  0  2  0  0  0  0  0  0  0  0  0
    7.1119    4.2290   -0.2606 C   0  0  0  0  0  0  0  0  0  0  0  0
    6.8294    3.5884    1.1179 C   0  0  0  0  0  0  0  0  0  0  0  0
    7.3442    2.1508    1.3599 C   0  0  1  0  0  0  0  0  0  0  0  0
    8.8777    2.0830    1.3978 C   0  0  0  0  0  0  0  0  0  0  0  0
    6.7468    1.5898    2.6571 C   0  0  0  0  0  0  0  0  0  0  0  0
    4.6994    4.5940   -1.9154 C   0  0  0  0  0  0  0  0  0  0  0  0
    4.2235    4.5636   -3.0203 O   0  0  0  0  0  0  0  0  0  0  0  0
    4.1028    4.9117   -0.6141 C   0  0  2  0  0  0  0  0  0  0  0  0
    2.6171    5.3735   -0.4681 C   0  0  0  0  0  0  0  0  0  0  0  0
    2.3907    6.4283    0.0921 O   0  0  0  0  0  0  0  0  0  0  0  0
    1.4521    4.5362   -0.9199 C   0  0  0  0  0  0  0  0  0  0  0  0
    0.2377    4.7351   -0.2347 C   0  0  0  0  0  0  0  0  0  0  0  0
   -0.9081    4.0307   -0.5966 C   0  0  0  0  0  0  0  0  0  0  0  0
   -0.8669    3.1301   -1.6676 C   0  0  0  0  0  0  0  0  0  0  0  0
    0.3273    2.9407   -2.3669 C   0  0  0  0  0  0  0  0  0  0  0  0
    1.4846    3.6311   -1.9928 C   0  0  0  0  0  0  0  0  0  0  0  0
    5.0868    6.1308   -0.2802 C   0  0  0  0  0  0  0  0  0  0  0  0
    6.0108    6.6282   -1.5075 C   0  0  1  0  0  0  0  0  0  0  0  0
    6.8271    7.8407   -1.0156 C   0  0  0  0  0  0  0  0  0  0  0  0
    7.2150    8.8574   -2.0987 C   0  0  0  0  0  0  0  0  0  0  0  0
    7.8840   10.1433   -1.5746 C   0  0  1  0  0  0  0  0  0  0  0  0
    9.2419    9.8786   -0.9096 C   0  0  0  0  0  0  0  0  0  0  0  0
    8.0258   11.1739   -2.7024 C   0  0  0  0  0  0  0  0  0  0  0  0
    6.8614    5.4884   -2.3648 C   0  0  2  0  0  0  0  0  0  0  0  0
    6.5969    5.6309   -3.8835 C   0  0  0  0  0  0  0  0  0  0  0  0
    8.4082    5.5954   -2.2743 C   0  0  0  0  0  0  0  0  0  0  0  0
    4.1793    3.3869   -0.0669 C   0  0  0  0  0  0  0  0  0  0  0  0
    3.4811    3.0560    0.8700 O   0  0  0  0  0  0  0  0  0  0  0  0
    2.3336   -2.5395   -0.0837 H   0  0  0  0  0  0  0  0  0  0  0  0
    1.6360   -0.9074    0.0556 H   0  0  0  0  0  0  0  0  0  0  0  0
    3.2734   -1.2346    0.6665 H   0  0  0  0  0  0  0  0  0  0  0  0
    4.0769   -1.6644   -1.6618 H   0  0  0  0  0  0  0  0  0  0  0  0
    1.2038   -1.0174   -2.5569 H   0  0  0  0  0  0  0  0  0  0  0  0
    1.9604   -2.6274   -2.5833 H   0  0  0  0  0  0  0  0  0  0  0  0
    2.5800   -1.3347   -3.6395 H   0  0  0  0  0  0  0  0  0  0  0  0
    2.5322    0.9822   -1.5038 H   0  0  0  0  0  0  0  0  0  0  0  0
    3.7609    0.5997   -2.7051 H   0  0  0  0  0  0  0  0  0  0  0  0
    5.4436    0.2758   -0.8057 H   0  0  0  0  0  0  0  0  0  0  0  0
    4.2091    0.8010    0.3346 H   0  0  0  0  0  0  0  0  0  0  0  0
    6.2960    1.0437   -2.5051 H   0  0  0  0  0  0  0  0  0  0  0  0
    7.4053    5.2573   -0.0594 H   0  0  0  0  0  0  0  0  0  0  0  0
    8.0296    3.7509   -0.6361 H   0  0  0  0  0  0  0  0  0  0  0  0
    5.7768    3.6503    1.4120 H   0  0  0  0  0  0  0  0  0  0  0  0
    7.3478    4.2327    1.8525 H   0  0  0  0  0  0  0  0  0  0  0  0
    7.0039    1.5094    0.5301 H   0  0  0  0  0  0  0  0  0  0  0  0
    9.2771    2.6792    2.2366 H   0  0  0  0  0  0  0  0  0  0  0  0
    9.3397    2.4614    0.4718 H   0  0  0  0  0  0  0  0  0  0  0  0
    9.2245    1.0458    1.5342 H   0  0  0  0  0  0  0  0  0  0  0  0
    7.0470    2.2033    3.5244 H   0  0  0  0  0  0  0  0  0  0  0  0
    7.0906    0.5598    2.8466 H   0  0  0  0  0  0  0  0  0  0  0  0
    5.6459    1.5824    2.6222 H   0  0  0  0  0  0  0  0  0  0  0  0
    0.2170    5.4517    0.5877 H   0  0  0  0  0  0  0  0  0  0  0  0
   -1.8393    4.1858   -0.0456 H   0  0  0  0  0  0  0  0  0  0  0  0
   -1.7668    2.5819   -1.9590 H   0  0  0  0  0  0  0  0  0  0  0  0
    0.3615    2.2539   -3.2165 H   0  0  0  0  0  0  0  0  0  0  0  0
    2.3974    3.4995   -2.5710 H   0  0  0  0  0  0  0  0  0  0  0  0
    5.6708    5.9558    0.6290 H   0  0  0  0  0  0  0  0  0  0  0  0
    4.4182    6.9686   -0.0527 H   0  0  0  0  0  0  0  0  0  0  0  0
    5.2885    7.0213   -2.2412 H   0  0  0  0  0  0  0  0  0  0  0  0
    7.7217    7.4980   -0.4706 H   0  0  0  0  0  0  0  0  0  0  0  0
    6.2169    8.3752   -0.2663 H   0  0  0  0  0  0  0  0  0  0  0  0
    6.2997    9.1403   -2.6489 H   0  0  0  0  0  0  0  0  0  0  0  0
    7.8820    8.3949   -2.8471 H   0  0  0  0  0  0  0  0  0  0  0  0
    7.2126   10.5759   -0.8079 H   0  0  0  0  0  0  0  0  0  0  0  0
    9.9483    9.4217   -1.6247 H   0  0  0  0  0  0  0  0  0  0  0  0
    9.1595    9.2038   -0.0434 H   0  0  0  0  0  0  0  0  0  0  0  0
    9.6957   10.8167   -0.5508 H   0  0  0  0  0  0  0  0  0  0  0  0
    8.6829   10.7943   -3.5041 H   0  0  0  0  0  0  0  0  0  0  0  0
    8.4636   12.1156   -2.3336 H   0  0  0  0  0  0  0  0  0  0  0  0
    7.0508   11.4122   -3.1575 H   0  0  0  0  0  0  0  0  0  0  0  0
    5.5420    5.6748   -4.1590 H   0  0  0  0  0  0  0  0  0  0  0  0
    7.0484    4.7823   -4.4227 H   0  0  0  0  0  0  0  0  0  0  0  0
    7.0838    6.5484   -4.2480 H   0  0  0  0  0  0  0  0  0  0  0  0
    8.8267    5.7443   -1.2746 H   0  0  0  0  0  0  0  0  0  0  0  0
    8.7569    6.4334   -2.8922 H   0  0  0  0  0  0  0  0  0  0  0  0
    8.8601    4.6823   -2.6936 H   0  0  0  0  0  0  0  0  0  0  0  0
  1  2  1  0
  1 38  1  0
  1 39  1  0
  1 40  1  0
  2  3  1  0
  2  4  1  0
  2 41  1  6
  3 42  1  0
  3 43  1  0
  3 44  1  0
  4  5  1  0
  4 45  1  0
  4 46  1  0
  5  6  1  0
  5 47  1  0
  5 48  1  0
  6  7  2  0
  6 36  1  0
  7  8  1  0
  7  9  1  0
  8 49  1  0
  9 10  1  1
  9 15  1  0
  9 33  1  0
 10 11  1  0
 10 50  1  0
 10 51  1  0
 11 12  1  0
 11 52  1  0
 11 53  1  0
 12 13  1  0
 12 14  1  0
 12 54  1  6
 13 55  1  0
 13 56  1  0
 13 57  1  0
 14 58  1  0
 14 59  1  0
 14 60  1  0
 15 16  2  0
 15 17  1  0
 17 18  1  6
 17 26  1  0
 17 36  1  0
 18 19  2  0
 18 20  1  0
 20 21  2  0
 20 25  1  0
 21 22  1  0
 21 61  1  0
 22 23  2  0
 22 62  1  0
 23 24  1  0
 23 63  1  0
 24 25  2  0
 24 64  1  0
 25 65  1  0
 26 27  1  0
 26 66  1  0
 26 67  1  0
 27 28  1  0
 27 33  1  0
 27 68  1  6
 28 29  1  0
 28 69  1  0
 28 70  1  0
 29 30  1  0
 29 71  1  0
 29 72  1  0
 30 31  1  0
 30 32  1  0
 30 73  1  1
 31 74  1  0
 31 75  1  0
 31 76  1  0
 32 77  1  0
 32 78  1  0
 32 79  1  0
 33 34  1  6
 33 35  1  0
 34 80  1  0
 34 81  1  0
 34 82  1  0
 35 83  1  0
 35 84  1  0
 35 85  1  0
 36 37  2  0
M  END

