
     RDKit          3D

 53 55  0  0  0  0  0  0  0  0999 V2000
    0.8641   -0.1491   -0.3250 C   0  0  0  0  0  0  0  0  0  0  0  0
    2.0710   -0.2407    0.4089 O   0  0  0  0  0  0  0  0  0  0  0  0
    2.6697    0.8924    0.8410 C   0  0  0  0  0  0  0  0  0  0  0  0
    2.1791    2.1727    0.5807 C   0  0  0  0  0  0  0  0  0  0  0  0
    2.8285    3.3217    1.0761 C   0  0  0  0  0  0  0  0  0  0  0  0
    2.3557    4.6047    0.7917 N   0  0  0  0  0  0  0  0  0  0  0  0
    1.2240    4.9591    0.0997 C   0  0  0  0  0  0  0  0  0  0  0  0
    0.4072    4.1864   -0.3874 O   0  0  0  0  0  0  0  0  0  0  0  0
    1.0289    6.4195   -0.0368 C   0  0  0  0  0  0  0  0  0  0  0  0
    0.0262    7.1227   -0.6556 C   0  0  0  0  0  0  0  0  0  0  0  0
    0.3438    8.5050   -0.4821 C   0  0  0  0  0  0  0  0  0  0  0  0
    1.5138    8.5375    0.2289 C   0  0  0  0  0  0  0  0  0  0  0  0
    1.9348    7.2828    0.5028 O   0  0  0  0  0  0  0  0  0  0  0  0
    3.9883    3.1713    1.8875 C   0  0  0  0  0  0  0  0  0  0  0  0
    4.6672    4.3574    2.4951 C   0  0  0  0  0  0  0  0  0  0  0  0
    4.4708    5.5121    2.0973 O   0  0  0  0  0  0  0  0  0  0  0  0
    5.5226    4.1179    3.5298 N   0  0  0  0  0  0  0  0  0  0  0  0
    6.2434    5.1861    4.2198 C   0  0  1  0  0  0  0  0  0  0  0  0
    5.4024    5.7965    5.3617 C   0  0  0  0  0  0  0  0  0  0  0  0
    5.2396    4.8171    6.5312 C   0  0  0  0  0  0  0  0  0  0  0  0
    6.6101    4.2987    6.9949 C   0  0  0  0  0  0  0  0  0  0  0  0
    7.4392    3.7602    5.9177 N   0  0  0  0  0  0  0  0  0  0  0  0
    7.5966    4.6363    4.7494 C   0  0  2  0  0  0  0  0  0  0  0  0
    8.6004    5.7590    5.0384 C   0  0  0  0  0  0  0  0  0  0  0  0
    4.4806    1.8676    2.0954 C   0  0  0  0  0  0  0  0  0  0  0  0
    3.8589    0.7313    1.5978 C   0  0  0  0  0  0  0  0  0  0  0  0
    4.3764   -0.4952    1.9030 O   0  0  0  0  0  0  0  0  0  0  0  0
    4.8457   -1.2947    0.8265 C   0  0  0  0  0  0  0  0  0  0  0  0
    0.5583   -1.1803   -0.5454 H   0  0  0  0  0  0  0  0  0  0  0  0
    1.0030    0.3994   -1.2725 H   0  0  0  0  0  0  0  0  0  0  0  0
    0.0717    0.3485    0.2593 H   0  0  0  0  0  0  0  0  0  0  0  0
    1.2782    2.3228   -0.0057 H   0  0  0  0  0  0  0  0  0  0  0  0
    2.9815    5.3467    1.1376 H   0  0  0  0  0  0  0  0  0  0  0  0
   -0.8253    6.6820   -1.1675 H   0  0  0  0  0  0  0  0  0  0  0  0
   -0.2203    9.3648   -0.8373 H   0  0  0  0  0  0  0  0  0  0  0  0
    2.1411    9.3447    0.5985 H   0  0  0  0  0  0  0  0  0  0  0  0
    5.5339    3.1946    3.9428 H   0  0  0  0  0  0  0  0  0  0  0  0
    6.4254    5.9611    3.4617 H   0  0  0  0  0  0  0  0  0  0  0  0
    4.4279    6.1108    4.9573 H   0  0  0  0  0  0  0  0  0  0  0  0
    5.9024    6.7145    5.7165 H   0  0  0  0  0  0  0  0  0  0  0  0
    4.6085    3.9644    6.2194 H   0  0  0  0  0  0  0  0  0  0  0  0
    4.7100    5.3006    7.3698 H   0  0  0  0  0  0  0  0  0  0  0  0
    6.4955    3.5179    7.7643 H   0  0  0  0  0  0  0  0  0  0  0  0
    7.1610    5.1238    7.4814 H   0  0  0  0  0  0  0  0  0  0  0  0
    7.1168    2.8344    5.6432 H   0  0  0  0  0  0  0  0  0  0  0  0
    8.0272    4.0140    3.9469 H   0  0  0  0  0  0  0  0  0  0  0  0
    8.2416    6.4576    5.8098 H   0  0  0  0  0  0  0  0  0  0  0  0
    8.8017    6.3459    4.1287 H   0  0  0  0  0  0  0  0  0  0  0  0
    9.5460    5.3251    5.3952 H   0  0  0  0  0  0  0  0  0  0  0  0
    5.4016    1.6981    2.6557 H   0  0  0  0  0  0  0  0  0  0  0  0
    5.2831   -2.1985    1.2740 H   0  0  0  0  0  0  0  0  0  0  0  0
    5.6285   -0.7676    0.2503 H   0  0  0  0  0  0  0  0  0  0  0  0
    4.0307   -1.5858    0.1459 H   0  0  0  0  0  0  0  0  0  0  0  0
  1  2  1  0
  1 29  1  0
  1 30  1  0
  1 31  1  0
  2  3  1  0
  3  4  2  0
  3 26  1  0
  4  5  1  0
  4 32  1  0
  5  6  1  0
  5 14  2  0
  6  7  1  0
  6 33  1  0
  7  8  2  0
  7  9  1  0
  9 10  2  0
  9 13  1  0
 10 11  1  0
 10 34  1  0
 11 12  2  0
 11 35  1  0
 12 13  1  0
 12 36  1  0
 14 15  1  0
 14 25  1  0
 15 16  2  0
 15 17  1  0
 17 18  1  0
 17 37  1  0
 18 19  1  0
 18 23  1  0
 18 38  1  6
 19 20  1  0
 19 39  1  0
 19 40  1  0
 20 21  1  0
 20 41  1  0
 20 42  1  0
 21 22  1  0
 21 43  1  0
 21 44  1  0
 22 23  1  0
 22 45  1  0
 23 24  1  0
 23 46  1  6
 24 47  1  0
 24 48  1  0
 24 49  1  0
 25 26  2  0
 25 50  1  0
 26 27  1  0
 27 28  1  0
 28 51  1  0
 28 52  1  0
 28 53  1  0
M  END

