
     RDKit          3D

 42 43  0  0  0  0  0  0  0  0999 V2000
    0.7205   -0.5371    0.1980 C   0  0  0  0  0  0  0  0  0  0  0  0
    2.2197   -0.3151    0.2842 C   0  0  0  0  0  0  0  0  0  0  0  0
    2.8615   -1.1453   -0.6542 O   0  0  0  0  0  0  0  0  0  0  0  0
    4.2635   -1.0290   -0.6717 C   0  0  0  0  0  0  0  0  0  0  0  0
    4.8296   -1.9781   -1.7175 C   0  0  0  0  0  0  0  0  0  0  0  0
    6.3527   -1.9070   -1.8374 C   0  0  0  0  0  0  0  0  0  0  0  0
    6.9492   -2.8838   -2.8727 C   0  0  1  0  0  0  0  0  0  0  0  0
    6.4427   -2.7320   -4.2379 N   0  0  0  0  0  0  0  0  0  0  0  0
    8.4963   -2.8402   -2.8791 C   0  0  0  0  0  0  0  0  0  0  0  0
    9.1138   -1.5586   -3.3632 C   0  0  0  0  0  0  0  0  0  0  0  0
    9.5816   -0.6601   -2.5102 N   0  0  0  0  0  0  0  0  0  0  0  0
   10.0888    0.3688   -3.2307 N   0  0  0  0  0  0  0  0  0  0  0  0
   10.6871    1.5037   -2.5693 C   0  0  0  0  0  0  0  0  0  0  0  0
    9.9618    0.1512   -4.5757 C   0  0  0  0  0  0  0  0  0  0  0  0
   10.3478    0.9225   -5.6882 C   0  0  0  0  0  0  0  0  0  0  0  0
   10.0751    0.3969   -6.9453 C   0  0  0  0  0  0  0  0  0  0  0  0
    9.4337   -0.8564   -7.1047 C   0  0  0  0  0  0  0  0  0  0  0  0
    9.0512   -1.6139   -6.0048 C   0  0  0  0  0  0  0  0  0  0  0  0
    9.3189   -1.1078   -4.7158 C   0  0  0  0  0  0  0  0  0  0  0  0
    0.1907    0.1006    0.9229 H   0  0  0  0  0  0  0  0  0  0  0  0
    0.4730   -1.5886    0.4112 H   0  0  0  0  0  0  0  0  0  0  0  0
    0.3522   -0.2986   -0.8120 H   0  0  0  0  0  0  0  0  0  0  0  0
    2.5852   -0.5370    1.3102 H   0  0  0  0  0  0  0  0  0  0  0  0
    2.4648    0.7512    0.0884 H   0  0  0  0  0  0  0  0  0  0  0  0
    4.6862   -1.2634    0.3295 H   0  0  0  0  0  0  0  0  0  0  0  0
    4.5652    0.0164   -0.9013 H   0  0  0  0  0  0  0  0  0  0  0  0
    4.3569   -1.7372   -2.6848 H   0  0  0  0  0  0  0  0  0  0  0  0
    4.5113   -3.0050   -1.4632 H   0  0  0  0  0  0  0  0  0  0  0  0
    6.8092   -2.1165   -0.8533 H   0  0  0  0  0  0  0  0  0  0  0  0
    6.6620   -0.8780   -2.0964 H   0  0  0  0  0  0  0  0  0  0  0  0
    6.6764   -3.9073   -2.5558 H   0  0  0  0  0  0  0  0  0  0  0  0
    6.5363   -1.7637   -4.5500 H   0  0  0  0  0  0  0  0  0  0  0  0
    5.4500   -2.9572   -4.2854 H   0  0  0  0  0  0  0  0  0  0  0  0
    8.8480   -3.6688   -3.5142 H   0  0  0  0  0  0  0  0  0  0  0  0
    8.8618   -3.0238   -1.8572 H   0  0  0  0  0  0  0  0  0  0  0  0
   10.6425    1.3172   -1.4895 H   0  0  0  0  0  0  0  0  0  0  0  0
   10.1418    2.4354   -2.7968 H   0  0  0  0  0  0  0  0  0  0  0  0
   11.7408    1.6310   -2.8694 H   0  0  0  0  0  0  0  0  0  0  0  0
   10.8404    1.8903   -5.5734 H   0  0  0  0  0  0  0  0  0  0  0  0
   10.3602    0.9650   -7.8347 H   0  0  0  0  0  0  0  0  0  0  0  0
    9.2360   -1.2272   -8.1134 H   0  0  0  0  0  0  0  0  0  0  0  0
    8.5334   -2.5679   -6.1227 H   0  0  0  0  0  0  0  0  0  0  0  0
  1  2  1  0
  1 20  1  0
  1 21  1  0
  1 22  1  0
  2  3  1  0
  2 23  1  0
  2 24  1  0
  3  4  1  0
  4  5  1  0
  4 25  1  0
  4 26  1  0
  5  6  1  0
  5 27  1  0
  5 28  1  0
  6  7  1  0
  6 29  1  0
  6 30  1  0
  7  8  1  0
  7  9  1  0
  7 31  1  1
  8 32  1  0
  8 33  1  0
  9 10  1  0
  9 34  1  0
  9 35  1  0
 10 11  2  0
 10 19  1  0
 11 12  1  0
 12 13  1  0
 12 14  1  0
 13 36  1  0
 13 37  1  0
 13 38  1  0
 14 15  1  0
 14 19  2  0
 15 16  2  0
 15 39  1  0
 16 17  1  0
 16 40  1  0
 17 18  2  0
 17 41  1  0
 18 19  1  0
 18 42  1  0
M  END

