
     RDKit          3D

 69 71  0  0  0  0  0  0  0  0999 V2000
   11.0200    1.7976    3.2808 C   0  0  0  0  0  0  0  0  0  0  0  0
   10.5325    0.7131    2.6692 C   0  0  0  0  0  0  0  0  0  0  0  0
   11.2113    0.1429    1.4778 C   0  0  0  0  0  0  0  0  0  0  0  0
   12.2158    0.5628    0.9627 O   0  0  0  0  0  0  0  0  0  0  0  0
   10.5395   -0.9610    1.0344 O   0  0  0  0  0  0  0  0  0  0  0  0
   11.0130   -1.5753   -0.1350 C   0  0  0  0  0  0  0  0  0  0  0  0
   10.3957   -0.9345   -1.2198 O   0  0  0  0  0  0  0  0  0  0  0  0
   10.7138   -1.3186   -2.4875 C   0  0  0  0  0  0  0  0  0  0  0  0
   10.0828   -0.6129   -3.5251 C   0  0  0  0  0  0  0  0  0  0  0  0
   10.3381   -0.9434   -4.8509 C   0  0  0  0  0  0  0  0  0  0  0  0
   11.2283   -1.9793   -5.1603 C   0  0  0  0  0  0  0  0  0  0  0  0
   11.4702   -2.1912   -6.5107 O   0  0  0  0  0  0  0  0  0  0  0  0
   11.6063   -3.4389   -7.0480 C   0  0  0  0  0  0  0  0  0  0  0  0
   11.5475   -4.4571   -6.4030 O   0  0  0  0  0  0  0  0  0  0  0  0
   11.8354   -3.3782   -8.5145 C   0  0  0  0  0  0  0  0  0  0  0  0
   11.9247   -2.1745   -9.2277 C   0  0  0  0  0  0  0  0  0  0  0  0
   12.1470   -2.1703  -10.6053 C   0  0  0  0  0  0  0  0  0  0  0  0
   12.2781   -3.3873  -11.2959 C   0  0  0  0  0  0  0  0  0  0  0  0
   12.4936   -3.5054  -12.6275 O   0  0  0  0  0  0  0  0  0  0  0  0
   12.5828   -2.3758  -13.4975 C   0  0  1  0  0  0  0  0  0  0  0  0
   14.0392   -1.8947  -13.5749 C   0  0  0  0  0  0  0  0  0  0  0  0
   14.3151   -0.6776  -14.4745 C   0  0  0  0  0  0  0  0  0  0  0  0
   13.5853    0.6264  -14.1137 C   0  0  0  0  0  0  0  0  0  0  0  0
   13.9614    1.2253  -12.7537 C   0  0  0  0  0  0  0  0  0  0  0  0
   13.2772    2.5656  -12.4643 C   0  0  0  0  0  0  0  0  0  0  0  0
   13.6594    3.1682  -11.1118 C   0  0  0  0  0  0  0  0  0  0  0  0
   12.0044   -2.8217  -14.8410 C   0  0  1  0  0  0  0  0  0  0  0  0
   12.5918   -4.1222  -15.4356 C   0  0  0  0  0  0  0  0  0  0  0  0
   11.3673   -4.8438  -15.9286 C   0  0  0  0  0  0  0  0  0  0  0  0
   11.2449   -5.8866  -16.7545 C   0  0  0  0  0  0  0  0  0  0  0  0
   10.1732   -4.1774  -15.3136 C   0  0  0  0  0  0  0  0  0  0  0  0
    9.0216   -4.5076  -15.3548 O   0  0  0  0  0  0  0  0  0  0  0  0
   10.5972   -3.0569  -14.6667 O   0  0  0  0  0  0  0  0  0  0  0  0
   12.1886   -4.5997  -10.5840 C   0  0  0  0  0  0  0  0  0  0  0  0
   11.9713   -4.5921   -9.2147 C   0  0  0  0  0  0  0  0  0  0  0  0
   11.8639   -2.6841   -4.1382 C   0  0  0  0  0  0  0  0  0  0  0  0
   11.6047   -2.3549   -2.8021 C   0  0  0  0  0  0  0  0  0  0  0  0
   10.5297    2.2295    4.1566 H   0  0  0  0  0  0  0  0  0  0  0  0
   11.9298    2.2770    2.9076 H   0  0  0  0  0  0  0  0  0  0  0  0
    9.6258    0.2059    3.0079 H   0  0  0  0  0  0  0  0  0  0  0  0
   10.7068   -2.6335   -0.0739 H   0  0  0  0  0  0  0  0  0  0  0  0
   12.1101   -1.4837   -0.1998 H   0  0  0  0  0  0  0  0  0  0  0  0
    9.3931    0.1924   -3.2657 H   0  0  0  0  0  0  0  0  0  0  0  0
    9.8532   -0.4017   -5.6654 H   0  0  0  0  0  0  0  0  0  0  0  0
   11.8226   -1.2278   -8.6963 H   0  0  0  0  0  0  0  0  0  0  0  0
   12.2163   -1.2161  -11.1265 H   0  0  0  0  0  0  0  0  0  0  0  0
   11.9215   -1.5762  -13.1286 H   0  0  0  0  0  0  0  0  0  0  0  0
   14.6576   -2.7431  -13.9138 H   0  0  0  0  0  0  0  0  0  0  0  0
   14.3707   -1.6831  -12.5456 H   0  0  0  0  0  0  0  0  0  0  0  0
   14.0880   -0.9332  -15.5240 H   0  0  0  0  0  0  0  0  0  0  0  0
   15.4029   -0.4900  -14.4525 H   0  0  0  0  0  0  0  0  0  0  0  0
   12.4905    0.4794  -14.1596 H   0  0  0  0  0  0  0  0  0  0  0  0
   13.8094    1.3700  -14.8989 H   0  0  0  0  0  0  0  0  0  0  0  0
   15.0586    1.3581  -12.7077 H   0  0  0  0  0  0  0  0  0  0  0  0
   13.7153    0.5166  -11.9420 H   0  0  0  0  0  0  0  0  0  0  0  0
   12.1811    2.4312  -12.5128 H   0  0  0  0  0  0  0  0  0  0  0  0
   13.5258    3.2795  -13.2705 H   0  0  0  0  0  0  0  0  0  0  0  0
   13.3896    2.4952  -10.2806 H   0  0  0  0  0  0  0  0  0  0  0  0
   13.1493    4.1291  -10.9390 H   0  0  0  0  0  0  0  0  0  0  0  0
   14.7450    3.3515  -11.0465 H   0  0  0  0  0  0  0  0  0  0  0  0
   12.1055   -1.9870  -15.5539 H   0  0  0  0  0  0  0  0  0  0  0  0
   13.0841   -4.7078  -14.6431 H   0  0  0  0  0  0  0  0  0  0  0  0
   13.3304   -3.9247  -16.2261 H   0  0  0  0  0  0  0  0  0  0  0  0
   12.1098   -6.3707  -17.2157 H   0  0  0  0  0  0  0  0  0  0  0  0
   10.2486   -6.2759  -16.9823 H   0  0  0  0  0  0  0  0  0  0  0  0
   12.2892   -5.5349  -11.1380 H   0  0  0  0  0  0  0  0  0  0  0  0
   11.8993   -5.5274   -8.6564 H   0  0  0  0  0  0  0  0  0  0  0  0
   12.5494   -3.4962   -4.3723 H   0  0  0  0  0  0  0  0  0  0  0  0
   12.1098   -2.9231   -2.0205 H   0  0  0  0  0  0  0  0  0  0  0  0
  1  2  2  0
  1 38  1  0
  1 39  1  0
  2  3  1  0
  2 40  1  0
  3  4  2  0
  3  5  1  0
  5  6  1  0
  6  7  1  0
  6 41  1  0
  6 42  1  0
  7  8  1  0
  8  9  2  0
  8 37  1  0
  9 10  1  0
  9 43  1  0
 10 11  2  0
 10 44  1  0
 11 12  1  0
 11 36  1  0
 12 13  1  0
 13 14  2  0
 13 15  1  0
 15 16  2  0
 15 35  1  0
 16 17  1  0
 16 45  1  0
 17 18  2  0
 17 46  1  0
 18 19  1  0
 18 34  1  0
 19 20  1  0
 20 21  1  0
 20 27  1  0
 20 47  1  1
 21 22  1  0
 21 48  1  0
 21 49  1  0
 22 23  1  0
 22 50  1  0
 22 51  1  0
 23 24  1  0
 23 52  1  0
 23 53  1  0
 24 25  1  0
 24 54  1  0
 24 55  1  0
 25 26  1  0
 25 56  1  0
 25 57  1  0
 26 58  1  0
 26 59  1  0
 26 60  1  0
 27 28  1  0
 27 33  1  0
 27 61  1  6
 28 29  1  0
 28 62  1  0
 28 63  1  0
 29 30  2  0
 29 31  1  0
 30 64  1  0
 30 65  1  0
 31 32  2  0
 31 33  1  0
 34 35  2  0
 34 66  1  0
 35 67  1  0
 36 37  2  0
 36 68  1  0
 37 69  1  0
M  END

