
     RDKit          3D

 41 43  0  0  0  0  0  0  0  0999 V2000
    4.0155    0.5441    0.8458 C   0  0  0  0  0  0  0  0  0  0  0  0
    4.9262   -0.5304    0.7683 O   0  0  0  0  0  0  0  0  0  0  0  0
    4.9213   -1.3305   -0.3240 C   0  0  0  0  0  0  0  0  0  0  0  0
    5.8558   -2.3837   -0.3231 C   0  0  0  0  0  0  0  0  0  0  0  0
    5.9286   -3.2544   -1.4014 C   0  0  0  0  0  0  0  0  0  0  0  0
    5.0753   -3.1089   -2.5110 C   0  0  0  0  0  0  0  0  0  0  0  0
    5.1393   -4.0774   -3.6570 C   0  0  0  0  0  0  0  0  0  0  0  0
    4.5324   -5.3180   -3.2584 O   0  0  0  0  0  0  0  0  0  0  0  0
    4.4877   -6.3474   -4.1385 C   0  0  0  0  0  0  0  0  0  0  0  0
    4.9564   -6.3305   -5.4888 C   0  0  0  0  0  0  0  0  0  0  0  0
    4.7544   -7.5407   -6.1105 C   0  0  0  0  0  0  0  0  0  0  0  0
    4.0059   -8.7031   -5.0904 S   0  0  0  0  0  0  0  0  0  0  0  0
    3.9414   -7.5732   -3.7682 C   0  0  0  0  0  0  0  0  0  0  0  0
    3.3508   -8.0528   -2.4995 C   0  0  0  0  0  0  0  0  0  0  0  0
    2.9239   -9.1962   -2.3965 O   0  0  0  0  0  0  0  0  0  0  0  0
    3.3319   -7.1248   -1.4824 N   0  0  0  0  0  0  0  0  0  0  0  0
    2.8558   -7.2994   -0.1788 C   0  0  0  0  0  0  0  0  0  0  0  0
    2.2657   -8.4729    0.3252 C   0  0  0  0  0  0  0  0  0  0  0  0
    1.8238   -8.5370    1.6498 C   0  0  0  0  0  0  0  0  0  0  0  0
    1.9670   -7.4311    2.4813 C   0  0  0  0  0  0  0  0  0  0  0  0
    1.5425   -7.4919    3.7529 F   0  0  0  0  0  0  0  0  0  0  0  0
    2.5468   -6.2493    2.0214 C   0  0  0  0  0  0  0  0  0  0  0  0
    2.9787   -6.2086    0.7038 C   0  0  0  0  0  0  0  0  0  0  0  0
    3.5440   -5.0787    0.2332 F   0  0  0  0  0  0  0  0  0  0  0  0
    4.1482   -2.0628   -2.4988 C   0  0  0  0  0  0  0  0  0  0  0  0
    4.0647   -1.1712   -1.4237 C   0  0  0  0  0  0  0  0  0  0  0  0
    4.2008    1.0419    1.8069 H   0  0  0  0  0  0  0  0  0  0  0  0
    2.9670    0.1966    0.8193 H   0  0  0  0  0  0  0  0  0  0  0  0
    4.1695    1.2732    0.0299 H   0  0  0  0  0  0  0  0  0  0  0  0
    6.5129   -2.4912    0.5420 H   0  0  0  0  0  0  0  0  0  0  0  0
    6.6584   -4.0688   -1.3833 H   0  0  0  0  0  0  0  0  0  0  0  0
    6.1851   -4.2770   -3.9510 H   0  0  0  0  0  0  0  0  0  0  0  0
    4.6048   -3.6771   -4.5353 H   0  0  0  0  0  0  0  0  0  0  0  0
    5.4171   -5.4731   -5.9774 H   0  0  0  0  0  0  0  0  0  0  0  0
    5.0164   -7.8010   -7.1354 H   0  0  0  0  0  0  0  0  0  0  0  0
    3.7143   -6.2056   -1.6974 H   0  0  0  0  0  0  0  0  0  0  0  0
    2.1644   -9.3266   -0.3406 H   0  0  0  0  0  0  0  0  0  0  0  0
    1.3659   -9.4464    2.0428 H   0  0  0  0  0  0  0  0  0  0  0  0
    2.6621   -5.3806    2.6701 H   0  0  0  0  0  0  0  0  0  0  0  0
    3.4693   -1.9325   -3.3465 H   0  0  0  0  0  0  0  0  0  0  0  0
    3.3305   -0.3662   -1.4537 H   0  0  0  0  0  0  0  0  0  0  0  0
  1  2  1  0
  1 27  1  0
  1 28  1  0
  1 29  1  0
  2  3  1  0
  3  4  2  0
  3 26  1  0
  4  5  1  0
  4 30  1  0
  5  6  2  0
  5 31  1  0
  6  7  1  0
  6 25  1  0
  7  8  1  0
  7 32  1  0
  7 33  1  0
  8  9  1  0
  9 10  2  0
  9 13  1  0
 10 11  1  0
 10 34  1  0
 11 12  2  0
 11 35  1  0
 12 13  1  0
 13 14  2  0
 14 15  1  0
 14 16  1  0
 16 17  1  0
 16 36  1  0
 17 18  2  0
 17 23  1  0
 18 19  1  0
 18 37  1  0
 19 20  2  0
 19 38  1  0
 20 21  1  0
 20 22  1  0
 22 23  2  0
 22 39  1  0
 23 24  1  0
 25 26  2  0
 25 40  1  0
 26 41  1  0
M  CHG  2  12   1  15  -1
M  END

