
     RDKit          3D

 40 42  0  0  0  0  0  0  0  0999 V2000
    0.7970    0.3418    0.6493 C   0  0  0  0  0  0  0  0  0  0  0  0
    2.2722    0.4557    0.3675 C   0  0  0  0  0  0  0  0  0  0  0  0
    2.9822    1.5672    0.0183 C   0  0  0  0  0  0  0  0  0  0  0  0
    2.4449    2.8889   -0.4023 C   0  0  0  0  0  0  0  0  0  0  0  0
    3.1065    3.9137   -0.2722 O   0  0  0  0  0  0  0  0  0  0  0  0
    1.2004    2.8845   -1.0026 N   0  0  0  0  0  0  0  0  0  0  0  0
    0.4359    3.9732   -1.4650 C   0  0  0  0  0  0  0  0  0  0  0  0
    0.8089    5.3194   -1.2973 C   0  0  0  0  0  0  0  0  0  0  0  0
   -0.0200    6.3368   -1.7731 C   0  0  0  0  0  0  0  0  0  0  0  0
   -1.2195    6.0302   -2.4198 C   0  0  0  0  0  0  0  0  0  0  0  0
   -2.2477    7.3141   -3.0136 Cl  0  0  0  0  0  0  0  0  0  0  0  0
   -1.5999    4.6969   -2.5965 C   0  0  0  0  0  0  0  0  0  0  0  0
   -0.7751    3.6806   -2.1204 C   0  0  0  0  0  0  0  0  0  0  0  0
    4.5073    1.4467    0.0664 C   0  0  1  0  0  0  0  0  0  0  0  0
    4.9248    2.1911   -0.6265 H   0  0  0  0  0  0  0  0  0  0  0  0
    5.1067    1.7171    1.4603 C   0  0  0  0  0  0  0  0  0  0  0  0
    5.7606    0.7160    2.1928 C   0  0  0  0  0  0  0  0  0  0  0  0
    6.3039    0.9830    3.4549 C   0  0  0  0  0  0  0  0  0  0  0  0
    6.1979    2.2665    3.9894 C   0  0  0  0  0  0  0  0  0  0  0  0
    6.9366    2.6406    5.7091 Br  0  0  0  0  0  0  0  0  0  0  0  0
    5.5587    3.2834    3.2736 C   0  0  0  0  0  0  0  0  0  0  0  0
    5.0194    3.0048    2.0175 C   0  0  0  0  0  0  0  0  0  0  0  0
    4.8531    0.1205   -0.4447 N   0  0  0  0  0  0  0  0  0  0  0  0
    4.2036   -0.9966   -0.0443 C   0  0  0  0  0  0  0  0  0  0  0  0
    4.7851   -2.5495   -0.2029 S   0  0  0  0  0  0  0  0  0  0  0  0
    2.9600   -0.7430    0.5092 N   0  0  0  0  0  0  0  0  0  0  0  0
    0.3326    1.3173    0.8305 H   0  0  0  0  0  0  0  0  0  0  0  0
    0.6481   -0.2726    1.5527 H   0  0  0  0  0  0  0  0  0  0  0  0
    0.2607   -0.1666   -0.1718 H   0  0  0  0  0  0  0  0  0  0  0  0
    0.8256    1.9766   -1.2436 H   0  0  0  0  0  0  0  0  0  0  0  0
    1.7485    5.5566   -0.8054 H   0  0  0  0  0  0  0  0  0  0  0  0
    0.2715    7.3803   -1.6425 H   0  0  0  0  0  0  0  0  0  0  0  0
   -2.5360    4.4585   -3.1039 H   0  0  0  0  0  0  0  0  0  0  0  0
   -1.0789    2.6388   -2.2612 H   0  0  0  0  0  0  0  0  0  0  0  0
    5.8670   -0.2935    1.7918 H   0  0  0  0  0  0  0  0  0  0  0  0
    6.8084    0.1928    4.0132 H   0  0  0  0  0  0  0  0  0  0  0  0
    5.4851    4.2881    3.6936 H   0  0  0  0  0  0  0  0  0  0  0  0
    4.5167    3.7930    1.4543 H   0  0  0  0  0  0  0  0  0  0  0  0
    5.7764   -0.0362   -0.8345 H   0  0  0  0  0  0  0  0  0  0  0  0
    2.4670   -1.5740    0.8175 H   0  0  0  0  0  0  0  0  0  0  0  0
  1  2  1  0
  1 27  1  0
  1 28  1  0
  1 29  1  0
  2  3  2  0
  2 26  1  0
  3  4  1  0
  3 14  1  0
  4  5  2  0
  4  6  1  0
  6  7  1  0
  6 30  1  0
  7  8  2  0
  7 13  1  0
  8  9  1  0
  8 31  1  0
  9 10  2  0
  9 32  1  0
 10 11  1  0
 10 12  1  0
 12 13  2  0
 12 33  1  0
 13 34  1  0
 14 15  1  6
 14 16  1  0
 14 23  1  0
 16 17  2  0
 16 22  1  0
 17 18  1  0
 17 35  1  0
 18 19  2  0
 18 36  1  0
 19 20  1  0
 19 21  1  0
 21 22  2  0
 21 37  1  0
 22 38  1  0
 23 24  1  0
 23 39  1  0
 24 25  2  0
 24 26  1  0
 26 40  1  0
M  END

