
     RDKit          3D

 50 52  0  0  0  0  0  0  0  0999 V2000
    3.4967    0.4246   -0.1831 C   0  0  0  0  0  0  0  0  0  0  0  0
    2.9455   -0.4436   -1.3136 C   0  0  0  0  0  0  0  0  0  0  0  0
    3.0429   -1.8792   -1.0571 N   0  0  0  0  0  0  0  0  0  0  0  0
    2.2324   -2.3978    0.0498 C   0  0  0  0  0  0  0  0  0  0  0  0
    0.7237   -2.3737   -0.1587 C   0  0  0  0  0  0  0  0  0  0  0  0
    0.0654   -3.4442   -0.7885 C   0  0  0  0  0  0  0  0  0  0  0  0
   -1.3109   -3.4175   -1.0085 C   0  0  0  0  0  0  0  0  0  0  0  0
   -2.0722   -2.3000   -0.6316 C   0  0  0  0  0  0  0  0  0  0  0  0
   -3.5666   -2.3730   -0.8087 C   0  0  0  0  0  0  0  0  0  0  0  0
   -4.1646   -3.3948   -0.5107 O   0  0  0  0  0  0  0  0  0  0  0  0
   -4.2352   -1.2545   -1.2862 N   0  0  0  0  0  0  0  0  0  0  0  0
   -5.6950   -1.2990   -1.3343 C   0  0  0  0  0  0  0  0  0  0  0  0
   -6.3102   -0.0864   -0.6348 C   0  0  0  0  0  0  0  0  0  0  0  0
   -5.7627    1.4574   -1.4223 S   0  0  2  0  0  0  0  0  0  0  0  0
   -6.0885    2.5943   -0.5506 O   0  0  0  0  0  0  0  0  0  0  0  0
   -6.2238    1.4208   -2.8228 O   0  0  0  0  0  0  0  0  0  0  0  0
   -3.9389    1.2228   -1.4461 C   0  0  2  0  0  0  0  0  0  0  0  0
   -3.3215    2.3772   -2.2283 C   0  0  0  0  0  0  0  0  0  0  0  0
   -3.6225   -0.1611   -2.0337 C   0  0  0  0  0  0  0  0  0  0  0  0
   -1.4273   -1.2352    0.0162 C   0  0  0  0  0  0  0  0  0  0  0  0
   -0.0512   -1.2776    0.2526 C   0  0  0  0  0  0  0  0  0  0  0  0
    3.0059   -2.6802   -2.2479 C   0  0  1  0  0  0  0  0  0  0  0  0
    4.2678   -2.8016   -3.0630 C   0  0  0  0  0  0  0  0  0  0  0  0
    3.7716   -3.9784   -2.2603 C   0  0  0  0  0  0  0  0  0  0  0  0
    3.5009    1.4837   -0.4862 H   0  0  0  0  0  0  0  0  0  0  0  0
    4.5288    0.1294    0.0632 H   0  0  0  0  0  0  0  0  0  0  0  0
    2.8983    0.3549    0.7391 H   0  0  0  0  0  0  0  0  0  0  0  0
    3.5339   -0.2481   -2.2237 H   0  0  0  0  0  0  0  0  0  0  0  0
    1.9049   -0.1292   -1.5529 H   0  0  0  0  0  0  0  0  0  0  0  0
    2.4809   -1.8281    0.9584 H   0  0  0  0  0  0  0  0  0  0  0  0
    2.5516   -3.4362    0.2316 H   0  0  0  0  0  0  0  0  0  0  0  0
    0.6410   -4.3227   -1.0921 H   0  0  0  0  0  0  0  0  0  0  0  0
   -1.8170   -4.2707   -1.4650 H   0  0  0  0  0  0  0  0  0  0  0  0
   -6.0146   -2.2284   -0.8460 H   0  0  0  0  0  0  0  0  0  0  0  0
   -6.0425   -1.3254   -2.3821 H   0  0  0  0  0  0  0  0  0  0  0  0
   -6.0314   -0.0206    0.4271 H   0  0  0  0  0  0  0  0  0  0  0  0
   -7.4067   -0.0647   -0.7274 H   0  0  0  0  0  0  0  0  0  0  0  0
   -3.6514    1.2667   -0.3831 H   0  0  0  0  0  0  0  0  0  0  0  0
   -3.6587    2.3627   -3.2754 H   0  0  0  0  0  0  0  0  0  0  0  0
   -2.2228    2.3015   -2.2092 H   0  0  0  0  0  0  0  0  0  0  0  0
   -3.6104    3.3416   -1.7861 H   0  0  0  0  0  0  0  0  0  0  0  0
   -2.5347   -0.2976   -2.0664 H   0  0  0  0  0  0  0  0  0  0  0  0
   -3.9862   -0.1818   -3.0780 H   0  0  0  0  0  0  0  0  0  0  0  0
   -2.0055   -0.3785    0.3705 H   0  0  0  0  0  0  0  0  0  0  0  0
    0.4246   -0.4488    0.7841 H   0  0  0  0  0  0  0  0  0  0  0  0
    2.0665   -2.6728   -2.8274 H   0  0  0  0  0  0  0  0  0  0  0  0
    5.1509   -2.2794   -2.6852 H   0  0  0  0  0  0  0  0  0  0  0  0
    4.1809   -2.8327   -4.1527 H   0  0  0  0  0  0  0  0  0  0  0  0
    4.3306   -4.2323   -1.3555 H   0  0  0  0  0  0  0  0  0  0  0  0
    3.3401   -4.8335   -2.7884 H   0  0  0  0  0  0  0  0  0  0  0  0
  1  2  1  0
  1 25  1  0
  1 26  1  0
  1 27  1  0
  2  3  1  0
  2 28  1  0
  2 29  1  0
  3  4  1  0
  3 22  1  0
  4  5  1  0
  4 30  1  0
  4 31  1  0
  5  6  2  0
  5 21  1  0
  6  7  1  0
  6 32  1  0
  7  8  2  0
  7 33  1  0
  8  9  1  0
  8 20  1  0
  9 10  2  0
  9 11  1  0
 11 12  1  0
 11 19  1  0
 12 13  1  0
 12 34  1  0
 12 35  1  0
 14 13  1  1
 13 36  1  0
 13 37  1  0
 14 15  2  0
 14 16  2  0
 14 17  1  0
 17 18  1  0
 17 19  1  0
 17 38  1  1
 18 39  1  0
 18 40  1  0
 18 41  1  0
 19 42  1  0
 19 43  1  0
 20 21  2  0
 20 44  1  0
 21 45  1  0
 22 23  1  0
 22 24  1  0
 22 46  1  6
 23 24  1  0
 23 47  1  0
 23 48  1  0
 24 49  1  0
 24 50  1  0
M  END

