
     RDKit          3D

 22 22  0  0  0  0  0  0  0  0999 V2000
    1.3742    0.5673   -0.4081 C   0  0  0  0  0  0  0  0  0  0  0  0
    2.4607   -0.1841    0.0987 O   0  0  0  0  0  0  0  0  0  0  0  0
    2.9683    0.1149    1.4065 C   0  0  1  0  0  0  0  0  0  0  0  0
    1.8773    0.1077    2.4758 C   0  0  0  0  0  0  0  0  0  0  0  0
    4.0176   -0.9743    1.6610 C   0  0  0  0  0  0  0  0  0  0  0  0
    5.1928   -0.8085    0.7032 C   0  0  0  0  0  0  0  0  0  0  0  0
    5.8321    0.5489    0.9313 C   0  0  0  0  0  0  0  0  0  0  0  0
    4.8925    1.6357    0.9124 O   0  0  0  0  0  0  0  0  0  0  0  0
    3.6084    1.5282    1.3092 C   0  0  0  0  0  0  0  0  0  0  0  0
    2.9590    2.5308    1.4689 O   0  0  0  0  0  0  0  0  0  0  0  0
    1.2349    0.2401   -1.4488 H   0  0  0  0  0  0  0  0  0  0  0  0
    1.5671    1.6537   -0.3962 H   0  0  0  0  0  0  0  0  0  0  0  0
    0.4373    0.3733    0.1444 H   0  0  0  0  0  0  0  0  0  0  0  0
    1.3424   -0.8542    2.4509 H   0  0  0  0  0  0  0  0  0  0  0  0
    1.1644    0.9286    2.3270 H   0  0  0  0  0  0  0  0  0  0  0  0
    2.3212    0.2359    3.4747 H   0  0  0  0  0  0  0  0  0  0  0  0
    3.5277   -1.9523    1.5362 H   0  0  0  0  0  0  0  0  0  0  0  0
    4.3655   -0.9065    2.7067 H   0  0  0  0  0  0  0  0  0  0  0  0
    4.8312   -0.8914   -0.3330 H   0  0  0  0  0  0  0  0  0  0  0  0
    5.9535   -1.5912    0.8571 H   0  0  0  0  0  0  0  0  0  0  0  0
    6.5750    0.7932    0.1578 H   0  0  0  0  0  0  0  0  0  0  0  0
    6.3474    0.5751    1.9089 H   0  0  0  0  0  0  0  0  0  0  0  0
  1  2  1  0
  1 11  1  0
  1 12  1  0
  1 13  1  0
  3  2  1  6
  3  4  1  0
  3  5  1  0
  3  9  1  0
  4 14  1  0
  4 15  1  0
  4 16  1  0
  5  6  1  0
  5 17  1  0
  5 18  1  0
  6  7  1  0
  6 19  1  0
  6 20  1  0
  7  8  1  0
  7 21  1  0
  7 22  1  0
  8  9  1  0
  9 10  2  0
M  END

