
     RDKit          3D

 36 37  0  0  0  0  0  0  0  0999 V2000
    0.8190    0.5123    1.9412 C   0  0  0  0  0  0  0  0  0  0  0  0
    1.9506    0.5570    0.9134 C   0  0  0  0  0  0  0  0  0  0  0  0
    2.7884   -0.7243    0.8512 C   0  0  1  0  0  0  0  0  0  0  0  0
    2.0019   -1.8439    0.3535 N   0  0  0  0  0  0  0  0  0  0  0  0
    2.5261   -2.9938   -0.1494 C   0  0  0  0  0  0  0  0  0  0  0  0
    1.8606   -3.9677   -0.4501 O   0  0  0  0  0  0  0  0  0  0  0  0
    4.0539   -2.9911   -0.2630 C   0  0  2  0  0  0  0  0  0  0  0  0
    4.6524   -3.6357    1.0021 C   0  0  0  0  0  0  0  0  0  0  0  0
    4.5841   -1.6525   -0.5605 N   0  0  0  0  0  0  0  0  0  0  0  0
    5.6916   -1.4944   -1.5340 C   0  0  1  0  0  0  0  0  0  0  0  0
    6.9674   -2.2391   -1.1226 C   0  0  0  0  0  0  0  0  0  0  0  0
    5.2554   -1.8233   -2.9321 C   0  0  0  0  0  0  0  0  0  0  0  0
    4.8496   -1.0436   -3.9812 C   0  0  0  0  0  0  0  0  0  0  0  0
    4.5452   -1.9372   -5.0618 C   0  0  0  0  0  0  0  0  0  0  0  0
    4.7874   -3.1943   -4.5898 C   0  0  0  0  0  0  0  0  0  0  0  0
    5.2199   -3.1383   -3.3031 O   0  0  0  0  0  0  0  0  0  0  0  0
    4.0444   -0.5172   -0.0190 C   0  0  0  0  0  0  0  0  0  0  0  0
    4.5055    0.6008   -0.1935 O   0  0  0  0  0  0  0  0  0  0  0  0
    0.2778    1.4706    1.9638 H   0  0  0  0  0  0  0  0  0  0  0  0
    1.2046    0.3236    2.9569 H   0  0  0  0  0  0  0  0  0  0  0  0
    0.0710   -0.2688    1.7219 H   0  0  0  0  0  0  0  0  0  0  0  0
    2.6426    1.3797    1.1415 H   0  0  0  0  0  0  0  0  0  0  0  0
    1.5521    0.7627   -0.0946 H   0  0  0  0  0  0  0  0  0  0  0  0
    3.1560   -0.9373    1.8783 H   0  0  0  0  0  0  0  0  0  0  0  0
    0.9978   -1.8479    0.5077 H   0  0  0  0  0  0  0  0  0  0  0  0
    4.2733   -3.6330   -1.1258 H   0  0  0  0  0  0  0  0  0  0  0  0
    4.4431   -3.0336    1.9004 H   0  0  0  0  0  0  0  0  0  0  0  0
    5.7415   -3.7477    0.9139 H   0  0  0  0  0  0  0  0  0  0  0  0
    4.2095   -4.6326    1.1455 H   0  0  0  0  0  0  0  0  0  0  0  0
    5.8944   -0.4160   -1.5194 H   0  0  0  0  0  0  0  0  0  0  0  0
    6.8402   -3.3311   -1.1585 H   0  0  0  0  0  0  0  0  0  0  0  0
    7.2726   -1.9485   -0.1063 H   0  0  0  0  0  0  0  0  0  0  0  0
    7.7829   -1.9808   -1.8152 H   0  0  0  0  0  0  0  0  0  0  0  0
    4.7771    0.0420   -3.9771 H   0  0  0  0  0  0  0  0  0  0  0  0
    4.1945   -1.6761   -6.0581 H   0  0  0  0  0  0  0  0  0  0  0  0
    4.7051   -4.1868   -5.0249 H   0  0  0  0  0  0  0  0  0  0  0  0
  1  2  1  0
  1 19  1  0
  1 20  1  0
  1 21  1  0
  2  3  1  0
  2 22  1  0
  2 23  1  0
  3  4  1  0
  3 17  1  0
  3 24  1  1
  4  5  1  0
  4 25  1  0
  5  6  2  0
  5  7  1  0
  7  8  1  0
  7  9  1  0
  7 26  1  6
  8 27  1  0
  8 28  1  0
  8 29  1  0
  9 10  1  0
  9 17  1  0
 10 11  1  0
 10 12  1  0
 10 30  1  6
 11 31  1  0
 11 32  1  0
 11 33  1  0
 12 13  2  0
 12 16  1  0
 13 14  1  0
 13 34  1  0
 14 15  2  0
 14 35  1  0
 15 16  1  0
 15 36  1  0
 17 18  2  0
M  END

