
     RDKit          3D

 65 68  0  0  0  0  0  0  0  0999 V2000
    7.3568   -5.4346    0.9151 C   0  0  0  0  0  0  0  0  0  0  0  0
    6.6283   -6.7426    1.0782 C   0  0  0  0  0  0  0  0  0  0  0  0
    7.3519   -7.8687    1.4988 C   0  0  0  0  0  0  0  0  0  0  0  0
    6.7566   -9.1196    1.6773 C   0  0  0  0  0  0  0  0  0  0  0  0
    5.3913   -9.2699    1.4310 C   0  0  0  0  0  0  0  0  0  0  0  0
    4.6485   -8.1682    1.0095 C   0  0  0  0  0  0  0  0  0  0  0  0
    5.2340   -6.8975    0.8251 C   0  0  0  0  0  0  0  0  0  0  0  0
    4.3552   -5.8048    0.3760 C   0  0  0  0  0  0  0  0  0  0  0  0
    4.7546   -4.5898    0.2003 N   0  0  0  0  0  0  0  0  0  0  0  0
    3.7121   -3.7872   -0.2073 O   0  0  0  0  0  0  0  0  0  0  0  0
    2.5621   -4.6087   -0.5400 C   0  0  1  0  0  0  0  0  0  0  0  0
    1.6856   -4.1113   -0.0995 H   0  0  0  0  0  0  0  0  0  0  0  0
    2.4586   -4.6671   -2.0743 C   0  0  0  0  0  0  0  0  0  0  0  0
    1.3666   -5.5110   -2.5376 N   0  0  0  0  0  0  0  0  0  0  0  0
    0.0245   -4.9144   -2.4084 C   0  0  0  0  0  0  0  0  0  0  0  0
   -0.2768   -3.7271   -3.3141 C   0  0  0  0  0  0  0  0  0  0  0  0
   -0.7818   -3.9245   -4.6121 C   0  0  0  0  0  0  0  0  0  0  0  0
   -1.0356   -2.8377   -5.4540 C   0  0  0  0  0  0  0  0  0  0  0  0
   -0.7935   -1.5326   -5.0138 C   0  0  0  0  0  0  0  0  0  0  0  0
   -0.3026   -1.3207   -3.7225 C   0  0  0  0  0  0  0  0  0  0  0  0
   -0.0500   -2.4095   -2.8822 C   0  0  0  0  0  0  0  0  0  0  0  0
    1.6358   -6.2349   -3.7743 C   0  0  0  0  0  0  0  0  0  0  0  0
    0.8869   -7.5607   -3.9159 C   0  0  1  0  0  0  0  0  0  0  0  0
    0.9047   -8.0669   -2.9318 H   0  0  0  0  0  0  0  0  0  0  0  0
   -0.4504   -7.3081   -4.3350 O   0  0  0  0  0  0  0  0  0  0  0  0
    1.5682   -8.4771   -4.9366 C   0  0  0  0  0  0  0  0  0  0  0  0
    2.8366   -8.8397   -4.4564 O   0  0  0  0  0  0  0  0  0  0  0  0
    3.5821   -9.6609   -5.3219 C   0  0  0  0  0  0  0  0  0  0  0  0
    4.9147  -10.0239   -4.7056 C   0  0  0  0  0  0  0  0  0  0  0  0
    5.9306  -10.5557   -5.5145 C   0  0  0  0  0  0  0  0  0  0  0  0
    7.1579  -10.9285   -4.9623 C   0  0  0  0  0  0  0  0  0  0  0  0
    7.3889  -10.7661   -3.5920 C   0  0  0  0  0  0  0  0  0  0  0  0
    6.3841  -10.2315   -2.7815 C   0  0  0  0  0  0  0  0  0  0  0  0
    5.1523   -9.8655   -3.3342 C   0  0  0  0  0  0  0  0  0  0  0  0
    2.8681   -5.9589    0.1061 C   0  0  0  0  0  0  0  0  0  0  0  0
    8.4242   -5.5572    1.1512 H   0  0  0  0  0  0  0  0  0  0  0  0
    6.9341   -4.6522    1.5633 H   0  0  0  0  0  0  0  0  0  0  0  0
    7.2587   -5.0416   -0.1082 H   0  0  0  0  0  0  0  0  0  0  0  0
    8.4219   -7.7539    1.6929 H   0  0  0  0  0  0  0  0  0  0  0  0
    7.3585   -9.9695    2.0091 H   0  0  0  0  0  0  0  0  0  0  0  0
    4.9033  -10.2382    1.5662 H   0  0  0  0  0  0  0  0  0  0  0  0
    3.5820   -8.2980    0.8197 H   0  0  0  0  0  0  0  0  0  0  0  0
    3.4068   -5.0892   -2.4416 H   0  0  0  0  0  0  0  0  0  0  0  0
    2.4148   -3.6282   -2.4574 H   0  0  0  0  0  0  0  0  0  0  0  0
   -0.1057   -4.6044   -1.3590 H   0  0  0  0  0  0  0  0  0  0  0  0
   -0.7091   -5.7078   -2.6004 H   0  0  0  0  0  0  0  0  0  0  0  0
   -0.9830   -4.9428   -4.9531 H   0  0  0  0  0  0  0  0  0  0  0  0
   -1.4314   -3.0108   -6.4585 H   0  0  0  0  0  0  0  0  0  0  0  0
   -0.9944   -0.6832   -5.6719 H   0  0  0  0  0  0  0  0  0  0  0  0
   -0.1210   -0.3038   -3.3645 H   0  0  0  0  0  0  0  0  0  0  0  0
    0.3162   -2.2288   -1.8671 H   0  0  0  0  0  0  0  0  0  0  0  0
    2.7047   -6.4896   -3.7802 H   0  0  0  0  0  0  0  0  0  0  0  0
    1.4453   -5.6341   -4.6898 H   0  0  0  0  0  0  0  0  0  0  0  0
   -0.9633   -8.1228   -4.2534 H   0  0  0  0  0  0  0  0  0  0  0  0
    1.6391   -7.9557   -5.9139 H   0  0  0  0  0  0  0  0  0  0  0  0
    0.9349   -9.3768   -5.0964 H   0  0  0  0  0  0  0  0  0  0  0  0
    3.7451   -9.1527   -6.2952 H   0  0  0  0  0  0  0  0  0  0  0  0
    3.0112  -10.5881   -5.5485 H   0  0  0  0  0  0  0  0  0  0  0  0
    5.7617  -10.6764   -6.5893 H   0  0  0  0  0  0  0  0  0  0  0  0
    7.9402  -11.3401   -5.6056 H   0  0  0  0  0  0  0  0  0  0  0  0
    8.3517  -11.0509   -3.1598 H   0  0  0  0  0  0  0  0  0  0  0  0
    6.5563  -10.0927   -1.7109 H   0  0  0  0  0  0  0  0  0  0  0  0
    4.3681   -9.4448   -2.7038 H   0  0  0  0  0  0  0  0  0  0  0  0
    2.6194   -6.7886   -0.5715 H   0  0  0  0  0  0  0  0  0  0  0  0
    2.3218   -6.1278    1.0498 H   0  0  0  0  0  0  0  0  0  0  0  0
  1  2  1  0
  1 36  1  0
  1 37  1  0
  1 38  1  0
  2  3  2  0
  2  7  1  0
  3  4  1  0
  3 39  1  0
  4  5  2  0
  4 40  1  0
  5  6  1  0
  5 41  1  0
  6  7  2  0
  6 42  1  0
  7  8  1  0
  8  9  2  0
  8 35  1  0
  9 10  1  0
 10 11  1  0
 11 12  1  1
 11 13  1  0
 11 35  1  0
 13 14  1  0
 13 43  1  0
 13 44  1  0
 14 15  1  0
 14 22  1  0
 15 16  1  0
 15 45  1  0
 15 46  1  0
 16 17  2  0
 16 21  1  0
 17 18  1  0
 17 47  1  0
 18 19  2  0
 18 48  1  0
 19 20  1  0
 19 49  1  0
 20 21  2  0
 20 50  1  0
 21 51  1  0
 22 23  1  0
 22 52  1  0
 22 53  1  0
 23 24  1  1
 23 25  1  0
 23 26  1  0
 25 54  1  0
 26 27  1  0
 26 55  1  0
 26 56  1  0
 27 28  1  0
 28 29  1  0
 28 57  1  0
 28 58  1  0
 29 30  2  0
 29 34  1  0
 30 31  1  0
 30 59  1  0
 31 32  2  0
 31 60  1  0
 32 33  1  0
 32 61  1  0
 33 34  2  0
 33 62  1  0
 34 63  1  0
 35 64  1  0
 35 65  1  0
M  END

