
     RDKit          3D

 49 53  0  0  0  0  0  0  0  0999 V2000
    0.7940   -0.4426   -0.2347 O   0  0  0  0  0  0  0  0  0  0  0  0
    1.7288    0.3316   -0.3350 C   0  0  0  0  0  0  0  0  0  0  0  0
    2.0569    1.3196    0.5554 N   0  0  0  0  0  0  0  0  0  0  0  0
    1.4233    1.6636    1.7609 C   0  0  0  0  0  0  0  0  0  0  0  0
    0.2629    1.0240    2.2341 C   0  0  0  0  0  0  0  0  0  0  0  0
   -0.3066    1.4282    3.4432 C   0  0  0  0  0  0  0  0  0  0  0  0
    0.2624    2.4638    4.1855 C   0  0  0  0  0  0  0  0  0  0  0  0
   -0.3651    2.8941    5.3400 O   0  0  0  0  0  0  0  0  0  0  0  0
    0.1344    2.5786    6.5674 C   0  0  0  0  0  0  0  0  0  0  0  0
    1.1969    1.7013    6.8004 C   0  0  0  0  0  0  0  0  0  0  0  0
    1.6087    1.4476    8.1263 C   0  0  0  0  0  0  0  0  0  0  0  0
    1.0577    1.9863    9.2113 N   0  0  0  0  0  0  0  0  0  0  0  0
    0.0462    2.8162    8.9585 C   0  0  0  0  0  0  0  0  0  0  0  0
   -0.6865    3.4961    9.9022 N   0  0  0  0  0  0  0  0  0  0  0  0
   -0.5247    3.4277   10.8986 H   0  0  0  0  0  0  0  0  0  0  0  0
   -1.6497    4.2593    9.2722 C   0  0  0  0  0  0  0  0  0  0  0  0
   -1.5607    4.0905    7.9095 C   0  0  0  0  0  0  0  0  0  0  0  0
   -0.4824    3.1715    7.6855 C   0  0  0  0  0  0  0  0  0  0  0  0
    1.4120    3.1099    3.7204 C   0  0  0  0  0  0  0  0  0  0  0  0
    1.9874    2.7085    2.5176 C   0  0  0  0  0  0  0  0  0  0  0  0
    2.6915    0.2854   -1.4831 C   0  0  0  0  0  0  0  0  0  0  0  0
    3.8278    1.0377   -1.4770 N   0  0  0  0  0  0  0  0  0  0  0  0
    4.5301    0.7953   -2.5292 N   0  0  0  0  0  0  0  0  0  0  0  0
    3.8668   -0.1219   -3.2633 N   0  0  0  0  0  0  0  0  0  0  0  0
    4.4548   -0.5958   -4.4768 C   0  0  0  0  0  0  0  0  0  0  0  0
    4.8791   -1.9218   -4.6023 C   0  0  0  0  0  0  0  0  0  0  0  0
    5.4738   -2.3514   -5.7892 C   0  0  0  0  0  0  0  0  0  0  0  0
    5.6528   -1.4518   -6.8456 C   0  0  0  0  0  0  0  0  0  0  0  0
    5.2335   -0.1248   -6.7261 C   0  0  0  0  0  0  0  0  0  0  0  0
    4.6332    0.2950   -5.5424 C   0  0  0  0  0  0  0  0  0  0  0  0
    4.2113    1.5521   -5.4223 F   0  0  0  0  0  0  0  0  0  0  0  0
    2.6897   -0.4630   -2.6528 C   0  0  0  0  0  0  0  0  0  0  0  0
    1.7188   -1.4623   -3.2320 C   0  0  1  0  0  0  0  0  0  0  0  0
    0.4715   -1.2194   -2.8582 F   0  0  0  0  0  0  0  0  0  0  0  0
    1.7546   -1.4287   -4.5786 F   0  0  0  0  0  0  0  0  0  0  0  0
    2.0410   -2.7140   -2.8592 F   0  0  0  0  0  0  0  0  0  0  0  0
    2.8971    1.8415    0.3148 H   0  0  0  0  0  0  0  0  0  0  0  0
   -0.1785    0.2186    1.6518 H   0  0  0  0  0  0  0  0  0  0  0  0
   -1.2095    0.9418    3.8180 H   0  0  0  0  0  0  0  0  0  0  0  0
    1.7074    1.2084    5.9731 H   0  0  0  0  0  0  0  0  0  0  0  0
    2.4426    0.7561    8.2937 H   0  0  0  0  0  0  0  0  0  0  0  0
   -2.3361    4.8741    9.8513 H   0  0  0  0  0  0  0  0  0  0  0  0
   -2.1881    4.5636    7.1585 H   0  0  0  0  0  0  0  0  0  0  0  0
    1.8460    3.9268    4.3003 H   0  0  0  0  0  0  0  0  0  0  0  0
    2.8850    3.2164    2.1534 H   0  0  0  0  0  0  0  0  0  0  0  0
    4.7340   -2.6080   -3.7660 H   0  0  0  0  0  0  0  0  0  0  0  0
    5.8029   -3.3878   -5.8860 H   0  0  0  0  0  0  0  0  0  0  0  0
    6.1225   -1.7844   -7.7740 H   0  0  0  0  0  0  0  0  0  0  0  0
    5.3569    0.5961   -7.5363 H   0  0  0  0  0  0  0  0  0  0  0  0
  1  2  2  0
  2  3  1  0
  2 21  1  0
  3  4  1  0
  3 37  1  0
  4  5  2  0
  4 20  1  0
  5  6  1  0
  5 38  1  0
  6  7  2  0
  6 39  1  0
  7  8  1  0
  7 19  1  0
  8  9  1  0
  9 10  2  0
  9 18  1  0
 10 11  1  0
 10 40  1  0
 11 12  2  0
 11 41  1  0
 12 13  1  0
 13 14  1  0
 13 18  2  0
 14 15  1  0
 14 16  1  0
 16 17  2  0
 16 42  1  0
 17 18  1  0
 17 43  1  0
 19 20  2  0
 19 44  1  0
 20 45  1  0
 21 22  1  0
 21 32  2  0
 22 23  2  0
 23 24  1  0
 24 25  1  0
 24 32  1  0
 25 26  2  0
 25 30  1  0
 26 27  1  0
 26 46  1  0
 27 28  2  0
 27 47  1  0
 28 29  1  0
 28 48  1  0
 29 30  2  0
 29 49  1  0
 30 31  1  0
 32 33  1  0
 33 34  1  6
 33 35  1  0
 33 36  1  0
M  END

