
     RDKit          3D

 47 49  0  0  0  0  0  0  0  0999 V2000
    0.9433    0.3044   -1.0290 C   0  0  0  0  0  0  0  0  0  0  0  0
    2.3502    0.0210   -0.8334 N   0  0  0  0  0  0  0  0  0  0  0  0
    2.8539   -0.1884    0.4099 C   0  0  0  0  0  0  0  0  0  0  0  0
    2.1451   -0.1522    1.4139 O   0  0  0  0  0  0  0  0  0  0  0  0
    4.3224   -0.4675    0.5073 C   0  0  0  0  0  0  0  0  0  0  0  0
    5.0438   -0.5042   -0.7208 C   0  0  0  0  0  0  0  0  0  0  0  0
    5.4671   -0.5092   -1.8066 N   0  0  0  0  0  0  0  0  0  0  0  0
    4.8753   -0.6876    1.7560 C   0  0  0  0  0  0  0  0  0  0  0  0
    3.9043   -0.6854    3.2317 S   0  0  0  0  0  0  0  0  0  0  0  0
    5.3681   -1.0978    4.2722 C   0  0  2  0  0  0  0  0  0  0  0  0
    5.6181   -0.1253    5.4427 C   0  0  0  0  0  0  0  0  0  0  0  0
    4.5200   -0.1209    6.4835 C   0  0  0  0  0  0  0  0  0  0  0  0
    4.3815   -1.2182    7.3526 C   0  0  0  0  0  0  0  0  0  0  0  0
    3.3808   -1.2730    8.3219 C   0  0  0  0  0  0  0  0  0  0  0  0
    2.4825   -0.2091    8.4486 C   0  0  0  0  0  0  0  0  0  0  0  0
    2.5968    0.8981    7.6090 C   0  0  0  0  0  0  0  0  0  0  0  0
    3.6049    0.9370    6.6383 C   0  0  0  0  0  0  0  0  0  0  0  0
    3.6987    2.3663    5.6249 Cl  0  0  0  0  0  0  0  0  0  0  0  0
    6.5756   -1.1647    3.3549 C   0  0  0  0  0  0  0  0  0  0  0  0
    7.7065   -1.3716    3.7184 O   0  0  0  0  0  0  0  0  0  0  0  0
    6.2158   -0.9399    2.0165 N   0  0  0  0  0  0  0  0  0  0  0  0
    7.2618   -0.9219    1.0223 C   0  0  0  0  0  0  0  0  0  0  0  0
    7.8760    0.2855    0.6977 C   0  0  0  0  0  0  0  0  0  0  0  0
    8.8999    0.2797   -0.2564 C   0  0  0  0  0  0  0  0  0  0  0  0
    9.3015   -0.9066   -0.8592 C   0  0  0  0  0  0  0  0  0  0  0  0
    8.6858   -2.1237   -0.5134 C   0  0  0  0  0  0  0  0  0  0  0  0
    9.1453   -3.2273   -1.1473 O   0  0  0  0  0  0  0  0  0  0  0  0
    8.5527   -4.4790   -0.8779 C   0  0  0  0  0  0  0  0  0  0  0  0
    7.6600   -2.1312    0.4411 C   0  0  0  0  0  0  0  0  0  0  0  0
    0.7472    0.4166   -2.1038 H   0  0  0  0  0  0  0  0  0  0  0  0
    0.6437    1.2314   -0.5127 H   0  0  0  0  0  0  0  0  0  0  0  0
    0.3135   -0.5091   -0.6336 H   0  0  0  0  0  0  0  0  0  0  0  0
    2.9709   -0.0132   -1.6335 H   0  0  0  0  0  0  0  0  0  0  0  0
    5.2128   -2.1130    4.6743 H   0  0  0  0  0  0  0  0  0  0  0  0
    5.7727    0.8868    5.0454 H   0  0  0  0  0  0  0  0  0  0  0  0
    6.5650   -0.4439    5.9084 H   0  0  0  0  0  0  0  0  0  0  0  0
    5.0900   -2.0476    7.2649 H   0  0  0  0  0  0  0  0  0  0  0  0
    3.3052   -2.1412    8.9806 H   0  0  0  0  0  0  0  0  0  0  0  0
    1.6933   -0.2361    9.2038 H   0  0  0  0  0  0  0  0  0  0  0  0
    1.9094    1.7411    7.6948 H   0  0  0  0  0  0  0  0  0  0  0  0
    7.5525    1.2121    1.1745 H   0  0  0  0  0  0  0  0  0  0  0  0
    9.3876    1.2172   -0.5330 H   0  0  0  0  0  0  0  0  0  0  0  0
   10.0947   -0.9257   -1.6088 H   0  0  0  0  0  0  0  0  0  0  0  0
    9.0714   -5.2124   -1.5094 H   0  0  0  0  0  0  0  0  0  0  0  0
    7.4775   -4.4851   -1.1312 H   0  0  0  0  0  0  0  0  0  0  0  0
    8.6734   -4.7709    0.1810 H   0  0  0  0  0  0  0  0  0  0  0  0
    7.1561   -3.0509    0.7342 H   0  0  0  0  0  0  0  0  0  0  0  0
  1  2  1  0
  1 30  1  0
  1 31  1  0
  1 32  1  0
  2  3  1  0
  2 33  1  0
  3  4  2  0
  3  5  1  0
  5  6  1  0
  5  8  2  0
  6  7  3  0
  8  9  1  0
  8 21  1  0
  9 10  1  0
 10 11  1  0
 10 19  1  0
 10 34  1  1
 11 12  1  0
 11 35  1  0
 11 36  1  0
 12 13  2  0
 12 17  1  0
 13 14  1  0
 13 37  1  0
 14 15  2  0
 14 38  1  0
 15 16  1  0
 15 39  1  0
 16 17  2  0
 16 40  1  0
 17 18  1  0
 19 20  2  0
 19 21  1  0
 21 22  1  0
 22 23  2  0
 22 29  1  0
 23 24  1  0
 23 41  1  0
 24 25  2  0
 24 42  1  0
 25 26  1  0
 25 43  1  0
 26 27  1  0
 26 29  2  0
 27 28  1  0
 28 44  1  0
 28 45  1  0
 28 46  1  0
 29 47  1  0
M  END

