
     RDKit          3D

 38 37  0  0  0  0  0  0  0  0999 V2000
    2.5655    0.6816    1.2159 F   0  0  0  0  0  0  0  0  0  0  0  0
    2.1242    0.2040    0.0367 C   0  0  1  0  0  0  0  0  0  0  0  0
    0.7810    0.2507    0.0622 F   0  0  0  0  0  0  0  0  0  0  0  0
    2.5381    1.0587   -0.9178 F   0  0  0  0  0  0  0  0  0  0  0  0
    2.6180   -1.2057   -0.2185 C   0  0  0  0  0  0  0  0  0  0  0  0
    4.1468   -1.3119   -0.2572 C   0  0  0  0  0  0  0  0  0  0  0  0
    4.8061   -3.0694   -0.5697 Si  0  0  0  0  0  4  0  0  0  0  0  0
    4.3081   -3.9893    0.5000 H   0  0  0  0  0  0  0  0  0  0  0  0
    4.2758   -3.5772   -1.8740 H   0  0  0  0  0  0  0  0  0  0  0  0
    7.1648   -3.1389   -0.6127 Si  0  0  0  0  0  4  0  0  0  0  0  0
    7.6670   -2.2003   -1.6668 H   0  0  0  0  0  0  0  0  0  0  0  0
    7.6897   -2.6502    0.7020 H   0  0  0  0  0  0  0  0  0  0  0  0
    7.9887   -5.3131   -1.0472 Si  0  0  1  0  0  4  0  0  0  0  0  0
    7.4847   -6.2291    0.0269 H   0  0  0  0  0  0  0  0  0  0  0  0
    7.3293   -5.9222   -2.7265 C   0  0  0  0  0  0  0  0  0  0  0  0
    7.7001   -7.3653   -3.0882 C   0  0  0  0  0  0  0  0  0  0  0  0
    7.1370   -7.8087   -4.4234 C   0  0  1  0  0  0  0  0  0  0  0  0
    5.7922   -7.7444   -4.4441 F   0  0  0  0  0  0  0  0  0  0  0  0
    7.5872   -7.0417   -5.4343 F   0  0  0  0  0  0  0  0  0  0  0  0
    7.4824   -9.0783   -4.6983 F   0  0  0  0  0  0  0  0  0  0  0  0
    9.8935   -5.3665   -1.0336 C   0  0  0  0  0  0  0  0  0  0  0  0
   10.5510   -4.9827    0.2958 C   0  0  0  0  0  0  0  0  0  0  0  0
   12.0628   -5.0752    0.2620 C   0  0  1  0  0  0  0  0  0  0  0  0
   12.4802   -6.3237   -0.0235 F   0  0  0  0  0  0  0  0  0  0  0  0
   12.5926   -4.2574   -0.6671 F   0  0  0  0  0  0  0  0  0  0  0  0
   12.5969   -4.7353    1.4477 F   0  0  0  0  0  0  0  0  0  0  0  0
    2.1667   -1.5314   -1.1693 H   0  0  0  0  0  0  0  0  0  0  0  0
    2.1894   -1.8387    0.5749 H   0  0  0  0  0  0  0  0  0  0  0  0
    4.5684   -0.9505    0.6959 H   0  0  0  0  0  0  0  0  0  0  0  0
    4.5457   -0.6485   -1.0430 H   0  0  0  0  0  0  0  0  0  0  0  0
    7.6928   -5.2380   -3.5126 H   0  0  0  0  0  0  0  0  0  0  0  0
    6.2308   -5.8195   -2.7181 H   0  0  0  0  0  0  0  0  0  0  0  0
    7.3263   -8.0773   -2.3351 H   0  0  0  0  0  0  0  0  0  0  0  0
    8.7913   -7.5036   -3.1482 H   0  0  0  0  0  0  0  0  0  0  0  0
   10.2656   -4.7066   -1.8361 H   0  0  0  0  0  0  0  0  0  0  0  0
   10.2032   -6.3901   -1.3081 H   0  0  0  0  0  0  0  0  0  0  0  0
   10.2130   -5.6362    1.1160 H   0  0  0  0  0  0  0  0  0  0  0  0
   10.3051   -3.9492    0.5875 H   0  0  0  0  0  0  0  0  0  0  0  0
  2  1  1  1
  2  3  1  0
  2  4  1  0
  2  5  1  0
  5  6  1  0
  5 27  1  0
  5 28  1  0
  6  7  1  0
  6 29  1  0
  6 30  1  0
  7  8  1  0
  7  9  1  0
  7 10  1  0
 10 11  1  0
 10 12  1  0
 10 13  1  0
 13 14  1  1
 13 15  1  0
 13 21  1  0
 15 16  1  0
 15 31  1  0
 15 32  1  0
 16 17  1  0
 16 33  1  0
 16 34  1  0
 17 18  1  1
 17 19  1  0
 17 20  1  0
 21 22  1  0
 21 35  1  0
 21 36  1  0
 22 23  1  0
 22 37  1  0
 22 38  1  0
 23 24  1  6
 23 25  1  0
 23 26  1  0
M  END

