
     RDKit          3D

 57 60  0  0  0  0  0  0  0  0999 V2000
    7.6219   -3.3151   -3.1917 C   0  0  0  0  0  0  0  0  0  0  0  0
    7.0315   -2.1226   -2.7148 O   0  0  0  0  0  0  0  0  0  0  0  0
    5.7603   -2.1440   -2.2528 C   0  0  0  0  0  0  0  0  0  0  0  0
    5.2428   -0.9145   -1.8094 C   0  0  0  0  0  0  0  0  0  0  0  0
    3.9367   -0.8504   -1.3335 C   0  0  0  0  0  0  0  0  0  0  0  0
    3.1345   -1.9970   -1.2917 C   0  0  0  0  0  0  0  0  0  0  0  0
    3.6433   -3.2355   -1.7175 C   0  0  0  0  0  0  0  0  0  0  0  0
    2.7403   -4.4543   -1.6367 C   0  0  1  0  0  0  0  0  0  0  0  0
    1.7695   -4.1401   -2.0575 H   0  0  0  0  0  0  0  0  0  0  0  0
    3.1617   -5.7251   -2.3899 C   0  0  0  0  0  0  0  0  0  0  0  0
    2.4072   -6.7924   -1.7302 N   0  0  0  0  0  0  0  0  0  0  0  0
    2.4073   -8.0430   -2.2866 C   0  0  0  0  0  0  0  0  0  0  0  0
    2.9184   -8.2443   -3.3819 O   0  0  0  0  0  0  0  0  0  0  0  0
    1.7894   -9.1781   -1.5098 C   0  0  0  0  0  0  0  0  0  0  0  0
    0.9514  -10.0718   -2.1943 C   0  0  0  0  0  0  0  0  0  0  0  0
    0.4249  -11.1873   -1.5409 C   0  0  0  0  0  0  0  0  0  0  0  0
    0.7576  -11.4387   -0.2052 C   0  0  0  0  0  0  0  0  0  0  0  0
    1.6194  -10.5707    0.4720 C   0  0  0  0  0  0  0  0  0  0  0  0
    2.1318   -9.4408   -0.1729 C   0  0  0  0  0  0  0  0  0  0  0  0
    1.6478   -6.2954   -0.5790 C   0  0  0  0  0  0  0  0  0  0  0  0
    2.3816   -5.0034   -0.2139 C   0  0  1  0  0  0  0  0  0  0  0  0
    1.7200   -4.2982    0.3143 H   0  0  0  0  0  0  0  0  0  0  0  0
    3.5749   -5.3112    0.7149 C   0  0  0  0  0  0  0  0  0  0  0  0
    3.8361   -6.4525    1.0779 O   0  0  0  0  0  0  0  0  0  0  0  0
    4.2763   -4.2307    1.1509 N   0  0  0  0  0  0  0  0  0  0  0  0
    5.4119   -4.3551    2.0598 C   0  0  0  0  0  0  0  0  0  0  0  0
    6.7600   -4.5097    1.3768 C   0  0  0  0  0  0  0  0  0  0  0  0
    7.6559   -3.4341    1.3017 C   0  0  0  0  0  0  0  0  0  0  0  0
    8.8975   -3.5779    0.6731 C   0  0  0  0  0  0  0  0  0  0  0  0
    9.2581   -4.8060    0.1125 C   0  0  0  0  0  0  0  0  0  0  0  0
    8.3701   -5.8866    0.1804 C   0  0  0  0  0  0  0  0  0  0  0  0
    7.1305   -5.7408    0.8077 C   0  0  0  0  0  0  0  0  0  0  0  0
    4.9607   -3.2985   -2.1995 C   0  0  0  0  0  0  0  0  0  0  0  0
    8.6345   -3.0480   -3.5218 H   0  0  0  0  0  0  0  0  0  0  0  0
    7.0649   -3.7313   -4.0501 H   0  0  0  0  0  0  0  0  0  0  0  0
    7.6949   -4.0799   -2.3997 H   0  0  0  0  0  0  0  0  0  0  0  0
    5.8818   -0.0309   -1.8593 H   0  0  0  0  0  0  0  0  0  0  0  0
    3.5311    0.1089   -1.0012 H   0  0  0  0  0  0  0  0  0  0  0  0
    2.1022   -1.9250   -0.9380 H   0  0  0  0  0  0  0  0  0  0  0  0
    4.2413   -5.9364   -2.3039 H   0  0  0  0  0  0  0  0  0  0  0  0
    2.9318   -5.6795   -3.4653 H   0  0  0  0  0  0  0  0  0  0  0  0
    0.7270   -9.8853   -3.2468 H   0  0  0  0  0  0  0  0  0  0  0  0
   -0.2384  -11.8703   -2.0781 H   0  0  0  0  0  0  0  0  0  0  0  0
    0.3532  -12.3174    0.3042 H   0  0  0  0  0  0  0  0  0  0  0  0
    1.9003  -10.7754    1.5084 H   0  0  0  0  0  0  0  0  0  0  0  0
    2.8172   -8.7725    0.3551 H   0  0  0  0  0  0  0  0  0  0  0  0
    1.6430   -7.0063    0.2506 H   0  0  0  0  0  0  0  0  0  0  0  0
    0.6009   -6.0729   -0.8588 H   0  0  0  0  0  0  0  0  0  0  0  0
    4.1025   -3.3310    0.7145 H   0  0  0  0  0  0  0  0  0  0  0  0
    5.2137   -5.2329    2.6910 H   0  0  0  0  0  0  0  0  0  0  0  0
    5.4247   -3.4660    2.7092 H   0  0  0  0  0  0  0  0  0  0  0  0
    7.3827   -2.4713    1.7442 H   0  0  0  0  0  0  0  0  0  0  0  0
    9.5849   -2.7294    0.6260 H   0  0  0  0  0  0  0  0  0  0  0  0
   10.2312   -4.9242   -0.3716 H   0  0  0  0  0  0  0  0  0  0  0  0
    8.6492   -6.8519   -0.2505 H   0  0  0  0  0  0  0  0  0  0  0  0
    6.4346   -6.5815    0.8639 H   0  0  0  0  0  0  0  0  0  0  0  0
    5.3674   -4.2515   -2.5305 H   0  0  0  0  0  0  0  0  0  0  0  0
  1  2  1  0
  1 34  1  0
  1 35  1  0
  1 36  1  0
  2  3  1  0
  3  4  2  0
  3 33  1  0
  4  5  1  0
  4 37  1  0
  5  6  2  0
  5 38  1  0
  6  7  1  0
  6 39  1  0
  7  8  1  0
  7 33  2  0
  8  9  1  6
  8 10  1  0
  8 21  1  0
 10 11  1  0
 10 40  1  0
 10 41  1  0
 11 12  1  0
 11 20  1  0
 12 13  2  0
 12 14  1  0
 14 15  2  0
 14 19  1  0
 15 16  1  0
 15 42  1  0
 16 17  2  0
 16 43  1  0
 17 18  1  0
 17 44  1  0
 18 19  2  0
 18 45  1  0
 19 46  1  0
 20 21  1  0
 20 47  1  0
 20 48  1  0
 21 22  1  1
 21 23  1  0
 23 24  2  0
 23 25  1  0
 25 26  1  0
 25 49  1  0
 26 27  1  0
 26 50  1  0
 26 51  1  0
 27 28  2  0
 27 32  1  0
 28 29  1  0
 28 52  1  0
 29 30  2  0
 29 53  1  0
 30 31  1  0
 30 54  1  0
 31 32  2  0
 31 55  1  0
 32 56  1  0
 33 57  1  0
M  END

