
     RDKit          3D

 46 47  0  0  0  0  0  0  0  0999 V2000
    7.5775    4.2857   -0.1630 C   0  0  0  0  0  0  0  0  0  0  0  0
    7.0275    2.8649   -0.0304 C   0  0  0  0  0  0  0  0  0  0  0  0
    7.6469    2.0842    1.1348 C   0  0  0  0  0  0  0  0  0  0  0  0
    7.0898    0.6655    1.2628 C   0  0  0  0  0  0  0  0  0  0  0  0
    7.8974   -0.1998    2.6645 S   0  0  0  0  0  0  0  0  0  0  0  0
    6.8664   -1.7288    2.8062 C   0  0  1  0  0  0  0  0  0  0  0  0
    6.8505   -2.5915    1.5388 C   0  0  0  0  0  0  0  0  0  0  0  0
    7.3459   -2.5562    4.0118 C   0  0  0  0  0  0  0  0  0  0  0  0
    6.5462   -3.1021    4.7544 O   0  0  0  0  0  0  0  0  0  0  0  0
    8.6951   -2.6854    4.1448 N   0  0  0  0  0  0  0  0  0  0  0  0
    9.3020   -3.4897    5.2117 C   0  0  2  0  0  0  0  0  0  0  0  0
    9.3379   -2.7349    6.5502 C   0  0  0  0  0  0  0  0  0  0  0  0
   10.4087   -1.6470    6.5287 C   0  0  0  0  0  0  0  0  0  0  0  0
   11.7986   -2.2670    6.3483 C   0  0  0  0  0  0  0  0  0  0  0  0
   11.8487   -3.3497    5.2848 C   0  0  0  0  0  0  0  0  0  0  0  0
   13.1052   -3.8110    4.8290 C   0  0  0  0  0  0  0  0  0  0  0  0
   14.2717   -3.2998    5.3069 O   0  0  0  0  0  0  0  0  0  0  0  0
   13.1964   -4.8172    3.8622 C   0  0  0  0  0  0  0  0  0  0  0  0
   12.0325   -5.3898    3.3491 C   0  0  0  0  0  0  0  0  0  0  0  0
   10.7836   -4.9603    3.7974 C   0  0  0  0  0  0  0  0  0  0  0  0
   10.6841   -3.9471    4.7637 C   0  0  0  0  0  0  0  0  0  0  0  0
    7.1136    4.8200   -1.0072 H   0  0  0  0  0  0  0  0  0  0  0  0
    8.6675    4.2795   -0.3310 H   0  0  0  0  0  0  0  0  0  0  0  0
    7.3881    4.8755    0.7493 H   0  0  0  0  0  0  0  0  0  0  0  0
    7.1996    2.3124   -0.9718 H   0  0  0  0  0  0  0  0  0  0  0  0
    5.9308    2.9037    0.1004 H   0  0  0  0  0  0  0  0  0  0  0  0
    7.4758    2.6282    2.0803 H   0  0  0  0  0  0  0  0  0  0  0  0
    8.7428    2.0347    1.0028 H   0  0  0  0  0  0  0  0  0  0  0  0
    7.2585    0.1044    0.3299 H   0  0  0  0  0  0  0  0  0  0  0  0
    6.0031    0.6930    1.4503 H   0  0  0  0  0  0  0  0  0  0  0  0
    5.8408   -1.4261    3.0631 H   0  0  0  0  0  0  0  0  0  0  0  0
    7.8688   -2.8921    1.2479 H   0  0  0  0  0  0  0  0  0  0  0  0
    6.3926   -2.0572    0.6931 H   0  0  0  0  0  0  0  0  0  0  0  0
    6.2545   -3.5006    1.7209 H   0  0  0  0  0  0  0  0  0  0  0  0
    9.3011   -2.1934    3.4953 H   0  0  0  0  0  0  0  0  0  0  0  0
    8.6502   -4.3691    5.3313 H   0  0  0  0  0  0  0  0  0  0  0  0
    9.5522   -3.4588    7.3566 H   0  0  0  0  0  0  0  0  0  0  0  0
    8.3383   -2.3219    6.7501 H   0  0  0  0  0  0  0  0  0  0  0  0
   10.3832   -1.0476    7.4525 H   0  0  0  0  0  0  0  0  0  0  0  0
   10.1984   -0.9499    5.6992 H   0  0  0  0  0  0  0  0  0  0  0  0
   12.1299   -2.6973    7.3144 H   0  0  0  0  0  0  0  0  0  0  0  0
   12.5246   -1.4667    6.1078 H   0  0  0  0  0  0  0  0  0  0  0  0
   14.0856   -2.6215    5.9681 H   0  0  0  0  0  0  0  0  0  0  0  0
   14.1877   -5.1379    3.5356 H   0  0  0  0  0  0  0  0  0  0  0  0
   12.1042   -6.1823    2.5998 H   0  0  0  0  0  0  0  0  0  0  0  0
    9.8705   -5.4138    3.4032 H   0  0  0  0  0  0  0  0  0  0  0  0
  1  2  1  0
  1 22  1  0
  1 23  1  0
  1 24  1  0
  2  3  1  0
  2 25  1  0
  2 26  1  0
  3  4  1  0
  3 27  1  0
  3 28  1  0
  4  5  1  0
  4 29  1  0
  4 30  1  0
  5  6  1  0
  6  7  1  0
  6  8  1  0
  6 31  1  1
  7 32  1  0
  7 33  1  0
  7 34  1  0
  8  9  2  0
  8 10  1  0
 10 11  1  0
 10 35  1  0
 11 12  1  0
 11 21  1  0
 11 36  1  1
 12 13  1  0
 12 37  1  0
 12 38  1  0
 13 14  1  0
 13 39  1  0
 13 40  1  0
 14 15  1  0
 14 41  1  0
 14 42  1  0
 15 16  1  0
 15 21  2  0
 16 17  1  0
 16 18  2  0
 17 43  1  0
 18 19  1  0
 18 44  1  0
 19 20  2  0
 19 45  1  0
 20 21  1  0
 20 46  1  0
M  END

