
     RDKit          3D

 48 49  0  0  0  0  0  0  0  0999 V2000
    5.1205   -0.4516    2.2226 C   0  0  0  0  0  0  0  0  0  0  0  0
    4.6213   -1.2861    1.1735 O   0  0  0  0  0  0  0  0  0  0  0  0
    5.4742   -2.1612    0.6292 C   0  0  0  0  0  0  0  0  0  0  0  0
    6.5899   -2.3725    1.0534 O   0  0  0  0  0  0  0  0  0  0  0  0
    4.9099   -2.8175   -0.6211 C   0  0  1  0  0  0  0  0  0  0  0  0
    3.3975   -3.0529   -0.5765 C   0  0  0  0  0  0  0  0  0  0  0  0
    5.2890   -1.9563   -1.8577 C   0  0  0  0  0  0  0  0  0  0  0  0
    6.7247   -1.7814   -2.0580 N   0  0  0  0  0  0  0  0  0  0  0  0
    7.3149   -0.6665   -1.4863 C   0  0  0  0  0  0  0  0  0  0  0  0
    6.6383    0.2123   -0.9712 O   0  0  0  0  0  0  0  0  0  0  0  0
    8.8398   -0.5543   -1.5372 C   0  0  0  0  0  0  0  0  0  0  0  0
    9.3972    0.3749   -0.4558 C   0  0  0  0  0  0  0  0  0  0  0  0
    9.3115   -0.2469    0.9303 C   0  0  0  0  0  0  0  0  0  0  0  0
    9.8474    0.6732    1.8690 O   0  0  0  0  0  0  0  0  0  0  0  0
    9.8066    0.3711    3.1908 C   0  0  0  0  0  0  0  0  0  0  0  0
    9.2171   -0.7894    3.7211 C   0  0  0  0  0  0  0  0  0  0  0  0
    9.2318   -0.9984    5.1063 C   0  0  0  0  0  0  0  0  0  0  0  0
    9.8218   -0.0743    5.9695 C   0  0  0  0  0  0  0  0  0  0  0  0
   10.4069    1.0811    5.4333 C   0  0  0  0  0  0  0  0  0  0  0  0
   10.4023    1.3047    4.0591 C   0  0  0  0  0  0  0  0  0  0  0  0
    7.4861   -2.9195   -2.5087 C   0  0  1  0  0  0  0  0  0  0  0  0
    7.0742   -3.6267   -3.7770 C   0  0  0  0  0  0  0  0  0  0  0  0
    8.3456   -2.8268   -3.7456 C   0  0  0  0  0  0  0  0  0  0  0  0
    4.2524    0.0850    2.6248 H   0  0  0  0  0  0  0  0  0  0  0  0
    5.8474    0.2627    1.8086 H   0  0  0  0  0  0  0  0  0  0  0  0
    5.6021   -1.0495    3.0093 H   0  0  0  0  0  0  0  0  0  0  0  0
    5.4331   -3.7833   -0.7041 H   0  0  0  0  0  0  0  0  0  0  0  0
    2.8507   -2.1011   -0.5080 H   0  0  0  0  0  0  0  0  0  0  0  0
    3.1119   -3.6662    0.2915 H   0  0  0  0  0  0  0  0  0  0  0  0
    3.0651   -3.5791   -1.4856 H   0  0  0  0  0  0  0  0  0  0  0  0
    4.8445   -0.9582   -1.7538 H   0  0  0  0  0  0  0  0  0  0  0  0
    4.8597   -2.4373   -2.7493 H   0  0  0  0  0  0  0  0  0  0  0  0
    9.1041   -0.1628   -2.5348 H   0  0  0  0  0  0  0  0  0  0  0  0
    9.3078   -1.5474   -1.4730 H   0  0  0  0  0  0  0  0  0  0  0  0
    8.8353    1.3205   -0.4581 H   0  0  0  0  0  0  0  0  0  0  0  0
   10.4502    0.6113   -0.6787 H   0  0  0  0  0  0  0  0  0  0  0  0
    9.8835   -1.1951    0.9675 H   0  0  0  0  0  0  0  0  0  0  0  0
    8.2662   -0.4899    1.1783 H   0  0  0  0  0  0  0  0  0  0  0  0
    8.7402   -1.5239    3.0713 H   0  0  0  0  0  0  0  0  0  0  0  0
    8.7709   -1.9048    5.5087 H   0  0  0  0  0  0  0  0  0  0  0  0
    9.8280   -0.2486    7.0479 H   0  0  0  0  0  0  0  0  0  0  0  0
   10.8736    1.8160    6.0949 H   0  0  0  0  0  0  0  0  0  0  0  0
   10.8542    2.1987    3.6241 H   0  0  0  0  0  0  0  0  0  0  0  0
    7.8631   -3.5652   -1.7039 H   0  0  0  0  0  0  0  0  0  0  0  0
    6.2380   -3.2121   -4.3461 H   0  0  0  0  0  0  0  0  0  0  0  0
    7.1316   -4.7183   -3.7898 H   0  0  0  0  0  0  0  0  0  0  0  0
    8.3472   -1.8746   -4.2818 H   0  0  0  0  0  0  0  0  0  0  0  0
    9.3068   -3.3484   -3.7406 H   0  0  0  0  0  0  0  0  0  0  0  0
  1  2  1  0
  1 24  1  0
  1 25  1  0
  1 26  1  0
  2  3  1  0
  3  4  2  0
  3  5  1  0
  5  6  1  0
  5  7  1  0
  5 27  1  6
  6 28  1  0
  6 29  1  0
  6 30  1  0
  7  8  1  0
  7 31  1  0
  7 32  1  0
  8  9  1  0
  8 21  1  0
  9 10  2  0
  9 11  1  0
 11 12  1  0
 11 33  1  0
 11 34  1  0
 12 13  1  0
 12 35  1  0
 12 36  1  0
 13 14  1  0
 13 37  1  0
 13 38  1  0
 14 15  1  0
 15 16  2  0
 15 20  1  0
 16 17  1  0
 16 39  1  0
 17 18  2  0
 17 40  1  0
 18 19  1  0
 18 41  1  0
 19 20  2  0
 19 42  1  0
 20 43  1  0
 21 22  1  0
 21 23  1  0
 21 44  1  1
 22 23  1  0
 22 45  1  0
 22 46  1  0
 23 47  1  0
 23 48  1  0
M  END

