
     RDKit          3D

 39 42  0  0  0  0  0  0  0  0999 V2000
    2.0875   -0.7829   -0.2960 O   0  0  0  0  0  0  0  0  0  0  0  0
    2.3008    0.3892   -0.2622 C   0  0  0  0  0  0  0  0  0  0  0  0
    1.2928    1.3416   -0.3820 O   0  0  0  0  0  0  0  0  0  0  0  0
    1.8108    2.6324   -0.3127 C   0  0  0  0  0  0  0  0  0  0  0  0
    1.1277    3.6055   -0.3937 O   0  0  0  0  0  0  0  0  0  0  0  0
    3.2827    2.4946   -0.1296 C   0  0  0  0  0  0  0  0  0  0  0  0
    4.2644    3.4724   -0.0104 C   0  0  0  0  0  0  0  0  0  0  0  0
    5.5939    3.0504    0.1648 C   0  0  0  0  0  0  0  0  0  0  0  0
    6.7803    4.0406    0.2579 C   0  0  1  0  0  0  0  0  0  0  0  0
    7.7830    3.6236    1.3608 C   0  0  0  0  0  0  0  0  0  0  0  0
    9.1785    3.7724    1.2148 C   0  0  0  0  0  0  0  0  0  0  0  0
   10.0681    3.4498    2.2466 C   0  0  0  0  0  0  0  0  0  0  0  0
    9.5420    2.9917    3.4502 C   0  0  0  0  0  0  0  0  0  0  0  0
    8.1689    2.8503    3.6031 C   0  0  0  0  0  0  0  0  0  0  0  0
    7.2731    3.1590    2.5846 C   0  0  0  0  0  0  0  0  0  0  0  0
    7.9031    2.3095    4.9668 C   0  0  0  0  0  0  0  0  0  0  0  0
    6.8611    2.0390    5.4896 O   0  0  0  0  0  0  0  0  0  0  0  0
    9.1196    2.1470    5.5762 O   0  0  0  0  0  0  0  0  0  0  0  0
   10.2184    2.5655    4.7386 C   0  0  1  0  0  0  0  0  0  0  0  0
   11.1731    1.5790    4.6095 O   0  0  0  0  0  0  0  0  0  0  0  0
    7.4254    4.0701   -1.1674 C   0  0  1  0  0  0  0  0  0  0  0  0
    6.4958    4.2216   -2.1136 F   0  0  0  0  0  0  0  0  0  0  0  0
    8.3105    5.0678   -1.3154 F   0  0  0  0  0  0  0  0  0  0  0  0
    8.0701    2.9191   -1.4148 F   0  0  0  0  0  0  0  0  0  0  0  0
    6.3188    5.4905    0.6214 C   0  0  1  0  0  0  0  0  0  0  0  0
    5.6113    6.0674   -0.3627 F   0  0  0  0  0  0  0  0  0  0  0  0
    5.5503    5.4746    1.7191 F   0  0  0  0  0  0  0  0  0  0  0  0
    7.3657    6.2797    0.8733 F   0  0  0  0  0  0  0  0  0  0  0  0
    5.8830    1.6672    0.1844 C   0  0  0  0  0  0  0  0  0  0  0  0
    4.8883    0.6939    0.0521 C   0  0  0  0  0  0  0  0  0  0  0  0
    3.5791    1.1366   -0.1003 C   0  0  0  0  0  0  0  0  0  0  0  0
    3.9802    4.5218   -0.0593 H   0  0  0  0  0  0  0  0  0  0  0  0
    9.5950    4.1523    0.2838 H   0  0  0  0  0  0  0  0  0  0  0  0
   11.1445    3.5637    2.0990 H   0  0  0  0  0  0  0  0  0  0  0  0
    6.2028    3.0361    2.7550 H   0  0  0  0  0  0  0  0  0  0  0  0
   10.7167    3.4063    5.2481 H   0  0  0  0  0  0  0  0  0  0  0  0
   10.7930    0.8303    4.1257 H   0  0  0  0  0  0  0  0  0  0  0  0
    6.9172    1.3442    0.3062 H   0  0  0  0  0  0  0  0  0  0  0  0
    5.1305   -0.3704    0.0693 H   0  0  0  0  0  0  0  0  0  0  0  0
  1  2  2  0
  2  3  1  0
  2 31  1  0
  3  4  1  0
  4  5  2  0
  4  6  1  0
  6  7  2  0
  6 31  1  0
  7  8  1  0
  7 32  1  0
  9  8  1  6
  8 29  2  0
  9 10  1  0
  9 21  1  0
  9 25  1  0
 10 11  2  0
 10 15  1  0
 11 12  1  0
 11 33  1  0
 12 13  2  0
 12 34  1  0
 13 14  1  0
 13 19  1  0
 14 15  2  0
 14 16  1  0
 15 35  1  0
 16 17  2  0
 16 18  1  0
 18 19  1  0
 19 20  1  0
 19 36  1  1
 20 37  1  0
 21 22  1  6
 21 23  1  0
 21 24  1  0
 25 26  1  6
 25 27  1  0
 25 28  1  0
 29 30  1  0
 29 38  1  0
 30 31  2  0
 30 39  1  0
M  END

