
     RDKit          3D

 49 52  0  0  0  0  0  0  0  0999 V2000
    1.1367   -0.7918   -1.0767 C   0  0  0  0  0  0  0  0  0  0  0  0
    2.5803   -0.5437   -0.7308 C   0  0  0  0  0  0  0  0  0  0  0  0
    3.1193    0.7557   -0.6170 C   0  0  0  0  0  0  0  0  0  0  0  0
    4.4484    0.9042   -0.2839 C   0  0  0  0  0  0  0  0  0  0  0  0
    5.1959   -0.2834   -0.0548 C   0  0  0  0  0  0  0  0  0  0  0  0
    6.5213   -0.2759    0.3462 N   0  0  0  0  0  0  0  0  0  0  0  0
    7.3678   -1.4515    0.1528 C   0  0  0  0  0  0  0  0  0  0  0  0
    8.2714   -1.2578   -1.0747 C   0  0  0  0  0  0  0  0  0  0  0  0
    9.0509    0.0639   -1.0025 C   0  0  0  0  0  0  0  0  0  0  0  0
    8.1172    1.2524   -0.7260 C   0  0  2  0  0  0  0  0  0  0  0  0
    8.9325    2.4629   -0.5452 N   0  0  0  0  0  0  0  0  0  0  0  0
    8.1996    3.9889   -0.5344 S   0  0  1  0  0  0  0  0  0  0  0  0
    9.0741    4.8440   -1.3404 O   0  0  0  0  0  0  0  0  0  0  0  0
    6.7682    3.8379   -0.8331 O   0  0  0  0  0  0  0  0  0  0  0  0
    8.3338    4.5367    1.1660 C   0  0  0  0  0  0  0  0  0  0  0  0
    9.6071    4.8024    1.7036 C   0  0  0  0  0  0  0  0  0  0  0  0
    9.7212    5.2670    3.0035 C   0  0  0  0  0  0  0  0  0  0  0  0
    8.5643    5.4884    3.7821 C   0  0  0  0  0  0  0  0  0  0  0  0
    8.6457    5.9505    5.0723 N   0  0  0  0  0  0  0  0  0  0  0  0
    9.5590    6.1357    5.4793 H   0  0  0  0  0  0  0  0  0  0  0  0
    7.5681    6.2129    5.9332 C   0  0  0  0  0  0  0  0  0  0  0  0
    7.7636    6.6220    7.0628 O   0  0  0  0  0  0  0  0  0  0  0  0
    6.2547    5.9482    5.3342 C   0  0  0  0  0  0  0  0  0  0  0  0
    6.1259    5.4908    4.0637 C   0  0  0  0  0  0  0  0  0  0  0  0
    7.2786    5.2373    3.2308 C   0  0  0  0  0  0  0  0  0  0  0  0
    7.1838    4.7609    1.9094 C   0  0  0  0  0  0  0  0  0  0  0  0
    7.2742    0.9473    0.5260 C   0  0  0  0  0  0  0  0  0  0  0  0
    4.6291   -1.4893   -0.2237 N   0  0  0  0  0  0  0  0  0  0  0  0
    3.3560   -1.6131   -0.5504 N   0  0  0  0  0  0  0  0  0  0  0  0
    0.8624   -0.3199   -2.0352 H   0  0  0  0  0  0  0  0  0  0  0  0
    0.4607   -0.3831   -0.3065 H   0  0  0  0  0  0  0  0  0  0  0  0
    0.9653   -1.8738   -1.1540 H   0  0  0  0  0  0  0  0  0  0  0  0
    2.4966    1.6330   -0.8129 H   0  0  0  0  0  0  0  0  0  0  0  0
    4.9023    1.8948   -0.2440 H   0  0  0  0  0  0  0  0  0  0  0  0
    6.7195   -2.3273    0.0414 H   0  0  0  0  0  0  0  0  0  0  0  0
    7.9857   -1.5904    1.0591 H   0  0  0  0  0  0  0  0  0  0  0  0
    7.6432   -1.2715   -1.9819 H   0  0  0  0  0  0  0  0  0  0  0  0
    8.9743   -2.1030   -1.1616 H   0  0  0  0  0  0  0  0  0  0  0  0
    9.6099    0.2330   -1.9396 H   0  0  0  0  0  0  0  0  0  0  0  0
    9.7969    0.0163   -0.1884 H   0  0  0  0  0  0  0  0  0  0  0  0
    7.4233    1.3725   -1.5781 H   0  0  0  0  0  0  0  0  0  0  0  0
    9.7206    2.5258   -1.1905 H   0  0  0  0  0  0  0  0  0  0  0  0
   10.4997    4.6463    1.0954 H   0  0  0  0  0  0  0  0  0  0  0  0
   10.7060    5.4727    3.4301 H   0  0  0  0  0  0  0  0  0  0  0  0
    5.3939    6.1434    5.9754 H   0  0  0  0  0  0  0  0  0  0  0  0
    5.1337    5.3030    3.6431 H   0  0  0  0  0  0  0  0  0  0  0  0
    6.2048    4.5751    1.4637 H   0  0  0  0  0  0  0  0  0  0  0  0
    6.6064    1.7816    0.7640 H   0  0  0  0  0  0  0  0  0  0  0  0
    7.9583    0.8252    1.3858 H   0  0  0  0  0  0  0  0  0  0  0  0
  1  2  1  0
  1 30  1  0
  1 31  1  0
  1 32  1  0
  2  3  2  0
  2 29  1  0
  3  4  1  0
  3 33  1  0
  4  5  2  0
  4 34  1  0
  5  6  1  0
  5 28  1  0
  6  7  1  0
  6 27  1  0
  7  8  1  0
  7 35  1  0
  7 36  1  0
  8  9  1  0
  8 37  1  0
  8 38  1  0
  9 10  1  0
  9 39  1  0
  9 40  1  0
 10 11  1  0
 10 27  1  0
 10 41  1  6
 12 11  1  1
 11 42  1  0
 12 13  2  0
 12 14  2  0
 12 15  1  0
 15 16  2  0
 15 26  1  0
 16 17  1  0
 16 43  1  0
 17 18  2  0
 17 44  1  0
 18 19  1  0
 18 25  1  0
 19 20  1  0
 19 21  1  0
 21 22  2  0
 21 23  1  0
 23 24  2  0
 23 45  1  0
 24 25  1  0
 24 46  1  0
 25 26  2  0
 26 47  1  0
 27 48  1  0
 27 49  1  0
 28 29  2  0
M  END

