
     RDKit          3D

 37 40  0  0  0  0  0  0  0  0999 V2000
   -0.7141   -1.2011    0.0929 C   0  0  0  0  0  0  0  0  0  0  0  0
   -1.3041   -0.0304    0.5767 C   0  0  0  0  0  0  0  0  0  0  0  0
   -0.6775    1.1908    0.3301 C   0  0  0  0  0  0  0  0  0  0  0  0
    0.5233    1.2010   -0.3982 C   0  0  0  0  0  0  0  0  0  0  0  0
    1.2831    2.4921   -0.6502 C   0  0  0  0  0  0  0  0  0  0  0  0
    0.4335    3.6614   -0.7939 N   0  0  0  0  0  0  0  0  0  0  0  0
   -0.2735    3.6978   -2.0715 C   0  0  0  0  0  0  0  0  0  0  0  0
   -1.4292    4.7093   -2.0434 C   0  0  0  0  0  0  0  0  0  0  0  0
   -0.9223    5.9835   -1.4538 C   0  0  0  0  0  0  0  0  0  0  0  0
   -1.5393    7.2189   -1.5243 N   0  0  0  0  0  0  0  0  0  0  0  0
   -2.4128    7.4109   -1.9953 H   0  0  0  0  0  0  0  0  0  0  0  0
   -0.7676    8.1510   -0.8584 C   0  0  0  0  0  0  0  0  0  0  0  0
   -0.9683    9.5222   -0.6581 C   0  0  0  0  0  0  0  0  0  0  0  0
   -0.0038   10.2205    0.0668 C   0  0  0  0  0  0  0  0  0  0  0  0
    1.1364    9.5680    0.5815 C   0  0  0  0  0  0  0  0  0  0  0  0
    1.3358    8.2043    0.3810 C   0  0  0  0  0  0  0  0  0  0  0  0
    0.3800    7.4705   -0.3472 C   0  0  0  0  0  0  0  0  0  0  0  0
    0.2470    6.0912   -0.7407 C   0  0  0  0  0  0  0  0  0  0  0  0
    1.1357    4.9102   -0.4909 C   0  0  0  0  0  0  0  0  0  0  0  0
    1.0852    0.0791   -0.8653 N   0  0  0  0  0  0  0  0  0  0  0  0
    0.4819   -1.0865   -0.6210 C   0  0  0  0  0  0  0  0  0  0  0  0
   -1.1685   -2.1804    0.2603 H   0  0  0  0  0  0  0  0  0  0  0  0
   -2.2400   -0.0697    1.1411 H   0  0  0  0  0  0  0  0  0  0  0  0
   -1.0934    2.1369    0.6810 H   0  0  0  0  0  0  0  0  0  0  0  0
    1.9533    2.3227   -1.5201 H   0  0  0  0  0  0  0  0  0  0  0  0
    1.9487    2.6611    0.2153 H   0  0  0  0  0  0  0  0  0  0  0  0
   -0.6676    2.6924   -2.2819 H   0  0  0  0  0  0  0  0  0  0  0  0
    0.4173    3.9523   -2.9083 H   0  0  0  0  0  0  0  0  0  0  0  0
   -2.2656    4.3063   -1.4427 H   0  0  0  0  0  0  0  0  0  0  0  0
   -1.8155    4.8628   -3.0668 H   0  0  0  0  0  0  0  0  0  0  0  0
   -1.8510   10.0303   -1.0553 H   0  0  0  0  0  0  0  0  0  0  0  0
   -0.1340   11.2919    0.2392 H   0  0  0  0  0  0  0  0  0  0  0  0
    1.8732   10.1452    1.1459 H   0  0  0  0  0  0  0  0  0  0  0  0
    2.2243    7.7113    0.7846 H   0  0  0  0  0  0  0  0  0  0  0  0
    1.4527    4.8821    0.5670 H   0  0  0  0  0  0  0  0  0  0  0  0
    2.0740    5.0052   -1.0901 H   0  0  0  0  0  0  0  0  0  0  0  0
    0.9737   -1.9825   -1.0196 H   0  0  0  0  0  0  0  0  0  0  0  0
  1  2  2  0
  1 21  1  0
  1 22  1  0
  2  3  1  0
  2 23  1  0
  3  4  2  0
  3 24  1  0
  4  5  1  0
  4 20  1  0
  5  6  1  0
  5 25  1  0
  5 26  1  0
  6  7  1  0
  6 19  1  0
  7  8  1  0
  7 27  1  0
  7 28  1  0
  8  9  1  0
  8 29  1  0
  8 30  1  0
  9 10  1  0
  9 18  2  0
 10 11  1  0
 10 12  1  0
 12 13  2  0
 12 17  1  0
 13 14  1  0
 13 31  1  0
 14 15  2  0
 14 32  1  0
 15 16  1  0
 15 33  1  0
 16 17  2  0
 16 34  1  0
 17 18  1  0
 18 19  1  0
 19 35  1  0
 19 36  1  0
 20 21  2  0
 21 37  1  0
M  END

