
     RDKit          3D

 38 40  0  0  0  0  0  0  0  0999 V2000
    0.6592   -0.2360    0.2678 C   0  0  0  0  0  0  0  0  0  0  0  0
    2.0741   -0.3313   -0.0487 N   0  0  0  0  0  0  0  0  0  0  0  0
    2.6547   -1.6130    0.3376 C   0  0  0  0  0  0  0  0  0  0  0  0
    4.1668   -1.5389    0.6126 C   0  0  0  0  0  0  0  0  0  0  0  0
    4.7469   -2.8860    0.9745 C   0  0  0  0  0  0  0  0  0  0  0  0
    5.2052   -3.1708    2.2715 C   0  0  0  0  0  0  0  0  0  0  0  0
    5.7169   -4.4392    2.5502 C   0  0  0  0  0  0  0  0  0  0  0  0
    5.7522   -5.3891    1.5281 C   0  0  0  0  0  0  0  0  0  0  0  0
    5.2693   -5.0160    0.2696 C   0  0  0  0  0  0  0  0  0  0  0  0
    4.7823   -3.8051   -0.0033 N   0  0  0  0  0  0  0  0  0  0  0  0
    2.3534    0.0390   -1.4292 C   0  0  0  0  0  0  0  0  0  0  0  0
    2.2147    1.5258   -1.7163 C   0  0  0  0  0  0  0  0  0  0  0  0
    2.6091    2.4772   -0.7662 C   0  0  0  0  0  0  0  0  0  0  0  0
    2.5508    3.8601   -1.0266 C   0  0  0  0  0  0  0  0  0  0  0  0
    2.0927    4.2472   -2.2734 C   0  0  0  0  0  0  0  0  0  0  0  0
    1.6956    3.3080   -3.2272 C   0  0  0  0  0  0  0  0  0  0  0  0
    1.7380    1.9479   -2.9784 C   0  0  0  0  0  0  0  0  0  0  0  0
    1.2498    3.9614   -4.3456 O   0  0  0  0  0  0  0  0  0  0  0  0
    1.5655    5.3358   -4.1462 C   0  0  0  0  0  0  0  0  0  0  0  0
    1.9035    5.5088   -2.7743 O   0  0  0  0  0  0  0  0  0  0  0  0
    0.4979   -0.3973    1.3454 H   0  0  0  0  0  0  0  0  0  0  0  0
    0.0370   -0.9762   -0.2861 H   0  0  0  0  0  0  0  0  0  0  0  0
    0.2844    0.7677    0.0177 H   0  0  0  0  0  0  0  0  0  0  0  0
    2.4693   -2.4067   -0.4185 H   0  0  0  0  0  0  0  0  0  0  0  0
    2.1529   -1.9443    1.2612 H   0  0  0  0  0  0  0  0  0  0  0  0
    4.3497   -0.8083    1.4152 H   0  0  0  0  0  0  0  0  0  0  0  0
    4.6883   -1.1778   -0.2887 H   0  0  0  0  0  0  0  0  0  0  0  0
    5.1632   -2.4025    3.0473 H   0  0  0  0  0  0  0  0  0  0  0  0
    6.0832   -4.6815    3.5515 H   0  0  0  0  0  0  0  0  0  0  0  0
    6.1444   -6.3947    1.6963 H   0  0  0  0  0  0  0  0  0  0  0  0
    5.2810   -5.7347   -0.5592 H   0  0  0  0  0  0  0  0  0  0  0  0
    1.7132   -0.5298   -2.1426 H   0  0  0  0  0  0  0  0  0  0  0  0
    3.3892   -0.2608   -1.6612 H   0  0  0  0  0  0  0  0  0  0  0  0
    2.9599    2.1220    0.2045 H   0  0  0  0  0  0  0  0  0  0  0  0
    2.8500    4.5980   -0.2804 H   0  0  0  0  0  0  0  0  0  0  0  0
    1.4101    1.2302   -3.7334 H   0  0  0  0  0  0  0  0  0  0  0  0
    0.6911    5.9584   -4.3959 H   0  0  0  0  0  0  0  0  0  0  0  0
    2.4299    5.6157   -4.7826 H   0  0  0  0  0  0  0  0  0  0  0  0
  1  2  1  0
  1 21  1  0
  1 22  1  0
  1 23  1  0
  2  3  1  0
  2 11  1  0
  3  4  1  0
  3 24  1  0
  3 25  1  0
  4  5  1  0
  4 26  1  0
  4 27  1  0
  5  6  2  0
  5 10  1  0
  6  7  1  0
  6 28  1  0
  7  8  2  0
  7 29  1  0
  8  9  1  0
  8 30  1  0
  9 10  2  0
  9 31  1  0
 11 12  1  0
 11 32  1  0
 11 33  1  0
 12 13  2  0
 12 17  1  0
 13 14  1  0
 13 34  1  0
 14 15  2  0
 14 35  1  0
 15 16  1  0
 15 20  1  0
 16 17  2  0
 16 18  1  0
 17 36  1  0
 18 19  1  0
 19 20  1  0
 19 37  1  0
 19 38  1  0
M  END

