
     RDKit          3D

 43 44  0  0  0  0  0  0  0  0999 V2000
    3.4602   -1.4651   -0.1480 C   0  0  0  0  0  0  0  0  0  0  0  0
    2.7055   -0.1488    0.0957 C   0  0  0  0  0  0  0  0  0  0  0  0
    3.2026    0.6093    1.3079 C   0  0  0  0  0  0  0  0  0  0  0  0
    4.2448    1.5425    1.2036 C   0  0  0  0  0  0  0  0  0  0  0  0
    4.7326    2.2109    2.3294 C   0  0  0  0  0  0  0  0  0  0  0  0
    4.1907    1.9749    3.5999 C   0  0  0  0  0  0  0  0  0  0  0  0
    4.7271    2.7069    4.8205 C   0  0  1  0  0  0  0  0  0  0  0  0
    3.6639    3.5509    5.5419 C   0  0  0  0  0  0  0  0  0  0  0  0
    5.3638    1.7576    5.7361 N   0  0  0  0  0  0  0  0  0  0  0  0
    6.4301    2.0666    6.4934 C   0  0  0  0  0  0  0  0  0  0  0  0
    7.0006    3.1503    6.5365 O   0  0  0  0  0  0  0  0  0  0  0  0
    6.9018    0.8701    7.3521 C   0  0  0  0  0  0  0  0  0  0  0  0
    6.3304   -0.2103    7.3203 O   0  0  0  0  0  0  0  0  0  0  0  0
    7.9837    1.2088    8.0945 N   0  0  0  0  0  0  0  0  0  0  0  0
    8.7096    0.4251    8.9981 C   0  0  0  0  0  0  0  0  0  0  0  0
    8.4111   -0.9137    9.2853 C   0  0  0  0  0  0  0  0  0  0  0  0
    9.1992   -1.6113   10.2057 C   0  0  0  0  0  0  0  0  0  0  0  0
    8.8167   -3.2837   10.5572 Cl  0  0  0  0  0  0  0  0  0  0  0  0
   10.2788   -1.0037   10.8461 C   0  0  0  0  0  0  0  0  0  0  0  0
   10.5743    0.3328   10.5569 C   0  0  0  0  0  0  0  0  0  0  0  0
    9.8036    1.0499    9.6434 C   0  0  0  0  0  0  0  0  0  0  0  0
   10.0338    2.3517    9.3143 O   0  0  0  0  0  0  0  0  0  0  0  0
    3.1436    1.0455    3.7076 C   0  0  0  0  0  0  0  0  0  0  0  0
    2.6629    0.3733    2.5825 C   0  0  0  0  0  0  0  0  0  0  0  0
    3.0698   -1.9864   -1.0369 H   0  0  0  0  0  0  0  0  0  0  0  0
    3.3631   -2.1447    0.7139 H   0  0  0  0  0  0  0  0  0  0  0  0
    4.5355   -1.2835   -0.3058 H   0  0  0  0  0  0  0  0  0  0  0  0
    1.6301   -0.3634    0.2158 H   0  0  0  0  0  0  0  0  0  0  0  0
    2.7956    0.4926   -0.7972 H   0  0  0  0  0  0  0  0  0  0  0  0
    4.6832    1.7526    0.2234 H   0  0  0  0  0  0  0  0  0  0  0  0
    5.5480    2.9313    2.2178 H   0  0  0  0  0  0  0  0  0  0  0  0
    5.5289    3.3883    4.4970 H   0  0  0  0  0  0  0  0  0  0  0  0
    2.8499    2.9231    5.9371 H   0  0  0  0  0  0  0  0  0  0  0  0
    3.2250    4.2861    4.8498 H   0  0  0  0  0  0  0  0  0  0  0  0
    4.1227    4.0942    6.3818 H   0  0  0  0  0  0  0  0  0  0  0  0
    5.0251    0.8012    5.8161 H   0  0  0  0  0  0  0  0  0  0  0  0
    8.2914    2.1736    7.9618 H   0  0  0  0  0  0  0  0  0  0  0  0
    7.5702   -1.3914    8.7883 H   0  0  0  0  0  0  0  0  0  0  0  0
   10.8819   -1.5646   11.5609 H   0  0  0  0  0  0  0  0  0  0  0  0
   11.4184    0.8235   11.0509 H   0  0  0  0  0  0  0  0  0  0  0  0
   10.7927    2.6927    9.8042 H   0  0  0  0  0  0  0  0  0  0  0  0
    2.6864    0.8427    4.6808 H   0  0  0  0  0  0  0  0  0  0  0  0
    1.8446   -0.3442    2.6955 H   0  0  0  0  0  0  0  0  0  0  0  0
  1  2  1  0
  1 25  1  0
  1 26  1  0
  1 27  1  0
  2  3  1  0
  2 28  1  0
  2 29  1  0
  3  4  2  0
  3 24  1  0
  4  5  1  0
  4 30  1  0
  5  6  2  0
  5 31  1  0
  6  7  1  0
  6 23  1  0
  7  8  1  0
  7  9  1  0
  7 32  1  6
  8 33  1  0
  8 34  1  0
  8 35  1  0
  9 10  1  0
  9 36  1  0
 10 11  2  0
 10 12  1  0
 12 13  2  0
 12 14  1  0
 14 15  1  0
 14 37  1  0
 15 16  2  0
 15 21  1  0
 16 17  1  0
 16 38  1  0
 17 18  1  0
 17 19  2  0
 19 20  1  0
 19 39  1  0
 20 21  2  0
 20 40  1  0
 21 22  1  0
 22 41  1  0
 23 24  2  0
 23 42  1  0
 24 43  1  0
M  END

