
     RDKit          3D

 65 67  0  0  0  0  0  0  0  0999 V2000
    2.0387    2.5788   -2.3536 C   0  0  0  0  0  0  0  0  0  0  0  0
    2.9684    2.4821   -1.1431 C   0  0  0  0  0  0  0  0  0  0  0  0
    4.3313    1.8693   -1.4780 C   0  0  0  0  0  0  0  0  0  0  0  0
    5.2521    1.7762   -0.2718 C   0  0  0  0  0  0  0  0  0  0  0  0
    6.4801    1.1978   -0.6933 O   0  0  0  0  0  0  0  0  0  0  0  0
    7.4827    1.0116    0.1923 C   0  0  0  0  0  0  0  0  0  0  0  0
    7.4135    1.3418    1.5577 C   0  0  0  0  0  0  0  0  0  0  0  0
    8.5134    1.1070    2.3816 C   0  0  0  0  0  0  0  0  0  0  0  0
    9.6931    0.5337    1.8856 C   0  0  0  0  0  0  0  0  0  0  0  0
   10.8224    0.3398    2.8543 C   0  0  0  0  0  0  0  0  0  0  0  0
   10.8557    0.8974    3.9286 O   0  0  0  0  0  0  0  0  0  0  0  0
   11.7969   -0.5788    2.4406 N   0  0  0  0  0  0  0  0  0  0  0  0
   13.0769   -0.7546    2.9839 C   0  0  0  0  0  0  0  0  0  0  0  0
   14.0172    0.4998    3.5038 S   0  0  0  0  0  0  0  0  0  0  0  0
   13.4983   -2.0737    2.9885 N   0  0  0  0  0  0  0  0  0  0  0  0
   12.5746   -3.2214    3.0349 C   0  0  0  0  0  0  0  0  0  0  0  0
   12.9879   -4.3888    2.1577 C   0  0  0  0  0  0  0  0  0  0  0  0
   13.0223   -4.3017    0.7525 C   0  0  0  0  0  0  0  0  0  0  0  0
   12.5762   -2.8034   -0.0557 Cl  0  0  0  0  0  0  0  0  0  0  0  0
   13.3943   -5.3662   -0.0691 C   0  0  0  0  0  0  0  0  0  0  0  0
   13.7482   -6.5823    0.5145 C   0  0  0  0  0  0  0  0  0  0  0  0
   13.7199   -6.7259    1.8998 C   0  0  0  0  0  0  0  0  0  0  0  0
   13.3437   -5.6425    2.6996 C   0  0  0  0  0  0  0  0  0  0  0  0
   13.3166   -5.9141    4.4318 Cl  0  0  0  0  0  0  0  0  0  0  0  0
   14.8748   -2.3600    3.2958 C   0  0  0  0  0  0  0  0  0  0  0  0
   15.2490   -2.7739    4.5801 C   0  0  0  0  0  0  0  0  0  0  0  0
   16.5776   -3.0969    4.8463 C   0  0  0  0  0  0  0  0  0  0  0  0
   17.5462   -3.0070    3.8356 C   0  0  0  0  0  0  0  0  0  0  0  0
   18.9550   -3.3641    4.1804 C   0  0  0  0  0  0  0  0  0  0  0  0
   19.3122   -3.7418    5.2736 O   0  0  0  0  0  0  0  0  0  0  0  0
   19.7918   -3.2235    3.1328 O   0  0  0  0  0  0  0  0  0  0  0  0
   21.1811   -3.5281    3.3472 C   0  0  0  0  0  0  0  0  0  0  0  0
   21.9400   -2.3356    3.9057 C   0  0  0  0  0  0  0  0  0  0  0  0
   17.1668   -2.5898    2.5494 C   0  0  0  0  0  0  0  0  0  0  0  0
   15.8372   -2.2732    2.2814 C   0  0  0  0  0  0  0  0  0  0  0  0
    9.7532    0.2189    0.5142 C   0  0  0  0  0  0  0  0  0  0  0  0
    8.6679    0.4519   -0.3213 C   0  0  0  0  0  0  0  0  0  0  0  0
    1.0683    3.0228   -2.0813 H   0  0  0  0  0  0  0  0  0  0  0  0
    1.8410    1.5844   -2.7870 H   0  0  0  0  0  0  0  0  0  0  0  0
    2.4800    3.2030   -3.1483 H   0  0  0  0  0  0  0  0  0  0  0  0
    2.4810    1.8832   -0.3523 H   0  0  0  0  0  0  0  0  0  0  0  0
    3.1149    3.4887   -0.7110 H   0  0  0  0  0  0  0  0  0  0  0  0
    4.8350    2.4660   -2.2582 H   0  0  0  0  0  0  0  0  0  0  0  0
    4.2002    0.8570   -1.8982 H   0  0  0  0  0  0  0  0  0  0  0  0
    4.7944    1.1550    0.5214 H   0  0  0  0  0  0  0  0  0  0  0  0
    5.4350    2.7795    0.1576 H   0  0  0  0  0  0  0  0  0  0  0  0
    6.5124    1.7831    1.9832 H   0  0  0  0  0  0  0  0  0  0  0  0
    8.4778    1.3715    3.4403 H   0  0  0  0  0  0  0  0  0  0  0  0
   11.5732   -1.1603    1.6392 H   0  0  0  0  0  0  0  0  0  0  0  0
   11.5764   -2.8769    2.7405 H   0  0  0  0  0  0  0  0  0  0  0  0
   12.4858   -3.5791    4.0707 H   0  0  0  0  0  0  0  0  0  0  0  0
   13.4014   -5.2342   -1.1516 H   0  0  0  0  0  0  0  0  0  0  0  0
   14.0434   -7.4242   -0.1157 H   0  0  0  0  0  0  0  0  0  0  0  0
   13.9875   -7.6707    2.3740 H   0  0  0  0  0  0  0  0  0  0  0  0
   14.5013   -2.8262    5.3733 H   0  0  0  0  0  0  0  0  0  0  0  0
   16.8897   -3.4165    5.8421 H   0  0  0  0  0  0  0  0  0  0  0  0
   21.5604   -3.8131    2.3549 H   0  0  0  0  0  0  0  0  0  0  0  0
   21.2561   -4.3926    4.0234 H   0  0  0  0  0  0  0  0  0  0  0  0
   21.8312   -1.4570    3.2508 H   0  0  0  0  0  0  0  0  0  0  0  0
   23.0124   -2.5774    3.9829 H   0  0  0  0  0  0  0  0  0  0  0  0
   21.5748   -2.0765    4.9103 H   0  0  0  0  0  0  0  0  0  0  0  0
   17.9197   -2.5200    1.7639 H   0  0  0  0  0  0  0  0  0  0  0  0
   15.5308   -1.9494    1.2852 H   0  0  0  0  0  0  0  0  0  0  0  0
   10.6674   -0.1860    0.0734 H   0  0  0  0  0  0  0  0  0  0  0  0
    8.7115    0.2202   -1.3872 H   0  0  0  0  0  0  0  0  0  0  0  0
  1  2  1  0
  1 38  1  0
  1 39  1  0
  1 40  1  0
  2  3  1  0
  2 41  1  0
  2 42  1  0
  3  4  1  0
  3 43  1  0
  3 44  1  0
  4  5  1  0
  4 45  1  0
  4 46  1  0
  5  6  1  0
  6  7  2  0
  6 37  1  0
  7  8  1  0
  7 47  1  0
  8  9  2  0
  8 48  1  0
  9 10  1  0
  9 36  1  0
 10 11  2  0
 10 12  1  0
 12 13  1  0
 12 49  1  0
 13 14  2  0
 13 15  1  0
 15 16  1  0
 15 25  1  0
 16 17  1  0
 16 50  1  0
 16 51  1  0
 17 18  2  0
 17 23  1  0
 18 19  1  0
 18 20  1  0
 20 21  2  0
 20 52  1  0
 21 22  1  0
 21 53  1  0
 22 23  2  0
 22 54  1  0
 23 24  1  0
 25 26  2  0
 25 35  1  0
 26 27  1  0
 26 55  1  0
 27 28  2  0
 27 56  1  0
 28 29  1  0
 28 34  1  0
 29 30  2  0
 29 31  1  0
 31 32  1  0
 32 33  1  0
 32 57  1  0
 32 58  1  0
 33 59  1  0
 33 60  1  0
 33 61  1  0
 34 35  2  0
 34 62  1  0
 35 63  1  0
 36 37  2  0
 36 64  1  0
 37 65  1  0
M  END

