
     RDKit          3D

 40 40  0  0  0  0  0  0  0  0999 V2000
    0.9309   -0.3482   -0.2372 C   0  0  0  0  0  0  0  0  0  0  0  0
    2.4517   -0.2017   -0.1710 C   0  0  0  0  0  0  0  0  0  0  0  0
    2.9258    0.8033    0.8835 C   0  0  0  0  0  0  0  0  0  0  0  0
    4.4477    0.9562    0.9560 C   0  0  0  0  0  0  0  0  0  0  0  0
    4.9193    1.9634    2.0098 C   0  0  0  0  0  0  0  0  0  0  0  0
    6.4429    2.1048    2.0730 C   0  0  0  0  0  0  0  0  0  0  0  0
    6.9625    3.1803    3.0407 C   0  0  1  0  0  0  0  0  0  0  0  0
    6.6015    2.9155    4.5095 C   0  0  0  0  0  0  0  0  0  0  0  0
    8.4044    3.3146    2.8504 N   0  0  0  0  0  0  0  0  0  0  0  0
    9.1112    4.4531    3.1690 C   0  0  0  0  0  0  0  0  0  0  0  0
   10.5352    4.4566    3.1211 C   0  0  0  0  0  0  0  0  0  0  0  0
   11.2211    5.6222    3.3928 C   0  0  0  0  0  0  0  0  0  0  0  0
   10.5213    6.8086    3.7207 C   0  0  0  0  0  0  0  0  0  0  0  0
   11.1779    8.0033    3.9416 N   0  0  0  0  0  0  0  0  0  0  0  0
    9.1146    6.6887    3.7553 C   0  0  0  0  0  0  0  0  0  0  0  0
    8.3397    7.8492    4.1152 C   0  0  0  0  0  0  0  0  0  0  0  0
    7.7811    8.8213    4.4217 N   0  0  0  0  0  0  0  0  0  0  0  0
    8.4413    5.5537    3.4910 N   0  0  0  0  0  0  0  0  0  0  0  0
    0.6265   -1.0775   -1.0050 H   0  0  0  0  0  0  0  0  0  0  0  0
    0.4458    0.6122   -0.4801 H   0  0  0  0  0  0  0  0  0  0  0  0
    0.5184   -0.6892    0.7273 H   0  0  0  0  0  0  0  0  0  0  0  0
    2.8365    0.1036   -1.1613 H   0  0  0  0  0  0  0  0  0  0  0  0
    2.9088   -1.1868    0.0357 H   0  0  0  0  0  0  0  0  0  0  0  0
    2.5415    0.4989    1.8752 H   0  0  0  0  0  0  0  0  0  0  0  0
    2.4696    1.7897    0.6775 H   0  0  0  0  0  0  0  0  0  0  0  0
    4.8320    1.2590   -0.0358 H   0  0  0  0  0  0  0  0  0  0  0  0
    4.9038   -0.0299    1.1641 H   0  0  0  0  0  0  0  0  0  0  0  0
    4.5249    1.6612    2.9957 H   0  0  0  0  0  0  0  0  0  0  0  0
    4.4723    2.9518    1.7956 H   0  0  0  0  0  0  0  0  0  0  0  0
    6.8276    2.3459    1.0670 H   0  0  0  0  0  0  0  0  0  0  0  0
    6.8881    1.1273    2.3460 H   0  0  0  0  0  0  0  0  0  0  0  0
    6.5286    4.1516    2.7549 H   0  0  0  0  0  0  0  0  0  0  0  0
    7.0101    1.9474    4.8480 H   0  0  0  0  0  0  0  0  0  0  0  0
    5.5111    2.8964    4.6611 H   0  0  0  0  0  0  0  0  0  0  0  0
    7.0115    3.7109    5.1491 H   0  0  0  0  0  0  0  0  0  0  0  0
    8.9363    2.4531    2.8159 H   0  0  0  0  0  0  0  0  0  0  0  0
   11.0799    3.5448    2.8629 H   0  0  0  0  0  0  0  0  0  0  0  0
   12.3138    5.6375    3.3491 H   0  0  0  0  0  0  0  0  0  0  0  0
   12.1415    7.9502    4.2485 H   0  0  0  0  0  0  0  0  0  0  0  0
   10.6460    8.7516    4.3734 H   0  0  0  0  0  0  0  0  0  0  0  0
  1  2  1  0
  1 19  1  0
  1 20  1  0
  1 21  1  0
  2  3  1  0
  2 22  1  0
  2 23  1  0
  3  4  1  0
  3 24  1  0
  3 25  1  0
  4  5  1  0
  4 26  1  0
  4 27  1  0
  5  6  1  0
  5 28  1  0
  5 29  1  0
  6  7  1  0
  6 30  1  0
  6 31  1  0
  7  8  1  0
  7  9  1  0
  7 32  1  6
  8 33  1  0
  8 34  1  0
  8 35  1  0
  9 10  1  0
  9 36  1  0
 10 11  2  0
 10 18  1  0
 11 12  1  0
 11 37  1  0
 12 13  2  0
 12 38  1  0
 13 14  1  0
 13 15  1  0
 14 39  1  0
 14 40  1  0
 15 16  1  0
 15 18  2  0
 16 17  3  0
M  END

