
     RDKit          3D

 45 45  0  0  0  0  0  0  0  0999 V2000
    6.5879    1.7597    0.6386 C   0  0  0  0  0  0  0  0  0  0  0  0
    5.3761    2.0597    1.5239 C   0  0  0  0  0  0  0  0  0  0  0  0
    4.1196    1.2400    1.1990 C   0  0  0  0  0  0  0  0  0  0  0  0
    4.2021   -0.2754    1.4456 C   0  0  0  0  0  0  0  0  0  0  0  0
    4.3784   -0.6533    2.8577 N   0  0  0  0  0  0  0  0  0  0  0  0
    3.1649   -0.6066    3.6903 C   0  0  0  0  0  0  0  0  0  0  0  0
    2.2099   -1.7942    3.4849 C   0  0  0  0  0  0  0  0  0  0  0  0
    2.7925   -3.1608    3.8461 C   0  0  0  0  0  0  0  0  0  0  0  0
    5.6194   -1.0383    3.2498 C   0  0  0  0  0  0  0  0  0  0  0  0
    6.5791   -1.0756    2.4749 O   0  0  0  0  0  0  0  0  0  0  0  0
    5.9011   -1.4508    4.7336 C   0  0  0  0  0  0  0  0  0  0  0  0
    5.0746   -1.4781    5.6364 O   0  0  0  0  0  0  0  0  0  0  0  0
    7.2136   -1.7707    4.8482 N   0  0  0  0  0  0  0  0  0  0  0  0
    7.9407   -2.1985    5.9754 C   0  0  0  0  0  0  0  0  0  0  0  0
    7.3498   -2.3548    7.2390 C   0  0  0  0  0  0  0  0  0  0  0  0
    8.1115   -2.7817    8.3278 C   0  0  0  0  0  0  0  0  0  0  0  0
    9.4733   -3.0588    8.1728 C   0  0  0  0  0  0  0  0  0  0  0  0
   10.2673   -3.4776    9.1947 O   0  0  0  0  0  0  0  0  0  0  0  0
   10.0626   -2.9022    6.9107 C   0  0  0  0  0  0  0  0  0  0  0  0
    9.3219   -2.4767    5.8065 C   0  0  0  0  0  0  0  0  0  0  0  0
    9.9870   -2.3180    4.4604 C   0  0  0  0  0  0  0  0  0  0  0  0
    7.4220    2.4411    0.8719 H   0  0  0  0  0  0  0  0  0  0  0  0
    6.3447    1.8906   -0.4300 H   0  0  0  0  0  0  0  0  0  0  0  0
    6.9491    0.7317    0.7905 H   0  0  0  0  0  0  0  0  0  0  0  0
    5.1122    3.1281    1.4327 H   0  0  0  0  0  0  0  0  0  0  0  0
    5.6464    1.9122    2.5847 H   0  0  0  0  0  0  0  0  0  0  0  0
    3.8612    1.3764    0.1329 H   0  0  0  0  0  0  0  0  0  0  0  0
    3.2645    1.6517    1.7638 H   0  0  0  0  0  0  0  0  0  0  0  0
    5.0312   -0.7161    0.8791 H   0  0  0  0  0  0  0  0  0  0  0  0
    3.2714   -0.7444    1.0891 H   0  0  0  0  0  0  0  0  0  0  0  0
    2.6366    0.3270    3.4373 H   0  0  0  0  0  0  0  0  0  0  0  0
    3.4648   -0.5479    4.7395 H   0  0  0  0  0  0  0  0  0  0  0  0
    1.8430   -1.8081    2.4430 H   0  0  0  0  0  0  0  0  0  0  0  0
    1.3207   -1.5925    4.1078 H   0  0  0  0  0  0  0  0  0  0  0  0
    3.6539   -3.4140    3.2064 H   0  0  0  0  0  0  0  0  0  0  0  0
    2.0415   -3.9551    3.7097 H   0  0  0  0  0  0  0  0  0  0  0  0
    3.1378   -3.1852    4.8905 H   0  0  0  0  0  0  0  0  0  0  0  0
    7.7015   -1.6723    3.9575 H   0  0  0  0  0  0  0  0  0  0  0  0
    6.2907   -2.1382    7.3574 H   0  0  0  0  0  0  0  0  0  0  0  0
    7.6355   -2.8984    9.3067 H   0  0  0  0  0  0  0  0  0  0  0  0
    9.7408   -3.5437   10.0020 H   0  0  0  0  0  0  0  0  0  0  0  0
   11.1273   -3.1226    6.8063 H   0  0  0  0  0  0  0  0  0  0  0  0
   11.0534   -2.5761    4.5159 H   0  0  0  0  0  0  0  0  0  0  0  0
    9.9170   -1.2818    4.0858 H   0  0  0  0  0  0  0  0  0  0  0  0
    9.5287   -2.9686    3.6952 H   0  0  0  0  0  0  0  0  0  0  0  0
  1  2  1  0
  1 22  1  0
  1 23  1  0
  1 24  1  0
  2  3  1  0
  2 25  1  0
  2 26  1  0
  3  4  1  0
  3 27  1  0
  3 28  1  0
  4  5  1  0
  4 29  1  0
  4 30  1  0
  5  6  1  0
  5  9  1  0
  6  7  1  0
  6 31  1  0
  6 32  1  0
  7  8  1  0
  7 33  1  0
  7 34  1  0
  8 35  1  0
  8 36  1  0
  8 37  1  0
  9 10  2  0
  9 11  1  0
 11 12  2  0
 11 13  1  0
 13 14  1  0
 13 38  1  0
 14 15  2  0
 14 20  1  0
 15 16  1  0
 15 39  1  0
 16 17  2  0
 16 40  1  0
 17 18  1  0
 17 19  1  0
 18 41  1  0
 19 20  2  0
 19 42  1  0
 20 21  1  0
 21 43  1  0
 21 44  1  0
 21 45  1  0
M  END

