
     RDKit          3D

 59 62  0  0  0  0  0  0  0  0999 V2000
    0.8176    3.9296    0.7279 C   0  0  0  0  0  0  0  0  0  0  0  0
    2.3302    3.9014    0.9459 C   0  0  0  0  0  0  0  0  0  0  0  0
    2.8867    2.4895    1.0554 C   0  0  0  0  0  0  0  0  0  0  0  0
    4.2806    2.5529    1.2519 O   0  0  0  0  0  0  0  0  0  0  0  0
    4.9057    1.3041    1.3693 C   0  0  0  0  0  0  0  0  0  0  0  0
    6.3939    1.4593    1.5881 C   0  0  0  0  0  0  0  0  0  0  0  0
    7.1891    0.2945    1.6534 C   0  0  0  0  0  0  0  0  0  0  0  0
    8.5690    0.3646    1.8610 C   0  0  0  0  0  0  0  0  0  0  0  0
    9.3712   -0.7312    1.8604 O   0  0  0  0  0  0  0  0  0  0  0  0
    8.7987   -2.0201    1.7838 C   0  0  0  0  0  0  0  0  0  0  0  0
    9.8561   -3.1167    1.9516 C   0  0  0  0  0  0  0  0  0  0  0  0
    9.7092   -4.1761    1.3961 O   0  0  0  0  0  0  0  0  0  0  0  0
   10.8776   -2.8737    2.7638 O   0  0  0  0  0  0  0  0  0  0  0  0
    9.1816    1.6328    2.0360 C   0  0  0  0  0  0  0  0  0  0  0  0
   10.5360    2.1158    2.2635 C   0  0  0  0  0  0  0  0  0  0  0  0
   11.8028    1.5336    2.4996 C   0  0  0  0  0  0  0  0  0  0  0  0
   11.9655    0.0696    2.7673 C   0  0  0  0  0  0  0  0  0  0  0  0
   12.8517   -0.5885    1.9814 N   0  0  0  0  0  0  0  0  0  0  0  0
   11.3529   -0.4840    3.6814 O   0  0  0  0  0  0  0  0  0  0  0  0
   12.9305    2.3601    2.5970 C   0  0  0  0  0  0  0  0  0  0  0  0
   12.8238    3.7568    2.5135 C   0  0  0  0  0  0  0  0  0  0  0  0
   11.5841    4.3649    2.3318 C   0  0  0  0  0  0  0  0  0  0  0  0
   10.4585    3.5408    2.2128 C   0  0  0  0  0  0  0  0  0  0  0  0
    9.1405    3.9230    2.0308 N   0  0  0  0  0  0  0  0  0  0  0  0
    8.6715    5.2934    1.9973 C   0  0  0  0  0  0  0  0  0  0  0  0
    8.8995    6.0309    0.6850 C   0  0  0  0  0  0  0  0  0  0  0  0
    8.9027    5.3587   -0.5452 C   0  0  0  0  0  0  0  0  0  0  0  0
    9.0680    6.0660   -1.7395 C   0  0  0  0  0  0  0  0  0  0  0  0
    9.2302    7.4544   -1.7208 C   0  0  0  0  0  0  0  0  0  0  0  0
    9.2300    8.1325   -0.4983 C   0  0  0  0  0  0  0  0  0  0  0  0
    9.0688    7.4234    0.6951 C   0  0  0  0  0  0  0  0  0  0  0  0
    8.3547    2.7845    1.9180 C   0  0  0  0  0  0  0  0  0  0  0  0
    6.9699    2.7182    1.7057 C   0  0  0  0  0  0  0  0  0  0  0  0
    0.4465    4.9633    0.6532 H   0  0  0  0  0  0  0  0  0  0  0  0
    0.2791    3.4442    1.5591 H   0  0  0  0  0  0  0  0  0  0  0  0
    0.5322    3.4079   -0.2009 H   0  0  0  0  0  0  0  0  0  0  0  0
    2.5961    4.4507    1.8652 H   0  0  0  0  0  0  0  0  0  0  0  0
    2.8478    4.4142    0.1172 H   0  0  0  0  0  0  0  0  0  0  0  0
    2.6534    1.9120    0.1349 H   0  0  0  0  0  0  0  0  0  0  0  0
    2.4029    1.9495    1.8978 H   0  0  0  0  0  0  0  0  0  0  0  0
    4.7294    0.6905    0.4589 H   0  0  0  0  0  0  0  0  0  0  0  0
    4.4706    0.7276    2.2150 H   0  0  0  0  0  0  0  0  0  0  0  0
    6.7077   -0.6733    1.5127 H   0  0  0  0  0  0  0  0  0  0  0  0
    8.3060   -2.1930    0.8133 H   0  0  0  0  0  0  0  0  0  0  0  0
    8.0429   -2.1603    2.5807 H   0  0  0  0  0  0  0  0  0  0  0  0
   10.8971   -1.9635    3.1876 H   0  0  0  0  0  0  0  0  0  0  0  0
   13.2270   -0.1531    1.1489 H   0  0  0  0  0  0  0  0  0  0  0  0
   12.9423   -1.5947    2.0916 H   0  0  0  0  0  0  0  0  0  0  0  0
   13.9057    1.9050    2.7851 H   0  0  0  0  0  0  0  0  0  0  0  0
   13.7209    4.3733    2.6070 H   0  0  0  0  0  0  0  0  0  0  0  0
   11.4975    5.4507    2.2689 H   0  0  0  0  0  0  0  0  0  0  0  0
    9.1489    5.8512    2.8199 H   0  0  0  0  0  0  0  0  0  0  0  0
    7.5953    5.2787    2.2307 H   0  0  0  0  0  0  0  0  0  0  0  0
    8.7786    4.2736   -0.5695 H   0  0  0  0  0  0  0  0  0  0  0  0
    9.0703    5.5274   -2.6906 H   0  0  0  0  0  0  0  0  0  0  0  0
    9.3608    8.0058   -2.6554 H   0  0  0  0  0  0  0  0  0  0  0  0
    9.3628    9.2172   -0.4721 H   0  0  0  0  0  0  0  0  0  0  0  0
    9.0766    7.9608    1.6486 H   0  0  0  0  0  0  0  0  0  0  0  0
    6.3453    3.6051    1.6166 H   0  0  0  0  0  0  0  0  0  0  0  0
  1  2  1  0
  1 34  1  0
  1 35  1  0
  1 36  1  0
  2  3  1  0
  2 37  1  0
  2 38  1  0
  3  4  1  0
  3 39  1  0
  3 40  1  0
  4  5  1  0
  5  6  1  0
  5 41  1  0
  5 42  1  0
  6  7  2  0
  6 33  1  0
  7  8  1  0
  7 43  1  0
  8  9  1  0
  8 14  2  0
  9 10  1  0
 10 11  1  0
 10 44  1  0
 10 45  1  0
 11 12  2  0
 11 13  1  0
 13 46  1  0
 14 15  1  0
 14 32  1  0
 15 16  2  0
 15 23  1  0
 16 17  1  0
 16 20  1  0
 17 18  1  0
 17 19  2  0
 18 47  1  0
 18 48  1  0
 20 21  2  0
 20 49  1  0
 21 22  1  0
 21 50  1  0
 22 23  2  0
 22 51  1  0
 23 24  1  0
 24 25  1  0
 24 32  1  0
 25 26  1  0
 25 52  1  0
 25 53  1  0
 26 27  2  0
 26 31  1  0
 27 28  1  0
 27 54  1  0
 28 29  2  0
 28 55  1  0
 29 30  1  0
 29 56  1  0
 30 31  2  0
 30 57  1  0
 31 58  1  0
 32 33  2  0
 33 59  1  0
M  END

