
     RDKit          3D

 52 53  0  0  0  0  0  0  0  0999 V2000
    1.2528    3.6694    3.2259 C   0  0  0  0  0  0  0  0  0  0  0  0
    1.4249    3.3252    1.7423 C   0  0  1  0  0  0  0  0  0  0  0  0
    1.2152    1.8320    1.4668 C   0  0  0  0  0  0  0  0  0  0  0  0
    0.4817    4.1692    0.8818 C   0  0  0  0  0  0  0  0  0  0  0  0
    2.7491    3.7413    1.2749 O   0  0  0  0  0  0  0  0  0  0  0  0
    3.8937    3.2540    1.8016 C   0  0  0  0  0  0  0  0  0  0  0  0
    3.9459    2.4053    2.6835 O   0  0  0  0  0  0  0  0  0  0  0  0
    4.9564    3.8560    1.2082 N   0  0  0  0  0  0  0  0  0  0  0  0
    6.3961    3.4978    1.3125 C   0  0  1  0  0  0  0  0  0  0  0  0
    6.9036    3.7423    2.7643 C   0  0  0  0  0  0  0  0  0  0  0  0
    6.5513    2.7241    3.7273 N   0  0  0  0  0  0  0  0  0  0  0  0
    7.5006    2.0199    4.4148 C   0  0  0  0  0  0  0  0  0  0  0  0
    8.7021    2.2296    4.2931 O   0  0  0  0  0  0  0  0  0  0  0  0
    7.0031    0.9658    5.3675 C   0  0  1  0  0  0  0  0  0  0  0  0
    5.8407    1.2353    6.3075 C   0  0  0  0  0  0  0  0  0  0  0  0
    5.6810    0.2468    5.1937 C   0  0  0  0  0  0  0  0  0  0  0  0
    6.5924    2.0388    0.8421 C   0  0  0  0  0  0  0  0  0  0  0  0
    8.0368    1.5096    0.8237 C   0  0  0  0  0  0  0  0  0  0  0  0
    8.8237    1.7878   -0.4641 C   0  0  0  0  0  0  0  0  0  0  0  0
    8.9708    3.2703   -0.9049 C   0  0  0  0  0  0  0  0  0  0  0  0
    8.6067    4.3411    0.1302 C   0  0  0  0  0  0  0  0  0  0  0  0
    7.1022    4.5210    0.3876 C   0  0  0  0  0  0  0  0  0  0  0  0
    0.2155    3.4687    3.5359 H   0  0  0  0  0  0  0  0  0  0  0  0
    1.4579    4.7377    3.3971 H   0  0  0  0  0  0  0  0  0  0  0  0
    1.9277    3.0737    3.8527 H   0  0  0  0  0  0  0  0  0  0  0  0
    0.1801    1.5488    1.7139 H   0  0  0  0  0  0  0  0  0  0  0  0
    1.9005    1.2192    2.0653 H   0  0  0  0  0  0  0  0  0  0  0  0
    1.3824    1.6129    0.4007 H   0  0  0  0  0  0  0  0  0  0  0  0
   -0.5664    3.9476    1.1333 H   0  0  0  0  0  0  0  0  0  0  0  0
    0.6374    3.9546   -0.1862 H   0  0  0  0  0  0  0  0  0  0  0  0
    0.6614    5.2420    1.0484 H   0  0  0  0  0  0  0  0  0  0  0  0
    4.7046    4.5111    0.4766 H   0  0  0  0  0  0  0  0  0  0  0  0
    6.5145    4.7282    3.0764 H   0  0  0  0  0  0  0  0  0  0  0  0
    7.9991    3.8008    2.7797 H   0  0  0  0  0  0  0  0  0  0  0  0
    5.5736    2.4391    3.7404 H   0  0  0  0  0  0  0  0  0  0  0  0
    7.8408    0.3921    5.7701 H   0  0  0  0  0  0  0  0  0  0  0  0
    5.3368    2.2021    6.2227 H   0  0  0  0  0  0  0  0  0  0  0  0
    5.9310    0.8633    7.3318 H   0  0  0  0  0  0  0  0  0  0  0  0
    5.0473    0.5133    4.3430 H   0  0  0  0  0  0  0  0  0  0  0  0
    5.6615   -0.8177    5.4438 H   0  0  0  0  0  0  0  0  0  0  0  0
    6.1463    1.9480   -0.1643 H   0  0  0  0  0  0  0  0  0  0  0  0
    5.9847    1.4042    1.5025 H   0  0  0  0  0  0  0  0  0  0  0  0
    7.9952    0.4136    0.9412 H   0  0  0  0  0  0  0  0  0  0  0  0
    8.5853    1.8659    1.7103 H   0  0  0  0  0  0  0  0  0  0  0  0
    8.3499    1.2196   -1.2834 H   0  0  0  0  0  0  0  0  0  0  0  0
    9.8253    1.3426   -0.3445 H   0  0  0  0  0  0  0  0  0  0  0  0
    8.3642    3.4522   -1.8097 H   0  0  0  0  0  0  0  0  0  0  0  0
   10.0128    3.4465   -1.2184 H   0  0  0  0  0  0  0  0  0  0  0  0
    8.9892    5.3070   -0.2399 H   0  0  0  0  0  0  0  0  0  0  0  0
    9.1474    4.1623    1.0736 H   0  0  0  0  0  0  0  0  0  0  0  0
    6.5828    4.5086   -0.5887 H   0  0  0  0  0  0  0  0  0  0  0  0
    6.9283    5.5244    0.8144 H   0  0  0  0  0  0  0  0  0  0  0  0
  1  2  1  0
  1 23  1  0
  1 24  1  0
  1 25  1  0
  2  3  1  0
  2  4  1  0
  2  5  1  6
  3 26  1  0
  3 27  1  0
  3 28  1  0
  4 29  1  0
  4 30  1  0
  4 31  1  0
  5  6  1  0
  6  7  2  0
  6  8  1  0
  9  8  1  1
  8 32  1  0
  9 10  1  0
  9 17  1  0
  9 22  1  0
 10 11  1  0
 10 33  1  0
 10 34  1  0
 11 12  1  0
 11 35  1  0
 12 13  2  0
 12 14  1  0
 14 15  1  0
 14 16  1  0
 14 36  1  1
 15 16  1  0
 15 37  1  0
 15 38  1  0
 16 39  1  0
 16 40  1  0
 17 18  1  0
 17 41  1  0
 17 42  1  0
 18 19  1  0
 18 43  1  0
 18 44  1  0
 19 20  1  0
 19 45  1  0
 19 46  1  0
 20 21  1  0
 20 47  1  0
 20 48  1  0
 21 22  1  0
 21 49  1  0
 21 50  1  0
 22 51  1  0
 22 52  1  0
M  END

