
     RDKit          3D

 46 47  0  0  0  0  0  0  0  0999 V2000
    1.6768   -0.4325   -0.0970 C   0  0  0  0  0  0  0  0  0  0  0  0
    1.3936    0.9410   -0.2293 O   0  0  0  0  0  0  0  0  0  0  0  0
    2.4480    1.8536   -0.6067 C   0  0  1  0  0  0  0  0  0  0  0  0
    2.7887    1.5866   -2.1166 C   0  0  1  0  0  0  0  0  0  0  0  0
    1.5993    1.5043   -2.9632 N   0  0  0  0  0  0  0  0  0  0  0  0
    3.7862    2.5880   -2.7394 C   0  0  0  0  0  0  0  0  0  0  0  0
    4.5886    2.0638   -3.9173 C   0  0  0  0  0  0  0  0  0  0  0  0
    3.9807    1.4085   -5.0029 C   0  0  0  0  0  0  0  0  0  0  0  0
    4.7359    0.9475   -6.0837 C   0  0  0  0  0  0  0  0  0  0  0  0
    6.1196    1.1422   -6.0911 C   0  0  0  0  0  0  0  0  0  0  0  0
    7.1568    0.5177   -7.5696 Br  0  0  0  0  0  0  0  0  0  0  0  0
    6.7516    1.7875   -5.0273 C   0  0  0  0  0  0  0  0  0  0  0  0
    5.9810    2.2392   -3.9518 C   0  0  0  0  0  0  0  0  0  0  0  0
    1.8315    3.2447   -0.3825 C   0  0  0  0  0  0  0  0  0  0  0  0
    1.5071    3.5178    1.0915 C   0  0  0  0  0  0  0  0  0  0  0  0
    2.7171    3.3536    2.0431 C   0  0  2  0  0  0  0  0  0  0  0  0
    2.2296    3.4273    3.4998 C   0  0  0  0  0  0  0  0  0  0  0  0
    3.7509    4.4752    1.8194 C   0  0  0  0  0  0  0  0  0  0  0  0
    3.3492    1.9626    1.7879 C   0  0  0  0  0  0  0  0  0  0  0  0
    3.6742    1.6878    0.3130 C   0  0  0  0  0  0  0  0  0  0  0  0
    0.7156   -0.9344    0.0909 H   0  0  0  0  0  0  0  0  0  0  0  0
    2.3468   -0.6550    0.7536 H   0  0  0  0  0  0  0  0  0  0  0  0
    2.1211   -0.8776   -1.0070 H   0  0  0  0  0  0  0  0  0  0  0  0
    3.2744    0.5945   -2.1448 H   0  0  0  0  0  0  0  0  0  0  0  0
    1.1864    2.4315   -3.0755 H   0  0  0  0  0  0  0  0  0  0  0  0
    0.8901    0.9394   -2.4957 H   0  0  0  0  0  0  0  0  0  0  0  0
    4.4968    2.9365   -1.9769 H   0  0  0  0  0  0  0  0  0  0  0  0
    3.2228    3.4867   -3.0529 H   0  0  0  0  0  0  0  0  0  0  0  0
    2.9005    1.2497   -4.9815 H   0  0  0  0  0  0  0  0  0  0  0  0
    4.2498    0.4389   -6.9183 H   0  0  0  0  0  0  0  0  0  0  0  0
    7.8330    1.9343   -5.0349 H   0  0  0  0  0  0  0  0  0  0  0  0
    6.4833    2.7419   -3.1199 H   0  0  0  0  0  0  0  0  0  0  0  0
    0.9090    3.3203   -0.9801 H   0  0  0  0  0  0  0  0  0  0  0  0
    2.5250    4.0084   -0.7696 H   0  0  0  0  0  0  0  0  0  0  0  0
    0.7180    2.8152    1.4035 H   0  0  0  0  0  0  0  0  0  0  0  0
    1.0880    4.5337    1.1971 H   0  0  0  0  0  0  0  0  0  0  0  0
    1.7614    4.4025    3.7133 H   0  0  0  0  0  0  0  0  0  0  0  0
    3.0652    3.2954    4.2074 H   0  0  0  0  0  0  0  0  0  0  0  0
    1.4833    2.6440    3.7107 H   0  0  0  0  0  0  0  0  0  0  0  0
    3.3020    5.4633    2.0131 H   0  0  0  0  0  0  0  0  0  0  0  0
    4.1501    4.4937    0.7938 H   0  0  0  0  0  0  0  0  0  0  0  0
    4.6082    4.3596    2.5031 H   0  0  0  0  0  0  0  0  0  0  0  0
    2.6458    1.1944    2.1500 H   0  0  0  0  0  0  0  0  0  0  0  0
    4.2654    1.8550    2.3945 H   0  0  0  0  0  0  0  0  0  0  0  0
    4.1003    0.6769    0.2002 H   0  0  0  0  0  0  0  0  0  0  0  0
    4.4640    2.3757   -0.0242 H   0  0  0  0  0  0  0  0  0  0  0  0
  1  2  1  0
  1 21  1  0
  1 22  1  0
  1 23  1  0
  3  2  1  1
  3  4  1  0
  3 14  1  0
  3 20  1  0
  4  5  1  0
  4  6  1  0
  4 24  1  1
  5 25  1  0
  5 26  1  0
  6  7  1  0
  6 27  1  0
  6 28  1  0
  7  8  2  0
  7 13  1  0
  8  9  1  0
  8 29  1  0
  9 10  2  0
  9 30  1  0
 10 11  1  0
 10 12  1  0
 12 13  2  0
 12 31  1  0
 13 32  1  0
 14 15  1  0
 14 33  1  0
 14 34  1  0
 15 16  1  0
 15 35  1  0
 15 36  1  0
 16 17  1  1
 16 18  1  0
 16 19  1  0
 17 37  1  0
 17 38  1  0
 17 39  1  0
 18 40  1  0
 18 41  1  0
 18 42  1  0
 19 20  1  0
 19 43  1  0
 19 44  1  0
 20 45  1  0
 20 46  1  0
M  END

