
     RDKit          3D

 49 53  0  0  0  0  0  0  0  0999 V2000
    2.0428    1.7066    2.4435 C   0  0  0  0  0  0  0  0  0  0  0  0
    3.2405    1.3549    1.5965 C   0  0  0  0  0  0  0  0  0  0  0  0
    3.9519    0.1621    1.7985 C   0  0  0  0  0  0  0  0  0  0  0  0
    5.0733   -0.1509    1.0320 C   0  0  0  0  0  0  0  0  0  0  0  0
    5.5375    0.7231    0.0281 C   0  0  0  0  0  0  0  0  0  0  0  0
    6.7433    0.4130   -0.7505 C   0  0  0  0  0  0  0  0  0  0  0  0
    7.3088   -0.7931   -1.1080 C   0  0  0  0  0  0  0  0  0  0  0  0
    6.8352   -2.0750   -1.0670 N   0  0  0  0  0  0  0  0  0  0  0  0
    7.7135   -3.2727   -0.9951 C   0  0  0  0  0  0  0  0  0  0  0  0
    6.7726   -4.3890   -0.5026 C   0  0  0  0  0  0  0  0  0  0  0  0
    5.4130   -3.8844   -0.9247 C   0  0  0  0  0  0  0  0  0  0  0  0
    4.1995   -4.5496   -1.0518 C   0  0  0  0  0  0  0  0  0  0  0  0
    3.0679   -3.8366   -1.4778 C   0  0  0  0  0  0  0  0  0  0  0  0
    3.1692   -2.4746   -1.7760 C   0  0  0  0  0  0  0  0  0  0  0  0
    4.3846   -1.7893   -1.6487 C   0  0  0  0  0  0  0  0  0  0  0  0
    5.5018   -2.5084   -1.2118 C   0  0  0  0  0  0  0  0  0  0  0  0
    8.6757   -0.5329   -1.7093 C   0  0  0  0  0  0  0  0  0  0  0  0
    9.4750   -1.3417   -2.1214 O   0  0  0  0  0  0  0  0  0  0  0  0
    8.8369    0.8479   -1.7128 N   0  0  0  0  0  0  0  0  0  0  0  0
    9.9593    1.5293   -2.2498 C   0  0  0  0  0  0  0  0  0  0  0  0
   11.1556    1.5834   -1.5288 C   0  0  0  0  0  0  0  0  0  0  0  0
   12.2649    2.2471   -2.0524 C   0  0  0  0  0  0  0  0  0  0  0  0
   12.1833    2.8706   -3.2970 C   0  0  0  0  0  0  0  0  0  0  0  0
   10.9929    2.8218   -4.0292 C   0  0  0  0  0  0  0  0  0  0  0  0
   10.9248    3.6015   -5.5834 Cl  0  0  0  0  0  0  0  0  0  0  0  0
    9.8744    2.1433   -3.5155 C   0  0  0  0  0  0  0  0  0  0  0  0
    8.4039    2.0352   -4.4299 Cl  0  0  0  0  0  0  0  0  0  0  0  0
    7.6950    1.4871   -1.1555 C   0  0  0  0  0  0  0  0  0  0  0  0
    7.5988    2.6843   -1.0338 O   0  0  0  0  0  0  0  0  0  0  0  0
    4.8268    1.9261   -0.1705 C   0  0  0  0  0  0  0  0  0  0  0  0
    3.7017    2.2256    0.5952 C   0  0  0  0  0  0  0  0  0  0  0  0
    1.5671    0.8089    2.8669 H   0  0  0  0  0  0  0  0  0  0  0  0
    1.2846    2.2557    1.8637 H   0  0  0  0  0  0  0  0  0  0  0  0
    2.3327    2.3538    3.2903 H   0  0  0  0  0  0  0  0  0  0  0  0
    3.6215   -0.5378    2.5714 H   0  0  0  0  0  0  0  0  0  0  0  0
    5.6101   -1.0804    1.2291 H   0  0  0  0  0  0  0  0  0  0  0  0
    8.5651   -3.0830   -0.3306 H   0  0  0  0  0  0  0  0  0  0  0  0
    8.1173   -3.4980   -1.9942 H   0  0  0  0  0  0  0  0  0  0  0  0
    6.8235   -4.4968    0.5963 H   0  0  0  0  0  0  0  0  0  0  0  0
    7.0307   -5.3652   -0.9391 H   0  0  0  0  0  0  0  0  0  0  0  0
    4.1295   -5.6181   -0.8308 H   0  0  0  0  0  0  0  0  0  0  0  0
    2.1090   -4.3490   -1.5853 H   0  0  0  0  0  0  0  0  0  0  0  0
    2.2879   -1.9279   -2.1205 H   0  0  0  0  0  0  0  0  0  0  0  0
    4.4514   -0.7324   -1.9002 H   0  0  0  0  0  0  0  0  0  0  0  0
   11.2003    1.0997   -0.5519 H   0  0  0  0  0  0  0  0  0  0  0  0
   13.1978    2.2864   -1.4863 H   0  0  0  0  0  0  0  0  0  0  0  0
   13.0383    3.4012   -3.7187 H   0  0  0  0  0  0  0  0  0  0  0  0
    5.1679    2.6312   -0.9280 H   0  0  0  0  0  0  0  0  0  0  0  0
    3.1678    3.1625    0.4108 H   0  0  0  0  0  0  0  0  0  0  0  0
  1  2  1  0
  1 32  1  0
  1 33  1  0
  1 34  1  0
  2  3  2  0
  2 31  1  0
  3  4  1  0
  3 35  1  0
  4  5  2  0
  4 36  1  0
  5  6  1  0
  5 30  1  0
  6  7  2  0
  6 28  1  0
  7  8  1  0
  7 17  1  0
  8  9  1  0
  8 16  1  0
  9 10  1  0
  9 37  1  0
  9 38  1  0
 10 11  1  0
 10 39  1  0
 10 40  1  0
 11 12  1  0
 11 16  2  0
 12 13  2  0
 12 41  1  0
 13 14  1  0
 13 42  1  0
 14 15  2  0
 14 43  1  0
 15 16  1  0
 15 44  1  0
 17 18  2  0
 17 19  1  0
 19 20  1  0
 19 28  1  0
 20 21  2  0
 20 26  1  0
 21 22  1  0
 21 45  1  0
 22 23  2  0
 22 46  1  0
 23 24  1  0
 23 47  1  0
 24 25  1  0
 24 26  2  0
 26 27  1  0
 28 29  2  0
 30 31  2  0
 30 48  1  0
 31 49  1  0
M  END

