
     RDKit          3D

 47 48  0  0  0  0  0  0  0  0999 V2000
    1.0505   -0.4059    0.9788 C   0  0  0  0  0  0  0  0  0  0  0  0
    2.4574   -0.2332    0.4305 C   0  0  0  0  0  0  0  0  0  0  0  0
    3.3526   -1.2630    0.8939 O   0  0  0  0  0  0  0  0  0  0  0  0
    3.9171   -1.0929    2.1089 C   0  0  0  0  0  0  0  0  0  0  0  0
    3.6987   -0.1109    2.7909 O   0  0  0  0  0  0  0  0  0  0  0  0
    4.8381   -2.1729    2.5036 C   0  0  0  0  0  0  0  0  0  0  0  0
    5.6623   -1.9765    3.6116 C   0  0  0  0  0  0  0  0  0  0  0  0
    5.7805   -0.8445    4.5797 C   0  0  0  0  0  0  0  0  0  0  0  0
    6.4628   -3.0811    3.7142 N   0  0  0  0  0  0  0  0  0  0  0  0
    7.1600   -3.2101    4.4387 H   0  0  0  0  0  0  0  0  0  0  0  0
    6.2078   -3.9951    2.7306 C   0  0  0  0  0  0  0  0  0  0  0  0
    6.9606   -5.2835    2.6726 C   0  0  0  0  0  0  0  0  0  0  0  0
    5.1806   -3.4743    1.9349 C   0  0  0  0  0  0  0  0  0  0  0  0
    4.6482   -4.3120    0.8381 C   0  0  0  0  0  0  0  0  0  0  0  0
    5.2457   -5.3131    0.4760 O   0  0  0  0  0  0  0  0  0  0  0  0
    3.3049   -3.9933    0.1704 C   0  0  0  0  0  0  0  0  0  0  0  0
    2.9159   -5.0535   -0.6944 O   0  0  0  0  0  0  0  0  0  0  0  0
    2.5043   -6.1870   -0.1154 C   0  0  0  0  0  0  0  0  0  0  0  0
    2.3054   -6.3190    1.0691 O   0  0  0  0  0  0  0  0  0  0  0  0
    2.3139   -7.2837   -1.1405 C   0  0  0  0  0  0  0  0  0  0  0  0
    1.7381   -8.4413   -0.5075 N   0  0  0  0  0  0  0  0  0  0  0  0
    1.2107   -9.4633   -1.2400 C   0  0  0  0  0  0  0  0  0  0  0  0
    1.2190   -9.4612   -2.4636 O   0  0  0  0  0  0  0  0  0  0  0  0
    0.6159  -10.5994   -0.4789 C   0  0  0  0  0  0  0  0  0  0  0  0
    0.0172  -11.6919   -1.0673 C   0  0  0  0  0  0  0  0  0  0  0  0
   -0.4727  -12.6378   -0.1238 C   0  0  0  0  0  0  0  0  0  0  0  0
   -0.2401  -12.2560    1.1760 C   0  0  0  0  0  0  0  0  0  0  0  0
    0.5797  -10.7390    1.2611 S   0  0  0  0  0  0  0  0  0  0  0  0
    0.3868    0.3603    0.5468 H   0  0  0  0  0  0  0  0  0  0  0  0
    1.0411   -0.2890    2.0721 H   0  0  0  0  0  0  0  0  0  0  0  0
    0.6409   -1.3954    0.7220 H   0  0  0  0  0  0  0  0  0  0  0  0
    2.8703    0.7459    0.7129 H   0  0  0  0  0  0  0  0  0  0  0  0
    2.4733   -0.3266   -0.6653 H   0  0  0  0  0  0  0  0  0  0  0  0
    5.9441    0.1101    4.0589 H   0  0  0  0  0  0  0  0  0  0  0  0
    6.6135   -1.0161    5.2799 H   0  0  0  0  0  0  0  0  0  0  0  0
    4.8527   -0.7164    5.1574 H   0  0  0  0  0  0  0  0  0  0  0  0
    7.5878   -5.3400    1.7701 H   0  0  0  0  0  0  0  0  0  0  0  0
    6.2735   -6.1400    2.6126 H   0  0  0  0  0  0  0  0  0  0  0  0
    7.6027   -5.3989    3.5608 H   0  0  0  0  0  0  0  0  0  0  0  0
    3.4045   -3.1049   -0.4614 H   0  0  0  0  0  0  0  0  0  0  0  0
    2.5335   -3.7982    0.9290 H   0  0  0  0  0  0  0  0  0  0  0  0
    3.3035   -7.4918   -1.5892 H   0  0  0  0  0  0  0  0  0  0  0  0
    1.6806   -6.9229   -1.9679 H   0  0  0  0  0  0  0  0  0  0  0  0
    1.6884   -8.4113    0.5071 H   0  0  0  0  0  0  0  0  0  0  0  0
   -0.0531  -11.7822   -2.1514 H   0  0  0  0  0  0  0  0  0  0  0  0
   -0.9776  -13.5668   -0.3930 H   0  0  0  0  0  0  0  0  0  0  0  0
   -0.5036  -12.7837    2.0920 H   0  0  0  0  0  0  0  0  0  0  0  0
  1  2  1  0
  1 29  1  0
  1 30  1  0
  1 31  1  0
  2  3  1  0
  2 32  1  0
  2 33  1  0
  3  4  1  0
  4  5  2  0
  4  6  1  0
  6  7  2  0
  6 13  1  0
  7  8  1  0
  7  9  1  0
  8 34  1  0
  8 35  1  0
  8 36  1  0
  9 10  1  0
  9 11  1  0
 11 12  1  0
 11 13  2  0
 12 37  1  0
 12 38  1  0
 12 39  1  0
 13 14  1  0
 14 15  2  0
 14 16  1  0
 16 17  1  0
 16 40  1  0
 16 41  1  0
 17 18  1  0
 18 19  2  0
 18 20  1  0
 20 21  1  0
 20 42  1  0
 20 43  1  0
 21 22  1  0
 21 44  1  0
 22 23  2  0
 22 24  1  0
 24 25  2  0
 24 28  1  0
 25 26  1  0
 25 45  1  0
 26 27  2  0
 26 46  1  0
 27 28  1  0
 27 47  1  0
M  END

