
     RDKit          3D

 34 36  0  0  0  0  0  0  0  0999 V2000
    2.0773    0.8905    0.7433 C   0  0  0  0  0  0  0  0  0  0  0  0
    2.7195   -0.2890    0.1982 N   0  0  0  0  0  0  0  0  0  0  0  0
    2.8501   -1.4774    1.0167 C   0  0  0  0  0  0  0  0  0  0  0  0
    3.2786   -0.2526   -1.0621 C   0  0  0  0  0  0  0  0  0  0  0  0
    3.1997    0.9089   -1.8758 C   0  0  0  0  0  0  0  0  0  0  0  0
    3.7603    0.9349   -3.1448 C   0  0  0  0  0  0  0  0  0  0  0  0
    4.4068   -0.1881   -3.6978 C   0  0  0  0  0  0  0  0  0  0  0  0
    5.0171   -0.0833   -5.0430 C   0  0  0  0  0  0  0  0  0  0  0  0
    5.5274    1.1000   -5.3651 N   0  0  0  0  0  0  0  0  0  0  0  0
    6.1687    1.2289   -6.5450 C   0  0  0  0  0  0  0  0  0  0  0  0
    6.3870    0.2920   -7.4383 N   0  0  0  0  0  0  0  0  0  0  0  0
    5.8266   -0.9226   -7.1843 C   0  0  0  0  0  0  0  0  0  0  0  0
    5.9701   -1.9583   -8.1488 C   0  0  0  0  0  0  0  0  0  0  0  0
    5.3498   -3.1751   -7.9640 C   0  0  0  0  0  0  0  0  0  0  0  0
    4.5487   -3.4024   -6.8173 C   0  0  0  0  0  0  0  0  0  0  0  0
    4.4111   -2.4236   -5.8531 C   0  0  0  0  0  0  0  0  0  0  0  0
    5.0722   -1.1710   -5.9905 C   0  0  0  0  0  0  0  0  0  0  0  0
    4.5075   -1.3313   -2.8828 C   0  0  0  0  0  0  0  0  0  0  0  0
    3.9682   -1.3689   -1.6008 C   0  0  0  0  0  0  0  0  0  0  0  0
    1.6851    0.6625    1.7426 H   0  0  0  0  0  0  0  0  0  0  0  0
    1.2285    1.2245    0.1195 H   0  0  0  0  0  0  0  0  0  0  0  0
    2.7746    1.7437    0.8404 H   0  0  0  0  0  0  0  0  0  0  0  0
    2.3147   -1.3291    1.9631 H   0  0  0  0  0  0  0  0  0  0  0  0
    3.9044   -1.7113    1.2583 H   0  0  0  0  0  0  0  0  0  0  0  0
    2.4175   -2.3667    0.5237 H   0  0  0  0  0  0  0  0  0  0  0  0
    2.6985    1.8044   -1.5107 H   0  0  0  0  0  0  0  0  0  0  0  0
    3.7053    1.8465   -3.7423 H   0  0  0  0  0  0  0  0  0  0  0  0
    6.5679    2.2284   -6.7613 H   0  0  0  0  0  0  0  0  0  0  0  0
    6.5664   -1.7381   -9.0363 H   0  0  0  0  0  0  0  0  0  0  0  0
    5.4555   -3.9637   -8.7138 H   0  0  0  0  0  0  0  0  0  0  0  0
    4.0279   -4.3563   -6.7018 H   0  0  0  0  0  0  0  0  0  0  0  0
    3.7687   -2.6014   -4.9909 H   0  0  0  0  0  0  0  0  0  0  0  0
    5.0609   -2.2041   -3.2339 H   0  0  0  0  0  0  0  0  0  0  0  0
    4.1004   -2.2741   -1.0097 H   0  0  0  0  0  0  0  0  0  0  0  0
  1  2  1  0
  1 20  1  0
  1 21  1  0
  1 22  1  0
  2  3  1  0
  2  4  1  0
  3 23  1  0
  3 24  1  0
  3 25  1  0
  4  5  2  0
  4 19  1  0
  5  6  1  0
  5 26  1  0
  6  7  2  0
  6 27  1  0
  7  8  1  0
  7 18  1  0
  8  9  2  0
  8 17  1  0
  9 10  1  0
 10 11  2  0
 10 28  1  0
 11 12  1  0
 12 13  1  0
 12 17  2  0
 13 14  2  0
 13 29  1  0
 14 15  1  0
 14 30  1  0
 15 16  2  0
 15 31  1  0
 16 17  1  0
 16 32  1  0
 18 19  2  0
 18 33  1  0
 19 34  1  0
M  END

