
     RDKit          3D

 42 44  0  0  0  0  0  0  0  0999 V2000
    4.5582   -2.2968   -2.7725 C   0  0  0  0  0  0  0  0  0  0  0  0
    4.9017   -1.1532   -1.8083 C   0  0  0  0  0  0  0  0  0  0  0  0
    4.2391    0.1451   -2.1895 C   0  0  0  0  0  0  0  0  0  0  0  0
    4.5636    0.6809   -3.4198 N   0  0  0  0  0  0  0  0  0  0  0  0
    3.9291    1.7804   -3.6537 C   0  0  0  0  0  0  0  0  0  0  0  0
    4.0260    2.5688   -4.7893 N   0  0  0  0  0  0  0  0  0  0  0  0
    4.3521    2.1382   -6.0878 C   0  0  0  0  0  0  0  0  0  0  0  0
    4.5132    0.9651   -6.3602 O   0  0  0  0  0  0  0  0  0  0  0  0
    4.4596    3.2553   -7.0544 C   0  0  0  0  0  0  0  0  0  0  0  0
    4.5808    4.6569   -6.7689 C   0  0  0  0  0  0  0  0  0  0  0  0
    4.6636    5.3331   -7.9634 C   0  0  0  0  0  0  0  0  0  0  0  0
    4.8716    6.7935   -8.2089 C   0  0  0  0  0  0  0  0  0  0  0  0
    4.5738    4.3860   -8.9841 N   0  0  0  0  0  0  0  0  0  0  0  0
    4.7199    4.6761  -10.3853 C   0  0  1  0  0  0  0  0  0  0  0  0
    3.6844    4.2063  -11.3755 C   0  0  0  0  0  0  0  0  0  0  0  0
    3.8030    5.6691  -11.0570 C   0  0  0  0  0  0  0  0  0  0  0  0
    4.4795    3.1170   -8.4426 C   0  0  0  0  0  0  0  0  0  0  0  0
    4.4404    1.8762   -9.2761 C   0  0  0  0  0  0  0  0  0  0  0  0
    2.8407    2.2841   -2.3507 S   0  0  0  0  0  0  0  0  0  0  0  0
    3.3353    0.8634   -1.4413 C   0  0  0  0  0  0  0  0  0  0  0  0
    2.7820    0.6122   -0.0721 C   0  0  0  0  0  0  0  0  0  0  0  0
    5.1225   -3.2092   -2.5209 H   0  0  0  0  0  0  0  0  0  0  0  0
    4.8031   -2.0075   -3.8055 H   0  0  0  0  0  0  0  0  0  0  0  0
    3.4835   -2.5389   -2.7365 H   0  0  0  0  0  0  0  0  0  0  0  0
    5.9942   -0.9922   -1.8178 H   0  0  0  0  0  0  0  0  0  0  0  0
    4.6349   -1.4285   -0.7765 H   0  0  0  0  0  0  0  0  0  0  0  0
    3.6961    3.5219   -4.7026 H   0  0  0  0  0  0  0  0  0  0  0  0
    4.6565    5.1298   -5.7906 H   0  0  0  0  0  0  0  0  0  0  0  0
    5.0602    7.2979   -7.2506 H   0  0  0  0  0  0  0  0  0  0  0  0
    3.9995    7.2824   -8.6744 H   0  0  0  0  0  0  0  0  0  0  0  0
    5.7370    6.9878   -8.8647 H   0  0  0  0  0  0  0  0  0  0  0  0
    5.7609    4.6671  -10.7329 H   0  0  0  0  0  0  0  0  0  0  0  0
    2.8119    3.6808  -10.9816 H   0  0  0  0  0  0  0  0  0  0  0  0
    4.0397    3.8356  -12.3405 H   0  0  0  0  0  0  0  0  0  0  0  0
    3.0076    6.1114  -10.4531 H   0  0  0  0  0  0  0  0  0  0  0  0
    4.2433    6.3456  -11.7943 H   0  0  0  0  0  0  0  0  0  0  0  0
    5.2252    1.8838  -10.0497 H   0  0  0  0  0  0  0  0  0  0  0  0
    3.4749    1.7490   -9.7950 H   0  0  0  0  0  0  0  0  0  0  0  0
    4.5931    1.0116   -8.6203 H   0  0  0  0  0  0  0  0  0  0  0  0
    3.0320    1.4264    0.6295 H   0  0  0  0  0  0  0  0  0  0  0  0
    3.1928   -0.3193    0.3418 H   0  0  0  0  0  0  0  0  0  0  0  0
    1.6829    0.5151   -0.0812 H   0  0  0  0  0  0  0  0  0  0  0  0
  1  2  1  0
  1 22  1  0
  1 23  1  0
  1 24  1  0
  2  3  1  0
  2 25  1  0
  2 26  1  0
  3  4  1  0
  3 20  2  0
  4  5  2  0
  5  6  1  0
  5 19  1  0
  6  7  1  0
  6 27  1  0
  7  8  2  0
  7  9  1  0
  9 10  1  0
  9 17  2  0
 10 11  2  0
 10 28  1  0
 11 12  1  0
 11 13  1  0
 12 29  1  0
 12 30  1  0
 12 31  1  0
 13 14  1  0
 13 17  1  0
 14 15  1  0
 14 16  1  0
 14 32  1  6
 15 16  1  0
 15 33  1  0
 15 34  1  0
 16 35  1  0
 16 36  1  0
 17 18  1  0
 18 37  1  0
 18 38  1  0
 18 39  1  0
 19 20  1  0
 20 21  1  0
 21 40  1  0
 21 41  1  0
 21 42  1  0
M  END

