
     RDKit          3D

 23 24  0  0  0  0  0  0  0  0999 V2000
    1.0726   -0.4825    0.5541 O   0  0  0  0  0  0  0  0  0  0  0  0
    2.1780   -0.1679    0.1457 C   0  0  0  0  0  0  0  0  0  0  0  0
    2.7355    1.0862    0.3308 N   0  0  0  0  0  0  0  0  0  0  0  0
    2.1852    2.1953    0.9851 C   0  0  0  0  0  0  0  0  0  0  0  0
    0.9137    2.2054    1.5877 C   0  0  0  0  0  0  0  0  0  0  0  0
    0.5060    3.3913    2.2022 C   0  0  0  0  0  0  0  0  0  0  0  0
    1.3081    4.5189    2.2261 C   0  0  0  0  0  0  0  0  0  0  0  0
    2.5513    4.5053    1.6354 N   0  0  0  0  0  0  0  0  0  0  0  0
    3.2902    5.5281    1.6520 O   0  0  0  0  0  0  0  0  0  0  0  0
    2.9718    3.3517    1.0264 C   0  0  0  0  0  0  0  0  0  0  0  0
    3.0354   -1.1207   -0.5983 C   0  0  0  0  0  0  0  0  0  0  0  0
    4.3358   -1.0157   -1.1742 C   0  0  0  0  0  0  0  0  0  0  0  0
    4.7084   -2.1479   -1.7537 N   0  0  0  0  0  0  0  0  0  0  0  0
    3.6728   -2.9827   -1.5629 N   0  0  0  0  0  0  0  0  0  0  0  0
    3.7282   -3.9278   -1.9257 H   0  0  0  0  0  0  0  0  0  0  0  0
    2.6493   -2.4265   -0.8815 C   0  0  0  0  0  0  0  0  0  0  0  0
    3.6610    1.2291   -0.0547 H   0  0  0  0  0  0  0  0  0  0  0  0
    0.2899    1.3170    1.5650 H   0  0  0  0  0  0  0  0  0  0  0  0
   -0.4731    3.4458    2.6830 H   0  0  0  0  0  0  0  0  0  0  0  0
    1.0503    5.4710    2.6868 H   0  0  0  0  0  0  0  0  0  0  0  0
    3.9663    3.4348    0.5875 H   0  0  0  0  0  0  0  0  0  0  0  0
    5.0183   -0.1647   -1.1928 H   0  0  0  0  0  0  0  0  0  0  0  0
    1.7310   -2.9550   -0.6368 H   0  0  0  0  0  0  0  0  0  0  0  0
  1  2  2  0
  2  3  1  0
  2 11  1  0
  3  4  1  0
  3 17  1  0
  4  5  2  0
  4 10  1  0
  5  6  1  0
  5 18  1  0
  6  7  2  0
  6 19  1  0
  7  8  1  0
  7 20  1  0
  8  9  1  0
  8 10  2  0
 10 21  1  0
 11 12  1  0
 11 16  2  0
 12 13  2  0
 12 22  1  0
 13 14  1  0
 14 15  1  0
 14 16  1  0
 16 23  1  0
M  CHG  2   8   1   9  -1
M  END

