
     RDKit          3D

 30 31  0  0  0  0  0  0  0  0999 V2000
    1.4243   -0.0724   -0.5207 N   0  0  0  0  0  0  0  0  0  0  0  0
    2.8653   -0.0694   -0.2944 C   0  0  0  0  0  0  0  0  0  0  0  0
    3.2039    0.7360    0.9712 C   0  0  0  0  0  0  0  0  0  0  0  0
    4.6572    0.7737    1.2987 C   0  0  0  0  0  0  0  0  0  0  0  0
    5.4116    0.2540    2.3151 C   0  0  0  0  0  0  0  0  0  0  0  0
    6.7724    0.6290    2.0513 C   0  0  0  0  0  0  0  0  0  0  0  0
    6.7545    1.3532    0.8924 C   0  0  0  0  0  0  0  0  0  0  0  0
    7.8189    2.0045    0.0661 C   0  0  0  0  0  0  0  0  0  0  0  0
    8.0673    1.3024   -1.2567 C   0  0  0  0  0  0  0  0  0  0  0  0
    7.4099    1.6855   -2.4333 C   0  0  0  0  0  0  0  0  0  0  0  0
    7.6346    0.9972   -3.6286 C   0  0  0  0  0  0  0  0  0  0  0  0
    6.7237    1.5478   -5.2134 Br  0  0  0  0  0  0  0  0  0  0  0  0
    8.5162   -0.0853   -3.6814 C   0  0  0  0  0  0  0  0  0  0  0  0
    9.1778   -0.4785   -2.5156 C   0  0  0  0  0  0  0  0  0  0  0  0
    8.9422    0.2120   -1.3309 C   0  0  0  0  0  0  0  0  0  0  0  0
    9.5854   -0.1756   -0.2160 F   0  0  0  0  0  0  0  0  0  0  0  0
    5.4741    1.4430    0.4296 O   0  0  0  0  0  0  0  0  0  0  0  0
    1.1880   -0.6868   -1.2996 H   0  0  0  0  0  0  0  0  0  0  0  0
    1.1082    0.8599   -0.7930 H   0  0  0  0  0  0  0  0  0  0  0  0
    3.4663    0.3303   -1.1383 H   0  0  0  0  0  0  0  0  0  0  0  0
    3.1964   -1.1114   -0.1465 H   0  0  0  0  0  0  0  0  0  0  0  0
    2.6551    0.3066    1.8227 H   0  0  0  0  0  0  0  0  0  0  0  0
    2.8313    1.7700    0.8439 H   0  0  0  0  0  0  0  0  0  0  0  0
    5.0379   -0.3262    3.1563 H   0  0  0  0  0  0  0  0  0  0  0  0
    7.6534    0.3885    2.6427 H   0  0  0  0  0  0  0  0  0  0  0  0
    8.7448    2.0176    0.6577 H   0  0  0  0  0  0  0  0  0  0  0  0
    7.5389    3.0522   -0.1331 H   0  0  0  0  0  0  0  0  0  0  0  0
    6.7166    2.5281   -2.4098 H   0  0  0  0  0  0  0  0  0  0  0  0
    8.6875   -0.6153   -4.6194 H   0  0  0  0  0  0  0  0  0  0  0  0
    9.8766   -1.3172   -2.5142 H   0  0  0  0  0  0  0  0  0  0  0  0
  1  2  1  0
  1 18  1  0
  1 19  1  0
  2  3  1  0
  2 20  1  0
  2 21  1  0
  3  4  1  0
  3 22  1  0
  3 23  1  0
  4  5  2  0
  4 17  1  0
  5  6  1  0
  5 24  1  0
  6  7  2  0
  6 25  1  0
  7  8  1  0
  7 17  1  0
  8  9  1  0
  8 26  1  0
  8 27  1  0
  9 10  2  0
  9 15  1  0
 10 11  1  0
 10 28  1  0
 11 12  1  0
 11 13  2  0
 13 14  1  0
 13 29  1  0
 14 15  2  0
 14 30  1  0
 15 16  1  0
M  END

