
     RDKit          3D

 35 36  0  0  0  0  0  0  0  0999 V2000
    3.2283    0.3335   -1.5670 C   0  0  0  0  0  0  0  0  0  0  0  0
    2.7949   -0.0467   -0.1477 C   0  0  1  0  0  0  0  0  0  0  0  0
    3.2051    1.0074    0.8854 C   0  0  0  0  0  0  0  0  0  0  0  0
    1.2880   -0.3038   -0.0909 C   0  0  0  0  0  0  0  0  0  0  0  0
    3.3612   -1.3517    0.2175 O   0  0  0  0  0  0  0  0  0  0  0  0
    4.6870   -1.5536    0.2942 C   0  0  0  0  0  0  0  0  0  0  0  0
    5.5469   -0.7242    0.0685 O   0  0  0  0  0  0  0  0  0  0  0  0
    4.9749   -2.8568    0.6452 N   0  0  0  0  0  0  0  0  0  0  0  0
    3.9805   -3.8342    1.0898 C   0  0  0  0  0  0  0  0  0  0  0  0
    4.4003   -5.2302    0.6380 C   0  0  0  0  0  0  0  0  0  0  0  0
    5.7254   -5.5295    1.0371 O   0  0  0  0  0  0  0  0  0  0  0  0
    6.6512   -4.6299    0.4774 C   0  0  0  0  0  0  0  0  0  0  0  0
    6.3643   -3.1820    0.9172 C   0  0  2  0  0  0  0  0  0  0  0  0
    6.7074   -2.9559    2.3697 C   0  0  0  0  0  0  0  0  0  0  0  0
    5.9530   -2.5233    3.3355 N   0  0  0  0  0  0  0  0  0  0  0  0
    6.8225   -2.5140    4.3964 C   0  0  0  0  0  0  0  0  0  0  0  0
    8.0339   -2.9131    4.1216 N   0  0  0  0  0  0  0  0  0  0  0  0
    7.9619   -3.2111    2.7624 O   0  0  0  0  0  0  0  0  0  0  0  0
    2.7121    1.2557   -1.8766 H   0  0  0  0  0  0  0  0  0  0  0  0
    2.9569   -0.4631   -2.2776 H   0  0  0  0  0  0  0  0  0  0  0  0
    4.3114    0.5010   -1.6177 H   0  0  0  0  0  0  0  0  0  0  0  0
    2.6845    1.9544    0.6737 H   0  0  0  0  0  0  0  0  0  0  0  0
    4.2874    1.1855    0.8605 H   0  0  0  0  0  0  0  0  0  0  0  0
    2.9229    0.6804    1.8984 H   0  0  0  0  0  0  0  0  0  0  0  0
    0.7362    0.6137   -0.3456 H   0  0  0  0  0  0  0  0  0  0  0  0
    0.9867   -0.6228    0.9184 H   0  0  0  0  0  0  0  0  0  0  0  0
    1.0005   -1.0915   -0.8040 H   0  0  0  0  0  0  0  0  0  0  0  0
    3.0085   -3.5711    0.6571 H   0  0  0  0  0  0  0  0  0  0  0  0
    3.8898   -3.8034    2.1900 H   0  0  0  0  0  0  0  0  0  0  0  0
    4.3117   -5.3094   -0.4652 H   0  0  0  0  0  0  0  0  0  0  0  0
    3.7482   -5.9900    1.0940 H   0  0  0  0  0  0  0  0  0  0  0  0
    6.6153   -4.6640   -0.6299 H   0  0  0  0  0  0  0  0  0  0  0  0
    7.6531   -4.9373    0.8085 H   0  0  0  0  0  0  0  0  0  0  0  0
    6.9909   -2.4960    0.3267 H   0  0  0  0  0  0  0  0  0  0  0  0
    6.5463   -2.2020    5.4038 H   0  0  0  0  0  0  0  0  0  0  0  0
  1  2  1  0
  1 19  1  0
  1 20  1  0
  1 21  1  0
  2  3  1  0
  2  4  1  0
  2  5  1  1
  3 22  1  0
  3 23  1  0
  3 24  1  0
  4 25  1  0
  4 26  1  0
  4 27  1  0
  5  6  1  0
  6  7  2  0
  6  8  1  0
  8  9  1  0
  8 13  1  0
  9 10  1  0
  9 28  1  0
  9 29  1  0
 10 11  1  0
 10 30  1  0
 10 31  1  0
 11 12  1  0
 12 13  1  0
 12 32  1  0
 12 33  1  0
 13 14  1  0
 13 34  1  6
 14 15  2  0
 14 18  1  0
 15 16  1  0
 16 17  2  0
 16 35  1  0
 17 18  1  0
M  END

