
     RDKit          3D

 45 46  0  0  0  0  0  0  0  0999 V2000
    0.7968    0.4242    0.2452 C   0  0  0  0  0  0  0  0  0  0  0  0
    2.2370    0.2158   -0.2351 C   0  0  1  0  0  0  0  0  0  0  0  0
    2.2930    0.0420   -1.7652 C   0  0  0  0  0  0  0  0  0  0  0  0
    3.6051   -0.5485   -2.3187 C   0  0  0  0  0  0  0  0  0  0  0  0
    3.5865   -0.7314   -3.8210 C   0  0  0  0  0  0  0  0  0  0  0  0
    4.0132    0.2954   -4.6789 C   0  0  0  0  0  0  0  0  0  0  0  0
    3.9613    0.1439   -6.0674 C   0  0  0  0  0  0  0  0  0  0  0  0
    3.4790   -1.0433   -6.6265 C   0  0  0  0  0  0  0  0  0  0  0  0
    3.0517   -2.0754   -5.7857 C   0  0  0  0  0  0  0  0  0  0  0  0
    3.1057   -1.9182   -4.3979 C   0  0  0  0  0  0  0  0  0  0  0  0
    3.1437    1.3706    0.2423 C   0  0  0  0  0  0  0  0  0  0  0  0
    3.2407    1.4667    1.6960 N   0  0  0  0  0  0  0  0  0  0  0  0
    4.1960    0.5546    2.3255 C   0  0  0  0  0  0  0  0  0  0  0  0
    5.6584    1.0347    2.2484 C   0  0  0  0  0  0  0  0  0  0  0  0
    5.8213    2.4653    2.7920 C   0  0  2  0  0  0  0  0  0  0  0  0
    5.7679    2.4931    4.3265 C   0  0  0  0  0  0  0  0  0  0  0  0
    5.6499    1.5245    5.0267 O   0  0  0  0  0  0  0  0  0  0  0  0
    5.8937    3.7191    4.8902 O   0  0  0  0  0  0  0  0  0  0  0  0
    4.7748    3.4018    2.1392 C   0  0  0  0  0  0  0  0  0  0  0  0
    3.3568    2.8091    2.2464 C   0  0  0  0  0  0  0  0  0  0  0  0
    0.1671   -0.4519    0.0216 H   0  0  0  0  0  0  0  0  0  0  0  0
    0.3399    1.2979   -0.2523 H   0  0  0  0  0  0  0  0  0  0  0  0
    0.7750    0.6027    1.3301 H   0  0  0  0  0  0  0  0  0  0  0  0
    2.6143   -0.7195    0.2198 H   0  0  0  0  0  0  0  0  0  0  0  0
    2.0963    1.0148   -2.2533 H   0  0  0  0  0  0  0  0  0  0  0  0
    1.4637   -0.6159   -2.0770 H   0  0  0  0  0  0  0  0  0  0  0  0
    3.7879   -1.5227   -1.8331 H   0  0  0  0  0  0  0  0  0  0  0  0
    4.4548    0.0985   -2.0461 H   0  0  0  0  0  0  0  0  0  0  0  0
    4.3972    1.2267   -4.2513 H   0  0  0  0  0  0  0  0  0  0  0  0
    4.3028    0.9553   -6.7158 H   0  0  0  0  0  0  0  0  0  0  0  0
    3.4404   -1.1653   -7.7120 H   0  0  0  0  0  0  0  0  0  0  0  0
    2.6779   -3.0100   -6.2124 H   0  0  0  0  0  0  0  0  0  0  0  0
    2.7737   -2.7341   -3.7486 H   0  0  0  0  0  0  0  0  0  0  0  0
    2.7107    2.3140   -0.1339 H   0  0  0  0  0  0  0  0  0  0  0  0
    4.1386    1.2820   -0.2426 H   0  0  0  0  0  0  0  0  0  0  0  0
    4.1041   -0.4409    1.8647 H   0  0  0  0  0  0  0  0  0  0  0  0
    3.9206    0.4354    3.3863 H   0  0  0  0  0  0  0  0  0  0  0  0
    6.0050    1.0212    1.2011 H   0  0  0  0  0  0  0  0  0  0  0  0
    6.3036    0.3452    2.8128 H   0  0  0  0  0  0  0  0  0  0  0  0
    6.8316    2.8366    2.5341 H   0  0  0  0  0  0  0  0  0  0  0  0
    5.9955    4.3971    4.2073 H   0  0  0  0  0  0  0  0  0  0  0  0
    5.0413    3.5344    1.0769 H   0  0  0  0  0  0  0  0  0  0  0  0
    4.7922    4.4139    2.5825 H   0  0  0  0  0  0  0  0  0  0  0  0
    2.6317    3.4704    1.7460 H   0  0  0  0  0  0  0  0  0  0  0  0
    3.0629    2.7737    3.3126 H   0  0  0  0  0  0  0  0  0  0  0  0
  1  2  1  0
  1 21  1  0
  1 22  1  0
  1 23  1  0
  2  3  1  0
  2 11  1  0
  2 24  1  1
  3  4  1  0
  3 25  1  0
  3 26  1  0
  4  5  1  0
  4 27  1  0
  4 28  1  0
  5  6  2  0
  5 10  1  0
  6  7  1  0
  6 29  1  0
  7  8  2  0
  7 30  1  0
  8  9  1  0
  8 31  1  0
  9 10  2  0
  9 32  1  0
 10 33  1  0
 11 12  1  0
 11 34  1  0
 11 35  1  0
 12 13  1  0
 12 20  1  0
 13 14  1  0
 13 36  1  0
 13 37  1  0
 14 15  1  0
 14 38  1  0
 14 39  1  0
 15 16  1  0
 15 19  1  0
 15 40  1  1
 16 17  2  0
 16 18  1  0
 18 41  1  0
 19 20  1  0
 19 42  1  0
 19 43  1  0
 20 44  1  0
 20 45  1  0
M  END

