
     RDKit          3D

 66 69  0  0  0  0  0  0  0  0999 V2000
    2.3817    0.6758    1.1471 C   0  0  0  0  0  0  0  0  0  0  0  0
    2.0844    0.0368    2.5011 C   0  0  0  0  0  0  0  0  0  0  0  0
    2.5605   -1.3417    2.5945 N   0  0  0  0  0  0  0  0  0  0  0  0
    1.7843   -2.3520    2.2140 N   0  0  0  0  0  0  0  0  0  0  0  0
    2.4744   -3.4921    2.3533 C   0  0  0  0  0  0  0  0  0  0  0  0
    1.8323   -4.8051    2.0209 C   0  0  0  0  0  0  0  0  0  0  0  0
    3.7729   -3.1766    2.8476 C   0  0  0  0  0  0  0  0  0  0  0  0
    3.7889   -1.7925    2.9859 C   0  0  0  0  0  0  0  0  0  0  0  0
    4.9370   -1.0542    3.4571 C   0  0  0  0  0  0  0  0  0  0  0  0
    5.0229    0.1618    3.5472 O   0  0  0  0  0  0  0  0  0  0  0  0
    6.0038   -1.9038    3.8238 N   0  0  0  0  0  0  0  0  0  0  0  0
    7.2332   -1.2478    4.3273 C   0  0  0  0  0  0  0  0  0  0  0  0
    7.2374   -0.9833    5.8205 C   0  0  0  0  0  0  0  0  0  0  0  0
    7.8525   -1.8839    6.7041 C   0  0  0  0  0  0  0  0  0  0  0  0
    7.8766   -1.6440    8.0804 C   0  0  0  0  0  0  0  0  0  0  0  0
    7.2738   -0.4873    8.5680 C   0  0  0  0  0  0  0  0  0  0  0  0
    7.2918   -0.2455    9.8877 F   0  0  0  0  0  0  0  0  0  0  0  0
    6.6551    0.4287    7.7194 C   0  0  0  0  0  0  0  0  0  0  0  0
    6.6410    0.1757    6.3464 C   0  0  0  0  0  0  0  0  0  0  0  0
    6.0177   -3.3032    3.7304 C   0  0  0  0  0  0  0  0  0  0  0  0
    6.9921   -3.9589    4.0870 O   0  0  0  0  0  0  0  0  0  0  0  0
    4.9007   -3.9194    3.1860 N   0  0  0  0  0  0  0  0  0  0  0  0
    4.9958   -5.3587    2.9335 C   0  0  0  0  0  0  0  0  0  0  0  0
    4.6227   -6.2361    4.1452 C   0  0  0  0  0  0  0  0  0  0  0  0
    3.4852   -6.6625    4.2943 O   0  0  0  0  0  0  0  0  0  0  0  0
    5.6461   -6.5001    4.9920 N   0  0  0  0  0  0  0  0  0  0  0  0
    5.4831   -7.3359    6.1853 C   0  0  1  0  0  0  0  0  0  0  0  0
    4.5220   -7.0479    6.6465 H   0  0  0  0  0  0  0  0  0  0  0  0
    5.3955   -8.8200    5.8075 C   0  0  0  0  0  0  0  0  0  0  0  0
    6.6191   -7.0671    7.1788 C   0  0  0  0  0  0  0  0  0  0  0  0
    6.6788   -5.6298    7.7248 C   0  0  0  0  0  0  0  0  0  0  0  0
    7.8059   -5.4200    8.7132 C   0  0  0  0  0  0  0  0  0  0  0  0
    9.1337   -5.2898    8.2700 C   0  0  0  0  0  0  0  0  0  0  0  0
   10.1826   -5.1154    9.1766 C   0  0  0  0  0  0  0  0  0  0  0  0
    9.9231   -5.0682   10.5504 C   0  0  0  0  0  0  0  0  0  0  0  0
    8.6084   -5.1977   11.0063 C   0  0  0  0  0  0  0  0  0  0  0  0
    7.5623   -5.3730   10.0946 C   0  0  0  0  0  0  0  0  0  0  0  0
    1.9571    1.6914    1.1117 H   0  0  0  0  0  0  0  0  0  0  0  0
    1.9389    0.0863    0.3298 H   0  0  0  0  0  0  0  0  0  0  0  0
    3.4672    0.7561    0.9843 H   0  0  0  0  0  0  0  0  0  0  0  0
    1.0024   -0.0067    2.6900 H   0  0  0  0  0  0  0  0  0  0  0  0
    2.5662    0.6043    3.3080 H   0  0  0  0  0  0  0  0  0  0  0  0
    0.7489   -4.6520    1.9212 H   0  0  0  0  0  0  0  0  0  0  0  0
    2.0239   -5.5589    2.7995 H   0  0  0  0  0  0  0  0  0  0  0  0
    2.1977   -5.2092    1.0608 H   0  0  0  0  0  0  0  0  0  0  0  0
    7.3144   -0.3016    3.7791 H   0  0  0  0  0  0  0  0  0  0  0  0
    8.0695   -1.9000    4.0541 H   0  0  0  0  0  0  0  0  0  0  0  0
    8.3212   -2.7878    6.3090 H   0  0  0  0  0  0  0  0  0  0  0  0
    8.3524   -2.3405    8.7729 H   0  0  0  0  0  0  0  0  0  0  0  0
    6.1978    1.3261    8.1412 H   0  0  0  0  0  0  0  0  0  0  0  0
    6.1561    0.8803    5.6681 H   0  0  0  0  0  0  0  0  0  0  0  0
    6.0228   -5.5730    2.6095 H   0  0  0  0  0  0  0  0  0  0  0  0
    4.3069   -5.6123    2.1225 H   0  0  0  0  0  0  0  0  0  0  0  0
    6.5203   -6.0045    4.8308 H   0  0  0  0  0  0  0  0  0  0  0  0
    4.5667   -8.9853    5.1045 H   0  0  0  0  0  0  0  0  0  0  0  0
    5.2135   -9.4361    6.7023 H   0  0  0  0  0  0  0  0  0  0  0  0
    6.3325   -9.1619    5.3380 H   0  0  0  0  0  0  0  0  0  0  0  0
    7.5833   -7.3261    6.7034 H   0  0  0  0  0  0  0  0  0  0  0  0
    6.5059   -7.7682    8.0218 H   0  0  0  0  0  0  0  0  0  0  0  0
    5.7166   -5.3881    8.2059 H   0  0  0  0  0  0  0  0  0  0  0  0
    6.7909   -4.9209    6.8881 H   0  0  0  0  0  0  0  0  0  0  0  0
    9.3487   -5.3202    7.1973 H   0  0  0  0  0  0  0  0  0  0  0  0
   11.2070   -5.0114    8.8090 H   0  0  0  0  0  0  0  0  0  0  0  0
   10.7416   -4.9280   11.2610 H   0  0  0  0  0  0  0  0  0  0  0  0
    8.3935   -5.1582   12.0775 H   0  0  0  0  0  0  0  0  0  0  0  0
    6.5359   -5.4666   10.4614 H   0  0  0  0  0  0  0  0  0  0  0  0
  1  2  1  0
  1 38  1  0
  1 39  1  0
  1 40  1  0
  2  3  1  0
  2 41  1  0
  2 42  1  0
  3  4  1  0
  3  8  1  0
  4  5  2  0
  5  6  1  0
  5  7  1  0
  6 43  1  0
  6 44  1  0
  6 45  1  0
  7  8  2  0
  7 22  1  0
  8  9  1  0
  9 10  2  0
  9 11  1  0
 11 12  1  0
 11 20  1  0
 12 13  1  0
 12 46  1  0
 12 47  1  0
 13 14  2  0
 13 19  1  0
 14 15  1  0
 14 48  1  0
 15 16  2  0
 15 49  1  0
 16 17  1  0
 16 18  1  0
 18 19  2  0
 18 50  1  0
 19 51  1  0
 20 21  2  0
 20 22  1  0
 22 23  1  0
 23 24  1  0
 23 52  1  0
 23 53  1  0
 24 25  2  0
 24 26  1  0
 26 27  1  0
 26 54  1  0
 27 28  1  1
 27 29  1  0
 27 30  1  0
 29 55  1  0
 29 56  1  0
 29 57  1  0
 30 31  1  0
 30 58  1  0
 30 59  1  0
 31 32  1  0
 31 60  1  0
 31 61  1  0
 32 33  2  0
 32 37  1  0
 33 34  1  0
 33 62  1  0
 34 35  2  0
 34 63  1  0
 35 36  1  0
 35 64  1  0
 36 37  2  0
 36 65  1  0
 37 66  1  0
M  END

