
     RDKit          3D

 40 42  0  0  0  0  0  0  0  0999 V2000
    3.5022   -5.2690    0.4896 C   0  0  0  0  0  0  0  0  0  0  0  0
    4.5071   -4.1549    0.6160 C   0  0  0  0  0  0  0  0  0  0  0  0
    5.5012   -4.3635    1.3996 N   0  0  0  0  0  0  0  0  0  0  0  0
    6.3968   -3.3042    1.4626 O   0  0  0  0  0  0  0  0  0  0  0  0
    4.3292   -2.9206   -0.2107 C   0  0  0  0  0  0  0  0  0  0  0  0
    5.2675   -2.6018   -1.1987 C   0  0  0  0  0  0  0  0  0  0  0  0
    5.0842   -1.4795   -2.0016 C   0  0  0  0  0  0  0  0  0  0  0  0
    5.9941   -1.1954   -2.9498 F   0  0  0  0  0  0  0  0  0  0  0  0
    3.9805   -0.6517   -1.8415 C   0  0  0  0  0  0  0  0  0  0  0  0
    3.0405   -0.9513   -0.8501 C   0  0  0  0  0  0  0  0  0  0  0  0
    3.2070   -2.0772   -0.0296 C   0  0  0  0  0  0  0  0  0  0  0  0
    2.3468   -2.4214    0.9670 O   0  0  0  0  0  0  0  0  0  0  0  0
    1.2293   -1.5970    1.2609 C   0  0  0  0  0  0  0  0  0  0  0  0
    0.4746   -2.1988    2.4350 C   0  0  2  0  0  0  0  0  0  0  0  0
   -0.7616   -1.3447    2.8749 C   0  0  0  0  0  0  0  0  0  0  0  0
   -0.5679   -1.2016    4.4024 C   0  0  2  0  0  0  0  0  0  0  0  0
    0.5908   -0.2107    4.6602 C   0  0  0  0  0  0  0  0  0  0  0  0
    1.8528   -1.0249    4.2304 C   0  0  0  0  0  0  0  0  0  0  0  0
    1.2616   -2.3739    3.7632 C   0  0  1  0  0  0  0  0  0  0  0  0
    0.0945   -2.5497    4.7587 C   0  0  0  0  0  0  0  0  0  0  0  0
    3.7725   -6.0932    1.1638 H   0  0  0  0  0  0  0  0  0  0  0  0
    3.4756   -5.6459   -0.5471 H   0  0  0  0  0  0  0  0  0  0  0  0
    2.4928   -4.9069    0.7353 H   0  0  0  0  0  0  0  0  0  0  0  0
    7.0574   -3.6275    2.0889 H   0  0  0  0  0  0  0  0  0  0  0  0
    6.1511   -3.2247   -1.3432 H   0  0  0  0  0  0  0  0  0  0  0  0
    3.8621    0.2212   -2.4864 H   0  0  0  0  0  0  0  0  0  0  0  0
    2.1801   -0.2948   -0.7244 H   0  0  0  0  0  0  0  0  0  0  0  0
    0.5620   -1.5324    0.3801 H   0  0  0  0  0  0  0  0  0  0  0  0
    1.5690   -0.5699    1.4898 H   0  0  0  0  0  0  0  0  0  0  0  0
    0.1350   -3.1989    2.1173 H   0  0  0  0  0  0  0  0  0  0  0  0
   -1.7054   -1.8593    2.6362 H   0  0  0  0  0  0  0  0  0  0  0  0
   -0.7966   -0.3621    2.3746 H   0  0  0  0  0  0  0  0  0  0  0  0
   -1.4935   -0.9540    4.9431 H   0  0  0  0  0  0  0  0  0  0  0  0
    0.6381    0.0670    5.7251 H   0  0  0  0  0  0  0  0  0  0  0  0
    0.4677    0.7239    4.0897 H   0  0  0  0  0  0  0  0  0  0  0  0
    2.5292   -1.1895    5.0836 H   0  0  0  0  0  0  0  0  0  0  0  0
    2.4506   -0.5239    3.4547 H   0  0  0  0  0  0  0  0  0  0  0  0
    1.9975   -3.1884    3.7216 H   0  0  0  0  0  0  0  0  0  0  0  0
    0.4235   -2.6118    5.8087 H   0  0  0  0  0  0  0  0  0  0  0  0
   -0.5415   -3.4224    4.5377 H   0  0  0  0  0  0  0  0  0  0  0  0
  1  2  1  0
  1 21  1  0
  1 22  1  0
  1 23  1  0
  2  3  2  0
  2  5  1  0
  3  4  1  0
  4 24  1  0
  5  6  2  0
  5 11  1  0
  6  7  1  0
  6 25  1  0
  7  8  1  0
  7  9  2  0
  9 10  1  0
  9 26  1  0
 10 11  2  0
 10 27  1  0
 11 12  1  0
 12 13  1  0
 13 14  1  0
 13 28  1  0
 13 29  1  0
 14 15  1  0
 14 19  1  0
 14 30  1  6
 15 16  1  0
 15 31  1  0
 15 32  1  0
 16 17  1  0
 16 20  1  0
 16 33  1  1
 17 18  1  0
 17 34  1  0
 17 35  1  0
 18 19  1  0
 18 36  1  0
 18 37  1  0
 19 20  1  0
 19 38  1  6
 20 39  1  0
 20 40  1  0
M  END

