
     RDKit          3D

 38 40  0  0  0  0  0  0  0  0999 V2000
    1.3178    0.7057    0.1149 C   0  0  0  0  0  0  0  0  0  0  0  0
    2.6009   -0.1300    0.1672 C   0  0  1  0  0  0  0  0  0  0  0  0
    2.5763   -1.1973    1.2684 C   0  0  0  0  0  0  0  0  0  0  0  0
    2.9563   -0.7243   -1.1612 N   0  0  0  0  0  0  0  0  0  0  0  0
    2.1019   -1.6593   -1.7196 C   0  0  0  0  0  0  0  0  0  0  0  0
    1.0664   -2.0231   -1.1901 O   0  0  0  0  0  0  0  0  0  0  0  0
    2.5917   -2.2730   -3.0241 C   0  0  0  0  0  0  0  0  0  0  0  0
    3.8152   -3.1048   -2.6953 C   0  0  0  0  0  0  0  0  0  0  0  0
    3.7035   -4.5812   -2.6260 C   0  0  0  0  0  0  0  0  0  0  0  0
    2.4759   -5.2354   -2.4301 C   0  0  0  0  0  0  0  0  0  0  0  0
    2.4575   -6.6284   -2.3544 C   0  0  0  0  0  0  0  0  0  0  0  0
    3.6633   -7.3217   -2.4873 C   0  0  0  0  0  0  0  0  0  0  0  0
    4.8410   -6.7152   -2.6748 N   0  0  0  0  0  0  0  0  0  0  0  0
    4.8572   -5.3866   -2.7340 C   0  0  0  0  0  0  0  0  0  0  0  0
    4.9478   -2.5488   -2.4449 N   0  0  0  0  0  0  0  0  0  0  0  0
    5.0869   -1.1697   -2.3970 C   0  0  0  0  0  0  0  0  0  0  0  0
    6.2892   -0.6323   -2.9098 C   0  0  0  0  0  0  0  0  0  0  0  0
    6.5553    0.7283   -2.9106 C   0  0  0  0  0  0  0  0  0  0  0  0
    5.6042    1.5965   -2.3588 C   0  0  0  0  0  0  0  0  0  0  0  0
    5.9024    3.3188   -2.3516 Cl  0  0  0  0  0  0  0  0  0  0  0  0
    4.4221    1.1055   -1.8155 C   0  0  0  0  0  0  0  0  0  0  0  0
    4.1394   -0.2753   -1.8131 C   0  0  0  0  0  0  0  0  0  0  0  0
    1.1624    1.2046    1.0846 H   0  0  0  0  0  0  0  0  0  0  0  0
    0.4447    0.0741   -0.0963 H   0  0  0  0  0  0  0  0  0  0  0  0
    1.3788    1.4861   -0.6603 H   0  0  0  0  0  0  0  0  0  0  0  0
    3.4370    0.5438    0.3961 H   0  0  0  0  0  0  0  0  0  0  0  0
    1.7466   -1.9012    1.1250 H   0  0  0  0  0  0  0  0  0  0  0  0
    2.4556   -0.7072    2.2476 H   0  0  0  0  0  0  0  0  0  0  0  0
    3.5219   -1.7611    1.2863 H   0  0  0  0  0  0  0  0  0  0  0  0
    2.8801   -1.4839   -3.7380 H   0  0  0  0  0  0  0  0  0  0  0  0
    1.7732   -2.8592   -3.4518 H   0  0  0  0  0  0  0  0  0  0  0  0
    1.5534   -4.6651   -2.2987 H   0  0  0  0  0  0  0  0  0  0  0  0
    1.5229   -7.1692   -2.1899 H   0  0  0  0  0  0  0  0  0  0  0  0
    3.6798   -8.4170   -2.4368 H   0  0  0  0  0  0  0  0  0  0  0  0
    5.8263   -4.9001   -2.8824 H   0  0  0  0  0  0  0  0  0  0  0  0
    7.0152   -1.3401   -3.3140 H   0  0  0  0  0  0  0  0  0  0  0  0
    7.4856    1.1218   -3.3220 H   0  0  0  0  0  0  0  0  0  0  0  0
    3.7000    1.8082   -1.4016 H   0  0  0  0  0  0  0  0  0  0  0  0
  1  2  1  0
  1 23  1  0
  1 24  1  0
  1 25  1  0
  2  3  1  0
  2  4  1  0
  2 26  1  1
  3 27  1  0
  3 28  1  0
  3 29  1  0
  4  5  1  0
  4 22  1  0
  5  6  2  0
  5  7  1  0
  7  8  1  0
  7 30  1  0
  7 31  1  0
  8  9  1  0
  8 15  2  0
  9 10  2  0
  9 14  1  0
 10 11  1  0
 10 32  1  0
 11 12  2  0
 11 33  1  0
 12 13  1  0
 12 34  1  0
 13 14  2  0
 14 35  1  0
 15 16  1  0
 16 17  2  0
 16 22  1  0
 17 18  1  0
 17 36  1  0
 18 19  2  0
 18 37  1  0
 19 20  1  0
 19 21  1  0
 21 22  2  0
 21 38  1  0
M  END

