
     RDKit          3D

 44 45  0  0  0  0  0  0  0  0999 V2000
    0.7341   -0.0823    0.6414 C   0  0  0  0  0  0  0  0  0  0  0  0
    2.2588   -0.1272    0.5303 C   0  0  0  0  0  0  0  0  0  0  0  0
    2.9452    1.1570    1.0044 C   0  0  0  0  0  0  0  0  0  0  0  0
    4.4860    1.1407    0.9144 C   0  0  1  0  0  0  0  0  0  0  0  0
    5.0185    0.9146   -0.4317 N   0  0  0  0  0  0  0  0  0  0  0  0
    5.0867    2.4347    1.4885 C   0  0  0  0  0  0  0  0  0  0  0  0
    6.6096    2.4071    1.6345 C   0  0  0  0  0  0  0  0  0  0  0  0
    7.2005    3.7454    2.1128 C   0  0  0  0  0  0  0  0  0  0  0  0
    8.7041    3.7174    2.2747 C   0  0  0  0  0  0  0  0  0  0  0  0
    9.5573    3.9900    1.1962 C   0  0  0  0  0  0  0  0  0  0  0  0
   10.9468    3.9277    1.3339 C   0  0  0  0  0  0  0  0  0  0  0  0
   11.5279    3.5871    2.5627 C   0  0  0  0  0  0  0  0  0  0  0  0
   10.6728    3.3001    3.6472 C   0  0  0  0  0  0  0  0  0  0  0  0
    9.2888    3.3659    3.5009 C   0  0  0  0  0  0  0  0  0  0  0  0
   11.1979    3.0011    4.8703 O   0  0  0  0  0  0  0  0  0  0  0  0
   12.4489    2.3410    4.8335 C   0  0  0  0  0  0  0  0  0  0  0  0
   13.4663    2.9838    3.8977 C   0  0  0  0  0  0  0  0  0  0  0  0
   14.6600    2.9220    4.1248 O   0  0  0  0  0  0  0  0  0  0  0  0
   12.9267    3.5739    2.7742 N   0  0  0  0  0  0  0  0  0  0  0  0
   13.8272    4.1476    1.7857 C   0  0  0  0  0  0  0  0  0  0  0  0
    0.2742   -1.0199    0.2899 H   0  0  0  0  0  0  0  0  0  0  0  0
    0.3130    0.7409    0.0400 H   0  0  0  0  0  0  0  0  0  0  0  0
    0.4122    0.0758    1.6843 H   0  0  0  0  0  0  0  0  0  0  0  0
    2.5414   -0.3257   -0.5189 H   0  0  0  0  0  0  0  0  0  0  0  0
    2.6466   -0.9823    1.1145 H   0  0  0  0  0  0  0  0  0  0  0  0
    2.6509    1.3567    2.0511 H   0  0  0  0  0  0  0  0  0  0  0  0
    2.5663    2.0153    0.4154 H   0  0  0  0  0  0  0  0  0  0  0  0
    4.8482    0.2996    1.5363 H   0  0  0  0  0  0  0  0  0  0  0  0
    4.6120    1.5827   -1.0900 H   0  0  0  0  0  0  0  0  0  0  0  0
    4.7786   -0.0142   -0.7746 H   0  0  0  0  0  0  0  0  0  0  0  0
    4.6210    2.6427    2.4682 H   0  0  0  0  0  0  0  0  0  0  0  0
    4.7930    3.2774    0.8324 H   0  0  0  0  0  0  0  0  0  0  0  0
    7.0543    2.1244    0.6674 H   0  0  0  0  0  0  0  0  0  0  0  0
    6.8963    1.6112    2.3453 H   0  0  0  0  0  0  0  0  0  0  0  0
    6.7344    4.0281    3.0728 H   0  0  0  0  0  0  0  0  0  0  0  0
    6.9262    4.5356    1.3925 H   0  0  0  0  0  0  0  0  0  0  0  0
    9.1326    4.2635    0.2267 H   0  0  0  0  0  0  0  0  0  0  0  0
   11.5792    4.1580    0.4764 H   0  0  0  0  0  0  0  0  0  0  0  0
    8.6748    3.1444    4.3773 H   0  0  0  0  0  0  0  0  0  0  0  0
   12.3229    1.2809    4.5309 H   0  0  0  0  0  0  0  0  0  0  0  0
   12.8677    2.3605    5.8472 H   0  0  0  0  0  0  0  0  0  0  0  0
   14.8381    4.1287    2.2085 H   0  0  0  0  0  0  0  0  0  0  0  0
   13.5369    5.1844    1.5554 H   0  0  0  0  0  0  0  0  0  0  0  0
   13.8222    3.5629    0.8506 H   0  0  0  0  0  0  0  0  0  0  0  0
  1  2  1  0
  1 21  1  0
  1 22  1  0
  1 23  1  0
  2  3  1  0
  2 24  1  0
  2 25  1  0
  3  4  1  0
  3 26  1  0
  3 27  1  0
  4  5  1  0
  4  6  1  0
  4 28  1  1
  5 29  1  0
  5 30  1  0
  6  7  1  0
  6 31  1  0
  6 32  1  0
  7  8  1  0
  7 33  1  0
  7 34  1  0
  8  9  1  0
  8 35  1  0
  8 36  1  0
  9 10  2  0
  9 14  1  0
 10 11  1  0
 10 37  1  0
 11 12  2  0
 11 38  1  0
 12 13  1  0
 12 19  1  0
 13 14  2  0
 13 15  1  0
 14 39  1  0
 15 16  1  0
 16 17  1  0
 16 40  1  0
 16 41  1  0
 17 18  2  0
 17 19  1  0
 19 20  1  0
 20 42  1  0
 20 43  1  0
 20 44  1  0
M  END

