
     RDKit          3D

 52 54  0  0  0  0  0  0  0  0999 V2000
    0.7502    0.9061    0.2001 C   0  0  0  0  0  0  0  0  0  0  0  0
    2.2162    0.5429    0.0669 C   0  0  0  0  0  0  0  0  0  0  0  0
    3.1168    1.6223    0.0451 C   0  0  0  0  0  0  0  0  0  0  0  0
    4.4915    1.4628   -0.1196 C   0  0  0  0  0  0  0  0  0  0  0  0
    5.3419    2.5308   -0.1070 O   0  0  0  0  0  0  0  0  0  0  0  0
    5.0379    0.1769   -0.3013 C   0  0  0  0  0  0  0  0  0  0  0  0
    6.5466    0.0339   -0.4863 C   0  0  1  0  0  0  0  0  0  0  0  0
    7.1247   -1.3847   -0.2741 C   0  0  0  0  0  0  0  0  0  0  0  0
    6.9884   -2.3389   -1.4746 C   0  0  0  0  0  0  0  0  0  0  0  0
    7.4778   -1.7016   -2.7805 C   0  0  0  0  0  0  0  0  0  0  0  0
    6.7964   -0.3496   -3.0207 C   0  0  0  0  0  0  0  0  0  0  0  0
    7.0382    0.6033   -1.8457 C   0  0  0  0  0  0  0  0  0  0  0  0
    4.1335   -0.8874   -0.2489 C   0  0  0  0  0  0  0  0  0  0  0  0
    2.7409   -0.7678   -0.0520 C   0  0  0  0  0  0  0  0  0  0  0  0
    1.9039   -2.0820   -0.1098 C   0  0  1  0  0  0  0  0  0  0  0  0
    0.6149   -2.0779    0.7573 C   0  0  0  0  0  0  0  0  0  0  0  0
    1.4789   -2.2880   -1.5822 C   0  0  0  0  0  0  0  0  0  0  0  0
    2.7395   -3.2718    0.4157 C   0  0  0  0  0  0  0  0  0  0  0  0
    3.2292   -3.2483    1.7340 C   0  0  0  0  0  0  0  0  0  0  0  0
    3.9414   -4.3176    2.2759 C   0  0  0  0  0  0  0  0  0  0  0  0
    4.1885   -5.4637    1.5053 C   0  0  0  0  0  0  0  0  0  0  0  0
    4.8760   -6.5366    1.9798 O   0  0  0  0  0  0  0  0  0  0  0  0
    3.7115   -5.5094    0.1917 C   0  0  0  0  0  0  0  0  0  0  0  0
    2.9995   -4.4281   -0.3360 C   0  0  0  0  0  0  0  0  0  0  0  0
    0.6233    1.9952    0.1156 H   0  0  0  0  0  0  0  0  0  0  0  0
    0.3242    0.6032    1.1686 H   0  0  0  0  0  0  0  0  0  0  0  0
    0.1306    0.4464   -0.5846 H   0  0  0  0  0  0  0  0  0  0  0  0
    2.7215    2.6380    0.1587 H   0  0  0  0  0  0  0  0  0  0  0  0
    4.8358    3.3382    0.0514 H   0  0  0  0  0  0  0  0  0  0  0  0
    6.9889    0.6803    0.2910 H   0  0  0  0  0  0  0  0  0  0  0  0
    6.6887   -1.8434    0.6288 H   0  0  0  0  0  0  0  0  0  0  0  0
    8.2022   -1.2634   -0.0617 H   0  0  0  0  0  0  0  0  0  0  0  0
    5.9384   -2.6491   -1.6050 H   0  0  0  0  0  0  0  0  0  0  0  0
    7.5501   -3.2655   -1.2662 H   0  0  0  0  0  0  0  0  0  0  0  0
    7.3003   -2.3856   -3.6278 H   0  0  0  0  0  0  0  0  0  0  0  0
    8.5724   -1.5485   -2.7288 H   0  0  0  0  0  0  0  0  0  0  0  0
    5.7103   -0.5034   -3.1582 H   0  0  0  0  0  0  0  0  0  0  0  0
    7.1652    0.1071   -3.9550 H   0  0  0  0  0  0  0  0  0  0  0  0
    6.5728    1.5827   -2.0278 H   0  0  0  0  0  0  0  0  0  0  0  0
    8.1250    0.7896   -1.7618 H   0  0  0  0  0  0  0  0  0  0  0  0
    4.5343   -1.8923   -0.3573 H   0  0  0  0  0  0  0  0  0  0  0  0
   -0.1781   -1.4505    0.3334 H   0  0  0  0  0  0  0  0  0  0  0  0
    0.8095   -1.7406    1.7863 H   0  0  0  0  0  0  0  0  0  0  0  0
    0.2210   -3.1040    0.8149 H   0  0  0  0  0  0  0  0  0  0  0  0
    0.9014   -1.4187   -1.9309 H   0  0  0  0  0  0  0  0  0  0  0  0
    0.8427   -3.1799   -1.7018 H   0  0  0  0  0  0  0  0  0  0  0  0
    2.3505   -2.3890   -2.2459 H   0  0  0  0  0  0  0  0  0  0  0  0
    3.0658   -2.3636    2.3542 H   0  0  0  0  0  0  0  0  0  0  0  0
    4.3109   -4.2629    3.3055 H   0  0  0  0  0  0  0  0  0  0  0  0
    5.1450   -6.3668    2.8919 H   0  0  0  0  0  0  0  0  0  0  0  0
    3.9063   -6.4008   -0.4084 H   0  0  0  0  0  0  0  0  0  0  0  0
    2.6469   -4.5066   -1.3649 H   0  0  0  0  0  0  0  0  0  0  0  0
  1  2  1  0
  1 25  1  0
  1 26  1  0
  1 27  1  0
  2  3  2  0
  2 14  1  0
  3  4  1  0
  3 28  1  0
  4  5  1  0
  4  6  2  0
  5 29  1  0
  6  7  1  0
  6 13  1  0
  7  8  1  0
  7 12  1  0
  7 30  1  1
  8  9  1  0
  8 31  1  0
  8 32  1  0
  9 10  1  0
  9 33  1  0
  9 34  1  0
 10 11  1  0
 10 35  1  0
 10 36  1  0
 11 12  1  0
 11 37  1  0
 11 38  1  0
 12 39  1  0
 12 40  1  0
 13 14  2  0
 13 41  1  0
 14 15  1  0
 15 16  1  1
 15 17  1  0
 15 18  1  0
 16 42  1  0
 16 43  1  0
 16 44  1  0
 17 45  1  0
 17 46  1  0
 17 47  1  0
 18 19  2  0
 18 24  1  0
 19 20  1  0
 19 48  1  0
 20 21  2  0
 20 49  1  0
 21 22  1  0
 21 23  1  0
 22 50  1  0
 23 24  2  0
 23 51  1  0
 24 52  1  0
M  END

