
     RDKit          3D

 48 50  0  0  0  0  0  0  0  0999 V2000
    8.2020   -0.6219   -4.5661 C   0  0  0  0  0  0  0  0  0  0  0  0
    7.3381   -0.6701   -3.3281 C   0  0  0  0  0  0  0  0  0  0  0  0
    6.8468    0.5001   -2.7343 C   0  0  0  0  0  0  0  0  0  0  0  0
    6.0560    0.4386   -1.5810 C   0  0  0  0  0  0  0  0  0  0  0  0
    5.7334   -0.7892   -1.0101 C   0  0  0  0  0  0  0  0  0  0  0  0
    6.2029   -1.9817   -1.5948 C   0  0  0  0  0  0  0  0  0  0  0  0
    5.8693   -3.2553   -0.9371 C   0  0  0  0  0  0  0  0  0  0  0  0
    5.6785   -3.3756    0.3660 N   0  0  0  0  0  0  0  0  0  0  0  0
    5.4164   -4.6799    0.6392 N   0  0  0  0  0  0  0  0  0  0  0  0
    5.4307   -5.3350   -0.5002 C   0  0  0  0  0  0  0  0  0  0  0  0
    5.1376   -7.0637   -0.6921 S   0  0  0  0  0  0  0  0  0  0  0  0
    3.4743   -7.1433    0.0537 C   0  0  0  0  0  0  0  0  0  0  0  0
    2.3701   -6.5384   -0.8394 C   0  0  0  0  0  0  0  0  0  0  0  0
    2.6568   -5.9468   -1.8685 O   0  0  0  0  0  0  0  0  0  0  0  0
    1.0804   -6.7250   -0.4061 N   0  0  0  0  0  0  0  0  0  0  0  0
    0.7621   -7.0243    0.9955 C   0  0  0  0  0  0  0  0  0  0  0  0
    0.4422   -5.7315    1.7611 C   0  0  0  0  0  0  0  0  0  0  0  0
   -0.6724   -4.9364    1.0658 C   0  0  0  0  0  0  0  0  0  0  0  0
   -0.4060   -4.7661   -0.4379 C   0  0  0  0  0  0  0  0  0  0  0  0
   -0.0884   -6.1203   -1.0974 C   0  0  1  0  0  0  0  0  0  0  0  0
   -0.9206   -6.8046   -0.8473 H   0  0  0  0  0  0  0  0  0  0  0  0
   -0.0231   -6.0660   -2.6231 C   0  0  0  0  0  0  0  0  0  0  0  0
    5.7067   -4.4824   -1.5446 N   0  0  0  0  0  0  0  0  0  0  0  0
    5.5886   -4.8074   -2.9586 C   0  0  0  0  0  0  0  0  0  0  0  0
    7.0096   -1.9033   -2.7420 C   0  0  0  0  0  0  0  0  0  0  0  0
    8.4866    0.4097   -4.8201 H   0  0  0  0  0  0  0  0  0  0  0  0
    7.6766   -1.0467   -5.4386 H   0  0  0  0  0  0  0  0  0  0  0  0
    9.1280   -1.2049   -4.4333 H   0  0  0  0  0  0  0  0  0  0  0  0
    7.0918    1.4711   -3.1739 H   0  0  0  0  0  0  0  0  0  0  0  0
    5.6886    1.3617   -1.1252 H   0  0  0  0  0  0  0  0  0  0  0  0
    5.1254   -0.8520   -0.1066 H   0  0  0  0  0  0  0  0  0  0  0  0
    3.5321   -6.6215    1.0198 H   0  0  0  0  0  0  0  0  0  0  0  0
    3.2877   -8.2090    0.2564 H   0  0  0  0  0  0  0  0  0  0  0  0
    1.5831   -7.5706    1.4731 H   0  0  0  0  0  0  0  0  0  0  0  0
   -0.1127   -7.6981    1.0101 H   0  0  0  0  0  0  0  0  0  0  0  0
    1.3602   -5.1202    1.8183 H   0  0  0  0  0  0  0  0  0  0  0  0
    0.1565   -5.9743    2.7985 H   0  0  0  0  0  0  0  0  0  0  0  0
   -0.7980   -3.9542    1.5501 H   0  0  0  0  0  0  0  0  0  0  0  0
   -1.6308   -5.4716    1.1986 H   0  0  0  0  0  0  0  0  0  0  0  0
    0.4460   -4.0851   -0.6090 H   0  0  0  0  0  0  0  0  0  0  0  0
   -1.2826   -4.3119   -0.9295 H   0  0  0  0  0  0  0  0  0  0  0  0
    0.6668   -5.2964   -2.9852 H   0  0  0  0  0  0  0  0  0  0  0  0
   -1.0359   -5.8523   -3.0022 H   0  0  0  0  0  0  0  0  0  0  0  0
    0.2980   -7.0317   -3.0415 H   0  0  0  0  0  0  0  0  0  0  0  0
    4.8134   -5.5771   -3.0648 H   0  0  0  0  0  0  0  0  0  0  0  0
    6.5411   -5.1755   -3.3713 H   0  0  0  0  0  0  0  0  0  0  0  0
    5.2817   -3.9101   -3.5100 H   0  0  0  0  0  0  0  0  0  0  0  0
    7.4236   -2.8145   -3.1793 H   0  0  0  0  0  0  0  0  0  0  0  0
  1  2  1  0
  1 26  1  0
  1 27  1  0
  1 28  1  0
  2  3  2  0
  2 25  1  0
  3  4  1  0
  3 29  1  0
  4  5  2  0
  4 30  1  0
  5  6  1  0
  5 31  1  0
  6  7  1  0
  6 25  2  0
  7  8  2  0
  7 23  1  0
  8  9  1  0
  9 10  2  0
 10 11  1  0
 10 23  1  0
 11 12  1  0
 12 13  1  0
 12 32  1  0
 12 33  1  0
 13 14  2  0
 13 15  1  0
 15 16  1  0
 15 20  1  0
 16 17  1  0
 16 34  1  0
 16 35  1  0
 17 18  1  0
 17 36  1  0
 17 37  1  0
 18 19  1  0
 18 38  1  0
 18 39  1  0
 19 20  1  0
 19 40  1  0
 19 41  1  0
 20 21  1  6
 20 22  1  0
 22 42  1  0
 22 43  1  0
 22 44  1  0
 23 24  1  0
 24 45  1  0
 24 46  1  0
 24 47  1  0
 25 48  1  0
M  END

