
     RDKit          3D

 56 58  0  0  0  0  0  0  0  0999 V2000
    1.7399    0.3280    1.5561 C   0  0  0  0  0  0  0  0  0  0  0  0
    2.7900    1.2483    1.3615 O   0  0  0  0  0  0  0  0  0  0  0  0
    3.1248    1.6118    0.0937 C   0  0  0  0  0  0  0  0  0  0  0  0
    2.4804    1.1602   -1.0629 C   0  0  0  0  0  0  0  0  0  0  0  0
    2.9027    1.5464   -2.3410 C   0  0  0  0  0  0  0  0  0  0  0  0
    3.9975    2.4088   -2.4773 C   0  0  0  0  0  0  0  0  0  0  0  0
    4.5050    2.8453   -3.7225 N   0  0  0  0  0  0  0  0  0  0  0  0
    4.0646    2.5548   -4.9860 C   0  0  0  0  0  0  0  0  0  0  0  0
    3.1100    1.8275   -5.2223 O   0  0  0  0  0  0  0  0  0  0  0  0
    4.8860    3.1654   -6.1559 C   0  0  1  0  0  0  0  0  0  0  0  0
    5.7452    4.3851   -5.7916 C   0  0  0  0  0  0  0  0  0  0  0  0
    5.6604    2.1732   -6.8922 N   0  0  0  0  0  0  0  0  0  0  0  0
    6.6236    1.3394   -6.1821 C   0  0  0  0  0  0  0  0  0  0  0  0
    6.0700   -0.0444   -5.8025 C   0  0  0  0  0  0  0  0  0  0  0  0
    5.4848   -0.7096   -6.9669 N   0  0  0  0  0  0  0  0  0  0  0  0
    6.0958   -1.8434   -7.4534 C   0  0  0  0  0  0  0  0  0  0  0  0
    7.1600   -2.2552   -7.0075 O   0  0  0  0  0  0  0  0  0  0  0  0
    5.3981   -2.6267   -8.5398 C   0  0  0  0  0  0  0  0  0  0  0  0
    6.1843   -3.1633   -9.5715 C   0  0  0  0  0  0  0  0  0  0  0  0
    5.6093   -3.9723  -10.5527 C   0  0  0  0  0  0  0  0  0  0  0  0
    4.2458   -4.2818  -10.4969 C   0  0  0  0  0  0  0  0  0  0  0  0
    3.4618   -3.7781   -9.4548 C   0  0  0  0  0  0  0  0  0  0  0  0
    4.0330   -2.9507   -8.4838 C   0  0  0  0  0  0  0  0  0  0  0  0
    4.4722    0.0917   -7.6577 C   0  0  0  0  0  0  0  0  0  0  0  0
    5.0540    1.4729   -8.0132 C   0  0  0  0  0  0  0  0  0  0  0  0
    4.6379    2.8811   -1.3171 C   0  0  0  0  0  0  0  0  0  0  0  0
    4.2217    2.4998   -0.0440 C   0  0  0  0  0  0  0  0  0  0  0  0
    4.9366    2.9493    1.0269 O   0  0  0  0  0  0  0  0  0  0  0  0
    4.2614    3.7460    1.9901 C   0  0  0  0  0  0  0  0  0  0  0  0
    1.6603    0.1687    2.6399 H   0  0  0  0  0  0  0  0  0  0  0  0
    1.9484   -0.6401    1.0663 H   0  0  0  0  0  0  0  0  0  0  0  0
    0.7758    0.7156    1.1796 H   0  0  0  0  0  0  0  0  0  0  0  0
    1.6329    0.4789   -0.9847 H   0  0  0  0  0  0  0  0  0  0  0  0
    2.3913    1.1820   -3.2279 H   0  0  0  0  0  0  0  0  0  0  0  0
    5.2985    3.4706   -3.6579 H   0  0  0  0  0  0  0  0  0  0  0  0
    4.1009    3.5105   -6.8462 H   0  0  0  0  0  0  0  0  0  0  0  0
    6.6009    4.1226   -5.1464 H   0  0  0  0  0  0  0  0  0  0  0  0
    5.1534    5.1634   -5.2831 H   0  0  0  0  0  0  0  0  0  0  0  0
    6.1659    4.8158   -6.7114 H   0  0  0  0  0  0  0  0  0  0  0  0
    6.9745    1.8577   -5.2764 H   0  0  0  0  0  0  0  0  0  0  0  0
    7.5095    1.1905   -6.8283 H   0  0  0  0  0  0  0  0  0  0  0  0
    5.2900    0.0537   -5.0283 H   0  0  0  0  0  0  0  0  0  0  0  0
    6.8727   -0.6868   -5.4200 H   0  0  0  0  0  0  0  0  0  0  0  0
    7.2541   -2.9445   -9.5843 H   0  0  0  0  0  0  0  0  0  0  0  0
    6.2289   -4.3735  -11.3589 H   0  0  0  0  0  0  0  0  0  0  0  0
    3.7970   -4.9234  -11.2597 H   0  0  0  0  0  0  0  0  0  0  0  0
    2.4007   -4.0336   -9.3939 H   0  0  0  0  0  0  0  0  0  0  0  0
    3.4172   -2.5713   -7.6648 H   0  0  0  0  0  0  0  0  0  0  0  0
    3.5941    0.2220   -7.0044 H   0  0  0  0  0  0  0  0  0  0  0  0
    4.1588   -0.4156   -8.5775 H   0  0  0  0  0  0  0  0  0  0  0  0
    4.2651    2.1015   -8.4543 H   0  0  0  0  0  0  0  0  0  0  0  0
    5.8289    1.3228   -8.7914 H   0  0  0  0  0  0  0  0  0  0  0  0
    5.4946    3.5574   -1.3785 H   0  0  0  0  0  0  0  0  0  0  0  0
    5.0223    4.0745    2.7121 H   0  0  0  0  0  0  0  0  0  0  0  0
    3.4797    3.1788    2.5177 H   0  0  0  0  0  0  0  0  0  0  0  0
    3.8080    4.6382    1.5204 H   0  0  0  0  0  0  0  0  0  0  0  0
  1  2  1  0
  1 30  1  0
  1 31  1  0
  1 32  1  0
  2  3  1  0
  3  4  2  0
  3 27  1  0
  4  5  1  0
  4 33  1  0
  5  6  2  0
  5 34  1  0
  6  7  1  0
  6 26  1  0
  7  8  1  0
  7 35  1  0
  8  9  2  0
  8 10  1  0
 10 11  1  0
 10 12  1  0
 10 36  1  6
 11 37  1  0
 11 38  1  0
 11 39  1  0
 12 13  1  0
 12 25  1  0
 13 14  1  0
 13 40  1  0
 13 41  1  0
 14 15  1  0
 14 42  1  0
 14 43  1  0
 15 16  1  0
 15 24  1  0
 16 17  2  0
 16 18  1  0
 18 19  2  0
 18 23  1  0
 19 20  1  0
 19 44  1  0
 20 21  2  0
 20 45  1  0
 21 22  1  0
 21 46  1  0
 22 23  2  0
 22 47  1  0
 23 48  1  0
 24 25  1  0
 24 49  1  0
 24 50  1  0
 25 51  1  0
 25 52  1  0
 26 27  2  0
 26 53  1  0
 27 28  1  0
 28 29  1  0
 29 54  1  0
 29 55  1  0
 29 56  1  0
M  END

