
     RDKit          3D

 36 39  0  0  0  0  0  0  0  0999 V2000
    1.5890   -0.3512    1.1784 C   0  0  0  0  0  0  0  0  0  0  0  0
    2.6999   -0.0305    0.3641 O   0  0  0  0  0  0  0  0  0  0  0  0
    3.2678   -0.9893   -0.3930 C   0  0  0  0  0  0  0  0  0  0  0  0
    4.3745   -0.5907   -1.1765 C   0  0  0  0  0  0  0  0  0  0  0  0
    5.0247   -1.5025   -1.9859 C   0  0  0  0  0  0  0  0  0  0  0  0
    4.6108   -2.8569   -2.0601 C   0  0  0  0  0  0  0  0  0  0  0  0
    5.2103   -3.9083   -2.8705 C   0  0  0  0  0  0  0  0  0  0  0  0
    6.3707   -3.7167   -3.7589 C   0  0  0  0  0  0  0  0  0  0  0  0
    6.9321   -4.6239   -4.5053 N   0  0  0  0  0  0  0  0  0  0  0  0
    7.9510   -3.9428   -5.1203 C   0  0  0  0  0  0  0  0  0  0  0  0
    8.9037   -4.5161   -6.0844 C   0  0  0  0  0  0  0  0  0  0  0  0
    9.8803   -3.6871   -6.6740 C   0  0  0  0  0  0  0  0  0  0  0  0
   10.8001   -4.1893   -7.5896 C   0  0  0  0  0  0  0  0  0  0  0  0
   10.7649   -5.5446   -7.9409 C   0  0  0  0  0  0  0  0  0  0  0  0
    9.8103   -6.3868   -7.3729 C   0  0  0  0  0  0  0  0  0  0  0  0
    8.8937   -5.8721   -6.4559 C   0  0  0  0  0  0  0  0  0  0  0  0
    7.9994   -6.7130   -5.9347 F   0  0  0  0  0  0  0  0  0  0  0  0
    8.0152   -2.6716   -4.7690 N   0  0  0  0  0  0  0  0  0  0  0  0
    6.9768   -2.5225   -3.8749 O   0  0  0  0  0  0  0  0  0  0  0  0
    4.6928   -5.1726   -2.8346 C   0  0  0  0  0  0  0  0  0  0  0  0
    3.5481   -5.5307   -2.0091 C   0  0  0  0  0  0  0  0  0  0  0  0
    3.0410   -6.6172   -1.9271 O   0  0  0  0  0  0  0  0  0  0  0  0
    3.0131   -4.4938   -1.2545 O   0  0  0  0  0  0  0  0  0  0  0  0
    3.5001   -3.2280   -1.2659 C   0  0  0  0  0  0  0  0  0  0  0  0
    2.8316   -2.3157   -0.4410 C   0  0  0  0  0  0  0  0  0  0  0  0
    1.3056    0.5747    1.6954 H   0  0  0  0  0  0  0  0  0  0  0  0
    1.8436   -1.1201    1.9285 H   0  0  0  0  0  0  0  0  0  0  0  0
    0.7333   -0.7053    0.5772 H   0  0  0  0  0  0  0  0  0  0  0  0
    4.6985    0.4498   -1.1243 H   0  0  0  0  0  0  0  0  0  0  0  0
    5.8736   -1.1688   -2.5778 H   0  0  0  0  0  0  0  0  0  0  0  0
    9.8978   -2.6328   -6.3934 H   0  0  0  0  0  0  0  0  0  0  0  0
   11.5455   -3.5247   -8.0314 H   0  0  0  0  0  0  0  0  0  0  0  0
   11.4827   -5.9477   -8.6593 H   0  0  0  0  0  0  0  0  0  0  0  0
    9.7534   -7.4480   -7.6222 H   0  0  0  0  0  0  0  0  0  0  0  0
    5.1272   -5.9723   -3.4336 H   0  0  0  0  0  0  0  0  0  0  0  0
    1.9863   -2.6845    0.1371 H   0  0  0  0  0  0  0  0  0  0  0  0
  1  2  1  0
  1 26  1  0
  1 27  1  0
  1 28  1  0
  2  3  1  0
  3  4  2  0
  3 25  1  0
  4  5  1  0
  4 29  1  0
  5  6  2  0
  5 30  1  0
  6  7  1  0
  6 24  1  0
  7  8  1  0
  7 20  2  0
  8  9  2  0
  8 19  1  0
  9 10  1  0
 10 11  1  0
 10 18  2  0
 11 12  2  0
 11 16  1  0
 12 13  1  0
 12 31  1  0
 13 14  2  0
 13 32  1  0
 14 15  1  0
 14 33  1  0
 15 16  2  0
 15 34  1  0
 16 17  1  0
 18 19  1  0
 20 21  1  0
 20 35  1  0
 21 22  2  0
 21 23  1  0
 23 24  1  0
 24 25  2  0
 25 36  1  0
M  END

