
     RDKit          3D

 50 53  0  0  0  0  0  0  0  0999 V2000
    0.3151   -0.7160    0.7454 C   0  0  0  0  0  0  0  0  0  0  0  0
    1.7376   -0.5877    0.6648 O   0  0  0  0  0  0  0  0  0  0  0  0
    2.3013    0.3357    1.4538 C   0  0  0  0  0  0  0  0  0  0  0  0
    1.6946    1.0640    2.1969 O   0  0  0  0  0  0  0  0  0  0  0  0
    3.8161    0.3167    1.2788 C   0  0  0  0  0  0  0  0  0  0  0  0
    4.4661    1.3745    2.0255 N   0  0  0  0  0  0  0  0  0  0  0  0
    4.2832    2.7496    1.8285 C   0  0  0  0  0  0  0  0  0  0  0  0
    4.6394    3.5302    2.8754 C   0  0  0  0  0  0  0  0  0  0  0  0
    5.2849    2.5625    4.1990 S   0  0  0  0  0  0  0  0  0  0  0  0
    5.0046    1.0469    3.2747 C   0  0  0  0  0  0  0  0  0  0  0  0
    5.2175   -0.0730    3.6743 O   0  0  0  0  0  0  0  0  0  0  0  0
    4.3952    5.0201    2.8573 C   0  0  2  0  0  0  0  0  0  0  0  0
    4.2686    5.6717    4.2274 C   0  0  0  0  0  0  0  0  0  0  0  0
    5.0128    6.8159    4.5310 C   0  0  0  0  0  0  0  0  0  0  0  0
    4.8651    7.4380    5.7783 C   0  0  0  0  0  0  0  0  0  0  0  0
    3.9870    6.9268    6.7264 C   0  0  0  0  0  0  0  0  0  0  0  0
    3.2361    5.7734    6.4326 C   0  0  0  0  0  0  0  0  0  0  0  0
    2.4102    5.3334    7.4135 O   0  0  0  0  0  0  0  0  0  0  0  0
    1.6555    4.1587    7.2087 C   0  0  0  0  0  0  0  0  0  0  0  0
    3.3751    5.1537    5.1831 C   0  0  0  0  0  0  0  0  0  0  0  0
    3.1115    5.2180    2.0148 C   0  0  0  0  0  0  0  0  0  0  0  0
    3.1666    4.5499    0.6491 C   0  0  0  0  0  0  0  0  0  0  0  0
    2.7478    5.0740   -0.3580 O   0  0  0  0  0  0  0  0  0  0  0  0
    3.7600    3.2672    0.6245 N   0  0  0  0  0  0  0  0  0  0  0  0
    4.1750    2.7305   -0.6416 C   0  0  0  0  0  0  0  0  0  0  0  0
    5.5259    2.4237   -0.8615 C   0  0  0  0  0  0  0  0  0  0  0  0
    5.9408    1.8984   -2.0865 C   0  0  0  0  0  0  0  0  0  0  0  0
    4.9974    1.7102   -3.0943 C   0  0  0  0  0  0  0  0  0  0  0  0
    5.3907    1.2134   -4.2743 F   0  0  0  0  0  0  0  0  0  0  0  0
    3.6537    2.0264   -2.9020 C   0  0  0  0  0  0  0  0  0  0  0  0
    3.2418    2.5333   -1.6692 C   0  0  0  0  0  0  0  0  0  0  0  0
    0.0400   -1.5092    0.0400 H   0  0  0  0  0  0  0  0  0  0  0  0
   -0.1767    0.2290    0.4702 H   0  0  0  0  0  0  0  0  0  0  0  0
    0.0069   -0.9877    1.7660 H   0  0  0  0  0  0  0  0  0  0  0  0
    4.0635    0.3463    0.2101 H   0  0  0  0  0  0  0  0  0  0  0  0
    4.1994   -0.6334    1.6809 H   0  0  0  0  0  0  0  0  0  0  0  0
    5.2331    5.5203    2.3373 H   0  0  0  0  0  0  0  0  0  0  0  0
    5.7106    7.2235    3.7952 H   0  0  0  0  0  0  0  0  0  0  0  0
    5.4492    8.3320    6.0113 H   0  0  0  0  0  0  0  0  0  0  0  0
    3.8625    7.3927    7.7059 H   0  0  0  0  0  0  0  0  0  0  0  0
    1.0934    3.9833    8.1357 H   0  0  0  0  0  0  0  0  0  0  0  0
    2.3017    3.2854    7.0091 H   0  0  0  0  0  0  0  0  0  0  0  0
    0.9404    4.2691    6.3735 H   0  0  0  0  0  0  0  0  0  0  0  0
    2.8012    4.2578    4.9462 H   0  0  0  0  0  0  0  0  0  0  0  0
    2.8976    6.2800    1.8367 H   0  0  0  0  0  0  0  0  0  0  0  0
    2.2560    4.7887    2.5647 H   0  0  0  0  0  0  0  0  0  0  0  0
    6.2576    2.5916   -0.0686 H   0  0  0  0  0  0  0  0  0  0  0  0
    6.9863    1.6467   -2.2738 H   0  0  0  0  0  0  0  0  0  0  0  0
    2.9446    1.8697   -3.7169 H   0  0  0  0  0  0  0  0  0  0  0  0
    2.1953    2.7866   -1.5043 H   0  0  0  0  0  0  0  0  0  0  0  0
  1  2  1  0
  1 32  1  0
  1 33  1  0
  1 34  1  0
  2  3  1  0
  3  4  2  0
  3  5  1  0
  5  6  1  0
  5 35  1  0
  5 36  1  0
  6  7  1  0
  6 10  1  0
  7  8  2  0
  7 24  1  0
  8  9  1  0
  8 12  1  0
  9 10  2  0
 10 11  1  0
 12 13  1  0
 12 21  1  0
 12 37  1  6
 13 14  2  0
 13 20  1  0
 14 15  1  0
 14 38  1  0
 15 16  2  0
 15 39  1  0
 16 17  1  0
 16 40  1  0
 17 18  1  0
 17 20  2  0
 18 19  1  0
 19 41  1  0
 19 42  1  0
 19 43  1  0
 20 44  1  0
 21 22  1  0
 21 45  1  0
 21 46  1  0
 22 23  2  0
 22 24  1  0
 24 25  1  0
 25 26  2  0
 25 31  1  0
 26 27  1  0
 26 47  1  0
 27 28  2  0
 27 48  1  0
 28 29  1  0
 28 30  1  0
 30 31  2  0
 30 49  1  0
 31 50  1  0
M  CHG  2   9   1  11  -1
M  END

