
     RDKit          3D

 54 57  0  0  0  0  0  0  0  0999 V2000
   -1.5950   -6.0281   -9.7644 C   0  0  0  0  0  0  0  0  0  0  0  0
   -1.9300   -4.7408   -9.2934 O   0  0  0  0  0  0  0  0  0  0  0  0
   -1.1946   -4.1910   -8.2990 C   0  0  0  0  0  0  0  0  0  0  0  0
   -1.6150   -2.8894   -7.8909 C   0  0  0  0  0  0  0  0  0  0  0  0
   -0.9562   -2.2169   -6.8911 C   0  0  0  0  0  0  0  0  0  0  0  0
    0.1640   -2.8084   -6.2410 C   0  0  0  0  0  0  0  0  0  0  0  0
    0.8025   -2.1307   -5.2520 N   0  0  0  0  0  0  0  0  0  0  0  0
    1.8229   -2.6760   -4.6680 C   0  0  0  0  0  0  0  0  0  0  0  0
    2.5804   -1.7105   -3.3816 Cl  0  0  0  0  0  0  0  0  0  0  0  0
    2.3587   -3.9683   -4.9699 C   0  0  0  0  0  0  0  0  0  0  0  0
    3.5576   -4.5776   -4.2637 C   0  0  0  0  0  0  0  0  0  0  0  0
    4.8189   -4.4615   -5.0100 N   0  0  0  0  0  0  0  0  0  0  0  0
    5.6035   -3.2441   -4.8247 C   0  0  0  0  0  0  0  0  0  0  0  0
    6.2006   -3.0477   -3.4112 C   0  0  0  0  0  0  0  0  0  0  0  0
    7.2247   -4.0738   -2.9852 C   0  0  0  0  0  0  0  0  0  0  0  0
    8.5991   -3.8199   -3.1211 C   0  0  0  0  0  0  0  0  0  0  0  0
    9.5582   -4.7623   -2.7430 C   0  0  0  0  0  0  0  0  0  0  0  0
    9.1411   -5.9881   -2.2180 C   0  0  0  0  0  0  0  0  0  0  0  0
   10.3319   -7.1766   -1.7373 Cl  0  0  0  0  0  0  0  0  0  0  0  0
    7.7805   -6.2689   -2.0662 C   0  0  0  0  0  0  0  0  0  0  0  0
    6.8369   -5.3124   -2.4476 C   0  0  0  0  0  0  0  0  0  0  0  0
    5.0979   -5.4662   -5.9140 C   0  0  0  0  0  0  0  0  0  0  0  0
    4.3539   -6.4364   -6.0188 O   0  0  0  0  0  0  0  0  0  0  0  0
    6.3470   -5.3639   -6.7814 C   0  0  1  0  0  0  0  0  0  0  0  0
    7.7017   -5.8932   -6.2084 C   0  0  0  0  0  0  0  0  0  0  0  0
    7.9776   -6.5654   -7.5757 C   0  0  0  0  0  0  0  0  0  0  0  0
    6.4761   -6.4050   -7.9211 C   0  0  0  0  0  0  0  0  0  0  0  0
    1.7057   -4.6655   -5.9736 C   0  0  0  0  0  0  0  0  0  0  0  0
    0.5872   -4.1115   -6.6483 C   0  0  0  0  0  0  0  0  0  0  0  0
   -0.1081   -4.7937   -7.6851 C   0  0  0  0  0  0  0  0  0  0  0  0
   -2.3162   -6.2697  -10.5564 H   0  0  0  0  0  0  0  0  0  0  0  0
   -1.6698   -6.7874   -8.9655 H   0  0  0  0  0  0  0  0  0  0  0  0
   -0.5742   -6.0559  -10.1862 H   0  0  0  0  0  0  0  0  0  0  0  0
   -2.4759   -2.4531   -8.4018 H   0  0  0  0  0  0  0  0  0  0  0  0
   -1.2686   -1.2218   -6.5696 H   0  0  0  0  0  0  0  0  0  0  0  0
    3.3721   -5.6483   -4.1142 H   0  0  0  0  0  0  0  0  0  0  0  0
    3.6837   -4.1066   -3.2823 H   0  0  0  0  0  0  0  0  0  0  0  0
    4.9659   -2.3693   -5.0410 H   0  0  0  0  0  0  0  0  0  0  0  0
    6.4185   -3.2344   -5.5571 H   0  0  0  0  0  0  0  0  0  0  0  0
    5.3828   -3.0010   -2.6751 H   0  0  0  0  0  0  0  0  0  0  0  0
    6.6607   -2.0462   -3.4056 H   0  0  0  0  0  0  0  0  0  0  0  0
    8.9324   -2.8590   -3.5244 H   0  0  0  0  0  0  0  0  0  0  0  0
   10.6236   -4.5503   -2.8478 H   0  0  0  0  0  0  0  0  0  0  0  0
    7.4672   -7.2266   -1.6472 H   0  0  0  0  0  0  0  0  0  0  0  0
    5.7759   -5.5370   -2.3131 H   0  0  0  0  0  0  0  0  0  0  0  0
    6.4669   -4.3432   -7.1751 H   0  0  0  0  0  0  0  0  0  0  0  0
    7.5331   -6.6307   -5.4096 H   0  0  0  0  0  0  0  0  0  0  0  0
    8.4202   -5.1461   -5.8409 H   0  0  0  0  0  0  0  0  0  0  0  0
    8.3862   -7.5872   -7.5595 H   0  0  0  0  0  0  0  0  0  0  0  0
    8.6240   -5.9445   -8.2162 H   0  0  0  0  0  0  0  0  0  0  0  0
    5.8875   -7.3009   -7.6810 H   0  0  0  0  0  0  0  0  0  0  0  0
    6.2140   -6.0674   -8.9357 H   0  0  0  0  0  0  0  0  0  0  0  0
    2.0762   -5.6561   -6.2484 H   0  0  0  0  0  0  0  0  0  0  0  0
    0.2366   -5.7863   -7.9756 H   0  0  0  0  0  0  0  0  0  0  0  0
  1  2  1  0
  1 31  1  0
  1 32  1  0
  1 33  1  0
  2  3  1  0
  3  4  2  0
  3 30  1  0
  4  5  1  0
  4 34  1  0
  5  6  2  0
  5 35  1  0
  6  7  1  0
  6 29  1  0
  7  8  2  0
  8  9  1  0
  8 10  1  0
 10 11  1  0
 10 28  2  0
 11 12  1  0
 11 36  1  0
 11 37  1  0
 12 13  1  0
 12 22  1  0
 13 14  1  0
 13 38  1  0
 13 39  1  0
 14 15  1  0
 14 40  1  0
 14 41  1  0
 15 16  2  0
 15 21  1  0
 16 17  1  0
 16 42  1  0
 17 18  2  0
 17 43  1  0
 18 19  1  0
 18 20  1  0
 20 21  2  0
 20 44  1  0
 21 45  1  0
 22 23  2  0
 22 24  1  0
 24 25  1  0
 24 27  1  0
 24 46  1  6
 25 26  1  0
 25 47  1  0
 25 48  1  0
 26 27  1  0
 26 49  1  0
 26 50  1  0
 27 51  1  0
 27 52  1  0
 28 29  1  0
 28 53  1  0
 29 30  2  0
 30 54  1  0
M  END

