
     RDKit          3D

 38 38  0  0  0  0  0  0  0  0999 V2000
    9.1165    1.0829   -3.9994 C   0  0  0  0  0  0  0  0  0  0  0  0
    7.7997    1.4278   -3.3042 C   0  0  0  0  0  0  0  0  0  0  0  0
    7.5197    0.5068   -2.1134 C   0  0  0  0  0  0  0  0  0  0  0  0
    6.2749    0.8226   -1.4099 N   0  0  0  0  0  0  0  0  0  0  0  0
    6.2144    1.6501   -0.3255 C   0  0  0  0  0  0  0  0  0  0  0  0
    4.8961    1.7722    0.0887 C   0  0  0  0  0  0  0  0  0  0  0  0
    4.1225    0.9789   -0.7863 C   0  0  0  0  0  0  0  0  0  0  0  0
    4.9903    0.3950   -1.7125 C   0  0  0  0  0  0  0  0  0  0  0  0
    4.6902   -0.5069   -2.8403 C   0  0  0  0  0  0  0  0  0  0  0  0
    5.4967   -0.7754   -3.7306 O   0  0  0  0  0  0  0  0  0  0  0  0
    3.4148   -1.0188   -2.8485 N   0  0  0  0  0  0  0  0  0  0  0  0
    2.9872   -1.9798   -3.8419 C   0  0  1  0  0  0  0  0  0  0  0  0
    3.8901   -2.2716   -4.4051 H   0  0  0  0  0  0  0  0  0  0  0  0
    2.4023   -3.1875   -3.0957 C   0  0  0  0  0  0  0  0  0  0  0  0
    1.8046   -3.0796   -2.0580 O   0  0  0  0  0  0  0  0  0  0  0  0
    2.5579   -4.3928   -3.6781 O   0  0  0  0  0  0  0  0  0  0  0  0
    1.9459   -1.3935   -4.8471 C   0  0  1  0  0  0  0  0  0  0  0  0
    2.4849   -0.1166   -5.5005 C   0  0  0  0  0  0  0  0  0  0  0  0
    1.5259   -2.4181   -5.9098 C   0  0  0  0  0  0  0  0  0  0  0  0
    9.3041    1.7559   -4.8505 H   0  0  0  0  0  0  0  0  0  0  0  0
    9.1025    0.0517   -4.3891 H   0  0  0  0  0  0  0  0  0  0  0  0
    9.9764    1.1687   -3.3132 H   0  0  0  0  0  0  0  0  0  0  0  0
    6.9641    1.3304   -4.0139 H   0  0  0  0  0  0  0  0  0  0  0  0
    7.8148    2.4753   -2.9552 H   0  0  0  0  0  0  0  0  0  0  0  0
    8.3315    0.5837   -1.3720 H   0  0  0  0  0  0  0  0  0  0  0  0
    7.4693   -0.5340   -2.4561 H   0  0  0  0  0  0  0  0  0  0  0  0
    7.1227    2.0903    0.0819 H   0  0  0  0  0  0  0  0  0  0  0  0
    4.5395    2.3671    0.9269 H   0  0  0  0  0  0  0  0  0  0  0  0
    3.0405    0.8605   -0.7627 H   0  0  0  0  0  0  0  0  0  0  0  0
    2.8512   -0.9831   -2.0048 H   0  0  0  0  0  0  0  0  0  0  0  0
    3.0941   -4.3136   -4.4801 H   0  0  0  0  0  0  0  0  0  0  0  0
    1.0532   -1.1301   -4.2504 H   0  0  0  0  0  0  0  0  0  0  0  0
    3.3996   -0.3215   -6.0802 H   0  0  0  0  0  0  0  0  0  0  0  0
    2.7286    0.6481   -4.7495 H   0  0  0  0  0  0  0  0  0  0  0  0
    1.7340    0.3088   -6.1851 H   0  0  0  0  0  0  0  0  0  0  0  0
    2.3948   -2.7474   -6.5079 H   0  0  0  0  0  0  0  0  0  0  0  0
    0.8074   -1.9676   -6.6119 H   0  0  0  0  0  0  0  0  0  0  0  0
    1.0452   -3.3095   -5.4793 H   0  0  0  0  0  0  0  0  0  0  0  0
  1  2  1  0
  1 20  1  0
  1 21  1  0
  1 22  1  0
  2  3  1  0
  2 23  1  0
  2 24  1  0
  3  4  1  0
  3 25  1  0
  3 26  1  0
  4  5  1  0
  4  8  1  0
  5  6  2  0
  5 27  1  0
  6  7  1  0
  6 28  1  0
  7  8  2  0
  7 29  1  0
  8  9  1  0
  9 10  2  0
  9 11  1  0
 11 12  1  0
 11 30  1  0
 12 13  1  6
 12 14  1  0
 12 17  1  0
 14 15  2  0
 14 16  1  0
 16 31  1  0
 17 18  1  0
 17 19  1  0
 17 32  1  1
 18 33  1  0
 18 34  1  0
 18 35  1  0
 19 36  1  0
 19 37  1  0
 19 38  1  0
M  END

