
     RDKit          3D

 52 54  0  0  0  0  0  0  0  0999 V2000
   13.7162    0.4646    2.2142 C   0  0  0  0  0  0  0  0  0  0  0  0
   12.3692    0.7273    1.8942 O   0  0  0  0  0  0  0  0  0  0  0  0
   11.4054   -0.1233    2.3298 C   0  0  0  0  0  0  0  0  0  0  0  0
   10.0837    0.2005    1.9714 C   0  0  0  0  0  0  0  0  0  0  0  0
    9.0292   -0.6093    2.3703 C   0  0  0  0  0  0  0  0  0  0  0  0
    9.2470   -1.7711    3.1397 C   0  0  0  0  0  0  0  0  0  0  0  0
    8.1414   -2.6477    3.5741 C   0  0  0  0  0  0  0  0  0  0  0  0
    6.8003   -2.4953    3.2886 C   0  0  0  0  0  0  0  0  0  0  0  0
    5.8681   -3.7697    3.9950 S   0  0  0  0  0  0  0  0  0  0  0  0
    7.3568   -4.4347    4.6448 C   0  0  0  0  0  0  0  0  0  0  0  0
    7.3192   -5.6527    5.5317 C   0  0  0  0  0  0  0  0  0  0  0  0
    6.1752   -6.5008    5.2360 N   0  0  0  0  0  0  0  0  0  0  0  0
    6.3244   -7.3598    4.0583 C   0  0  0  0  0  0  0  0  0  0  0  0
    7.1128   -8.6416    4.3443 C   0  0  0  0  0  0  0  0  0  0  0  0
    6.5197   -9.3577    5.4732 N   0  0  0  0  0  0  0  0  0  0  0  0
    6.6320  -10.7476    5.4678 C   0  0  0  0  0  0  0  0  0  0  0  0
    7.1289  -11.3501    4.5255 O   0  0  0  0  0  0  0  0  0  0  0  0
    6.1550  -11.4032    6.5839 N   0  0  0  0  0  0  0  0  0  0  0  0
    6.1050  -12.8650    6.6207 C   0  0  1  0  0  0  0  0  0  0  0  0
    6.1518  -13.3352    8.0755 C   0  0  0  0  0  0  0  0  0  0  0  0
    4.8941  -13.4231    5.8622 C   0  0  0  0  0  0  0  0  0  0  0  0
    6.3840   -8.5433    6.6757 C   0  0  0  0  0  0  0  0  0  0  0  0
    5.6158   -7.2515    6.3506 C   0  0  0  0  0  0  0  0  0  0  0  0
    8.4218   -3.7613    4.3440 N   0  0  0  0  0  0  0  0  0  0  0  0
   10.5701   -2.0803    3.4903 C   0  0  0  0  0  0  0  0  0  0  0  0
   11.6417   -1.2743    3.0958 C   0  0  0  0  0  0  0  0  0  0  0  0
   14.3091    1.2717    1.7628 H   0  0  0  0  0  0  0  0  0  0  0  0
   14.0570   -0.5024    1.8016 H   0  0  0  0  0  0  0  0  0  0  0  0
   13.8880    0.4630    3.3059 H   0  0  0  0  0  0  0  0  0  0  0  0
    9.9140    1.0998    1.3760 H   0  0  0  0  0  0  0  0  0  0  0  0
    8.0154   -0.3280    2.0764 H   0  0  0  0  0  0  0  0  0  0  0  0
    6.3206   -1.7233    2.6914 H   0  0  0  0  0  0  0  0  0  0  0  0
    7.2338   -5.3113    6.5783 H   0  0  0  0  0  0  0  0  0  0  0  0
    8.3092   -6.1453    5.4516 H   0  0  0  0  0  0  0  0  0  0  0  0
    6.8099   -6.7888    3.2521 H   0  0  0  0  0  0  0  0  0  0  0  0
    5.3158   -7.6336    3.7021 H   0  0  0  0  0  0  0  0  0  0  0  0
    8.1743   -8.4003    4.5594 H   0  0  0  0  0  0  0  0  0  0  0  0
    7.1111   -9.3125    3.4767 H   0  0  0  0  0  0  0  0  0  0  0  0
    5.4861  -10.9234    7.1741 H   0  0  0  0  0  0  0  0  0  0  0  0
    7.0140  -13.2027    6.1007 H   0  0  0  0  0  0  0  0  0  0  0  0
    5.2626  -12.9938    8.6351 H   0  0  0  0  0  0  0  0  0  0  0  0
    7.0464  -12.9481    8.5870 H   0  0  0  0  0  0  0  0  0  0  0  0
    6.1694  -14.4347    8.1298 H   0  0  0  0  0  0  0  0  0  0  0  0
    3.9480  -13.0884    6.3224 H   0  0  0  0  0  0  0  0  0  0  0  0
    4.8997  -14.5253    5.8672 H   0  0  0  0  0  0  0  0  0  0  0  0
    4.9149  -13.0862    4.8154 H   0  0  0  0  0  0  0  0  0  0  0  0
    7.3843   -8.2956    7.0903 H   0  0  0  0  0  0  0  0  0  0  0  0
    5.8469   -9.0857    7.4652 H   0  0  0  0  0  0  0  0  0  0  0  0
    5.5720   -6.6070    7.2430 H   0  0  0  0  0  0  0  0  0  0  0  0
    4.5778   -7.5279    6.0908 H   0  0  0  0  0  0  0  0  0  0  0  0
   10.7532   -2.9757    4.0860 H   0  0  0  0  0  0  0  0  0  0  0  0
   12.6529   -1.5550    3.3915 H   0  0  0  0  0  0  0  0  0  0  0  0
  1  2  1  0
  1 27  1  0
  1 28  1  0
  1 29  1  0
  2  3  1  0
  3  4  2  0
  3 26  1  0
  4  5  1  0
  4 30  1  0
  5  6  2  0
  5 31  1  0
  6  7  1  0
  6 25  1  0
  7  8  2  0
  7 24  1  0
  8  9  1  0
  8 32  1  0
  9 10  1  0
 10 11  1  0
 10 24  2  0
 11 12  1  0
 11 33  1  0
 11 34  1  0
 12 13  1  0
 12 23  1  0
 13 14  1  0
 13 35  1  0
 13 36  1  0
 14 15  1  0
 14 37  1  0
 14 38  1  0
 15 16  1  0
 15 22  1  0
 16 17  2  0
 16 18  1  0
 18 19  1  0
 18 39  1  0
 19 20  1  0
 19 21  1  0
 19 40  1  6
 20 41  1  0
 20 42  1  0
 20 43  1  0
 21 44  1  0
 21 45  1  0
 21 46  1  0
 22 23  1  0
 22 47  1  0
 22 48  1  0
 23 49  1  0
 23 50  1  0
 25 26  2  0
 25 51  1  0
 26 52  1  0
M  END

