
     RDKit          3D

 30 30  0  0  0  0  0  0  0  0999 V2000
    0.9934    0.1009   -0.1066 C   0  0  0  0  0  0  0  0  0  0  0  0
    2.8776    0.0226   -0.0775 Si  0  0  1  0  0  4  0  0  0  0  0  0
    3.4702   -1.3622    1.0613 C   0  0  0  0  0  0  0  0  0  0  0  0
    3.5602   -0.2189   -1.8208 C   0  0  0  0  0  0  0  0  0  0  0  0
    3.5193    1.6324    0.5852 C   0  0  0  0  0  0  0  0  0  0  0  0
    3.9215    2.7024    1.0146 C   0  0  0  0  0  0  0  0  0  0  0  0
    4.3943    3.9769    1.5799 C   0  0  1  0  0  0  0  0  0  0  0  0
    3.5378    4.4445    2.1056 H   0  0  0  0  0  0  0  0  0  0  0  0
    5.4972    3.7950    2.4569 O   0  0  0  0  0  0  0  0  0  0  0  0
    4.8518    4.9823    0.5159 C   0  0  1  0  0  0  0  0  0  0  0  0
    5.2250    5.8597    1.0750 H   0  0  0  0  0  0  0  0  0  0  0  0
    5.8964    4.5201   -0.5009 C   0  0  0  0  0  0  0  0  0  0  0  0
    5.5818    5.4188   -1.7031 C   0  0  0  0  0  0  0  0  0  0  0  0
    4.1753    5.7005   -1.6173 O   0  0  0  0  0  0  0  0  0  0  0  0
    3.7056    5.4836   -0.3652 C   0  0  0  0  0  0  0  0  0  0  0  0
    2.5675    5.6844   -0.0489 O   0  0  0  0  0  0  0  0  0  0  0  0
    0.5699   -0.8386   -0.4998 H   0  0  0  0  0  0  0  0  0  0  0  0
    0.6416    0.9271   -0.7451 H   0  0  0  0  0  0  0  0  0  0  0  0
    0.5866    0.2606    0.9049 H   0  0  0  0  0  0  0  0  0  0  0  0
    3.1100   -2.3408    0.7020 H   0  0  0  0  0  0  0  0  0  0  0  0
    3.0965   -1.2204    2.0882 H   0  0  0  0  0  0  0  0  0  0  0  0
    4.5707   -1.4007    1.1033 H   0  0  0  0  0  0  0  0  0  0  0  0
    3.1990   -1.1674   -2.2526 H   0  0  0  0  0  0  0  0  0  0  0  0
    4.6618   -0.2458   -1.8172 H   0  0  0  0  0  0  0  0  0  0  0  0
    3.2425    0.5991   -2.4874 H   0  0  0  0  0  0  0  0  0  0  0  0
    5.2723    3.0901    3.0787 H   0  0  0  0  0  0  0  0  0  0  0  0
    5.7243    3.4627   -0.7572 H   0  0  0  0  0  0  0  0  0  0  0  0
    6.9307    4.6230   -0.1469 H   0  0  0  0  0  0  0  0  0  0  0  0
    5.7729    4.9468   -2.6772 H   0  0  0  0  0  0  0  0  0  0  0  0
    6.1331    6.3745   -1.6640 H   0  0  0  0  0  0  0  0  0  0  0  0
  1  2  1  0
  1 17  1  0
  1 18  1  0
  1 19  1  0
  2  3  1  0
  2  4  1  0
  2  5  1  1
  3 20  1  0
  3 21  1  0
  3 22  1  0
  4 23  1  0
  4 24  1  0
  4 25  1  0
  5  6  3  0
  6  7  1  0
  7  8  1  1
  7  9  1  0
  7 10  1  0
  9 26  1  0
 10 11  1  1
 10 12  1  0
 10 15  1  0
 12 13  1  0
 12 27  1  0
 12 28  1  0
 13 14  1  0
 13 29  1  0
 13 30  1  0
 14 15  1  0
 15 16  2  0
M  END

