
     RDKit          3D

 40 41  0  0  0  0  0  0  0  0999 V2000
    1.0789    0.1879    0.4817 N   0  0  0  0  0  0  0  0  0  0  0  0
    2.5314    0.0778    0.4445 C   0  0  0  0  0  0  0  0  0  0  0  0
    2.9356   -1.3884    0.3579 C   0  0  0  0  0  0  0  0  0  0  0  0
    4.3480   -1.4504    0.3335 O   0  0  0  0  0  0  0  0  0  0  0  0
    4.9750   -2.6526    0.2510 C   0  0  0  0  0  0  0  0  0  0  0  0
    6.3805   -2.6178    0.2471 C   0  0  0  0  0  0  0  0  0  0  0  0
    7.0984   -3.8072    0.1709 C   0  0  0  0  0  0  0  0  0  0  0  0
    6.4364   -5.0391    0.0975 C   0  0  0  0  0  0  0  0  0  0  0  0
    5.0368   -5.0877    0.0991 C   0  0  0  0  0  0  0  0  0  0  0  0
    4.3055   -6.4071   -0.0261 C   0  0  0  0  0  0  0  0  0  0  0  0
    3.9895   -6.7945   -1.4819 C   0  0  0  0  0  0  0  0  0  0  0  0
    3.2461   -8.1371   -1.6015 C   0  0  0  0  0  0  0  0  0  0  0  0
    2.9343   -8.5254   -3.0302 C   0  0  0  0  0  0  0  0  0  0  0  0
    3.8476   -9.2740   -3.7904 C   0  0  0  0  0  0  0  0  0  0  0  0
    3.5796   -9.6011   -5.1225 C   0  0  0  0  0  0  0  0  0  0  0  0
    2.3877   -9.1833   -5.7220 C   0  0  0  0  0  0  0  0  0  0  0  0
    1.4679   -8.4384   -4.9779 C   0  0  0  0  0  0  0  0  0  0  0  0
    1.7410   -8.1142   -3.6461 C   0  0  0  0  0  0  0  0  0  0  0  0
    4.3108   -3.8856    0.1770 C   0  0  0  0  0  0  0  0  0  0  0  0
    0.7881    1.1509    0.3210 H   0  0  0  0  0  0  0  0  0  0  0  0
    0.7216   -0.0665    1.4034 H   0  0  0  0  0  0  0  0  0  0  0  0
    3.0630    0.5346    1.3058 H   0  0  0  0  0  0  0  0  0  0  0  0
    2.9052    0.5895   -0.4575 H   0  0  0  0  0  0  0  0  0  0  0  0
    2.4971   -1.8398   -0.5504 H   0  0  0  0  0  0  0  0  0  0  0  0
    2.5391   -1.9463    1.2296 H   0  0  0  0  0  0  0  0  0  0  0  0
    6.8781   -1.6480    0.3090 H   0  0  0  0  0  0  0  0  0  0  0  0
    8.1913   -3.7764    0.1725 H   0  0  0  0  0  0  0  0  0  0  0  0
    7.0123   -5.9670    0.0429 H   0  0  0  0  0  0  0  0  0  0  0  0
    3.3624   -6.3638    0.5463 H   0  0  0  0  0  0  0  0  0  0  0  0
    4.9103   -7.2069    0.4345 H   0  0  0  0  0  0  0  0  0  0  0  0
    4.9281   -6.8414   -2.0603 H   0  0  0  0  0  0  0  0  0  0  0  0
    3.3867   -5.9984   -1.9519 H   0  0  0  0  0  0  0  0  0  0  0  0
    2.3083   -8.0810   -1.0218 H   0  0  0  0  0  0  0  0  0  0  0  0
    3.8546   -8.9276   -1.1291 H   0  0  0  0  0  0  0  0  0  0  0  0
    4.7813   -9.6098   -3.3289 H   0  0  0  0  0  0  0  0  0  0  0  0
    4.3036  -10.1882   -5.6940 H   0  0  0  0  0  0  0  0  0  0  0  0
    2.1749   -9.4404   -6.7628 H   0  0  0  0  0  0  0  0  0  0  0  0
    0.5306   -8.1108   -5.4355 H   0  0  0  0  0  0  0  0  0  0  0  0
    1.0123   -7.5349   -3.0707 H   0  0  0  0  0  0  0  0  0  0  0  0
    3.2206   -3.9279    0.1817 H   0  0  0  0  0  0  0  0  0  0  0  0
  1  2  1  0
  1 20  1  0
  1 21  1  0
  2  3  1  0
  2 22  1  0
  2 23  1  0
  3  4  1  0
  3 24  1  0
  3 25  1  0
  4  5  1  0
  5  6  2  0
  5 19  1  0
  6  7  1  0
  6 26  1  0
  7  8  2  0
  7 27  1  0
  8  9  1  0
  8 28  1  0
  9 10  1  0
  9 19  2  0
 10 11  1  0
 10 29  1  0
 10 30  1  0
 11 12  1  0
 11 31  1  0
 11 32  1  0
 12 13  1  0
 12 33  1  0
 12 34  1  0
 13 14  2  0
 13 18  1  0
 14 15  1  0
 14 35  1  0
 15 16  2  0
 15 36  1  0
 16 17  1  0
 16 37  1  0
 17 18  2  0
 17 38  1  0
 18 39  1  0
 19 40  1  0
M  END

