
     RDKit          3D

 43 44  0  0  0  0  0  0  0  0999 V2000
    0.9322   -0.5025   -1.1803 C   0  0  0  0  0  0  0  0  0  0  0  0
    2.3951   -0.4905   -1.5676 C   0  0  0  0  0  0  0  0  0  0  0  0
    3.0181    0.6122   -0.8753 O   0  0  0  0  0  0  0  0  0  0  0  0
    4.2768    0.9321   -1.1352 C   0  0  0  0  0  0  0  0  0  0  0  0
    4.7440    2.2042   -1.1436 C   0  0  0  0  0  0  0  0  0  0  0  0
    3.8255    3.2837   -0.9928 C   0  0  0  0  0  0  0  0  0  0  0  0
    3.1112    4.1955   -0.8920 N   0  0  0  0  0  0  0  0  0  0  0  0
    6.2316    2.5204   -1.2702 C   0  0  1  0  0  0  0  0  0  0  0  0
    6.8079    3.1286    0.0091 C   0  0  0  0  0  0  0  0  0  0  0  0
    6.8619    2.3953    1.2073 C   0  0  0  0  0  0  0  0  0  0  0  0
    7.3763    2.9537    2.3701 C   0  0  0  0  0  0  0  0  0  0  0  0
    7.8604    4.2769    2.3746 C   0  0  0  0  0  0  0  0  0  0  0  0
    8.3571    4.7163    3.5568 O   0  0  0  0  0  0  0  0  0  0  0  0
    8.8389    6.0561    3.7227 C   0  0  1  0  0  0  0  0  0  0  0  0
    7.6774    7.0259    3.9333 C   0  0  0  0  0  0  0  0  0  0  0  0
    9.7943    6.0145    4.9084 C   0  0  0  0  0  0  0  0  0  0  0  0
    7.8094    5.0209    1.1863 C   0  0  0  0  0  0  0  0  0  0  0  0
    7.2880    4.4401    0.0240 C   0  0  0  0  0  0  0  0  0  0  0  0
    6.9655    1.2607   -1.7137 C   0  0  0  0  0  0  0  0  0  0  0  0
    8.3264    1.3419   -2.1152 C   0  0  0  0  0  0  0  0  0  0  0  0
    9.4397    1.3695   -2.4566 N   0  0  0  0  0  0  0  0  0  0  0  0
    6.3747    0.0297   -1.7262 C   0  0  0  0  0  0  0  0  0  0  0  0
    6.9362   -1.1448   -2.1228 N   0  0  0  0  0  0  0  0  0  0  0  0
    5.0727   -0.1550   -1.3582 O   0  0  0  0  0  0  0  0  0  0  0  0
    0.4200   -1.3369   -1.6836 H   0  0  0  0  0  0  0  0  0  0  0  0
    0.4418    0.4381   -1.4719 H   0  0  0  0  0  0  0  0  0  0  0  0
    0.8190   -0.6294   -0.0929 H   0  0  0  0  0  0  0  0  0  0  0  0
    2.5257   -0.3484   -2.6545 H   0  0  0  0  0  0  0  0  0  0  0  0
    2.8963   -1.4285   -1.2815 H   0  0  0  0  0  0  0  0  0  0  0  0
    6.3430    3.2821   -2.0607 H   0  0  0  0  0  0  0  0  0  0  0  0
    6.4944    1.3653    1.2310 H   0  0  0  0  0  0  0  0  0  0  0  0
    7.4215    2.3862    3.3018 H   0  0  0  0  0  0  0  0  0  0  0  0
    9.4087    6.3458    2.8212 H   0  0  0  0  0  0  0  0  0  0  0  0
    7.1140    6.7508    4.8390 H   0  0  0  0  0  0  0  0  0  0  0  0
    6.9800    7.0171    3.0826 H   0  0  0  0  0  0  0  0  0  0  0  0
    8.0521    8.0544    4.0565 H   0  0  0  0  0  0  0  0  0  0  0  0
    9.2629    5.6901    5.8171 H   0  0  0  0  0  0  0  0  0  0  0  0
   10.2245    7.0109    5.0928 H   0  0  0  0  0  0  0  0  0  0  0  0
   10.6155    5.3072    4.7192 H   0  0  0  0  0  0  0  0  0  0  0  0
    8.1683    6.0491    1.1473 H   0  0  0  0  0  0  0  0  0  0  0  0
    7.2555    5.0364   -0.8924 H   0  0  0  0  0  0  0  0  0  0  0  0
    7.9413   -1.1664   -2.2515 H   0  0  0  0  0  0  0  0  0  0  0  0
    6.4913   -2.0023   -1.8195 H   0  0  0  0  0  0  0  0  0  0  0  0
  1  2  1  0
  1 25  1  0
  1 26  1  0
  1 27  1  0
  2  3  1  0
  2 28  1  0
  2 29  1  0
  3  4  1  0
  4  5  2  0
  4 24  1  0
  5  6  1  0
  5  8  1  0
  6  7  3  0
  8  9  1  0
  8 19  1  0
  8 30  1  6
  9 10  2  0
  9 18  1  0
 10 11  1  0
 10 31  1  0
 11 12  2  0
 11 32  1  0
 12 13  1  0
 12 17  1  0
 13 14  1  0
 14 15  1  0
 14 16  1  0
 14 33  1  6
 15 34  1  0
 15 35  1  0
 15 36  1  0
 16 37  1  0
 16 38  1  0
 16 39  1  0
 17 18  2  0
 17 40  1  0
 18 41  1  0
 19 20  1  0
 19 22  2  0
 20 21  3  0
 22 23  1  0
 22 24  1  0
 23 42  1  0
 23 43  1  0
M  END

