
     RDKit          3D

 59 58  0  0  0  0  0  0  0  0999 V2000
    1.0242    0.2923   -0.8505 C   0  0  0  0  0  0  0  0  0  0  0  0
    2.3365    0.1355   -0.6285 C   0  0  0  0  0  0  0  0  0  0  0  0
    3.3893    0.7036   -1.3103 O   0  0  0  0  0  0  0  0  0  0  0  0
    3.2914    1.7828   -2.1502 C   0  0  0  0  0  0  0  0  0  0  0  0
    4.6586    2.1445   -2.6676 C   0  0  0  0  0  0  0  0  0  0  0  0
    2.2593    2.3324   -2.4212 O   0  0  0  0  0  0  0  0  0  0  0  0
    2.8034   -0.7566    0.4898 C   0  0  0  0  0  0  0  0  0  0  0  0
    2.0688   -1.3702    1.2249 O   0  0  0  0  0  0  0  0  0  0  0  0
    4.1414   -0.7736    0.5826 O   0  0  0  0  0  0  0  0  0  0  0  0
    4.7377   -1.4902    1.6684 C   0  0  0  0  0  0  0  0  0  0  0  0
    6.2534   -1.2231    1.6565 C   0  0  1  0  0  0  0  0  0  0  0  0
    6.9825   -1.9681    0.5049 C   0  0  0  0  0  0  0  0  0  0  0  0
    6.6731   -1.5466   -0.9355 C   0  0  0  0  0  0  0  0  0  0  0  0
    6.4711    0.3024    1.5791 C   0  0  0  0  0  0  0  0  0  0  0  0
    7.8736    0.5766    1.6377 O   0  0  0  0  0  0  0  0  0  0  0  0
    8.4360    1.3636    0.7081 C   0  0  0  0  0  0  0  0  0  0  0  0
    7.8263    1.9659   -0.1443 O   0  0  0  0  0  0  0  0  0  0  0  0
    9.9341    1.3892    0.8452 C   0  0  0  0  0  0  0  0  0  0  0  0
   10.6659    2.1455    0.0154 C   0  0  0  0  0  0  0  0  0  0  0  0
   10.3765    0.5779    1.8641 O   0  0  0  0  0  0  0  0  0  0  0  0
   11.6521    0.0835    1.9731 C   0  0  0  0  0  0  0  0  0  0  0  0
   11.7315   -0.8402    3.1586 C   0  0  0  0  0  0  0  0  0  0  0  0
   12.5465    0.3645    1.2237 O   0  0  0  0  0  0  0  0  0  0  0  0
    6.8464   -1.6870    3.0045 C   0  0  0  0  0  0  0  0  0  0  0  0
    6.7574   -3.1111    3.1540 O   0  0  0  0  0  0  0  0  0  0  0  0
    7.8942   -3.8117    3.2965 C   0  0  0  0  0  0  0  0  0  0  0  0
    9.0013   -3.3277    3.3300 O   0  0  0  0  0  0  0  0  0  0  0  0
    7.6390   -5.2897    3.4161 C   0  0  0  0  0  0  0  0  0  0  0  0
    8.6711   -6.1224    3.6152 C   0  0  0  0  0  0  0  0  0  0  0  0
    6.3034   -5.5999    3.2930 O   0  0  0  0  0  0  0  0  0  0  0  0
    5.7732   -6.8538    3.4295 C   0  0  0  0  0  0  0  0  0  0  0  0
    4.2810   -6.7934    3.2326 C   0  0  0  0  0  0  0  0  0  0  0  0
    6.4150   -7.8404    3.6668 O   0  0  0  0  0  0  0  0  0  0  0  0
    0.6366    0.9424   -1.6298 H   0  0  0  0  0  0  0  0  0  0  0  0
    0.3444   -0.2588   -0.1991 H   0  0  0  0  0  0  0  0  0  0  0  0
    5.3647    2.3050   -1.8382 H   0  0  0  0  0  0  0  0  0  0  0  0
    4.5846    3.0453   -3.2880 H   0  0  0  0  0  0  0  0  0  0  0  0
    5.0553    1.3109   -3.2685 H   0  0  0  0  0  0  0  0  0  0  0  0
    4.5232   -2.5662    1.5766 H   0  0  0  0  0  0  0  0  0  0  0  0
    4.2780   -1.1470    2.6106 H   0  0  0  0  0  0  0  0  0  0  0  0
    6.7597   -3.0413    0.6209 H   0  0  0  0  0  0  0  0  0  0  0  0
    8.0659   -1.8665    0.6819 H   0  0  0  0  0  0  0  0  0  0  0  0
    5.6124   -1.6741   -1.1906 H   0  0  0  0  0  0  0  0  0  0  0  0
    7.2669   -2.1599   -1.6319 H   0  0  0  0  0  0  0  0  0  0  0  0
    6.9311   -0.4937   -1.1274 H   0  0  0  0  0  0  0  0  0  0  0  0
    5.9998    0.8033    2.4421 H   0  0  0  0  0  0  0  0  0  0  0  0
    6.0426    0.7224    0.6631 H   0  0  0  0  0  0  0  0  0  0  0  0
   10.1253    2.7304   -0.7299 H   0  0  0  0  0  0  0  0  0  0  0  0
   11.7512    2.1773    0.0586 H   0  0  0  0  0  0  0  0  0  0  0  0
   10.9957   -1.6546    3.0654 H   0  0  0  0  0  0  0  0  0  0  0  0
   11.4801   -0.2846    4.0757 H   0  0  0  0  0  0  0  0  0  0  0  0
   12.7470   -1.2464    3.2349 H   0  0  0  0  0  0  0  0  0  0  0  0
    6.2821   -1.2490    3.8437 H   0  0  0  0  0  0  0  0  0  0  0  0
    7.8949   -1.3756    3.0775 H   0  0  0  0  0  0  0  0  0  0  0  0
    9.6617   -5.6707    3.6791 H   0  0  0  0  0  0  0  0  0  0  0  0
    8.5447   -7.1965    3.7132 H   0  0  0  0  0  0  0  0  0  0  0  0
    3.8350   -6.0731    3.9349 H   0  0  0  0  0  0  0  0  0  0  0  0
    3.8523   -7.7906    3.3855 H   0  0  0  0  0  0  0  0  0  0  0  0
    4.0527   -6.4380    2.2157 H   0  0  0  0  0  0  0  0  0  0  0  0
  1  2  2  0
  1 34  1  0
  1 35  1  0
  2  3  1  0
  2  7  1  0
  3  4  1  0
  4  5  1  0
  4  6  2  0
  5 36  1  0
  5 37  1  0
  5 38  1  0
  7  8  2  0
  7  9  1  0
  9 10  1  0
 11 10  1  1
 10 39  1  0
 10 40  1  0
 11 12  1  0
 11 14  1  0
 11 24  1  0
 12 13  1  0
 12 41  1  0
 12 42  1  0
 13 43  1  0
 13 44  1  0
 13 45  1  0
 14 15  1  0
 14 46  1  0
 14 47  1  0
 15 16  1  0
 16 17  2  0
 16 18  1  0
 18 19  2  0
 18 20  1  0
 19 48  1  0
 19 49  1  0
 20 21  1  0
 21 22  1  0
 21 23  2  0
 22 50  1  0
 22 51  1  0
 22 52  1  0
 24 25  1  0
 24 53  1  0
 24 54  1  0
 25 26  1  0
 26 27  2  0
 26 28  1  0
 28 29  2  0
 28 30  1  0
 29 55  1  0
 29 56  1  0
 30 31  1  0
 31 32  1  0
 31 33  2  0
 32 57  1  0
 32 58  1  0
 32 59  1  0
M  END

