
     RDKit          3D

 44 46  0  0  0  0  0  0  0  0999 V2000
    3.4349    2.6171   -1.8525 C   0  0  0  0  0  0  0  0  0  0  0  0
    3.0254    1.3950   -1.0273 C   0  0  0  0  0  0  0  0  0  0  0  0
    3.4320    0.0593   -1.6525 C   0  0  0  0  0  0  0  0  0  0  0  0
    4.9136   -0.2256   -1.6602 C   0  0  0  0  0  0  0  0  0  0  0  0
    5.7166    0.4296   -0.9659 O   0  0  0  0  0  0  0  0  0  0  0  0
    5.3378   -1.2598   -2.4469 N   0  0  0  0  0  0  0  0  0  0  0  0
    6.6215   -1.4773   -2.3998 C   0  0  0  0  0  0  0  0  0  0  0  0
    7.7139   -0.4820   -1.3968 S   0  0  0  0  0  0  0  0  0  0  0  0
    9.0570   -1.4888   -2.0253 N   0  0  0  0  0  0  0  0  0  0  0  0
   10.4042   -1.3354   -1.6181 C   0  0  0  0  0  0  0  0  0  0  0  0
   10.8340   -0.1207   -1.0616 C   0  0  0  0  0  0  0  0  0  0  0  0
   12.1571    0.0310   -0.6482 C   0  0  0  0  0  0  0  0  0  0  0  0
   13.0580   -1.0268   -0.8004 C   0  0  0  0  0  0  0  0  0  0  0  0
   14.7151   -0.8362   -0.2892 Cl  0  0  0  0  0  0  0  0  0  0  0  0
   12.6380   -2.2389   -1.3597 C   0  0  0  0  0  0  0  0  0  0  0  0
   11.3140   -2.3957   -1.7623 C   0  0  0  0  0  0  0  0  0  0  0  0
    8.7024   -2.4340   -2.8459 N   0  0  0  0  0  0  0  0  0  0  0  0
    7.4016   -2.4742   -3.0839 C   0  0  0  0  0  0  0  0  0  0  0  0
    6.8423   -3.5131   -4.0204 C   0  0  0  0  0  0  0  0  0  0  0  0
    5.6475   -3.6602   -4.1863 O   0  0  0  0  0  0  0  0  0  0  0  0
    7.8269   -4.2476   -4.6401 N   0  0  0  0  0  0  0  0  0  0  0  0
    7.6948   -5.3055   -5.5552 C   0  0  0  0  0  0  0  0  0  0  0  0
    6.4527   -5.7933   -6.0026 C   0  0  0  0  0  0  0  0  0  0  0  0
    6.4179   -6.8510   -6.9147 C   0  0  0  0  0  0  0  0  0  0  0  0
    7.5928   -7.4366   -7.3943 C   0  0  0  0  0  0  0  0  0  0  0  0
    8.8259   -6.9500   -6.9491 C   0  0  0  0  0  0  0  0  0  0  0  0
    8.8786   -5.8955   -6.0391 C   0  0  0  0  0  0  0  0  0  0  0  0
    3.1040    3.5505   -1.3699 H   0  0  0  0  0  0  0  0  0  0  0  0
    2.9888    2.5881   -2.8610 H   0  0  0  0  0  0  0  0  0  0  0  0
    4.5287    2.6724   -1.9666 H   0  0  0  0  0  0  0  0  0  0  0  0
    1.9309    1.3914   -0.8911 H   0  0  0  0  0  0  0  0  0  0  0  0
    3.4657    1.4654   -0.0191 H   0  0  0  0  0  0  0  0  0  0  0  0
    3.0723   -0.0419   -2.6905 H   0  0  0  0  0  0  0  0  0  0  0  0
    2.9677   -0.7852   -1.1101 H   0  0  0  0  0  0  0  0  0  0  0  0
   10.1413    0.7162   -0.9597 H   0  0  0  0  0  0  0  0  0  0  0  0
   12.4939    0.9747   -0.2167 H   0  0  0  0  0  0  0  0  0  0  0  0
   13.3478   -3.0605   -1.4685 H   0  0  0  0  0  0  0  0  0  0  0  0
   10.9746   -3.3412   -2.1844 H   0  0  0  0  0  0  0  0  0  0  0  0
    8.7762   -3.9915   -4.3886 H   0  0  0  0  0  0  0  0  0  0  0  0
    5.5373   -5.3385   -5.6319 H   0  0  0  0  0  0  0  0  0  0  0  0
    5.4470   -7.2211   -7.2547 H   0  0  0  0  0  0  0  0  0  0  0  0
    7.5494   -8.2630   -8.1076 H   0  0  0  0  0  0  0  0  0  0  0  0
    9.7570   -7.3931   -7.3120 H   0  0  0  0  0  0  0  0  0  0  0  0
    9.8474   -5.5195   -5.6961 H   0  0  0  0  0  0  0  0  0  0  0  0
  1  2  1  0
  1 28  1  0
  1 29  1  0
  1 30  1  0
  2  3  1  0
  2 31  1  0
  2 32  1  0
  3  4  1  0
  3 33  1  0
  3 34  1  0
  4  5  2  0
  4  6  1  0
  6  7  2  0
  7  8  1  0
  7 18  1  0
  8  9  1  0
  9 10  1  0
  9 17  1  0
 10 11  2  0
 10 16  1  0
 11 12  1  0
 11 35  1  0
 12 13  2  0
 12 36  1  0
 13 14  1  0
 13 15  1  0
 15 16  2  0
 15 37  1  0
 16 38  1  0
 17 18  2  0
 18 19  1  0
 19 20  2  0
 19 21  1  0
 21 22  1  0
 21 39  1  0
 22 23  2  0
 22 27  1  0
 23 24  1  0
 23 40  1  0
 24 25  2  0
 24 41  1  0
 25 26  1  0
 25 42  1  0
 26 27  2  0
 26 43  1  0
 27 44  1  0
M  END

