
     RDKit          3D

 47 50  0  0  0  0  0  0  0  0999 V2000
    0.6732   -0.6301    0.0367 O   0  0  0  0  0  0  0  0  0  0  0  0
    1.8639   -0.3730   -0.0413 C   0  0  0  0  0  0  0  0  0  0  0  0
    2.5094    0.1017   -1.1586 N   0  0  0  0  0  0  0  0  0  0  0  0
    1.9786    0.3956   -2.4262 C   0  0  0  0  0  0  0  0  0  0  0  0
    0.6198    0.2221   -2.7529 C   0  0  0  0  0  0  0  0  0  0  0  0
    0.1861    0.5388   -4.0402 C   0  0  0  0  0  0  0  0  0  0  0  0
    1.0725    1.0206   -5.0079 C   0  0  0  0  0  0  0  0  0  0  0  0
    2.4243    1.1996   -4.6864 C   0  0  0  0  0  0  0  0  0  0  0  0
    3.3961    1.7561   -5.7132 C   0  0  0  0  0  0  0  0  0  0  0  0
    4.6152    0.9765   -5.8712 N   0  0  0  0  0  0  0  0  0  0  0  0
    4.8292   -0.0740   -6.7096 C   0  0  0  0  0  0  0  0  0  0  0  0
    6.1072   -0.5400   -6.4490 C   0  0  0  0  0  0  0  0  0  0  0  0
    6.5806    0.3052   -5.4178 C   0  0  0  0  0  0  0  0  0  0  0  0
    5.6713    1.2151   -5.0748 N   0  0  0  0  0  0  0  0  0  0  0  0
    2.8674    0.8875   -3.3970 C   0  0  0  0  0  0  0  0  0  0  0  0
    2.7544   -0.5643    1.1282 C   0  0  0  0  0  0  0  0  0  0  0  0
    2.4759   -1.0309    2.3865 C   0  0  0  0  0  0  0  0  0  0  0  0
    3.7124   -1.0070    3.1000 C   0  0  0  0  0  0  0  0  0  0  0  0
    4.6575   -0.5251    2.2309 C   0  0  0  0  0  0  0  0  0  0  0  0
    6.1168   -0.2721    2.3576 C   0  0  0  0  0  0  0  0  0  0  0  0
    6.8293   -1.2628    1.6317 O   0  0  0  0  0  0  0  0  0  0  0  0
    8.1876   -1.2071    1.5893 C   0  0  0  0  0  0  0  0  0  0  0  0
    8.9680   -0.2450    2.2473 C   0  0  0  0  0  0  0  0  0  0  0  0
   10.3636   -0.2826    2.1383 C   0  0  0  0  0  0  0  0  0  0  0  0
   10.9794   -1.2751    1.3781 C   0  0  0  0  0  0  0  0  0  0  0  0
   12.7243   -1.3189    1.2446 Cl  0  0  0  0  0  0  0  0  0  0  0  0
   10.2063   -2.2400    0.7189 C   0  0  0  0  0  0  0  0  0  0  0  0
    8.8201   -2.2038    0.8252 C   0  0  0  0  0  0  0  0  0  0  0  0
    4.0788   -0.2523    1.0302 O   0  0  0  0  0  0  0  0  0  0  0  0
    3.5071    0.2569   -1.0563 H   0  0  0  0  0  0  0  0  0  0  0  0
   -0.0670   -0.1563   -1.9997 H   0  0  0  0  0  0  0  0  0  0  0  0
   -0.8682    0.3999   -4.2930 H   0  0  0  0  0  0  0  0  0  0  0  0
    0.7121    1.2578   -6.0127 H   0  0  0  0  0  0  0  0  0  0  0  0
    3.7172    2.7697   -5.4283 H   0  0  0  0  0  0  0  0  0  0  0  0
    2.9055    1.8264   -6.6949 H   0  0  0  0  0  0  0  0  0  0  0  0
    4.0701   -0.4024   -7.4168 H   0  0  0  0  0  0  0  0  0  0  0  0
    6.6240   -1.3618   -6.9389 H   0  0  0  0  0  0  0  0  0  0  0  0
    7.5498    0.2909   -4.9189 H   0  0  0  0  0  0  0  0  0  0  0  0
    3.9248    1.0247   -3.1527 H   0  0  0  0  0  0  0  0  0  0  0  0
    1.4972   -1.3492    2.7358 H   0  0  0  0  0  0  0  0  0  0  0  0
    3.8879   -1.3120    4.1296 H   0  0  0  0  0  0  0  0  0  0  0  0
    6.3878   -0.2964    3.4280 H   0  0  0  0  0  0  0  0  0  0  0  0
    6.3608    0.7337    1.9666 H   0  0  0  0  0  0  0  0  0  0  0  0
    8.5117    0.5410    2.8492 H   0  0  0  0  0  0  0  0  0  0  0  0
   10.9723    0.4654    2.6491 H   0  0  0  0  0  0  0  0  0  0  0  0
   10.6956   -3.0141    0.1253 H   0  0  0  0  0  0  0  0  0  0  0  0
    8.1977   -2.9448    0.3198 H   0  0  0  0  0  0  0  0  0  0  0  0
  1  2  2  0
  2  3  1  0
  2 16  1  0
  3  4  1  0
  3 30  1  0
  4  5  2  0
  4 15  1  0
  5  6  1  0
  5 31  1  0
  6  7  2  0
  6 32  1  0
  7  8  1  0
  7 33  1  0
  8  9  1  0
  8 15  2  0
  9 10  1  0
  9 34  1  0
  9 35  1  0
 10 11  1  0
 10 14  1  0
 11 12  2  0
 11 36  1  0
 12 13  1  0
 12 37  1  0
 13 14  2  0
 13 38  1  0
 15 39  1  0
 16 17  2  0
 16 29  1  0
 17 18  1  0
 17 40  1  0
 18 19  2  0
 18 41  1  0
 19 20  1  0
 19 29  1  0
 20 21  1  0
 20 42  1  0
 20 43  1  0
 21 22  1  0
 22 23  2  0
 22 28  1  0
 23 24  1  0
 23 44  1  0
 24 25  2  0
 24 45  1  0
 25 26  1  0
 25 27  1  0
 27 28  2  0
 27 46  1  0
 28 47  1  0
M  END

