
     RDKit          3D

 31 33  0  0  0  0  0  0  0  0999 V2000
    4.4370    1.9813    1.9545 Br  0  0  0  0  0  0  0  0  0  0  0  0
    4.5473    0.9128    0.3847 C   0  0  0  0  0  0  0  0  0  0  0  0
    4.0399    1.3974   -0.8244 C   0  0  0  0  0  0  0  0  0  0  0  0
    4.1272    0.6065   -1.9707 C   0  0  0  0  0  0  0  0  0  0  0  0
    4.7107   -0.6637   -1.9167 C   0  0  0  0  0  0  0  0  0  0  0  0
    4.7667   -1.7196   -3.4927 Br  0  0  0  0  0  0  0  0  0  0  0  0
    5.2336   -1.1493   -0.7013 C   0  0  0  0  0  0  0  0  0  0  0  0
    5.8401   -2.4271   -0.5984 N   0  0  0  0  0  0  0  0  0  0  0  0
    7.1100   -2.7904   -1.0660 C   0  0  0  0  0  0  0  0  0  0  0  0
    7.2750   -4.0937   -0.6920 C   0  0  0  0  0  0  0  0  0  0  0  0
    6.1657   -4.5614   -0.0198 N   0  0  0  0  0  0  0  0  0  0  0  0
    5.3251   -3.5556    0.0267 C   0  0  0  0  0  0  0  0  0  0  0  0
    4.0708   -3.5199    0.5916 N   0  0  0  0  0  0  0  0  0  0  0  0
    3.3834   -4.5254    1.2839 C   0  0  0  0  0  0  0  0  0  0  0  0
    2.0896   -4.2247    1.7557 C   0  0  0  0  0  0  0  0  0  0  0  0
    1.3504   -5.1761    2.4559 C   0  0  0  0  0  0  0  0  0  0  0  0
    1.8829   -6.4461    2.7019 C   0  0  0  0  0  0  0  0  0  0  0  0
    3.1655   -6.7437    2.2333 C   0  0  0  0  0  0  0  0  0  0  0  0
    3.9210   -5.8030    1.5286 C   0  0  0  0  0  0  0  0  0  0  0  0
    5.1465   -0.3457    0.4478 C   0  0  0  0  0  0  0  0  0  0  0  0
    3.5773    2.3843   -0.8735 H   0  0  0  0  0  0  0  0  0  0  0  0
    3.7291    0.9748   -2.9175 H   0  0  0  0  0  0  0  0  0  0  0  0
    7.7397   -2.0856   -1.6007 H   0  0  0  0  0  0  0  0  0  0  0  0
    8.1394   -4.7321   -0.8685 H   0  0  0  0  0  0  0  0  0  0  0  0
    3.5577   -2.6570    0.4621 H   0  0  0  0  0  0  0  0  0  0  0  0
    1.6633   -3.2335    1.5700 H   0  0  0  0  0  0  0  0  0  0  0  0
    0.3489   -4.9200    2.8119 H   0  0  0  0  0  0  0  0  0  0  0  0
    1.3042   -7.1927    3.2507 H   0  0  0  0  0  0  0  0  0  0  0  0
    3.5957   -7.7323    2.4159 H   0  0  0  0  0  0  0  0  0  0  0  0
    4.9181   -6.0366    1.1598 H   0  0  0  0  0  0  0  0  0  0  0  0
    5.5625   -0.7209    1.3838 H   0  0  0  0  0  0  0  0  0  0  0  0
  1  2  1  0
  2  3  2  0
  2 20  1  0
  3  4  1  0
  3 21  1  0
  4  5  2  0
  4 22  1  0
  5  6  1  0
  5  7  1  0
  7  8  1  0
  7 20  2  0
  8  9  1  0
  8 12  1  0
  9 10  2  0
  9 23  1  0
 10 11  1  0
 10 24  1  0
 11 12  2  0
 12 13  1  0
 13 14  1  0
 13 25  1  0
 14 15  2  0
 14 19  1  0
 15 16  1  0
 15 26  1  0
 16 17  2  0
 16 27  1  0
 17 18  1  0
 17 28  1  0
 18 19  2  0
 18 29  1  0
 19 30  1  0
 20 31  1  0
M  END

