
     RDKit          3D

 35 36  0  0  0  0  0  0  0  0999 V2000
    2.8027    3.2874   -2.1461 C   0  0  0  0  0  0  0  0  0  0  0  0
    2.6215    2.8204   -0.7108 C   0  0  1  0  0  0  0  0  0  0  0  0
    0.8362    2.8255   -0.3023 Cl  0  0  0  0  0  0  0  0  0  0  0  0
    3.1832    1.4211   -0.4083 C   0  0  0  0  0  0  0  0  0  0  0  0
    4.6905    1.3375   -0.5365 C   0  0  0  0  0  0  0  0  0  0  0  0
    5.5210    1.8392    0.4796 C   0  0  0  0  0  0  0  0  0  0  0  0
    6.9176    1.8063    0.3916 C   0  0  0  0  0  0  0  0  0  0  0  0
    7.4840    1.2470   -0.7571 C   0  0  0  0  0  0  0  0  0  0  0  0
    6.6785    0.7253   -1.7812 C   0  0  0  0  0  0  0  0  0  0  0  0
    5.2929    0.7720   -1.6760 C   0  0  0  0  0  0  0  0  0  0  0  0
    7.5574    0.1263   -2.8526 C   0  0  0  0  0  0  0  0  0  0  0  0
    8.9412    0.7539   -2.5599 C   0  0  1  0  0  0  0  0  0  0  0  0
    9.1843    2.0146   -3.3953 C   0  0  0  0  0  0  0  0  0  0  0  0
    8.8535    1.0808   -1.1016 N   0  0  0  0  0  0  0  0  0  0  0  0
    9.8732    1.1826   -0.2001 C   0  0  0  0  0  0  0  0  0  0  0  0
    9.7513    1.5482    0.9512 O   0  0  0  0  0  0  0  0  0  0  0  0
   11.2851    0.7315   -0.6814 C   0  0  1  0  0  0  0  0  0  0  0  0
   11.2740   -0.5618   -1.0628 F   0  0  0  0  0  0  0  0  0  0  0  0
   11.7273    1.4545   -1.7294 F   0  0  0  0  0  0  0  0  0  0  0  0
   12.1593    0.8628    0.3030 F   0  0  0  0  0  0  0  0  0  0  0  0
    2.3616    4.2841   -2.2905 H   0  0  0  0  0  0  0  0  0  0  0  0
    2.3174    2.5911   -2.8483 H   0  0  0  0  0  0  0  0  0  0  0  0
    3.8749    3.3423   -2.3935 H   0  0  0  0  0  0  0  0  0  0  0  0
    3.0624    3.5507   -0.0164 H   0  0  0  0  0  0  0  0  0  0  0  0
    2.6996    0.6972   -1.0838 H   0  0  0  0  0  0  0  0  0  0  0  0
    2.8811    1.1514    0.6156 H   0  0  0  0  0  0  0  0  0  0  0  0
    5.0656    2.2676    1.3774 H   0  0  0  0  0  0  0  0  0  0  0  0
    7.5469    2.1907    1.1905 H   0  0  0  0  0  0  0  0  0  0  0  0
    4.6683    0.3591   -2.4735 H   0  0  0  0  0  0  0  0  0  0  0  0
    7.2209    0.3513   -3.8757 H   0  0  0  0  0  0  0  0  0  0  0  0
    7.5895   -0.9730   -2.7510 H   0  0  0  0  0  0  0  0  0  0  0  0
    9.7478    0.0300   -2.7219 H   0  0  0  0  0  0  0  0  0  0  0  0
    8.3527    2.7272   -3.2768 H   0  0  0  0  0  0  0  0  0  0  0  0
    9.2563    1.7455   -4.4609 H   0  0  0  0  0  0  0  0  0  0  0  0
   10.1179    2.5134   -3.1050 H   0  0  0  0  0  0  0  0  0  0  0  0
  1  2  1  0
  1 21  1  0
  1 22  1  0
  1 23  1  0
  2  3  1  0
  2  4  1  0
  2 24  1  1
  4  5  1  0
  4 25  1  0
  4 26  1  0
  5  6  2  0
  5 10  1  0
  6  7  1  0
  6 27  1  0
  7  8  2  0
  7 28  1  0
  8  9  1  0
  8 14  1  0
  9 10  2  0
  9 11  1  0
 10 29  1  0
 11 12  1  0
 11 30  1  0
 11 31  1  0
 12 13  1  0
 12 14  1  0
 12 32  1  1
 13 33  1  0
 13 34  1  0
 13 35  1  0
 14 15  1  0
 15 16  2  0
 15 17  1  0
 17 18  1  6
 17 19  1  0
 17 20  1  0
M  END

