
     RDKit          3D

 41 41  0  0  0  0  0  0  0  0999 V2000
    3.4232    5.4875   -0.6910 C   0  0  0  0  0  0  0  0  0  0  0  0
    2.2343    4.5501   -0.9532 C   0  0  0  0  0  0  0  0  0  0  0  0
    2.6494    3.1346   -1.2960 C   0  0  0  0  0  0  0  0  0  0  0  0
    2.8575    2.1781   -0.2888 C   0  0  0  0  0  0  0  0  0  0  0  0
    3.2561    0.8788   -0.6103 C   0  0  0  0  0  0  0  0  0  0  0  0
    3.4628    0.5093   -1.9425 C   0  0  0  0  0  0  0  0  0  0  0  0
    3.2694    1.4488   -2.9619 C   0  0  0  0  0  0  0  0  0  0  0  0
    3.5074    1.0569   -4.4230 C   0  0  1  0  0  0  0  0  0  0  0  0
    4.8668    1.6531   -4.8301 C   0  0  0  0  0  0  0  0  0  0  0  0
    5.2814    1.5828   -6.3022 N   0  0  1  0  0  0  0  0  0  0  0  0
    6.5443    2.3750   -6.4305 C   0  0  0  0  0  0  0  0  0  0  0  0
    5.5468    0.1638   -6.7577 C   0  0  0  0  0  0  0  0  0  0  0  0
    4.2171    2.1768   -7.1904 C   0  0  0  0  0  0  0  0  0  0  0  0
    3.5201   -0.3278   -4.5888 O   0  0  0  0  0  0  0  0  0  0  0  0
    2.3566   -1.0315   -5.6405 P   0  0  1  0  0  0  0  0  0  0  0  0
    2.5687   -0.2925   -6.9489 O   0  0  0  0  0  0  0  0  0  0  0  0
    2.4634   -2.5008   -5.4374 O   0  0  0  0  0  0  0  0  0  0  0  0
    0.9718   -0.4244   -4.9815 O   0  0  0  0  0  0  0  0  0  0  0  0
    2.8610    2.7478   -2.6274 C   0  0  0  0  0  0  0  0  0  0  0  0
    3.0798    6.5045   -0.4409 H   0  0  0  0  0  0  0  0  0  0  0  0
    4.0765    5.5591   -1.5759 H   0  0  0  0  0  0  0  0  0  0  0  0
    4.0403    5.1228    0.1458 H   0  0  0  0  0  0  0  0  0  0  0  0
    1.6215    4.9602   -1.7737 H   0  0  0  0  0  0  0  0  0  0  0  0
    1.5845    4.5329   -0.0622 H   0  0  0  0  0  0  0  0  0  0  0  0
    2.6886    2.4521    0.7569 H   0  0  0  0  0  0  0  0  0  0  0  0
    3.3967    0.1414    0.1846 H   0  0  0  0  0  0  0  0  0  0  0  0
    3.7464   -0.5089   -2.2134 H   0  0  0  0  0  0  0  0  0  0  0  0
    2.7104    1.5260   -5.0261 H   0  0  0  0  0  0  0  0  0  0  0  0
    5.6601    1.1417   -4.2665 H   0  0  0  0  0  0  0  0  0  0  0  0
    4.8899    2.7214   -4.5743 H   0  0  0  0  0  0  0  0  0  0  0  0
    7.3134    1.9348   -5.7829 H   0  0  0  0  0  0  0  0  0  0  0  0
    6.3571    3.4138   -6.1297 H   0  0  0  0  0  0  0  0  0  0  0  0
    6.8802    2.3466   -7.4745 H   0  0  0  0  0  0  0  0  0  0  0  0
    6.1425   -0.3495   -5.9941 H   0  0  0  0  0  0  0  0  0  0  0  0
    6.1008    0.2204   -7.7041 H   0  0  0  0  0  0  0  0  0  0  0  0
    4.5732   -0.3270   -6.9113 H   0  0  0  0  0  0  0  0  0  0  0  0
    3.9585    3.1749   -6.8121 H   0  0  0  0  0  0  0  0  0  0  0  0
    3.3566    1.4814   -7.1908 H   0  0  0  0  0  0  0  0  0  0  0  0
    4.6316    2.2587   -8.2039 H   0  0  0  0  0  0  0  0  0  0  0  0
    0.6294   -1.0777   -4.3549 H   0  0  0  0  0  0  0  0  0  0  0  0
    2.6740    3.4770   -3.4244 H   0  0  0  0  0  0  0  0  0  0  0  0
  1  2  1  0
  1 20  1  0
  1 21  1  0
  1 22  1  0
  2  3  1  0
  2 23  1  0
  2 24  1  0
  3  4  2  0
  3 19  1  0
  4  5  1  0
  4 25  1  0
  5  6  2  0
  5 26  1  0
  6  7  1  0
  6 27  1  0
  7  8  1  0
  7 19  2  0
  8  9  1  0
  8 14  1  0
  8 28  1  6
 10  9  1  1
  9 29  1  0
  9 30  1  0
 10 11  1  0
 10 12  1  0
 10 13  1  0
 11 31  1  0
 11 32  1  0
 11 33  1  0
 12 34  1  0
 12 35  1  0
 12 36  1  0
 13 37  1  0
 13 38  1  0
 13 39  1  0
 14 15  1  0
 15 16  2  0
 15 17  1  6
 15 18  1  0
 18 40  1  0
 19 41  1  0
M  CHG  2  10   1  17  -1
M  END

