
     RDKit          3D

 40 41  0  0  0  0  0  0  0  0999 V2000
    2.9382   -0.0148    3.0886 C   0  0  0  0  0  0  0  0  0  0  0  0
    3.2501   -1.1693    3.8555 O   0  0  0  0  0  0  0  0  0  0  0  0
    3.7733   -2.2292    3.2127 C   0  0  0  0  0  0  0  0  0  0  0  0
    4.0767   -3.3696    3.9880 C   0  0  0  0  0  0  0  0  0  0  0  0
    4.6157   -4.4677    3.3387 C   0  0  0  0  0  0  0  0  0  0  0  0
    4.8473   -4.4218    1.9486 C   0  0  0  0  0  0  0  0  0  0  0  0
    5.4369   -5.6033    1.2028 C   0  0  0  0  0  0  0  0  0  0  0  0
    4.5285   -6.7965    1.1906 C   0  0  0  0  0  0  0  0  0  0  0  0
    4.7571   -7.8561    1.9252 N   0  0  0  0  0  0  0  0  0  0  0  0
    3.6745   -8.6898    1.6387 O   0  0  0  0  0  0  0  0  0  0  0  0
    2.9039   -8.0390    0.7587 C   0  0  0  0  0  0  0  0  0  0  0  0
    1.6204   -8.6799    0.2900 C   0  0  0  0  0  0  0  0  0  0  0  0
    1.0967   -8.1693   -0.9538 N   0  0  0  0  0  0  0  0  0  0  0  0
    1.8621   -8.5114   -2.1476 C   0  0  0  0  0  0  0  0  0  0  0  0
    1.1383   -8.1158   -3.4441 C   0  0  1  0  0  0  0  0  0  0  0  0
    0.9082   -6.6021   -3.5439 C   0  0  0  0  0  0  0  0  0  0  0  0
    1.9104   -8.6367   -4.6621 C   0  0  0  0  0  0  0  0  0  0  0  0
    3.3737   -6.8693    0.4433 N   0  0  0  0  0  0  0  0  0  0  0  0
    4.5026   -3.2395    1.2944 C   0  0  0  0  0  0  0  0  0  0  0  0
    3.9809   -2.1683    1.9063 N   0  0  0  0  0  0  0  0  0  0  0  0
    2.5301    0.7173    3.7980 H   0  0  0  0  0  0  0  0  0  0  0  0
    2.1950   -0.2407    2.3076 H   0  0  0  0  0  0  0  0  0  0  0  0
    3.8347    0.3939    2.5962 H   0  0  0  0  0  0  0  0  0  0  0  0
    3.8834   -3.3601    5.0618 H   0  0  0  0  0  0  0  0  0  0  0  0
    4.8592   -5.3731    3.9024 H   0  0  0  0  0  0  0  0  0  0  0  0
    6.3898   -5.9110    1.6602 H   0  0  0  0  0  0  0  0  0  0  0  0
    5.6419   -5.3146    0.1607 H   0  0  0  0  0  0  0  0  0  0  0  0
    0.8730   -8.5373    1.0926 H   0  0  0  0  0  0  0  0  0  0  0  0
    1.7810   -9.7685    0.2197 H   0  0  0  0  0  0  0  0  0  0  0  0
    0.9882   -7.1586   -0.8828 H   0  0  0  0  0  0  0  0  0  0  0  0
    2.0063   -9.6065   -2.1459 H   0  0  0  0  0  0  0  0  0  0  0  0
    2.8799   -8.0614   -2.1537 H   0  0  0  0  0  0  0  0  0  0  0  0
    0.1498   -8.6092   -3.4181 H   0  0  0  0  0  0  0  0  0  0  0  0
    1.8642   -6.0509   -3.5115 H   0  0  0  0  0  0  0  0  0  0  0  0
    0.2709   -6.2260   -2.7276 H   0  0  0  0  0  0  0  0  0  0  0  0
    0.4053   -6.3418   -4.4892 H   0  0  0  0  0  0  0  0  0  0  0  0
    2.9130   -8.1794   -4.7237 H   0  0  0  0  0  0  0  0  0  0  0  0
    1.3812   -8.4006   -5.5991 H   0  0  0  0  0  0  0  0  0  0  0  0
    2.0447   -9.7301   -4.6204 H   0  0  0  0  0  0  0  0  0  0  0  0
    4.6575   -3.1493    0.2120 H   0  0  0  0  0  0  0  0  0  0  0  0
  1  2  1  0
  1 21  1  0
  1 22  1  0
  1 23  1  0
  2  3  1  0
  3  4  2  0
  3 20  1  0
  4  5  1  0
  4 24  1  0
  5  6  2  0
  5 25  1  0
  6  7  1  0
  6 19  1  0
  7  8  1  0
  7 26  1  0
  7 27  1  0
  8  9  2  0
  8 18  1  0
  9 10  1  0
 10 11  1  0
 11 12  1  0
 11 18  2  0
 12 13  1  0
 12 28  1  0
 12 29  1  0
 13 14  1  0
 13 30  1  0
 14 15  1  0
 14 31  1  0
 14 32  1  0
 15 16  1  0
 15 17  1  0
 15 33  1  1
 16 34  1  0
 16 35  1  0
 16 36  1  0
 17 37  1  0
 17 38  1  0
 17 39  1  0
 19 20  2  0
 19 40  1  0
M  END

