
     RDKit          3D

 43 46  0  0  0  0  0  0  0  0999 V2000
    1.1111   -0.2773    0.3263 C   0  0  0  0  0  0  0  0  0  0  0  0
    2.5503   -0.6697   -0.6899 S   0  0  1  0  0  0  0  0  0  0  0  0
    2.1538   -1.7177   -1.6424 O   0  0  0  0  0  0  0  0  0  0  0  0
    3.1300    0.5940   -1.1645 O   0  0  0  0  0  0  0  0  0  0  0  0
    3.7457   -1.3930    0.4681 C   0  0  1  0  0  0  0  0  0  0  0  0
    3.4714   -2.8412    0.9537 C   0  0  0  0  0  0  0  0  0  0  0  0
    4.7467   -3.2269    0.3625 N   0  0  0  0  0  0  0  0  0  0  0  0
    5.1145   -4.4873   -0.0377 C   0  0  0  0  0  0  0  0  0  0  0  0
    6.2078   -4.6862   -0.9073 C   0  0  0  0  0  0  0  0  0  0  0  0
    6.5538   -5.9918   -1.2674 C   0  0  0  0  0  0  0  0  0  0  0  0
    7.6842   -6.2267   -2.1842 C   0  0  0  0  0  0  0  0  0  0  0  0
    8.0847   -5.2671   -3.0091 N   0  0  0  0  0  0  0  0  0  0  0  0
    9.1195   -5.7501   -3.7117 N   0  0  0  0  0  0  0  0  0  0  0  0
    9.5547   -5.1679   -4.4162 H   0  0  0  0  0  0  0  0  0  0  0  0
    9.4353   -7.0358   -3.3711 C   0  0  0  0  0  0  0  0  0  0  0  0
   10.4317   -7.9102   -3.8392 C   0  0  0  0  0  0  0  0  0  0  0  0
   10.5020   -9.1650   -3.2543 C   0  0  0  0  0  0  0  0  0  0  0  0
    9.6035   -9.5263   -2.2252 C   0  0  0  0  0  0  0  0  0  0  0  0
    9.6911  -10.8206   -1.6974 O   0  0  0  0  0  0  0  0  0  0  0  0
   10.4793  -11.0213   -0.6186 C   0  0  1  0  0  0  0  0  0  0  0  0
   10.0818  -10.3048    0.4442 F   0  0  0  0  0  0  0  0  0  0  0  0
   10.4233  -12.3086   -0.3057 F   0  0  0  0  0  0  0  0  0  0  0  0
   11.7599  -10.6934   -0.8549 F   0  0  0  0  0  0  0  0  0  0  0  0
    8.6138   -8.6754   -1.7617 C   0  0  0  0  0  0  0  0  0  0  0  0
    8.5124   -7.3998   -2.3533 C   0  0  0  0  0  0  0  0  0  0  0  0
    5.7832   -7.0492   -0.7422 C   0  0  0  0  0  0  0  0  0  0  0  0
    4.7241   -6.7371    0.1096 C   0  0  0  0  0  0  0  0  0  0  0  0
    4.3872   -5.4972    0.4644 N   0  0  0  0  0  0  0  0  0  0  0  0
    4.9940   -1.9392   -0.2762 C   0  0  0  0  0  0  0  0  0  0  0  0
    0.3785    0.1462   -0.3747 H   0  0  0  0  0  0  0  0  0  0  0  0
    1.3919    0.4677    1.0821 H   0  0  0  0  0  0  0  0  0  0  0  0
    0.7164   -1.1964    0.7792 H   0  0  0  0  0  0  0  0  0  0  0  0
    3.9504   -0.6405    1.2411 H   0  0  0  0  0  0  0  0  0  0  0  0
    2.6022   -3.3240    0.4745 H   0  0  0  0  0  0  0  0  0  0  0  0
    3.4047   -2.9760    2.0458 H   0  0  0  0  0  0  0  0  0  0  0  0
    6.7831   -3.8458   -1.2961 H   0  0  0  0  0  0  0  0  0  0  0  0
   11.1269   -7.6182   -4.6288 H   0  0  0  0  0  0  0  0  0  0  0  0
   11.2504   -9.8916   -3.5740 H   0  0  0  0  0  0  0  0  0  0  0  0
    7.9549   -9.0027   -0.9588 H   0  0  0  0  0  0  0  0  0  0  0  0
    5.9720   -8.0864   -1.0161 H   0  0  0  0  0  0  0  0  0  0  0  0
    4.1061   -7.5425    0.5249 H   0  0  0  0  0  0  0  0  0  0  0  0
    4.8901   -1.9515   -1.3766 H   0  0  0  0  0  0  0  0  0  0  0  0
    5.9478   -1.4542   -0.0100 H   0  0  0  0  0  0  0  0  0  0  0  0
  2  1  1  1
  1 30  1  0
  1 31  1  0
  1 32  1  0
  2  3  2  0
  2  4  2  0
  2  5  1  0
  5  6  1  0
  5 29  1  0
  5 33  1  1
  6  7  1  0
  6 34  1  0
  6 35  1  0
  7  8  1  0
  7 29  1  0
  8  9  2  0
  8 28  1  0
  9 10  1  0
  9 36  1  0
 10 11  1  0
 10 26  2  0
 11 12  2  0
 11 25  1  0
 12 13  1  0
 13 14  1  0
 13 15  1  0
 15 16  1  0
 15 25  2  0
 16 17  2  0
 16 37  1  0
 17 18  1  0
 17 38  1  0
 18 19  1  0
 18 24  2  0
 19 20  1  0
 20 21  1  1
 20 22  1  0
 20 23  1  0
 24 25  1  0
 24 39  1  0
 26 27  1  0
 26 40  1  0
 27 28  2  0
 27 41  1  0
 29 42  1  0
 29 43  1  0
M  END

