
     RDKit          3D

 44 45  0  0  0  0  0  0  0  0999 V2000
    0.9531    1.2339    1.1427 C   0  0  0  0  0  0  0  0  0  0  0  0
    2.3602    1.1243    0.5556 C   0  0  0  0  0  0  0  0  0  0  0  0
    2.3701    1.2392   -0.9746 C   0  0  0  0  0  0  0  0  0  0  0  0
    3.6892    1.1170   -1.5699 N   0  0  0  0  0  0  0  0  0  0  0  0
    4.5359    2.1549   -1.7786 C   0  0  0  0  0  0  0  0  0  0  0  0
    4.1212    3.3945   -1.4819 N   0  0  0  0  0  0  0  0  0  0  0  0
    4.9506    4.4164   -1.7081 C   0  0  0  0  0  0  0  0  0  0  0  0
    4.3918    5.8136   -1.4460 C   0  0  1  0  0  0  0  0  0  0  0  0
    5.3748    6.8221   -1.4627 O   0  0  0  0  0  0  0  0  0  0  0  0
    6.3274    6.8159   -0.4251 C   0  0  0  0  0  0  0  0  0  0  0  0
    3.2663    6.2620   -2.4300 C   0  0  0  0  0  0  0  0  0  0  0  0
    2.4407    6.7884   -1.2320 C   0  0  0  0  0  0  0  0  0  0  0  0
    3.3598    5.9825   -0.2817 C   0  0  0  0  0  0  0  0  0  0  0  0
    6.1869    4.3180   -2.1899 N   0  0  0  0  0  0  0  0  0  0  0  0
    6.6548    3.0897   -2.4980 C   0  0  0  0  0  0  0  0  0  0  0  0
    8.0542    3.0226   -3.0592 C   0  0  0  0  0  0  0  0  0  0  0  0
    8.1159    3.0922   -4.6014 C   0  0  0  0  0  0  0  0  0  0  0  0
    7.6690    4.4276   -5.1974 C   0  0  0  0  0  0  0  0  0  0  0  0
    5.8442    1.9716   -2.3142 C   0  0  0  0  0  0  0  0  0  0  0  0
    6.4367    0.1998   -2.7478 Br  0  0  0  0  0  0  0  0  0  0  0  0
    0.9694    1.1498    2.2404 H   0  0  0  0  0  0  0  0  0  0  0  0
    0.2912    0.4389    0.7592 H   0  0  0  0  0  0  0  0  0  0  0  0
    0.4875    2.2013    0.8908 H   0  0  0  0  0  0  0  0  0  0  0  0
    2.8184    0.1626    0.8482 H   0  0  0  0  0  0  0  0  0  0  0  0
    3.0067    1.9164    0.9692 H   0  0  0  0  0  0  0  0  0  0  0  0
    1.9520    2.2107   -1.2758 H   0  0  0  0  0  0  0  0  0  0  0  0
    1.7290    0.4556   -1.4137 H   0  0  0  0  0  0  0  0  0  0  0  0
    4.0570    0.1906   -1.7504 H   0  0  0  0  0  0  0  0  0  0  0  0
    6.9409    7.7204   -0.5522 H   0  0  0  0  0  0  0  0  0  0  0  0
    6.9874    5.9336   -0.4749 H   0  0  0  0  0  0  0  0  0  0  0  0
    5.8601    6.8569    0.5778 H   0  0  0  0  0  0  0  0  0  0  0  0
    2.7933    5.4056   -2.9308 H   0  0  0  0  0  0  0  0  0  0  0  0
    3.6143    6.9893   -3.1775 H   0  0  0  0  0  0  0  0  0  0  0  0
    1.3702    6.5332   -1.2177 H   0  0  0  0  0  0  0  0  0  0  0  0
    2.5448    7.8750   -1.0989 H   0  0  0  0  0  0  0  0  0  0  0  0
    2.9273    5.0168    0.0088 H   0  0  0  0  0  0  0  0  0  0  0  0
    3.7361    6.4969    0.6151 H   0  0  0  0  0  0  0  0  0  0  0  0
    8.5419    2.0947   -2.7245 H   0  0  0  0  0  0  0  0  0  0  0  0
    8.6114    3.8721   -2.6348 H   0  0  0  0  0  0  0  0  0  0  0  0
    7.5134    2.2689   -5.0228 H   0  0  0  0  0  0  0  0  0  0  0  0
    9.1580    2.8866   -4.9021 H   0  0  0  0  0  0  0  0  0  0  0  0
    6.6298    4.6706   -4.9289 H   0  0  0  0  0  0  0  0  0  0  0  0
    7.7412    4.4090   -6.2969 H   0  0  0  0  0  0  0  0  0  0  0  0
    8.2963    5.2572   -4.8322 H   0  0  0  0  0  0  0  0  0  0  0  0
  1  2  1  0
  1 21  1  0
  1 22  1  0
  1 23  1  0
  2  3  1  0
  2 24  1  0
  2 25  1  0
  3  4  1  0
  3 26  1  0
  3 27  1  0
  4  5  1  0
  4 28  1  0
  5  6  2  0
  5 19  1  0
  6  7  1  0
  7  8  1  0
  7 14  2  0
  8  9  1  1
  8 11  1  0
  8 13  1  0
  9 10  1  0
 10 29  1  0
 10 30  1  0
 10 31  1  0
 11 12  1  0
 11 32  1  0
 11 33  1  0
 12 13  1  0
 12 34  1  0
 12 35  1  0
 13 36  1  0
 13 37  1  0
 14 15  1  0
 15 16  1  0
 15 19  2  0
 16 17  1  0
 16 38  1  0
 16 39  1  0
 17 18  1  0
 17 40  1  0
 17 41  1  0
 18 42  1  0
 18 43  1  0
 18 44  1  0
 19 20  1  0
M  END

