
     RDKit          3D

 46 47  0  0  0  0  0  0  0  0999 V2000
    0.5009   -0.4603   -0.1367 C   0  0  0  0  0  0  0  0  0  0  0  0
    2.0099   -0.2403   -0.1332 C   0  0  0  0  0  0  0  0  0  0  0  0
    2.6407   -0.9855    0.9426 N   0  0  0  0  0  0  0  0  0  0  0  0
    4.1006   -0.9932    0.9651 C   0  0  1  0  0  0  0  0  0  0  0  0
    4.6782    0.4141    1.2209 C   0  0  0  0  0  0  0  0  0  0  0  0
    4.2116    0.9299    2.4373 O   0  0  0  0  0  0  0  0  0  0  0  0
    4.9169    2.0492    2.9621 C   0  0  1  0  0  0  0  0  0  0  0  0
    4.6160    3.3436    2.1846 C   0  0  0  0  0  0  0  0  0  0  0  0
    3.1463    3.7636    2.3204 C   0  0  0  0  0  0  0  0  0  0  0  0
    2.7344    3.8955    3.7933 C   0  0  0  0  0  0  0  0  0  0  0  0
    3.0327    2.6092    4.5756 C   0  0  0  0  0  0  0  0  0  0  0  0
    4.5017    2.1889    4.4302 C   0  0  0  0  0  0  0  0  0  0  0  0
    4.6048   -1.9953    1.9977 C   0  0  0  0  0  0  0  0  0  0  0  0
    3.9426   -2.0877    3.2323 C   0  0  0  0  0  0  0  0  0  0  0  0
    4.3767   -2.9691    4.2242 C   0  0  0  0  0  0  0  0  0  0  0  0
    5.4929   -3.7746    3.9908 C   0  0  0  0  0  0  0  0  0  0  0  0
    6.1606   -3.6870    2.7678 C   0  0  0  0  0  0  0  0  0  0  0  0
    5.7394   -2.8062    1.7578 C   0  0  0  0  0  0  0  0  0  0  0  0
    6.5075   -2.7589    0.4549 C   0  0  0  0  0  0  0  0  0  0  0  0
    0.0160    0.1333   -0.9273 H   0  0  0  0  0  0  0  0  0  0  0  0
    0.0662   -0.1732    0.8335 H   0  0  0  0  0  0  0  0  0  0  0  0
    0.2519   -1.5202   -0.3178 H   0  0  0  0  0  0  0  0  0  0  0  0
    2.2130    0.8348    0.0082 H   0  0  0  0  0  0  0  0  0  0  0  0
    2.4252   -0.5000   -1.1365 H   0  0  0  0  0  0  0  0  0  0  0  0
    2.3092   -1.9492    0.9357 H   0  0  0  0  0  0  0  0  0  0  0  0
    4.5109   -1.2753   -0.0294 H   0  0  0  0  0  0  0  0  0  0  0  0
    4.4148    1.0764    0.3721 H   0  0  0  0  0  0  0  0  0  0  0  0
    5.7847    0.3348    1.2272 H   0  0  0  0  0  0  0  0  0  0  0  0
    6.0054    1.8389    2.9079 H   0  0  0  0  0  0  0  0  0  0  0  0
    4.8925    3.2264    1.1234 H   0  0  0  0  0  0  0  0  0  0  0  0
    5.2716    4.1386    2.5836 H   0  0  0  0  0  0  0  0  0  0  0  0
    2.5108    3.0033    1.8341 H   0  0  0  0  0  0  0  0  0  0  0  0
    2.9725    4.7116    1.7839 H   0  0  0  0  0  0  0  0  0  0  0  0
    1.6637    4.1505    3.8691 H   0  0  0  0  0  0  0  0  0  0  0  0
    3.2868    4.7385    4.2503 H   0  0  0  0  0  0  0  0  0  0  0  0
    2.3929    1.7947    4.1963 H   0  0  0  0  0  0  0  0  0  0  0  0
    2.7825    2.7404    5.6419 H   0  0  0  0  0  0  0  0  0  0  0  0
    4.6876    1.2320    4.9434 H   0  0  0  0  0  0  0  0  0  0  0  0
    5.1559    2.9438    4.9020 H   0  0  0  0  0  0  0  0  0  0  0  0
    3.0731   -1.4506    3.3965 H   0  0  0  0  0  0  0  0  0  0  0  0
    3.8447   -3.0236    5.1777 H   0  0  0  0  0  0  0  0  0  0  0  0
    5.8450   -4.4710    4.7565 H   0  0  0  0  0  0  0  0  0  0  0  0
    7.0338   -4.3201    2.5850 H   0  0  0  0  0  0  0  0  0  0  0  0
    7.3454   -3.4712    0.4709 H   0  0  0  0  0  0  0  0  0  0  0  0
    6.9291   -1.7600    0.2540 H   0  0  0  0  0  0  0  0  0  0  0  0
    5.8723   -3.0150   -0.4098 H   0  0  0  0  0  0  0  0  0  0  0  0
  1  2  1  0
  1 20  1  0
  1 21  1  0
  1 22  1  0
  2  3  1  0
  2 23  1  0
  2 24  1  0
  3  4  1  0
  3 25  1  0
  4  5  1  0
  4 13  1  0
  4 26  1  6
  5  6  1  0
  5 27  1  0
  5 28  1  0
  6  7  1  0
  7  8  1  0
  7 12  1  0
  7 29  1  1
  8  9  1  0
  8 30  1  0
  8 31  1  0
  9 10  1  0
  9 32  1  0
  9 33  1  0
 10 11  1  0
 10 34  1  0
 10 35  1  0
 11 12  1  0
 11 36  1  0
 11 37  1  0
 12 38  1  0
 12 39  1  0
 13 14  2  0
 13 18  1  0
 14 15  1  0
 14 40  1  0
 15 16  2  0
 15 41  1  0
 16 17  1  0
 16 42  1  0
 17 18  2  0
 17 43  1  0
 18 19  1  0
 19 44  1  0
 19 45  1  0
 19 46  1  0
M  END

