
     RDKit          3D

 34 36  0  0  0  0  0  0  0  0999 V2000
    1.2801   -0.3367    0.2519 C   0  0  0  0  0  0  0  0  0  0  0  0
    2.5882    0.1392    0.0433 O   0  0  0  0  0  0  0  0  0  0  0  0
    2.8264    1.0466   -1.0507 C   0  0  2  0  0  0  0  0  0  0  0  0
    2.5740    0.3614   -2.3949 C   0  0  0  0  0  0  0  0  0  0  0  0
    4.2937    1.4952   -0.8744 C   0  0  0  0  0  0  0  0  0  0  0  0
    4.2880    2.7288    0.0964 C   0  0  1  0  0  0  0  0  0  0  0  0
    4.3905    2.2882    1.5393 C   0  0  0  0  0  0  0  0  0  0  0  0
    5.3064    2.7616    2.4019 C   0  0  0  0  0  0  0  0  0  0  0  0
    6.3210    3.7643    2.0059 C   0  0  0  0  0  0  0  0  0  0  0  0
    7.1510    4.2021    2.7884 O   0  0  0  0  0  0  0  0  0  0  0  0
    6.2691    4.2022    0.5891 C   0  0  0  0  0  0  0  0  0  0  0  0
    5.3520    3.7288   -0.2711 C   0  0  0  0  0  0  0  0  0  0  0  0
    2.8787    3.2889   -0.1702 C   0  0  0  0  0  0  0  0  0  0  0  0
    2.3844    4.5467    0.1762 C   0  0  0  0  0  0  0  0  0  0  0  0
    1.0685    4.8761   -0.1707 C   0  0  0  0  0  0  0  0  0  0  0  0
    0.2643    3.9579   -0.8559 C   0  0  0  0  0  0  0  0  0  0  0  0
    0.7630    2.6938   -1.1954 C   0  0  0  0  0  0  0  0  0  0  0  0
    2.0732    2.3587   -0.8426 C   0  0  0  0  0  0  0  0  0  0  0  0
    1.3193   -0.9890    1.1366 H   0  0  0  0  0  0  0  0  0  0  0  0
    0.9013   -0.9365   -0.5969 H   0  0  0  0  0  0  0  0  0  0  0  0
    0.5588    0.4770    0.4536 H   0  0  0  0  0  0  0  0  0  0  0  0
    3.1907   -0.5475   -2.4744 H   0  0  0  0  0  0  0  0  0  0  0  0
    2.8276    1.0344   -3.2274 H   0  0  0  0  0  0  0  0  0  0  0  0
    1.5205    0.0679   -2.5180 H   0  0  0  0  0  0  0  0  0  0  0  0
    4.6901    1.8183   -1.8492 H   0  0  0  0  0  0  0  0  0  0  0  0
    4.9167    0.6680   -0.5072 H   0  0  0  0  0  0  0  0  0  0  0  0
    3.6613    1.5353    1.8487 H   0  0  0  0  0  0  0  0  0  0  0  0
    5.3489    2.4210    3.4399 H   0  0  0  0  0  0  0  0  0  0  0  0
    7.0239    4.9326    0.2857 H   0  0  0  0  0  0  0  0  0  0  0  0
    5.3406    4.0796   -1.3092 H   0  0  0  0  0  0  0  0  0  0  0  0
    3.0177    5.2670    0.7003 H   0  0  0  0  0  0  0  0  0  0  0  0
    0.6698    5.8606    0.0875 H   0  0  0  0  0  0  0  0  0  0  0  0
   -0.7576    4.2303   -1.1315 H   0  0  0  0  0  0  0  0  0  0  0  0
    0.1308    1.9875   -1.7396 H   0  0  0  0  0  0  0  0  0  0  0  0
  1  2  1  0
  1 19  1  0
  1 20  1  0
  1 21  1  0
  3  2  1  1
  3  4  1  0
  3  5  1  0
  3 18  1  0
  4 22  1  0
  4 23  1  0
  4 24  1  0
  5  6  1  0
  5 25  1  0
  5 26  1  0
  6  7  1  1
  6 12  1  0
  6 13  1  0
  7  8  2  0
  7 27  1  0
  8  9  1  0
  8 28  1  0
  9 10  2  0
  9 11  1  0
 11 12  2  0
 11 29  1  0
 12 30  1  0
 13 14  2  0
 13 18  1  0
 14 15  1  0
 14 31  1  0
 15 16  2  0
 15 32  1  0
 16 17  1  0
 16 33  1  0
 17 18  2  0
 17 34  1  0
M  END

