
     RDKit          3D

 34 35  0  0  0  0  0  0  0  0999 V2000
    1.7791   -0.6479   -0.6113 C   0  0  0  0  0  0  0  0  0  0  0  0
    2.2439    0.3387    0.2742 O   0  0  0  0  0  0  0  0  0  0  0  0
    3.0069   -0.0364    1.3438 C   0  0  0  0  0  0  0  0  0  0  0  0
    3.4462    0.9864    2.1910 C   0  0  0  0  0  0  0  0  0  0  0  0
    4.2342    0.6925    3.3027 C   0  0  0  0  0  0  0  0  0  0  0  0
    4.5969   -0.6318    3.6162 C   0  0  0  0  0  0  0  0  0  0  0  0
    5.3394   -0.9749    4.7553 N   0  0  0  0  0  0  0  0  0  0  0  0
    5.9848    0.0417    5.5596 C   0  0  0  0  0  0  0  0  0  0  0  0
    6.4579   -0.5140    6.8874 C   0  0  0  0  0  0  0  0  0  0  0  0
    5.8313   -0.1856    8.1287 C   0  0  0  0  0  0  0  0  0  0  0  0
    6.4244   -0.7690    9.2200 C   0  0  0  0  0  0  0  0  0  0  0  0
    7.7639   -1.7507    8.7672 S   0  0  0  0  0  0  0  0  0  0  0  0
    7.5427   -1.3592    7.0761 C   0  0  0  0  0  0  0  0  0  0  0  0
    8.4305   -1.9207    6.0302 C   0  0  0  0  0  0  0  0  0  0  0  0
    8.0961   -2.0470    4.8760 O   0  0  0  0  0  0  0  0  0  0  0  0
    9.6647   -2.3054    6.4190 O   0  0  0  0  0  0  0  0  0  0  0  0
    4.1544   -1.6703    2.7578 C   0  0  0  0  0  0  0  0  0  0  0  0
    4.5211   -3.1008    3.0620 C   0  0  0  0  0  0  0  0  0  0  0  0
    3.3727   -1.3582    1.6375 C   0  0  0  0  0  0  0  0  0  0  0  0
    1.1960   -0.1294   -1.3853 H   0  0  0  0  0  0  0  0  0  0  0  0
    1.1241   -1.3846   -0.1088 H   0  0  0  0  0  0  0  0  0  0  0  0
    2.6079   -1.1946   -1.0993 H   0  0  0  0  0  0  0  0  0  0  0  0
    3.1686    2.0163    1.9570 H   0  0  0  0  0  0  0  0  0  0  0  0
    4.5727    1.5200    3.9276 H   0  0  0  0  0  0  0  0  0  0  0  0
    5.9726   -1.7565    4.6021 H   0  0  0  0  0  0  0  0  0  0  0  0
    5.2592    0.8381    5.7802 H   0  0  0  0  0  0  0  0  0  0  0  0
    6.8365    0.5265    5.0363 H   0  0  0  0  0  0  0  0  0  0  0  0
    4.9585    0.4655    8.2011 H   0  0  0  0  0  0  0  0  0  0  0  0
    6.1306   -0.6953   10.2664 H   0  0  0  0  0  0  0  0  0  0  0  0
    9.8541   -2.0136    7.3234 H   0  0  0  0  0  0  0  0  0  0  0  0
    5.6123   -3.2679    3.0062 H   0  0  0  0  0  0  0  0  0  0  0  0
    4.0456   -3.7961    2.3553 H   0  0  0  0  0  0  0  0  0  0  0  0
    4.2121   -3.3818    4.0838 H   0  0  0  0  0  0  0  0  0  0  0  0
    3.0477   -2.1785    0.9958 H   0  0  0  0  0  0  0  0  0  0  0  0
  1  2  1  0
  1 20  1  0
  1 21  1  0
  1 22  1  0
  2  3  1  0
  3  4  2  0
  3 19  1  0
  4  5  1  0
  4 23  1  0
  5  6  2  0
  5 24  1  0
  6  7  1  0
  6 17  1  0
  7  8  1  0
  7 25  1  0
  8  9  1  0
  8 26  1  0
  8 27  1  0
  9 10  2  0
  9 13  1  0
 10 11  1  0
 10 28  1  0
 11 12  2  0
 11 29  1  0
 12 13  1  0
 13 14  2  0
 14 15  1  0
 14 16  1  0
 16 30  1  0
 17 18  1  0
 17 19  2  0
 18 31  1  0
 18 32  1  0
 18 33  1  0
 19 34  1  0
M  CHG  2  12   1  15  -1
M  END

