
     RDKit          3D

 48 49  0  0  0  0  0  0  0  0999 V2000
    1.4090    0.7199   -0.4019 C   0  0  0  0  0  0  0  0  0  0  0  0
    1.9656   -0.2577    0.4475 O   0  0  0  0  0  0  0  0  0  0  0  0
    2.8751    0.1199    1.3991 C   0  0  0  0  0  0  0  0  0  0  0  0
    3.1887    1.4402    1.7351 C   0  0  0  0  0  0  0  0  0  0  0  0
    4.1180    1.7203    2.7404 C   0  0  0  0  0  0  0  0  0  0  0  0
    4.7614    0.6914    3.4560 C   0  0  0  0  0  0  0  0  0  0  0  0
    5.6308    1.0068    4.4931 N   0  0  0  0  0  0  0  0  0  0  0  0
    6.6054    0.0878    5.0701 C   0  0  1  0  0  0  0  0  0  0  0  0
    7.7753   -0.1805    4.1076 C   0  0  0  0  0  0  0  0  0  0  0  0
    7.0572    0.6509    6.4456 C   0  0  1  0  0  0  0  0  0  0  0  0
    5.8789    0.8326    7.4291 C   0  0  0  0  0  0  0  0  0  0  0  0
    5.3587   -0.4970    7.9961 C   0  0  0  0  0  0  0  0  0  0  0  0
    6.4808   -1.3197    8.6429 C   0  0  0  0  0  0  0  0  0  0  0  0
    7.6609   -1.5186    7.6822 C   0  0  0  0  0  0  0  0  0  0  0  0
    8.1654   -0.1762    7.1326 C   0  0  0  0  0  0  0  0  0  0  0  0
    4.4503   -0.6386    3.0984 C   0  0  0  0  0  0  0  0  0  0  0  0
    3.5272   -0.9224    2.0925 C   0  0  0  0  0  0  0  0  0  0  0  0
    3.2108   -2.2237    1.8119 O   0  0  0  0  0  0  0  0  0  0  0  0
    3.7930   -2.8277    0.6493 C   0  0  0  0  0  0  0  0  0  0  0  0
    2.7365   -3.6984   -0.0071 C   0  0  0  0  0  0  0  0  0  0  0  0
    1.6883   -2.9466   -0.5602 O   0  0  0  0  0  0  0  0  0  0  0  0
    0.8006    0.1802   -1.1401 H   0  0  0  0  0  0  0  0  0  0  0  0
    2.1916    1.2928   -0.9314 H   0  0  0  0  0  0  0  0  0  0  0  0
    0.7636    1.4264    0.1511 H   0  0  0  0  0  0  0  0  0  0  0  0
    2.7050    2.2714    1.2204 H   0  0  0  0  0  0  0  0  0  0  0  0
    4.3369    2.7633    2.9862 H   0  0  0  0  0  0  0  0  0  0  0  0
    5.9183    1.9798    4.5109 H   0  0  0  0  0  0  0  0  0  0  0  0
    6.0822   -0.8658    5.2451 H   0  0  0  0  0  0  0  0  0  0  0  0
    8.4020    0.7205    3.9923 H   0  0  0  0  0  0  0  0  0  0  0  0
    7.3935   -0.4552    3.1126 H   0  0  0  0  0  0  0  0  0  0  0  0
    8.4212   -1.0018    4.4530 H   0  0  0  0  0  0  0  0  0  0  0  0
    7.4809    1.6527    6.2346 H   0  0  0  0  0  0  0  0  0  0  0  0
    5.0614    1.3804    6.9371 H   0  0  0  0  0  0  0  0  0  0  0  0
    6.2266    1.4637    8.2669 H   0  0  0  0  0  0  0  0  0  0  0  0
    4.8863   -1.0882    7.1911 H   0  0  0  0  0  0  0  0  0  0  0  0
    4.5590   -0.2994    8.7297 H   0  0  0  0  0  0  0  0  0  0  0  0
    6.0955   -2.2942    8.9874 H   0  0  0  0  0  0  0  0  0  0  0  0
    6.8406   -0.7921    9.5461 H   0  0  0  0  0  0  0  0  0  0  0  0
    7.3513   -2.1762    6.8494 H   0  0  0  0  0  0  0  0  0  0  0  0
    8.4846   -2.0456    8.1929 H   0  0  0  0  0  0  0  0  0  0  0  0
    9.0213   -0.3306    6.4576 H   0  0  0  0  0  0  0  0  0  0  0  0
    8.5541    0.4221    7.9762 H   0  0  0  0  0  0  0  0  0  0  0  0
    4.9057   -1.4902    3.6032 H   0  0  0  0  0  0  0  0  0  0  0  0
    4.6683   -3.4338    0.9509 H   0  0  0  0  0  0  0  0  0  0  0  0
    4.1334   -2.0502   -0.0557 H   0  0  0  0  0  0  0  0  0  0  0  0
    2.3739   -4.4260    0.7502 H   0  0  0  0  0  0  0  0  0  0  0  0
    3.2076   -4.2832   -0.8171 H   0  0  0  0  0  0  0  0  0  0  0  0
    1.5288   -2.1992    0.0400 H   0  0  0  0  0  0  0  0  0  0  0  0
  1  2  1  0
  1 22  1  0
  1 23  1  0
  1 24  1  0
  2  3  1  0
  3  4  2  0
  3 17  1  0
  4  5  1  0
  4 25  1  0
  5  6  2  0
  5 26  1  0
  6  7  1  0
  6 16  1  0
  7  8  1  0
  7 27  1  0
  8  9  1  0
  8 10  1  0
  8 28  1  1
  9 29  1  0
  9 30  1  0
  9 31  1  0
 10 11  1  0
 10 15  1  0
 10 32  1  6
 11 12  1  0
 11 33  1  0
 11 34  1  0
 12 13  1  0
 12 35  1  0
 12 36  1  0
 13 14  1  0
 13 37  1  0
 13 38  1  0
 14 15  1  0
 14 39  1  0
 14 40  1  0
 15 41  1  0
 15 42  1  0
 16 17  2  0
 16 43  1  0
 17 18  1  0
 18 19  1  0
 19 20  1  0
 19 44  1  0
 19 45  1  0
 20 21  1  0
 20 46  1  0
 20 47  1  0
 21 48  1  0
M  END

