
     RDKit          3D

 44 43  0  0  0  0  0  0  0  0999 V2000
    1.5403    0.5013   -0.3178 C   0  0  0  0  0  0  0  0  0  0  0  0
    2.6037   -0.5671   -0.0565 C   0  0  0  0  0  0  0  0  0  0  0  0
    3.4882   -0.8472   -1.2764 C   0  0  0  0  0  0  0  0  0  0  0  0
    4.6436   -1.8408   -1.0466 C   0  0  1  0  0  0  0  0  0  0  0  0
    4.1494   -3.2401   -0.6519 C   0  0  0  0  0  0  0  0  0  0  0  0
    5.5410   -1.9020   -2.2911 C   0  0  0  0  0  0  0  0  0  0  0  0
    6.9226   -2.4910   -2.0634 C   0  0  0  0  0  0  0  0  0  0  0  0
    7.2930   -2.8865   -0.9768 O   0  0  0  0  0  0  0  0  0  0  0  0
    7.8890   -2.5625   -3.2651 C   0  0  1  0  0  0  0  0  0  0  0  0
    7.1863   -2.4094   -4.4867 O   0  0  0  0  0  0  0  0  0  0  0  0
    7.1541   -3.5264   -5.3598 C   0  0  0  0  0  0  0  0  0  0  0  0
    6.1440   -4.5978   -4.9630 C   0  0  0  0  0  0  0  0  0  0  0  0
    9.0544   -1.5117   -3.1837 C   0  0  1  0  0  0  0  0  0  0  0  0
    9.9360   -1.7757   -1.9500 C   0  0  0  0  0  0  0  0  0  0  0  0
    9.9189   -1.6630   -4.4503 C   0  0  0  0  0  0  0  0  0  0  0  0
    8.4861   -0.0815   -3.1307 C   0  0  0  0  0  0  0  0  0  0  0  0
    0.9191    0.6815    0.5741 H   0  0  0  0  0  0  0  0  0  0  0  0
    0.8654    0.2029   -1.1378 H   0  0  0  0  0  0  0  0  0  0  0  0
    1.9982    1.4633   -0.6041 H   0  0  0  0  0  0  0  0  0  0  0  0
    2.1082   -1.4967    0.2717 H   0  0  0  0  0  0  0  0  0  0  0  0
    3.2436   -0.2525    0.7883 H   0  0  0  0  0  0  0  0  0  0  0  0
    3.9140    0.1119   -1.6252 H   0  0  0  0  0  0  0  0  0  0  0  0
    2.8561   -1.2117   -2.1094 H   0  0  0  0  0  0  0  0  0  0  0  0
    5.2629   -1.4589   -0.2150 H   0  0  0  0  0  0  0  0  0  0  0  0
    3.4935   -3.6605   -1.4349 H   0  0  0  0  0  0  0  0  0  0  0  0
    3.5759   -3.2208    0.2873 H   0  0  0  0  0  0  0  0  0  0  0  0
    4.9960   -3.9254   -0.5041 H   0  0  0  0  0  0  0  0  0  0  0  0
    5.6950   -0.8970   -2.7236 H   0  0  0  0  0  0  0  0  0  0  0  0
    5.0576   -2.4638   -3.1085 H   0  0  0  0  0  0  0  0  0  0  0  0
    8.3560   -3.5634   -3.2070 H   0  0  0  0  0  0  0  0  0  0  0  0
    8.1645   -3.9712   -5.4451 H   0  0  0  0  0  0  0  0  0  0  0  0
    6.8989   -3.1197   -6.3520 H   0  0  0  0  0  0  0  0  0  0  0  0
    6.3690   -5.0266   -3.9730 H   0  0  0  0  0  0  0  0  0  0  0  0
    6.1618   -5.4230   -5.6937 H   0  0  0  0  0  0  0  0  0  0  0  0
    5.1217   -4.1891   -4.9369 H   0  0  0  0  0  0  0  0  0  0  0  0
   10.3680   -2.7895   -1.9764 H   0  0  0  0  0  0  0  0  0  0  0  0
    9.3781   -1.6815   -1.0090 H   0  0  0  0  0  0  0  0  0  0  0  0
   10.7714   -1.0566   -1.9316 H   0  0  0  0  0  0  0  0  0  0  0  0
   10.3377   -2.6799   -4.5316 H   0  0  0  0  0  0  0  0  0  0  0  0
   10.7655   -0.9586   -4.4159 H   0  0  0  0  0  0  0  0  0  0  0  0
    9.3388   -1.4542   -5.3605 H   0  0  0  0  0  0  0  0  0  0  0  0
    7.9423    0.1084   -2.1912 H   0  0  0  0  0  0  0  0  0  0  0  0
    7.8022    0.1020   -3.9737 H   0  0  0  0  0  0  0  0  0  0  0  0
    9.3022    0.6565   -3.1889 H   0  0  0  0  0  0  0  0  0  0  0  0
  1  2  1  0
  1 17  1  0
  1 18  1  0
  1 19  1  0
  2  3  1  0
  2 20  1  0
  2 21  1  0
  3  4  1  0
  3 22  1  0
  3 23  1  0
  4  5  1  0
  4  6  1  0
  4 24  1  1
  5 25  1  0
  5 26  1  0
  5 27  1  0
  6  7  1  0
  6 28  1  0
  6 29  1  0
  7  8  2  0
  7  9  1  0
  9 10  1  0
  9 13  1  0
  9 30  1  6
 10 11  1  0
 11 12  1  0
 11 31  1  0
 11 32  1  0
 12 33  1  0
 12 34  1  0
 12 35  1  0
 13 14  1  1
 13 15  1  0
 13 16  1  0
 14 36  1  0
 14 37  1  0
 14 38  1  0
 15 39  1  0
 15 40  1  0
 15 41  1  0
 16 42  1  0
 16 43  1  0
 16 44  1  0
M  END

