
     RDKit          3D

 37 39  0  0  0  0  0  0  0  0999 V2000
    0.2751   -0.2512   -1.4736 C   0  0  0  0  0  0  0  0  0  0  0  0
    1.6239   -0.3389   -0.7591 C   0  0  1  0  0  0  0  0  0  0  0  0
    2.2333   -1.6140   -0.9586 O   0  0  0  0  0  0  0  0  0  0  0  0
    1.8923   -2.6817   -0.1871 C   0  0  0  0  0  0  0  0  0  0  0  0
    2.5232   -3.8942   -0.5143 C   0  0  0  0  0  0  0  0  0  0  0  0
    2.2613   -5.0474    0.2198 C   0  0  0  0  0  0  0  0  0  0  0  0
    1.3603   -5.0032    1.2863 C   0  0  0  0  0  0  0  0  0  0  0  0
    1.0576   -6.1963    1.9348 O   0  0  0  0  0  0  0  0  0  0  0  0
    1.3582   -6.3827    3.2369 C   0  0  0  0  0  0  0  0  0  0  0  0
    2.0135   -5.4623    3.9180 N   0  0  0  0  0  0  0  0  0  0  0  0
    2.3157   -5.6643    5.2019 C   0  0  0  0  0  0  0  0  0  0  0  0
    1.9590   -6.8364    5.8680 C   0  0  0  0  0  0  0  0  0  0  0  0
    2.3704   -7.0644    7.5468 Cl  0  0  0  0  0  0  0  0  0  0  0  0
    1.2626   -7.8287    5.1653 C   0  0  0  0  0  0  0  0  0  0  0  0
    0.9535   -7.6045    3.8293 C   0  0  0  0  0  0  0  0  0  0  0  0
    0.0919   -8.7956    2.9035 Cl  0  0  0  0  0  0  0  0  0  0  0  0
    0.7214   -3.8104    1.6162 C   0  0  0  0  0  0  0  0  0  0  0  0
    0.9848   -2.6485    0.8840 C   0  0  0  0  0  0  0  0  0  0  0  0
    2.6032    0.6827   -1.2760 C   0  0  0  0  0  0  0  0  0  0  0  0
    3.1454    1.5945   -0.5761 N   0  0  0  0  0  0  0  0  0  0  0  0
    3.9888    2.3733   -1.4874 C   0  0  0  0  0  0  0  0  0  0  0  0
    3.8548    1.6560   -2.8579 C   0  0  0  0  0  0  0  0  0  0  0  0
    2.8882    0.6172   -2.6007 O   0  0  0  0  0  0  0  0  0  0  0  0
   -0.4228   -1.0056   -1.0825 H   0  0  0  0  0  0  0  0  0  0  0  0
    0.4128   -0.4226   -2.5508 H   0  0  0  0  0  0  0  0  0  0  0  0
   -0.1720    0.7442   -1.3264 H   0  0  0  0  0  0  0  0  0  0  0  0
    1.5206   -0.1264    0.3160 H   0  0  0  0  0  0  0  0  0  0  0  0
    3.2223   -3.9048   -1.3525 H   0  0  0  0  0  0  0  0  0  0  0  0
    2.7463   -5.9932   -0.0295 H   0  0  0  0  0  0  0  0  0  0  0  0
    2.8609   -4.8723    5.7248 H   0  0  0  0  0  0  0  0  0  0  0  0
    0.9660   -8.7592    5.6503 H   0  0  0  0  0  0  0  0  0  0  0  0
    0.0137   -3.7828    2.4462 H   0  0  0  0  0  0  0  0  0  0  0  0
    0.4718   -1.7279    1.1618 H   0  0  0  0  0  0  0  0  0  0  0  0
    5.0274    2.3926   -1.1187 H   0  0  0  0  0  0  0  0  0  0  0  0
    3.6406    3.4199   -1.5177 H   0  0  0  0  0  0  0  0  0  0  0  0
    4.7897    1.1837   -3.1991 H   0  0  0  0  0  0  0  0  0  0  0  0
    3.4701    2.2991   -3.6640 H   0  0  0  0  0  0  0  0  0  0  0  0
  1  2  1  0
  1 24  1  0
  1 25  1  0
  1 26  1  0
  2  3  1  0
  2 19  1  0
  2 27  1  1
  3  4  1  0
  4  5  2  0
  4 18  1  0
  5  6  1  0
  5 28  1  0
  6  7  2  0
  6 29  1  0
  7  8  1  0
  7 17  1  0
  8  9  1  0
  9 10  2  0
  9 15  1  0
 10 11  1  0
 11 12  2  0
 11 30  1  0
 12 13  1  0
 12 14  1  0
 14 15  2  0
 14 31  1  0
 15 16  1  0
 17 18  2  0
 17 32  1  0
 18 33  1  0
 19 20  2  0
 19 23  1  0
 20 21  1  0
 21 22  1  0
 21 34  1  0
 21 35  1  0
 22 23  1  0
 22 36  1  0
 22 37  1  0
M  END

