
     RDKit          3D

 28 29  0  0  0  0  0  0  0  0999 V2000
    1.0887   -0.1183    0.1550 C   0  0  0  0  0  0  0  0  0  0  0  0
    2.5815   -0.0014   -0.0216 C   0  0  0  0  0  0  0  0  0  0  0  0
    3.2011    1.2507    0.0169 C   0  0  0  0  0  0  0  0  0  0  0  0
    4.5827    1.3881   -0.1481 C   0  0  0  0  0  0  0  0  0  0  0  0
    5.2325    3.0185    0.0034 Cl  0  0  0  0  0  0  0  0  0  0  0  0
    5.4050    0.2698   -0.3686 C   0  0  0  0  0  0  0  0  0  0  0  0
    6.8813    0.3037   -0.5599 C   0  0  0  0  0  0  0  0  0  0  0  0
    7.5594    1.3019   -1.2981 C   0  0  0  0  0  0  0  0  0  0  0  0
    8.9266    1.2024   -1.4355 C   0  0  0  0  0  0  0  0  0  0  0  0
    9.5636    0.0955   -0.8285 C   0  0  0  0  0  0  0  0  0  0  0  0
   10.9220   -0.0755   -0.8475 N   0  0  0  0  0  0  0  0  0  0  0  0
    8.8600   -0.8448   -0.1759 N   0  0  0  0  0  0  0  0  0  0  0  0
    7.5546   -0.7336   -0.0466 N   0  0  0  0  0  0  0  0  0  0  0  0
    4.7622   -0.9847   -0.3844 C   0  0  0  0  0  0  0  0  0  0  0  0
    3.3861   -1.1485   -0.2204 C   0  0  0  0  0  0  0  0  0  0  0  0
    2.7721   -2.5261   -0.2573 C   0  0  0  0  0  0  0  0  0  0  0  0
    0.6218    0.8669    0.2975 H   0  0  0  0  0  0  0  0  0  0  0  0
    0.8324   -0.7426    1.0278 H   0  0  0  0  0  0  0  0  0  0  0  0
    0.6135   -0.5934   -0.7201 H   0  0  0  0  0  0  0  0  0  0  0  0
    2.6054    2.1490    0.1905 H   0  0  0  0  0  0  0  0  0  0  0  0
    7.0126    2.1246   -1.7571 H   0  0  0  0  0  0  0  0  0  0  0  0
    9.4989    1.9442   -1.9985 H   0  0  0  0  0  0  0  0  0  0  0  0
   11.4703    0.3988   -1.5522 H   0  0  0  0  0  0  0  0  0  0  0  0
   11.2522   -0.9853   -0.5448 H   0  0  0  0  0  0  0  0  0  0  0  0
    5.3962   -1.8615   -0.5277 H   0  0  0  0  0  0  0  0  0  0  0  0
    3.5372   -3.2996   -0.4144 H   0  0  0  0  0  0  0  0  0  0  0  0
    2.0272   -2.6188   -1.0662 H   0  0  0  0  0  0  0  0  0  0  0  0
    2.2450   -2.7611    0.6831 H   0  0  0  0  0  0  0  0  0  0  0  0
  1  2  1  0
  1 17  1  0
  1 18  1  0
  1 19  1  0
  2  3  2  0
  2 15  1  0
  3  4  1  0
  3 20  1  0
  4  5  1  0
  4  6  2  0
  6  7  1  0
  6 14  1  0
  7  8  2  0
  7 13  1  0
  8  9  1  0
  8 21  1  0
  9 10  2  0
  9 22  1  0
 10 11  1  0
 10 12  1  0
 11 23  1  0
 11 24  1  0
 12 13  2  0
 14 15  2  0
 14 25  1  0
 15 16  1  0
 16 26  1  0
 16 27  1  0
 16 28  1  0
M  END

