
     RDKit          3D

 49 51  0  0  0  0  0  0  0  0999 V2000
    0.4241   -1.8866    1.2109 C   0  0  0  0  0  0  0  0  0  0  0  0
    1.9347   -2.1251    1.2538 C   0  0  0  0  0  0  0  0  0  0  0  0
    2.7526   -0.9181    0.7813 C   0  0  0  0  0  0  0  0  0  0  0  0
    4.2855   -1.0933    0.8838 C   0  0  1  0  0  0  0  0  0  0  0  0
    4.8618   -2.0674   -0.1579 C   0  0  0  0  0  0  0  0  0  0  0  0
    4.8784   -1.4751   -1.4929 N   0  0  0  0  0  0  0  0  0  0  0  0
    5.1246   -2.4239   -2.5643 C   0  0  0  0  0  0  0  0  0  0  0  0
    4.5465   -1.9855   -3.9182 C   0  0  2  0  0  0  0  0  0  0  0  0
    2.9996   -1.8870   -3.9328 C   0  0  0  0  0  0  0  0  0  0  0  0
    2.6122   -3.1277   -4.7029 C   0  0  0  0  0  0  0  0  0  0  0  0
    1.3820   -3.7181   -4.9666 C   0  0  0  0  0  0  0  0  0  0  0  0
    1.3091   -4.8775   -5.7671 C   0  0  0  0  0  0  0  0  0  0  0  0
   -0.0263   -5.5255   -6.0505 C   0  0  0  0  0  0  0  0  0  0  0  0
    2.5012   -5.4068   -6.2855 C   0  0  0  0  0  0  0  0  0  0  0  0
    3.7521   -4.8263   -6.0285 C   0  0  0  0  0  0  0  0  0  0  0  0
    3.7831   -3.6863   -5.2317 C   0  0  0  0  0  0  0  0  0  0  0  0
    4.9070   -2.9991   -4.8910 O   0  0  0  0  0  0  0  0  0  0  0  0
    5.6461   -0.2168   -1.5578 C   0  0  2  0  0  0  0  0  0  0  0  0
    7.1665   -0.3620   -1.3565 C   0  0  0  0  0  0  0  0  0  0  0  0
    5.0326    0.7566   -0.5402 C   0  0  0  0  0  0  0  0  0  0  0  0
    5.0469    0.1543    0.7861 N   0  0  0  0  0  0  0  0  0  0  0  0
   -0.1359   -2.7705    1.5560 H   0  0  0  0  0  0  0  0  0  0  0  0
    0.0840   -1.6558    0.1875 H   0  0  0  0  0  0  0  0  0  0  0  0
    0.1339   -1.0373    1.8522 H   0  0  0  0  0  0  0  0  0  0  0  0
    2.1773   -3.0080    0.6364 H   0  0  0  0  0  0  0  0  0  0  0  0
    2.2361   -2.3887    2.2845 H   0  0  0  0  0  0  0  0  0  0  0  0
    2.4723   -0.0410    1.3945 H   0  0  0  0  0  0  0  0  0  0  0  0
    2.4758   -0.6708   -0.2573 H   0  0  0  0  0  0  0  0  0  0  0  0
    4.5039   -1.5244    1.8780 H   0  0  0  0  0  0  0  0  0  0  0  0
    4.2455   -2.9787   -0.1932 H   0  0  0  0  0  0  0  0  0  0  0  0
    5.8726   -2.3827    0.1785 H   0  0  0  0  0  0  0  0  0  0  0  0
    4.6380   -3.3764   -2.2967 H   0  0  0  0  0  0  0  0  0  0  0  0
    6.1988   -2.6605   -2.7167 H   0  0  0  0  0  0  0  0  0  0  0  0
    5.0214   -1.0520   -4.2547 H   0  0  0  0  0  0  0  0  0  0  0  0
    2.6526   -0.9728   -4.4442 H   0  0  0  0  0  0  0  0  0  0  0  0
    2.6030   -1.8522   -2.9064 H   0  0  0  0  0  0  0  0  0  0  0  0
    0.4643   -3.2838   -4.5573 H   0  0  0  0  0  0  0  0  0  0  0  0
   -0.5115   -5.8775   -5.1238 H   0  0  0  0  0  0  0  0  0  0  0  0
    0.0800   -6.3931   -6.7187 H   0  0  0  0  0  0  0  0  0  0  0  0
   -0.7264   -4.8199   -6.5293 H   0  0  0  0  0  0  0  0  0  0  0  0
    2.4558   -6.3045   -6.9090 H   0  0  0  0  0  0  0  0  0  0  0  0
    4.6730   -5.2491   -6.4341 H   0  0  0  0  0  0  0  0  0  0  0  0
    5.4742    0.2157   -2.5574 H   0  0  0  0  0  0  0  0  0  0  0  0
    7.4065   -0.6216   -0.3156 H   0  0  0  0  0  0  0  0  0  0  0  0
    7.6673    0.5925   -1.5848 H   0  0  0  0  0  0  0  0  0  0  0  0
    7.6001   -1.1261   -2.0201 H   0  0  0  0  0  0  0  0  0  0  0  0
    4.0173    1.0344   -0.8945 H   0  0  0  0  0  0  0  0  0  0  0  0
    5.6310    1.6820   -0.5130 H   0  0  0  0  0  0  0  0  0  0  0  0
    4.7436    0.8202    1.4933 H   0  0  0  0  0  0  0  0  0  0  0  0
  1  2  1  0
  1 22  1  0
  1 23  1  0
  1 24  1  0
  2  3  1  0
  2 25  1  0
  2 26  1  0
  3  4  1  0
  3 27  1  0
  3 28  1  0
  4  5  1  0
  4 21  1  0
  4 29  1  1
  5  6  1  0
  5 30  1  0
  5 31  1  0
  6  7  1  0
  6 18  1  0
  7  8  1  0
  7 32  1  0
  7 33  1  0
  8  9  1  0
  8 17  1  0
  8 34  1  6
  9 10  1  0
  9 35  1  0
  9 36  1  0
 10 11  1  0
 10 16  2  0
 11 12  2  0
 11 37  1  0
 12 13  1  0
 12 14  1  0
 13 38  1  0
 13 39  1  0
 13 40  1  0
 14 15  2  0
 14 41  1  0
 15 16  1  0
 15 42  1  0
 16 17  1  0
 18 19  1  0
 18 20  1  0
 18 43  1  6
 19 44  1  0
 19 45  1  0
 19 46  1  0
 20 21  1  0
 20 47  1  0
 20 48  1  0
 21 49  1  0
M  END

