
     RDKit          3D

 30 30  0  0  0  0  0  0  0  0999 V2000
    4.2961    2.5797    0.1251 C   0  0  0  0  0  0  0  0  0  0  0  0
    4.9702    1.2363    0.4064 C   0  0  0  0  0  0  0  0  0  0  0  0
    5.2418    0.4599   -0.7946 N   0  0  0  0  0  0  0  0  0  0  0  0
    4.4021   -0.5233   -1.2386 C   0  0  0  0  0  0  0  0  0  0  0  0
    3.3934   -0.8667   -0.6488 O   0  0  0  0  0  0  0  0  0  0  0  0
    4.7900   -1.1593   -2.5859 C   0  0  1  0  0  0  0  0  0  0  0  0
    4.1426   -0.3304   -3.7115 C   0  0  0  0  0  0  0  0  0  0  0  0
    6.2403   -1.2463   -2.7114 N   0  0  0  0  0  0  0  0  0  0  0  0
    6.8941   -2.0402   -3.6421 C   0  0  0  0  0  0  0  0  0  0  0  0
    6.2062   -2.8058   -4.6109 C   0  0  0  0  0  0  0  0  0  0  0  0
    6.8888   -3.5781   -5.5505 C   0  0  0  0  0  0  0  0  0  0  0  0
    8.2834   -3.6321   -5.5540 C   0  0  0  0  0  0  0  0  0  0  0  0
    8.9919   -2.9015   -4.5952 C   0  0  0  0  0  0  0  0  0  0  0  0
    8.3098   -2.1208   -3.6636 C   0  0  0  0  0  0  0  0  0  0  0  0
    9.4628   -1.0289   -2.2317 I   0  0  0  0  0  0  0  0  0  0  0  0
    4.1259    3.1298    1.0646 H   0  0  0  0  0  0  0  0  0  0  0  0
    3.3215    2.4316   -0.3652 H   0  0  0  0  0  0  0  0  0  0  0  0
    4.9176    3.2148   -0.5280 H   0  0  0  0  0  0  0  0  0  0  0  0
    4.3226    0.6143    1.0404 H   0  0  0  0  0  0  0  0  0  0  0  0
    5.9197    1.3887    0.9467 H   0  0  0  0  0  0  0  0  0  0  0  0
    5.9864    0.7667   -1.4125 H   0  0  0  0  0  0  0  0  0  0  0  0
    4.3225   -2.1607   -2.5620 H   0  0  0  0  0  0  0  0  0  0  0  0
    4.5249    0.7020   -3.6981 H   0  0  0  0  0  0  0  0  0  0  0  0
    3.0520   -0.3047   -3.5695 H   0  0  0  0  0  0  0  0  0  0  0  0
    4.3535   -0.7539   -4.7032 H   0  0  0  0  0  0  0  0  0  0  0  0
    6.7471   -1.1609   -1.8347 H   0  0  0  0  0  0  0  0  0  0  0  0
    5.1166   -2.8054   -4.6174 H   0  0  0  0  0  0  0  0  0  0  0  0
    6.3152   -4.1524   -6.2826 H   0  0  0  0  0  0  0  0  0  0  0  0
    8.8215   -4.2362   -6.2875 H   0  0  0  0  0  0  0  0  0  0  0  0
   10.0827   -2.9367   -4.5761 H   0  0  0  0  0  0  0  0  0  0  0  0
  1  2  1  0
  1 16  1  0
  1 17  1  0
  1 18  1  0
  2  3  1  0
  2 19  1  0
  2 20  1  0
  3  4  1  0
  3 21  1  0
  4  5  2  0
  4  6  1  0
  6  7  1  0
  6  8  1  0
  6 22  1  1
  7 23  1  0
  7 24  1  0
  7 25  1  0
  8  9  1  0
  8 26  1  0
  9 10  2  0
  9 14  1  0
 10 11  1  0
 10 27  1  0
 11 12  2  0
 11 28  1  0
 12 13  1  0
 12 29  1  0
 13 14  2  0
 13 30  1  0
 14 15  1  0
M  END

