
     RDKit          3D

 58 61  0  0  0  0  0  0  0  0999 V2000
    2.1095    0.0820   -0.4490 O   0  0  0  0  0  0  0  0  0  0  0  0
    3.2937   -0.2140   -0.3722 C   0  0  0  0  0  0  0  0  0  0  0  0
    3.8832   -1.1808   -1.1245 N   0  0  0  0  0  0  0  0  0  0  0  0
    3.1467   -1.9882   -2.0775 C   0  0  0  0  0  0  0  0  0  0  0  0
    3.4367   -1.6602   -3.5775 C   0  0  1  0  0  0  0  0  0  0  0  0
    4.9270   -1.9461   -3.8428 C   0  0  0  0  0  0  0  0  0  0  0  0
    5.3900   -3.2719   -3.9460 C   0  0  0  0  0  0  0  0  0  0  0  0
    6.7418   -3.5609   -4.1440 C   0  0  0  0  0  0  0  0  0  0  0  0
    7.6762   -2.5261   -4.2420 C   0  0  0  0  0  0  0  0  0  0  0  0
    7.2388   -1.2053   -4.1372 C   0  0  0  0  0  0  0  0  0  0  0  0
    5.8829   -0.9208   -3.9412 C   0  0  0  0  0  0  0  0  0  0  0  0
    2.5404   -2.5714   -4.4649 C   0  0  0  0  0  0  0  0  0  0  0  0
    1.0638   -2.1622   -4.4639 C   0  0  0  0  0  0  0  0  0  0  0  0
    0.8853   -0.8106   -4.8172 O   0  0  0  0  0  0  0  0  0  0  0  0
    1.5533    0.0589   -3.9213 C   0  0  0  0  0  0  0  0  0  0  0  0
    3.0622   -0.1932   -3.9070 C   0  0  0  0  0  0  0  0  0  0  0  0
    4.2522    0.4951    0.6138 C   0  0  1  0  0  0  0  0  0  0  0  0
    3.6317    1.7496    1.2564 C   0  0  0  0  0  0  0  0  0  0  0  0
    4.1156    1.7250    2.7114 C   0  0  0  0  0  0  0  0  0  0  0  0
    4.1232    0.2292    3.0302 C   0  0  0  0  0  0  0  0  0  0  0  0
    4.5720   -0.4044    1.7683 N   0  0  0  0  0  0  0  0  0  0  0  0
    6.1086   -1.1009    1.7770 S   0  0  1  0  0  0  0  0  0  0  0  0
    6.4424   -1.3344    0.3616 O   0  0  0  0  0  0  0  0  0  0  0  0
    7.0498   -0.3580    2.6243 O   0  0  0  0  0  0  0  0  0  0  0  0
    5.8116   -2.6825    2.5682 C   0  0  0  0  0  0  0  0  0  0  0  0
    4.8522   -3.5538    2.0405 C   0  0  0  0  0  0  0  0  0  0  0  0
    4.6700   -4.8047    2.6263 C   0  0  0  0  0  0  0  0  0  0  0  0
    5.4558   -5.1701    3.7280 C   0  0  0  0  0  0  0  0  0  0  0  0
    5.2259   -6.7353    4.4595 Cl  0  0  0  0  0  0  0  0  0  0  0  0
    6.4182   -4.3003    4.2499 C   0  0  0  0  0  0  0  0  0  0  0  0
    6.5981   -3.0456    3.6633 C   0  0  0  0  0  0  0  0  0  0  0  0
    4.8747   -1.3648   -0.9712 H   0  0  0  0  0  0  0  0  0  0  0  0
    2.0818   -1.8470   -1.8520 H   0  0  0  0  0  0  0  0  0  0  0  0
    3.3852   -3.0513   -1.9074 H   0  0  0  0  0  0  0  0  0  0  0  0
    4.6858   -4.1034   -3.8717 H   0  0  0  0  0  0  0  0  0  0  0  0
    7.0657   -4.6021   -4.2227 H   0  0  0  0  0  0  0  0  0  0  0  0
    8.7350   -2.7487   -4.3962 H   0  0  0  0  0  0  0  0  0  0  0  0
    7.9560   -0.3833   -4.2075 H   0  0  0  0  0  0  0  0  0  0  0  0
    5.5780    0.1230   -3.8647 H   0  0  0  0  0  0  0  0  0  0  0  0
    2.6126   -3.6252   -4.1484 H   0  0  0  0  0  0  0  0  0  0  0  0
    2.9159   -2.5231   -5.5002 H   0  0  0  0  0  0  0  0  0  0  0  0
    0.6024   -2.3639   -3.4741 H   0  0  0  0  0  0  0  0  0  0  0  0
    0.5105   -2.7609   -5.2045 H   0  0  0  0  0  0  0  0  0  0  0  0
    1.1342   -0.0320   -2.9003 H   0  0  0  0  0  0  0  0  0  0  0  0
    1.3486    1.0831   -4.2692 H   0  0  0  0  0  0  0  0  0  0  0  0
    3.5314    0.4997   -3.1911 H   0  0  0  0  0  0  0  0  0  0  0  0
    3.4616    0.0533   -4.9046 H   0  0  0  0  0  0  0  0  0  0  0  0
    5.1801    0.7366    0.0732 H   0  0  0  0  0  0  0  0  0  0  0  0
    2.5369    1.6607    1.1983 H   0  0  0  0  0  0  0  0  0  0  0  0
    3.9214    2.6633    0.7173 H   0  0  0  0  0  0  0  0  0  0  0  0
    3.4717    2.3035    3.3908 H   0  0  0  0  0  0  0  0  0  0  0  0
    5.1425    2.1173    2.7922 H   0  0  0  0  0  0  0  0  0  0  0  0
    3.1121   -0.1387    3.2724 H   0  0  0  0  0  0  0  0  0  0  0  0
    4.7954   -0.0404    3.8561 H   0  0  0  0  0  0  0  0  0  0  0  0
    4.2463   -3.2502    1.1848 H   0  0  0  0  0  0  0  0  0  0  0  0
    3.9246   -5.5000    2.2374 H   0  0  0  0  0  0  0  0  0  0  0  0
    7.0192   -4.6056    5.1077 H   0  0  0  0  0  0  0  0  0  0  0  0
    7.3416   -2.3457    4.0483 H   0  0  0  0  0  0  0  0  0  0  0  0
  1  2  2  0
  2  3  1  0
  2 17  1  0
  3  4  1  0
  3 32  1  0
  5  4  1  1
  4 33  1  0
  4 34  1  0
  5  6  1  0
  5 12  1  0
  5 16  1  0
  6  7  2  0
  6 11  1  0
  7  8  1  0
  7 35  1  0
  8  9  2  0
  8 36  1  0
  9 10  1  0
  9 37  1  0
 10 11  2  0
 10 38  1  0
 11 39  1  0
 12 13  1  0
 12 40  1  0
 12 41  1  0
 13 14  1  0
 13 42  1  0
 13 43  1  0
 14 15  1  0
 15 16  1  0
 15 44  1  0
 15 45  1  0
 16 46  1  0
 16 47  1  0
 17 18  1  0
 17 21  1  0
 17 48  1  6
 18 19  1  0
 18 49  1  0
 18 50  1  0
 19 20  1  0
 19 51  1  0
 19 52  1  0
 20 21  1  0
 20 53  1  0
 20 54  1  0
 21 22  1  0
 22 23  2  0
 22 24  2  0
 22 25  1  1
 25 26  2  0
 25 31  1  0
 26 27  1  0
 26 55  1  0
 27 28  2  0
 27 56  1  0
 28 29  1  0
 28 30  1  0
 30 31  2  0
 30 57  1  0
 31 58  1  0
M  END

