
     RDKit          3D

 47 50  0  0  0  0  0  0  0  0999 V2000
    1.4152   -0.3294   -0.6978 C   0  0  0  0  0  0  0  0  0  0  0  0
    2.4774    0.2778    0.0772 N   0  0  0  0  0  0  0  0  0  0  0  0
    3.2995    1.1751   -0.7252 C   0  0  0  0  0  0  0  0  0  0  0  0
    3.1735   -0.5373    1.0007 C   0  0  0  0  0  0  0  0  0  0  0  0
    3.2295   -1.9154    0.8154 C   0  0  0  0  0  0  0  0  0  0  0  0
    3.9993   -2.7540    1.6502 C   0  0  0  0  0  0  0  0  0  0  0  0
    4.7616   -2.2081    2.6541 C   0  0  0  0  0  0  0  0  0  0  0  0
    4.7140   -0.8100    2.9178 C   0  0  0  0  0  0  0  0  0  0  0  0
    5.5088   -0.2723    3.9669 C   0  0  0  0  0  0  0  0  0  0  0  0
    5.4337    1.0612    4.2949 C   0  0  0  0  0  0  0  0  0  0  0  0
    4.5075    1.8875    3.6275 C   0  0  0  0  0  0  0  0  0  0  0  0
    3.7118    1.4170    2.5921 C   0  0  0  0  0  0  0  0  0  0  0  0
    2.7195    2.3075    2.0709 N   0  0  0  0  0  0  0  0  0  0  0  0
    1.3232    1.9394    2.3069 C   0  0  0  0  0  0  0  0  0  0  0  0
    3.0558    3.5586    1.5066 B   0  0  0  0  0  0  0  0  0  0  0  0
    4.3745    3.9162    1.2638 O   0  0  0  0  0  0  0  0  0  0  0  0
    4.4649    5.1908    0.6484 C   0  0  0  0  0  0  0  0  0  0  0  0
    3.0519    5.6987    0.5045 C   0  0  0  0  0  0  0  0  0  0  0  0
    2.6257    6.9192   -0.0336 C   0  0  0  0  0  0  0  0  0  0  0  0
    1.2616    7.1959   -0.0619 C   0  0  0  0  0  0  0  0  0  0  0  0
    0.3336    6.2641    0.4452 C   0  0  0  0  0  0  0  0  0  0  0  0
   -1.1162    6.5750    0.4139 C   0  0  0  0  0  0  0  0  0  0  0  0
   -1.5976    7.5934   -0.0282 O   0  0  0  0  0  0  0  0  0  0  0  0
    0.7766    5.0453    0.9803 C   0  0  0  0  0  0  0  0  0  0  0  0
    2.1453    4.7447    1.0121 C   0  0  0  0  0  0  0  0  0  0  0  0
    3.8511    0.0508    2.1426 C   0  0  0  0  0  0  0  0  0  0  0  0
    0.8114    0.4663   -1.1642 H   0  0  0  0  0  0  0  0  0  0  0  0
    0.7554   -0.9232   -0.0485 H   0  0  0  0  0  0  0  0  0  0  0  0
    1.7751   -0.9865   -1.5198 H   0  0  0  0  0  0  0  0  0  0  0  0
    2.6873    2.0075   -1.1100 H   0  0  0  0  0  0  0  0  0  0  0  0
    3.7473    0.6490   -1.5959 H   0  0  0  0  0  0  0  0  0  0  0  0
    4.1164    1.5998   -0.1314 H   0  0  0  0  0  0  0  0  0  0  0  0
    2.7088   -2.3624   -0.0315 H   0  0  0  0  0  0  0  0  0  0  0  0
    4.0190   -3.8300    1.4588 H   0  0  0  0  0  0  0  0  0  0  0  0
    5.4065   -2.8356    3.2742 H   0  0  0  0  0  0  0  0  0  0  0  0
    6.1735   -0.9459    4.5139 H   0  0  0  0  0  0  0  0  0  0  0  0
    6.0471    1.4739    5.0996 H   0  0  0  0  0  0  0  0  0  0  0  0
    4.3769    2.9225    3.9475 H   0  0  0  0  0  0  0  0  0  0  0  0
    1.2485    0.8686    2.5334 H   0  0  0  0  0  0  0  0  0  0  0  0
    0.7050    2.1281    1.4176 H   0  0  0  0  0  0  0  0  0  0  0  0
    0.8960    2.4935    3.1632 H   0  0  0  0  0  0  0  0  0  0  0  0
    4.9720    5.0972   -0.3301 H   0  0  0  0  0  0  0  0  0  0  0  0
    5.0844    5.8635    1.2700 H   0  0  0  0  0  0  0  0  0  0  0  0
    3.3451    7.6453   -0.4233 H   0  0  0  0  0  0  0  0  0  0  0  0
    0.8780    8.1338   -0.4705 H   0  0  0  0  0  0  0  0  0  0  0  0
   -1.7694    5.7704    0.8448 H   0  0  0  0  0  0  0  0  0  0  0  0
    0.0355    4.3427    1.3722 H   0  0  0  0  0  0  0  0  0  0  0  0
  1  2  1  0
  1 27  1  0
  1 28  1  0
  1 29  1  0
  2  3  1  0
  2  4  1  0
  3 30  1  0
  3 31  1  0
  3 32  1  0
  4  5  2  0
  4 26  1  0
  5  6  1  0
  5 33  1  0
  6  7  2  0
  6 34  1  0
  7  8  1  0
  7 35  1  0
  8  9  1  0
  8 26  2  0
  9 10  2  0
  9 36  1  0
 10 11  1  0
 10 37  1  0
 11 12  2  0
 11 38  1  0
 12 13  1  0
 12 26  1  0
 13 14  1  0
 13 15  1  0
 14 39  1  0
 14 40  1  0
 14 41  1  0
 15 16  1  0
 15 25  1  0
 16 17  1  0
 17 18  1  0
 17 42  1  0
 17 43  1  0
 18 19  1  0
 18 25  2  0
 19 20  2  0
 19 44  1  0
 20 21  1  0
 20 45  1  0
 21 22  1  0
 21 24  2  0
 22 23  2  0
 22 46  1  0
 24 25  1  0
 24 47  1  0
M  END

