
     RDKit          3D

 36 37  0  0  0  0  0  0  0  0999 V2000
    5.2210   -1.0798   -1.2246 C   0  0  0  0  0  0  0  0  0  0  0  0
    4.0336   -0.5303   -0.4201 C   0  0  1  0  0  0  0  0  0  0  0  0
    3.4372    0.7243   -1.0723 C   0  0  0  0  0  0  0  0  0  0  0  0
    2.9441   -1.5834   -0.1357 C   0  0  1  0  0  0  0  0  0  0  0  0
    2.0798   -1.0792    0.3344 H   0  0  0  0  0  0  0  0  0  0  0  0
    2.4459   -2.1865   -1.3763 N   0  0  0  0  0  0  0  0  0  0  0  0
    1.2271   -2.7722   -1.4799 C   0  0  0  0  0  0  0  0  0  0  0  0
    0.5029   -2.9124   -0.4851 O   0  0  0  0  0  0  0  0  0  0  0  0
    0.8253   -3.2419   -2.8475 C   0  0  0  0  0  0  0  0  0  0  0  0
    1.7760   -3.8143   -3.6812 C   0  0  0  0  0  0  0  0  0  0  0  0
    1.4391   -4.2897   -4.9701 C   0  0  0  0  0  0  0  0  0  0  0  0
    0.1460   -4.1817   -5.4291 C   0  0  0  0  0  0  0  0  0  0  0  0
   -0.8668   -3.6069   -4.6110 C   0  0  0  0  0  0  0  0  0  0  0  0
   -2.1252   -3.5299   -5.1259 N   0  0  0  0  0  0  0  0  0  0  0  0
   -3.0743   -3.0089   -4.3823 C   0  0  0  0  0  0  0  0  0  0  0  0
   -2.8624   -2.5201   -3.0676 C   0  0  0  0  0  0  0  0  0  0  0  0
   -1.5992   -2.5851   -2.5230 C   0  0  0  0  0  0  0  0  0  0  0  0
   -0.5370   -3.1388   -3.2933 C   0  0  0  0  0  0  0  0  0  0  0  0
    3.3930   -2.6576    0.8932 C   0  0  0  0  0  0  0  0  0  0  0  0
    4.4984   -2.6919    1.3700 O   0  0  0  0  0  0  0  0  0  0  0  0
    2.4424   -3.5229    1.2410 O   0  0  0  0  0  0  0  0  0  0  0  0
    6.0165   -0.3211   -1.2875 H   0  0  0  0  0  0  0  0  0  0  0  0
    4.9478   -1.3254   -2.2672 H   0  0  0  0  0  0  0  0  0  0  0  0
    5.6430   -1.9744   -0.7470 H   0  0  0  0  0  0  0  0  0  0  0  0
    4.4193   -0.2558    0.5744 H   0  0  0  0  0  0  0  0  0  0  0  0
    3.0082    0.5064   -2.0650 H   0  0  0  0  0  0  0  0  0  0  0  0
    4.2117    1.4945   -1.2127 H   0  0  0  0  0  0  0  0  0  0  0  0
    2.6369    1.1615   -0.4539 H   0  0  0  0  0  0  0  0  0  0  0  0
    2.9993   -2.0594   -2.2148 H   0  0  0  0  0  0  0  0  0  0  0  0
    2.8034   -3.9372   -3.3295 H   0  0  0  0  0  0  0  0  0  0  0  0
    2.2120   -4.7469   -5.5922 H   0  0  0  0  0  0  0  0  0  0  0  0
   -0.1512   -4.5334   -6.4188 H   0  0  0  0  0  0  0  0  0  0  0  0
   -4.0781   -2.9610   -4.8236 H   0  0  0  0  0  0  0  0  0  0  0  0
   -3.6976   -2.1033   -2.5002 H   0  0  0  0  0  0  0  0  0  0  0  0
   -1.4041   -2.2393   -1.5088 H   0  0  0  0  0  0  0  0  0  0  0  0
    1.5933   -3.3242    0.7698 H   0  0  0  0  0  0  0  0  0  0  0  0
  1  2  1  0
  1 22  1  0
  1 23  1  0
  1 24  1  0
  2  3  1  0
  2  4  1  0
  2 25  1  1
  3 26  1  0
  3 27  1  0
  3 28  1  0
  4  5  1  1
  4  6  1  0
  4 19  1  0
  6  7  1  0
  6 29  1  0
  7  8  2  0
  7  9  1  0
  9 10  2  0
  9 18  1  0
 10 11  1  0
 10 30  1  0
 11 12  2  0
 11 31  1  0
 12 13  1  0
 12 32  1  0
 13 14  1  0
 13 18  2  0
 14 15  2  0
 15 16  1  0
 15 33  1  0
 16 17  2  0
 16 34  1  0
 17 18  1  0
 17 35  1  0
 19 20  2  0
 19 21  1  0
 21 36  1  0
M  END

