
     RDKit          3D

 56 60  0  0  0  0  0  0  0  0999 V2000
    1.4952    0.1534    1.5500 C   0  0  0  0  0  0  0  0  0  0  0  0
    2.6432    0.0676    0.6607 N   0  0  0  0  0  0  0  0  0  0  0  0
    3.1951    1.1061   -0.0376 C   0  0  0  0  0  0  0  0  0  0  0  0
    2.6639    2.4233   -0.1716 C   0  0  0  0  0  0  0  0  0  0  0  0
    3.5745    3.5144   -0.1882 C   0  0  0  0  0  0  0  0  0  0  0  0
    4.3310    4.4025   -0.1826 N   0  0  0  0  0  0  0  0  0  0  0  0
    1.2385    2.6431   -0.3886 C   0  0  0  0  0  0  0  0  0  0  0  0
    0.4215    1.7336   -0.5174 O   0  0  0  0  0  0  0  0  0  0  0  0
    0.7922    4.0998   -0.4862 C   0  0  0  0  0  0  0  0  0  0  0  0
   -1.0177    4.1334   -0.7217 S   0  0  0  0  0  0  0  0  0  0  0  0
   -1.2470    5.8979   -0.7879 C   0  0  0  0  0  0  0  0  0  0  0  0
   -0.2417    6.6900   -0.6045 N   0  0  0  0  0  0  0  0  0  0  0  0
   -0.4389    8.0527   -0.6587 C   0  0  0  0  0  0  0  0  0  0  0  0
    0.6553    8.9245   -0.4599 C   0  0  0  0  0  0  0  0  0  0  0  0
    0.4686   10.2986   -0.5116 C   0  0  0  0  0  0  0  0  0  0  0  0
   -0.8064   10.8460   -0.7610 C   0  0  0  0  0  0  0  0  0  0  0  0
   -1.8920   10.0036   -0.9577 C   0  0  0  0  0  0  0  0  0  0  0  0
   -1.7156    8.6085   -0.9085 C   0  0  0  0  0  0  0  0  0  0  0  0
   -2.8556    7.7108   -1.1168 C   0  0  0  0  0  0  0  0  0  0  0  0
   -4.0010    8.0700   -1.3412 O   0  0  0  0  0  0  0  0  0  0  0  0
   -2.5406    6.3329   -1.0468 N   0  0  0  0  0  0  0  0  0  0  0  0
   -3.6782    5.4127   -1.2626 C   0  0  0  0  0  0  0  0  0  0  0  0
   -4.4971    5.1437   -0.0424 C   0  0  0  0  0  0  0  0  0  0  0  0
   -5.5302    5.8210    0.5491 C   0  0  0  0  0  0  0  0  0  0  0  0
   -5.8940    5.0651    1.7112 C   0  0  0  0  0  0  0  0  0  0  0  0
   -5.0542    3.9874    1.7363 C   0  0  0  0  0  0  0  0  0  0  0  0
   -4.2051    4.0256    0.6816 O   0  0  0  0  0  0  0  0  0  0  0  0
    4.3815    0.6673   -0.5710 N   0  0  0  0  0  0  0  0  0  0  0  0
    5.2104    1.4074   -1.5108 C   0  0  0  0  0  0  0  0  0  0  0  0
    4.5877   -0.6600   -0.2062 C   0  0  0  0  0  0  0  0  0  0  0  0
    5.6277   -1.5520   -0.4763 C   0  0  0  0  0  0  0  0  0  0  0  0
    5.5085   -2.8491    0.0313 C   0  0  0  0  0  0  0  0  0  0  0  0
    4.3895   -3.2385    0.7870 C   0  0  0  0  0  0  0  0  0  0  0  0
    3.3495   -2.3449    1.0594 C   0  0  0  0  0  0  0  0  0  0  0  0
    3.4688   -1.0487    0.5540 C   0  0  0  0  0  0  0  0  0  0  0  0
    1.4630    1.1579    1.9930 H   0  0  0  0  0  0  0  0  0  0  0  0
    1.6205   -0.5862    2.3521 H   0  0  0  0  0  0  0  0  0  0  0  0
    0.5576   -0.0069    1.0031 H   0  0  0  0  0  0  0  0  0  0  0  0
    1.2874    4.6186   -1.3204 H   0  0  0  0  0  0  0  0  0  0  0  0
    1.0586    4.6681    0.4167 H   0  0  0  0  0  0  0  0  0  0  0  0
    1.6357    8.4843   -0.2679 H   0  0  0  0  0  0  0  0  0  0  0  0
    1.3216   10.9649   -0.3568 H   0  0  0  0  0  0  0  0  0  0  0  0
   -0.9372   11.9300   -0.7986 H   0  0  0  0  0  0  0  0  0  0  0  0
   -2.8939   10.3912   -1.1529 H   0  0  0  0  0  0  0  0  0  0  0  0
   -3.2917    4.4713   -1.6745 H   0  0  0  0  0  0  0  0  0  0  0  0
   -4.3147    5.8927   -2.0153 H   0  0  0  0  0  0  0  0  0  0  0  0
   -5.9561    6.7551    0.1911 H   0  0  0  0  0  0  0  0  0  0  0  0
   -6.6778    5.2931    2.4307 H   0  0  0  0  0  0  0  0  0  0  0  0
   -4.9459    3.1395    2.4078 H   0  0  0  0  0  0  0  0  0  0  0  0
    4.5688    2.0013   -2.1748 H   0  0  0  0  0  0  0  0  0  0  0  0
    5.7799    0.6899   -2.1155 H   0  0  0  0  0  0  0  0  0  0  0  0
    5.9010    2.0915   -0.9968 H   0  0  0  0  0  0  0  0  0  0  0  0
    6.5032   -1.2542   -1.0552 H   0  0  0  0  0  0  0  0  0  0  0  0
    6.3030   -3.5727   -0.1636 H   0  0  0  0  0  0  0  0  0  0  0  0
    4.3283   -4.2601    1.1683 H   0  0  0  0  0  0  0  0  0  0  0  0
    2.4787   -2.6553    1.6386 H   0  0  0  0  0  0  0  0  0  0  0  0
  1  2  1  0
  1 36  1  0
  1 37  1  0
  1 38  1  0
  2  3  1  0
  2 35  1  0
  3  4  2  0
  3 28  1  0
  4  5  1  0
  4  7  1  0
  5  6  3  0
  7  8  2  0
  7  9  1  0
  9 10  1  0
  9 39  1  0
  9 40  1  0
 10 11  2  0
 11 12  1  0
 11 21  1  0
 12 13  2  0
 13 14  1  0
 13 18  1  0
 14 15  2  0
 14 41  1  0
 15 16  1  0
 15 42  1  0
 16 17  2  0
 16 43  1  0
 17 18  1  0
 17 44  1  0
 18 19  2  0
 19 20  1  0
 19 21  1  0
 21 22  1  0
 22 23  1  0
 22 45  1  0
 22 46  1  0
 23 24  2  0
 23 27  1  0
 24 25  1  0
 24 47  1  0
 25 26  2  0
 25 48  1  0
 26 27  1  0
 26 49  1  0
 28 29  1  0
 28 30  1  0
 29 50  1  0
 29 51  1  0
 29 52  1  0
 30 31  2  0
 30 35  1  0
 31 32  1  0
 31 53  1  0
 32 33  2  0
 32 54  1  0
 33 34  1  0
 33 55  1  0
 34 35  2  0
 34 56  1  0
M  CHG  2  10   1  20  -1
M  END

