
     RDKit          3D

 27 26  0  0  0  0  0  0  0  0999 V2000
    4.6381   -2.7665    0.2586 C   0  0  0  0  0  0  0  0  0  0  0  0
    4.1466   -1.3262    0.1648 C   0  0  0  0  0  0  0  0  0  0  0  0
    4.8095   -0.4718    1.1385 N   0  0  0  0  0  0  0  0  0  0  0  0
    4.4020    0.9253    1.1162 C   0  0  0  0  0  0  0  0  0  0  0  0
    4.9532    1.6986    2.3337 C   0  0  1  0  0  0  0  0  0  0  0  0
    4.4729    1.1377    3.5996 N   0  0  0  0  0  0  0  0  0  0  0  0
    6.5017    1.8029    2.3724 C   0  0  1  0  0  0  0  0  0  0  0  0
    7.1116    2.2642    1.0414 C   0  0  0  0  0  0  0  0  0  0  0  0
    6.9503    2.7177    3.5190 C   0  0  0  0  0  0  0  0  0  0  0  0
    4.1040   -3.4147   -0.4536 H   0  0  0  0  0  0  0  0  0  0  0  0
    4.4881   -3.1629    1.2750 H   0  0  0  0  0  0  0  0  0  0  0  0
    5.7147   -2.8366    0.0257 H   0  0  0  0  0  0  0  0  0  0  0  0
    3.0606   -1.2925    0.3662 H   0  0  0  0  0  0  0  0  0  0  0  0
    4.2693   -0.9600   -0.8809 H   0  0  0  0  0  0  0  0  0  0  0  0
    5.8200   -0.5426    1.0190 H   0  0  0  0  0  0  0  0  0  0  0  0
    3.2992    0.9516    1.1771 H   0  0  0  0  0  0  0  0  0  0  0  0
    4.6627    1.4444    0.1675 H   0  0  0  0  0  0  0  0  0  0  0  0
    4.5664    2.7321    2.2557 H   0  0  0  0  0  0  0  0  0  0  0  0
    4.5548    0.1198    3.5331 H   0  0  0  0  0  0  0  0  0  0  0  0
    3.4756    1.3256    3.7055 H   0  0  0  0  0  0  0  0  0  0  0  0
    6.8857    0.7877    2.5932 H   0  0  0  0  0  0  0  0  0  0  0  0
    6.6958    3.2384    0.7300 H   0  0  0  0  0  0  0  0  0  0  0  0
    6.9382    1.5523    0.2190 H   0  0  0  0  0  0  0  0  0  0  0  0
    8.2019    2.3902    1.1384 H   0  0  0  0  0  0  0  0  0  0  0  0
    6.6534    3.7631    3.3222 H   0  0  0  0  0  0  0  0  0  0  0  0
    8.0460    2.7004    3.6376 H   0  0  0  0  0  0  0  0  0  0  0  0
    6.4837    2.4045    4.4626 H   0  0  0  0  0  0  0  0  0  0  0  0
  1  2  1  0
  1 10  1  0
  1 11  1  0
  1 12  1  0
  2  3  1  0
  2 13  1  0
  2 14  1  0
  3  4  1  0
  3 15  1  0
  4  5  1  0
  4 16  1  0
  4 17  1  0
  5  6  1  0
  5  7  1  0
  5 18  1  6
  6 19  1  0
  6 20  1  0
  7  8  1  0
  7  9  1  0
  7 21  1  1
  8 22  1  0
  8 23  1  0
  8 24  1  0
  9 25  1  0
  9 26  1  0
  9 27  1  0
M  END

