
     RDKit          3D

 56 59  0  0  0  0  0  0  0  0999 V2000
    3.7706    4.6679   -2.0858 C   0  0  0  0  0  0  0  0  0  0  0  0
    4.5977    3.5404   -1.5176 C   0  0  0  0  0  0  0  0  0  0  0  0
    5.6190    2.9291   -2.2587 C   0  0  0  0  0  0  0  0  0  0  0  0
    6.3668    1.8709   -1.7346 C   0  0  0  0  0  0  0  0  0  0  0  0
    6.1223    1.3788   -0.4445 C   0  0  0  0  0  0  0  0  0  0  0  0
    6.9871    0.2567    0.1727 C   0  0  1  0  0  0  0  0  0  0  0  0
    6.3654   -0.4614    1.2901 N   0  0  0  0  0  0  0  0  0  0  0  0
    7.5785   -0.6962   -0.8430 C   0  0  0  0  0  0  0  0  0  0  0  0
    8.8265   -0.6470   -1.4334 C   0  0  0  0  0  0  0  0  0  0  0  0
    9.0189   -1.7002   -2.2896 N   0  0  0  0  0  0  0  0  0  0  0  0
    7.9101   -2.3919   -2.2236 C   0  0  0  0  0  0  0  0  0  0  0  0
    6.9836   -1.8355   -1.3744 N   0  0  0  0  0  0  0  0  0  0  0  0
    5.7198   -2.4779   -1.0281 C   0  0  0  0  0  0  0  0  0  0  0  0
    4.4499   -1.7010   -1.3350 C   0  0  0  0  0  0  0  0  0  0  0  0
    3.5245   -1.5511   -0.3345 C   0  0  0  0  0  0  0  0  0  0  0  0
    2.2596   -0.8549   -0.4847 C   0  0  0  0  0  0  0  0  0  0  0  0
    1.4413   -0.6864    0.4059 O   0  0  0  0  0  0  0  0  0  0  0  0
    2.0366   -0.3650   -1.8058 N   0  0  0  0  0  0  0  0  0  0  0  0
    0.7956    0.2926   -2.1101 C   0  0  0  0  0  0  0  0  0  0  0  0
    0.3452    1.3647   -1.3319 C   0  0  0  0  0  0  0  0  0  0  0  0
   -0.8519    2.0030   -1.6590 C   0  0  0  0  0  0  0  0  0  0  0  0
   -1.6261    1.5989   -2.7580 C   0  0  0  0  0  0  0  0  0  0  0  0
   -2.9111    2.3036   -3.1180 C   0  0  0  0  0  0  0  0  0  0  0  0
   -1.1618    0.5163   -3.5213 C   0  0  0  0  0  0  0  0  0  0  0  0
    0.0292   -0.1363   -3.2010 C   0  0  0  0  0  0  0  0  0  0  0  0
    2.9606   -0.5380   -2.8063 C   0  0  0  0  0  0  0  0  0  0  0  0
    4.1594   -1.1817   -2.6493 C   0  0  0  0  0  0  0  0  0  0  0  0
    5.0926   -1.3206   -3.8261 C   0  0  0  0  0  0  0  0  0  0  0  0
    5.1086    1.9977    0.3033 C   0  0  0  0  0  0  0  0  0  0  0  0
    4.3621    3.0542   -0.2221 C   0  0  0  0  0  0  0  0  0  0  0  0
    4.1783    5.0269   -3.0424 H   0  0  0  0  0  0  0  0  0  0  0  0
    3.7272    5.5247   -1.3935 H   0  0  0  0  0  0  0  0  0  0  0  0
    2.7300    4.3473   -2.2659 H   0  0  0  0  0  0  0  0  0  0  0  0
    5.8365    3.2866   -3.2697 H   0  0  0  0  0  0  0  0  0  0  0  0
    7.1577    1.4231   -2.3402 H   0  0  0  0  0  0  0  0  0  0  0  0
    7.8760    0.7632    0.5872 H   0  0  0  0  0  0  0  0  0  0  0  0
    5.3555   -0.5197    1.1705 H   0  0  0  0  0  0  0  0  0  0  0  0
    6.5311    0.0166    2.1727 H   0  0  0  0  0  0  0  0  0  0  0  0
    9.5967    0.1071   -1.2661 H   0  0  0  0  0  0  0  0  0  0  0  0
    7.6996   -3.3192   -2.7591 H   0  0  0  0  0  0  0  0  0  0  0  0
    5.7350   -2.7301    0.0414 H   0  0  0  0  0  0  0  0  0  0  0  0
    5.6982   -3.4268   -1.5889 H   0  0  0  0  0  0  0  0  0  0  0  0
    3.6948   -1.9617    0.6631 H   0  0  0  0  0  0  0  0  0  0  0  0
    0.9258    1.6878   -0.4688 H   0  0  0  0  0  0  0  0  0  0  0  0
   -1.1931    2.8377   -1.0404 H   0  0  0  0  0  0  0  0  0  0  0  0
   -3.2361    2.9860   -2.3190 H   0  0  0  0  0  0  0  0  0  0  0  0
   -3.7256    1.5848   -3.3031 H   0  0  0  0  0  0  0  0  0  0  0  0
   -2.7938    2.9011   -4.0386 H   0  0  0  0  0  0  0  0  0  0  0  0
   -1.7482    0.1655   -4.3755 H   0  0  0  0  0  0  0  0  0  0  0  0
    0.3571   -0.9947   -3.7919 H   0  0  0  0  0  0  0  0  0  0  0  0
    2.6811   -0.1032   -3.7673 H   0  0  0  0  0  0  0  0  0  0  0  0
    4.6096   -0.9583   -4.7457 H   0  0  0  0  0  0  0  0  0  0  0  0
    5.3825   -2.3699   -4.0003 H   0  0  0  0  0  0  0  0  0  0  0  0
    6.0243   -0.7502   -3.6904 H   0  0  0  0  0  0  0  0  0  0  0  0
    4.8924    1.6534    1.3167 H   0  0  0  0  0  0  0  0  0  0  0  0
    3.5802    3.5115    0.3922 H   0  0  0  0  0  0  0  0  0  0  0  0
  1  2  1  0
  1 31  1  0
  1 32  1  0
  1 33  1  0
  2  3  2  0
  2 30  1  0
  3  4  1  0
  3 34  1  0
  4  5  2  0
  4 35  1  0
  5  6  1  0
  5 29  1  0
  6  7  1  0
  6  8  1  0
  6 36  1  1
  7 37  1  0
  7 38  1  0
  8  9  2  0
  8 12  1  0
  9 10  1  0
  9 39  1  0
 10 11  2  0
 11 12  1  0
 11 40  1  0
 12 13  1  0
 13 14  1  0
 13 41  1  0
 13 42  1  0
 14 15  2  0
 14 27  1  0
 15 16  1  0
 15 43  1  0
 16 17  2  0
 16 18  1  0
 18 19  1  0
 18 26  1  0
 19 20  2  0
 19 25  1  0
 20 21  1  0
 20 44  1  0
 21 22  2  0
 21 45  1  0
 22 23  1  0
 22 24  1  0
 23 46  1  0
 23 47  1  0
 23 48  1  0
 24 25  2  0
 24 49  1  0
 25 50  1  0
 26 27  2  0
 26 51  1  0
 27 28  1  0
 28 52  1  0
 28 53  1  0
 28 54  1  0
 29 30  2  0
 29 55  1  0
 30 56  1  0
M  END

