
     RDKit          3D

 54 57  0  0  0  0  0  0  0  0999 V2000
    1.8842   -0.5940    3.1659 C   0  0  0  0  0  0  0  0  0  0  0  0
    2.9676   -0.4337    2.1271 C   0  0  0  0  0  0  0  0  0  0  0  0
    4.1001    0.3582    2.3654 C   0  0  0  0  0  0  0  0  0  0  0  0
    5.0893    0.5183    1.3908 C   0  0  0  0  0  0  0  0  0  0  0  0
    4.9895   -0.1141    0.1417 C   0  0  0  0  0  0  0  0  0  0  0  0
    6.0756    0.0353   -0.9106 C   0  0  0  0  0  0  0  0  0  0  0  0
    7.1773   -0.9459   -0.8756 N   0  0  0  0  0  0  0  0  0  0  0  0
    8.0787   -0.8848    0.2860 C   0  0  0  0  0  0  0  0  0  0  0  0
    8.6914   -2.2827    0.3651 C   0  0  0  0  0  0  0  0  0  0  0  0
    7.5231   -3.1688   -0.0884 C   0  0  0  0  0  0  0  0  0  0  0  0
    6.8541   -2.3486   -1.2061 C   0  0  2  0  0  0  0  0  0  0  0  0
    7.2916   -2.6542   -2.7358 C   0  0  1  0  0  0  0  0  0  0  0  0
    7.4240   -1.4030   -3.3675 O   0  0  0  0  0  0  0  0  0  0  0  0
    8.6342   -3.4230   -2.8602 C   0  0  0  0  0  0  0  0  0  0  0  0
    8.7435   -4.8155   -2.6961 C   0  0  0  0  0  0  0  0  0  0  0  0
    9.9797   -5.4576   -2.8094 C   0  0  0  0  0  0  0  0  0  0  0  0
   11.1392   -4.7335   -3.0982 C   0  0  0  0  0  0  0  0  0  0  0  0
   11.0180   -3.3589   -3.2768 C   0  0  0  0  0  0  0  0  0  0  0  0
   12.1140   -2.6400   -3.5727 F   0  0  0  0  0  0  0  0  0  0  0  0
    9.7960   -2.7002   -3.1683 C   0  0  0  0  0  0  0  0  0  0  0  0
    6.1820   -3.4347   -3.4566 C   0  0  0  0  0  0  0  0  0  0  0  0
    5.4555   -4.4671   -2.8391 C   0  0  0  0  0  0  0  0  0  0  0  0
    4.4682   -5.1653   -3.5428 C   0  0  0  0  0  0  0  0  0  0  0  0
    4.1810   -4.8469   -4.8714 C   0  0  0  0  0  0  0  0  0  0  0  0
    4.9033   -3.8159   -5.4684 C   0  0  0  0  0  0  0  0  0  0  0  0
    4.6346   -3.4896   -6.7429 F   0  0  0  0  0  0  0  0  0  0  0  0
    5.8902   -3.1092   -4.7887 C   0  0  0  0  0  0  0  0  0  0  0  0
    3.8447   -0.8931   -0.1027 C   0  0  0  0  0  0  0  0  0  0  0  0
    2.8580   -1.0531    0.8711 C   0  0  0  0  0  0  0  0  0  0  0  0
    2.2033   -0.2117    4.1468 H   0  0  0  0  0  0  0  0  0  0  0  0
    1.5980   -1.6510    3.2894 H   0  0  0  0  0  0  0  0  0  0  0  0
    0.9708   -0.0459    2.8768 H   0  0  0  0  0  0  0  0  0  0  0  0
    4.2079    0.8661    3.3283 H   0  0  0  0  0  0  0  0  0  0  0  0
    5.9471    1.1630    1.6032 H   0  0  0  0  0  0  0  0  0  0  0  0
    6.5327    1.0352   -0.8222 H   0  0  0  0  0  0  0  0  0  0  0  0
    5.6262   -0.0191   -1.9139 H   0  0  0  0  0  0  0  0  0  0  0  0
    7.5178   -0.6727    1.2157 H   0  0  0  0  0  0  0  0  0  0  0  0
    8.8273   -0.0838    0.1594 H   0  0  0  0  0  0  0  0  0  0  0  0
    9.0547   -2.5270    1.3744 H   0  0  0  0  0  0  0  0  0  0  0  0
    9.5386   -2.3775   -0.3311 H   0  0  0  0  0  0  0  0  0  0  0  0
    6.8043   -3.2849    0.7399 H   0  0  0  0  0  0  0  0  0  0  0  0
    7.8371   -4.1727   -0.3991 H   0  0  0  0  0  0  0  0  0  0  0  0
    5.7668   -2.4932   -1.1778 H   0  0  0  0  0  0  0  0  0  0  0  0
    7.6251   -0.8003   -2.6127 H   0  0  0  0  0  0  0  0  0  0  0  0
    7.8556   -5.4168   -2.4996 H   0  0  0  0  0  0  0  0  0  0  0  0
   10.0394   -6.5414   -2.6808 H   0  0  0  0  0  0  0  0  0  0  0  0
   12.1154   -5.2112   -3.1990 H   0  0  0  0  0  0  0  0  0  0  0  0
    9.7516   -1.6281   -3.3542 H   0  0  0  0  0  0  0  0  0  0  0  0
    5.6472   -4.7352   -1.7982 H   0  0  0  0  0  0  0  0  0  0  0  0
    3.9120   -5.9650   -3.0472 H   0  0  0  0  0  0  0  0  0  0  0  0
    3.4139   -5.3724   -5.4431 H   0  0  0  0  0  0  0  0  0  0  0  0
    6.4226   -2.3008   -5.2887 H   0  0  0  0  0  0  0  0  0  0  0  0
    3.7127   -1.3689   -1.0787 H   0  0  0  0  0  0  0  0  0  0  0  0
    1.9783   -1.6642    0.6476 H   0  0  0  0  0  0  0  0  0  0  0  0
  1  2  1  0
  1 30  1  0
  1 31  1  0
  1 32  1  0
  2  3  2  0
  2 29  1  0
  3  4  1  0
  3 33  1  0
  4  5  2  0
  4 34  1  0
  5  6  1  0
  5 28  1  0
  6  7  1  0
  6 35  1  0
  6 36  1  0
  7  8  1  0
  7 11  1  0
  8  9  1  0
  8 37  1  0
  8 38  1  0
  9 10  1  0
  9 39  1  0
  9 40  1  0
 10 11  1  0
 10 41  1  0
 10 42  1  0
 11 12  1  0
 11 43  1  6
 12 13  1  6
 12 14  1  0
 12 21  1  0
 13 44  1  0
 14 15  2  0
 14 20  1  0
 15 16  1  0
 15 45  1  0
 16 17  2  0
 16 46  1  0
 17 18  1  0
 17 47  1  0
 18 19  1  0
 18 20  2  0
 20 48  1  0
 21 22  2  0
 21 27  1  0
 22 23  1  0
 22 49  1  0
 23 24  2  0
 23 50  1  0
 24 25  1  0
 24 51  1  0
 25 26  1  0
 25 27  2  0
 27 52  1  0
 28 29  2  0
 28 53  1  0
 29 54  1  0
M  END

