
     RDKit          3D

 38 39  0  0  0  0  0  0  0  0999 V2000
   10.8223   -5.6909   -6.8378 C   0  0  0  0  0  0  0  0  0  0  0  0
   10.3173   -4.9622   -5.7203 O   0  0  0  0  0  0  0  0  0  0  0  0
   11.0986   -4.9429   -4.6213 C   0  0  0  0  0  0  0  0  0  0  0  0
   12.1691   -5.5024   -4.5644 O   0  0  0  0  0  0  0  0  0  0  0  0
   10.4927   -4.1608   -3.5043 C   0  0  0  0  0  0  0  0  0  0  0  0
   11.1967   -4.0764   -2.2935 C   0  0  0  0  0  0  0  0  0  0  0  0
   10.6795   -3.3709   -1.2084 C   0  0  0  0  0  0  0  0  0  0  0  0
    9.4469   -2.7072   -1.3380 C   0  0  0  0  0  0  0  0  0  0  0  0
    8.8527   -1.9943   -0.2667 N   0  0  0  0  0  0  0  0  0  0  0  0
    9.3706   -1.1542    0.6865 C   0  0  0  0  0  0  0  0  0  0  0  0
    8.6881   -0.7513    1.6096 O   0  0  0  0  0  0  0  0  0  0  0  0
   10.7970   -0.6081    0.5022 C   0  0  0  0  0  0  0  0  0  0  0  0
   11.4589   -0.4410    1.7884 N   0  0  0  0  0  0  0  0  0  0  0  0
   11.2456    0.6820    2.5304 C   0  0  0  0  0  0  0  0  0  0  0  0
   11.8228    0.8515    3.7595 C   0  0  0  0  0  0  0  0  0  0  0  0
   12.6450   -0.1877    4.2648 C   0  0  0  0  0  0  0  0  0  0  0  0
   12.8460   -1.3405    3.5479 C   0  0  0  0  0  0  0  0  0  0  0  0
   13.7109   -2.4568    4.0789 C   0  0  1  0  0  0  0  0  0  0  0  0
   13.0198   -3.5925    4.2524 F   0  0  0  0  0  0  0  0  0  0  0  0
   14.7368   -2.7285    3.2581 F   0  0  0  0  0  0  0  0  0  0  0  0
   14.2398   -2.1288    5.2771 F   0  0  0  0  0  0  0  0  0  0  0  0
   12.2168   -1.5491    2.2519 C   0  0  0  0  0  0  0  0  0  0  0  0
   12.2969   -2.5625    1.5696 O   0  0  0  0  0  0  0  0  0  0  0  0
    8.7346   -2.7949   -2.5472 C   0  0  0  0  0  0  0  0  0  0  0  0
    9.2486   -3.5205   -3.6183 C   0  0  0  0  0  0  0  0  0  0  0  0
   10.0683   -5.5994   -7.6295 H   0  0  0  0  0  0  0  0  0  0  0  0
   10.9768   -6.7492   -6.5779 H   0  0  0  0  0  0  0  0  0  0  0  0
   11.7835   -5.2743   -7.1755 H   0  0  0  0  0  0  0  0  0  0  0  0
   12.1535   -4.5951   -2.2080 H   0  0  0  0  0  0  0  0  0  0  0  0
   11.2222   -3.3502   -0.2607 H   0  0  0  0  0  0  0  0  0  0  0  0
    7.8496   -2.1202   -0.1472 H   0  0  0  0  0  0  0  0  0  0  0  0
   10.6907    0.3797    0.0276 H   0  0  0  0  0  0  0  0  0  0  0  0
   11.4269   -1.2330   -0.1355 H   0  0  0  0  0  0  0  0  0  0  0  0
   10.5906    1.4301    2.0823 H   0  0  0  0  0  0  0  0  0  0  0  0
   11.6447    1.7638    4.3275 H   0  0  0  0  0  0  0  0  0  0  0  0
   13.1241   -0.0772    5.2396 H   0  0  0  0  0  0  0  0  0  0  0  0
    7.7741   -2.2819   -2.6432 H   0  0  0  0  0  0  0  0  0  0  0  0
    8.6930   -3.5866   -4.5543 H   0  0  0  0  0  0  0  0  0  0  0  0
  1  2  1  0
  1 26  1  0
  1 27  1  0
  1 28  1  0
  2  3  1  0
  3  4  2  0
  3  5  1  0
  5  6  2  0
  5 25  1  0
  6  7  1  0
  6 29  1  0
  7  8  2  0
  7 30  1  0
  8  9  1  0
  8 24  1  0
  9 10  1  0
  9 31  1  0
 10 11  2  0
 10 12  1  0
 12 13  1  0
 12 32  1  0
 12 33  1  0
 13 14  1  0
 13 22  1  0
 14 15  2  0
 14 34  1  0
 15 16  1  0
 15 35  1  0
 16 17  2  0
 16 36  1  0
 17 18  1  0
 17 22  1  0
 18 19  1  1
 18 20  1  0
 18 21  1  0
 22 23  2  0
 24 25  2  0
 24 37  1  0
 25 38  1  0
M  END

