
     RDKit          3D

 28 27  0  0  0  0  0  0  0  0999 V2000
    0.9776   -0.0982    0.7169 C   0  0  0  0  0  0  0  0  0  0  0  0
    2.1774    0.2239   -0.1789 C   0  0  0  0  0  0  0  0  0  0  0  0
    2.7788   -1.0194   -0.8999 C   0  0  1  0  0  0  0  0  0  0  0  0
    2.3946   -1.0757   -2.3930 C   0  0  0  0  0  0  0  0  0  0  0  0
    0.8871   -1.1114   -2.6582 C   0  0  0  0  0  0  0  0  0  0  0  0
    4.3168   -1.0847   -0.6560 C   0  0  1  0  0  0  0  0  0  0  0  0
    5.0831    0.0576   -1.1748 N   0  0  0  0  0  0  0  0  0  0  0  0
    4.5629   -1.1600    0.8966 C   0  0  0  0  0  0  0  0  0  0  0  0
    3.9041   -1.8549    1.6229 O   0  0  0  0  0  0  0  0  0  0  0  0
    5.5561   -0.3803    1.3031 O   0  0  0  0  0  0  0  0  0  0  0  0
    4.9639   -2.3674   -1.2375 C   0  0  1  0  0  0  0  0  0  0  0  0
    4.2082   -3.4469   -1.0398 F   0  0  0  0  0  0  0  0  0  0  0  0
    5.1782   -2.2568   -2.5694 F   0  0  0  0  0  0  0  0  0  0  0  0
    6.1659   -2.5972   -0.6828 F   0  0  0  0  0  0  0  0  0  0  0  0
    0.5744    0.8144    1.1843 H   0  0  0  0  0  0  0  0  0  0  0  0
    1.2763   -0.7898    1.5195 H   0  0  0  0  0  0  0  0  0  0  0  0
    0.1616   -0.5715    0.1491 H   0  0  0  0  0  0  0  0  0  0  0  0
    2.9403    0.7141    0.4511 H   0  0  0  0  0  0  0  0  0  0  0  0
    1.8903    0.9829   -0.9282 H   0  0  0  0  0  0  0  0  0  0  0  0
    2.3781   -1.9174   -0.4064 H   0  0  0  0  0  0  0  0  0  0  0  0
    2.8436   -1.9650   -2.8586 H   0  0  0  0  0  0  0  0  0  0  0  0
    2.8359   -0.2060   -2.9145 H   0  0  0  0  0  0  0  0  0  0  0  0
    0.4161   -1.9784   -2.1667 H   0  0  0  0  0  0  0  0  0  0  0  0
    0.6877   -1.1943   -3.7382 H   0  0  0  0  0  0  0  0  0  0  0  0
    0.3736   -0.2055   -2.3006 H   0  0  0  0  0  0  0  0  0  0  0  0
    4.5073    0.8992   -1.1804 H   0  0  0  0  0  0  0  0  0  0  0  0
    5.3989   -0.0986   -2.1310 H   0  0  0  0  0  0  0  0  0  0  0  0
    5.8914    0.0520    0.4771 H   0  0  0  0  0  0  0  0  0  0  0  0
  1  2  1  0
  1 15  1  0
  1 16  1  0
  1 17  1  0
  2  3  1  0
  2 18  1  0
  2 19  1  0
  3  4  1  0
  3  6  1  0
  3 20  1  1
  4  5  1  0
  4 21  1  0
  4 22  1  0
  5 23  1  0
  5 24  1  0
  5 25  1  0
  6  7  1  0
  6  8  1  1
  6 11  1  0
  7 26  1  0
  7 27  1  0
  8  9  2  0
  8 10  1  0
 10 28  1  0
 11 12  1  6
 11 13  1  0
 11 14  1  0
M  END

