
     RDKit          3D

 46 47  0  0  0  0  0  0  0  0999 V2000
    1.2711   -0.0850    1.6768 C   0  0  0  0  0  0  0  0  0  0  0  0
    1.3120   -1.0871    0.5475 C   0  0  0  0  0  0  0  0  0  0  0  0
    0.2610   -1.1913   -0.3699 C   0  0  0  0  0  0  0  0  0  0  0  0
    0.3231   -2.1294   -1.4097 C   0  0  0  0  0  0  0  0  0  0  0  0
    1.4240   -2.9668   -1.5466 C   0  0  0  0  0  0  0  0  0  0  0  0
    2.4879   -2.8719   -0.6306 C   0  0  0  0  0  0  0  0  0  0  0  0
    3.5286   -3.7204   -0.8371 O   0  0  0  0  0  0  0  0  0  0  0  0
    4.6455   -3.6920    0.0349 C   0  0  0  0  0  0  0  0  0  0  0  0
    5.5859   -4.8039   -0.3975 C   0  0  0  0  0  0  0  0  0  0  0  0
    5.0906   -6.1821    0.0648 C   0  0  0  0  0  0  0  0  0  0  0  0
    4.2704   -6.2621    0.9673 O   0  0  0  0  0  0  0  0  0  0  0  0
    5.6114   -7.2991   -0.5479 N   0  0  0  0  0  0  0  0  0  0  0  0
    5.1412   -8.6161   -0.1040 C   0  0  0  0  0  0  0  0  0  0  0  0
    4.7014   -9.4755   -1.2910 C   0  0  0  0  0  0  0  0  0  0  0  0
    5.8100   -9.5700   -2.3441 C   0  0  0  0  0  0  0  0  0  0  0  0
    6.2818   -8.1688   -2.7494 C   0  0  0  0  0  0  0  0  0  0  0  0
    6.6963   -7.3003   -1.5409 C   0  0  2  0  0  0  0  0  0  0  0  0
    8.0452   -7.7030   -0.9037 C   0  0  0  0  0  0  0  0  0  0  0  0
    9.2690   -7.4264   -1.7795 C   0  0  0  0  0  0  0  0  0  0  0  0
   10.4746   -7.8271   -1.1658 O   0  0  0  0  0  0  0  0  0  0  0  0
    2.4273   -1.9347    0.4090 C   0  0  0  0  0  0  0  0  0  0  0  0
    0.3283    0.4814    1.6804 H   0  0  0  0  0  0  0  0  0  0  0  0
    2.0987    0.6406    1.5994 H   0  0  0  0  0  0  0  0  0  0  0  0
    1.3705   -0.5811    2.6569 H   0  0  0  0  0  0  0  0  0  0  0  0
   -0.6112   -0.5397   -0.2729 H   0  0  0  0  0  0  0  0  0  0  0  0
   -0.5033   -2.2062   -2.1215 H   0  0  0  0  0  0  0  0  0  0  0  0
    1.4902   -3.7055   -2.3477 H   0  0  0  0  0  0  0  0  0  0  0  0
    4.3274   -3.8590    1.0768 H   0  0  0  0  0  0  0  0  0  0  0  0
    5.1547   -2.7124   -0.0347 H   0  0  0  0  0  0  0  0  0  0  0  0
    6.5851   -4.6277    0.0380 H   0  0  0  0  0  0  0  0  0  0  0  0
    5.6989   -4.7508   -1.4899 H   0  0  0  0  0  0  0  0  0  0  0  0
    4.3193   -8.4404    0.5996 H   0  0  0  0  0  0  0  0  0  0  0  0
    5.9460   -9.1305    0.4544 H   0  0  0  0  0  0  0  0  0  0  0  0
    3.7986   -9.0272   -1.7418 H   0  0  0  0  0  0  0  0  0  0  0  0
    4.4158  -10.4774   -0.9296 H   0  0  0  0  0  0  0  0  0  0  0  0
    5.4580  -10.1185   -3.2332 H   0  0  0  0  0  0  0  0  0  0  0  0
    6.6563  -10.1535   -1.9395 H   0  0  0  0  0  0  0  0  0  0  0  0
    5.4572   -7.6490   -3.2670 H   0  0  0  0  0  0  0  0  0  0  0  0
    7.1136   -8.2291   -3.4693 H   0  0  0  0  0  0  0  0  0  0  0  0
    6.8126   -6.2728   -1.9077 H   0  0  0  0  0  0  0  0  0  0  0  0
    8.0578   -8.7686   -0.6245 H   0  0  0  0  0  0  0  0  0  0  0  0
    8.1545   -7.1353    0.0387 H   0  0  0  0  0  0  0  0  0  0  0  0
    9.2908   -6.3526   -2.0647 H   0  0  0  0  0  0  0  0  0  0  0  0
    9.2093   -7.9969   -2.7200 H   0  0  0  0  0  0  0  0  0  0  0  0
   10.5743   -7.3314   -0.3422 H   0  0  0  0  0  0  0  0  0  0  0  0
    3.2425   -1.8536    1.1293 H   0  0  0  0  0  0  0  0  0  0  0  0
  1  2  1  0
  1 22  1  0
  1 23  1  0
  1 24  1  0
  2  3  2  0
  2 21  1  0
  3  4  1  0
  3 25  1  0
  4  5  2  0
  4 26  1  0
  5  6  1  0
  5 27  1  0
  6  7  1  0
  6 21  2  0
  7  8  1  0
  8  9  1  0
  8 28  1  0
  8 29  1  0
  9 10  1  0
  9 30  1  0
  9 31  1  0
 10 11  2  0
 10 12  1  0
 12 13  1  0
 12 17  1  0
 13 14  1  0
 13 32  1  0
 13 33  1  0
 14 15  1  0
 14 34  1  0
 14 35  1  0
 15 16  1  0
 15 36  1  0
 15 37  1  0
 16 17  1  0
 16 38  1  0
 16 39  1  0
 17 18  1  0
 17 40  1  6
 18 19  1  0
 18 41  1  0
 18 42  1  0
 19 20  1  0
 19 43  1  0
 19 44  1  0
 20 45  1  0
 21 46  1  0
M  END

