
     RDKit          3D

 45 47  0  0  0  0  0  0  0  0999 V2000
    3.5218   -5.0544   -2.4974 C   0  0  0  0  0  0  0  0  0  0  0  0
    3.6002   -3.7767   -1.6610 C   0  0  0  0  0  0  0  0  0  0  0  0
    3.7900   -4.0406   -0.2375 N   0  0  0  0  0  0  0  0  0  0  0  0
    5.1269   -4.4809    0.1572 C   0  0  0  0  0  0  0  0  0  0  0  0
    6.1306   -3.3217    0.2926 C   0  0  0  0  0  0  0  0  0  0  0  0
    5.6122   -2.2579    1.1658 N   0  0  0  0  0  0  0  0  0  0  0  0
    6.0242   -2.3533    2.8040 S   0  0  1  0  0  0  0  0  0  0  0  0
    5.1325   -1.4214    3.5026 O   0  0  0  0  0  0  0  0  0  0  0  0
    6.1097   -3.7589    3.2354 O   0  0  0  0  0  0  0  0  0  0  0  0
    7.6900   -1.6939    2.8329 C   0  0  0  0  0  0  0  0  0  0  0  0
    7.9114   -0.3619    2.4781 C   0  0  0  0  0  0  0  0  0  0  0  0
    9.2126    0.1315    2.5539 C   0  0  0  0  0  0  0  0  0  0  0  0
   10.2670   -0.6795    2.9818 C   0  0  0  0  0  0  0  0  0  0  0  0
   10.0422   -2.0345    3.3545 C   0  0  0  0  0  0  0  0  0  0  0  0
    8.7270   -2.5253    3.2622 C   0  0  0  0  0  0  0  0  0  0  0  0
   11.1125   -2.8139    3.7885 N   0  0  0  0  0  0  0  0  0  0  0  0
   10.9391   -4.2349    3.9891 C   0  0  0  0  0  0  0  0  0  0  0  0
   12.4360   -2.3199    3.4640 C   0  0  0  0  0  0  0  0  0  0  0  0
   12.4945   -0.8271    3.7539 C   0  0  0  0  0  0  0  0  0  0  0  0
   11.5114   -0.1255    3.0092 O   0  0  0  0  0  0  0  0  0  0  0  0
    4.2530   -1.8141    0.8200 C   0  0  0  0  0  0  0  0  0  0  0  0
    3.2989   -3.0097    0.6724 C   0  0  0  0  0  0  0  0  0  0  0  0
    3.3107   -4.8129   -3.5517 H   0  0  0  0  0  0  0  0  0  0  0  0
    2.7241   -5.7122   -2.1189 H   0  0  0  0  0  0  0  0  0  0  0  0
    4.4651   -5.6234   -2.4761 H   0  0  0  0  0  0  0  0  0  0  0  0
    2.6477   -3.2314   -1.7664 H   0  0  0  0  0  0  0  0  0  0  0  0
    4.3765   -3.1065   -2.0956 H   0  0  0  0  0  0  0  0  0  0  0  0
    5.5044   -5.2211   -0.5655 H   0  0  0  0  0  0  0  0  0  0  0  0
    5.0584   -4.9840    1.1362 H   0  0  0  0  0  0  0  0  0  0  0  0
    6.3422   -2.8646   -0.6905 H   0  0  0  0  0  0  0  0  0  0  0  0
    7.0905   -3.6838    0.6892 H   0  0  0  0  0  0  0  0  0  0  0  0
    7.0874    0.2750    2.1547 H   0  0  0  0  0  0  0  0  0  0  0  0
    9.4443    1.1649    2.2884 H   0  0  0  0  0  0  0  0  0  0  0  0
    8.4873   -3.5536    3.5264 H   0  0  0  0  0  0  0  0  0  0  0  0
   10.1231   -4.4358    4.7009 H   0  0  0  0  0  0  0  0  0  0  0  0
   11.8619   -4.6517    4.4177 H   0  0  0  0  0  0  0  0  0  0  0  0
   10.7143   -4.7858    3.0525 H   0  0  0  0  0  0  0  0  0  0  0  0
   12.7072   -2.5005    2.4016 H   0  0  0  0  0  0  0  0  0  0  0  0
   13.1815   -2.8401    4.0865 H   0  0  0  0  0  0  0  0  0  0  0  0
   13.4665   -0.4043    3.4621 H   0  0  0  0  0  0  0  0  0  0  0  0
   12.3428   -0.6506    4.8345 H   0  0  0  0  0  0  0  0  0  0  0  0
    4.3254   -1.2530   -0.1293 H   0  0  0  0  0  0  0  0  0  0  0  0
    3.9037   -1.1194    1.5949 H   0  0  0  0  0  0  0  0  0  0  0  0
    2.3088   -2.6641    0.3320 H   0  0  0  0  0  0  0  0  0  0  0  0
    3.1599   -3.4630    1.6708 H   0  0  0  0  0  0  0  0  0  0  0  0
  1  2  1  0
  1 23  1  0
  1 24  1  0
  1 25  1  0
  2  3  1  0
  2 26  1  0
  2 27  1  0
  3  4  1  0
  3 22  1  0
  4  5  1  0
  4 28  1  0
  4 29  1  0
  5  6  1  0
  5 30  1  0
  5 31  1  0
  6  7  1  0
  6 21  1  0
  7  8  2  0
  7  9  2  0
  7 10  1  6
 10 11  2  0
 10 15  1  0
 11 12  1  0
 11 32  1  0
 12 13  2  0
 12 33  1  0
 13 14  1  0
 13 20  1  0
 14 15  2  0
 14 16  1  0
 15 34  1  0
 16 17  1  0
 16 18  1  0
 17 35  1  0
 17 36  1  0
 17 37  1  0
 18 19  1  0
 18 38  1  0
 18 39  1  0
 19 20  1  0
 19 40  1  0
 19 41  1  0
 21 22  1  0
 21 42  1  0
 21 43  1  0
 22 44  1  0
 22 45  1  0
M  END

