
     RDKit          3D

 40 43  0  0  0  0  0  0  0  0999 V2000
    2.1367   -2.1886    3.0357 C   0  0  0  0  0  0  0  0  0  0  0  0
    3.4707   -1.9370    2.3741 C   0  0  0  0  0  0  0  0  0  0  0  0
    4.6808   -2.2815    3.0010 C   0  0  0  0  0  0  0  0  0  0  0  0
    5.9116   -2.0393    2.3956 C   0  0  0  0  0  0  0  0  0  0  0  0
    5.9674   -1.4389    1.1291 C   0  0  0  0  0  0  0  0  0  0  0  0
    7.2166   -1.2418    0.6117 O   0  0  0  0  0  0  0  0  0  0  0  0
    7.3497   -0.6274   -0.6549 C   0  0  0  0  0  0  0  0  0  0  0  0
    8.8150   -0.5057   -0.9974 C   0  0  0  0  0  0  0  0  0  0  0  0
    9.3553    0.7233   -1.2189 C   0  0  0  0  0  0  0  0  0  0  0  0
   10.7485    0.9153   -1.5997 C   0  0  0  0  0  0  0  0  0  0  0  0
   11.3015    1.9607   -1.8128 O   0  0  0  0  0  0  0  0  0  0  0  0
   11.4893   -0.2590   -1.7220 O   0  0  0  0  0  0  0  0  0  0  0  0
   10.9817   -1.4953   -1.5089 C   0  0  0  0  0  0  0  0  0  0  0  0
    9.6481   -1.6884   -1.1381 C   0  0  0  0  0  0  0  0  0  0  0  0
    9.1863   -3.0266   -0.9336 C   0  0  0  0  0  0  0  0  0  0  0  0
   10.0244   -4.0987   -1.1037 C   0  0  0  0  0  0  0  0  0  0  0  0
   11.3884   -3.9152   -1.4849 C   0  0  0  0  0  0  0  0  0  0  0  0
   12.2790   -5.0065   -1.6659 C   0  0  0  0  0  0  0  0  0  0  0  0
   13.5933   -4.7949   -2.0339 C   0  0  0  0  0  0  0  0  0  0  0  0
   14.0769   -3.4798   -2.2379 C   0  0  0  0  0  0  0  0  0  0  0  0
   13.2398   -2.3946   -2.0709 C   0  0  0  0  0  0  0  0  0  0  0  0
   11.8847   -2.5882   -1.6924 C   0  0  0  0  0  0  0  0  0  0  0  0
    4.7740   -1.0866    0.4829 C   0  0  0  0  0  0  0  0  0  0  0  0
    3.5484   -1.3391    1.1095 C   0  0  0  0  0  0  0  0  0  0  0  0
    2.2511   -2.7610    3.9683 H   0  0  0  0  0  0  0  0  0  0  0  0
    1.4578   -2.7541    2.3762 H   0  0  0  0  0  0  0  0  0  0  0  0
    1.6263   -1.2431    3.2875 H   0  0  0  0  0  0  0  0  0  0  0  0
    4.6596   -2.7511    3.9886 H   0  0  0  0  0  0  0  0  0  0  0  0
    6.8490   -2.3074    2.8873 H   0  0  0  0  0  0  0  0  0  0  0  0
    6.8874    0.3751   -0.6529 H   0  0  0  0  0  0  0  0  0  0  0  0
    6.8371   -1.2297   -1.4311 H   0  0  0  0  0  0  0  0  0  0  0  0
    8.7694    1.6387   -1.1225 H   0  0  0  0  0  0  0  0  0  0  0  0
    8.1552   -3.1862   -0.6194 H   0  0  0  0  0  0  0  0  0  0  0  0
    9.6554   -5.1143   -0.9416 H   0  0  0  0  0  0  0  0  0  0  0  0
   11.9051   -6.0216   -1.5079 H   0  0  0  0  0  0  0  0  0  0  0  0
   14.2659   -5.6457   -2.1690 H   0  0  0  0  0  0  0  0  0  0  0  0
   15.1187   -3.3246   -2.5288 H   0  0  0  0  0  0  0  0  0  0  0  0
   13.6017   -1.3773   -2.2252 H   0  0  0  0  0  0  0  0  0  0  0  0
    4.7797   -0.6194   -0.5024 H   0  0  0  0  0  0  0  0  0  0  0  0
    2.6274   -1.0581    0.5897 H   0  0  0  0  0  0  0  0  0  0  0  0
  1  2  1  0
  1 25  1  0
  1 26  1  0
  1 27  1  0
  2  3  2  0
  2 24  1  0
  3  4  1  0
  3 28  1  0
  4  5  2  0
  4 29  1  0
  5  6  1  0
  5 23  1  0
  6  7  1  0
  7  8  1  0
  7 30  1  0
  7 31  1  0
  8  9  2  0
  8 14  1  0
  9 10  1  0
  9 32  1  0
 10 11  2  0
 10 12  1  0
 12 13  1  0
 13 14  2  0
 13 22  1  0
 14 15  1  0
 15 16  2  0
 15 33  1  0
 16 17  1  0
 16 34  1  0
 17 18  1  0
 17 22  2  0
 18 19  2  0
 18 35  1  0
 19 20  1  0
 19 36  1  0
 20 21  2  0
 20 37  1  0
 21 22  1  0
 21 38  1  0
 23 24  2  0
 23 39  1  0
 24 40  1  0
M  END

