
     RDKit          3D

 31 32  0  0  0  0  0  0  0  0999 V2000
    1.3327    0.0435   -0.9064 N   0  0  0  0  0  0  0  0  0  0  0  0
    2.4672   -0.0878   -0.0964 C   0  0  0  0  0  0  0  0  0  0  0  0
    3.3956    0.9767    0.1383 C   0  0  0  0  0  0  0  0  0  0  0  0
    4.4341    0.6004    0.9537 C   0  0  0  0  0  0  0  0  0  0  0  0
    4.3124   -1.0356    1.4692 S   0  0  0  0  0  0  0  0  0  0  0  0
    2.8481   -1.2622    0.5474 C   0  0  0  0  0  0  0  0  0  0  0  0
    2.2464   -2.6120    0.5540 C   0  0  0  0  0  0  0  0  0  0  0  0
    2.5814   -3.4713    1.3604 O   0  0  0  0  0  0  0  0  0  0  0  0
    1.2881   -2.8448   -0.4074 N   0  0  0  0  0  0  0  0  0  0  0  0
    0.7123   -4.1728   -0.5603 C   0  0  0  0  0  0  0  0  0  0  0  0
   -0.4272   -4.4533    0.4401 C   0  0  0  0  0  0  0  0  0  0  0  0
   -0.9801   -5.8539    0.3076 C   0  0  0  0  0  0  0  0  0  0  0  0
   -0.3264   -6.9380    0.9177 C   0  0  0  0  0  0  0  0  0  0  0  0
   -0.8066   -8.2417    0.7693 C   0  0  0  0  0  0  0  0  0  0  0  0
   -1.9527   -8.4866    0.0060 C   0  0  0  0  0  0  0  0  0  0  0  0
   -2.6134   -7.4180   -0.6065 C   0  0  0  0  0  0  0  0  0  0  0  0
   -2.1285   -6.1151   -0.4566 C   0  0  0  0  0  0  0  0  0  0  0  0
    1.1347    1.0013   -1.1792 H   0  0  0  0  0  0  0  0  0  0  0  0
    0.4996   -0.3967   -0.5215 H   0  0  0  0  0  0  0  0  0  0  0  0
    3.2805    1.9797   -0.2777 H   0  0  0  0  0  0  0  0  0  0  0  0
    5.2641    1.2211    1.2896 H   0  0  0  0  0  0  0  0  0  0  0  0
    1.2459   -2.2033   -1.1932 H   0  0  0  0  0  0  0  0  0  0  0  0
    1.5017   -4.9290   -0.4201 H   0  0  0  0  0  0  0  0  0  0  0  0
    0.3385   -4.2674   -1.5915 H   0  0  0  0  0  0  0  0  0  0  0  0
   -1.2275   -3.7102    0.2877 H   0  0  0  0  0  0  0  0  0  0  0  0
   -0.0247   -4.3008    1.4533 H   0  0  0  0  0  0  0  0  0  0  0  0
    0.5675   -6.7526    1.5208 H   0  0  0  0  0  0  0  0  0  0  0  0
   -0.2856   -9.0706    1.2560 H   0  0  0  0  0  0  0  0  0  0  0  0
   -2.3311   -9.5057   -0.1076 H   0  0  0  0  0  0  0  0  0  0  0  0
   -3.5129   -7.5983   -1.2013 H   0  0  0  0  0  0  0  0  0  0  0  0
   -2.6557   -5.2839   -0.9352 H   0  0  0  0  0  0  0  0  0  0  0  0
  1  2  1  0
  1 18  1  0
  1 19  1  0
  2  3  2  0
  2  6  1  0
  3  4  1  0
  3 20  1  0
  4  5  2  0
  4 21  1  0
  5  6  1  0
  6  7  2  0
  7  8  1  0
  7  9  1  0
  9 10  1  0
  9 22  1  0
 10 11  1  0
 10 23  1  0
 10 24  1  0
 11 12  1  0
 11 25  1  0
 11 26  1  0
 12 13  2  0
 12 17  1  0
 13 14  1  0
 13 27  1  0
 14 15  2  0
 14 28  1  0
 15 16  1  0
 15 29  1  0
 16 17  2  0
 16 30  1  0
 17 31  1  0
M  CHG  2   5   1   8  -1
M  END

