
     RDKit          3D

 30 31  0  0  0  0  0  0  0  0999 V2000
    1.8227    0.4494   -0.9745 F   0  0  0  0  0  0  0  0  0  0  0  0
    2.6022   -0.1342   -0.0495 C   0  0  1  0  0  0  0  0  0  0  0  0
    2.0012   -1.2785    0.3231 F   0  0  0  0  0  0  0  0  0  0  0  0
    3.7530   -0.4794   -0.6562 F   0  0  0  0  0  0  0  0  0  0  0  0
    2.8541    0.7672    1.1355 C   0  0  0  0  0  0  0  0  0  0  0  0
    2.4948    2.1171    1.0977 C   0  0  0  0  0  0  0  0  0  0  0  0
    2.7544    2.9676    2.1832 C   0  0  0  0  0  0  0  0  0  0  0  0
    2.3672    4.4282    2.1190 C   0  0  1  0  0  0  0  0  0  0  0  0
    1.4081    4.9237    3.2277 C   0  0  0  0  0  0  0  0  0  0  0  0
    1.6149    6.4561    3.2568 C   0  0  0  0  0  0  0  0  0  0  0  0
    2.8175    6.6896    2.4460 N   0  0  0  0  0  0  0  0  0  0  0  0
    3.5257    5.4366    2.2499 C   0  0  0  0  0  0  0  0  0  0  0  0
    3.3849    2.4213    3.3109 C   0  0  0  0  0  0  0  0  0  0  0  0
    3.7422    1.0695    3.3522 C   0  0  0  0  0  0  0  0  0  0  0  0
    4.3652    0.4996    4.6042 C   0  0  1  0  0  0  0  0  0  0  0  0
    5.1146    1.4126    5.2477 F   0  0  0  0  0  0  0  0  0  0  0  0
    3.4261    0.0810    5.4735 F   0  0  0  0  0  0  0  0  0  0  0  0
    5.1516   -0.5557    4.3359 F   0  0  0  0  0  0  0  0  0  0  0  0
    3.4804    0.2335    2.2652 C   0  0  0  0  0  0  0  0  0  0  0  0
    2.0049    2.5147    0.2071 H   0  0  0  0  0  0  0  0  0  0  0  0
    1.8899    4.6148    1.1437 H   0  0  0  0  0  0  0  0  0  0  0  0
    1.6973    4.4786    4.1932 H   0  0  0  0  0  0  0  0  0  0  0  0
    0.3642    4.6318    3.0393 H   0  0  0  0  0  0  0  0  0  0  0  0
    1.7162    6.8095    4.3013 H   0  0  0  0  0  0  0  0  0  0  0  0
    0.7501    6.9924    2.8260 H   0  0  0  0  0  0  0  0  0  0  0  0
    3.4031    7.4467    2.7847 H   0  0  0  0  0  0  0  0  0  0  0  0
    4.1834    5.1399    3.0985 H   0  0  0  0  0  0  0  0  0  0  0  0
    4.1573    5.4654    1.3457 H   0  0  0  0  0  0  0  0  0  0  0  0
    3.6118    3.0520    4.1724 H   0  0  0  0  0  0  0  0  0  0  0  0
    3.7641   -0.8195    2.2982 H   0  0  0  0  0  0  0  0  0  0  0  0
  2  1  1  6
  2  3  1  0
  2  4  1  0
  2  5  1  0
  5  6  2  0
  5 19  1  0
  6  7  1  0
  6 20  1  0
  7  8  1  0
  7 13  2  0
  8  9  1  0
  8 12  1  0
  8 21  1  6
  9 10  1  0
  9 22  1  0
  9 23  1  0
 10 11  1  0
 10 24  1  0
 10 25  1  0
 11 12  1  0
 11 26  1  0
 12 27  1  0
 12 28  1  0
 13 14  1  0
 13 29  1  0
 14 15  1  0
 14 19  2  0
 15 16  1  1
 15 17  1  0
 15 18  1  0
 19 30  1  0
M  END

