
     RDKit          3D

 34 35  0  0  0  0  0  0  0  0999 V2000
    5.0141    0.4292    0.7408 C   0  0  0  0  0  0  0  0  0  0  0  0
    4.9394    0.1574   -0.7615 C   0  0  0  0  0  0  0  0  0  0  0  0
    3.9869   -0.8811   -1.1180 N   0  0  0  0  0  0  0  0  0  0  0  0
    2.6013   -0.7546   -1.2284 C   0  0  0  0  0  0  0  0  0  0  0  0
    2.0957   -1.9737   -1.5391 C   0  0  0  0  0  0  0  0  0  0  0  0
    3.1695   -2.8621   -1.6158 N   0  0  0  0  0  0  0  0  0  0  0  0
    3.1105   -4.2622   -1.9821 C   0  0  0  0  0  0  0  0  0  0  0  0
    2.3110   -5.1133   -0.9799 C   0  0  0  0  0  0  0  0  0  0  0  0
    1.1697   -5.4495   -1.2642 O   0  0  0  0  0  0  0  0  0  0  0  0
    2.9087   -5.4515    0.2041 N   0  0  0  0  0  0  0  0  0  0  0  0
    2.1606   -6.2397    1.1820 C   0  0  0  0  0  0  0  0  0  0  0  0
    3.0159   -7.4103    1.6624 C   0  0  0  0  0  0  0  0  0  0  0  0
    4.2657   -6.9712    2.1573 O   0  0  0  0  0  0  0  0  0  0  0  0
    4.9986   -6.2594    1.1815 C   0  0  0  0  0  0  0  0  0  0  0  0
    4.2286   -5.0380    0.6769 C   0  0  0  0  0  0  0  0  0  0  0  0
    4.3619   -2.1956   -1.3526 C   0  0  0  0  0  0  0  0  0  0  0  0
    5.4905   -2.6750   -1.3271 O   0  0  0  0  0  0  0  0  0  0  0  0
    5.7483    1.2240    0.9482 H   0  0  0  0  0  0  0  0  0  0  0  0
    5.3268   -0.4753    1.2848 H   0  0  0  0  0  0  0  0  0  0  0  0
    4.0403    0.7534    1.1418 H   0  0  0  0  0  0  0  0  0  0  0  0
    5.9169   -0.1814   -1.1353 H   0  0  0  0  0  0  0  0  0  0  0  0
    4.6724    1.0754   -1.3112 H   0  0  0  0  0  0  0  0  0  0  0  0
    2.0964    0.1966   -1.0840 H   0  0  0  0  0  0  0  0  0  0  0  0
    1.0735   -2.2985   -1.7121 H   0  0  0  0  0  0  0  0  0  0  0  0
    4.1488   -4.6004   -2.1024 H   0  0  0  0  0  0  0  0  0  0  0  0
    2.5869   -4.3796   -2.9420 H   0  0  0  0  0  0  0  0  0  0  0  0
    1.2328   -6.5833    0.7071 H   0  0  0  0  0  0  0  0  0  0  0  0
    1.8971   -5.5999    2.0454 H   0  0  0  0  0  0  0  0  0  0  0  0
    3.1629   -8.1258    0.8266 H   0  0  0  0  0  0  0  0  0  0  0  0
    2.5126   -7.9410    2.4850 H   0  0  0  0  0  0  0  0  0  0  0  0
    5.2408   -6.9201    0.3225 H   0  0  0  0  0  0  0  0  0  0  0  0
    5.9430   -5.9451    1.6510 H   0  0  0  0  0  0  0  0  0  0  0  0
    4.8031   -4.5209   -0.1026 H   0  0  0  0  0  0  0  0  0  0  0  0
    4.1028   -4.3266    1.5155 H   0  0  0  0  0  0  0  0  0  0  0  0
  1  2  1  0
  1 18  1  0
  1 19  1  0
  1 20  1  0
  2  3  1  0
  2 21  1  0
  2 22  1  0
  3  4  1  0
  3 16  1  0
  4  5  2  0
  4 23  1  0
  5  6  1  0
  5 24  1  0
  6  7  1  0
  6 16  1  0
  7  8  1  0
  7 25  1  0
  7 26  1  0
  8  9  2  0
  8 10  1  0
 10 11  1  0
 10 15  1  0
 11 12  1  0
 11 27  1  0
 11 28  1  0
 12 13  1  0
 12 29  1  0
 12 30  1  0
 13 14  1  0
 14 15  1  0
 14 31  1  0
 14 32  1  0
 15 33  1  0
 15 34  1  0
 16 17  2  0
M  END

