
     RDKit          3D

 49 52  0  0  0  0  0  0  0  0999 V2000
    1.1780   -2.0166    1.1302 C   0  0  0  0  0  0  0  0  0  0  0  0
    2.5987   -2.0421    1.2650 O   0  0  0  0  0  0  0  0  0  0  0  0
    3.2772   -1.2440    0.4275 C   0  0  0  0  0  0  0  0  0  0  0  0
    2.7640   -0.5667   -0.4294 O   0  0  0  0  0  0  0  0  0  0  0  0
    4.7426   -1.2805    0.6778 C   0  0  0  0  0  0  0  0  0  0  0  0
    5.6117   -0.1569    0.7212 C   0  0  0  0  0  0  0  0  0  0  0  0
    5.2932    1.2768    0.6271 C   0  0  0  0  0  0  0  0  0  0  0  0
    6.1239    2.1522   -0.0060 C   0  0  0  0  0  0  0  0  0  0  0  0
    5.8261    3.5576   -0.0746 C   0  0  0  0  0  0  0  0  0  0  0  0
    6.6381    4.5083   -0.7285 C   0  0  0  0  0  0  0  0  0  0  0  0
    6.2681    5.8473   -0.7666 C   0  0  0  0  0  0  0  0  0  0  0  0
    5.0738    6.2616   -0.1513 C   0  0  0  0  0  0  0  0  0  0  0  0
    4.2537    5.3439    0.5012 C   0  0  0  0  0  0  0  0  0  0  0  0
    4.6342    3.9983    0.5373 C   0  0  0  0  0  0  0  0  0  0  0  0
    3.8239    3.1241    1.1866 O   0  0  0  0  0  0  0  0  0  0  0  0
    4.0849    1.7721    1.3158 C   0  0  0  0  0  0  0  0  0  0  0  0
    3.3299    1.1153    1.9843 O   0  0  0  0  0  0  0  0  0  0  0  0
    6.8760   -0.5498    0.8800 N   0  0  0  0  0  0  0  0  0  0  0  0
    6.8578   -1.8873    0.9577 N   0  0  0  0  0  0  0  0  0  0  0  0
    8.1149   -2.5734    1.0523 C   0  0  0  0  0  0  0  0  0  0  0  0
    8.3533   -3.5106    2.0630 C   0  0  0  0  0  0  0  0  0  0  0  0
    9.6081   -4.1169    2.1294 C   0  0  0  0  0  0  0  0  0  0  0  0
   10.6109   -3.7858    1.2140 C   0  0  0  0  0  0  0  0  0  0  0  0
   10.3829   -2.8357    0.2071 C   0  0  0  0  0  0  0  0  0  0  0  0
   11.4620   -2.4539   -0.7775 C   0  0  0  0  0  0  0  0  0  0  0  0
    9.1181   -2.2346    0.1385 C   0  0  0  0  0  0  0  0  0  0  0  0
    5.5795   -2.3823    0.8306 C   0  0  0  0  0  0  0  0  0  0  0  0
    5.2284   -3.8265    0.8000 C   0  0  0  0  0  0  0  0  0  0  0  0
    5.7346   -4.6935    1.4723 O   0  0  0  0  0  0  0  0  0  0  0  0
    4.2522   -4.0506   -0.0913 O   0  0  0  0  0  0  0  0  0  0  0  0
    3.7404   -5.3829   -0.1464 C   0  0  0  0  0  0  0  0  0  0  0  0
    0.7868   -2.7076    1.8871 H   0  0  0  0  0  0  0  0  0  0  0  0
    0.8724   -2.3371    0.1224 H   0  0  0  0  0  0  0  0  0  0  0  0
    0.7961   -1.0002    1.3069 H   0  0  0  0  0  0  0  0  0  0  0  0
    7.0339    1.7768   -0.4803 H   0  0  0  0  0  0  0  0  0  0  0  0
    7.5627    4.1727   -1.2053 H   0  0  0  0  0  0  0  0  0  0  0  0
    6.9024    6.5770   -1.2744 H   0  0  0  0  0  0  0  0  0  0  0  0
    4.7827    7.3144   -0.1826 H   0  0  0  0  0  0  0  0  0  0  0  0
    3.3231    5.6424    0.9867 H   0  0  0  0  0  0  0  0  0  0  0  0
    7.5680   -3.7653    2.7717 H   0  0  0  0  0  0  0  0  0  0  0  0
    9.8068   -4.8536    2.9116 H   0  0  0  0  0  0  0  0  0  0  0  0
   11.5885   -4.2707    1.2837 H   0  0  0  0  0  0  0  0  0  0  0  0
   12.3448   -3.1025   -0.6802 H   0  0  0  0  0  0  0  0  0  0  0  0
   11.7930   -1.4130   -0.6211 H   0  0  0  0  0  0  0  0  0  0  0  0
   11.1021   -2.5246   -1.8167 H   0  0  0  0  0  0  0  0  0  0  0  0
    8.9021   -1.4869   -0.6271 H   0  0  0  0  0  0  0  0  0  0  0  0
    2.9630   -5.3770   -0.9197 H   0  0  0  0  0  0  0  0  0  0  0  0
    3.3134   -5.6744    0.8251 H   0  0  0  0  0  0  0  0  0  0  0  0
    4.5365   -6.0958   -0.4076 H   0  0  0  0  0  0  0  0  0  0  0  0
  1  2  1  0
  1 32  1  0
  1 33  1  0
  1 34  1  0
  2  3  1  0
  3  4  2  0
  3  5  1  0
  5  6  1  0
  5 27  2  0
  6  7  1  0
  6 18  2  0
  7  8  2  0
  7 16  1  0
  8  9  1  0
  8 35  1  0
  9 10  2  0
  9 14  1  0
 10 11  1  0
 10 36  1  0
 11 12  2  0
 11 37  1  0
 12 13  1  0
 12 38  1  0
 13 14  2  0
 13 39  1  0
 14 15  1  0
 15 16  1  0
 16 17  2  0
 18 19  1  0
 19 20  1  0
 19 27  1  0
 20 21  2  0
 20 26  1  0
 21 22  1  0
 21 40  1  0
 22 23  2  0
 22 41  1  0
 23 24  1  0
 23 42  1  0
 24 25  1  0
 24 26  2  0
 25 43  1  0
 25 44  1  0
 25 45  1  0
 26 46  1  0
 27 28  1  0
 28 29  2  0
 28 30  1  0
 30 31  1  0
 31 47  1  0
 31 48  1  0
 31 49  1  0
M  END

