
     RDKit          3D

 59 60  0  0  0  0  0  0  0  0999 V2000
    2.7095    1.1023   -1.2034 C   0  0  0  0  0  0  0  0  0  0  0  0
    2.2054    0.8408    0.1341 N   0  0  0  0  0  0  0  0  0  0  0  0
    1.5263   -0.4669    0.2309 C   0  0  1  0  0  0  0  0  0  0  0  0
    0.8917   -0.7398    1.6107 C   0  0  0  0  0  0  0  0  0  0  0  0
   -0.2547    0.2280    1.9355 C   0  0  0  0  0  0  0  0  0  0  0  0
   -1.3910    0.2310    0.8803 C   0  0  2  0  0  0  0  0  0  0  0  0
   -2.3292    1.4194    1.1499 C   0  0  0  0  0  0  0  0  0  0  0  0
   -2.2182   -1.0675    0.9696 C   0  0  0  0  0  0  0  0  0  0  0  0
   -0.7620    0.3843   -0.5283 C   0  0  0  0  0  0  0  0  0  0  0  0
    0.3839   -0.5970   -0.8033 C   0  0  0  0  0  0  0  0  0  0  0  0
    3.1021    1.1837    1.2554 C   0  0  1  0  0  0  0  0  0  0  0  0
    4.3870    0.3196    1.4154 C   0  0  0  0  0  0  0  0  0  0  0  0
    5.6255    0.7861    0.6210 C   0  0  2  0  0  0  0  0  0  0  0  0
    6.8675   -0.1685    0.7536 C   0  0  1  0  0  0  0  0  0  0  0  0
    6.4898   -1.5880    0.2794 C   0  0  0  0  0  0  0  0  0  0  0  0
    8.0067    0.3347   -0.1584 C   0  0  0  0  0  0  0  0  0  0  0  0
    7.3945   -0.2531    2.1999 C   0  0  0  0  0  0  0  0  0  0  0  0
    5.9072    2.2562    0.9863 C   0  0  0  0  0  0  0  0  0  0  0  0
    4.7049    3.1599    0.6826 C   0  0  0  0  0  0  0  0  0  0  0  0
    3.4053    2.7146    1.3791 C   0  0  2  0  0  0  0  0  0  0  0  0
    3.4616    3.1684    2.7753 N   0  0  0  0  0  0  0  0  0  0  0  0
    1.8846    1.2291   -1.9203 H   0  0  0  0  0  0  0  0  0  0  0  0
    3.3683    0.2977   -1.6027 H   0  0  0  0  0  0  0  0  0  0  0  0
    3.2783    2.0375   -1.2235 H   0  0  0  0  0  0  0  0  0  0  0  0
    2.2514   -1.2884    0.0225 H   0  0  0  0  0  0  0  0  0  0  0  0
    1.6405   -0.7296    2.4169 H   0  0  0  0  0  0  0  0  0  0  0  0
    0.5137   -1.7752    1.5888 H   0  0  0  0  0  0  0  0  0  0  0  0
    0.1527    1.2508    2.0063 H   0  0  0  0  0  0  0  0  0  0  0  0
   -0.6771   -0.0102    2.9277 H   0  0  0  0  0  0  0  0  0  0  0  0
   -2.7853    1.3483    2.1517 H   0  0  0  0  0  0  0  0  0  0  0  0
   -3.1481    1.4554    0.4120 H   0  0  0  0  0  0  0  0  0  0  0  0
   -1.7860    2.3770    1.0949 H   0  0  0  0  0  0  0  0  0  0  0  0
   -2.6786   -1.1698    1.9663 H   0  0  0  0  0  0  0  0  0  0  0  0
   -1.6166   -1.9719    0.7920 H   0  0  0  0  0  0  0  0  0  0  0  0
   -3.0322   -1.0636    0.2259 H   0  0  0  0  0  0  0  0  0  0  0  0
   -0.3718    1.4113   -0.6247 H   0  0  0  0  0  0  0  0  0  0  0  0
   -1.5486    0.2709   -1.2950 H   0  0  0  0  0  0  0  0  0  0  0  0
    0.7542   -0.4689   -1.8307 H   0  0  0  0  0  0  0  0  0  0  0  0
    0.0178   -1.6360   -0.7569 H   0  0  0  0  0  0  0  0  0  0  0  0
    2.5016    0.9796    2.1491 H   0  0  0  0  0  0  0  0  0  0  0  0
    4.1358   -0.7243    1.1773 H   0  0  0  0  0  0  0  0  0  0  0  0
    4.6504    0.3225    2.4886 H   0  0  0  0  0  0  0  0  0  0  0  0
    5.3667    0.7675   -0.4529 H   0  0  0  0  0  0  0  0  0  0  0  0
    6.0634   -1.5701   -0.7376 H   0  0  0  0  0  0  0  0  0  0  0  0
    5.7574   -2.0717    0.9432 H   0  0  0  0  0  0  0  0  0  0  0  0
    7.3815   -2.2354    0.2545 H   0  0  0  0  0  0  0  0  0  0  0  0
    7.6635    0.4502   -1.2002 H   0  0  0  0  0  0  0  0  0  0  0  0
    8.8430   -0.3833   -0.1618 H   0  0  0  0  0  0  0  0  0  0  0  0
    8.4123    1.3028    0.1718 H   0  0  0  0  0  0  0  0  0  0  0  0
    6.6365   -0.6491    2.8940 H   0  0  0  0  0  0  0  0  0  0  0  0
    7.7205    0.7286    2.5782 H   0  0  0  0  0  0  0  0  0  0  0  0
    8.2652   -0.9274    2.2504 H   0  0  0  0  0  0  0  0  0  0  0  0
    6.7820    2.6392    0.4394 H   0  0  0  0  0  0  0  0  0  0  0  0
    6.1669    2.3286    2.0581 H   0  0  0  0  0  0  0  0  0  0  0  0
    4.5598    3.1946   -0.4087 H   0  0  0  0  0  0  0  0  0  0  0  0
    4.9150    4.1930    1.0010 H   0  0  0  0  0  0  0  0  0  0  0  0
    2.5550    3.2399    0.9126 H   0  0  0  0  0  0  0  0  0  0  0  0
    4.2027    2.6839    3.2833 H   0  0  0  0  0  0  0  0  0  0  0  0
    2.5928    2.9401    3.2588 H   0  0  0  0  0  0  0  0  0  0  0  0
  1  2  1  0
  1 22  1  0
  1 23  1  0
  1 24  1  0
  2  3  1  0
  2 11  1  0
  3  4  1  0
  3 10  1  0
  3 25  1  6
  4  5  1  0
  4 26  1  0
  4 27  1  0
  5  6  1  0
  5 28  1  0
  5 29  1  0
  6  7  1  1
  6  8  1  0
  6  9  1  0
  7 30  1  0
  7 31  1  0
  7 32  1  0
  8 33  1  0
  8 34  1  0
  8 35  1  0
  9 10  1  0
  9 36  1  0
  9 37  1  0
 10 38  1  0
 10 39  1  0
 11 12  1  0
 11 20  1  0
 11 40  1  1
 12 13  1  0
 12 41  1  0
 12 42  1  0
 13 14  1  0
 13 18  1  0
 13 43  1  6
 14 15  1  6
 14 16  1  0
 14 17  1  0
 15 44  1  0
 15 45  1  0
 15 46  1  0
 16 47  1  0
 16 48  1  0
 16 49  1  0
 17 50  1  0
 17 51  1  0
 17 52  1  0
 18 19  1  0
 18 53  1  0
 18 54  1  0
 19 20  1  0
 19 55  1  0
 19 56  1  0
 20 21  1  0
 20 57  1  6
 21 58  1  0
 21 59  1  0
M  END

