
     RDKit          3D

 35 37  0  0  0  0  0  0  0  0999 V2000
    1.0480   -1.5559    0.7043 N   0  0  0  0  0  0  0  0  0  0  0  0
    2.4258   -1.3322    0.6846 N   0  0  0  0  0  0  0  0  0  0  0  0
    3.0226   -0.3489    1.4216 C   0  0  0  0  0  0  0  0  0  0  0  0
    2.3725    0.4150    2.1184 O   0  0  0  0  0  0  0  0  0  0  0  0
    4.5479   -0.3128    1.3369 C   0  0  2  0  0  0  0  0  0  0  0  0
    5.1709   -1.0324    2.5479 C   0  0  0  0  0  0  0  0  0  0  0  0
    6.6917   -1.0751    2.4110 C   0  0  0  0  0  0  0  0  0  0  0  0
    7.3157    0.2727    2.1025 C   0  0  0  0  0  0  0  0  0  0  0  0
    8.6051    0.3869    2.3648 N   0  0  0  0  0  0  0  0  0  0  0  0
    9.2217    1.5635    2.0895 C   0  0  0  0  0  0  0  0  0  0  0  0
   10.6171    1.6765    2.3534 C   0  0  0  0  0  0  0  0  0  0  0  0
   11.2991    2.8451    2.0898 C   0  0  0  0  0  0  0  0  0  0  0  0
   10.6173    3.9609    1.5446 C   0  0  0  0  0  0  0  0  0  0  0  0
    9.2638    3.8849    1.2819 C   0  0  0  0  0  0  0  0  0  0  0  0
    8.5312    2.6968    1.5513 C   0  0  0  0  0  0  0  0  0  0  0  0
    7.1215    2.5560    1.3111 C   0  0  0  0  0  0  0  0  0  0  0  0
    6.3888    3.6093    0.8106 N   0  0  0  0  0  0  0  0  0  0  0  0
    6.5168    1.3166    1.5576 C   0  0  0  0  0  0  0  0  0  0  0  0
    5.0399    1.1397    1.2750 C   0  0  0  0  0  0  0  0  0  0  0  0
    0.5800   -0.6931    0.4153 H   0  0  0  0  0  0  0  0  0  0  0  0
    0.7601   -1.6987    1.6759 H   0  0  0  0  0  0  0  0  0  0  0  0
    2.9706   -1.9635    0.1091 H   0  0  0  0  0  0  0  0  0  0  0  0
    4.8695   -0.8459    0.4237 H   0  0  0  0  0  0  0  0  0  0  0  0
    4.7664   -2.0542    2.6349 H   0  0  0  0  0  0  0  0  0  0  0  0
    4.8768   -0.4948    3.4658 H   0  0  0  0  0  0  0  0  0  0  0  0
    6.9730   -1.7752    1.6019 H   0  0  0  0  0  0  0  0  0  0  0  0
    7.1696   -1.4661    3.3220 H   0  0  0  0  0  0  0  0  0  0  0  0
   11.1154    0.7981    2.7682 H   0  0  0  0  0  0  0  0  0  0  0  0
   12.3704    2.9136    2.2964 H   0  0  0  0  0  0  0  0  0  0  0  0
   11.1649    4.8811    1.3267 H   0  0  0  0  0  0  0  0  0  0  0  0
    8.7654    4.7524    0.8414 H   0  0  0  0  0  0  0  0  0  0  0  0
    6.7741    4.5396    0.9038 H   0  0  0  0  0  0  0  0  0  0  0  0
    5.3831    3.5717    0.9145 H   0  0  0  0  0  0  0  0  0  0  0  0
    4.8004    1.5590    0.2805 H   0  0  0  0  0  0  0  0  0  0  0  0
    4.4350    1.7170    2.0000 H   0  0  0  0  0  0  0  0  0  0  0  0
  1  2  1  0
  1 20  1  0
  1 21  1  0
  2  3  1  0
  2 22  1  0
  3  4  2  0
  3  5  1  0
  5  6  1  0
  5 19  1  0
  5 23  1  6
  6  7  1  0
  6 24  1  0
  6 25  1  0
  7  8  1  0
  7 26  1  0
  7 27  1  0
  8  9  1  0
  8 18  2  0
  9 10  2  0
 10 11  1  0
 10 15  1  0
 11 12  2  0
 11 28  1  0
 12 13  1  0
 12 29  1  0
 13 14  2  0
 13 30  1  0
 14 15  1  0
 14 31  1  0
 15 16  2  0
 16 17  1  0
 16 18  1  0
 17 32  1  0
 17 33  1  0
 18 19  1  0
 19 34  1  0
 19 35  1  0
M  END

