
     RDKit          3D

 38 39  0  0  0  0  0  0  0  0999 V2000
    1.8181   -1.4980    0.3802 C   0  0  0  0  0  0  0  0  0  0  0  0
    2.7140   -0.2747    0.1572 C   0  0  1  0  0  0  0  0  0  0  0  0
    2.0249    0.8203   -0.6650 C   0  0  0  0  0  0  0  0  0  0  0  0
    3.2493    0.2511    1.4300 N   0  0  0  0  0  0  0  0  0  0  0  0
    2.3331    0.7914    2.4248 C   0  0  0  0  0  0  0  0  0  0  0  0
    4.6085    0.2715    1.6073 C   0  0  0  0  0  0  0  0  0  0  0  0
    5.4082   -0.1356    0.7812 O   0  0  0  0  0  0  0  0  0  0  0  0
    5.1051    0.8566    2.9480 C   0  0  0  0  0  0  0  0  0  0  0  0
    6.5382    0.8530    3.0319 N   0  0  0  0  0  0  0  0  0  0  0  0
    7.2872    1.9637    2.6515 C   0  0  0  0  0  0  0  0  0  0  0  0
    6.8203    3.0337    2.3424 O   0  0  0  0  0  0  0  0  0  0  0  0
    8.7836    1.5635    2.7262 C   0  0  2  0  0  0  0  0  0  0  0  0
    9.5023    1.9671    1.5338 N   0  0  0  0  0  0  0  0  0  0  0  0
    8.7032    0.0880    3.0826 C   0  0  0  0  0  0  0  0  0  0  0  0
    9.7041   -0.8583    3.2482 C   0  0  0  0  0  0  0  0  0  0  0  0
    9.3362   -2.1722    3.5803 C   0  0  0  0  0  0  0  0  0  0  0  0
   10.5839   -3.3849    3.7942 Cl  0  0  0  0  0  0  0  0  0  0  0  0
    7.9946   -2.5269    3.7398 C   0  0  0  0  0  0  0  0  0  0  0  0
    6.9826   -1.5715    3.5686 C   0  0  0  0  0  0  0  0  0  0  0  0
    7.3518   -0.2690    3.2404 C   0  0  0  0  0  0  0  0  0  0  0  0
    1.5171   -1.9273   -0.5884 H   0  0  0  0  0  0  0  0  0  0  0  0
    0.8931   -1.2468    0.9262 H   0  0  0  0  0  0  0  0  0  0  0  0
    2.3503   -2.2782    0.9460 H   0  0  0  0  0  0  0  0  0  0  0  0
    3.6092   -0.5996   -0.3893 H   0  0  0  0  0  0  0  0  0  0  0  0
    1.1138    1.2013   -0.1736 H   0  0  0  0  0  0  0  0  0  0  0  0
    1.7239    0.4233   -1.6473 H   0  0  0  0  0  0  0  0  0  0  0  0
    2.7046    1.6692   -0.8357 H   0  0  0  0  0  0  0  0  0  0  0  0
    1.3020    0.6766    2.0692 H   0  0  0  0  0  0  0  0  0  0  0  0
    2.4977    1.8662    2.6100 H   0  0  0  0  0  0  0  0  0  0  0  0
    2.4027    0.2635    3.3907 H   0  0  0  0  0  0  0  0  0  0  0  0
    4.6698    0.3072    3.7991 H   0  0  0  0  0  0  0  0  0  0  0  0
    4.7827    1.9062    3.0293 H   0  0  0  0  0  0  0  0  0  0  0  0
    9.2017    2.1299    3.5795 H   0  0  0  0  0  0  0  0  0  0  0  0
    9.1948    1.4243    0.7264 H   0  0  0  0  0  0  0  0  0  0  0  0
   10.5029    1.8094    1.6432 H   0  0  0  0  0  0  0  0  0  0  0  0
   10.7582   -0.6022    3.1211 H   0  0  0  0  0  0  0  0  0  0  0  0
    7.7390   -3.5574    3.9916 H   0  0  0  0  0  0  0  0  0  0  0  0
    5.9363   -1.8621    3.6764 H   0  0  0  0  0  0  0  0  0  0  0  0
  1  2  1  0
  1 21  1  0
  1 22  1  0
  1 23  1  0
  2  3  1  0
  2  4  1  0
  2 24  1  6
  3 25  1  0
  3 26  1  0
  3 27  1  0
  4  5  1  0
  4  6  1  0
  5 28  1  0
  5 29  1  0
  5 30  1  0
  6  7  2  0
  6  8  1  0
  8  9  1  0
  8 31  1  0
  8 32  1  0
  9 10  1  0
  9 20  1  0
 10 11  2  0
 10 12  1  0
 12 13  1  0
 12 14  1  0
 12 33  1  1
 13 34  1  0
 13 35  1  0
 14 15  2  0
 14 20  1  0
 15 16  1  0
 15 36  1  0
 16 17  1  0
 16 18  2  0
 18 19  1  0
 18 37  1  0
 19 20  2  0
 19 38  1  0
M  END

