
     RDKit          3D

 28 30  0  0  0  0  0  0  0  0999 V2000
    1.1479    0.1165    0.4665 Cl  0  0  0  0  0  0  0  0  0  0  0  0
    2.8653    0.0677    0.1573 C   0  0  0  0  0  0  0  0  0  0  0  0
    3.6313    1.2271    0.3042 C   0  0  0  0  0  0  0  0  0  0  0  0
    5.0017    1.1741    0.0537 C   0  0  0  0  0  0  0  0  0  0  0  0
    5.6354   -0.0209   -0.3444 C   0  0  0  0  0  0  0  0  0  0  0  0
    7.0759   -0.0085   -0.5921 C   0  0  0  0  0  0  0  0  0  0  0  0
    7.8506   -1.0483   -0.9767 C   0  0  0  0  0  0  0  0  0  0  0  0
    9.2750   -0.9167   -1.1936 C   0  0  0  0  0  0  0  0  0  0  0  0
   10.0309    0.1367   -1.0764 N   0  0  0  0  0  0  0  0  0  0  0  0
   11.3036   -0.2992   -1.4010 C   0  0  0  0  0  0  0  0  0  0  0  0
   12.5339    0.3716   -1.4569 C   0  0  0  0  0  0  0  0  0  0  0  0
   13.6554   -0.3716   -1.8279 C   0  0  0  0  0  0  0  0  0  0  0  0
   13.5649   -1.7449   -2.1366 C   0  0  0  0  0  0  0  0  0  0  0  0
   12.3456   -2.4292   -2.0859 C   0  0  0  0  0  0  0  0  0  0  0  0
   11.2411   -1.6714   -1.7144 C   0  0  0  0  0  0  0  0  0  0  0  0
    9.9413   -2.0592   -1.5797 O   0  0  0  0  0  0  0  0  0  0  0  0
    4.8327   -1.1740   -0.4831 C   0  0  0  0  0  0  0  0  0  0  0  0
    3.4640   -1.1363   -0.2368 C   0  0  0  0  0  0  0  0  0  0  0  0
    3.1541    2.1589    0.6116 H   0  0  0  0  0  0  0  0  0  0  0  0
    5.6003    2.0815    0.1688 H   0  0  0  0  0  0  0  0  0  0  0  0
    7.5798    0.9530   -0.4489 H   0  0  0  0  0  0  0  0  0  0  0  0
    7.4451   -2.0482   -1.1463 H   0  0  0  0  0  0  0  0  0  0  0  0
   12.5994    1.4344   -1.2172 H   0  0  0  0  0  0  0  0  0  0  0  0
   14.6303    0.1191   -1.8819 H   0  0  0  0  0  0  0  0  0  0  0  0
   14.4689   -2.2880   -2.4225 H   0  0  0  0  0  0  0  0  0  0  0  0
   12.2637   -3.4912   -2.3226 H   0  0  0  0  0  0  0  0  0  0  0  0
    5.2831   -2.1205   -0.7892 H   0  0  0  0  0  0  0  0  0  0  0  0
    2.8525   -2.0333   -0.3470 H   0  0  0  0  0  0  0  0  0  0  0  0
  1  2  1  0
  2  3  2  0
  2 18  1  0
  3  4  1  0
  3 19  1  0
  4  5  2  0
  4 20  1  0
  5  6  1  0
  5 17  1  0
  6  7  2  0
  6 21  1  0
  7  8  1  0
  7 22  1  0
  8  9  2  0
  8 16  1  0
  9 10  1  0
 10 11  2  0
 10 15  1  0
 11 12  1  0
 11 23  1  0
 12 13  2  0
 12 24  1  0
 13 14  1  0
 13 25  1  0
 14 15  2  0
 14 26  1  0
 15 16  1  0
 17 18  2  0
 17 27  1  0
 18 28  1  0
M  END

