
     RDKit          3D

 38 40  0  0  0  0  0  0  0  0999 V2000
    1.0352   -0.2453   -2.2288 C   0  0  0  0  0  0  0  0  0  0  0  0
    2.4576   -0.5448   -2.2242 N   0  0  0  0  0  0  0  0  0  0  0  0
    2.8599   -1.6533   -3.0725 C   0  0  0  0  0  0  0  0  0  0  0  0
    3.2525    0.0980   -1.3031 C   0  0  0  0  0  0  0  0  0  0  0  0
    2.7532    0.7860   -0.4070 O   0  0  0  0  0  0  0  0  0  0  0  0
    4.7267   -0.0166   -1.4436 C   0  0  0  0  0  0  0  0  0  0  0  0
    5.5025   -0.0798   -2.6062 C   0  0  0  0  0  0  0  0  0  0  0  0
    6.8512   -0.0115   -2.1942 C   0  0  0  0  0  0  0  0  0  0  0  0
    8.4713   -0.0116   -2.8359 S   0  0  0  0  0  0  0  0  0  0  0  0
    9.1293    0.0986   -1.2145 C   0  0  0  0  0  0  0  0  0  0  0  0
    8.1795    0.1336   -0.2269 C   0  0  0  0  0  0  0  0  0  0  0  0
    6.8707    0.0810   -0.7951 C   0  0  0  0  0  0  0  0  0  0  0  0
    5.5783    0.1096   -0.3416 N   0  0  0  0  0  0  0  0  0  0  0  0
    5.1893    0.1971    1.0533 C   0  0  0  0  0  0  0  0  0  0  0  0
    5.1805   -1.1681    1.7645 C   0  0  0  0  0  0  0  0  0  0  0  0
    6.0970   -1.9438    1.5795 O   0  0  0  0  0  0  0  0  0  0  0  0
    4.0754   -1.4758    2.7270 C   0  0  0  0  0  0  0  0  0  0  0  0
    2.8280   -0.8253    2.6967 C   0  0  0  0  0  0  0  0  0  0  0  0
    1.8335   -1.1787    3.6135 C   0  0  0  0  0  0  0  0  0  0  0  0
    2.0753   -2.1704    4.5680 C   0  0  0  0  0  0  0  0  0  0  0  0
    3.3121   -2.8282    4.5979 C   0  0  0  0  0  0  0  0  0  0  0  0
    4.3012   -2.4893    3.6780 C   0  0  0  0  0  0  0  0  0  0  0  0
    0.4493   -1.0636   -1.7704 H   0  0  0  0  0  0  0  0  0  0  0  0
    0.6833   -0.1123   -3.2659 H   0  0  0  0  0  0  0  0  0  0  0  0
    0.8563    0.6714   -1.6563 H   0  0  0  0  0  0  0  0  0  0  0  0
    2.8904   -1.3698   -4.1407 H   0  0  0  0  0  0  0  0  0  0  0  0
    2.1311   -2.4761   -2.9678 H   0  0  0  0  0  0  0  0  0  0  0  0
    3.8457   -2.0318   -2.7822 H   0  0  0  0  0  0  0  0  0  0  0  0
    5.1186   -0.1256   -3.6216 H   0  0  0  0  0  0  0  0  0  0  0  0
   10.2110    0.1176   -1.0869 H   0  0  0  0  0  0  0  0  0  0  0  0
    8.4115    0.1676    0.8369 H   0  0  0  0  0  0  0  0  0  0  0  0
    4.2340    0.7227    1.1046 H   0  0  0  0  0  0  0  0  0  0  0  0
    5.9384    0.8097    1.5832 H   0  0  0  0  0  0  0  0  0  0  0  0
    2.6090   -0.0752    1.9338 H   0  0  0  0  0  0  0  0  0  0  0  0
    0.8631   -0.6774    3.5777 H   0  0  0  0  0  0  0  0  0  0  0  0
    1.2971   -2.4371    5.2881 H   0  0  0  0  0  0  0  0  0  0  0  0
    3.4996   -3.6080    5.3404 H   0  0  0  0  0  0  0  0  0  0  0  0
    5.2683   -2.9962    3.6736 H   0  0  0  0  0  0  0  0  0  0  0  0
  1  2  1  0
  1 23  1  0
  1 24  1  0
  1 25  1  0
  2  3  1  0
  2  4  1  0
  3 26  1  0
  3 27  1  0
  3 28  1  0
  4  5  2  0
  4  6  1  0
  6  7  2  0
  6 13  1  0
  7  8  1  0
  7 29  1  0
  8  9  1  0
  8 12  2  0
  9 10  1  0
 10 11  2  0
 10 30  1  0
 11 12  1  0
 11 31  1  0
 12 13  1  0
 13 14  1  0
 14 15  1  0
 14 32  1  0
 14 33  1  0
 15 16  2  0
 15 17  1  0
 17 18  2  0
 17 22  1  0
 18 19  1  0
 18 34  1  0
 19 20  2  0
 19 35  1  0
 20 21  1  0
 20 36  1  0
 21 22  2  0
 21 37  1  0
 22 38  1  0
M  END

