
     RDKit          3D

 51 54  0  0  0  0  0  0  0  0999 V2000
   -0.4786    0.6765    0.6854 C   0  0  0  0  0  0  0  0  0  0  0  0
    0.8252    0.7202    0.4525 N   0  0  0  0  0  0  0  0  0  0  0  0
    1.4050   -0.4666    0.1579 C   0  0  0  0  0  0  0  0  0  0  0  0
    2.7495   -0.4212   -0.0587 N   0  0  0  0  0  0  0  0  0  0  0  0
    3.5690   -1.5289   -0.4949 C   0  0  0  0  0  0  0  0  0  0  0  0
    5.0457   -1.1241   -0.5486 C   0  0  0  0  0  0  0  0  0  0  0  0
    5.9468   -2.2674   -0.9248 C   0  0  0  0  0  0  0  0  0  0  0  0
    6.7849   -2.2950   -2.0062 C   0  0  0  0  0  0  0  0  0  0  0  0
    7.6520   -3.8124   -2.0600 S   0  0  0  0  0  0  0  0  0  0  0  0
    6.7808   -4.2962   -0.5918 C   0  0  0  0  0  0  0  0  0  0  0  0
    6.9974   -5.5028   -0.0163 N   0  0  0  0  0  0  0  0  0  0  0  0
    6.3402   -5.8967    1.2313 C   0  0  0  0  0  0  0  0  0  0  0  0
    7.1536   -7.1187    1.6776 C   0  0  0  0  0  0  0  0  0  0  0  0
    7.6338   -7.7316    0.3523 C   0  0  0  0  0  0  0  0  0  0  0  0
    7.9322   -6.5027   -0.5190 C   0  0  0  0  0  0  0  0  0  0  0  0
    5.9469   -3.3968   -0.1359 N   0  0  0  0  0  0  0  0  0  0  0  0
    0.6629   -1.6596    0.0921 C   0  0  0  0  0  0  0  0  0  0  0  0
   -0.7236   -1.5717    0.3463 C   0  0  0  0  0  0  0  0  0  0  0  0
   -1.5737   -2.6548    0.2861 N   0  0  0  0  0  0  0  0  0  0  0  0
   -2.9455   -2.5562    0.7840 C   0  0  0  0  0  0  0  0  0  0  0  0
   -3.9356   -3.2389   -0.1622 C   0  0  0  0  0  0  0  0  0  0  0  0
   -3.5245   -4.6889   -0.4377 C   0  0  0  0  0  0  0  0  0  0  0  0
   -2.0766   -4.7435   -0.9342 C   0  0  0  0  0  0  0  0  0  0  0  0
   -1.1215   -4.0118    0.0190 C   0  0  0  0  0  0  0  0  0  0  0  0
   -1.2826   -0.3802    0.6551 N   0  0  0  0  0  0  0  0  0  0  0  0
   -0.9568    1.6343    0.9338 H   0  0  0  0  0  0  0  0  0  0  0  0
    3.1365    0.5160   -0.0537 H   0  0  0  0  0  0  0  0  0  0  0  0
    3.2511   -1.8962   -1.4915 H   0  0  0  0  0  0  0  0  0  0  0  0
    3.4690   -2.3802    0.2002 H   0  0  0  0  0  0  0  0  0  0  0  0
    5.3384   -0.7487    0.4484 H   0  0  0  0  0  0  0  0  0  0  0  0
    5.1831   -0.2959   -1.2629 H   0  0  0  0  0  0  0  0  0  0  0  0
    6.9477   -1.5297   -2.7620 H   0  0  0  0  0  0  0  0  0  0  0  0
    5.2782   -6.1489    1.0498 H   0  0  0  0  0  0  0  0  0  0  0  0
    6.3528   -5.0653    1.9525 H   0  0  0  0  0  0  0  0  0  0  0  0
    6.5646   -7.8173    2.2900 H   0  0  0  0  0  0  0  0  0  0  0  0
    8.0186   -6.7951    2.2803 H   0  0  0  0  0  0  0  0  0  0  0  0
    6.8261   -8.3269   -0.1050 H   0  0  0  0  0  0  0  0  0  0  0  0
    8.5084   -8.3889    0.4648 H   0  0  0  0  0  0  0  0  0  0  0  0
    7.7714   -6.6941   -1.5948 H   0  0  0  0  0  0  0  0  0  0  0  0
    8.9804   -6.1616   -0.4017 H   0  0  0  0  0  0  0  0  0  0  0  0
    1.1586   -2.5994   -0.1332 H   0  0  0  0  0  0  0  0  0  0  0  0
   -3.1743   -1.4933    0.9145 H   0  0  0  0  0  0  0  0  0  0  0  0
   -3.0044   -3.0374    1.7835 H   0  0  0  0  0  0  0  0  0  0  0  0
   -3.9718   -2.6750   -1.1110 H   0  0  0  0  0  0  0  0  0  0  0  0
   -4.9461   -3.1948    0.2775 H   0  0  0  0  0  0  0  0  0  0  0  0
   -4.2021   -5.1589   -1.1697 H   0  0  0  0  0  0  0  0  0  0  0  0
   -3.6138   -5.2770    0.4949 H   0  0  0  0  0  0  0  0  0  0  0  0
   -2.0105   -4.2701   -1.9297 H   0  0  0  0  0  0  0  0  0  0  0  0
   -1.7388   -5.7872   -1.0502 H   0  0  0  0  0  0  0  0  0  0  0  0
   -0.1186   -3.9924   -0.4218 H   0  0  0  0  0  0  0  0  0  0  0  0
   -1.0439   -4.5790    0.9712 H   0  0  0  0  0  0  0  0  0  0  0  0
  1  2  2  0
  1 25  1  0
  1 26  1  0
  2  3  1  0
  3  4  1  0
  3 17  2  0
  4  5  1  0
  4 27  1  0
  5  6  1  0
  5 28  1  0
  5 29  1  0
  6  7  1  0
  6 30  1  0
  6 31  1  0
  7  8  2  0
  7 16  1  0
  8  9  1  0
  8 32  1  0
  9 10  1  0
 10 11  1  0
 10 16  2  0
 11 12  1  0
 11 15  1  0
 12 13  1  0
 12 33  1  0
 12 34  1  0
 13 14  1  0
 13 35  1  0
 13 36  1  0
 14 15  1  0
 14 37  1  0
 14 38  1  0
 15 39  1  0
 15 40  1  0
 17 18  1  0
 17 41  1  0
 18 19  1  0
 18 25  2  0
 19 20  1  0
 19 24  1  0
 20 21  1  0
 20 42  1  0
 20 43  1  0
 21 22  1  0
 21 44  1  0
 21 45  1  0
 22 23  1  0
 22 46  1  0
 22 47  1  0
 23 24  1  0
 23 48  1  0
 23 49  1  0
 24 50  1  0
 24 51  1  0
M  END

