
     RDKit          3D

 29 31  0  0  0  0  0  0  0  0999 V2000
    4.4431   -0.4064    1.0668 N   0  0  0  0  0  0  0  0  0  0  0  0
    3.8855    0.8138    0.9046 C   0  0  0  0  0  0  0  0  0  0  0  0
    3.0740    1.3344    1.6426 O   0  0  0  0  0  0  0  0  0  0  0  0
    4.3163    1.5266   -0.2550 N   0  0  0  0  0  0  0  0  0  0  0  0
    5.2168    1.1523   -1.2185 C   0  0  0  0  0  0  0  0  0  0  0  0
    5.8131    0.0812   -1.2011 O   0  0  0  0  0  0  0  0  0  0  0  0
    5.4823    2.1656   -2.3146 C   0  0  2  0  0  0  0  0  0  0  0  0
    6.1630    1.6002   -3.5511 C   0  0  0  0  0  0  0  0  0  0  0  0
    6.9729    2.3947   -2.5780 C   0  0  1  0  0  0  0  0  0  0  0  0
    7.3640    3.8325   -2.8702 C   0  0  0  0  0  0  0  0  0  0  0  0
    6.5783    4.7843   -2.1495 O   0  0  0  0  0  0  0  0  0  0  0  0
    5.2313    4.6560   -2.3016 C   0  0  0  0  0  0  0  0  0  0  0  0
    4.4514    5.8206   -2.3170 C   0  0  0  0  0  0  0  0  0  0  0  0
    3.0696    5.7406   -2.4801 C   0  0  0  0  0  0  0  0  0  0  0  0
    2.4793    4.4876   -2.6464 C   0  0  0  0  0  0  0  0  0  0  0  0
    1.1529    4.4060   -2.8296 F   0  0  0  0  0  0  0  0  0  0  0  0
    3.2347    3.3198   -2.6264 C   0  0  0  0  0  0  0  0  0  0  0  0
    4.6248    3.3889   -2.4313 C   0  0  0  0  0  0  0  0  0  0  0  0
    4.1607   -0.9402    1.8777 H   0  0  0  0  0  0  0  0  0  0  0  0
    5.1232   -0.7461    0.3889 H   0  0  0  0  0  0  0  0  0  0  0  0
    3.8745    2.4383   -0.3285 H   0  0  0  0  0  0  0  0  0  0  0  0
    5.9007    2.0634   -4.5063 H   0  0  0  0  0  0  0  0  0  0  0  0
    6.3073    0.5181   -3.5586 H   0  0  0  0  0  0  0  0  0  0  0  0
    7.6445    1.8273   -1.9286 H   0  0  0  0  0  0  0  0  0  0  0  0
    7.2758    4.0522   -3.9505 H   0  0  0  0  0  0  0  0  0  0  0  0
    8.4030    4.0198   -2.5677 H   0  0  0  0  0  0  0  0  0  0  0  0
    4.9519    6.7840   -2.2030 H   0  0  0  0  0  0  0  0  0  0  0  0
    2.4441    6.6351   -2.4947 H   0  0  0  0  0  0  0  0  0  0  0  0
    2.7304    2.3590   -2.7499 H   0  0  0  0  0  0  0  0  0  0  0  0
  1  2  1  0
  1 19  1  0
  1 20  1  0
  2  3  2  0
  2  4  1  0
  4  5  1  0
  4 21  1  0
  5  6  2  0
  7  5  1  1
  7  8  1  0
  7  9  1  0
  7 18  1  0
  8  9  1  0
  8 22  1  0
  8 23  1  0
  9 10  1  0
  9 24  1  1
 10 11  1  0
 10 25  1  0
 10 26  1  0
 11 12  1  0
 12 13  2  0
 12 18  1  0
 13 14  1  0
 13 27  1  0
 14 15  2  0
 14 28  1  0
 15 16  1  0
 15 17  1  0
 17 18  2  0
 17 29  1  0
M  END

