
     RDKit          3D

 46 49  0  0  0  0  0  0  0  0999 V2000
    2.9740   -3.6550   -1.0255 C   0  0  0  0  0  0  0  0  0  0  0  0
    3.7887   -2.4992   -0.5664 C   0  0  0  0  0  0  0  0  0  0  0  0
    5.1140   -2.7815   -0.3011 O   0  0  0  0  0  0  0  0  0  0  0  0
    5.6956   -1.6310    0.0996 C   0  0  0  0  0  0  0  0  0  0  0  0
    6.9744   -1.5495    0.4361 N   0  0  0  0  0  0  0  0  0  0  0  0
    7.3407   -0.3197    0.8018 C   0  0  0  0  0  0  0  0  0  0  0  0
    8.7771   -0.0969    1.2096 C   0  0  0  0  0  0  0  0  0  0  0  0
    9.7146   -1.6687    1.0937 S   0  0  0  0  0  0  0  0  0  0  0  0
   11.2741   -1.0499    1.6200 C   0  0  0  0  0  0  0  0  0  0  0  0
   11.4980    0.2140    1.9552 N   0  0  0  0  0  0  0  0  0  0  0  0
   12.7987    0.2936    2.2976 N   0  0  0  0  0  0  0  0  0  0  0  0
   13.3739   -0.8418    2.1904 N   0  0  0  0  0  0  0  0  0  0  0  0
   12.4412   -1.7391    1.7592 N   0  0  0  0  0  0  0  0  0  0  0  0
   12.9289   -3.1272    1.5740 C   0  0  1  0  0  0  0  0  0  0  0  0
   12.3112   -4.1553    2.5452 C   0  0  0  0  0  0  0  0  0  0  0  0
   11.0203   -4.8267    2.0573 C   0  0  0  0  0  0  0  0  0  0  0  0
   11.1741   -5.3823    0.6352 C   0  0  0  0  0  0  0  0  0  0  0  0
   11.6222   -4.2932   -0.3487 C   0  0  0  0  0  0  0  0  0  0  0  0
   12.9206   -3.6161    0.1102 C   0  0  0  0  0  0  0  0  0  0  0  0
    6.5611    0.7673    0.8494 N   0  0  0  0  0  0  0  0  0  0  0  0
    5.2695    0.6657    0.5061 C   0  0  0  0  0  0  0  0  0  0  0  0
    4.5160    1.7930    0.5786 N   0  0  0  0  0  0  0  0  0  0  0  0
    4.7564   -0.5937    0.0980 C   0  0  0  0  0  0  0  0  0  0  0  0
    3.5044   -1.1782   -0.3423 C   0  0  0  0  0  0  0  0  0  0  0  0
    2.1884   -0.4805   -0.5116 C   0  0  0  0  0  0  0  0  0  0  0  0
    3.3828   -4.0823   -1.9566 H   0  0  0  0  0  0  0  0  0  0  0  0
    1.9350   -3.3528   -1.2119 H   0  0  0  0  0  0  0  0  0  0  0  0
    2.9708   -4.4606   -0.2721 H   0  0  0  0  0  0  0  0  0  0  0  0
    8.8343    0.2895    2.2373 H   0  0  0  0  0  0  0  0  0  0  0  0
    9.2507    0.6609    0.5691 H   0  0  0  0  0  0  0  0  0  0  0  0
   13.9787   -2.9958    1.8659 H   0  0  0  0  0  0  0  0  0  0  0  0
   12.1723   -3.6862    3.5324 H   0  0  0  0  0  0  0  0  0  0  0  0
   13.0788   -4.9375    2.6834 H   0  0  0  0  0  0  0  0  0  0  0  0
   10.1853   -4.1083    2.0837 H   0  0  0  0  0  0  0  0  0  0  0  0
   10.7506   -5.6355    2.7570 H   0  0  0  0  0  0  0  0  0  0  0  0
   10.2253   -5.8310    0.2983 H   0  0  0  0  0  0  0  0  0  0  0  0
   11.9207   -6.1992    0.6409 H   0  0  0  0  0  0  0  0  0  0  0  0
   10.8216   -3.5442   -0.4587 H   0  0  0  0  0  0  0  0  0  0  0  0
   11.7781   -4.7244   -1.3518 H   0  0  0  0  0  0  0  0  0  0  0  0
   13.1956   -2.7813   -0.5542 H   0  0  0  0  0  0  0  0  0  0  0  0
   13.7417   -4.3510    0.0338 H   0  0  0  0  0  0  0  0  0  0  0  0
    4.9745    2.6546    0.8452 H   0  0  0  0  0  0  0  0  0  0  0  0
    3.5520    1.8099    0.2841 H   0  0  0  0  0  0  0  0  0  0  0  0
    2.2505    0.3278   -1.2613 H   0  0  0  0  0  0  0  0  0  0  0  0
    1.8435   -0.0304    0.4355 H   0  0  0  0  0  0  0  0  0  0  0  0
    1.4014   -1.1707   -0.8469 H   0  0  0  0  0  0  0  0  0  0  0  0
  1  2  1  0
  1 26  1  0
  1 27  1  0
  1 28  1  0
  2  3  1  0
  2 24  2  0
  3  4  1  0
  4  5  2  0
  4 23  1  0
  5  6  1  0
  6  7  1  0
  6 20  2  0
  7  8  1  0
  7 29  1  0
  7 30  1  0
  8  9  1  0
  9 10  2  0
  9 13  1  0
 10 11  1  0
 11 12  2  0
 12 13  1  0
 13 14  1  0
 14 15  1  0
 14 19  1  0
 14 31  1  1
 15 16  1  0
 15 32  1  0
 15 33  1  0
 16 17  1  0
 16 34  1  0
 16 35  1  0
 17 18  1  0
 17 36  1  0
 17 37  1  0
 18 19  1  0
 18 38  1  0
 18 39  1  0
 19 40  1  0
 19 41  1  0
 20 21  1  0
 21 22  1  0
 21 23  2  0
 22 42  1  0
 22 43  1  0
 23 24  1  0
 24 25  1  0
 25 44  1  0
 25 45  1  0
 25 46  1  0
M  END

