
     RDKit          3D

 50 53  0  0  0  0  0  0  0  0999 V2000
    3.5266    1.1425    3.2312 C   0  0  0  0  0  0  0  0  0  0  0  0
    2.9673    1.5454    1.9937 O   0  0  0  0  0  0  0  0  0  0  0  0
    3.6900    2.3678    1.2023 C   0  0  0  0  0  0  0  0  0  0  0  0
    3.1177    2.7483   -0.0102 C   0  0  0  0  0  0  0  0  0  0  0  0
    3.8526    3.6076   -0.8583 C   0  0  0  0  0  0  0  0  0  0  0  0
    3.3178    3.9877   -2.0585 N   0  0  0  0  0  0  0  0  0  0  0  0
    3.9709    4.7671   -3.0780 C   0  0  1  0  0  0  0  0  0  0  0  0
    3.2097    4.4928   -4.4055 C   0  0  0  0  0  0  0  0  0  0  0  0
    2.0774    4.0325   -4.3490 O   0  0  0  0  0  0  0  0  0  0  0  0
    3.8509    4.8031   -5.6794 C   0  0  0  0  0  0  0  0  0  0  0  0
    5.1419    5.2689   -5.8966 C   0  0  0  0  0  0  0  0  0  0  0  0
    5.3592    5.4192   -7.2331 N   0  0  0  0  0  0  0  0  0  0  0  0
    6.2230    5.7475   -7.6454 H   0  0  0  0  0  0  0  0  0  0  0  0
    4.2216    5.0575   -7.9408 C   0  0  0  0  0  0  0  0  0  0  0  0
    3.9813    5.0491   -9.3200 C   0  0  0  0  0  0  0  0  0  0  0  0
    2.7234    4.6282   -9.7442 C   0  0  0  0  0  0  0  0  0  0  0  0
    1.7370    4.2276   -8.8177 C   0  0  0  0  0  0  0  0  0  0  0  0
    1.9813    4.2374   -7.4470 C   0  0  0  0  0  0  0  0  0  0  0  0
    3.2438    4.6598   -6.9915 C   0  0  0  0  0  0  0  0  0  0  0  0
    3.9809    6.2751   -2.7925 C   0  0  0  0  0  0  0  0  0  0  0  0
    5.1791    6.9960   -2.7139 C   0  0  0  0  0  0  0  0  0  0  0  0
    5.1722    8.3699   -2.4503 C   0  0  0  0  0  0  0  0  0  0  0  0
    3.9604    9.0387   -2.2622 C   0  0  0  0  0  0  0  0  0  0  0  0
    2.7583    8.3258   -2.3344 C   0  0  0  0  0  0  0  0  0  0  0  0
    2.7689    6.9546   -2.5957 C   0  0  0  0  0  0  0  0  0  0  0  0
    5.1252    4.0310   -0.4227 C   0  0  0  0  0  0  0  0  0  0  0  0
    5.5803    3.5713    0.8176 C   0  0  0  0  0  0  0  0  0  0  0  0
    6.8036    3.9923    1.2089 O   0  0  0  0  0  0  0  0  0  0  0  0
    7.2905    3.5552    2.4655 C   0  0  0  0  0  0  0  0  0  0  0  0
    4.8954    2.7615    1.6203 N   0  0  0  0  0  0  0  0  0  0  0  0
    2.7803    0.4874    3.7013 H   0  0  0  0  0  0  0  0  0  0  0  0
    3.7304    2.0055    3.8854 H   0  0  0  0  0  0  0  0  0  0  0  0
    4.4707    0.5916    3.0904 H   0  0  0  0  0  0  0  0  0  0  0  0
    2.1278    2.3804   -0.2823 H   0  0  0  0  0  0  0  0  0  0  0  0
    2.4228    3.6029   -2.3474 H   0  0  0  0  0  0  0  0  0  0  0  0
    5.0169    4.4350   -3.2024 H   0  0  0  0  0  0  0  0  0  0  0  0
    5.9224    5.5131   -5.1804 H   0  0  0  0  0  0  0  0  0  0  0  0
    4.7469    5.3593  -10.0354 H   0  0  0  0  0  0  0  0  0  0  0  0
    2.4972    4.6077  -10.8131 H   0  0  0  0  0  0  0  0  0  0  0  0
    0.7614    3.9024   -9.1875 H   0  0  0  0  0  0  0  0  0  0  0  0
    1.2243    3.9266   -6.7270 H   0  0  0  0  0  0  0  0  0  0  0  0
    6.1348    6.4776   -2.8426 H   0  0  0  0  0  0  0  0  0  0  0  0
    6.1171    8.9153   -2.3819 H   0  0  0  0  0  0  0  0  0  0  0  0
    3.9515   10.1115   -2.0536 H   0  0  0  0  0  0  0  0  0  0  0  0
    1.8064    8.8420   -2.1853 H   0  0  0  0  0  0  0  0  0  0  0  0
    1.8289    6.3992   -2.6460 H   0  0  0  0  0  0  0  0  0  0  0  0
    5.7512    4.7131   -0.9924 H   0  0  0  0  0  0  0  0  0  0  0  0
    8.2814    4.0152    2.5830 H   0  0  0  0  0  0  0  0  0  0  0  0
    7.3809    2.4576    2.5064 H   0  0  0  0  0  0  0  0  0  0  0  0
    6.6309    3.8728    3.2891 H   0  0  0  0  0  0  0  0  0  0  0  0
  1  2  1  0
  1 31  1  0
  1 32  1  0
  1 33  1  0
  2  3  1  0
  3  4  2  0
  3 30  1  0
  4  5  1  0
  4 34  1  0
  5  6  1  0
  5 26  2  0
  6  7  1  0
  6 35  1  0
  7  8  1  0
  7 20  1  0
  7 36  1  6
  8  9  2  0
  8 10  1  0
 10 11  2  0
 10 19  1  0
 11 12  1  0
 11 37  1  0
 12 13  1  0
 12 14  1  0
 14 15  1  0
 14 19  2  0
 15 16  2  0
 15 38  1  0
 16 17  1  0
 16 39  1  0
 17 18  2  0
 17 40  1  0
 18 19  1  0
 18 41  1  0
 20 21  2  0
 20 25  1  0
 21 22  1  0
 21 42  1  0
 22 23  2  0
 22 43  1  0
 23 24  1  0
 23 44  1  0
 24 25  2  0
 24 45  1  0
 25 46  1  0
 26 27  1  0
 26 47  1  0
 27 28  1  0
 27 30  2  0
 28 29  1  0
 29 48  1  0
 29 49  1  0
 29 50  1  0
M  END

