
     RDKit          3D

 63 66  0  0  0  0  0  0  0  0999 V2000
    6.9810   -1.4053   -7.0792 C   0  0  0  0  0  0  0  0  0  0  0  0
    6.5823   -1.7859   -5.8619 C   0  0  0  0  0  0  0  0  0  0  0  0
    7.4304   -2.5502   -4.8749 C   0  0  1  0  0  0  0  0  0  0  0  0
    7.8918   -1.6880   -3.6767 C   0  0  0  0  0  0  0  0  0  0  0  0
    6.7184   -1.3558   -2.7504 C   0  0  0  0  0  0  0  0  0  0  0  0
    5.9379   -2.6146   -2.3180 C   0  0  2  0  0  0  0  0  0  0  0  0
    6.5699   -3.4785   -1.2144 C   0  0  0  0  0  0  0  0  0  0  0  0
    6.4727   -4.8804   -1.2661 C   0  0  0  0  0  0  0  0  0  0  0  0
    6.9708   -5.6970   -0.2551 C   0  0  0  0  0  0  0  0  0  0  0  0
    7.5945   -5.1611    0.8880 C   0  0  0  0  0  0  0  0  0  0  0  0
    8.1525   -6.0135    1.9686 C   0  0  0  0  0  0  0  0  0  0  0  0
    9.3904   -5.7386    2.5809 C   0  0  0  0  0  0  0  0  0  0  0  0
    9.9136   -6.5530    3.5842 C   0  0  0  0  0  0  0  0  0  0  0  0
    9.2226   -7.6881    4.0429 C   0  0  0  0  0  0  0  0  0  0  0  0
    9.7171   -8.6185    5.1397 C   0  0  1  0  0  0  0  0  0  0  0  0
   10.3578   -9.9126    4.5763 C   0  0  0  0  0  0  0  0  0  0  0  0
   11.7594   -9.6391    4.0190 C   0  0  0  0  0  0  0  0  0  0  0  0
   12.6569   -8.9148    5.0381 C   0  0  2  0  0  0  0  0  0  0  0  0
   13.1932   -9.7935    6.1818 C   0  0  0  0  0  0  0  0  0  0  0  0
   14.2667  -10.8001    5.7528 C   0  0  0  0  0  0  0  0  0  0  0  0
   14.8415  -11.6004    6.9230 C   0  0  0  0  0  0  0  0  0  0  0  0
   11.9907   -7.7509    5.5413 O   0  0  0  0  0  0  0  0  0  0  0  0
   10.7130   -7.9679    6.1120 C   0  0  0  0  0  0  0  0  0  0  0  0
    7.9945   -7.9598    3.4320 C   0  0  0  0  0  0  0  0  0  0  0  0
    7.2757   -9.0264    3.8200 F   0  0  0  0  0  0  0  0  0  0  0  0
    7.4666   -7.1480    2.4268 C   0  0  0  0  0  0  0  0  0  0  0  0
    6.2716   -7.4830    1.9208 F   0  0  0  0  0  0  0  0  0  0  0  0
    7.6619   -3.7636    0.9562 C   0  0  0  0  0  0  0  0  0  0  0  0
    8.2004   -3.1521    2.0194 F   0  0  0  0  0  0  0  0  0  0  0  0
    7.1552   -2.9476   -0.0610 C   0  0  0  0  0  0  0  0  0  0  0  0
    7.2349   -1.6209    0.1429 F   0  0  0  0  0  0  0  0  0  0  0  0
    5.6011   -3.4002   -3.4560 O   0  0  0  0  0  0  0  0  0  0  0  0
    6.6826   -3.7668   -4.3056 C   0  0  0  0  0  0  0  0  0  0  0  0
    6.3192   -0.8533   -7.7527 H   0  0  0  0  0  0  0  0  0  0  0  0
    7.9866   -1.6312   -7.4516 H   0  0  0  0  0  0  0  0  0  0  0  0
    5.5630   -1.5459   -5.5369 H   0  0  0  0  0  0  0  0  0  0  0  0
    8.3235   -2.9247   -5.4047 H   0  0  0  0  0  0  0  0  0  0  0  0
    8.3680   -0.7612   -4.0341 H   0  0  0  0  0  0  0  0  0  0  0  0
    8.6635   -2.2465   -3.1168 H   0  0  0  0  0  0  0  0  0  0  0  0
    6.0059   -0.7050   -3.2826 H   0  0  0  0  0  0  0  0  0  0  0  0
    7.0588   -0.7953   -1.8721 H   0  0  0  0  0  0  0  0  0  0  0  0
    4.9618   -2.2839   -1.9219 H   0  0  0  0  0  0  0  0  0  0  0  0
    5.9760   -5.3283   -2.1265 H   0  0  0  0  0  0  0  0  0  0  0  0
    6.8761   -6.7790   -0.3471 H   0  0  0  0  0  0  0  0  0  0  0  0
    9.9572   -4.8670    2.2532 H   0  0  0  0  0  0  0  0  0  0  0  0
   10.8845   -6.3182    4.0214 H   0  0  0  0  0  0  0  0  0  0  0  0
    8.8326   -8.9144    5.7276 H   0  0  0  0  0  0  0  0  0  0  0  0
    9.7098  -10.3521    3.8023 H   0  0  0  0  0  0  0  0  0  0  0  0
   10.4107  -10.6547    5.3919 H   0  0  0  0  0  0  0  0  0  0  0  0
   11.6772   -9.0056    3.1203 H   0  0  0  0  0  0  0  0  0  0  0  0
   12.2357  -10.5785    3.6950 H   0  0  0  0  0  0  0  0  0  0  0  0
   13.5309   -8.5046    4.5050 H   0  0  0  0  0  0  0  0  0  0  0  0
   12.3715  -10.3342    6.6834 H   0  0  0  0  0  0  0  0  0  0  0  0
   13.6165   -9.1086    6.9370 H   0  0  0  0  0  0  0  0  0  0  0  0
   15.0837  -10.2618    5.2387 H   0  0  0  0  0  0  0  0  0  0  0  0
   13.8513  -11.4994    5.0058 H   0  0  0  0  0  0  0  0  0  0  0  0
   15.3035  -10.9370    7.6730 H   0  0  0  0  0  0  0  0  0  0  0  0
   15.6129  -12.3110    6.5859 H   0  0  0  0  0  0  0  0  0  0  0  0
   14.0565  -12.1805    7.4365 H   0  0  0  0  0  0  0  0  0  0  0  0
   10.3564   -6.9799    6.4407 H   0  0  0  0  0  0  0  0  0  0  0  0
   10.7889   -8.6054    7.0145 H   0  0  0  0  0  0  0  0  0  0  0  0
    6.2333   -4.3694   -5.1094 H   0  0  0  0  0  0  0  0  0  0  0  0
    7.4044   -4.4086   -3.7648 H   0  0  0  0  0  0  0  0  0  0  0  0
  1  2  2  0
  1 34  1  0
  1 35  1  0
  2  3  1  0
  2 36  1  0
  3  4  1  0
  3 33  1  0
  3 37  1  6
  4  5  1  0
  4 38  1  0
  4 39  1  0
  5  6  1  0
  5 40  1  0
  5 41  1  0
  6  7  1  0
  6 32  1  0
  6 42  1  1
  7  8  2  0
  7 30  1  0
  8  9  1  0
  8 43  1  0
  9 10  2  0
  9 44  1  0
 10 11  1  0
 10 28  1  0
 11 12  2  0
 11 26  1  0
 12 13  1  0
 12 45  1  0
 13 14  2  0
 13 46  1  0
 14 15  1  0
 14 24  1  0
 15 16  1  0
 15 23  1  0
 15 47  1  1
 16 17  1  0
 16 48  1  0
 16 49  1  0
 17 18  1  0
 17 50  1  0
 17 51  1  0
 18 19  1  0
 18 22  1  0
 18 52  1  6
 19 20  1  0
 19 53  1  0
 19 54  1  0
 20 21  1  0
 20 55  1  0
 20 56  1  0
 21 57  1  0
 21 58  1  0
 21 59  1  0
 22 23  1  0
 23 60  1  0
 23 61  1  0
 24 25  1  0
 24 26  2  0
 26 27  1  0
 28 29  1  0
 28 30  2  0
 30 31  1  0
 32 33  1  0
 33 62  1  0
 33 63  1  0
M  END

