
     RDKit          3D

 36 37  0  0  0  0  0  0  0  0999 V2000
    0.8312    0.7262    2.5110 C   0  0  0  0  0  0  0  0  0  0  0  0
    2.3314    1.0271    2.5084 C   0  0  0  0  0  0  0  0  0  0  0  0
    2.9229    1.2042    1.1018 C   0  0  1  0  0  0  0  0  0  0  0  0
    2.4217    2.3665    0.3535 N   0  0  0  0  0  0  0  0  0  0  0  0
    4.4732    1.2403    1.0432 C   0  0  1  0  0  0  0  0  0  0  0  0
    4.8471    1.3679   -0.3106 O   0  0  0  0  0  0  0  0  0  0  0  0
    5.1131    2.3488    1.9112 C   0  0  0  0  0  0  0  0  0  0  0  0
    6.6247    2.2940    1.9660 C   0  0  0  0  0  0  0  0  0  0  0  0
    7.2862    1.8880    3.1374 C   0  0  0  0  0  0  0  0  0  0  0  0
    8.6791    1.8111    3.1890 C   0  0  0  0  0  0  0  0  0  0  0  0
    9.4451    2.1466    2.0710 C   0  0  0  0  0  0  0  0  0  0  0  0
    8.7955    2.5741    0.8951 C   0  0  0  0  0  0  0  0  0  0  0  0
    7.4014    2.6365    0.8501 C   0  0  0  0  0  0  0  0  0  0  0  0
    9.5048    2.9324   -0.2210 O   0  0  0  0  0  0  0  0  0  0  0  0
   10.8833    3.1672    0.0086 C   0  0  0  0  0  0  0  0  0  0  0  0
   11.4660    2.0748    0.8900 C   0  0  0  0  0  0  0  0  0  0  0  0
   10.8103    2.0566    2.1468 O   0  0  0  0  0  0  0  0  0  0  0  0
    0.4418    0.6239    3.5360 H   0  0  0  0  0  0  0  0  0  0  0  0
    0.6094   -0.2115    1.9743 H   0  0  0  0  0  0  0  0  0  0  0  0
    0.2594    1.5318    2.0215 H   0  0  0  0  0  0  0  0  0  0  0  0
    2.8716    0.2100    3.0192 H   0  0  0  0  0  0  0  0  0  0  0  0
    2.5231    1.9375    3.1045 H   0  0  0  0  0  0  0  0  0  0  0  0
    2.6457    0.3194    0.5018 H   0  0  0  0  0  0  0  0  0  0  0  0
    2.3755    3.1998    0.9413 H   0  0  0  0  0  0  0  0  0  0  0  0
    1.4867    2.2092   -0.0166 H   0  0  0  0  0  0  0  0  0  0  0  0
    4.8533    0.2663    1.3991 H   0  0  0  0  0  0  0  0  0  0  0  0
    4.1765    1.9783   -0.6739 H   0  0  0  0  0  0  0  0  0  0  0  0
    4.7229    2.2790    2.9390 H   0  0  0  0  0  0  0  0  0  0  0  0
    4.7886    3.3256    1.5100 H   0  0  0  0  0  0  0  0  0  0  0  0
    6.7045    1.6247    4.0252 H   0  0  0  0  0  0  0  0  0  0  0  0
    9.2000    1.4879    4.0930 H   0  0  0  0  0  0  0  0  0  0  0  0
    6.9299    2.9438   -0.0836 H   0  0  0  0  0  0  0  0  0  0  0  0
   11.0267    4.1519    0.4937 H   0  0  0  0  0  0  0  0  0  0  0  0
   11.3750    3.1873   -0.9755 H   0  0  0  0  0  0  0  0  0  0  0  0
   12.5342    2.2507    1.0863 H   0  0  0  0  0  0  0  0  0  0  0  0
   11.3563    1.0940    0.3889 H   0  0  0  0  0  0  0  0  0  0  0  0
  1  2  1  0
  1 18  1  0
  1 19  1  0
  1 20  1  0
  2  3  1  0
  2 21  1  0
  2 22  1  0
  3  4  1  0
  3  5  1  0
  3 23  1  6
  4 24  1  0
  4 25  1  0
  5  6  1  0
  5  7  1  0
  5 26  1  1
  6 27  1  0
  7  8  1  0
  7 28  1  0
  7 29  1  0
  8  9  2  0
  8 13  1  0
  9 10  1  0
  9 30  1  0
 10 11  2  0
 10 31  1  0
 11 12  1  0
 11 17  1  0
 12 13  2  0
 12 14  1  0
 13 32  1  0
 14 15  1  0
 15 16  1  0
 15 33  1  0
 15 34  1  0
 16 17  1  0
 16 35  1  0
 16 36  1  0
M  END

