
     RDKit          3D

 40 40  0  0  0  0  0  0  0  0999 V2000
    2.5359   -1.8475   -1.3223 C   0  0  0  0  0  0  0  0  0  0  0  0
    3.5130   -1.1697   -0.3621 C   0  0  0  0  0  0  0  0  0  0  0  0
    2.9605   -1.0688    1.0659 C   0  0  0  0  0  0  0  0  0  0  0  0
    3.8535   -0.4068    1.9993 N   0  0  0  0  0  0  0  0  0  0  0  0
    4.7984   -1.0188    2.7446 C   0  0  0  0  0  0  0  0  0  0  0  0
    5.5809   -0.2194    3.5033 N   0  0  0  0  0  0  0  0  0  0  0  0
    6.4763   -0.8724    4.2186 C   0  0  0  0  0  0  0  0  0  0  0  0
    7.5212    0.1064    5.2202 Cl  0  0  0  0  0  0  0  0  0  0  0  0
    6.6776   -2.1767    4.2676 N   0  0  0  0  0  0  0  0  0  0  0  0
    5.8478   -2.8739    3.4776 C   0  0  0  0  0  0  0  0  0  0  0  0
    6.0275   -4.1869    3.5089 O   0  0  0  0  0  0  0  0  0  0  0  0
    5.1952   -5.0298    2.6971 C   0  0  0  0  0  0  0  0  0  0  0  0
    5.6581   -6.4587    2.9341 C   0  0  0  0  0  0  0  0  0  0  0  0
    4.9070   -7.5230    2.1097 C   0  0  1  0  0  0  0  0  0  0  0  0
    5.5895   -8.8846    2.3178 C   0  0  0  0  0  0  0  0  0  0  0  0
    3.4231   -7.6053    2.5109 C   0  0  0  0  0  0  0  0  0  0  0  0
    5.0507   -7.0759    0.7527 O   0  0  0  0  0  0  0  0  0  0  0  0
    4.5101   -7.8550   -0.2835 C   0  0  0  0  0  0  0  0  0  0  0  0
    4.9005   -2.3596    2.6990 N   0  0  0  0  0  0  0  0  0  0  0  0
    2.9539   -1.9111   -2.3389 H   0  0  0  0  0  0  0  0  0  0  0  0
    1.5840   -1.2939   -1.3893 H   0  0  0  0  0  0  0  0  0  0  0  0
    2.2993   -2.8740   -0.9960 H   0  0  0  0  0  0  0  0  0  0  0  0
    3.7596   -0.1564   -0.7261 H   0  0  0  0  0  0  0  0  0  0  0  0
    4.4629   -1.7293   -0.3297 H   0  0  0  0  0  0  0  0  0  0  0  0
    2.7533   -2.0759    1.4560 H   0  0  0  0  0  0  0  0  0  0  0  0
    2.0050   -0.5167    1.0615 H   0  0  0  0  0  0  0  0  0  0  0  0
    3.8697    0.6057    2.0487 H   0  0  0  0  0  0  0  0  0  0  0  0
    5.2986   -4.7518    1.6394 H   0  0  0  0  0  0  0  0  0  0  0  0
    4.1430   -4.8723    2.9814 H   0  0  0  0  0  0  0  0  0  0  0  0
    5.5679   -6.6989    4.0058 H   0  0  0  0  0  0  0  0  0  0  0  0
    6.7290   -6.5155    2.6811 H   0  0  0  0  0  0  0  0  0  0  0  0
    5.6044   -9.1472    3.3867 H   0  0  0  0  0  0  0  0  0  0  0  0
    6.6289   -8.8502    1.9565 H   0  0  0  0  0  0  0  0  0  0  0  0
    5.0634   -9.6936    1.7883 H   0  0  0  0  0  0  0  0  0  0  0  0
    3.3270   -7.7966    3.5909 H   0  0  0  0  0  0  0  0  0  0  0  0
    2.9073   -8.4246    1.9873 H   0  0  0  0  0  0  0  0  0  0  0  0
    2.8935   -6.6695    2.2774 H   0  0  0  0  0  0  0  0  0  0  0  0
    4.7250   -7.3256   -1.2238 H   0  0  0  0  0  0  0  0  0  0  0  0
    3.4129   -7.9782   -0.2065 H   0  0  0  0  0  0  0  0  0  0  0  0
    4.9645   -8.8616   -0.3501 H   0  0  0  0  0  0  0  0  0  0  0  0
  1  2  1  0
  1 20  1  0
  1 21  1  0
  1 22  1  0
  2  3  1  0
  2 23  1  0
  2 24  1  0
  3  4  1  0
  3 25  1  0
  3 26  1  0
  4  5  1  0
  4 27  1  0
  5  6  2  0
  5 19  1  0
  6  7  1  0
  7  8  1  0
  7  9  2  0
  9 10  1  0
 10 11  1  0
 10 19  2  0
 11 12  1  0
 12 13  1  0
 12 28  1  0
 12 29  1  0
 13 14  1  0
 13 30  1  0
 13 31  1  0
 14 15  1  0
 14 16  1  0
 14 17  1  6
 15 32  1  0
 15 33  1  0
 15 34  1  0
 16 35  1  0
 16 36  1  0
 16 37  1  0
 17 18  1  0
 18 38  1  0
 18 39  1  0
 18 40  1  0
M  END

