
     RDKit          3D

 38 39  0  0  0  0  0  0  0  0999 V2000
    3.2389    1.6318   -0.0954 C   0  0  0  0  0  0  0  0  0  0  0  0
    3.3617    0.2248    0.0261 O   0  0  0  0  0  0  0  0  0  0  0  0
    3.6044   -0.4836   -1.0980 C   0  0  0  0  0  0  0  0  0  0  0  0
    3.7259   -1.8813   -0.9758 C   0  0  0  0  0  0  0  0  0  0  0  0
    3.9752   -2.6357   -2.1122 C   0  0  0  0  0  0  0  0  0  0  0  0
    4.0993   -1.9770   -3.3566 C   0  0  0  0  0  0  0  0  0  0  0  0
    4.3510   -2.6195   -4.5779 N   0  0  0  0  0  0  0  0  0  0  0  0
    4.5226   -3.9712   -4.8295 C   0  0  0  0  0  0  0  0  0  0  0  0
    4.4665   -4.8187   -3.9271 O   0  0  0  0  0  0  0  0  0  0  0  0
    4.7722   -4.3532   -6.2048 C   0  0  0  0  0  0  0  0  0  0  0  0
    4.8863   -3.2877   -7.6232 S   0  0  0  0  0  0  0  0  0  0  0  0
    5.1916   -4.7194   -8.6127 C   0  0  0  0  0  0  0  0  0  0  0  0
    5.3633   -4.6044   -9.9506 N   0  0  0  0  0  0  0  0  0  0  0  0
    5.7168   -5.7384  -10.8107 C   0  0  1  0  0  0  0  0  0  0  0  0
    5.1969   -5.4744  -12.2239 C   0  0  0  0  0  0  0  0  0  0  0  0
    7.2221   -6.0298  -10.7790 C   0  0  0  0  0  0  0  0  0  0  0  0
    5.2099   -5.8561   -7.9668 N   0  0  0  0  0  0  0  0  0  0  0  0
    4.9736   -5.6757   -6.6294 C   0  0  0  0  0  0  0  0  0  0  0  0
    4.9525   -6.7457   -5.8112 N   0  0  0  0  0  0  0  0  0  0  0  0
    3.9588   -0.5821   -3.3545 C   0  0  0  0  0  0  0  0  0  0  0  0
    3.7189    0.1423   -2.2592 N   0  0  0  0  0  0  0  0  0  0  0  0
    3.0454    2.0087    0.9180 H   0  0  0  0  0  0  0  0  0  0  0  0
    2.4085    1.9087   -0.7652 H   0  0  0  0  0  0  0  0  0  0  0  0
    4.1604    2.0848   -0.4961 H   0  0  0  0  0  0  0  0  0  0  0  0
    3.6226   -2.3468    0.0057 H   0  0  0  0  0  0  0  0  0  0  0  0
    4.0770   -3.7176   -2.0694 H   0  0  0  0  0  0  0  0  0  0  0  0
    4.4113   -1.9964   -5.3748 H   0  0  0  0  0  0  0  0  0  0  0  0
    5.4560   -3.6723  -10.3368 H   0  0  0  0  0  0  0  0  0  0  0  0
    5.1895   -6.6067  -10.3865 H   0  0  0  0  0  0  0  0  0  0  0  0
    5.6828   -4.5876  -12.6677 H   0  0  0  0  0  0  0  0  0  0  0  0
    4.1089   -5.3074  -12.2232 H   0  0  0  0  0  0  0  0  0  0  0  0
    5.4148   -6.3301  -12.8806 H   0  0  0  0  0  0  0  0  0  0  0  0
    7.7995   -5.1769  -11.1740 H   0  0  0  0  0  0  0  0  0  0  0  0
    7.4590   -6.9139  -11.3925 H   0  0  0  0  0  0  0  0  0  0  0  0
    7.5535   -6.2299   -9.7495 H   0  0  0  0  0  0  0  0  0  0  0  0
    5.1132   -7.6659   -6.1939 H   0  0  0  0  0  0  0  0  0  0  0  0
    4.7806   -6.5671   -4.8241 H   0  0  0  0  0  0  0  0  0  0  0  0
    4.0470   -0.0252   -4.2978 H   0  0  0  0  0  0  0  0  0  0  0  0
  1  2  1  0
  1 22  1  0
  1 23  1  0
  1 24  1  0
  2  3  1  0
  3  4  2  0
  3 21  1  0
  4  5  1  0
  4 25  1  0
  5  6  2  0
  5 26  1  0
  6  7  1  0
  6 20  1  0
  7  8  1  0
  7 27  1  0
  8  9  2  0
  8 10  1  0
 10 11  1  0
 10 18  2  0
 11 12  1  0
 12 13  1  0
 12 17  2  0
 13 14  1  0
 13 28  1  0
 14 15  1  0
 14 16  1  0
 14 29  1  1
 15 30  1  0
 15 31  1  0
 15 32  1  0
 16 33  1  0
 16 34  1  0
 16 35  1  0
 17 18  1  0
 18 19  1  0
 19 36  1  0
 19 37  1  0
 20 21  2  0
 20 38  1  0
M  END

