
     RDKit          3D

 40 43  0  0  0  0  0  0  0  0999 V2000
   10.3824    3.2731   -0.4031 C   0  0  0  0  0  0  0  0  0  0  0  0
    9.1737    2.7077   -1.1045 C   0  0  0  0  0  0  0  0  0  0  0  0
    7.8694    3.0520   -0.6540 C   0  0  0  0  0  0  0  0  0  0  0  0
    6.7595    2.5227   -1.3072 C   0  0  0  0  0  0  0  0  0  0  0  0
    5.4405    2.7241   -1.0561 N   0  0  0  0  0  0  0  0  0  0  0  0
    4.9161    3.5320    0.0049 C   0  0  1  0  0  0  0  0  0  0  0  0
    4.8330    2.8802    1.3640 C   0  0  0  0  0  0  0  0  0  0  0  0
    4.4564    3.6048    2.5094 C   0  0  0  0  0  0  0  0  0  0  0  0
    4.3593    2.9917    3.7574 C   0  0  0  0  0  0  0  0  0  0  0  0
    4.6439    1.6304    3.8709 C   0  0  0  0  0  0  0  0  0  0  0  0
    4.5224    0.8207    5.4995 S   0  0  0  0  0  0  0  0  0  0  0  0
    3.7276   -0.4516    4.8769 F   0  0  0  0  0  0  0  0  0  0  0  0
    5.9313    0.0414    5.2867 F   0  0  0  0  0  0  0  0  0  0  0  0
    4.4139    0.1038    6.9454 F   0  0  0  0  0  0  0  0  0  0  0  0
    5.3087    2.0398    6.2320 F   0  0  0  0  0  0  0  0  0  0  0  0
    3.1047    1.5468    5.8223 F   0  0  0  0  0  0  0  0  0  0  0  0
    5.0187    0.8830    2.7565 C   0  0  0  0  0  0  0  0  0  0  0  0
    5.1093    1.5121    1.5136 C   0  0  0  0  0  0  0  0  0  0  0  0
    5.1691    5.0297   -0.1114 C   0  0  0  0  0  0  0  0  0  0  0  0
    3.8084    4.4891   -0.4128 C   0  0  0  0  0  0  0  0  0  0  0  0
    7.0429    1.6845   -2.3479 N   0  0  0  0  0  0  0  0  0  0  0  0
    6.1390    1.0394   -3.1205 N   0  0  0  0  0  0  0  0  0  0  0  0
    6.9389    0.3727   -3.9548 C   0  0  0  0  0  0  0  0  0  0  0  0
    8.2648    0.5354   -3.7826 N   0  0  0  0  0  0  0  0  0  0  0  0
    8.3467    1.3765   -2.7499 C   0  0  0  0  0  0  0  0  0  0  0  0
    9.4101    1.8936   -2.1272 N   0  0  0  0  0  0  0  0  0  0  0  0
   10.1134    3.9722    0.4007 H   0  0  0  0  0  0  0  0  0  0  0  0
   11.0273    3.7904   -1.1305 H   0  0  0  0  0  0  0  0  0  0  0  0
   10.9824    2.4537    0.0241 H   0  0  0  0  0  0  0  0  0  0  0  0
    7.7320    3.7136    0.1984 H   0  0  0  0  0  0  0  0  0  0  0  0
    4.8100    2.1840   -1.6454 H   0  0  0  0  0  0  0  0  0  0  0  0
    4.2285    4.6706    2.4448 H   0  0  0  0  0  0  0  0  0  0  0  0
    4.0655    3.5742    4.6298 H   0  0  0  0  0  0  0  0  0  0  0  0
    5.2394   -0.1801    2.8457 H   0  0  0  0  0  0  0  0  0  0  0  0
    5.3979    0.9195    0.6449 H   0  0  0  0  0  0  0  0  0  0  0  0
    5.7918    5.3507   -0.9497 H   0  0  0  0  0  0  0  0  0  0  0  0
    5.3271    5.5930    0.8113 H   0  0  0  0  0  0  0  0  0  0  0  0
    3.4888    4.4473   -1.4576 H   0  0  0  0  0  0  0  0  0  0  0  0
    3.0016    4.6509    0.3065 H   0  0  0  0  0  0  0  0  0  0  0  0
    6.5165   -0.2675   -4.7305 H   0  0  0  0  0  0  0  0  0  0  0  0
  1  2  1  0
  1 27  1  0
  1 28  1  0
  1 29  1  0
  2  3  1  0
  2 26  2  0
  3  4  2  0
  3 30  1  0
  4  5  1  0
  4 21  1  0
  6  5  1  6
  5 31  1  0
  6  7  1  0
  6 19  1  0
  6 20  1  0
  7  8  2  0
  7 18  1  0
  8  9  1  0
  8 32  1  0
  9 10  2  0
  9 33  1  0
 10 11  1  0
 10 17  1  0
 11 12  1  0
 11 13  1  0
 11 14  1  0
 11 15  1  0
 11 16  1  0
 17 18  2  0
 17 34  1  0
 18 35  1  0
 19 20  1  0
 19 36  1  0
 19 37  1  0
 20 38  1  0
 20 39  1  0
 21 22  1  0
 21 25  1  0
 22 23  2  0
 23 24  1  0
 23 40  1  0
 24 25  2  0
 25 26  1  0
M  END

