
     RDKit          3D

 57 59  0  0  0  0  0  0  0  0999 V2000
    1.2909   -3.1558    1.3789 C   0  0  0  0  0  0  0  0  0  0  0  0
    2.1664   -2.5383    0.2883 C   0  0  0  0  0  0  0  0  0  0  0  0
    3.0408   -1.4542    0.7608 N   0  0  0  0  0  0  0  0  0  0  0  0
    2.3844   -0.1422    0.7998 C   0  0  0  0  0  0  0  0  0  0  0  0
    2.3932    0.6231   -0.5276 C   0  0  0  0  0  0  0  0  0  0  0  0
    4.3888   -1.5650    0.9950 C   0  0  0  0  0  0  0  0  0  0  0  0
    5.1842   -0.3940    1.0645 C   0  0  0  0  0  0  0  0  0  0  0  0
    6.5568   -0.4290    1.3034 C   0  0  0  0  0  0  0  0  0  0  0  0
    7.3590    0.7075    1.3630 N   0  0  0  0  0  0  0  0  0  0  0  0
    7.0115    2.0300    1.1931 C   0  0  0  0  0  0  0  0  0  0  0  0
    8.1668    3.0062    1.3383 C   0  0  0  0  0  0  0  0  0  0  0  0
    5.8780    2.4093    0.9527 O   0  0  0  0  0  0  0  0  0  0  0  0
    7.2052   -1.6874    1.4800 C   0  0  0  0  0  0  0  0  0  0  0  0
    8.5551   -1.6698    1.6988 N   0  0  0  0  0  0  0  0  0  0  0  0
    9.1359   -2.7941    1.8314 N   0  0  0  0  0  0  0  0  0  0  0  0
   10.5137   -2.7366    2.0039 C   0  0  0  0  0  0  0  0  0  0  0  0
   11.3073   -1.6172    1.6863 C   0  0  0  0  0  0  0  0  0  0  0  0
   12.6936   -1.6572    1.8043 C   0  0  0  0  0  0  0  0  0  0  0  0
   13.4741   -0.4256    1.4906 C   0  0  0  0  0  0  0  0  0  0  0  0
   12.9780    0.6504    1.1996 O   0  0  0  0  0  0  0  0  0  0  0  0
   14.8379   -0.5850    1.5603 N   0  0  0  0  0  0  0  0  0  0  0  0
   15.3865    0.2697    1.5932 H   0  0  0  0  0  0  0  0  0  0  0  0
   15.4704   -1.7179    2.0726 N   0  0  0  0  0  0  0  0  0  0  0  0
   16.4628   -1.7882    1.8657 H   0  0  0  0  0  0  0  0  0  0  0  0
   14.8235   -2.9103    2.3261 C   0  0  0  0  0  0  0  0  0  0  0  0
   15.4524   -3.9185    2.5982 O   0  0  0  0  0  0  0  0  0  0  0  0
   13.3443   -2.8349    2.2318 C   0  0  0  0  0  0  0  0  0  0  0  0
   12.5799   -3.9685    2.5298 C   0  0  0  0  0  0  0  0  0  0  0  0
   11.1972   -3.9042    2.4396 C   0  0  0  0  0  0  0  0  0  0  0  0
   10.4416   -5.1105    2.8297 N   0  0  0  0  0  0  0  0  0  0  0  0
    9.4570   -4.9607    3.5300 O   0  0  0  0  0  0  0  0  0  0  0  0
   10.8808   -6.1824    2.4426 O   0  0  0  0  0  0  0  0  0  0  0  0
    6.4184   -2.8665    1.4460 C   0  0  0  0  0  0  0  0  0  0  0  0
    5.0589   -2.8341    1.2291 C   0  0  0  0  0  0  0  0  0  0  0  0
    4.2817   -3.9524    1.2709 O   0  0  0  0  0  0  0  0  0  0  0  0
    4.8849   -5.1972    1.5623 C   0  0  0  0  0  0  0  0  0  0  0  0
    0.6255   -3.9178    0.9414 H   0  0  0  0  0  0  0  0  0  0  0  0
    0.6544   -2.4018    1.8693 H   0  0  0  0  0  0  0  0  0  0  0  0
    1.9140   -3.6371    2.1451 H   0  0  0  0  0  0  0  0  0  0  0  0
    1.5251   -2.1070   -0.4993 H   0  0  0  0  0  0  0  0  0  0  0  0
    2.7725   -3.3107   -0.1925 H   0  0  0  0  0  0  0  0  0  0  0  0
    2.8387    0.4650    1.5957 H   0  0  0  0  0  0  0  0  0  0  0  0
    1.3426   -0.3172    1.1123 H   0  0  0  0  0  0  0  0  0  0  0  0
    3.4142    0.8767   -0.8476 H   0  0  0  0  0  0  0  0  0  0  0  0
    1.8313    1.5643   -0.4199 H   0  0  0  0  0  0  0  0  0  0  0  0
    1.9177    0.0389   -1.3315 H   0  0  0  0  0  0  0  0  0  0  0  0
    4.7446    0.5823    0.9050 H   0  0  0  0  0  0  0  0  0  0  0  0
    8.3321    0.4815    1.5574 H   0  0  0  0  0  0  0  0  0  0  0  0
    9.1479    2.5269    1.4665 H   0  0  0  0  0  0  0  0  0  0  0  0
    7.9690    3.6580    2.2035 H   0  0  0  0  0  0  0  0  0  0  0  0
    8.1917    3.6518    0.4480 H   0  0  0  0  0  0  0  0  0  0  0  0
   10.8337   -0.7058    1.3251 H   0  0  0  0  0  0  0  0  0  0  0  0
   13.0772   -4.8889    2.8371 H   0  0  0  0  0  0  0  0  0  0  0  0
    6.9448   -3.7986    1.6404 H   0  0  0  0  0  0  0  0  0  0  0  0
    4.0759   -5.9396    1.5653 H   0  0  0  0  0  0  0  0  0  0  0  0
    5.3764   -5.1899    2.5506 H   0  0  0  0  0  0  0  0  0  0  0  0
    5.6308   -5.4773    0.7981 H   0  0  0  0  0  0  0  0  0  0  0  0
  1  2  1  0
  1 37  1  0
  1 38  1  0
  1 39  1  0
  2  3  1  0
  2 40  1  0
  2 41  1  0
  3  4  1  0
  3  6  1  0
  4  5  1  0
  4 42  1  0
  4 43  1  0
  5 44  1  0
  5 45  1  0
  5 46  1  0
  6  7  2  0
  6 34  1  0
  7  8  1  0
  7 47  1  0
  8  9  1  0
  8 13  2  0
  9 10  1  0
  9 48  1  0
 10 11  1  0
 10 12  2  0
 11 49  1  0
 11 50  1  0
 11 51  1  0
 13 14  1  0
 13 33  1  0
 14 15  2  0
 15 16  1  0
 16 17  2  0
 16 29  1  0
 17 18  1  0
 17 52  1  0
 18 19  1  0
 18 27  2  0
 19 20  2  0
 19 21  1  0
 21 22  1  0
 21 23  1  0
 23 24  1  0
 23 25  1  0
 25 26  2  0
 25 27  1  0
 27 28  1  0
 28 29  2  0
 28 53  1  0
 29 30  1  0
 30 31  2  0
 30 32  1  0
 33 34  2  0
 33 54  1  0
 34 35  1  0
 35 36  1  0
 36 55  1  0
 36 56  1  0
 36 57  1  0
M  CHG  2  30   1  32  -1
M  END

