
     RDKit          3D

 50 52  0  0  0  0  0  0  0  0999 V2000
    3.2389    2.1254    1.1824 C   0  0  0  0  0  0  0  0  0  0  0  0
    4.0124    1.2439    0.2309 C   0  0  0  0  0  0  0  0  0  0  0  0
    4.7432    1.7921   -0.8311 C   0  0  0  0  0  0  0  0  0  0  0  0
    5.5180    0.9964   -1.6919 C   0  0  0  0  0  0  0  0  0  0  0  0
    6.2846    1.6220   -2.8324 C   0  0  0  0  0  0  0  0  0  0  0  0
    5.5507   -0.3843   -1.4694 C   0  0  0  0  0  0  0  0  0  0  0  0
    4.8014   -0.9663   -0.4361 C   0  0  0  0  0  0  0  0  0  0  0  0
    4.9597   -2.4474   -0.1994 C   0  0  0  0  0  0  0  0  0  0  0  0
    6.0722   -2.9538   -0.2315 O   0  0  0  0  0  0  0  0  0  0  0  0
    3.8300   -3.1905    0.0912 N   0  0  0  0  0  0  0  0  0  0  0  0
    2.4582   -2.8318   -0.2548 C   0  0  0  0  0  0  0  0  0  0  0  0
    1.9021   -3.7779   -1.3298 C   0  0  0  0  0  0  0  0  0  0  0  0
    2.0810   -5.1793   -0.9498 N   0  0  0  0  0  0  0  0  0  0  0  0
    0.7903   -6.0610   -0.3437 S   0  0  1  0  0  0  0  0  0  0  0  0
    1.2976   -6.9134    0.7350 O   0  0  0  0  0  0  0  0  0  0  0  0
   -0.3217   -5.1268   -0.1428 O   0  0  0  0  0  0  0  0  0  0  0  0
    0.3096   -7.1593   -1.6892 C   0  0  0  0  0  0  0  0  0  0  0  0
   -0.6304   -6.7247   -2.6279 C   0  0  0  0  0  0  0  0  0  0  0  0
   -0.9788   -7.5728   -3.6818 C   0  0  0  0  0  0  0  0  0  0  0  0
   -0.4017   -8.8403   -3.7865 C   0  0  0  0  0  0  0  0  0  0  0  0
    0.5214   -9.2704   -2.8248 C   0  0  0  0  0  0  0  0  0  0  0  0
    1.0868  -10.6696   -2.9042 C   0  0  1  0  0  0  0  0  0  0  0  0
    0.2543  -11.5682   -2.3484 F   0  0  0  0  0  0  0  0  0  0  0  0
    1.2804  -11.0499   -4.1793 F   0  0  0  0  0  0  0  0  0  0  0  0
    2.2635  -10.7699   -2.2655 F   0  0  0  0  0  0  0  0  0  0  0  0
    0.8806   -8.4313   -1.7661 C   0  0  0  0  0  0  0  0  0  0  0  0
    3.4563   -5.5381   -0.5847 C   0  0  0  0  0  0  0  0  0  0  0  0
    3.9964   -4.5877    0.4873 C   0  0  0  0  0  0  0  0  0  0  0  0
    4.0433   -0.1479    0.4114 C   0  0  0  0  0  0  0  0  0  0  0  0
    2.9983    3.0985    0.7286 H   0  0  0  0  0  0  0  0  0  0  0  0
    3.8216    2.3253    2.0986 H   0  0  0  0  0  0  0  0  0  0  0  0
    2.2955    1.6526    1.4975 H   0  0  0  0  0  0  0  0  0  0  0  0
    4.7186    2.8754   -0.9880 H   0  0  0  0  0  0  0  0  0  0  0  0
    6.7909    2.5483   -2.5177 H   0  0  0  0  0  0  0  0  0  0  0  0
    5.6106    1.8899   -3.6649 H   0  0  0  0  0  0  0  0  0  0  0  0
    7.0459    0.9358   -3.2315 H   0  0  0  0  0  0  0  0  0  0  0  0
    6.1718   -1.0299   -2.0945 H   0  0  0  0  0  0  0  0  0  0  0  0
    2.4197   -1.8002   -0.6230 H   0  0  0  0  0  0  0  0  0  0  0  0
    1.8159   -2.9019    0.6421 H   0  0  0  0  0  0  0  0  0  0  0  0
    2.4337   -3.6089   -2.2837 H   0  0  0  0  0  0  0  0  0  0  0  0
    0.8352   -3.5749   -1.4850 H   0  0  0  0  0  0  0  0  0  0  0  0
   -1.0910   -5.7414   -2.5193 H   0  0  0  0  0  0  0  0  0  0  0  0
   -1.7102   -7.2449   -4.4239 H   0  0  0  0  0  0  0  0  0  0  0  0
   -0.6696   -9.5005   -4.6135 H   0  0  0  0  0  0  0  0  0  0  0  0
    1.5843   -8.7630   -1.0021 H   0  0  0  0  0  0  0  0  0  0  0  0
    4.0814   -5.4771   -1.4927 H   0  0  0  0  0  0  0  0  0  0  0  0
    3.4795   -6.5712   -0.2165 H   0  0  0  0  0  0  0  0  0  0  0  0
    5.0654   -4.7653    0.6571 H   0  0  0  0  0  0  0  0  0  0  0  0
    3.4414   -4.7636    1.4260 H   0  0  0  0  0  0  0  0  0  0  0  0
    3.4891   -0.5928    1.2425 H   0  0  0  0  0  0  0  0  0  0  0  0
  1  2  1  0
  1 30  1  0
  1 31  1  0
  1 32  1  0
  2  3  2  0
  2 29  1  0
  3  4  1  0
  3 33  1  0
  4  5  1  0
  4  6  2  0
  5 34  1  0
  5 35  1  0
  5 36  1  0
  6  7  1  0
  6 37  1  0
  7  8  1  0
  7 29  2  0
  8  9  2  0
  8 10  1  0
 10 11  1  0
 10 28  1  0
 11 12  1  0
 11 38  1  0
 11 39  1  0
 12 13  1  0
 12 40  1  0
 12 41  1  0
 13 14  1  0
 13 27  1  0
 14 15  2  0
 14 16  2  0
 14 17  1  6
 17 18  2  0
 17 26  1  0
 18 19  1  0
 18 42  1  0
 19 20  2  0
 19 43  1  0
 20 21  1  0
 20 44  1  0
 21 22  1  0
 21 26  2  0
 22 23  1  1
 22 24  1  0
 22 25  1  0
 26 45  1  0
 27 28  1  0
 27 46  1  0
 27 47  1  0
 28 48  1  0
 28 49  1  0
 29 50  1  0
M  END

