
     RDKit          3D

 54 57  0  0  0  0  0  0  0  0999 V2000
    0.9997   -0.6645    1.3630 C   0  0  0  0  0  0  0  0  0  0  0  0
    2.4894   -0.5211    1.0511 C   0  0  0  0  0  0  0  0  0  0  0  0
    3.0565    0.8510    1.4269 C   0  0  0  0  0  0  0  0  0  0  0  0
    4.5448    1.0132    1.0809 C   0  0  1  0  0  0  0  0  0  0  0  0
    5.0842    0.1477    1.4997 H   0  0  0  0  0  0  0  0  0  0  0  0
    4.8336    0.9354   -0.3194 O   0  0  0  0  0  0  0  0  0  0  0  0
    4.5961    2.0764   -1.1455 C   0  0  1  0  0  0  0  0  0  0  0  0
    5.1806    1.8564   -2.0540 H   0  0  0  0  0  0  0  0  0  0  0  0
    3.1383    2.2058   -1.5934 C   0  0  0  0  0  0  0  0  0  0  0  0
    2.3672    3.3695   -1.4758 C   0  0  0  0  0  0  0  0  0  0  0  0
    1.0513    3.4040   -1.9451 C   0  0  0  0  0  0  0  0  0  0  0  0
    0.4960    2.2763   -2.5496 C   0  0  0  0  0  0  0  0  0  0  0  0
   -1.1630    2.3645   -3.1089 Cl  0  0  0  0  0  0  0  0  0  0  0  0
    1.2409    1.0918   -2.7037 C   0  0  0  0  0  0  0  0  0  0  0  0
    0.6807   -0.1394   -3.3945 C   0  0  0  0  0  0  0  0  0  0  0  0
    0.7333   -0.0875   -4.8990 C   0  0  0  0  0  0  0  0  0  0  0  0
   -0.3081   -0.0656   -5.7941 C   0  0  0  0  0  0  0  0  0  0  0  0
    0.0200   -0.0266   -7.1186 N   0  0  0  0  0  0  0  0  0  0  0  0
    1.3138   -0.0132   -7.2978 C   0  0  0  0  0  0  0  0  0  0  0  0
    1.9574    0.0288   -8.6100 C   0  0  0  0  0  0  0  0  0  0  0  0
    1.1969    0.0527   -9.8306 C   0  0  0  0  0  0  0  0  0  0  0  0
    1.9880    0.0915  -10.9448 C   0  0  0  0  0  0  0  0  0  0  0  0
    3.6732    0.1000  -10.5368 S   0  0  0  0  0  0  0  0  0  0  0  0
    3.3176    0.0509   -8.8509 C   0  0  0  0  0  0  0  0  0  0  0  0
    2.2321   -0.0505   -5.7921 S   0  0  0  0  0  0  0  0  0  0  0  0
    2.5523    1.0912   -2.2139 C   0  0  0  0  0  0  0  0  0  0  0  0
    5.2494    3.3366   -0.5573 C   0  0  2  0  0  0  0  0  0  0  0  0
    4.9263    4.2175   -1.1331 H   0  0  0  0  0  0  0  0  0  0  0  0
    6.6625    3.2903   -0.7043 O   0  0  0  0  0  0  0  0  0  0  0  0
    4.9170    3.5433    0.9315 C   0  0  2  0  0  0  0  0  0  0  0  0
    3.8550    3.8180    1.0483 H   0  0  0  0  0  0  0  0  0  0  0  0
    5.7105    4.5944    1.4541 O   0  0  0  0  0  0  0  0  0  0  0  0
    5.1888    2.2489    1.7217 C   0  0  2  0  0  0  0  0  0  0  0  0
    4.7888    2.3643    2.7462 H   0  0  0  0  0  0  0  0  0  0  0  0
    6.5963    2.0240    1.7839 O   0  0  0  0  0  0  0  0  0  0  0  0
    0.6275   -1.6673    1.0992 H   0  0  0  0  0  0  0  0  0  0  0  0
    0.4007    0.0716    0.8013 H   0  0  0  0  0  0  0  0  0  0  0  0
    0.7945   -0.5066    2.4353 H   0  0  0  0  0  0  0  0  0  0  0  0
    2.6666   -0.7038   -0.0205 H   0  0  0  0  0  0  0  0  0  0  0  0
    3.0596   -1.3012    1.5874 H   0  0  0  0  0  0  0  0  0  0  0  0
    2.9484    0.9960    2.5167 H   0  0  0  0  0  0  0  0  0  0  0  0
    2.4572    1.6459    0.9532 H   0  0  0  0  0  0  0  0  0  0  0  0
    2.7718    4.2718   -1.0148 H   0  0  0  0  0  0  0  0  0  0  0  0
    0.4492    4.3082   -1.8432 H   0  0  0  0  0  0  0  0  0  0  0  0
   -0.3721   -0.2784   -3.1073 H   0  0  0  0  0  0  0  0  0  0  0  0
    1.2316   -1.0230   -3.0327 H   0  0  0  0  0  0  0  0  0  0  0  0
   -1.3591   -0.0724   -5.4976 H   0  0  0  0  0  0  0  0  0  0  0  0
    0.1075    0.0408   -9.8396 H   0  0  0  0  0  0  0  0  0  0  0  0
    1.6789    0.1158  -11.9889 H   0  0  0  0  0  0  0  0  0  0  0  0
    4.1273    0.0421   -8.1222 H   0  0  0  0  0  0  0  0  0  0  0  0
    3.1494    0.1812   -2.3180 H   0  0  0  0  0  0  0  0  0  0  0  0
    6.9684    2.5489   -0.1485 H   0  0  0  0  0  0  0  0  0  0  0  0
    6.4579    4.6783    0.8368 H   0  0  0  0  0  0  0  0  0  0  0  0
    6.9697    2.8279    2.1781 H   0  0  0  0  0  0  0  0  0  0  0  0
  1  2  1  0
  1 36  1  0
  1 37  1  0
  1 38  1  0
  2  3  1  0
  2 39  1  0
  2 40  1  0
  3  4  1  0
  3 41  1  0
  3 42  1  0
  4  5  1  1
  4  6  1  0
  4 33  1  0
  6  7  1  0
  7  8  1  6
  7  9  1  0
  7 27  1  0
  9 10  2  0
  9 26  1  0
 10 11  1  0
 10 43  1  0
 11 12  2  0
 11 44  1  0
 12 13  1  0
 12 14  1  0
 14 15  1  0
 14 26  2  0
 15 16  1  0
 15 45  1  0
 15 46  1  0
 16 17  2  0
 16 25  1  0
 17 18  1  0
 17 47  1  0
 18 19  2  0
 19 20  1  0
 19 25  1  0
 20 21  1  0
 20 24  2  0
 21 22  2  0
 21 48  1  0
 22 23  1  0
 22 49  1  0
 23 24  1  0
 24 50  1  0
 26 51  1  0
 27 28  1  6
 27 29  1  0
 27 30  1  0
 29 52  1  0
 30 31  1  6
 30 32  1  0
 30 33  1  0
 32 53  1  0
 33 34  1  1
 33 35  1  0
 35 54  1  0
M  END

