
     RDKit          3D

 43 42  0  0  0  0  0  0  0  0999 V2000
    4.3797    2.1212    1.7255 C   0  0  0  0  0  0  0  0  0  0  0  0
    4.0960    0.9334    0.8048 C   0  0  0  0  0  0  0  0  0  0  0  0
    4.6299    1.1210   -0.6187 C   0  0  0  0  0  0  0  0  0  0  0  0
    4.3461   -0.0657   -1.5430 C   0  0  0  0  0  0  0  0  0  0  0  0
    4.8463    0.1142   -2.9814 C   0  0  0  0  0  0  0  0  0  0  0  0
    6.2960    0.2596   -3.1194 N   0  0  0  0  0  0  0  0  0  0  0  0
    6.9969   -1.0144   -2.9531 C   0  0  0  0  0  0  0  0  0  0  0  0
    8.4697   -0.8960   -2.5436 C   0  0  0  0  0  0  0  0  0  0  0  0
    8.6999   -0.2340   -1.1822 C   0  0  0  0  0  0  0  0  0  0  0  0
   10.1754   -0.1573   -0.7875 C   0  0  0  0  0  0  0  0  0  0  0  0
    6.6674    0.9359   -4.3630 C   0  0  0  0  0  0  0  0  0  0  0  0
    6.4330    2.4512   -4.3727 C   0  0  0  0  0  0  0  0  0  0  0  0
    7.2514    3.2273   -3.3370 C   0  0  0  0  0  0  0  0  0  0  0  0
    7.0216    4.7383   -3.3919 C   0  0  0  0  0  0  0  0  0  0  0  0
    3.9863    1.9518    2.7408 H   0  0  0  0  0  0  0  0  0  0  0  0
    3.9181    3.0462    1.3404 H   0  0  0  0  0  0  0  0  0  0  0  0
    5.4630    2.3085    1.8149 H   0  0  0  0  0  0  0  0  0  0  0  0
    3.0065    0.7493    0.7659 H   0  0  0  0  0  0  0  0  0  0  0  0
    4.5372    0.0175    1.2393 H   0  0  0  0  0  0  0  0  0  0  0  0
    5.7180    1.2988   -0.5855 H   0  0  0  0  0  0  0  0  0  0  0  0
    4.1882    2.0365   -1.0560 H   0  0  0  0  0  0  0  0  0  0  0  0
    3.2564   -0.2440   -1.5910 H   0  0  0  0  0  0  0  0  0  0  0  0
    4.7720   -0.9842   -1.1014 H   0  0  0  0  0  0  0  0  0  0  0  0
    4.3733    1.0206   -3.3904 H   0  0  0  0  0  0  0  0  0  0  0  0
    4.4727   -0.7297   -3.6078 H   0  0  0  0  0  0  0  0  0  0  0  0
    6.9220   -1.6302   -3.8800 H   0  0  0  0  0  0  0  0  0  0  0  0
    6.4764   -1.5891   -2.1712 H   0  0  0  0  0  0  0  0  0  0  0  0
    9.0404   -0.3507   -3.3165 H   0  0  0  0  0  0  0  0  0  0  0  0
    8.8946   -1.9165   -2.5339 H   0  0  0  0  0  0  0  0  0  0  0  0
    8.1392   -0.7924   -0.4100 H   0  0  0  0  0  0  0  0  0  0  0  0
    8.2629    0.7778   -1.1987 H   0  0  0  0  0  0  0  0  0  0  0  0
   10.6318   -1.1602   -0.7308 H   0  0  0  0  0  0  0  0  0  0  0  0
   10.3076    0.3232    0.1953 H   0  0  0  0  0  0  0  0  0  0  0  0
   10.7571    0.4257   -1.5217 H   0  0  0  0  0  0  0  0  0  0  0  0
    6.1422    0.4776   -5.2339 H   0  0  0  0  0  0  0  0  0  0  0  0
    7.7406    0.7612   -4.5373 H   0  0  0  0  0  0  0  0  0  0  0  0
    5.3601    2.6746   -4.2333 H   0  0  0  0  0  0  0  0  0  0  0  0
    6.6775    2.8183   -5.3863 H   0  0  0  0  0  0  0  0  0  0  0  0
    8.3249    3.0108   -3.4893 H   0  0  0  0  0  0  0  0  0  0  0  0
    7.0075    2.8471   -2.3316 H   0  0  0  0  0  0  0  0  0  0  0  0
    7.2895    5.1528   -4.3787 H   0  0  0  0  0  0  0  0  0  0  0  0
    7.6234    5.2674   -2.6355 H   0  0  0  0  0  0  0  0  0  0  0  0
    5.9633    4.9898   -3.2079 H   0  0  0  0  0  0  0  0  0  0  0  0
  1  2  1  0
  1 15  1  0
  1 16  1  0
  1 17  1  0
  2  3  1  0
  2 18  1  0
  2 19  1  0
  3  4  1  0
  3 20  1  0
  3 21  1  0
  4  5  1  0
  4 22  1  0
  4 23  1  0
  5  6  1  0
  5 24  1  0
  5 25  1  0
  6  7  1  0
  6 11  1  0
  7  8  1  0
  7 26  1  0
  7 27  1  0
  8  9  1  0
  8 28  1  0
  8 29  1  0
  9 10  1  0
  9 30  1  0
  9 31  1  0
 10 32  1  0
 10 33  1  0
 10 34  1  0
 11 12  1  0
 11 35  1  0
 11 36  1  0
 12 13  1  0
 12 37  1  0
 12 38  1  0
 13 14  1  0
 13 39  1  0
 13 40  1  0
 14 41  1  0
 14 42  1  0
 14 43  1  0
M  END

