
     RDKit          3D

 41 43  0  0  0  0  0  0  0  0999 V2000
    1.0571    2.4402   -3.1643 C   0  0  0  0  0  0  0  0  0  0  0  0
    2.4357    2.2164   -3.0585 O   0  0  0  0  0  0  0  0  0  0  0  0
    3.2069    3.3918   -3.0113 C   0  0  0  0  0  0  0  0  0  0  0  0
    4.6796    3.0201   -2.9222 C   0  0  0  0  0  0  0  0  0  0  0  0
    5.1628    2.2061   -4.1286 C   0  0  0  0  0  0  0  0  0  0  0  0
    6.5716    1.8791   -4.0650 N   0  0  0  0  0  0  0  0  0  0  0  0
    7.0448    0.6066   -3.9571 C   0  0  0  0  0  0  0  0  0  0  0  0
    6.3377   -0.3937   -3.9230 O   0  0  0  0  0  0  0  0  0  0  0  0
    8.5331    0.5102   -3.8904 C   0  0  0  0  0  0  0  0  0  0  0  0
    9.3140    1.5934   -3.9328 N   0  0  0  0  0  0  0  0  0  0  0  0
   10.5738    1.1512   -3.8621 N   0  0  0  0  0  0  0  0  0  0  0  0
   11.6496    2.1207   -3.9509 C   0  0  0  0  0  0  0  0  0  0  0  0
   10.6315   -0.2210   -3.7677 C   0  0  0  0  0  0  0  0  0  0  0  0
    9.3114   -0.6658   -3.7955 C   0  0  0  0  0  0  0  0  0  0  0  0
    8.9213   -2.1048   -3.7338 C   0  0  0  0  0  0  0  0  0  0  0  0
   10.1193   -3.1173   -4.6923 S   0  0  0  0  0  0  0  0  0  0  0  0
   11.6597   -2.4470   -4.1053 C   0  0  0  0  0  0  0  0  0  0  0  0
   12.7741   -3.2987   -4.1029 C   0  0  0  0  0  0  0  0  0  0  0  0
   14.0272   -2.8409   -3.6940 C   0  0  0  0  0  0  0  0  0  0  0  0
   14.1748   -1.5248   -3.2490 C   0  0  0  0  0  0  0  0  0  0  0  0
   13.0746   -0.6668   -3.2479 C   0  0  0  0  0  0  0  0  0  0  0  0
   11.8100   -1.0885   -3.7019 C   0  0  0  0  0  0  0  0  0  0  0  0
    0.5568    1.4611   -3.1924 H   0  0  0  0  0  0  0  0  0  0  0  0
    0.7944    2.9965   -4.0879 H   0  0  0  0  0  0  0  0  0  0  0  0
    0.6606    3.0137   -2.3009 H   0  0  0  0  0  0  0  0  0  0  0  0
    2.9179    4.0140   -2.1375 H   0  0  0  0  0  0  0  0  0  0  0  0
    3.0212    4.0119   -3.9167 H   0  0  0  0  0  0  0  0  0  0  0  0
    4.8525    2.4400   -2.0005 H   0  0  0  0  0  0  0  0  0  0  0  0
    5.2670    3.9516   -2.8323 H   0  0  0  0  0  0  0  0  0  0  0  0
    4.9490    2.7634   -5.0604 H   0  0  0  0  0  0  0  0  0  0  0  0
    4.6128    1.2575   -4.1801 H   0  0  0  0  0  0  0  0  0  0  0  0
    7.2661    2.6196   -4.0777 H   0  0  0  0  0  0  0  0  0  0  0  0
   11.2207    3.0422   -4.3618 H   0  0  0  0  0  0  0  0  0  0  0  0
   12.4419    1.7554   -4.6186 H   0  0  0  0  0  0  0  0  0  0  0  0
   12.0833    2.3404   -2.9619 H   0  0  0  0  0  0  0  0  0  0  0  0
    7.9344   -2.2608   -4.1873 H   0  0  0  0  0  0  0  0  0  0  0  0
    8.8762   -2.4775   -2.6962 H   0  0  0  0  0  0  0  0  0  0  0  0
   12.6459   -4.3384   -4.4139 H   0  0  0  0  0  0  0  0  0  0  0  0
   14.8818   -3.5220   -3.7000 H   0  0  0  0  0  0  0  0  0  0  0  0
   15.1433   -1.1660   -2.8929 H   0  0  0  0  0  0  0  0  0  0  0  0
   13.2022    0.3468   -2.8690 H   0  0  0  0  0  0  0  0  0  0  0  0
  1  2  1  0
  1 23  1  0
  1 24  1  0
  1 25  1  0
  2  3  1  0
  3  4  1  0
  3 26  1  0
  3 27  1  0
  4  5  1  0
  4 28  1  0
  4 29  1  0
  5  6  1  0
  5 30  1  0
  5 31  1  0
  6  7  1  0
  6 32  1  0
  7  8  2  0
  7  9  1  0
  9 10  2  0
  9 14  1  0
 10 11  1  0
 11 12  1  0
 11 13  1  0
 12 33  1  0
 12 34  1  0
 12 35  1  0
 13 14  2  0
 13 22  1  0
 14 15  1  0
 15 16  1  0
 15 36  1  0
 15 37  1  0
 16 17  1  0
 17 18  1  0
 17 22  2  0
 18 19  2  0
 18 38  1  0
 19 20  1  0
 19 39  1  0
 20 21  2  0
 20 40  1  0
 21 22  1  0
 21 41  1  0
M  END

