
     RDKit          3D

 26 28  0  0  0  0  0  0  0  0999 V2000
    1.1022   -0.1594   -0.0234 C   0  0  0  0  0  0  0  0  0  0  0  0
    2.5990   -0.1754   -0.0136 C   0  0  0  0  0  0  0  0  0  0  0  0
    3.2605   -1.2871   -0.0099 N   0  0  0  0  0  0  0  0  0  0  0  0
    4.6381   -1.2704   -0.0011 C   0  0  0  0  0  0  0  0  0  0  0  0
    5.3331   -0.0604    0.0033 C   0  0  0  0  0  0  0  0  0  0  0  0
    6.7461    0.0023    0.0117 C   0  0  0  0  0  0  0  0  0  0  0  0
    7.4607   -1.1735    0.0158 C   0  0  0  0  0  0  0  0  0  0  0  0
    6.8116   -2.4430    0.0118 C   0  0  0  0  0  0  0  0  0  0  0  0
    7.5397   -3.6624    0.0160 C   0  0  0  0  0  0  0  0  0  0  0  0
    6.8915   -4.8783    0.0120 C   0  0  0  0  0  0  0  0  0  0  0  0
    5.4711   -4.9320    0.0034 C   0  0  0  0  0  0  0  0  0  0  0  0
    4.8095   -6.1142   -0.0007 O   0  0  0  0  0  0  0  0  0  0  0  0
    4.7293   -3.7603   -0.0009 C   0  0  0  0  0  0  0  0  0  0  0  0
    5.3792   -2.5074    0.0032 C   0  0  0  0  0  0  0  0  0  0  0  0
    4.6479    1.1116   -0.0005 O   0  0  0  0  0  0  0  0  0  0  0  0
    3.2697    1.1539   -0.0075 C   0  0  0  0  0  0  0  0  0  0  0  0
    2.7119    2.2183   -0.0135 O   0  0  0  0  0  0  0  0  0  0  0  0
    0.7195   -1.1876   -0.0271 H   0  0  0  0  0  0  0  0  0  0  0  0
    0.7255    0.3848   -0.9055 H   0  0  0  0  0  0  0  0  0  0  0  0
    0.7139    0.3826    0.8550 H   0  0  0  0  0  0  0  0  0  0  0  0
    7.2271    0.9816    0.0148 H   0  0  0  0  0  0  0  0  0  0  0  0
    8.5537   -1.1462    0.0224 H   0  0  0  0  0  0  0  0  0  0  0  0
    8.6323   -3.6264    0.0226 H   0  0  0  0  0  0  0  0  0  0  0  0
    7.4640   -5.8115    0.0153 H   0  0  0  0  0  0  0  0  0  0  0  0
    5.4421   -6.8442    0.0030 H   0  0  0  0  0  0  0  0  0  0  0  0
    3.6405   -3.8017   -0.0075 H   0  0  0  0  0  0  0  0  0  0  0  0
  1  2  1  0
  1 18  1  0
  1 19  1  0
  1 20  1  0
  2  3  2  0
  2 16  1  0
  3  4  1  0
  4  5  2  0
  4 14  1  0
  5  6  1  0
  5 15  1  0
  6  7  2  0
  6 21  1  0
  7  8  1  0
  7 22  1  0
  8  9  1  0
  8 14  2  0
  9 10  2  0
  9 23  1  0
 10 11  1  0
 10 24  1  0
 11 12  1  0
 11 13  2  0
 12 25  1  0
 13 14  1  0
 13 26  1  0
 15 16  1  0
 16 17  2  0
M  END

