
     RDKit          3D

 31 32  0  0  0  0  0  0  0  0999 V2000
    3.7531    0.6957    0.7253 C   0  0  0  0  0  0  0  0  0  0  0  0
    2.5772   -0.0113    0.0306 C   0  0  1  0  0  0  0  0  0  0  0  0
    1.4087    0.9548   -0.2321 C   0  0  0  0  0  0  0  0  0  0  0  0
    3.0282   -0.6562   -1.2509 C   0  0  0  0  0  0  0  0  0  0  0  0
    3.5657   -0.0592   -2.2990 N   0  0  0  0  0  0  0  0  0  0  0  0
    3.7814   -1.0780   -3.1830 C   0  0  0  0  0  0  0  0  0  0  0  0
    4.3893   -0.8669   -4.5371 C   0  0  0  0  0  0  0  0  0  0  0  0
    4.5793   -1.7723   -5.3245 O   0  0  0  0  0  0  0  0  0  0  0  0
    4.6858    0.4625   -4.7468 N   0  0  0  0  0  0  0  0  0  0  0  0
    5.2552    1.0577   -5.8706 C   0  0  0  0  0  0  0  0  0  0  0  0
    5.6235    0.3289   -7.0181 C   0  0  0  0  0  0  0  0  0  0  0  0
    6.1888    0.9887   -8.1090 C   0  0  0  0  0  0  0  0  0  0  0  0
    6.6357    0.0571   -9.5196 Cl  0  0  0  0  0  0  0  0  0  0  0  0
    6.4065    2.3683   -8.1044 C   0  0  0  0  0  0  0  0  0  0  0  0
    6.0439    3.0966   -6.9707 C   0  0  0  0  0  0  0  0  0  0  0  0
    5.4779    2.4554   -5.8713 C   0  0  0  0  0  0  0  0  0  0  0  0
    5.0353    3.4074   -4.4639 Cl  0  0  0  0  0  0  0  0  0  0  0  0
    3.4099   -2.2711   -2.7460 N   0  0  0  0  0  0  0  0  0  0  0  0
    2.9360   -1.9854   -1.5240 N   0  0  0  0  0  0  0  0  0  0  0  0
    2.5712   -2.7264   -0.9343 H   0  0  0  0  0  0  0  0  0  0  0  0
    3.4212    1.1575    1.6681 H   0  0  0  0  0  0  0  0  0  0  0  0
    4.1610    1.4854    0.0761 H   0  0  0  0  0  0  0  0  0  0  0  0
    4.5684   -0.0075    0.9552 H   0  0  0  0  0  0  0  0  0  0  0  0
    2.2174   -0.8211    0.6905 H   0  0  0  0  0  0  0  0  0  0  0  0
    1.7238    1.7586   -0.9151 H   0  0  0  0  0  0  0  0  0  0  0  0
    1.0693    1.4128    0.7100 H   0  0  0  0  0  0  0  0  0  0  0  0
    0.5517    0.4375   -0.6907 H   0  0  0  0  0  0  0  0  0  0  0  0
    4.4554    1.0826   -3.9709 H   0  0  0  0  0  0  0  0  0  0  0  0
    5.4592   -0.7455   -7.0332 H   0  0  0  0  0  0  0  0  0  0  0  0
    6.8501    2.8622   -8.9693 H   0  0  0  0  0  0  0  0  0  0  0  0
    6.1998    4.1760   -6.9329 H   0  0  0  0  0  0  0  0  0  0  0  0
  1  2  1  0
  1 21  1  0
  1 22  1  0
  1 23  1  0
  2  3  1  0
  2  4  1  0
  2 24  1  1
  3 25  1  0
  3 26  1  0
  3 27  1  0
  4  5  2  0
  4 19  1  0
  5  6  1  0
  6  7  1  0
  6 18  2  0
  7  8  2  0
  7  9  1  0
  9 10  1  0
  9 28  1  0
 10 11  2  0
 10 16  1  0
 11 12  1  0
 11 29  1  0
 12 13  1  0
 12 14  2  0
 14 15  1  0
 14 30  1  0
 15 16  2  0
 15 31  1  0
 16 17  1  0
 18 19  1  0
 19 20  1  0
M  END

