
     RDKit          3D

 38 38  0  0  0  0  0  0  0  0999 V2000
    1.3294    1.5177    1.6705 C   0  0  0  0  0  0  0  0  0  0  0  0
    2.7618    0.9963    1.7983 C   0  0  0  0  0  0  0  0  0  0  0  0
    2.9964   -0.3162    1.0401 C   0  0  0  0  0  0  0  0  0  0  0  0
    4.4433   -0.8324    1.0640 C   0  0  0  0  0  0  0  0  0  0  0  0
    5.0208   -1.2653    2.4327 C   0  0  1  0  0  0  0  0  0  0  0  0
    4.3438   -2.5562    2.9546 C   0  0  0  0  0  0  0  0  0  0  0  0
    4.5960   -2.8526    4.4163 C   0  0  0  0  0  0  0  0  0  0  0  0
    5.8273   -3.3625    4.8631 C   0  0  0  0  0  0  0  0  0  0  0  0
    6.0530   -3.6092    6.2174 C   0  0  0  0  0  0  0  0  0  0  0  0
    5.0496   -3.3479    7.1482 C   0  0  0  0  0  0  0  0  0  0  0  0
    5.2746   -3.5902    8.4429 F   0  0  0  0  0  0  0  0  0  0  0  0
    3.8175   -2.8406    6.7287 C   0  0  0  0  0  0  0  0  0  0  0  0
    2.4568   -2.4956    8.0094 Br  0  0  0  0  0  0  0  0  0  0  0  0
    3.5985   -2.5972    5.3696 C   0  0  0  0  0  0  0  0  0  0  0  0
    6.4712   -1.4544    2.3991 N   0  0  0  0  0  0  0  0  0  0  0  0
    7.2923   -0.2541    2.4700 C   0  0  0  0  0  0  0  0  0  0  0  0
    8.7773   -0.5955    2.4092 C   0  0  0  0  0  0  0  0  0  0  0  0
    1.1907    2.4604    2.2233 H   0  0  0  0  0  0  0  0  0  0  0  0
    0.6010    0.7903    2.0667 H   0  0  0  0  0  0  0  0  0  0  0  0
    1.0639    1.7070    0.6168 H   0  0  0  0  0  0  0  0  0  0  0  0
    3.0037    0.8640    2.8676 H   0  0  0  0  0  0  0  0  0  0  0  0
    3.4678    1.7602    1.4238 H   0  0  0  0  0  0  0  0  0  0  0  0
    2.7014   -0.1694   -0.0145 H   0  0  0  0  0  0  0  0  0  0  0  0
    2.3072   -1.0882    1.4279 H   0  0  0  0  0  0  0  0  0  0  0  0
    5.0990   -0.0453    0.6518 H   0  0  0  0  0  0  0  0  0  0  0  0
    4.5300   -1.6922    0.3733 H   0  0  0  0  0  0  0  0  0  0  0  0
    4.8288   -0.4658    3.1685 H   0  0  0  0  0  0  0  0  0  0  0  0
    4.6984   -3.3972    2.3325 H   0  0  0  0  0  0  0  0  0  0  0  0
    3.2579   -2.4874    2.7891 H   0  0  0  0  0  0  0  0  0  0  0  0
    6.6195   -3.5511    4.1383 H   0  0  0  0  0  0  0  0  0  0  0  0
    7.0044   -4.0077    6.5767 H   0  0  0  0  0  0  0  0  0  0  0  0
    2.6280   -2.2054    5.0571 H   0  0  0  0  0  0  0  0  0  0  0  0
    6.7277   -2.0093    1.5811 H   0  0  0  0  0  0  0  0  0  0  0  0
    7.0707    0.2506    3.4269 H   0  0  0  0  0  0  0  0  0  0  0  0
    7.0592    0.4887    1.6738 H   0  0  0  0  0  0  0  0  0  0  0  0
    9.0525   -1.2887    3.2193 H   0  0  0  0  0  0  0  0  0  0  0  0
    9.3943    0.3120    2.5004 H   0  0  0  0  0  0  0  0  0  0  0  0
    9.0373   -1.0762    1.4502 H   0  0  0  0  0  0  0  0  0  0  0  0
  1  2  1  0
  1 18  1  0
  1 19  1  0
  1 20  1  0
  2  3  1  0
  2 21  1  0
  2 22  1  0
  3  4  1  0
  3 23  1  0
  3 24  1  0
  4  5  1  0
  4 25  1  0
  4 26  1  0
  5  6  1  0
  5 15  1  0
  5 27  1  1
  6  7  1  0
  6 28  1  0
  6 29  1  0
  7  8  2  0
  7 14  1  0
  8  9  1  0
  8 30  1  0
  9 10  2  0
  9 31  1  0
 10 11  1  0
 10 12  1  0
 12 13  1  0
 12 14  2  0
 14 32  1  0
 15 16  1  0
 15 33  1  0
 16 17  1  0
 16 34  1  0
 16 35  1  0
 17 36  1  0
 17 37  1  0
 17 38  1  0
M  END

