
     RDKit          3D

 41 41  0  0  0  0  0  0  0  0999 V2000
    2.5766   -1.4940    0.8946 C   0  0  0  0  0  0  0  0  0  0  0  0
    2.1651   -0.1923    0.2009 C   0  0  0  0  0  0  0  0  0  0  0  0
    2.8586    1.0698    0.7390 C   0  0  0  0  0  0  0  0  0  0  0  0
    4.3960    1.1492    0.5864 C   0  0  1  0  0  0  0  0  0  0  0  0
    4.8260    1.2345   -0.8896 C   0  0  0  0  0  0  0  0  0  0  0  0
    6.3367    1.1502   -1.1487 C   0  0  0  0  0  0  0  0  0  0  0  0
    6.9597   -0.2128   -0.8375 C   0  0  0  0  0  0  0  0  0  0  0  0
    4.9815    2.2829    1.3137 N   0  0  0  0  0  0  0  0  0  0  0  0
    4.9452    2.3056    2.7728 C   0  0  1  0  0  0  0  0  0  0  0  0
    5.6320    1.0832    3.3864 C   0  0  0  0  0  0  0  0  0  0  0  0
    5.5781    3.6246    3.2650 C   0  0  0  0  0  0  0  0  0  0  0  0
    7.0108    3.7534    3.0557 N   0  0  0  0  0  0  0  0  0  0  0  0
    8.0061    3.5004    3.9808 C   0  0  0  0  0  0  0  0  0  0  0  0
    9.1940    3.7269    3.3219 C   0  0  0  0  0  0  0  0  0  0  0  0
    8.9565    4.1099    2.0260 N   0  0  0  0  0  0  0  0  0  0  0  0
    7.6492    4.1131    1.8983 C   0  0  0  0  0  0  0  0  0  0  0  0
    1.9871   -2.3465    0.5210 H   0  0  0  0  0  0  0  0  0  0  0  0
    2.4167   -1.4344    1.9849 H   0  0  0  0  0  0  0  0  0  0  0  0
    3.6386   -1.7373    0.7290 H   0  0  0  0  0  0  0  0  0  0  0  0
    1.0754   -0.0566    0.3150 H   0  0  0  0  0  0  0  0  0  0  0  0
    2.3352   -0.2852   -0.8857 H   0  0  0  0  0  0  0  0  0  0  0  0
    2.6077    1.1651    1.8107 H   0  0  0  0  0  0  0  0  0  0  0  0
    2.4208    1.9586    0.2464 H   0  0  0  0  0  0  0  0  0  0  0  0
    4.8344    0.2346    1.0144 H   0  0  0  0  0  0  0  0  0  0  0  0
    4.4378    2.1854   -1.3023 H   0  0  0  0  0  0  0  0  0  0  0  0
    4.3180    0.4359   -1.4567 H   0  0  0  0  0  0  0  0  0  0  0  0
    6.8456    1.9288   -0.5587 H   0  0  0  0  0  0  0  0  0  0  0  0
    6.5187    1.3927   -2.2102 H   0  0  0  0  0  0  0  0  0  0  0  0
    6.8834   -0.4673    0.2322 H   0  0  0  0  0  0  0  0  0  0  0  0
    8.0307   -0.2262   -1.0949 H   0  0  0  0  0  0  0  0  0  0  0  0
    6.4706   -1.0214   -1.4079 H   0  0  0  0  0  0  0  0  0  0  0  0
    4.5786    3.1474    0.9497 H   0  0  0  0  0  0  0  0  0  0  0  0
    3.9050    2.3340    3.1728 H   0  0  0  0  0  0  0  0  0  0  0  0
    6.6585    0.9780    3.0036 H   0  0  0  0  0  0  0  0  0  0  0  0
    5.0832    0.1564    3.1645 H   0  0  0  0  0  0  0  0  0  0  0  0
    5.6766    1.1782    4.4828 H   0  0  0  0  0  0  0  0  0  0  0  0
    5.3848    3.7358    4.3425 H   0  0  0  0  0  0  0  0  0  0  0  0
    5.0774    4.4717    2.7662 H   0  0  0  0  0  0  0  0  0  0  0  0
    7.7797    3.2009    5.0013 H   0  0  0  0  0  0  0  0  0  0  0  0
   10.2048    3.6400    3.7204 H   0  0  0  0  0  0  0  0  0  0  0  0
    7.0945    4.3625    0.9946 H   0  0  0  0  0  0  0  0  0  0  0  0
  1  2  1  0
  1 17  1  0
  1 18  1  0
  1 19  1  0
  2  3  1  0
  2 20  1  0
  2 21  1  0
  3  4  1  0
  3 22  1  0
  3 23  1  0
  4  5  1  0
  4  8  1  0
  4 24  1  1
  5  6  1  0
  5 25  1  0
  5 26  1  0
  6  7  1  0
  6 27  1  0
  6 28  1  0
  7 29  1  0
  7 30  1  0
  7 31  1  0
  8  9  1  0
  8 32  1  0
  9 10  1  0
  9 11  1  0
  9 33  1  6
 10 34  1  0
 10 35  1  0
 10 36  1  0
 11 12  1  0
 11 37  1  0
 11 38  1  0
 12 13  1  0
 12 16  1  0
 13 14  2  0
 13 39  1  0
 14 15  1  0
 14 40  1  0
 15 16  2  0
 16 41  1  0
M  END

