
     RDKit          3D

 97101  0  0  0  0  0  0  0  0999 V2000
   30.2988   19.7745   12.3373 C   0  0  0  0  0  0  0  0  0  0  0  0
   30.1057   19.1205   10.9681 C   0  0  0  0  0  0  0  0  0  0  0  0
   29.6475   17.6597   11.0543 C   0  0  0  0  0  0  0  0  0  0  0  0
   29.4952   16.9432    9.7060 C   0  0  0  0  0  0  0  0  0  0  0  0
   28.3785   17.4930    8.8124 C   0  0  0  0  0  0  0  0  0  0  0  0
   28.1866   16.7219    7.5115 C   0  0  0  0  0  0  0  0  0  0  0  0
   27.7883   15.3654    7.7300 O   0  0  0  0  0  0  0  0  0  0  0  0
   26.4949   15.0585    7.9319 C   0  0  0  0  0  0  0  0  0  0  0  0
   25.3317   15.7450    7.5240 C   0  0  0  0  0  0  0  0  0  0  0  0
   24.7328   16.2740    6.3452 C   0  0  0  0  0  0  0  0  0  0  0  0
   23.5555   15.6117    6.0291 N   0  0  0  0  0  0  0  0  0  0  0  0
   23.2533   14.7483    6.4773 H   0  0  0  0  0  0  0  0  0  0  0  0
   23.0915   15.9267    4.7890 C   0  0  0  0  0  0  0  0  0  0  0  0
   23.9171   16.9928    4.3287 C   0  0  0  0  0  0  0  0  0  0  0  0
   24.9407   17.2038    5.2545 C   0  0  0  0  0  0  0  0  0  0  0  0
   25.9855   18.2764    5.1393 C   0  0  0  0  0  0  0  0  0  0  0  0
   25.9087   19.3234    6.2701 C   0  0  0  0  0  0  0  0  0  0  0  0
   27.0579   20.1340    6.3649 O   0  0  0  0  0  0  0  0  0  0  0  0
   27.1657   21.1483    5.3984 C   0  0  0  0  0  0  0  0  0  0  0  0
   22.1668   15.0424    4.1660 C   0  0  0  0  0  0  0  0  0  0  0  0
   21.9047   13.8664    4.7813 N   0  0  0  0  0  0  0  0  0  0  0  0
   21.2178   13.1078    3.9018 C   0  0  0  0  0  0  0  0  0  0  0  0
   21.0236   11.6979    4.0347 C   0  0  0  0  0  0  0  0  0  0  0  0
   21.5065   10.8577    5.0283 C   0  0  0  0  0  0  0  0  0  0  0  0
   21.9583   11.2665    6.3185 C   0  0  0  0  0  0  0  0  0  0  0  0
   23.1841   10.8828    6.8454 N   0  0  0  0  0  0  0  0  0  0  0  0
   23.9089   10.4717    6.2685 H   0  0  0  0  0  0  0  0  0  0  0  0
   23.4770   11.6603    7.9489 C   0  0  0  0  0  0  0  0  0  0  0  0
   22.2977   12.3774    8.2613 C   0  0  0  0  0  0  0  0  0  0  0  0
   21.3627   12.1630    7.2518 C   0  0  0  0  0  0  0  0  0  0  0  0
   19.9849   12.7455    7.1599 C   0  0  0  0  0  0  0  0  0  0  0  0
   19.1516   12.5339    8.4213 C   0  0  0  0  0  0  0  0  0  0  0  0
   17.8879   13.1205    8.2253 O   0  0  0  0  0  0  0  0  0  0  0  0
   17.0228   12.9822    9.3172 C   0  0  0  0  0  0  0  0  0  0  0  0
   24.8059   12.0613    8.3097 C   0  0  0  0  0  0  0  0  0  0  0  0
   24.9321   13.3648    8.6064 N   0  0  0  0  0  0  0  0  0  0  0  0
   26.2220   13.7070    8.3953 C   0  0  0  0  0  0  0  0  0  0  0  0
   27.0228   12.5015    8.1124 C   0  0  0  0  0  0  0  0  0  0  0  0
   28.5112   12.4187    7.9182 C   0  0  0  0  0  0  0  0  0  0  0  0
   29.0135   11.2302    7.1093 C   0  0  0  0  0  0  0  0  0  0  0  0
   28.7998   10.0254    7.8107 O   0  0  0  0  0  0  0  0  0  0  0  0
   29.2994    8.8940    7.1522 C   0  0  0  0  0  0  0  0  0  0  0  0
   26.1019   11.4738    8.0353 C   0  0  0  0  0  0  0  0  0  0  0  0
   20.9507   13.8697    2.6682 C   0  0  0  0  0  0  0  0  0  0  0  0
   20.1737   13.3724    1.4845 C   0  0  0  0  0  0  0  0  0  0  0  0
   20.0921   14.3504    0.3218 C   0  0  0  0  0  0  0  0  0  0  0  0
   19.3513   13.7502   -0.7134 O   0  0  0  0  0  0  0  0  0  0  0  0
   19.1967   14.5611   -1.8445 C   0  0  0  0  0  0  0  0  0  0  0  0
   21.5677   15.0864    2.8470 C   0  0  0  0  0  0  0  0  0  0  0  0
   30.6305   20.8211   12.2441 H   0  0  0  0  0  0  0  0  0  0  0  0
   31.0541   19.2377   12.9357 H   0  0  0  0  0  0  0  0  0  0  0  0
   29.3604   19.7739   12.9170 H   0  0  0  0  0  0  0  0  0  0  0  0
   31.0530   19.1679   10.3996 H   0  0  0  0  0  0  0  0  0  0  0  0
   29.3762   19.7097   10.3852 H   0  0  0  0  0  0  0  0  0  0  0  0
   28.6878   17.6106   11.6025 H   0  0  0  0  0  0  0  0  0  0  0  0
   30.3716   17.0981   11.6716 H   0  0  0  0  0  0  0  0  0  0  0  0
   29.3016   15.8730    9.8888 H   0  0  0  0  0  0  0  0  0  0  0  0
   30.4547   16.9890    9.1567 H   0  0  0  0  0  0  0  0  0  0  0  0
   28.5726   18.5416    8.5280 H   0  0  0  0  0  0  0  0  0  0  0  0
   27.4218   17.4985    9.3650 H   0  0  0  0  0  0  0  0  0  0  0  0
   29.1330   16.6567    6.9524 H   0  0  0  0  0  0  0  0  0  0  0  0
   27.4552   17.2240    6.8732 H   0  0  0  0  0  0  0  0  0  0  0  0
   24.5401   15.1899    8.0330 H   0  0  0  0  0  0  0  0  0  0  0  0
   23.7922   17.5281    3.3884 H   0  0  0  0  0  0  0  0  0  0  0  0
   25.8752   18.7678    4.1601 H   0  0  0  0  0  0  0  0  0  0  0  0
   27.0004   17.8455    5.1472 H   0  0  0  0  0  0  0  0  0  0  0  0
   25.8202   18.8092    7.2393 H   0  0  0  0  0  0  0  0  0  0  0  0
   24.9957   19.9404    6.1465 H   0  0  0  0  0  0  0  0  0  0  0  0
   28.0494   21.7534    5.6490 H   0  0  0  0  0  0  0  0  0  0  0  0
   26.2763   21.8104    5.3971 H   0  0  0  0  0  0  0  0  0  0  0  0
   27.2993   20.7543    4.3718 H   0  0  0  0  0  0  0  0  0  0  0  0
   20.6162   11.2034    3.1473 H   0  0  0  0  0  0  0  0  0  0  0  0
   21.6477    9.8033    4.7571 H   0  0  0  0  0  0  0  0  0  0  0  0
   22.2069   13.0390    9.1193 H   0  0  0  0  0  0  0  0  0  0  0  0
   19.4448   12.3128    6.3057 H   0  0  0  0  0  0  0  0  0  0  0  0
   20.0563   13.8278    6.9586 H   0  0  0  0  0  0  0  0  0  0  0  0
   19.6546   12.9843    9.3034 H   0  0  0  0  0  0  0  0  0  0  0  0
   19.0513   11.4483    8.6360 H   0  0  0  0  0  0  0  0  0  0  0  0
   16.0718   13.4724    9.0605 H   0  0  0  0  0  0  0  0  0  0  0  0
   17.4270   13.4590   10.2346 H   0  0  0  0  0  0  0  0  0  0  0  0
   16.8162   11.9179    9.5555 H   0  0  0  0  0  0  0  0  0  0  0  0
   29.0117   12.3993    8.9047 H   0  0  0  0  0  0  0  0  0  0  0  0
   28.8619   13.3395    7.4295 H   0  0  0  0  0  0  0  0  0  0  0  0
   30.0982   11.3608    6.9092 H   0  0  0  0  0  0  0  0  0  0  0  0
   28.5055   11.1971    6.1216 H   0  0  0  0  0  0  0  0  0  0  0  0
   28.8200    8.7385    6.1634 H   0  0  0  0  0  0  0  0  0  0  0  0
   29.0938    8.0161    7.7823 H   0  0  0  0  0  0  0  0  0  0  0  0
   30.3948    8.9600    6.9874 H   0  0  0  0  0  0  0  0  0  0  0  0
   26.3317   10.4293    7.8335 H   0  0  0  0  0  0  0  0  0  0  0  0
   19.1431   13.1127    1.7859 H   0  0  0  0  0  0  0  0  0  0  0  0
   20.6129   12.4320    1.1055 H   0  0  0  0  0  0  0  0  0  0  0  0
   21.1117   14.6153   -0.0309 H   0  0  0  0  0  0  0  0  0  0  0  0
   19.6111   15.2970    0.6478 H   0  0  0  0  0  0  0  0  0  0  0  0
   18.6076   14.0003   -2.5853 H   0  0  0  0  0  0  0  0  0  0  0  0
   20.1713   14.8309   -2.3022 H   0  0  0  0  0  0  0  0  0  0  0  0
   18.6616   15.5053   -1.6122 H   0  0  0  0  0  0  0  0  0  0  0  0
   21.6174   15.9186    2.1463 H   0  0  0  0  0  0  0  0  0  0  0  0
  1  2  1  0
  1 50  1  0
  1 51  1  0
  1 52  1  0
  2  3  1  0
  2 53  1  0
  2 54  1  0
  3  4  1  0
  3 55  1  0
  3 56  1  0
  4  5  1  0
  4 57  1  0
  4 58  1  0
  5  6  1  0
  5 59  1  0
  5 60  1  0
  6  7  1  0
  6 61  1  0
  6 62  1  0
  7  8  1  0
  8  9  2  0
  8 37  1  0
  9 10  1  0
  9 63  1  0
 10 11  1  0
 10 15  2  0
 11 12  1  0
 11 13  1  0
 13 14  2  0
 13 20  1  0
 14 15  1  0
 14 64  1  0
 15 16  1  0
 16 17  1  0
 16 65  1  0
 16 66  1  0
 17 18  1  0
 17 67  1  0
 17 68  1  0
 18 19  1  0
 19 69  1  0
 19 70  1  0
 19 71  1  0
 20 21  2  0
 20 49  1  0
 21 22  1  0
 22 23  2  0
 22 44  1  0
 23 24  1  0
 23 72  1  0
 24 25  2  0
 24 73  1  0
 25 26  1  0
 25 30  1  0
 26 27  1  0
 26 28  1  0
 28 29  1  0
 28 35  2  0
 29 30  2  0
 29 74  1  0
 30 31  1  0
 31 32  1  0
 31 75  1  0
 31 76  1  0
 32 33  1  0
 32 77  1  0
 32 78  1  0
 33 34  1  0
 34 79  1  0
 34 80  1  0
 34 81  1  0
 35 36  1  0
 35 43  1  0
 36 37  2  0
 37 38  1  0
 38 39  1  0
 38 43  2  0
 39 40  1  0
 39 82  1  0
 39 83  1  0
 40 41  1  0
 40 84  1  0
 40 85  1  0
 41 42  1  0
 42 86  1  0
 42 87  1  0
 42 88  1  0
 43 89  1  0
 44 45  1  0
 44 49  2  0
 45 46  1  0
 45 90  1  0
 45 91  1  0
 46 47  1  0
 46 92  1  0
 46 93  1  0
 47 48  1  0
 48 94  1  0
 48 95  1  0
 48 96  1  0
 49 97  1  0
M  END

