
     RDKit          3D

 32 35  0  0  0  0  0  0  0  0999 V2000
    1.4438   -1.2720   -1.0558 O   0  0  0  0  0  0  0  0  0  0  0  0
    2.3927   -0.6478   -0.6412 C   0  0  0  0  0  0  0  0  0  0  0  0
    2.8654    0.5380   -1.2059 N   0  0  0  0  0  0  0  0  0  0  0  0
    2.3992    1.1521   -2.3624 C   0  0  0  0  0  0  0  0  0  0  0  0
    1.6382    0.6232   -3.2582 N   0  0  0  0  0  0  0  0  0  0  0  0
    1.3631    1.4990   -4.2899 C   0  0  0  0  0  0  0  0  0  0  0  0
    0.4944    1.0471   -5.3947 C   0  0  0  0  0  0  0  0  0  0  0  0
   -0.0871   -0.2305   -5.3300 C   0  0  0  0  0  0  0  0  0  0  0  0
   -0.9276   -0.7170   -6.3475 C   0  0  0  0  0  0  0  0  0  0  0  0
   -1.1622    0.1174   -7.4253 C   0  0  0  0  0  0  0  0  0  0  0  0
   -0.5884    1.3904   -7.5007 C   0  0  0  0  0  0  0  0  0  0  0  0
    0.2379    1.8830   -6.5127 C   0  0  0  0  0  0  0  0  0  0  0  0
   -0.9806    1.9954   -8.6636 O   0  0  0  0  0  0  0  0  0  0  0  0
   -1.8354    1.0741   -9.3350 C   0  0  0  0  0  0  0  0  0  0  0  0
   -1.9258   -0.1030   -8.5363 O   0  0  0  0  0  0  0  0  0  0  0  0
    1.9561    2.7354   -4.1598 C   0  0  0  0  0  0  0  0  0  0  0  0
    2.8771    2.8241   -2.6914 S   0  0  0  0  0  0  0  0  0  0  0  0
    3.1501   -1.1027    0.5625 C   0  0  0  0  0  0  0  0  0  0  0  0
    2.7032   -2.0877    1.4115 C   0  0  0  0  0  0  0  0  0  0  0  0
    3.5982   -2.3448    2.4885 C   0  0  0  0  0  0  0  0  0  0  0  0
    3.2525   -3.6359    3.8177 Br  0  0  0  0  0  0  0  0  0  0  0  0
    4.7286   -1.5545    2.4463 C   0  0  0  0  0  0  0  0  0  0  0  0
    6.1785   -1.5447    3.6292 Br  0  0  0  0  0  0  0  0  0  0  0  0
    4.7084   -0.4934    1.0716 S   0  0  0  0  0  0  0  0  0  0  0  0
    3.5579    1.0606   -0.6809 H   0  0  0  0  0  0  0  0  0  0  0  0
    0.1275   -0.8483   -4.4574 H   0  0  0  0  0  0  0  0  0  0  0  0
   -1.3769   -1.7096   -6.2911 H   0  0  0  0  0  0  0  0  0  0  0  0
    0.6714    2.8788   -6.6077 H   0  0  0  0  0  0  0  0  0  0  0  0
   -1.4092    0.8214  -10.3231 H   0  0  0  0  0  0  0  0  0  0  0  0
   -2.8404    1.5186   -9.4578 H   0  0  0  0  0  0  0  0  0  0  0  0
    1.9073    3.5934   -4.8252 H   0  0  0  0  0  0  0  0  0  0  0  0
    1.7551   -2.6022    1.2576 H   0  0  0  0  0  0  0  0  0  0  0  0
  1  2  2  0
  2  3  1  0
  2 18  1  0
  3  4  1  0
  3 25  1  0
  4  5  2  0
  4 17  1  0
  5  6  1  0
  6  7  1  0
  6 16  2  0
  7  8  2  0
  7 12  1  0
  8  9  1  0
  8 26  1  0
  9 10  2  0
  9 27  1  0
 10 11  1  0
 10 15  1  0
 11 12  2  0
 11 13  1  0
 12 28  1  0
 13 14  1  0
 14 15  1  0
 14 29  1  0
 14 30  1  0
 16 17  1  0
 16 31  1  0
 18 19  2  0
 18 24  1  0
 19 20  1  0
 19 32  1  0
 20 21  1  0
 20 22  2  0
 22 23  1  0
 22 24  1  0
M  END

