
     RDKit          3D

 47 49  0  0  0  0  0  0  0  0999 V2000
    3.2912   -0.4946   -1.0873 C   0  0  0  0  0  0  0  0  0  0  0  0
    3.4680   -0.6517    0.3918 C   0  0  0  0  0  0  0  0  0  0  0  0
    3.6562    0.4075    1.1708 N   0  0  0  0  0  0  0  0  0  0  0  0
    3.8120   -0.0630    2.4317 N   0  0  0  0  0  0  0  0  0  0  0  0
    3.9682    0.8475    3.5184 C   0  0  0  0  0  0  0  0  0  0  0  0
    3.1363    0.7568    4.6415 C   0  0  0  0  0  0  0  0  0  0  0  0
    3.3037    1.6660    5.6893 C   0  0  0  0  0  0  0  0  0  0  0  0
    4.2746    2.6686    5.6089 C   0  0  0  0  0  0  0  0  0  0  0  0
    5.0826    2.7660    4.4709 C   0  0  0  0  0  0  0  0  0  0  0  0
    4.9352    1.8552    3.4237 C   0  0  0  0  0  0  0  0  0  0  0  0
    3.7333   -1.4234    2.4450 C   0  0  0  0  0  0  0  0  0  0  0  0
    4.0416   -2.3750    3.8580 Cl  0  0  0  0  0  0  0  0  0  0  0  0
    3.4997   -1.8613    1.1509 C   0  0  0  0  0  0  0  0  0  0  0  0
    3.2476   -3.2625    0.7057 C   0  0  0  0  0  0  0  0  0  0  0  0
    1.8334   -3.5756    0.7809 O   0  0  0  0  0  0  0  0  0  0  0  0
    1.1394   -3.7191   -0.3848 C   0  0  0  0  0  0  0  0  0  0  0  0
    1.6857   -3.6406   -1.4651 O   0  0  0  0  0  0  0  0  0  0  0  0
   -0.3111   -3.9822   -0.2010 C   0  0  0  0  0  0  0  0  0  0  0  0
   -0.9988   -4.3235   -1.3838 C   0  0  0  0  0  0  0  0  0  0  0  0
   -2.3638   -4.5718   -1.4047 C   0  0  0  0  0  0  0  0  0  0  0  0
   -3.0799   -4.4576   -0.2050 C   0  0  0  0  0  0  0  0  0  0  0  0
   -2.4409   -4.1126    0.9781 C   0  0  0  0  0  0  0  0  0  0  0  0
   -1.0407   -3.8773    1.0314 C   0  0  0  0  0  0  0  0  0  0  0  0
   -0.4407   -3.5670    2.2204 N   0  0  0  0  0  0  0  0  0  0  0  0
   -1.1412   -3.1930    3.4261 C   0  0  0  0  0  0  0  0  0  0  0  0
   -0.1494   -3.0606    4.5746 C   0  0  0  0  0  0  0  0  0  0  0  0
    0.8349   -2.0962    4.2431 O   0  0  0  0  0  0  0  0  0  0  0  0
    3.0578    0.5529   -1.3228 H   0  0  0  0  0  0  0  0  0  0  0  0
    2.4942   -1.1450   -1.4756 H   0  0  0  0  0  0  0  0  0  0  0  0
    4.2164   -0.7657   -1.6243 H   0  0  0  0  0  0  0  0  0  0  0  0
    2.3488    0.0017    4.6816 H   0  0  0  0  0  0  0  0  0  0  0  0
    2.6555    1.5991    6.5665 H   0  0  0  0  0  0  0  0  0  0  0  0
    4.3958    3.3806    6.4289 H   0  0  0  0  0  0  0  0  0  0  0  0
    5.8362    3.5540    4.3988 H   0  0  0  0  0  0  0  0  0  0  0  0
    5.5523    1.9174    2.5263 H   0  0  0  0  0  0  0  0  0  0  0  0
    3.7450   -3.9784    1.3749 H   0  0  0  0  0  0  0  0  0  0  0  0
    3.5815   -3.4303   -0.3253 H   0  0  0  0  0  0  0  0  0  0  0  0
   -0.4065   -4.3820   -2.2985 H   0  0  0  0  0  0  0  0  0  0  0  0
   -2.8672   -4.8401   -2.3355 H   0  0  0  0  0  0  0  0  0  0  0  0
   -4.1592   -4.6345   -0.1919 H   0  0  0  0  0  0  0  0  0  0  0  0
   -3.0316   -4.0213    1.8893 H   0  0  0  0  0  0  0  0  0  0  0  0
    0.5194   -3.2436    2.1616 H   0  0  0  0  0  0  0  0  0  0  0  0
   -1.8856   -3.9584    3.7060 H   0  0  0  0  0  0  0  0  0  0  0  0
   -1.6928   -2.2375    3.3052 H   0  0  0  0  0  0  0  0  0  0  0  0
    0.3131   -4.0464    4.7642 H   0  0  0  0  0  0  0  0  0  0  0  0
   -0.6966   -2.7651    5.4899 H   0  0  0  0  0  0  0  0  0  0  0  0
    1.7097   -2.4244    4.4880 H   0  0  0  0  0  0  0  0  0  0  0  0
  1  2  1  0
  1 28  1  0
  1 29  1  0
  1 30  1  0
  2  3  2  0
  2 13  1  0
  3  4  1  0
  4  5  1  0
  4 11  1  0
  5  6  2  0
  5 10  1  0
  6  7  1  0
  6 31  1  0
  7  8  2  0
  7 32  1  0
  8  9  1  0
  8 33  1  0
  9 10  2  0
  9 34  1  0
 10 35  1  0
 11 12  1  0
 11 13  2  0
 13 14  1  0
 14 15  1  0
 14 36  1  0
 14 37  1  0
 15 16  1  0
 16 17  2  0
 16 18  1  0
 18 19  2  0
 18 23  1  0
 19 20  1  0
 19 38  1  0
 20 21  2  0
 20 39  1  0
 21 22  1  0
 21 40  1  0
 22 23  2  0
 22 41  1  0
 23 24  1  0
 24 25  1  0
 24 42  1  0
 25 26  1  0
 25 43  1  0
 25 44  1  0
 26 27  1  0
 26 45  1  0
 26 46  1  0
 27 47  1  0
M  END

