
     RDKit          3D

 71 74  0  0  0  0  0  0  0  0999 V2000
   -0.9581   -9.4575    8.2336 C   0  0  0  0  0  0  0  0  0  0  0  0
   -0.4953   -8.4034    7.4142 O   0  0  0  0  0  0  0  0  0  0  0  0
    0.3289   -8.6700    6.3802 C   0  0  0  0  0  0  0  0  0  0  0  0
    0.7454   -7.5582    5.6193 C   0  0  0  0  0  0  0  0  0  0  0  0
    1.5932   -7.7326    4.5378 C   0  0  0  0  0  0  0  0  0  0  0  0
    2.0481   -9.0182    4.1806 C   0  0  0  0  0  0  0  0  0  0  0  0
    2.9575   -9.1376    3.0175 C   0  0  0  0  0  0  0  0  0  0  0  0
    3.3846   -8.2211    2.3629 O   0  0  0  0  0  0  0  0  0  0  0  0
    3.2578  -10.4511    2.7373 O   0  0  0  0  0  0  0  0  0  0  0  0
    4.1912  -10.7477    1.7568 C   0  0  0  0  0  0  0  0  0  0  0  0
    5.5391  -10.4338    1.9560 C   0  0  0  0  0  0  0  0  0  0  0  0
    6.5044  -10.8357    1.0419 C   0  0  0  0  0  0  0  0  0  0  0  0
    6.1455  -11.5655   -0.1113 C   0  0  0  0  0  0  0  0  0  0  0  0
    7.2385  -11.9568   -1.0285 C   0  0  0  0  0  0  0  0  0  0  0  0
    7.2595  -12.1873   -2.2934 N   0  0  0  0  0  0  0  0  0  0  0  0
    6.1394  -12.0889   -3.0356 N   0  0  0  0  0  0  0  0  0  0  0  0
    6.1767  -12.2968   -4.3989 C   0  0  0  0  0  0  0  0  0  0  0  0
    7.1576  -12.5948   -5.0402 O   0  0  0  0  0  0  0  0  0  0  0  0
    4.8180  -12.0981   -5.0983 C   0  0  2  0  0  0  0  0  0  0  0  0
    4.6641  -13.0187   -5.6867 H   0  0  0  0  0  0  0  0  0  0  0  0
    4.8802  -10.8839   -6.0252 C   0  0  0  0  0  0  0  0  0  0  0  0
    3.7889  -11.9735   -4.1189 O   0  0  0  0  0  0  0  0  0  0  0  0
    2.5183  -12.4282   -4.3638 C   0  0  0  0  0  0  0  0  0  0  0  0
    2.0373  -12.8089   -5.6191 C   0  0  0  0  0  0  0  0  0  0  0  0
    0.7165  -13.2613   -5.7683 C   0  0  0  0  0  0  0  0  0  0  0  0
   -0.1358  -13.3344   -4.6616 C   0  0  0  0  0  0  0  0  0  0  0  0
   -1.4308  -13.7549   -4.7008 O   0  0  0  0  0  0  0  0  0  0  0  0
   -1.9830  -14.1825   -5.9282 C   0  0  0  0  0  0  0  0  0  0  0  0
   -3.4056  -14.6492   -5.7203 C   0  0  0  0  0  0  0  0  0  0  0  0
   -4.3091  -14.6182   -6.7927 C   0  0  0  0  0  0  0  0  0  0  0  0
   -5.6138  -15.0939   -6.6393 C   0  0  0  0  0  0  0  0  0  0  0  0
   -6.0346  -15.5990   -5.4053 C   0  0  0  0  0  0  0  0  0  0  0  0
   -5.1417  -15.6251   -4.3301 C   0  0  0  0  0  0  0  0  0  0  0  0
   -3.8342  -15.1558   -4.4858 C   0  0  0  0  0  0  0  0  0  0  0  0
    0.3544  -12.9494   -3.4002 C   0  0  0  0  0  0  0  0  0  0  0  0
    1.6608  -12.5044   -3.2511 C   0  0  0  0  0  0  0  0  0  0  0  0
    4.7884  -11.8801   -0.2949 C   0  0  0  0  0  0  0  0  0  0  0  0
    3.7982  -11.4618    0.6090 C   0  0  0  0  0  0  0  0  0  0  0  0
    2.5253  -11.8326    0.3144 O   0  0  0  0  0  0  0  0  0  0  0  0
    1.4274  -10.9810    0.6230 C   0  0  0  0  0  0  0  0  0  0  0  0
    1.6324  -10.1206    4.9419 C   0  0  0  0  0  0  0  0  0  0  0  0
    0.7798   -9.9564    6.0344 C   0  0  0  0  0  0  0  0  0  0  0  0
   -1.6015   -8.9988    8.9957 H   0  0  0  0  0  0  0  0  0  0  0  0
   -0.1250   -9.9812    8.7348 H   0  0  0  0  0  0  0  0  0  0  0  0
   -1.5498  -10.1919    7.6591 H   0  0  0  0  0  0  0  0  0  0  0  0
    0.3833   -6.5697    5.9080 H   0  0  0  0  0  0  0  0  0  0  0  0
    1.9237   -6.8779    3.9445 H   0  0  0  0  0  0  0  0  0  0  0  0
    5.8190   -9.8811    2.8545 H   0  0  0  0  0  0  0  0  0  0  0  0
    7.5532  -10.5855    1.2170 H   0  0  0  0  0  0  0  0  0  0  0  0
    8.2286  -12.0237   -0.5590 H   0  0  0  0  0  0  0  0  0  0  0  0
    5.2499  -11.7819   -2.6447 H   0  0  0  0  0  0  0  0  0  0  0  0
    3.9517  -10.7753   -6.6042 H   0  0  0  0  0  0  0  0  0  0  0  0
    5.7246  -10.9997   -6.7195 H   0  0  0  0  0  0  0  0  0  0  0  0
    5.0301   -9.9658   -5.4364 H   0  0  0  0  0  0  0  0  0  0  0  0
    2.6703  -12.7573   -6.5050 H   0  0  0  0  0  0  0  0  0  0  0  0
    0.3753  -13.5469   -6.7633 H   0  0  0  0  0  0  0  0  0  0  0  0
   -1.3741  -15.0105   -6.3453 H   0  0  0  0  0  0  0  0  0  0  0  0
   -1.9606  -13.3624   -6.6710 H   0  0  0  0  0  0  0  0  0  0  0  0
   -3.9908  -14.2142   -7.7587 H   0  0  0  0  0  0  0  0  0  0  0  0
   -6.3064  -15.0619   -7.4844 H   0  0  0  0  0  0  0  0  0  0  0  0
   -7.0565  -15.9665   -5.2815 H   0  0  0  0  0  0  0  0  0  0  0  0
   -5.4647  -16.0139   -3.3607 H   0  0  0  0  0  0  0  0  0  0  0  0
   -3.1379  -15.1700   -3.6459 H   0  0  0  0  0  0  0  0  0  0  0  0
   -0.3151  -13.0166   -2.5402 H   0  0  0  0  0  0  0  0  0  0  0  0
    2.0389  -12.2221   -2.2661 H   0  0  0  0  0  0  0  0  0  0  0  0
    4.4421  -12.4982   -1.1231 H   0  0  0  0  0  0  0  0  0  0  0  0
    0.6201  -11.2573   -0.0701 H   0  0  0  0  0  0  0  0  0  0  0  0
    1.6845   -9.9206    0.4646 H   0  0  0  0  0  0  0  0  0  0  0  0
    1.0784  -11.1224    1.6566 H   0  0  0  0  0  0  0  0  0  0  0  0
    1.9848  -11.1187    4.6785 H   0  0  0  0  0  0  0  0  0  0  0  0
    0.4749  -10.8311    6.6086 H   0  0  0  0  0  0  0  0  0  0  0  0
  1  2  1  0
  1 43  1  0
  1 44  1  0
  1 45  1  0
  2  3  1  0
  3  4  2  0
  3 42  1  0
  4  5  1  0
  4 46  1  0
  5  6  2  0
  5 47  1  0
  6  7  1  0
  6 41  1  0
  7  8  2  0
  7  9  1  0
  9 10  1  0
 10 11  2  0
 10 38  1  0
 11 12  1  0
 11 48  1  0
 12 13  2  0
 12 49  1  0
 13 14  1  0
 13 37  1  0
 14 15  2  0
 14 50  1  0
 15 16  1  0
 16 17  1  0
 16 51  1  0
 17 18  2  0
 17 19  1  0
 19 20  1  6
 19 21  1  0
 19 22  1  0
 21 52  1  0
 21 53  1  0
 21 54  1  0
 22 23  1  0
 23 24  2  0
 23 36  1  0
 24 25  1  0
 24 55  1  0
 25 26  2  0
 25 56  1  0
 26 27  1  0
 26 35  1  0
 27 28  1  0
 28 29  1  0
 28 57  1  0
 28 58  1  0
 29 30  2  0
 29 34  1  0
 30 31  1  0
 30 59  1  0
 31 32  2  0
 31 60  1  0
 32 33  1  0
 32 61  1  0
 33 34  2  0
 33 62  1  0
 34 63  1  0
 35 36  2  0
 35 64  1  0
 36 65  1  0
 37 38  2  0
 37 66  1  0
 38 39  1  0
 39 40  1  0
 40 67  1  0
 40 68  1  0
 40 69  1  0
 41 42  2  0
 41 70  1  0
 42 71  1  0
M  END

