
     RDKit          3D

 35 36  0  0  0  0  0  0  0  0999 V2000
   -0.0526    0.3331    2.7259 N   0  0  0  0  0  0  0  0  0  0  0  0
    0.9340   -0.2529    2.9053 C   0  0  0  0  0  0  0  0  0  0  0  0
    2.1573   -0.9631    3.1318 C   0  0  0  0  0  0  0  0  0  0  0  0
    2.7837   -0.9225    4.3879 C   0  0  0  0  0  0  0  0  0  0  0  0
    3.9794   -1.5963    4.5932 C   0  0  0  0  0  0  0  0  0  0  0  0
    4.5677   -1.5506    5.7894 F   0  0  0  0  0  0  0  0  0  0  0  0
    4.5653   -2.3214    3.5480 C   0  0  0  0  0  0  0  0  0  0  0  0
    6.0575   -3.1606    3.8261 Cl  0  0  0  0  0  0  0  0  0  0  0  0
    3.9519   -2.3751    2.2928 C   0  0  0  0  0  0  0  0  0  0  0  0
    2.7452   -1.6986    2.0697 C   0  0  0  0  0  0  0  0  0  0  0  0
    2.0758   -1.6775    0.9018 O   0  0  0  0  0  0  0  0  0  0  0  0
    2.6071   -2.2576   -0.3060 C   0  0  2  0  0  0  0  0  0  0  0  0
    3.6682   -1.9626   -0.4021 H   0  0  0  0  0  0  0  0  0  0  0  0
    1.8140   -1.6245   -1.4516 C   0  0  0  0  0  0  0  0  0  0  0  0
    1.9433   -0.0963   -1.5082 C   0  0  0  0  0  0  0  0  0  0  0  0
    1.2233    0.5058   -2.6194 N   0  0  0  0  0  0  0  0  0  0  0  0
    1.7226    0.4089   -3.8980 C   0  0  0  0  0  0  0  0  0  0  0  0
    2.7809   -0.1020   -4.1700 O   0  0  0  0  0  0  0  0  0  0  0  0
    0.9402    0.9549   -4.8645 O   0  0  0  0  0  0  0  0  0  0  0  0
    2.5009   -3.7580   -0.2847 C   0  0  0  0  0  0  0  0  0  0  0  0
    1.3685   -4.5397    0.1407 C   0  0  0  0  0  0  0  0  0  0  0  0
    1.7109   -5.8429   -0.0727 C   0  0  0  0  0  0  0  0  0  0  0  0
    2.9582   -5.9260   -0.5985 O   0  0  0  0  0  0  0  0  0  0  0  0
    3.4312   -4.6633   -0.7205 C   0  0  0  0  0  0  0  0  0  0  0  0
    2.3428   -0.3593    5.2115 H   0  0  0  0  0  0  0  0  0  0  0  0
    4.4183   -2.9693    1.5106 H   0  0  0  0  0  0  0  0  0  0  0  0
    0.7540   -1.9123   -1.3494 H   0  0  0  0  0  0  0  0  0  0  0  0
    2.1846   -2.0503   -2.3959 H   0  0  0  0  0  0  0  0  0  0  0  0
    3.0046    0.1786   -1.6117 H   0  0  0  0  0  0  0  0  0  0  0  0
    1.5704    0.3532   -0.5771 H   0  0  0  0  0  0  0  0  0  0  0  0
    0.2401    0.7088   -2.4793 H   0  0  0  0  0  0  0  0  0  0  0  0
    0.2188    1.4756   -4.4852 H   0  0  0  0  0  0  0  0  0  0  0  0
    0.4351   -4.1695    0.5590 H   0  0  0  0  0  0  0  0  0  0  0  0
    1.1974   -6.7861    0.0951 H   0  0  0  0  0  0  0  0  0  0  0  0
    4.4296   -4.5594   -1.1392 H   0  0  0  0  0  0  0  0  0  0  0  0
  1  2  3  0
  2  3  1  0
  3  4  2  0
  3 10  1  0
  4  5  1  0
  4 25  1  0
  5  6  1  0
  5  7  2  0
  7  8  1  0
  7  9  1  0
  9 10  2  0
  9 26  1  0
 10 11  1  0
 11 12  1  0
 12 13  1  6
 12 14  1  0
 12 20  1  0
 14 15  1  0
 14 27  1  0
 14 28  1  0
 15 16  1  0
 15 29  1  0
 15 30  1  0
 16 17  1  0
 16 31  1  0
 17 18  2  0
 17 19  1  0
 19 32  1  0
 20 21  1  0
 20 24  2  0
 21 22  2  0
 21 33  1  0
 22 23  1  0
 22 34  1  0
 23 24  1  0
 24 35  1  0
M  END

