
     RDKit          3D

 56 58  0  0  0  0  0  0  0  0999 V2000
    2.2130    5.4546   -2.6885 C   0  0  0  0  0  0  0  0  0  0  0  0
    3.5709    5.6582   -2.0463 C   0  0  0  0  0  0  0  0  0  0  0  0
    4.1349    4.3781   -1.7884 O   0  0  0  0  0  0  0  0  0  0  0  0
    5.3576    4.2918   -1.2187 C   0  0  0  0  0  0  0  0  0  0  0  0
    5.8639    2.9944   -1.0001 C   0  0  0  0  0  0  0  0  0  0  0  0
    7.1049    2.7928   -0.4227 C   0  0  0  0  0  0  0  0  0  0  0  0
    7.9259    3.8767   -0.0244 C   0  0  0  0  0  0  0  0  0  0  0  0
    9.1761    3.6768    0.5593 N   0  0  0  0  0  0  0  0  0  0  0  0
    9.8363    2.4914    0.7700 C   0  0  0  0  0  0  0  0  0  0  0  0
    9.4061    1.3831    0.5144 O   0  0  0  0  0  0  0  0  0  0  0  0
   11.2213    2.5948    1.4266 C   0  0  0  0  0  0  0  0  0  0  0  0
   12.0176    4.2220    1.5955 S   0  0  0  0  0  0  0  0  0  0  0  0
   12.4860    4.5547   -0.0877 C   0  0  0  0  0  0  0  0  0  0  0  0
   13.1121    5.7908   -0.3633 C   0  0  0  0  0  0  0  0  0  0  0  0
   13.4935    6.0532   -1.6694 C   0  0  0  0  0  0  0  0  0  0  0  0
   13.2420    5.0782   -2.6471 C   0  0  0  0  0  0  0  0  0  0  0  0
   13.6640    5.3880   -4.3598 S   0  0  1  0  0  0  0  0  0  0  0  0
   13.1171    4.2753   -5.1444 O   0  0  0  0  0  0  0  0  0  0  0  0
   13.3104    6.7756   -4.6692 O   0  0  0  0  0  0  0  0  0  0  0  0
   15.3580    5.3226   -4.3240 N   0  0  0  0  0  0  0  0  0  0  0  0
   16.0623    6.2647   -5.2109 C   0  0  0  0  0  0  0  0  0  0  0  0
   17.5241    6.3787   -4.7752 C   0  0  0  0  0  0  0  0  0  0  0  0
   18.2002    5.0039   -4.7294 C   0  0  0  0  0  0  0  0  0  0  0  0
   17.3965    4.0375   -3.8525 C   0  0  0  0  0  0  0  0  0  0  0  0
   15.9324    3.9699   -4.2947 C   0  0  0  0  0  0  0  0  0  0  0  0
   12.5979    3.8969   -2.2828 C   0  0  0  0  0  0  0  0  0  0  0  0
   12.2325    3.6438   -1.0215 N   0  0  0  0  0  0  0  0  0  0  0  0
    7.4009    5.1763   -0.2541 C   0  0  0  0  0  0  0  0  0  0  0  0
    8.1304    6.4016    0.0942 N   0  0  0  0  0  0  0  0  0  0  0  0
    9.2475    6.3028    0.6091 O   0  0  0  0  0  0  0  0  0  0  0  0
    7.6048    7.4760   -0.1398 O   0  0  0  0  0  0  0  0  0  0  0  0
    6.1380    5.3791   -0.8397 C   0  0  0  0  0  0  0  0  0  0  0  0
    1.7456    6.4281   -2.9025 H   0  0  0  0  0  0  0  0  0  0  0  0
    1.5472    4.8875   -2.0202 H   0  0  0  0  0  0  0  0  0  0  0  0
    2.3088    4.8986   -3.6334 H   0  0  0  0  0  0  0  0  0  0  0  0
    3.4792    6.2240   -1.1000 H   0  0  0  0  0  0  0  0  0  0  0  0
    4.2403    6.2343   -2.7123 H   0  0  0  0  0  0  0  0  0  0  0  0
    5.2502    2.1422   -1.2995 H   0  0  0  0  0  0  0  0  0  0  0  0
    7.4832    1.7863   -0.2635 H   0  0  0  0  0  0  0  0  0  0  0  0
    9.6547    4.5432    0.8178 H   0  0  0  0  0  0  0  0  0  0  0  0
   11.8800    1.9156    0.8707 H   0  0  0  0  0  0  0  0  0  0  0  0
   11.1326    2.2136    2.4564 H   0  0  0  0  0  0  0  0  0  0  0  0
   13.2776    6.5200    0.4323 H   0  0  0  0  0  0  0  0  0  0  0  0
   13.9686    6.9980   -1.9413 H   0  0  0  0  0  0  0  0  0  0  0  0
   15.5523    7.2345   -5.1573 H   0  0  0  0  0  0  0  0  0  0  0  0
   16.0118    5.9200   -6.2644 H   0  0  0  0  0  0  0  0  0  0  0  0
   17.5627    6.8468   -3.7762 H   0  0  0  0  0  0  0  0  0  0  0  0
   18.0519    7.0530   -5.4697 H   0  0  0  0  0  0  0  0  0  0  0  0
   19.2345    5.0920   -4.3585 H   0  0  0  0  0  0  0  0  0  0  0  0
   18.2682    4.5965   -5.7550 H   0  0  0  0  0  0  0  0  0  0  0  0
   17.4354    4.3704   -2.8008 H   0  0  0  0  0  0  0  0  0  0  0  0
   17.8278    3.0235   -3.8878 H   0  0  0  0  0  0  0  0  0  0  0  0
   15.3516    3.3513   -3.5940 H   0  0  0  0  0  0  0  0  0  0  0  0
   15.8502    3.4920   -5.2908 H   0  0  0  0  0  0  0  0  0  0  0  0
   12.3664    3.1411   -3.0393 H   0  0  0  0  0  0  0  0  0  0  0  0
    5.8174    6.4077   -0.9775 H   0  0  0  0  0  0  0  0  0  0  0  0
  1  2  1  0
  1 33  1  0
  1 34  1  0
  1 35  1  0
  2  3  1  0
  2 36  1  0
  2 37  1  0
  3  4  1  0
  4  5  2  0
  4 32  1  0
  5  6  1  0
  5 38  1  0
  6  7  2  0
  6 39  1  0
  7  8  1  0
  7 28  1  0
  8  9  1  0
  8 40  1  0
  9 10  2  0
  9 11  1  0
 11 12  1  0
 11 41  1  0
 11 42  1  0
 12 13  1  0
 13 14  2  0
 13 27  1  0
 14 15  1  0
 14 43  1  0
 15 16  2  0
 15 44  1  0
 17 16  1  1
 16 26  1  0
 17 18  2  0
 17 19  2  0
 17 20  1  0
 20 21  1  0
 20 25  1  0
 21 22  1  0
 21 45  1  0
 21 46  1  0
 22 23  1  0
 22 47  1  0
 22 48  1  0
 23 24  1  0
 23 49  1  0
 23 50  1  0
 24 25  1  0
 24 51  1  0
 24 52  1  0
 25 53  1  0
 25 54  1  0
 26 27  2  0
 26 55  1  0
 28 29  1  0
 28 32  2  0
 29 30  2  0
 29 31  1  0
 32 56  1  0
M  CHG  2  29   1  31  -1
M  END

