
     RDKit          3D

 31 31  0  0  0  0  0  0  0  0999 V2000
    0.9533   -0.3291    0.1568 C   0  0  0  0  0  0  0  0  0  0  0  0
    2.4521   -0.0032    0.2355 C   0  0  1  0  0  0  0  0  0  0  0  0
    3.2693   -1.3001    0.1361 C   0  0  0  0  0  0  0  0  0  0  0  0
    2.8472    1.0647   -0.8265 C   0  0  1  0  0  0  0  0  0  0  0  0
    2.0446    2.2882   -0.7708 N   0  0  0  0  0  0  0  0  0  0  0  0
    4.3436    1.4583   -0.7352 C   0  0  0  0  0  0  0  0  0  0  0  0
    4.8233    2.3199   -1.8827 C   0  0  0  0  0  0  0  0  0  0  0  0
    4.6764    3.7163   -1.7928 C   0  0  0  0  0  0  0  0  0  0  0  0
    5.1039    4.5791   -2.8007 C   0  0  0  0  0  0  0  0  0  0  0  0
    5.7188    4.0707   -3.9498 C   0  0  0  0  0  0  0  0  0  0  0  0
    5.8956    2.6971   -4.0728 C   0  0  0  0  0  0  0  0  0  0  0  0
    5.4363    1.8440   -3.0609 C   0  0  0  0  0  0  0  0  0  0  0  0
    5.6443    0.4012   -3.3037 N   0  0  0  0  0  0  0  0  0  0  0  0
    4.8649   -0.3913   -2.7910 O   0  0  0  0  0  0  0  0  0  0  0  0
    6.5760    0.0776   -4.0223 O   0  0  0  0  0  0  0  0  0  0  0  0
    0.6656   -1.0484    0.9398 H   0  0  0  0  0  0  0  0  0  0  0  0
    0.7015   -0.7830   -0.8177 H   0  0  0  0  0  0  0  0  0  0  0  0
    0.3250    0.5653    0.2838 H   0  0  0  0  0  0  0  0  0  0  0  0
    2.6466    0.4495    1.2294 H   0  0  0  0  0  0  0  0  0  0  0  0
    3.1959   -1.7389   -0.8724 H   0  0  0  0  0  0  0  0  0  0  0  0
    2.8969   -2.0461    0.8565 H   0  0  0  0  0  0  0  0  0  0  0  0
    4.3371   -1.1487    0.3510 H   0  0  0  0  0  0  0  0  0  0  0  0
    2.6907    0.6166   -1.8219 H   0  0  0  0  0  0  0  0  0  0  0  0
    1.9278    2.5999    0.1952 H   0  0  0  0  0  0  0  0  0  0  0  0
    1.1103    2.1407   -1.1459 H   0  0  0  0  0  0  0  0  0  0  0  0
    4.9561    0.5546   -0.6615 H   0  0  0  0  0  0  0  0  0  0  0  0
    4.4869    2.0276    0.1998 H   0  0  0  0  0  0  0  0  0  0  0  0
    4.2010    4.1236   -0.8998 H   0  0  0  0  0  0  0  0  0  0  0  0
    4.9594    5.6565   -2.6869 H   0  0  0  0  0  0  0  0  0  0  0  0
    6.0611    4.7394   -4.7427 H   0  0  0  0  0  0  0  0  0  0  0  0
    6.3830    2.2582   -4.9429 H   0  0  0  0  0  0  0  0  0  0  0  0
  1  2  1  0
  1 16  1  0
  1 17  1  0
  1 18  1  0
  2  3  1  0
  2  4  1  0
  2 19  1  1
  3 20  1  0
  3 21  1  0
  3 22  1  0
  4  5  1  0
  4  6  1  0
  4 23  1  6
  5 24  1  0
  5 25  1  0
  6  7  1  0
  6 26  1  0
  6 27  1  0
  7  8  2  0
  7 12  1  0
  8  9  1  0
  8 28  1  0
  9 10  2  0
  9 29  1  0
 10 11  1  0
 10 30  1  0
 11 12  2  0
 11 31  1  0
 12 13  1  0
 13 14  2  0
 13 15  1  0
M  CHG  2  13   1  15  -1
M  END

