
     RDKit          3D

 42 44  0  0  0  0  0  0  0  0999 V2000
    2.6698   -0.1626   -2.2227 C   0  0  0  0  0  0  0  0  0  0  0  0
    3.1151   -0.9383   -1.1424 O   0  0  0  0  0  0  0  0  0  0  0  0
    4.3380   -0.5148   -0.6000 C   0  0  0  0  0  0  0  0  0  0  0  0
    4.7388   -1.4668    0.5208 C   0  0  0  0  0  0  0  0  0  0  0  0
    4.9075   -2.8353    0.0685 N   0  0  0  0  0  0  0  0  0  0  0  0
    4.0061   -3.8513    0.2621 C   0  0  0  0  0  0  0  0  0  0  0  0
    2.9778   -3.8359    0.9049 O   0  0  0  0  0  0  0  0  0  0  0  0
    4.5522   -5.0596   -0.4733 C   0  0  0  0  0  0  0  0  0  0  0  0
    3.7347   -6.1401   -0.4022 N   0  0  0  0  0  0  0  0  0  0  0  0
    3.6358   -7.2939   -1.1974 C   0  0  0  0  0  0  0  0  0  0  0  0
    4.1383   -7.3580   -2.5084 C   0  0  0  0  0  0  0  0  0  0  0  0
    3.9759   -8.5187   -3.2671 C   0  0  0  0  0  0  0  0  0  0  0  0
    3.3040   -9.6083   -2.7207 C   0  0  0  0  0  0  0  0  0  0  0  0
    3.1481  -10.7217   -3.4519 F   0  0  0  0  0  0  0  0  0  0  0  0
    2.7843   -9.5634   -1.4275 C   0  0  0  0  0  0  0  0  0  0  0  0
    2.9564   -8.4077   -0.6688 C   0  0  0  0  0  0  0  0  0  0  0  0
    5.7670   -4.7346   -1.0277 C   0  0  0  0  0  0  0  0  0  0  0  0
    6.8023   -5.5525   -1.6756 C   0  0  0  0  0  0  0  0  0  0  0  0
    7.0301   -6.8844   -1.2711 C   0  0  0  0  0  0  0  0  0  0  0  0
    8.0308   -7.6549   -1.8657 C   0  0  0  0  0  0  0  0  0  0  0  0
    8.8292   -7.1126   -2.8766 C   0  0  0  0  0  0  0  0  0  0  0  0
    8.6223   -5.7897   -3.2818 C   0  0  0  0  0  0  0  0  0  0  0  0
    7.6252   -5.0149   -2.6882 C   0  0  0  0  0  0  0  0  0  0  0  0
    5.9918   -3.2894   -0.7193 C   0  0  0  0  0  0  0  0  0  0  0  0
    6.9157   -2.5734   -1.0378 O   0  0  0  0  0  0  0  0  0  0  0  0
    1.7194   -0.5898   -2.5743 H   0  0  0  0  0  0  0  0  0  0  0  0
    3.3929   -0.1670   -3.0638 H   0  0  0  0  0  0  0  0  0  0  0  0
    2.4945    0.8936   -1.9323 H   0  0  0  0  0  0  0  0  0  0  0  0
    4.2604    0.5112   -0.1803 H   0  0  0  0  0  0  0  0  0  0  0  0
    5.1322   -0.4930   -1.3731 H   0  0  0  0  0  0  0  0  0  0  0  0
    3.9580   -1.4833    1.2947 H   0  0  0  0  0  0  0  0  0  0  0  0
    5.6822   -1.1183    0.9685 H   0  0  0  0  0  0  0  0  0  0  0  0
    2.9563   -5.9706    0.2367 H   0  0  0  0  0  0  0  0  0  0  0  0
    4.6401   -6.4966   -2.9464 H   0  0  0  0  0  0  0  0  0  0  0  0
    4.3616   -8.5822   -4.2863 H   0  0  0  0  0  0  0  0  0  0  0  0
    2.2586  -10.4325   -1.0279 H   0  0  0  0  0  0  0  0  0  0  0  0
    2.5625   -8.3642    0.3499 H   0  0  0  0  0  0  0  0  0  0  0  0
    6.4316   -7.3122   -0.4645 H   0  0  0  0  0  0  0  0  0  0  0  0
    8.1904   -8.6834   -1.5320 H   0  0  0  0  0  0  0  0  0  0  0  0
    9.6129   -7.7155   -3.3424 H   0  0  0  0  0  0  0  0  0  0  0  0
    9.2456   -5.3547   -4.0675 H   0  0  0  0  0  0  0  0  0  0  0  0
    7.4823   -3.9802   -2.9995 H   0  0  0  0  0  0  0  0  0  0  0  0
  1  2  1  0
  1 26  1  0
  1 27  1  0
  1 28  1  0
  2  3  1  0
  3  4  1  0
  3 29  1  0
  3 30  1  0
  4  5  1  0
  4 31  1  0
  4 32  1  0
  5  6  1  0
  5 24  1  0
  6  7  2  0
  6  8  1  0
  8  9  1  0
  8 17  2  0
  9 10  1  0
  9 33  1  0
 10 11  2  0
 10 16  1  0
 11 12  1  0
 11 34  1  0
 12 13  2  0
 12 35  1  0
 13 14  1  0
 13 15  1  0
 15 16  2  0
 15 36  1  0
 16 37  1  0
 17 18  1  0
 17 24  1  0
 18 19  2  0
 18 23  1  0
 19 20  1  0
 19 38  1  0
 20 21  2  0
 20 39  1  0
 21 22  1  0
 21 40  1  0
 22 23  2  0
 22 41  1  0
 23 42  1  0
 24 25  2  0
M  END

