
     RDKit          3D

 51 51  0  0  0  0  0  0  0  0999 V2000
    4.3202   -0.8285    0.6350 C   0  0  0  0  0  0  0  0  0  0  0  0
    3.4163    0.3709    0.9396 C   0  0  1  0  0  0  0  0  0  0  0  0
    3.4256    0.7719    2.4201 C   0  0  0  0  0  0  0  0  0  0  0  0
    3.6562    1.5241    0.0299 N   0  0  0  0  0  0  0  0  0  0  0  0
    2.5759    1.8925   -0.8830 C   0  0  0  0  0  0  0  0  0  0  0  0
    2.5838    1.1678   -2.2197 C   0  0  1  0  0  0  0  0  0  0  0  0
    1.8464   -0.1355   -2.4033 C   0  0  0  0  0  0  0  0  0  0  0  0
    1.3286    1.1219   -3.0541 C   0  0  0  0  0  0  0  0  0  0  0  0
    4.8635    2.1841    0.0469 C   0  0  0  0  0  0  0  0  0  0  0  0
    5.7253    1.9622    0.9096 O   0  0  0  0  0  0  0  0  0  0  0  0
    5.0796    3.1123   -0.9486 N   0  0  0  0  0  0  0  0  0  0  0  0
    6.1521    4.1003   -0.9269 C   0  0  0  0  0  0  0  0  0  0  0  0
    7.2372    3.9335   -2.0223 C   0  0  0  0  0  0  0  0  0  0  0  0
    8.5908    3.3079   -1.5819 C   0  0  1  0  0  0  0  0  0  0  0  0
    9.5189    3.2418   -2.8091 C   0  0  0  0  0  0  0  0  0  0  0  0
    9.2489    4.2118   -0.5195 C   0  0  0  0  0  0  0  0  0  0  0  0
    8.3111    1.8797   -1.0410 C   0  0  0  0  0  0  0  0  0  0  0  0
    9.3684    1.2338   -0.1367 C   0  0  0  0  0  0  0  0  0  0  0  0
    8.9006   -0.0666    0.5124 C   0  0  0  0  0  0  0  0  0  0  0  0
    9.5465   -1.0822    0.4951 O   0  0  0  0  0  0  0  0  0  0  0  0
    7.7187   -0.0245    1.1597 O   0  0  0  0  0  0  0  0  0  0  0  0
    4.0097   -1.6915    1.2455 H   0  0  0  0  0  0  0  0  0  0  0  0
    5.3747   -0.6219    0.8584 H   0  0  0  0  0  0  0  0  0  0  0  0
    4.2376   -1.1181   -0.4244 H   0  0  0  0  0  0  0  0  0  0  0  0
    2.3876    0.0621    0.6985 H   0  0  0  0  0  0  0  0  0  0  0  0
    4.4315    1.0683    2.7429 H   0  0  0  0  0  0  0  0  0  0  0  0
    3.0917   -0.0776    3.0372 H   0  0  0  0  0  0  0  0  0  0  0  0
    2.7386    1.6142    2.6019 H   0  0  0  0  0  0  0  0  0  0  0  0
    2.5978    2.9835   -1.0434 H   0  0  0  0  0  0  0  0  0  0  0  0
    1.6181    1.6988   -0.3730 H   0  0  0  0  0  0  0  0  0  0  0  0
    3.5267    1.2596   -2.7717 H   0  0  0  0  0  0  0  0  0  0  0  0
    1.2884   -0.5362   -1.5516 H   0  0  0  0  0  0  0  0  0  0  0  0
    2.3012   -0.9025   -3.0360 H   0  0  0  0  0  0  0  0  0  0  0  0
    0.4224    1.5758   -2.6397 H   0  0  0  0  0  0  0  0  0  0  0  0
    1.4209    1.2276   -4.1385 H   0  0  0  0  0  0  0  0  0  0  0  0
    4.4004    3.2037   -1.6904 H   0  0  0  0  0  0  0  0  0  0  0  0
    6.5928    4.0622    0.0776 H   0  0  0  0  0  0  0  0  0  0  0  0
    5.6919    5.0980   -1.0291 H   0  0  0  0  0  0  0  0  0  0  0  0
    7.4507    4.9256   -2.4561 H   0  0  0  0  0  0  0  0  0  0  0  0
    6.8128    3.3302   -2.8441 H   0  0  0  0  0  0  0  0  0  0  0  0
    9.7404    4.2490   -3.1999 H   0  0  0  0  0  0  0  0  0  0  0  0
    9.0611    2.6576   -3.6242 H   0  0  0  0  0  0  0  0  0  0  0  0
   10.4801    2.7658   -2.5565 H   0  0  0  0  0  0  0  0  0  0  0  0
    9.3158    5.2498   -0.8852 H   0  0  0  0  0  0  0  0  0  0  0  0
   10.2735    3.8820   -0.2898 H   0  0  0  0  0  0  0  0  0  0  0  0
    8.6904    4.2271    0.4301 H   0  0  0  0  0  0  0  0  0  0  0  0
    8.1117    1.2130   -1.8986 H   0  0  0  0  0  0  0  0  0  0  0  0
    7.3789    1.9208   -0.4701 H   0  0  0  0  0  0  0  0  0  0  0  0
    9.6228    1.9171    0.6918 H   0  0  0  0  0  0  0  0  0  0  0  0
   10.3024    1.0015   -0.6673 H   0  0  0  0  0  0  0  0  0  0  0  0
    7.2187    0.8156    1.0747 H   0  0  0  0  0  0  0  0  0  0  0  0
  1  2  1  0
  1 22  1  0
  1 23  1  0
  1 24  1  0
  2  3  1  0
  2  4  1  0
  2 25  1  6
  3 26  1  0
  3 27  1  0
  3 28  1  0
  4  5  1  0
  4  9  1  0
  5  6  1  0
  5 29  1  0
  5 30  1  0
  6  7  1  0
  6  8  1  0
  6 31  1  6
  7  8  1  0
  7 32  1  0
  7 33  1  0
  8 34  1  0
  8 35  1  0
  9 10  2  0
  9 11  1  0
 11 12  1  0
 11 36  1  0
 12 13  1  0
 12 37  1  0
 12 38  1  0
 14 13  1  6
 13 39  1  0
 13 40  1  0
 14 15  1  0
 14 16  1  0
 14 17  1  0
 15 41  1  0
 15 42  1  0
 15 43  1  0
 16 44  1  0
 16 45  1  0
 16 46  1  0
 17 18  1  0
 17 47  1  0
 17 48  1  0
 18 19  1  0
 18 49  1  0
 18 50  1  0
 19 20  2  0
 19 21  1  0
 21 51  1  0
M  END

