
     RDKit          3D

 75 80  0  0  0  0  0  0  0  0999 V2000
   -0.9027   -0.0028    2.3266 C   0  0  0  0  0  0  0  0  0  0  0  0
   -0.4297   -1.2853    3.0327 C   0  0  1  0  0  0  0  0  0  0  0  0
   -0.4717   -2.4943    2.0820 C   0  0  0  0  0  0  0  0  0  0  0  0
    0.9430   -1.1117    3.6705 C   0  0  0  0  0  0  0  0  0  0  0  0
    2.0826   -0.8280    2.9009 C   0  0  0  0  0  0  0  0  0  0  0  0
    3.3262   -0.6680    3.5088 C   0  0  0  0  0  0  0  0  0  0  0  0
    3.4866   -0.8073    4.8962 C   0  0  0  0  0  0  0  0  0  0  0  0
    4.7844   -0.6291    5.4666 N   0  0  0  0  0  0  0  0  0  0  0  0
    5.8138   -1.6088    5.1645 C   0  0  0  0  0  0  0  0  0  0  0  0
    5.1037    0.5107    6.2003 C   0  0  0  0  0  0  0  0  0  0  0  0
    4.2081    1.6020    6.2996 C   0  0  0  0  0  0  0  0  0  0  0  0
    4.5536    2.7379    7.0260 C   0  0  0  0  0  0  0  0  0  0  0  0
    5.7841    2.8397    7.6820 C   0  0  0  0  0  0  0  0  0  0  0  0
    6.6832    1.7721    7.5809 C   0  0  0  0  0  0  0  0  0  0  0  0
    7.9478    1.8375    8.2329 N   0  0  0  0  0  0  0  0  0  0  0  0
    8.9383    2.7936    8.0013 C   0  0  0  0  0  0  0  0  0  0  0  0
    8.9481    3.8660    7.0994 C   0  0  0  0  0  0  0  0  0  0  0  0
   10.0879    4.6698    7.0547 C   0  0  0  0  0  0  0  0  0  0  0  0
   11.1984    4.4171    7.8827 C   0  0  0  0  0  0  0  0  0  0  0  0
   11.1886    3.3433    8.7720 C   0  0  0  0  0  0  0  0  0  0  0  0
   10.0561    2.5185    8.8372 C   0  0  0  0  0  0  0  0  0  0  0  0
    9.7170    1.3399    9.6114 C   0  0  0  0  0  0  0  0  0  0  0  0
   10.3887    0.6057   10.5978 C   0  0  0  0  0  0  0  0  0  0  0  0
    9.7759   -0.5049   11.1914 C   0  0  0  0  0  0  0  0  0  0  0  0
   10.4867   -1.3220   12.2658 C   0  0  1  0  0  0  0  0  0  0  0  0
   11.7599   -2.0004   11.7309 C   0  0  0  0  0  0  0  0  0  0  0  0
   10.7878   -0.4899   13.5245 C   0  0  0  0  0  0  0  0  0  0  0  0
    8.4718   -0.8564   10.7770 C   0  0  0  0  0  0  0  0  0  0  0  0
    7.7749   -0.1476    9.7972 C   0  0  0  0  0  0  0  0  0  0  0  0
    8.4106    0.9513    9.2089 C   0  0  0  0  0  0  0  0  0  0  0  0
    6.3554    0.6265    6.8445 C   0  0  0  0  0  0  0  0  0  0  0  0
    2.3579   -1.1134    5.6926 C   0  0  0  0  0  0  0  0  0  0  0  0
    2.4404   -1.3028    7.1693 C   0  0  0  0  0  0  0  0  0  0  0  0
    1.5678   -0.6053    8.0237 C   0  0  0  0  0  0  0  0  0  0  0  0
    1.6099   -0.7965    9.4072 C   0  0  0  0  0  0  0  0  0  0  0  0
    2.5243   -1.6939    9.9645 C   0  0  0  0  0  0  0  0  0  0  0  0
    3.3934   -2.4003    9.1266 C   0  0  0  0  0  0  0  0  0  0  0  0
    3.3528   -2.2060    7.7443 C   0  0  0  0  0  0  0  0  0  0  0  0
    1.1099   -1.2420    5.0547 C   0  0  0  0  0  0  0  0  0  0  0  0
   -1.9236   -0.1298    1.9308 H   0  0  0  0  0  0  0  0  0  0  0  0
   -0.2484    0.2550    1.4776 H   0  0  0  0  0  0  0  0  0  0  0  0
   -0.9090    0.8558    3.0161 H   0  0  0  0  0  0  0  0  0  0  0  0
   -1.1380   -1.4886    3.8545 H   0  0  0  0  0  0  0  0  0  0  0  0
    0.2050   -2.3542    1.2229 H   0  0  0  0  0  0  0  0  0  0  0  0
   -1.4885   -2.6415    1.6827 H   0  0  0  0  0  0  0  0  0  0  0  0
   -0.1706   -3.4199    2.5972 H   0  0  0  0  0  0  0  0  0  0  0  0
    2.0022   -0.7152    1.8165 H   0  0  0  0  0  0  0  0  0  0  0  0
    4.2009   -0.4135    2.9052 H   0  0  0  0  0  0  0  0  0  0  0  0
    5.3963   -2.3719    4.4957 H   0  0  0  0  0  0  0  0  0  0  0  0
    6.1775   -2.1222    6.0743 H   0  0  0  0  0  0  0  0  0  0  0  0
    6.6883   -1.1519    4.6669 H   0  0  0  0  0  0  0  0  0  0  0  0
    3.2425    1.5569    5.7966 H   0  0  0  0  0  0  0  0  0  0  0  0
    3.8408    3.5645    7.0877 H   0  0  0  0  0  0  0  0  0  0  0  0
    6.0427    3.7214    8.2698 H   0  0  0  0  0  0  0  0  0  0  0  0
    8.0928    4.0660    6.4523 H   0  0  0  0  0  0  0  0  0  0  0  0
   10.1171    5.5129    6.3595 H   0  0  0  0  0  0  0  0  0  0  0  0
   12.0746    5.0673    7.8237 H   0  0  0  0  0  0  0  0  0  0  0  0
   12.0542    3.1440    9.4093 H   0  0  0  0  0  0  0  0  0  0  0  0
   11.3938    0.9100   10.9027 H   0  0  0  0  0  0  0  0  0  0  0  0
    9.7905   -2.1251   12.5650 H   0  0  0  0  0  0  0  0  0  0  0  0
   12.5128   -1.2555   11.4238 H   0  0  0  0  0  0  0  0  0  0  0  0
   11.5394   -2.6302   10.8548 H   0  0  0  0  0  0  0  0  0  0  0  0
   12.2207   -2.6382   12.5035 H   0  0  0  0  0  0  0  0  0  0  0  0
   11.4946    0.3278   13.3060 H   0  0  0  0  0  0  0  0  0  0  0  0
   11.2393   -1.1164   14.3117 H   0  0  0  0  0  0  0  0  0  0  0  0
    9.8709   -0.0364   13.9325 H   0  0  0  0  0  0  0  0  0  0  0  0
    7.9867   -1.7179   11.2457 H   0  0  0  0  0  0  0  0  0  0  0  0
    6.7649   -0.4410    9.5065 H   0  0  0  0  0  0  0  0  0  0  0  0
    7.0935   -0.1710    6.7850 H   0  0  0  0  0  0  0  0  0  0  0  0
    0.8590    0.1091    7.5976 H   0  0  0  0  0  0  0  0  0  0  0  0
    0.9281   -0.2364   10.0524 H   0  0  0  0  0  0  0  0  0  0  0  0
    2.5593   -1.8443   11.0464 H   0  0  0  0  0  0  0  0  0  0  0  0
    4.1034   -3.1147    9.5517 H   0  0  0  0  0  0  0  0  0  0  0  0
    4.0218   -2.7796    7.1004 H   0  0  0  0  0  0  0  0  0  0  0  0
    0.2400   -1.4873    5.6702 H   0  0  0  0  0  0  0  0  0  0  0  0
  1  2  1  0
  1 40  1  0
  1 41  1  0
  1 42  1  0
  2  3  1  0
  2  4  1  0
  2 43  1  1
  3 44  1  0
  3 45  1  0
  3 46  1  0
  4  5  2  0
  4 39  1  0
  5  6  1  0
  5 47  1  0
  6  7  2  0
  6 48  1  0
  7  8  1  0
  7 32  1  0
  8  9  1  0
  8 10  1  0
  9 49  1  0
  9 50  1  0
  9 51  1  0
 10 11  2  0
 10 31  1  0
 11 12  1  0
 11 52  1  0
 12 13  2  0
 12 53  1  0
 13 14  1  0
 13 54  1  0
 14 15  1  0
 14 31  2  0
 15 16  1  0
 15 30  1  0
 16 17  2  0
 16 21  1  0
 17 18  1  0
 17 55  1  0
 18 19  2  0
 18 56  1  0
 19 20  1  0
 19 57  1  0
 20 21  2  0
 20 58  1  0
 21 22  1  0
 22 23  1  0
 22 30  2  0
 23 24  2  0
 23 59  1  0
 24 25  1  0
 24 28  1  0
 25 26  1  0
 25 27  1  0
 25 60  1  1
 26 61  1  0
 26 62  1  0
 26 63  1  0
 27 64  1  0
 27 65  1  0
 27 66  1  0
 28 29  2  0
 28 67  1  0
 29 30  1  0
 29 68  1  0
 31 69  1  0
 32 33  1  0
 32 39  2  0
 33 34  2  0
 33 38  1  0
 34 35  1  0
 34 70  1  0
 35 36  2  0
 35 71  1  0
 36 37  1  0
 36 72  1  0
 37 38  2  0
 37 73  1  0
 38 74  1  0
 39 75  1  0
M  END

