
     RDKit          3D

 45 46  0  0  0  0  0  0  0  0999 V2000
    2.7262   -0.1789    1.8427 C   0  0  0  0  0  0  0  0  0  0  0  0
    3.7917   -0.1961    0.7555 C   0  0  1  0  0  0  0  0  0  0  0  0
    3.5046   -1.2351   -0.1962 O   0  0  0  0  0  0  0  0  0  0  0  0
    4.3194   -2.3221   -0.2452 C   0  0  0  0  0  0  0  0  0  0  0  0
    5.2788   -2.4660    0.4679 O   0  0  0  0  0  0  0  0  0  0  0  0
    3.8796   -3.2837   -1.3275 C   0  0  0  0  0  0  0  0  0  0  0  0
    4.2749   -4.7250   -1.0156 C   0  0  0  0  0  0  0  0  0  0  0  0
    3.5111   -5.2541    0.1123 N   0  0  0  0  0  0  0  0  0  0  0  0
    4.2263   -6.2177    1.2899 S   0  0  1  0  0  0  0  0  0  0  0  0
    3.1901   -7.1792    1.6669 O   0  0  0  0  0  0  0  0  0  0  0  0
    5.5576   -6.6168    0.8309 O   0  0  0  0  0  0  0  0  0  0  0  0
    4.4794   -5.1441    2.6757 C   0  0  0  0  0  0  0  0  0  0  0  0
    5.6686   -4.5575    3.0340 C   0  0  0  0  0  0  0  0  0  0  0  0
    5.5317   -3.7418    4.1941 C   0  0  0  0  0  0  0  0  0  0  0  0
    4.2470   -3.7289    4.6817 C   0  0  0  0  0  0  0  0  0  0  0  0
    3.1790   -4.7156    3.7463 S   0  0  0  0  0  0  0  0  0  0  0  0
    3.9062    1.1613    0.0408 C   0  0  0  0  0  0  0  0  0  0  0  0
    3.9667    2.1865    0.6922 O   0  0  0  0  0  0  0  0  0  0  0  0
    3.9666    1.0723   -1.3306 N   0  0  0  0  0  0  0  0  0  0  0  0
    4.1538    2.0806   -2.2668 C   0  0  0  0  0  0  0  0  0  0  0  0
    4.2301    3.4414   -1.8926 C   0  0  0  0  0  0  0  0  0  0  0  0
    4.4146    4.4381   -2.8439 C   0  0  0  0  0  0  0  0  0  0  0  0
    4.5323    4.1302   -4.2063 C   0  0  0  0  0  0  0  0  0  0  0  0
    4.4673    2.8032   -4.6037 C   0  0  0  0  0  0  0  0  0  0  0  0
    4.2825    1.7842   -3.6566 C   0  0  0  0  0  0  0  0  0  0  0  0
    4.2451    0.4155   -4.1877 N   0  0  0  0  0  0  0  0  0  0  0  0
    4.0395   -0.5214   -3.4077 O   0  0  0  0  0  0  0  0  0  0  0  0
    4.4198    0.2519   -5.3801 O   0  0  0  0  0  0  0  0  0  0  0  0
    2.7573   -1.1167    2.4161 H   0  0  0  0  0  0  0  0  0  0  0  0
    1.7239   -0.0638    1.4023 H   0  0  0  0  0  0  0  0  0  0  0  0
    2.9130    0.6655    2.5200 H   0  0  0  0  0  0  0  0  0  0  0  0
    4.7797   -0.4016    1.1987 H   0  0  0  0  0  0  0  0  0  0  0  0
    4.3565   -2.9499   -2.2665 H   0  0  0  0  0  0  0  0  0  0  0  0
    2.7956   -3.1799   -1.4853 H   0  0  0  0  0  0  0  0  0  0  0  0
    5.3398   -4.7710   -0.7509 H   0  0  0  0  0  0  0  0  0  0  0  0
    4.1405   -5.3522   -1.9135 H   0  0  0  0  0  0  0  0  0  0  0  0
    2.5808   -5.6174   -0.0856 H   0  0  0  0  0  0  0  0  0  0  0  0
    6.5916   -4.7127    2.4766 H   0  0  0  0  0  0  0  0  0  0  0  0
    6.3543   -3.1902    4.6513 H   0  0  0  0  0  0  0  0  0  0  0  0
    3.8677   -3.2050    5.5587 H   0  0  0  0  0  0  0  0  0  0  0  0
    3.8637    0.1409   -1.7360 H   0  0  0  0  0  0  0  0  0  0  0  0
    4.1402    3.6824   -0.8363 H   0  0  0  0  0  0  0  0  0  0  0  0
    4.4661    5.4785   -2.5131 H   0  0  0  0  0  0  0  0  0  0  0  0
    4.6748    4.9183   -4.9480 H   0  0  0  0  0  0  0  0  0  0  0  0
    4.5592    2.5142   -5.6495 H   0  0  0  0  0  0  0  0  0  0  0  0
  1  2  1  0
  1 29  1  0
  1 30  1  0
  1 31  1  0
  2  3  1  0
  2 17  1  0
  2 32  1  1
  3  4  1  0
  4  5  2  0
  4  6  1  0
  6  7  1  0
  6 33  1  0
  6 34  1  0
  7  8  1  0
  7 35  1  0
  7 36  1  0
  9  8  1  6
  8 37  1  0
  9 10  2  0
  9 11  2  0
  9 12  1  0
 12 13  2  0
 12 16  1  0
 13 14  1  0
 13 38  1  0
 14 15  2  0
 14 39  1  0
 15 16  1  0
 15 40  1  0
 17 18  2  0
 17 19  1  0
 19 20  1  0
 19 41  1  0
 20 21  2  0
 20 25  1  0
 21 22  1  0
 21 42  1  0
 22 23  2  0
 22 43  1  0
 23 24  1  0
 23 44  1  0
 24 25  2  0
 24 45  1  0
 25 26  1  0
 26 27  2  0
 26 28  1  0
M  CHG  2  26   1  28  -1
M  END

