
     RDKit          3D

 47 49  0  0  0  0  0  0  0  0999 V2000
    1.1824    0.6432    1.6812 C   0  0  0  0  0  0  0  0  0  0  0  0
    2.5902    0.4789    1.1663 C   0  0  0  0  0  0  0  0  0  0  0  0
    3.4571    1.5719    1.0303 C   0  0  0  0  0  0  0  0  0  0  0  0
    4.7550    1.4067    0.5444 C   0  0  0  0  0  0  0  0  0  0  0  0
    5.2447    0.1403    0.1726 C   0  0  0  0  0  0  0  0  0  0  0  0
    6.6159    0.0261   -0.3313 C   0  0  0  0  0  0  0  0  0  0  0  0
    7.2475   -1.0974   -0.7399 C   0  0  0  0  0  0  0  0  0  0  0  0
    8.6196   -1.1853   -1.2427 C   0  0  0  0  0  0  0  0  0  0  0  0
    9.4952   -0.0463   -1.3187 C   0  0  0  0  0  0  0  0  0  0  0  0
   10.7581   -0.2123   -1.8065 C   0  0  0  0  0  0  0  0  0  0  0  0
   11.2343   -1.4137   -2.2514 N   0  0  0  0  0  0  0  0  0  0  0  0
   12.6088   -1.5265   -2.7611 C   0  0  0  0  0  0  0  0  0  0  0  0
   12.8562   -1.2516   -4.2613 C   0  0  1  0  0  0  0  0  0  0  0  0
   12.1734   -2.2380   -5.2402 C   0  0  0  0  0  0  0  0  0  0  0  0
   10.7358   -1.8451   -5.6168 C   0  0  0  0  0  0  0  0  0  0  0  0
   10.6607   -0.3747   -6.0499 C   0  0  0  0  0  0  0  0  0  0  0  0
   11.2299    0.5483   -5.0726 N   0  0  0  0  0  0  0  0  0  0  0  0
   12.6013    0.2092   -4.7156 C   0  0  0  0  0  0  0  0  0  0  0  0
   10.4532   -2.6005   -2.1766 C   0  0  0  0  0  0  0  0  0  0  0  0
   10.9174   -3.6743   -2.5431 O   0  0  0  0  0  0  0  0  0  0  0  0
    9.1145   -2.4053   -1.6559 C   0  0  0  0  0  0  0  0  0  0  0  0
    4.3693   -0.9589    0.3121 C   0  0  0  0  0  0  0  0  0  0  0  0
    3.0773   -0.7897    0.7967 C   0  0  0  0  0  0  0  0  0  0  0  0
    0.9862    1.6763    2.0037 H   0  0  0  0  0  0  0  0  0  0  0  0
    0.9885   -0.0226    2.5386 H   0  0  0  0  0  0  0  0  0  0  0  0
    0.4413    0.3877    0.9046 H   0  0  0  0  0  0  0  0  0  0  0  0
    3.1115    2.5711    1.3100 H   0  0  0  0  0  0  0  0  0  0  0  0
    5.4081    2.2791    0.4498 H   0  0  0  0  0  0  0  0  0  0  0  0
    7.1596    0.9755   -0.3712 H   0  0  0  0  0  0  0  0  0  0  0  0
    6.7136   -2.0519   -0.7110 H   0  0  0  0  0  0  0  0  0  0  0  0
    9.1869    0.9397   -0.9753 H   0  0  0  0  0  0  0  0  0  0  0  0
   11.4631    0.6205   -1.8553 H   0  0  0  0  0  0  0  0  0  0  0  0
   12.9274   -2.5527   -2.5344 H   0  0  0  0  0  0  0  0  0  0  0  0
   13.2314   -0.8354   -2.1699 H   0  0  0  0  0  0  0  0  0  0  0  0
   13.9465   -1.4153   -4.3501 H   0  0  0  0  0  0  0  0  0  0  0  0
   12.1932   -3.2561   -4.8235 H   0  0  0  0  0  0  0  0  0  0  0  0
   12.7765   -2.2554   -6.1665 H   0  0  0  0  0  0  0  0  0  0  0  0
   10.0556   -2.0080   -4.7648 H   0  0  0  0  0  0  0  0  0  0  0  0
   10.3723   -2.5009   -6.4268 H   0  0  0  0  0  0  0  0  0  0  0  0
    9.6187   -0.0774   -6.2538 H   0  0  0  0  0  0  0  0  0  0  0  0
   11.2133   -0.2434   -7.0002 H   0  0  0  0  0  0  0  0  0  0  0  0
   10.6352    0.5900   -4.2466 H   0  0  0  0  0  0  0  0  0  0  0  0
   12.9609    0.9203   -3.9509 H   0  0  0  0  0  0  0  0  0  0  0  0
   13.2257    0.3909   -5.6104 H   0  0  0  0  0  0  0  0  0  0  0  0
    8.5041   -3.3091   -1.6083 H   0  0  0  0  0  0  0  0  0  0  0  0
    4.7040   -1.9618    0.0387 H   0  0  0  0  0  0  0  0  0  0  0  0
    2.4249   -1.6627    0.8933 H   0  0  0  0  0  0  0  0  0  0  0  0
  1  2  1  0
  1 24  1  0
  1 25  1  0
  1 26  1  0
  2  3  2  0
  2 23  1  0
  3  4  1  0
  3 27  1  0
  4  5  2  0
  4 28  1  0
  5  6  1  0
  5 22  1  0
  6  7  2  0
  6 29  1  0
  7  8  1  0
  7 30  1  0
  8  9  1  0
  8 21  2  0
  9 10  2  0
  9 31  1  0
 10 11  1  0
 10 32  1  0
 11 12  1  0
 11 19  1  0
 12 13  1  0
 12 33  1  0
 12 34  1  0
 13 14  1  0
 13 18  1  0
 13 35  1  1
 14 15  1  0
 14 36  1  0
 14 37  1  0
 15 16  1  0
 15 38  1  0
 15 39  1  0
 16 17  1  0
 16 40  1  0
 16 41  1  0
 17 18  1  0
 17 42  1  0
 18 43  1  0
 18 44  1  0
 19 20  2  0
 19 21  1  0
 21 45  1  0
 22 23  2  0
 22 46  1  0
 23 47  1  0
M  END

