
     RDKit          3D

 36 36  0  0  0  0  0  0  0  0999 V2000
    0.8330    1.4032    1.0452 C   0  0  0  0  0  0  0  0  0  0  0  0
    1.9932    0.7731    0.5759 O   0  0  0  0  0  0  0  0  0  0  0  0
    2.6925    0.0493    1.5592 C   0  0  0  0  0  0  0  0  0  0  0  0
    3.9602   -0.5578    0.9381 C   0  0  1  0  0  0  0  0  0  0  0  0
    4.8967    0.5652    0.4938 C   0  0  0  0  0  0  0  0  0  0  0  0
    4.5398   -1.4969    1.9150 N   0  0  0  0  0  0  0  0  0  0  0  0
    3.9218   -2.8234    1.9125 C   0  0  0  0  0  0  0  0  0  0  0  0
    4.5566   -3.7730    0.8796 C   0  0  0  0  0  0  0  0  0  0  0  0
    6.0087   -3.9124    1.0369 N   0  0  0  0  0  0  0  0  0  0  0  0
    6.4604   -4.8047    2.1102 C   0  0  1  0  0  0  0  0  0  0  0  0
    5.8437   -6.2130    2.0253 C   0  0  0  0  0  0  0  0  0  0  0  0
    7.9333   -4.9390    2.0489 C   0  0  0  0  0  0  0  0  0  0  0  0
    9.0843   -5.0676    2.0289 N   0  0  0  0  0  0  0  0  0  0  0  0
    6.6286   -2.5792    1.0346 C   0  0  0  0  0  0  0  0  0  0  0  0
    5.9902   -1.6176    2.0533 C   0  0  0  0  0  0  0  0  0  0  0  0
    0.3679    1.9308    0.1994 H   0  0  0  0  0  0  0  0  0  0  0  0
    1.0534    2.1415    1.8433 H   0  0  0  0  0  0  0  0  0  0  0  0
    0.1001    0.6761    1.4520 H   0  0  0  0  0  0  0  0  0  0  0  0
    2.0492   -0.7508    1.9788 H   0  0  0  0  0  0  0  0  0  0  0  0
    2.9850    0.7014    2.4090 H   0  0  0  0  0  0  0  0  0  0  0  0
    3.6331   -1.0883    0.0184 H   0  0  0  0  0  0  0  0  0  0  0  0
    5.2728    1.1407    1.3554 H   0  0  0  0  0  0  0  0  0  0  0  0
    4.3280    1.2536   -0.1465 H   0  0  0  0  0  0  0  0  0  0  0  0
    5.7577    0.1962   -0.0829 H   0  0  0  0  0  0  0  0  0  0  0  0
    2.8419   -2.7315    1.7184 H   0  0  0  0  0  0  0  0  0  0  0  0
    4.0144   -3.2603    2.9254 H   0  0  0  0  0  0  0  0  0  0  0  0
    4.3811   -3.3712   -0.1342 H   0  0  0  0  0  0  0  0  0  0  0  0
    4.0714   -4.7589    0.9052 H   0  0  0  0  0  0  0  0  0  0  0  0
    6.2488   -4.4104    3.1304 H   0  0  0  0  0  0  0  0  0  0  0  0
    5.9686   -6.6193    1.0106 H   0  0  0  0  0  0  0  0  0  0  0  0
    4.7742   -6.1962    2.2756 H   0  0  0  0  0  0  0  0  0  0  0  0
    6.3425   -6.8836    2.7394 H   0  0  0  0  0  0  0  0  0  0  0  0
    6.5155   -2.1663    0.0165 H   0  0  0  0  0  0  0  0  0  0  0  0
    7.7102   -2.6769    1.2169 H   0  0  0  0  0  0  0  0  0  0  0  0
    6.4662   -0.6304    1.9923 H   0  0  0  0  0  0  0  0  0  0  0  0
    6.1985   -1.9851    3.0763 H   0  0  0  0  0  0  0  0  0  0  0  0
  1  2  1  0
  1 16  1  0
  1 17  1  0
  1 18  1  0
  2  3  1  0
  3  4  1  0
  3 19  1  0
  3 20  1  0
  4  5  1  0
  4  6  1  0
  4 21  1  6
  5 22  1  0
  5 23  1  0
  5 24  1  0
  6  7  1  0
  6 15  1  0
  7  8  1  0
  7 25  1  0
  7 26  1  0
  8  9  1  0
  8 27  1  0
  8 28  1  0
  9 10  1  0
  9 14  1  0
 10 11  1  0
 10 12  1  0
 10 29  1  1
 11 30  1  0
 11 31  1  0
 11 32  1  0
 12 13  3  0
 14 15  1  0
 14 33  1  0
 14 34  1  0
 15 35  1  0
 15 36  1  0
M  END

