
     RDKit          3D

 42 45  0  0  0  0  0  0  0  0999 V2000
    1.1968   -0.0328    0.4787 C   0  0  0  0  0  0  0  0  0  0  0  0
    2.6872   -0.0483    0.3717 C   0  0  0  0  0  0  0  0  0  0  0  0
    3.4115   -1.1928    0.2929 N   0  0  0  0  0  0  0  0  0  0  0  0
    4.6721   -0.7742    0.2141 C   0  0  0  0  0  0  0  0  0  0  0  0
    5.9253   -1.4567    0.1086 C   0  0  0  0  0  0  0  0  0  0  0  0
    6.0036   -2.9397    0.0699 C   0  0  0  0  0  0  0  0  0  0  0  0
    5.0165   -3.7482    0.6668 C   0  0  0  0  0  0  0  0  0  0  0  0
    5.1355   -5.1389    0.6476 C   0  0  0  0  0  0  0  0  0  0  0  0
    6.2226   -5.7619    0.0311 C   0  0  0  0  0  0  0  0  0  0  0  0
    7.1935   -4.9611   -0.5763 C   0  0  0  0  0  0  0  0  0  0  0  0
    8.5559   -5.7111   -1.3800 Cl  0  0  0  0  0  0  0  0  0  0  0  0
    7.0917   -3.5705   -0.5646 C   0  0  0  0  0  0  0  0  0  0  0  0
    7.0598   -0.6562    0.0566 C   0  0  0  0  0  0  0  0  0  0  0  0
    7.0090    0.7672    0.0843 C   0  0  0  0  0  0  0  0  0  0  0  0
    8.2098    1.6776    0.0458 C   0  0  0  0  0  0  0  0  0  0  0  0
    8.1208    2.8462    0.3935 O   0  0  0  0  0  0  0  0  0  0  0  0
    9.3654    1.1042   -0.4166 N   0  0  0  0  0  0  0  0  0  0  0  0
   10.6414    1.6909   -0.5483 C   0  0  0  0  0  0  0  0  0  0  0  0
   10.9595    3.0107   -0.1728 C   0  0  0  0  0  0  0  0  0  0  0  0
   12.2602    3.4613   -0.3473 C   0  0  0  0  0  0  0  0  0  0  0  0
   13.2310    2.5949   -0.9001 C   0  0  0  0  0  0  0  0  0  0  0  0
   14.5433    2.9802   -1.0557 N   0  0  0  0  0  0  0  0  0  0  0  0
   12.9219    1.3433   -1.2634 N   0  0  0  0  0  0  0  0  0  0  0  0
   11.6773    0.9138   -1.0869 C   0  0  0  0  0  0  0  0  0  0  0  0
    5.7853    1.3920    0.1957 C   0  0  0  0  0  0  0  0  0  0  0  0
    4.6702    0.6231    0.2509 N   0  0  0  0  0  0  0  0  0  0  0  0
    3.4046    1.0762    0.3482 N   0  0  0  0  0  0  0  0  0  0  0  0
    0.8118   -1.0595    0.4407 H   0  0  0  0  0  0  0  0  0  0  0  0
    0.7529    0.5506   -0.3428 H   0  0  0  0  0  0  0  0  0  0  0  0
    0.8776    0.4362    1.4227 H   0  0  0  0  0  0  0  0  0  0  0  0
    4.1508   -3.2796    1.1317 H   0  0  0  0  0  0  0  0  0  0  0  0
    4.3640   -5.7515    1.1206 H   0  0  0  0  0  0  0  0  0  0  0  0
    6.3182   -6.8485    0.0089 H   0  0  0  0  0  0  0  0  0  0  0  0
    7.8569   -2.9883   -1.0782 H   0  0  0  0  0  0  0  0  0  0  0  0
    8.0317   -1.1521    0.0485 H   0  0  0  0  0  0  0  0  0  0  0  0
    9.2969    0.1600   -0.7756 H   0  0  0  0  0  0  0  0  0  0  0  0
   10.1875    3.6545    0.2432 H   0  0  0  0  0  0  0  0  0  0  0  0
   12.5296    4.4794   -0.0560 H   0  0  0  0  0  0  0  0  0  0  0  0
   14.7563    3.9679   -1.1006 H   0  0  0  0  0  0  0  0  0  0  0  0
   15.1079    2.3746   -1.6399 H   0  0  0  0  0  0  0  0  0  0  0  0
   11.4726   -0.1216   -1.3966 H   0  0  0  0  0  0  0  0  0  0  0  0
    5.6610    2.4728    0.2508 H   0  0  0  0  0  0  0  0  0  0  0  0
  1  2  1  0
  1 28  1  0
  1 29  1  0
  1 30  1  0
  2  3  1  0
  2 27  2  0
  3  4  2  0
  4  5  1  0
  4 26  1  0
  5  6  1  0
  5 13  2  0
  6  7  2  0
  6 12  1  0
  7  8  1  0
  7 31  1  0
  8  9  2  0
  8 32  1  0
  9 10  1  0
  9 33  1  0
 10 11  1  0
 10 12  2  0
 12 34  1  0
 13 14  1  0
 13 35  1  0
 14 15  1  0
 14 25  2  0
 15 16  2  0
 15 17  1  0
 17 18  1  0
 17 36  1  0
 18 19  2  0
 18 24  1  0
 19 20  1  0
 19 37  1  0
 20 21  2  0
 20 38  1  0
 21 22  1  0
 21 23  1  0
 22 39  1  0
 22 40  1  0
 23 24  2  0
 24 41  1  0
 25 26  1  0
 25 42  1  0
 26 27  1  0
M  END

