
     RDKit          3D

 39 41  0  0  0  0  0  0  0  0999 V2000
    1.8911    0.7204   -1.7656 N   0  0  0  0  0  0  0  0  0  0  0  0
    1.6360   -0.2181   -0.6668 C   0  0  1  0  0  0  0  0  0  0  0  0
    2.7768   -1.2298   -0.4274 C   0  0  0  0  0  0  0  0  0  0  0  0
    2.4607   -2.3130    0.6072 C   0  0  0  0  0  0  0  0  0  0  0  0
    3.4453   -3.3751    0.6399 N   0  0  0  0  0  0  0  0  0  0  0  0
    3.0759   -4.5759    1.4196 C   0  0  0  0  0  0  0  0  0  0  0  0
    4.4005   -4.9621    2.1075 C   0  0  2  0  0  0  0  0  0  0  0  0
    4.6550   -3.9557    3.2561 C   0  0  0  0  0  0  0  0  0  0  0  0
    4.9456   -2.6229    2.4949 C   0  0  0  0  0  0  0  0  0  0  0  0
    4.8373   -3.0648    1.0115 C   0  0  1  0  0  0  0  0  0  0  0  0
    5.4254   -4.4839    1.0582 C   0  0  0  0  0  0  0  0  0  0  0  0
    1.2559    0.5860    0.5731 C   0  0  0  0  0  0  0  0  0  0  0  0
   -0.0920    0.7305    0.9289 C   0  0  0  0  0  0  0  0  0  0  0  0
   -0.4335    1.5060    2.0348 C   0  0  0  0  0  0  0  0  0  0  0  0
   -1.7254    1.6317    2.3660 F   0  0  0  0  0  0  0  0  0  0  0  0
    0.5207    2.1575    2.8120 C   0  0  0  0  0  0  0  0  0  0  0  0
    1.8532    2.0025    2.4374 C   0  0  0  0  0  0  0  0  0  0  0  0
    2.7997    2.6142    3.1632 F   0  0  0  0  0  0  0  0  0  0  0  0
    2.2366    1.2324    1.3424 C   0  0  0  0  0  0  0  0  0  0  0  0
    2.1613    0.2055   -2.6052 H   0  0  0  0  0  0  0  0  0  0  0  0
    2.6810    1.3253   -1.5346 H   0  0  0  0  0  0  0  0  0  0  0  0
    0.7417   -0.7985   -0.9545 H   0  0  0  0  0  0  0  0  0  0  0  0
    3.6955   -0.6835   -0.1505 H   0  0  0  0  0  0  0  0  0  0  0  0
    2.9975   -1.7294   -1.3869 H   0  0  0  0  0  0  0  0  0  0  0  0
    1.4931   -2.7744    0.3397 H   0  0  0  0  0  0  0  0  0  0  0  0
    2.2993   -1.8404    1.6037 H   0  0  0  0  0  0  0  0  0  0  0  0
    2.6892   -5.3778    0.7621 H   0  0  0  0  0  0  0  0  0  0  0  0
    2.2897   -4.3637    2.1710 H   0  0  0  0  0  0  0  0  0  0  0  0
    4.4550   -6.0180    2.4095 H   0  0  0  0  0  0  0  0  0  0  0  0
    5.5205   -4.2694    3.8611 H   0  0  0  0  0  0  0  0  0  0  0  0
    3.7920   -3.8808    3.9365 H   0  0  0  0  0  0  0  0  0  0  0  0
    5.9507   -2.2304    2.7195 H   0  0  0  0  0  0  0  0  0  0  0  0
    4.2291   -1.8249    2.7424 H   0  0  0  0  0  0  0  0  0  0  0  0
    5.3025   -2.3742    0.2933 H   0  0  0  0  0  0  0  0  0  0  0  0
    6.4654   -4.5170    1.4188 H   0  0  0  0  0  0  0  0  0  0  0  0
    5.3512   -5.0011    0.0902 H   0  0  0  0  0  0  0  0  0  0  0  0
   -0.8850    0.2525    0.3512 H   0  0  0  0  0  0  0  0  0  0  0  0
    0.2380    2.7600    3.6754 H   0  0  0  0  0  0  0  0  0  0  0  0
    3.3005    1.1493    1.1144 H   0  0  0  0  0  0  0  0  0  0  0  0
  1  2  1  0
  1 20  1  0
  1 21  1  0
  2  3  1  0
  2 12  1  0
  2 22  1  6
  3  4  1  0
  3 23  1  0
  3 24  1  0
  4  5  1  0
  4 25  1  0
  4 26  1  0
  5  6  1  0
  5 10  1  0
  6  7  1  0
  6 27  1  0
  6 28  1  0
  7  8  1  0
  7 11  1  0
  7 29  1  1
  8  9  1  0
  8 30  1  0
  8 31  1  0
  9 10  1  0
  9 32  1  0
  9 33  1  0
 10 11  1  0
 10 34  1  6
 11 35  1  0
 11 36  1  0
 12 13  2  0
 12 19  1  0
 13 14  1  0
 13 37  1  0
 14 15  1  0
 14 16  2  0
 16 17  1  0
 16 38  1  0
 17 18  1  0
 17 19  2  0
 19 39  1  0
M  END

