
     RDKit          3D

 82 87  0  0  0  0  0  0  0  0999 V2000
    5.1143   -3.3450    1.4237 C   0  0  0  0  0  0  0  0  0  0  0  0
    4.5354   -2.0953    1.1197 O   0  0  0  0  0  0  0  0  0  0  0  0
    5.1208   -0.9623    1.5757 C   0  0  0  0  0  0  0  0  0  0  0  0
    6.2903   -0.9228    2.3496 C   0  0  0  0  0  0  0  0  0  0  0  0
    6.8017    0.3096    2.7632 C   0  0  0  0  0  0  0  0  0  0  0  0
    6.1827    1.5281    2.4303 C   0  0  0  0  0  0  0  0  0  0  0  0
    6.7750    2.7787    2.8984 C   0  0  0  0  0  0  0  0  0  0  0  0
    6.3317    4.0377    2.6846 C   0  0  0  0  0  0  0  0  0  0  0  0
    7.0090    5.2296    3.2047 C   0  0  0  0  0  0  0  0  0  0  0  0
    6.4972    6.5112    2.9469 C   0  0  0  0  0  0  0  0  0  0  0  0
    7.1884    7.6191    3.4701 C   0  0  0  0  0  0  0  0  0  0  0  0
    6.6922    8.9781    3.2265 C   0  0  0  0  0  0  0  0  0  0  0  0
    7.2979   10.0925    3.6930 C   0  0  0  0  0  0  0  0  0  0  0  0
    6.8847   11.4815    3.5062 C   0  0  0  0  0  0  0  0  0  0  0  0
    5.7358   11.8675    2.7753 C   0  0  0  0  0  0  0  0  0  0  0  0
    5.3875   13.2003    2.6279 C   0  0  0  0  0  0  0  0  0  0  0  0
    6.1763   14.2146    3.2077 C   0  0  0  0  0  0  0  0  0  0  0  0
    5.7536   15.4855    3.0074 O   0  0  0  0  0  0  0  0  0  0  0  0
    6.4904   16.5554    3.5569 C   0  0  0  0  0  0  0  0  0  0  0  0
    7.3203   13.8584    3.9374 C   0  0  0  0  0  0  0  0  0  0  0  0
    7.6569   12.5097    4.0762 C   0  0  0  0  0  0  0  0  0  0  0  0
    8.3041    7.4441    4.1943 N   0  0  0  0  0  0  0  0  0  0  0  0
    8.7288    6.1868    4.3970 C   0  0  0  0  0  0  0  0  0  0  0  0
    9.9490    5.9682    5.1872 C   0  0  0  0  0  0  0  0  0  0  0  0
   10.6885    6.9565    5.7352 C   0  0  0  0  0  0  0  0  0  0  0  0
   11.9064    6.8158    6.5312 C   0  0  0  0  0  0  0  0  0  0  0  0
   12.4819    5.5708    6.8679 C   0  0  0  0  0  0  0  0  0  0  0  0
   13.6388    5.4870    7.6315 C   0  0  0  0  0  0  0  0  0  0  0  0
   14.2899    6.6521    8.0902 C   0  0  0  0  0  0  0  0  0  0  0  0
   15.4704    6.5654    8.8645 N   0  0  0  0  0  0  0  0  0  0  0  0
   16.4484    5.5770    8.5701 C   0  0  0  0  0  0  0  0  0  0  0  0
   16.8202    5.3097    7.2397 C   0  0  0  0  0  0  0  0  0  0  0  0
   17.7774    4.3340    6.9568 C   0  0  0  0  0  0  0  0  0  0  0  0
   18.3932    3.6205    7.9902 C   0  0  0  0  0  0  0  0  0  0  0  0
   18.0333    3.8896    9.3147 C   0  0  0  0  0  0  0  0  0  0  0  0
   17.0651    4.8518    9.6060 C   0  0  0  0  0  0  0  0  0  0  0  0
   15.6907    7.4709    9.9379 C   0  0  0  0  0  0  0  0  0  0  0  0
   14.6535    7.7847   10.8354 C   0  0  0  0  0  0  0  0  0  0  0  0
   14.8745    8.6775   11.8851 C   0  0  0  0  0  0  0  0  0  0  0  0
   16.1326    9.2598   12.0712 C   0  0  0  0  0  0  0  0  0  0  0  0
   17.1689    8.9436   11.1869 C   0  0  0  0  0  0  0  0  0  0  0  0
   16.9523    8.0645   10.1244 C   0  0  0  0  0  0  0  0  0  0  0  0
   13.7293    7.8996    7.7583 C   0  0  0  0  0  0  0  0  0  0  0  0
   12.5622    7.9713    7.0032 C   0  0  0  0  0  0  0  0  0  0  0  0
    8.1291    5.0793    3.9332 N   0  0  0  0  0  0  0  0  0  0  0  0
    5.0047    1.4606    1.6488 C   0  0  0  0  0  0  0  0  0  0  0  0
    4.4839    0.2469    1.2302 C   0  0  0  0  0  0  0  0  0  0  0  0
    4.4767   -4.1071    0.9560 H   0  0  0  0  0  0  0  0  0  0  0  0
    5.1497   -3.5272    2.5129 H   0  0  0  0  0  0  0  0  0  0  0  0
    6.1371   -3.4342    1.0153 H   0  0  0  0  0  0  0  0  0  0  0  0
    6.8084   -1.8385    2.6345 H   0  0  0  0  0  0  0  0  0  0  0  0
    7.7138    0.3279    3.3660 H   0  0  0  0  0  0  0  0  0  0  0  0
    7.6886    2.6867    3.4947 H   0  0  0  0  0  0  0  0  0  0  0  0
    5.4263    4.2251    2.0998 H   0  0  0  0  0  0  0  0  0  0  0  0
    5.5882    6.6451    2.3568 H   0  0  0  0  0  0  0  0  0  0  0  0
    5.7781    9.0449    2.6293 H   0  0  0  0  0  0  0  0  0  0  0  0
    8.2075    9.9371    4.2818 H   0  0  0  0  0  0  0  0  0  0  0  0
    5.1034   11.1061    2.3138 H   0  0  0  0  0  0  0  0  0  0  0  0
    4.5006   13.4964    2.0638 H   0  0  0  0  0  0  0  0  0  0  0  0
    5.9666   17.4766    3.2685 H   0  0  0  0  0  0  0  0  0  0  0  0
    7.5211   16.5909    3.1604 H   0  0  0  0  0  0  0  0  0  0  0  0
    6.5357   16.4994    4.6595 H   0  0  0  0  0  0  0  0  0  0  0  0
    7.9527   14.6167    4.3994 H   0  0  0  0  0  0  0  0  0  0  0  0
    8.5510   12.2446    4.6473 H   0  0  0  0  0  0  0  0  0  0  0  0
   10.2182    4.9154    5.2984 H   0  0  0  0  0  0  0  0  0  0  0  0
   10.3409    7.9805    5.5660 H   0  0  0  0  0  0  0  0  0  0  0  0
   12.0038    4.6460    6.5381 H   0  0  0  0  0  0  0  0  0  0  0  0
   14.0497    4.5085    7.8863 H   0  0  0  0  0  0  0  0  0  0  0  0
   16.3539    5.8724    6.4288 H   0  0  0  0  0  0  0  0  0  0  0  0
   18.0536    4.1403    5.9169 H   0  0  0  0  0  0  0  0  0  0  0  0
   19.1468    2.8620    7.7655 H   0  0  0  0  0  0  0  0  0  0  0  0
   18.5013    3.3357   10.1329 H   0  0  0  0  0  0  0  0  0  0  0  0
   16.7796    5.0477   10.6412 H   0  0  0  0  0  0  0  0  0  0  0  0
   13.6729    7.3233   10.7043 H   0  0  0  0  0  0  0  0  0  0  0  0
   14.0566    8.9087   12.5727 H   0  0  0  0  0  0  0  0  0  0  0  0
   16.3038    9.9531   12.8980 H   0  0  0  0  0  0  0  0  0  0  0  0
   18.1560    9.3955   11.3157 H   0  0  0  0  0  0  0  0  0  0  0  0
   17.7622    7.8317    9.4305 H   0  0  0  0  0  0  0  0  0  0  0  0
   14.2167    8.8162    8.0947 H   0  0  0  0  0  0  0  0  0  0  0  0
   12.1486    8.9529    6.7556 H   0  0  0  0  0  0  0  0  0  0  0  0
    4.4875    2.3795    1.3640 H   0  0  0  0  0  0  0  0  0  0  0  0
    3.5749    0.1966    0.6272 H   0  0  0  0  0  0  0  0  0  0  0  0
  1  2  1  0
  1 48  1  0
  1 49  1  0
  1 50  1  0
  2  3  1  0
  3  4  2  0
  3 47  1  0
  4  5  1  0
  4 51  1  0
  5  6  2  0
  5 52  1  0
  6  7  1  0
  6 46  1  0
  7  8  2  0
  7 53  1  0
  8  9  1  0
  8 54  1  0
  9 10  2  0
  9 45  1  0
 10 11  1  0
 10 55  1  0
 11 12  1  0
 11 22  2  0
 12 13  2  0
 12 56  1  0
 13 14  1  0
 13 57  1  0
 14 15  2  0
 14 21  1  0
 15 16  1  0
 15 58  1  0
 16 17  2  0
 16 59  1  0
 17 18  1  0
 17 20  1  0
 18 19  1  0
 19 60  1  0
 19 61  1  0
 19 62  1  0
 20 21  2  0
 20 63  1  0
 21 64  1  0
 22 23  1  0
 23 24  1  0
 23 45  2  0
 24 25  2  0
 24 65  1  0
 25 26  1  0
 25 66  1  0
 26 27  2  0
 26 44  1  0
 27 28  1  0
 27 67  1  0
 28 29  2  0
 28 68  1  0
 29 30  1  0
 29 43  1  0
 30 31  1  0
 30 37  1  0
 31 32  2  0
 31 36  1  0
 32 33  1  0
 32 69  1  0
 33 34  2  0
 33 70  1  0
 34 35  1  0
 34 71  1  0
 35 36  2  0
 35 72  1  0
 36 73  1  0
 37 38  2  0
 37 42  1  0
 38 39  1  0
 38 74  1  0
 39 40  2  0
 39 75  1  0
 40 41  1  0
 40 76  1  0
 41 42  2  0
 41 77  1  0
 42 78  1  0
 43 44  2  0
 43 79  1  0
 44 80  1  0
 46 47  2  0
 46 81  1  0
 47 82  1  0
M  END

