
     RDKit          3D

 86 95  0  0  0  0  0  0  0  0999 V2000
   -0.1087   -1.4805   -0.3628 C   0  0  0  0  0  0  0  0  0  0  0  0
    1.3509   -1.1050   -0.6775 C   0  0  1  0  0  0  0  0  0  0  0  0
    2.1594   -2.3569   -1.0643 C   0  0  0  0  0  0  0  0  0  0  0  0
    1.3938   -0.0764   -1.8171 C   0  0  0  0  0  0  0  0  0  0  0  0
    1.9677   -0.4498    0.5011 N   0  0  0  0  0  0  0  0  0  0  0  0
    2.1328   -1.0064    1.7252 C   0  0  0  0  0  0  0  0  0  0  0  0
    1.7854   -2.1374    2.0326 O   0  0  0  0  0  0  0  0  0  0  0  0
    6.1376    1.8846    3.6574 C   0  0  0  0  0  0  0  0  0  0  0  0
    6.1545    3.0064    4.4863 C   0  0  0  0  0  0  0  0  0  0  0  0
    6.4675    2.8218    5.8392 C   0  0  0  0  0  0  0  0  0  0  0  0
    6.6041    1.5423    6.4184 C   0  0  0  0  0  0  0  0  0  0  0  0
    6.4546    1.4687    7.9258 C   0  0  0  0  0  0  0  0  0  0  0  0
    5.6069    0.7587    8.4452 O   0  0  0  0  0  0  0  0  0  0  0  0
    7.2869    2.2991    8.6206 N   0  0  0  0  0  0  0  0  0  0  0  0
    7.2373    2.5634   10.0784 C   0  0  1  0  0  0  0  0  0  0  0  0
    7.5237    1.2723   10.8659 C   0  0  0  0  0  0  0  0  0  0  0  0
    8.3274    3.6061   10.3673 C   0  0  0  0  0  0  0  0  0  0  0  0
    5.8565    3.1289   10.4603 C   0  0  0  0  0  0  0  0  0  0  0  0
    6.6183    0.3987    5.5745 C   0  0  0  0  0  0  0  0  0  0  0  0
    6.5709    0.6586    4.1921 C   0  0  0  0  0  0  0  0  0  0  0  0
    6.3342   -0.4569    3.2404 C   0  0  2  0  0  0  0  0  0  0  0  0
    7.1696   -1.1021    2.1426 C   0  0  0  0  0  0  0  0  0  0  0  0
    8.2582   -1.9148    1.8522 C   0  0  0  0  0  0  0  0  0  0  0  0
    8.4717   -2.2068    0.4942 C   0  0  0  0  0  0  0  0  0  0  0  0
    7.6146   -1.7056   -0.4995 C   0  0  0  0  0  0  0  0  0  0  0  0
    7.9432   -2.1098   -2.1728 Cl  0  0  0  0  0  0  0  0  0  0  0  0
    6.5048   -0.8923   -0.2073 C   0  0  0  0  0  0  0  0  0  0  0  0
    6.3186   -0.6088    1.1394 C   0  0  0  0  0  0  0  0  0  0  0  0
    5.4291    0.1305    2.1400 C   0  0  2  0  0  0  0  0  0  0  0  0
    5.4069    1.6685    2.2987 C   0  0  1  0  0  0  0  0  0  0  0  0
    3.9597    2.1359    2.3272 C   0  0  0  0  0  0  0  0  0  0  0  0
    3.7474    3.8674    2.0746 Cl  0  0  0  0  0  0  0  0  0  0  0  0
    2.8668    1.3701    2.5175 C   0  0  0  0  0  0  0  0  0  0  0  0
    2.8703   -0.1300    2.7778 C   0  0  2  0  0  0  0  0  0  0  0  0
    4.2927   -0.5642    2.9129 C   0  0  0  0  0  0  0  0  0  0  0  0
    5.1153   -1.1195    3.8440 C   0  0  0  0  0  0  0  0  0  0  0  0
    5.3051   -1.6712    5.1929 C   0  0  0  0  0  0  0  0  0  0  0  0
    4.6486   -2.8621    5.6679 C   0  0  0  0  0  0  0  0  0  0  0  0
    3.5711   -3.4411    4.9464 C   0  0  0  0  0  0  0  0  0  0  0  0
    2.9009   -4.5494    5.4280 C   0  0  0  0  0  0  0  0  0  0  0  0
    3.3092   -5.1193    6.6497 C   0  0  0  0  0  0  0  0  0  0  0  0
    2.4568   -6.5170    7.2657 Cl  0  0  0  0  0  0  0  0  0  0  0  0
    4.3717   -4.5957    7.3660 C   0  0  0  0  0  0  0  0  0  0  0  0
    5.0719   -3.4612    6.8923 C   0  0  0  0  0  0  0  0  0  0  0  0
    6.2298   -2.9122    7.5860 C   0  0  0  0  0  0  0  0  0  0  0  0
    6.8125   -3.5710    8.6950 C   0  0  0  0  0  0  0  0  0  0  0  0
    7.9495   -3.0698    9.3022 C   0  0  0  0  0  0  0  0  0  0  0  0
    8.6565   -3.9156   10.6606 Cl  0  0  0  0  0  0  0  0  0  0  0  0
    8.5625   -1.8933    8.8307 C   0  0  0  0  0  0  0  0  0  0  0  0
    7.9931   -1.2248    7.7651 C   0  0  0  0  0  0  0  0  0  0  0  0
    6.8195   -1.6954    7.1225 C   0  0  0  0  0  0  0  0  0  0  0  0
    6.2775   -1.0185    5.9702 C   0  0  0  0  0  0  0  0  0  0  0  0
   -0.5778   -1.9492   -1.2421 H   0  0  0  0  0  0  0  0  0  0  0  0
   -0.6925   -0.5844   -0.0984 H   0  0  0  0  0  0  0  0  0  0  0  0
   -0.1526   -2.1869    0.4769 H   0  0  0  0  0  0  0  0  0  0  0  0
    1.7192   -2.8340   -1.9540 H   0  0  0  0  0  0  0  0  0  0  0  0
    2.1618   -3.0836   -0.2408 H   0  0  0  0  0  0  0  0  0  0  0  0
    3.2028   -2.0912   -1.2972 H   0  0  0  0  0  0  0  0  0  0  0  0
    0.9453   -0.4993   -2.7281 H   0  0  0  0  0  0  0  0  0  0  0  0
    2.4309    0.2118   -2.0567 H   0  0  0  0  0  0  0  0  0  0  0  0
    0.8299    0.8340   -1.5549 H   0  0  0  0  0  0  0  0  0  0  0  0
    2.3212    0.4930    0.3779 H   0  0  0  0  0  0  0  0  0  0  0  0
    5.8461    3.9895    4.1260 H   0  0  0  0  0  0  0  0  0  0  0  0
    6.4500    3.6911    6.5009 H   0  0  0  0  0  0  0  0  0  0  0  0
    7.9839    2.8020    8.0845 H   0  0  0  0  0  0  0  0  0  0  0  0
    8.5219    0.8785   10.6180 H   0  0  0  0  0  0  0  0  0  0  0  0
    6.7784    0.5022   10.6275 H   0  0  0  0  0  0  0  0  0  0  0  0
    7.4930    1.4730   11.9485 H   0  0  0  0  0  0  0  0  0  0  0  0
    9.3254    3.2264   10.0920 H   0  0  0  0  0  0  0  0  0  0  0  0
    8.3460    3.8503   11.4397 H   0  0  0  0  0  0  0  0  0  0  0  0
    8.1437    4.5412    9.8123 H   0  0  0  0  0  0  0  0  0  0  0  0
    5.0646    2.4063   10.2218 H   0  0  0  0  0  0  0  0  0  0  0  0
    5.6540    4.0646    9.9148 H   0  0  0  0  0  0  0  0  0  0  0  0
    5.8200    3.3462   11.5395 H   0  0  0  0  0  0  0  0  0  0  0  0
    8.9308   -2.3124    2.6156 H   0  0  0  0  0  0  0  0  0  0  0  0
    9.3133   -2.8318    0.1904 H   0  0  0  0  0  0  0  0  0  0  0  0
    5.8622   -0.5217   -1.0077 H   0  0  0  0  0  0  0  0  0  0  0  0
    5.9187    2.1746    1.4637 H   0  0  0  0  0  0  0  0  0  0  0  0
    1.8907    1.8640    2.5170 H   0  0  0  0  0  0  0  0  0  0  0  0
    2.3264   -0.3304    3.7157 H   0  0  0  0  0  0  0  0  0  0  0  0
    3.2431   -3.0010    4.0020 H   0  0  0  0  0  0  0  0  0  0  0  0
    2.0642   -4.9797    4.8760 H   0  0  0  0  0  0  0  0  0  0  0  0
    4.6499   -5.0732    8.3040 H   0  0  0  0  0  0  0  0  0  0  0  0
    6.3893   -4.4990    9.0754 H   0  0  0  0  0  0  0  0  0  0  0  0
    9.4750   -1.5285    9.3044 H   0  0  0  0  0  0  0  0  0  0  0  0
    8.4741   -0.3202    7.3910 H   0  0  0  0  0  0  0  0  0  0  0  0
  1  2  1  0
  1 53  1  0
  1 54  1  0
  1 55  1  0
  2  3  1  0
  2  4  1  0
  2  5  1  1
  3 56  1  0
  3 57  1  0
  3 58  1  0
  4 59  1  0
  4 60  1  0
  4 61  1  0
  5  6  1  0
  5 62  1  0
  6  7  2  0
  6 34  1  0
  8  9  2  0
  8 20  1  0
  8 30  1  0
  9 10  1  0
  9 63  1  0
 10 11  2  0
 10 64  1  0
 11 12  1  0
 11 19  1  0
 12 13  2  0
 12 14  1  0
 15 14  1  6
 14 65  1  0
 15 16  1  0
 15 17  1  0
 15 18  1  0
 16 66  1  0
 16 67  1  0
 16 68  1  0
 17 69  1  0
 17 70  1  0
 17 71  1  0
 18 72  1  0
 18 73  1  0
 18 74  1  0
 19 20  2  0
 19 52  1  0
 20 21  1  0
 21 22  1  6
 21 29  1  0
 21 36  1  0
 22 23  2  0
 22 28  1  0
 23 24  1  0
 23 75  1  0
 24 25  2  0
 24 76  1  0
 25 26  1  0
 25 27  1  0
 27 28  2  0
 27 77  1  0
 29 28  1  6
 29 30  1  0
 29 35  1  0
 30 31  1  0
 30 78  1  6
 31 32  1  0
 31 33  2  0
 33 34  1  0
 33 79  1  0
 34 35  1  0
 34 80  1  1
 35 36  2  0
 36 37  1  0
 37 38  1  0
 37 52  2  0
 38 39  2  0
 38 44  1  0
 39 40  1  0
 39 81  1  0
 40 41  2  0
 40 82  1  0
 41 42  1  0
 41 43  1  0
 43 44  2  0
 43 83  1  0
 44 45  1  0
 45 46  1  0
 45 51  2  0
 46 47  2  0
 46 84  1  0
 47 48  1  0
 47 49  1  0
 49 50  2  0
 49 85  1  0
 50 51  1  0
 50 86  1  0
 51 52  1  0
M  END

