
     RDKit          3D

 42 44  0  0  0  0  0  0  0  0999 V2000
    1.1632    0.8188    0.9041 C   0  0  0  0  0  0  0  0  0  0  0  0
    2.6735    0.9027    0.9781 C   0  0  0  0  0  0  0  0  0  0  0  0
    3.1722   -0.3490    1.4573 O   0  0  0  0  0  0  0  0  0  0  0  0
    4.5303   -0.4655    1.5031 C   0  0  1  0  0  0  0  0  0  0  0  0
    5.1075    0.3026    2.5840 O   0  0  0  0  0  0  0  0  0  0  0  0
    5.7674   -0.5389    3.4100 C   0  0  0  0  0  0  0  0  0  0  0  0
    6.4106   -0.1377    4.5789 C   0  0  0  0  0  0  0  0  0  0  0  0
    7.0019   -1.1385    5.3440 C   0  0  0  0  0  0  0  0  0  0  0  0
    7.0010   -2.5016    4.9696 C   0  0  0  0  0  0  0  0  0  0  0  0
    7.5705   -3.4806    5.9466 C   0  0  0  0  0  0  0  0  0  0  0  0
    6.8619   -4.5851    6.1795 N   0  0  0  0  0  0  0  0  0  0  0  0
    7.3604   -5.4456    7.0676 C   0  0  0  0  0  0  0  0  0  0  0  0
    6.7059   -6.5819    7.3208 O   0  0  0  0  0  0  0  0  0  0  0  0
    5.5357   -6.8715    6.5593 C   0  0  0  0  0  0  0  0  0  0  0  0
    8.5527   -5.2024    7.7606 C   0  0  0  0  0  0  0  0  0  0  0  0
    9.1859   -3.9932    7.4616 C   0  0  0  0  0  0  0  0  0  0  0  0
   10.3251   -3.7039    8.1018 O   0  0  0  0  0  0  0  0  0  0  0  0
   10.9985   -2.4937    7.7761 C   0  0  0  0  0  0  0  0  0  0  0  0
    8.6997   -3.1294    6.5654 N   0  0  0  0  0  0  0  0  0  0  0  0
    6.4255   -2.8901    3.7448 C   0  0  0  0  0  0  0  0  0  0  0  0
    6.6904   -4.2876    3.1939 C   0  0  0  0  0  0  0  0  0  0  0  0
    7.7111   -4.8649    3.4720 O   0  0  0  0  0  0  0  0  0  0  0  0
    5.7838   -4.8322    2.3872 O   0  0  0  0  0  0  0  0  0  0  0  0
    5.7659   -1.8859    2.9941 C   0  0  0  0  0  0  0  0  0  0  0  0
    4.9220   -1.9293    1.8042 C   0  0  0  0  0  0  0  0  0  0  0  0
    4.5117   -2.8782    1.1576 O   0  0  0  0  0  0  0  0  0  0  0  0
    0.7480    1.7693    0.5350 H   0  0  0  0  0  0  0  0  0  0  0  0
    0.7374    0.6164    1.8987 H   0  0  0  0  0  0  0  0  0  0  0  0
    0.8505    0.0117    0.2244 H   0  0  0  0  0  0  0  0  0  0  0  0
    2.9946    1.7118    1.6577 H   0  0  0  0  0  0  0  0  0  0  0  0
    3.1121    1.1082   -0.0182 H   0  0  0  0  0  0  0  0  0  0  0  0
    5.0178   -0.1117    0.5715 H   0  0  0  0  0  0  0  0  0  0  0  0
    6.4209    0.9099    4.8826 H   0  0  0  0  0  0  0  0  0  0  0  0
    7.4936   -0.8796    6.2836 H   0  0  0  0  0  0  0  0  0  0  0  0
    5.1891   -7.8523    6.9097 H   0  0  0  0  0  0  0  0  0  0  0  0
    5.7631   -6.9099    5.4834 H   0  0  0  0  0  0  0  0  0  0  0  0
    4.7552   -6.1132    6.7244 H   0  0  0  0  0  0  0  0  0  0  0  0
    8.9589   -5.9076    8.4838 H   0  0  0  0  0  0  0  0  0  0  0  0
   11.9167   -2.4919    8.3777 H   0  0  0  0  0  0  0  0  0  0  0  0
   10.3849   -1.6140    8.0261 H   0  0  0  0  0  0  0  0  0  0  0  0
   11.2461   -2.4496    6.7046 H   0  0  0  0  0  0  0  0  0  0  0  0
    5.1549   -4.1845    1.9802 H   0  0  0  0  0  0  0  0  0  0  0  0
  1  2  1  0
  1 27  1  0
  1 28  1  0
  1 29  1  0
  2  3  1  0
  2 30  1  0
  2 31  1  0
  3  4  1  0
  4  5  1  0
  4 25  1  0
  4 32  1  6
  5  6  1  0
  6  7  2  0
  6 24  1  0
  7  8  1  0
  7 33  1  0
  8  9  2  0
  8 34  1  0
  9 10  1  0
  9 20  1  0
 10 11  2  0
 10 19  1  0
 11 12  1  0
 12 13  1  0
 12 15  2  0
 13 14  1  0
 14 35  1  0
 14 36  1  0
 14 37  1  0
 15 16  1  0
 15 38  1  0
 16 17  1  0
 16 19  2  0
 17 18  1  0
 18 39  1  0
 18 40  1  0
 18 41  1  0
 20 21  1  0
 20 24  2  0
 21 22  2  0
 21 23  1  0
 23 42  1  0
 24 25  1  0
 25 26  2  0
M  END

