
     RDKit          3D

 28 28  0  0  0  0  0  0  0  0999 V2000
    2.2585    1.1985    0.4184 C   0  0  0  0  0  0  0  0  0  0  0  0
    2.4797   -0.1367    0.0439 O   0  0  0  0  0  0  0  0  0  0  0  0
    2.9659   -0.2977   -1.2611 C   0  0  1  0  0  0  0  0  0  0  0  0
    4.4570    0.0073   -1.5686 C   0  0  0  0  0  0  0  0  0  0  0  0
    4.4781   -1.2760   -2.4385 C   0  0  0  0  0  0  0  0  0  0  0  0
    3.2070   -1.7606   -1.6838 C   0  0  2  0  0  0  0  0  0  0  0  0
    2.1109   -2.6140   -2.3597 C   0  0  1  0  0  0  0  0  0  0  0  0
    2.7290   -3.9657   -2.7669 C   0  0  0  0  0  0  0  0  0  0  0  0
    0.9789   -2.8526   -1.3413 C   0  0  0  0  0  0  0  0  0  0  0  0
    1.5287   -1.9311   -3.6115 C   0  0  0  0  0  0  0  0  0  0  0  0
    1.8686    1.1996    1.4470 H   0  0  0  0  0  0  0  0  0  0  0  0
    1.5171    1.6965   -0.2396 H   0  0  0  0  0  0  0  0  0  0  0  0
    3.1885    1.8005    0.3969 H   0  0  0  0  0  0  0  0  0  0  0  0
    2.3109    0.2349   -1.9808 H   0  0  0  0  0  0  0  0  0  0  0  0
    5.0615   -0.1098   -0.6557 H   0  0  0  0  0  0  0  0  0  0  0  0
    4.7077    0.9644   -2.0508 H   0  0  0  0  0  0  0  0  0  0  0  0
    5.3726   -1.9133   -2.3801 H   0  0  0  0  0  0  0  0  0  0  0  0
    4.2802   -1.0532   -3.4983 H   0  0  0  0  0  0  0  0  0  0  0  0
    3.5341   -2.2891   -0.7711 H   0  0  0  0  0  0  0  0  0  0  0  0
    3.1558   -4.4871   -1.8941 H   0  0  0  0  0  0  0  0  0  0  0  0
    3.5357   -3.8339   -3.5065 H   0  0  0  0  0  0  0  0  0  0  0  0
    1.9704   -4.6286   -3.2150 H   0  0  0  0  0  0  0  0  0  0  0  0
    1.3502   -3.3937   -0.4557 H   0  0  0  0  0  0  0  0  0  0  0  0
    0.1664   -3.4507   -1.7866 H   0  0  0  0  0  0  0  0  0  0  0  0
    0.5527   -1.9016   -0.9862 H   0  0  0  0  0  0  0  0  0  0  0  0
    2.3027   -1.7274   -4.3688 H   0  0  0  0  0  0  0  0  0  0  0  0
    1.0338   -0.9777   -3.3671 H   0  0  0  0  0  0  0  0  0  0  0  0
    0.7722   -2.5789   -4.0836 H   0  0  0  0  0  0  0  0  0  0  0  0
  1  2  1  0
  1 11  1  0
  1 12  1  0
  1 13  1  0
  2  3  1  0
  3  4  1  0
  3  6  1  0
  3 14  1  6
  4  5  1  0
  4 15  1  0
  4 16  1  0
  5  6  1  0
  5 17  1  0
  5 18  1  0
  6  7  1  0
  6 19  1  1
  7  8  1  6
  7  9  1  0
  7 10  1  0
  8 20  1  0
  8 21  1  0
  8 22  1  0
  9 23  1  0
  9 24  1  0
  9 25  1  0
 10 26  1  0
 10 27  1  0
 10 28  1  0
M  END

