
     RDKit          3D

 35 37  0  0  0  0  0  0  0  0999 V2000
    2.0506    0.1300    2.3401 N   0  0  0  0  0  0  0  0  0  0  0  0
    2.9405    0.1539    1.2625 C   0  0  0  0  0  0  0  0  0  0  0  0
    3.3870    1.3675    0.7128 C   0  0  0  0  0  0  0  0  0  0  0  0
    4.3239    1.3736   -0.3235 C   0  0  0  0  0  0  0  0  0  0  0  0
    4.8365    0.1785   -0.8362 C   0  0  0  0  0  0  0  0  0  0  0  0
    5.7676    0.1463   -1.8426 O   0  0  0  0  0  0  0  0  0  0  0  0
    4.3966   -1.0491   -0.3061 C   0  0  0  0  0  0  0  0  0  0  0  0
    4.9675   -2.3560   -0.8334 C   0  0  0  0  0  0  0  0  0  0  0  0
    4.0998   -3.4957   -0.6123 N   0  0  0  0  0  0  0  0  0  0  0  0
    2.9501   -3.5648   -1.4928 C   0  0  0  0  0  0  0  0  0  0  0  0
    2.0310   -4.7531   -1.0674 C   0  0  1  0  0  0  0  0  0  0  0  0
    2.1591   -5.9789   -1.9986 C   0  0  0  0  0  0  0  0  0  0  0  0
    3.3631   -6.7374   -1.3799 C   0  0  0  0  0  0  0  0  0  0  0  0
    3.7066   -5.8754   -0.1386 C   0  0  1  0  0  0  0  0  0  0  0  0
    4.7681   -4.7675   -0.4258 C   0  0  0  0  0  0  0  0  0  0  0  0
    2.4696   -5.2538    0.1913 O   0  0  0  0  0  0  0  0  0  0  0  0
    3.4618   -1.0412    0.7323 C   0  0  0  0  0  0  0  0  0  0  0  0
    1.4412    0.9371    2.4182 H   0  0  0  0  0  0  0  0  0  0  0  0
    1.5399   -0.7388    2.4555 H   0  0  0  0  0  0  0  0  0  0  0  0
    3.0049    2.3162    1.1002 H   0  0  0  0  0  0  0  0  0  0  0  0
    4.6625    2.3284   -0.7401 H   0  0  0  0  0  0  0  0  0  0  0  0
    5.9589    1.0496   -2.1241 H   0  0  0  0  0  0  0  0  0  0  0  0
    5.9227   -2.5517   -0.3135 H   0  0  0  0  0  0  0  0  0  0  0  0
    5.2381   -2.2297   -1.9033 H   0  0  0  0  0  0  0  0  0  0  0  0
    3.2465   -3.6774   -2.5633 H   0  0  0  0  0  0  0  0  0  0  0  0
    2.4022   -2.6123   -1.4221 H   0  0  0  0  0  0  0  0  0  0  0  0
    0.9922   -4.4146   -0.9459 H   0  0  0  0  0  0  0  0  0  0  0  0
    2.3157   -5.6940   -3.0497 H   0  0  0  0  0  0  0  0  0  0  0  0
    1.2444   -6.5878   -1.9496 H   0  0  0  0  0  0  0  0  0  0  0  0
    4.2166   -6.8310   -2.0679 H   0  0  0  0  0  0  0  0  0  0  0  0
    3.0734   -7.7526   -1.0718 H   0  0  0  0  0  0  0  0  0  0  0  0
    4.0157   -6.4825    0.7240 H   0  0  0  0  0  0  0  0  0  0  0  0
    5.3893   -5.0674   -1.3035 H   0  0  0  0  0  0  0  0  0  0  0  0
    5.4588   -4.6725    0.4284 H   0  0  0  0  0  0  0  0  0  0  0  0
    3.1363   -2.0095    1.1226 H   0  0  0  0  0  0  0  0  0  0  0  0
  1  2  1  0
  1 18  1  0
  1 19  1  0
  2  3  2  0
  2 17  1  0
  3  4  1  0
  3 20  1  0
  4  5  2  0
  4 21  1  0
  5  6  1  0
  5  7  1  0
  6 22  1  0
  7  8  1  0
  7 17  2  0
  8  9  1  0
  8 23  1  0
  8 24  1  0
  9 10  1  0
  9 15  1  0
 10 11  1  0
 10 25  1  0
 10 26  1  0
 11 12  1  0
 11 16  1  0
 11 27  1  1
 12 13  1  0
 12 28  1  0
 12 29  1  0
 13 14  1  0
 13 30  1  0
 13 31  1  0
 14 15  1  0
 14 16  1  0
 14 32  1  1
 15 33  1  0
 15 34  1  0
 17 35  1  0
M  END

