
     RDKit          3D

 74 76  0  0  0  0  0  0  0  0999 V2000
    5.8599    3.0752    0.3356 C   0  0  0  0  0  0  0  0  0  0  0  0
    5.7474    1.6105    0.7477 C   0  0  0  0  0  0  0  0  0  0  0  0
    4.1611    1.3286    1.6273 S   0  0  0  0  0  0  0  0  0  0  0  0
    4.3001   -0.4572    1.9932 C   0  0  0  0  0  0  0  0  0  0  0  0
    5.1647   -0.8215    3.1931 C   0  0  1  0  0  0  0  0  0  0  0  0
    4.5774   -0.2837    4.3798 O   0  0  0  0  0  0  0  0  0  0  0  0
    4.8946   -1.0866    5.4854 C   0  0  2  0  0  0  0  0  0  0  0  0
    6.1450   -0.7289    6.1382 N   0  0  0  0  0  0  0  0  0  0  0  0
    7.4604   -0.9541    5.7514 C   0  0  0  0  0  0  0  0  0  0  0  0
    8.3424   -0.4159    6.5555 N   0  0  0  0  0  0  0  0  0  0  0  0
    7.5890    0.1994    7.5340 C   0  0  0  0  0  0  0  0  0  0  0  0
    7.9338    0.9402    8.6907 C   0  0  0  0  0  0  0  0  0  0  0  0
    9.2239    1.1948    9.0391 N   0  0  0  0  0  0  0  0  0  0  0  0
    9.7901    2.1148   10.4671 Si  0  0  1  0  0  4  0  0  0  0  0  0
   11.6699    2.0605   10.3024 C   0  0  0  0  0  0  0  0  0  0  0  0
    9.1667    3.8879   10.3919 C   0  0  0  0  0  0  0  0  0  0  0  0
    9.2376    1.2651   12.0522 C   0  0  0  0  0  0  0  0  0  0  0  0
    6.9341    1.4004    9.4661 N   0  0  0  0  0  0  0  0  0  0  0  0
    5.6644    1.1413    9.1246 C   0  0  0  0  0  0  0  0  0  0  0  0
    5.2200    0.4625    8.0663 N   0  0  0  0  0  0  0  0  0  0  0  0
    6.2201    0.0197    7.2994 C   0  0  0  0  0  0  0  0  0  0  0  0
    4.8478   -2.5276    4.9092 C   0  0  2  0  0  0  0  0  0  0  0  0
    5.5599   -3.5035    5.5986 O   0  0  0  0  0  0  0  0  0  0  0  0
    5.0752   -4.3607    6.9899 Si  0  0  1  0  0  4  0  0  0  0  0  0
    6.2029   -5.8604    7.0405 C   0  0  0  0  0  0  0  0  0  0  0  0
    5.3087   -3.3115    8.5313 C   0  0  0  0  0  0  0  0  0  0  0  0
    3.2682   -4.8679    6.7986 C   0  0  0  0  0  0  0  0  0  0  0  0
    5.3233   -2.3494    3.4290 C   0  0  2  0  0  0  0  0  0  0  0  0
    6.6523   -2.7286    3.2091 O   0  0  0  0  0  0  0  0  0  0  0  0
    7.2961   -4.2062    2.6734 Si  0  0  1  0  0  4  0  0  0  0  0  0
    7.9554   -3.9185    0.9323 C   0  0  0  0  0  0  0  0  0  0  0  0
    8.6990   -4.6407    3.8410 C   0  0  0  0  0  0  0  0  0  0  0  0
    5.9604   -5.5356    2.6512 C   0  0  0  0  0  0  0  0  0  0  0  0
    6.8066    3.2513   -0.1998 H   0  0  0  0  0  0  0  0  0  0  0  0
    5.8378    3.7388    1.2144 H   0  0  0  0  0  0  0  0  0  0  0  0
    5.0330    3.3674   -0.3310 H   0  0  0  0  0  0  0  0  0  0  0  0
    6.5856    1.3340    1.4077 H   0  0  0  0  0  0  0  0  0  0  0  0
    5.7853    0.9528   -0.1373 H   0  0  0  0  0  0  0  0  0  0  0  0
    4.6774   -0.9774    1.0972 H   0  0  0  0  0  0  0  0  0  0  0  0
    3.2695   -0.8031    2.1726 H   0  0  0  0  0  0  0  0  0  0  0  0
    6.1836   -0.4158    3.0601 H   0  0  0  0  0  0  0  0  0  0  0  0
    4.1230   -0.9031    6.2457 H   0  0  0  0  0  0  0  0  0  0  0  0
    7.6807   -1.5430    4.8616 H   0  0  0  0  0  0  0  0  0  0  0  0
    9.8972    0.8026    8.3862 H   0  0  0  0  0  0  0  0  0  0  0  0
   12.0108    2.5355    9.3673 H   0  0  0  0  0  0  0  0  0  0  0  0
   12.0508    1.0257   10.3182 H   0  0  0  0  0  0  0  0  0  0  0  0
   12.1453    2.5998   11.1386 H   0  0  0  0  0  0  0  0  0  0  0  0
    9.5036    4.3895    9.4701 H   0  0  0  0  0  0  0  0  0  0  0  0
    9.5353    4.4718   11.2522 H   0  0  0  0  0  0  0  0  0  0  0  0
    8.0664    3.9017   10.4078 H   0  0  0  0  0  0  0  0  0  0  0  0
    9.6193    0.2323   12.1046 H   0  0  0  0  0  0  0  0  0  0  0  0
    8.1386    1.2282   12.0962 H   0  0  0  0  0  0  0  0  0  0  0  0
    9.6040    1.8093   12.9390 H   0  0  0  0  0  0  0  0  0  0  0  0
    4.8996    1.5374    9.8033 H   0  0  0  0  0  0  0  0  0  0  0  0
    3.7711   -2.7752    4.8624 H   0  0  0  0  0  0  0  0  0  0  0  0
    7.2599   -5.5540    7.0972 H   0  0  0  0  0  0  0  0  0  0  0  0
    6.0797   -6.4936    6.1474 H   0  0  0  0  0  0  0  0  0  0  0  0
    5.9862   -6.4791    7.9272 H   0  0  0  0  0  0  0  0  0  0  0  0
    6.3615   -3.0041    8.6396 H   0  0  0  0  0  0  0  0  0  0  0  0
    5.0345   -3.8912    9.4293 H   0  0  0  0  0  0  0  0  0  0  0  0
    4.6951   -2.3965    8.5245 H   0  0  0  0  0  0  0  0  0  0  0  0
    3.1003   -5.4392    5.8707 H   0  0  0  0  0  0  0  0  0  0  0  0
    2.5883   -4.0000    6.7932 H   0  0  0  0  0  0  0  0  0  0  0  0
    2.9663   -5.5097    7.6434 H   0  0  0  0  0  0  0  0  0  0  0  0
    4.6454   -2.9167    2.7668 H   0  0  0  0  0  0  0  0  0  0  0  0
    8.6998   -3.1054    0.9237 H   0  0  0  0  0  0  0  0  0  0  0  0
    7.1463   -3.6405    0.2366 H   0  0  0  0  0  0  0  0  0  0  0  0
    8.4430   -4.8246    0.5347 H   0  0  0  0  0  0  0  0  0  0  0  0
    9.4534   -3.8371    3.8622 H   0  0  0  0  0  0  0  0  0  0  0  0
    9.2060   -5.5690    3.5291 H   0  0  0  0  0  0  0  0  0  0  0  0
    8.3223   -4.7771    4.8661 H   0  0  0  0  0  0  0  0  0  0  0  0
    5.1602   -5.3088    1.9273 H   0  0  0  0  0  0  0  0  0  0  0  0
    5.5026   -5.6512    3.6457 H   0  0  0  0  0  0  0  0  0  0  0  0
    6.3969   -6.5063    2.3618 H   0  0  0  0  0  0  0  0  0  0  0  0
  1  2  1  0
  1 34  1  0
  1 35  1  0
  1 36  1  0
  2  3  1  0
  2 37  1  0
  2 38  1  0
  3  4  1  0
  4  5  1  0
  4 39  1  0
  4 40  1  0
  5  6  1  0
  5 28  1  0
  5 41  1  6
  6  7  1  0
  7  8  1  0
  7 22  1  0
  7 42  1  1
  8  9  1  0
  8 21  1  0
  9 10  2  0
  9 43  1  0
 10 11  1  0
 11 12  1  0
 11 21  2  0
 12 13  1  0
 12 18  2  0
 14 13  1  6
 13 44  1  0
 14 15  1  0
 14 16  1  0
 14 17  1  0
 15 45  1  0
 15 46  1  0
 15 47  1  0
 16 48  1  0
 16 49  1  0
 16 50  1  0
 17 51  1  0
 17 52  1  0
 17 53  1  0
 18 19  1  0
 19 20  2  0
 19 54  1  0
 20 21  1  0
 22 23  1  0
 22 28  1  0
 22 55  1  6
 24 23  1  6
 24 25  1  0
 24 26  1  0
 24 27  1  0
 25 56  1  0
 25 57  1  0
 25 58  1  0
 26 59  1  0
 26 60  1  0
 26 61  1  0
 27 62  1  0
 27 63  1  0
 27 64  1  0
 28 29  1  0
 28 65  1  6
 30 29  1  1
 30 31  1  0
 30 32  1  0
 30 33  1  0
 31 66  1  0
 31 67  1  0
 31 68  1  0
 32 69  1  0
 32 70  1  0
 32 71  1  0
 33 72  1  0
 33 73  1  0
 33 74  1  0
M  END

