
     RDKit          3D

 55 59  0  0  0  0  0  0  0  0999 V2000
    3.0979   -1.8140    0.5354 C   0  0  0  0  0  0  0  0  0  0  0  0
    2.7955   -0.6029   -0.1275 O   0  0  0  0  0  0  0  0  0  0  0  0
    3.3359   -0.3620   -1.3427 C   0  0  0  0  0  0  0  0  0  0  0  0
    4.1829   -1.2217   -2.0437 C   0  0  0  0  0  0  0  0  0  0  0  0
    4.7624   -0.8903   -3.2021 N   0  0  0  0  0  0  0  0  0  0  0  0
    4.5122    0.3344   -3.6776 C   0  0  0  0  0  0  0  0  0  0  0  0
    5.1914    0.7293   -4.9231 C   0  0  0  0  0  0  0  0  0  0  0  0
    5.0108    1.9301   -5.4565 N   0  0  0  0  0  0  0  0  0  0  0  0
    5.7500    1.9892   -6.5744 N   0  0  0  0  0  0  0  0  0  0  0  0
    5.7475    3.2118   -7.3634 C   0  0  0  0  0  0  0  0  0  0  0  0
    6.4645    4.3687   -6.6942 C   0  0  0  0  0  0  0  0  0  0  0  0
    5.8037    5.4574   -6.1029 C   0  0  0  0  0  0  0  0  0  0  0  0
    4.0570    5.5666   -6.1176 Cl  0  0  0  0  0  0  0  0  0  0  0  0
    6.5268    6.4924   -5.5002 C   0  0  0  0  0  0  0  0  0  0  0  0
    7.9163    6.4430   -5.4646 C   0  0  0  0  0  0  0  0  0  0  0  0
    8.6235    5.3774   -6.0430 C   0  0  0  0  0  0  0  0  0  0  0  0
    9.9746    5.4309   -5.9961 O   0  0  0  0  0  0  0  0  0  0  0  0
   10.7571    4.2437   -5.9602 C   0  0  0  0  0  0  0  0  0  0  0  0
    7.8650    4.3699   -6.6595 C   0  0  0  0  0  0  0  0  0  0  0  0
    8.4998    3.3470   -7.2743 F   0  0  0  0  0  0  0  0  0  0  0  0
    6.4419    0.8190   -6.7993 C   0  0  0  0  0  0  0  0  0  0  0  0
    7.3217    0.4290   -7.8254 C   0  0  0  0  0  0  0  0  0  0  0  0
    7.8435   -0.8560   -7.7553 C   0  0  0  0  0  0  0  0  0  0  0  0
    7.5094   -1.7365   -6.6979 C   0  0  0  0  0  0  0  0  0  0  0  0
    6.6439   -1.3481   -5.6840 C   0  0  0  0  0  0  0  0  0  0  0  0
    6.0981   -0.0490   -5.7301 C   0  0  0  0  0  0  0  0  0  0  0  0
    3.6845    1.2168   -3.1013 N   0  0  0  0  0  0  0  0  0  0  0  0
    3.0710    0.8899   -1.9700 C   0  0  0  0  0  0  0  0  0  0  0  0
    2.2707    1.8811   -1.4234 N   0  0  0  0  0  0  0  0  0  0  0  0
    1.0755    1.8089   -0.7070 C   0  0  0  0  0  0  0  0  0  0  0  0
    0.2609    0.6654   -0.6345 C   0  0  0  0  0  0  0  0  0  0  0  0
   -0.9321    0.7384    0.0860 C   0  0  0  0  0  0  0  0  0  0  0  0
   -1.3743    1.8329    0.7112 N   0  0  0  0  0  0  0  0  0  0  0  0
   -0.6065    2.9232    0.6227 C   0  0  0  0  0  0  0  0  0  0  0  0
    0.6083    2.9678   -0.0588 C   0  0  0  0  0  0  0  0  0  0  0  0
    2.5728   -1.7788    1.4986 H   0  0  0  0  0  0  0  0  0  0  0  0
    4.1825   -1.9172    0.7166 H   0  0  0  0  0  0  0  0  0  0  0  0
    2.7456   -2.6919   -0.0350 H   0  0  0  0  0  0  0  0  0  0  0  0
    4.4230   -2.2117   -1.6447 H   0  0  0  0  0  0  0  0  0  0  0  0
    4.7045    3.4941   -7.5540 H   0  0  0  0  0  0  0  0  0  0  0  0
    6.2234    2.9807   -8.3254 H   0  0  0  0  0  0  0  0  0  0  0  0
    5.9912    7.3286   -5.0493 H   0  0  0  0  0  0  0  0  0  0  0  0
    8.4964    7.2349   -4.9871 H   0  0  0  0  0  0  0  0  0  0  0  0
   11.7571    4.5514   -5.6247 H   0  0  0  0  0  0  0  0  0  0  0  0
   10.8357    3.7707   -6.9504 H   0  0  0  0  0  0  0  0  0  0  0  0
   10.3462    3.5119   -5.2446 H   0  0  0  0  0  0  0  0  0  0  0  0
    7.5966    1.1046   -8.6364 H   0  0  0  0  0  0  0  0  0  0  0  0
    8.5313   -1.1950   -8.5344 H   0  0  0  0  0  0  0  0  0  0  0  0
    7.9445   -2.7389   -6.6840 H   0  0  0  0  0  0  0  0  0  0  0  0
    6.3770   -2.0127   -4.8630 H   0  0  0  0  0  0  0  0  0  0  0  0
    2.4625    2.7795   -1.8595 H   0  0  0  0  0  0  0  0  0  0  0  0
    0.5364   -0.2587   -1.1396 H   0  0  0  0  0  0  0  0  0  0  0  0
   -1.5727   -0.1502    0.1466 H   0  0  0  0  0  0  0  0  0  0  0  0
   -0.9725    3.8239    1.1304 H   0  0  0  0  0  0  0  0  0  0  0  0
    1.1958    3.8893   -0.0826 H   0  0  0  0  0  0  0  0  0  0  0  0
  1  2  1  0
  1 36  1  0
  1 37  1  0
  1 38  1  0
  2  3  1  0
  3  4  2  0
  3 28  1  0
  4  5  1  0
  4 39  1  0
  5  6  2  0
  6  7  1  0
  6 27  1  0
  7  8  2  0
  7 26  1  0
  8  9  1  0
  9 10  1  0
  9 21  1  0
 10 11  1  0
 10 40  1  0
 10 41  1  0
 11 12  2  0
 11 19  1  0
 12 13  1  0
 12 14  1  0
 14 15  2  0
 14 42  1  0
 15 16  1  0
 15 43  1  0
 16 17  1  0
 16 19  2  0
 17 18  1  0
 18 44  1  0
 18 45  1  0
 18 46  1  0
 19 20  1  0
 21 22  1  0
 21 26  2  0
 22 23  2  0
 22 47  1  0
 23 24  1  0
 23 48  1  0
 24 25  2  0
 24 49  1  0
 25 26  1  0
 25 50  1  0
 27 28  2  0
 28 29  1  0
 29 30  1  0
 29 51  1  0
 30 31  2  0
 30 35  1  0
 31 32  1  0
 31 52  1  0
 32 33  2  0
 32 53  1  0
 33 34  1  0
 34 35  2  0
 34 54  1  0
 35 55  1  0
M  END

