
     RDKit          3D

 29 30  0  0  0  0  0  0  0  0999 V2000
    0.7282    0.6871   -1.0495 C   0  0  0  0  0  0  0  0  0  0  0  0
    1.4886   -0.4922   -1.1853 O   0  0  0  0  0  0  0  0  0  0  0  0
    2.4786   -0.5502   -2.1183 C   0  0  0  0  0  0  0  0  0  0  0  0
    2.7939    0.4982   -2.9918 C   0  0  0  0  0  0  0  0  0  0  0  0
    3.8236    0.3528   -3.9290 C   0  0  0  0  0  0  0  0  0  0  0  0
    4.5198   -0.8460   -3.9813 C   0  0  0  0  0  0  0  0  0  0  0  0
    5.5044   -1.0025   -4.8829 F   0  0  0  0  0  0  0  0  0  0  0  0
    4.2182   -1.9018   -3.1216 C   0  0  0  0  0  0  0  0  0  0  0  0
    3.2022   -1.7673   -2.1756 C   0  0  0  0  0  0  0  0  0  0  0  0
    2.8305   -2.8494   -1.1727 C   0  0  1  0  0  0  0  0  0  0  0  0
    3.2980   -4.5217   -1.7822 Cl  0  0  0  0  0  0  0  0  0  0  0  0
    3.3705   -2.6162    0.2101 C   0  0  0  0  0  0  0  0  0  0  0  0
    2.5736   -2.3994    1.3889 C   0  0  0  0  0  0  0  0  0  0  0  0
    3.4509   -2.2114    2.4136 C   0  0  0  0  0  0  0  0  0  0  0  0
    4.7269   -2.3011    1.9553 O   0  0  0  0  0  0  0  0  0  0  0  0
    4.6833   -2.5450    0.6189 C   0  0  0  0  0  0  0  0  0  0  0  0
    5.9894   -2.6963   -0.0805 C   0  0  0  0  0  0  0  0  0  0  0  0
    1.3595    1.5515   -0.7763 H   0  0  0  0  0  0  0  0  0  0  0  0
    0.0080    0.5038   -0.2411 H   0  0  0  0  0  0  0  0  0  0  0  0
    0.1742    0.9278   -1.9748 H   0  0  0  0  0  0  0  0  0  0  0  0
    2.2408    1.4365   -2.9561 H   0  0  0  0  0  0  0  0  0  0  0  0
    4.0799    1.1596   -4.6180 H   0  0  0  0  0  0  0  0  0  0  0  0
    4.7687   -2.8383   -3.2112 H   0  0  0  0  0  0  0  0  0  0  0  0
    1.7376   -2.8889   -1.1070 H   0  0  0  0  0  0  0  0  0  0  0  0
    1.4873   -2.3827    1.4444 H   0  0  0  0  0  0  0  0  0  0  0  0
    3.3344   -2.0176    3.4765 H   0  0  0  0  0  0  0  0  0  0  0  0
    6.7734   -2.9575    0.6451 H   0  0  0  0  0  0  0  0  0  0  0  0
    6.2946   -1.7673   -0.5924 H   0  0  0  0  0  0  0  0  0  0  0  0
    5.9286   -3.4916   -0.8369 H   0  0  0  0  0  0  0  0  0  0  0  0
  1  2  1  0
  1 18  1  0
  1 19  1  0
  1 20  1  0
  2  3  1  0
  3  4  2  0
  3  9  1  0
  4  5  1  0
  4 21  1  0
  5  6  2  0
  5 22  1  0
  6  7  1  0
  6  8  1  0
  8  9  2  0
  8 23  1  0
  9 10  1  0
 10 11  1  0
 10 12  1  0
 10 24  1  1
 12 13  1  0
 12 16  2  0
 13 14  2  0
 13 25  1  0
 14 15  1  0
 14 26  1  0
 15 16  1  0
 16 17  1  0
 17 27  1  0
 17 28  1  0
 17 29  1  0
M  END

