
     RDKit          3D

 41 43  0  0  0  0  0  0  0  0999 V2000
    0.2435    1.1374   -0.8371 C   0  0  0  0  0  0  0  0  0  0  0  0
    1.5909    0.7104   -1.3221 C   0  0  0  0  0  0  0  0  0  0  0  0
    2.6090    1.5156   -1.5466 N   0  0  0  0  0  0  0  0  0  0  0  0
    3.6396    0.7200   -1.9788 C   0  0  0  0  0  0  0  0  0  0  0  0
    3.2431   -0.5944   -2.0216 C   0  0  0  0  0  0  0  0  0  0  0  0
    1.9224   -0.5981   -1.6036 N   0  0  0  0  0  0  0  0  0  0  0  0
    1.0977   -1.7782   -1.4394 C   0  0  0  0  0  0  0  0  0  0  0  0
    1.2941   -2.4811   -0.0886 C   0  0  1  0  0  0  0  0  0  0  0  0
    0.8957   -1.5982    0.9196 O   0  0  0  0  0  0  0  0  0  0  0  0
    0.5496   -3.8322   -0.0180 C   0  0  0  0  0  0  0  0  0  0  0  0
   -0.9056   -3.7210    0.0271 N   0  0  0  0  0  0  0  0  0  0  0  0
   -1.7875   -3.9130   -0.9897 C   0  0  0  0  0  0  0  0  0  0  0  0
   -3.0556   -3.7687   -0.6303 N   0  0  0  0  0  0  0  0  0  0  0  0
   -2.9910   -3.4691    0.6895 C   0  0  0  0  0  0  0  0  0  0  0  0
   -1.6804   -3.4216    1.1393 C   0  0  0  0  0  0  0  0  0  0  0  0
   -1.3373   -3.1426    2.5034 C   0  0  0  0  0  0  0  0  0  0  0  0
   -0.1951   -3.0690    2.9646 O   0  0  0  0  0  0  0  0  0  0  0  0
   -2.4769   -2.9458    3.3005 N   0  0  0  0  0  0  0  0  0  0  0  0
   -2.2864   -2.6502    4.7230 C   0  0  0  0  0  0  0  0  0  0  0  0
   -3.8268   -2.9829    2.8784 C   0  0  0  0  0  0  0  0  0  0  0  0
   -4.7272   -2.7882    3.6697 O   0  0  0  0  0  0  0  0  0  0  0  0
   -4.0550   -3.2480    1.5282 N   0  0  0  0  0  0  0  0  0  0  0  0
   -5.4209   -3.2992    1.0151 C   0  0  0  0  0  0  0  0  0  0  0  0
    0.2755    2.2194   -0.6567 H   0  0  0  0  0  0  0  0  0  0  0  0
   -0.0276    0.6187    0.0946 H   0  0  0  0  0  0  0  0  0  0  0  0
   -0.5477    0.9373   -1.5814 H   0  0  0  0  0  0  0  0  0  0  0  0
    4.6127    1.1330   -2.2434 H   0  0  0  0  0  0  0  0  0  0  0  0
    3.7576   -1.5074   -2.3130 H   0  0  0  0  0  0  0  0  0  0  0  0
    1.3326   -2.4813   -2.2551 H   0  0  0  0  0  0  0  0  0  0  0  0
    0.0416   -1.4879   -1.5423 H   0  0  0  0  0  0  0  0  0  0  0  0
    2.3727   -2.7376   -0.0029 H   0  0  0  0  0  0  0  0  0  0  0  0
    0.7984   -2.0770    1.7681 H   0  0  0  0  0  0  0  0  0  0  0  0
    0.8663   -4.3639    0.8904 H   0  0  0  0  0  0  0  0  0  0  0  0
    0.8149   -4.4587   -0.8831 H   0  0  0  0  0  0  0  0  0  0  0  0
   -1.4521   -4.1755   -1.9937 H   0  0  0  0  0  0  0  0  0  0  0  0
   -1.2103   -2.6431    4.9213 H   0  0  0  0  0  0  0  0  0  0  0  0
   -2.7870   -3.4125    5.3364 H   0  0  0  0  0  0  0  0  0  0  0  0
   -2.7296   -1.6747    4.9676 H   0  0  0  0  0  0  0  0  0  0  0  0
   -6.0997   -3.1112    1.8533 H   0  0  0  0  0  0  0  0  0  0  0  0
   -5.6235   -4.2868    0.5750 H   0  0  0  0  0  0  0  0  0  0  0  0
   -5.5621   -2.5369    0.2345 H   0  0  0  0  0  0  0  0  0  0  0  0
  1  2  1  0
  1 24  1  0
  1 25  1  0
  1 26  1  0
  2  3  2  0
  2  6  1  0
  3  4  1  0
  4  5  2  0
  4 27  1  0
  5  6  1  0
  5 28  1  0
  6  7  1  0
  7  8  1  0
  7 29  1  0
  7 30  1  0
  8  9  1  0
  8 10  1  0
  8 31  1  1
  9 32  1  0
 10 11  1  0
 10 33  1  0
 10 34  1  0
 11 12  1  0
 11 15  1  0
 12 13  2  0
 12 35  1  0
 13 14  1  0
 14 15  2  0
 14 22  1  0
 15 16  1  0
 16 17  2  0
 16 18  1  0
 18 19  1  0
 18 20  1  0
 19 36  1  0
 19 37  1  0
 19 38  1  0
 20 21  2  0
 20 22  1  0
 22 23  1  0
 23 39  1  0
 23 40  1  0
 23 41  1  0
M  END

