
     RDKit          3D

 24 24  0  0  0  0  0  0  0  0999 V2000
    0.8405    0.2213    0.1144 C   0  0  0  0  0  0  0  0  0  0  0  0
    2.3270    0.0412    0.0371 C   0  0  0  0  0  0  0  0  0  0  0  0
    3.1002    1.1293   -0.2066 N   0  0  0  0  0  0  0  0  0  0  0  0
    2.6694    2.0428   -0.3229 H   0  0  0  0  0  0  0  0  0  0  0  0
    4.5176    1.1214   -0.3210 C   0  0  0  0  0  0  0  0  0  0  0  0
    5.0987    2.1628   -0.5383 O   0  0  0  0  0  0  0  0  0  0  0  0
    5.1128   -0.1133   -0.1654 N   0  0  0  0  0  0  0  0  0  0  0  0
    4.4113   -1.1942    0.0676 C   0  0  0  0  0  0  0  0  0  0  0  0
    5.1796   -2.4885    0.1634 C   0  0  0  0  0  0  0  0  0  0  0  0
    5.4280   -3.1097   -1.2307 C   0  0  1  0  0  0  0  0  0  0  0  0
    6.1919   -4.4287   -1.1341 C   0  0  0  0  0  0  0  0  0  0  0  0
    4.2242   -3.2526   -1.9648 O   0  0  0  0  0  0  0  0  0  0  0  0
    2.9778   -1.1640    0.1836 C   0  0  0  0  0  0  0  0  0  0  0  0
    2.0389   -2.6113    0.4982 Cl  0  0  0  0  0  0  0  0  0  0  0  0
    0.5644    1.2852    0.0909 H   0  0  0  0  0  0  0  0  0  0  0  0
    0.4440   -0.2297    1.0360 H   0  0  0  0  0  0  0  0  0  0  0  0
    0.3483   -0.2879   -0.7299 H   0  0  0  0  0  0  0  0  0  0  0  0
    4.6486   -3.2143    0.7991 H   0  0  0  0  0  0  0  0  0  0  0  0
    6.1507   -2.2641    0.6276 H   0  0  0  0  0  0  0  0  0  0  0  0
    6.0253   -2.3854   -1.8090 H   0  0  0  0  0  0  0  0  0  0  0  0
    5.6206   -5.1715   -0.5500 H   0  0  0  0  0  0  0  0  0  0  0  0
    7.1701   -4.2955   -0.6452 H   0  0  0  0  0  0  0  0  0  0  0  0
    6.3572   -4.8402   -2.1412 H   0  0  0  0  0  0  0  0  0  0  0  0
    3.6229   -3.8176   -1.4592 H   0  0  0  0  0  0  0  0  0  0  0  0
  1  2  1  0
  1 15  1  0
  1 16  1  0
  1 17  1  0
  2  3  1  0
  2 13  2  0
  3  4  1  0
  3  5  1  0
  5  6  2  0
  5  7  1  0
  7  8  2  0
  8  9  1  0
  8 13  1  0
  9 10  1  0
  9 18  1  0
  9 19  1  0
 10 11  1  0
 10 12  1  0
 10 20  1  6
 11 21  1  0
 11 22  1  0
 11 23  1  0
 12 24  1  0
 13 14  1  0
M  END

