
     RDKit          3D

 29 31  0  0  0  0  0  0  0  0999 V2000
    2.2924    1.2032    0.5132 C   0  0  0  0  0  0  0  0  0  0  0  0
    2.1526    0.0289   -0.2587 O   0  0  0  0  0  0  0  0  0  0  0  0
    2.7241   -0.0344   -1.4822 C   0  0  0  0  0  0  0  0  0  0  0  0
    3.4755    0.9984   -2.0677 C   0  0  0  0  0  0  0  0  0  0  0  0
    4.0308    0.8195   -3.3364 C   0  0  0  0  0  0  0  0  0  0  0  0
    3.8472   -0.3666   -4.0534 C   0  0  0  0  0  0  0  0  0  0  0  0
    4.3834   -0.5362   -5.3546 N   0  0  0  0  0  0  0  0  0  0  0  0
    4.1569    0.3903   -6.4059 C   0  0  0  0  0  0  0  0  0  0  0  0
    3.5308    1.4223   -6.3469 O   0  0  0  0  0  0  0  0  0  0  0  0
    4.8193   -0.1462   -7.5021 N   0  0  0  0  0  0  0  0  0  0  0  0
    4.8264    0.3244   -8.3976 H   0  0  0  0  0  0  0  0  0  0  0  0
    5.4501   -1.3381   -7.1762 C   0  0  0  0  0  0  0  0  0  0  0  0
    6.2408   -2.2294   -7.8943 C   0  0  0  0  0  0  0  0  0  0  0  0
    6.7495   -3.3224   -7.3132 N   0  0  0  0  0  0  0  0  0  0  0  0
    6.4906   -3.5493   -6.0230 C   0  0  0  0  0  0  0  0  0  0  0  0
    5.7069   -2.7178   -5.2074 C   0  0  0  0  0  0  0  0  0  0  0  0
    5.1740   -1.5855   -5.8145 C   0  0  0  0  0  0  0  0  0  0  0  0
    3.0723   -1.3748   -3.4549 C   0  0  0  0  0  0  0  0  0  0  0  0
    2.8575   -2.5130   -4.1289 F   0  0  0  0  0  0  0  0  0  0  0  0
    2.5282   -1.2335   -2.1889 C   0  0  0  0  0  0  0  0  0  0  0  0
    1.7497    1.0252    1.4509 H   0  0  0  0  0  0  0  0  0  0  0  0
    1.8540    2.0809    0.0061 H   0  0  0  0  0  0  0  0  0  0  0  0
    3.3508    1.4162    0.7467 H   0  0  0  0  0  0  0  0  0  0  0  0
    3.6375    1.9418   -1.5479 H   0  0  0  0  0  0  0  0  0  0  0  0
    4.6076    1.6243   -3.7932 H   0  0  0  0  0  0  0  0  0  0  0  0
    6.4708   -2.0617   -8.9530 H   0  0  0  0  0  0  0  0  0  0  0  0
    6.9310   -4.4558   -5.5919 H   0  0  0  0  0  0  0  0  0  0  0  0
    5.5272   -2.9605   -4.1601 H   0  0  0  0  0  0  0  0  0  0  0  0
    1.9392   -2.0400   -1.7513 H   0  0  0  0  0  0  0  0  0  0  0  0
  1  2  1  0
  1 21  1  0
  1 22  1  0
  1 23  1  0
  2  3  1  0
  3  4  2  0
  3 20  1  0
  4  5  1  0
  4 24  1  0
  5  6  2  0
  5 25  1  0
  6  7  1  0
  6 18  1  0
  7  8  1  0
  7 17  1  0
  8  9  2  0
  8 10  1  0
 10 11  1  0
 10 12  1  0
 12 13  1  0
 12 17  2  0
 13 14  2  0
 13 26  1  0
 14 15  1  0
 15 16  2  0
 15 27  1  0
 16 17  1  0
 16 28  1  0
 18 19  1  0
 18 20  2  0
 20 29  1  0
M  END

