
     RDKit          3D

 40 42  0  0  0  0  0  0  0  0999 V2000
    1.2929   -0.1833    0.1807 C   0  0  0  0  0  0  0  0  0  0  0  0
    0.0742   -0.1234    0.2004 C   0  0  0  0  0  0  0  0  0  0  0  0
   -1.3516   -0.0546    0.2217 C   0  0  0  0  0  0  0  0  0  0  0  0
   -2.1115   -0.4752   -0.8923 C   0  0  0  0  0  0  0  0  0  0  0  0
   -3.5037   -0.4056   -0.8652 C   0  0  0  0  0  0  0  0  0  0  0  0
   -4.1652    0.0826    0.2671 C   0  0  0  0  0  0  0  0  0  0  0  0
   -3.4232    0.5023    1.3767 C   0  0  0  0  0  0  0  0  0  0  0  0
   -2.0307    0.4361    1.3590 C   0  0  0  0  0  0  0  0  0  0  0  0
    2.7239   -0.2421    0.1815 C   0  0  0  0  0  0  0  0  0  0  0  0
    3.3464    0.2495    1.3709 C   0  0  0  0  0  0  0  0  0  0  0  0
    3.7942    0.6712    2.4253 C   0  0  0  0  0  0  0  0  0  0  0  0
    4.3334    1.1639    3.6524 C   0  0  0  0  0  0  0  0  0  0  0  0
    3.5486    1.9663    4.5098 C   0  0  0  0  0  0  0  0  0  0  0  0
    4.0779    2.4480    5.7062 C   0  0  0  0  0  0  0  0  0  0  0  0
    5.3933    2.1409    6.0715 C   0  0  0  0  0  0  0  0  0  0  0  0
    6.1798    1.3453    5.2311 C   0  0  0  0  0  0  0  0  0  0  0  0
    5.6592    0.8590    4.0327 C   0  0  0  0  0  0  0  0  0  0  0  0
    3.3722   -0.7631   -0.9145 C   0  0  0  0  0  0  0  0  0  0  0  0
    4.7887   -0.9355   -1.2076 C   0  0  0  0  0  0  0  0  0  0  0  0
    5.1270   -1.6418   -2.3865 C   0  0  0  0  0  0  0  0  0  0  0  0
    6.4545   -1.8563   -2.7505 C   0  0  0  0  0  0  0  0  0  0  0  0
    7.4885   -1.3622   -1.9484 C   0  0  0  0  0  0  0  0  0  0  0  0
    7.1760   -0.6515   -0.7838 C   0  0  0  0  0  0  0  0  0  0  0  0
    5.8489   -0.4390   -0.4140 C   0  0  0  0  0  0  0  0  0  0  0  0
   -1.5945   -0.8557   -1.7756 H   0  0  0  0  0  0  0  0  0  0  0  0
   -4.0782   -0.7348   -1.7349 H   0  0  0  0  0  0  0  0  0  0  0  0
   -5.2567    0.1359    0.2847 H   0  0  0  0  0  0  0  0  0  0  0  0
   -3.9347    0.8842    2.2640 H   0  0  0  0  0  0  0  0  0  0  0  0
   -1.4503    0.7625    2.2244 H   0  0  0  0  0  0  0  0  0  0  0  0
    2.5228    2.2055    4.2221 H   0  0  0  0  0  0  0  0  0  0  0  0
    3.4595    3.0685    6.3597 H   0  0  0  0  0  0  0  0  0  0  0  0
    5.8045    2.5201    7.0103 H   0  0  0  0  0  0  0  0  0  0  0  0
    7.2070    1.1005    5.5131 H   0  0  0  0  0  0  0  0  0  0  0  0
    6.2704    0.2326    3.3796 H   0  0  0  0  0  0  0  0  0  0  0  0
    2.7047   -1.1169   -1.7053 H   0  0  0  0  0  0  0  0  0  0  0  0
    4.3241   -2.0284   -3.0201 H   0  0  0  0  0  0  0  0  0  0  0  0
    6.6847   -2.4090   -3.6649 H   0  0  0  0  0  0  0  0  0  0  0  0
    8.5316   -1.5254   -2.2311 H   0  0  0  0  0  0  0  0  0  0  0  0
    7.9785   -0.2537   -0.1570 H   0  0  0  0  0  0  0  0  0  0  0  0
    5.6267    0.1252    0.4901 H   0  0  0  0  0  0  0  0  0  0  0  0
  1  2  3  0
  1  9  1  0
  2  3  1  0
  3  4  2  0
  3  8  1  0
  4  5  1  0
  4 25  1  0
  5  6  2  0
  5 26  1  0
  6  7  1  0
  6 27  1  0
  7  8  2  0
  7 28  1  0
  8 29  1  0
  9 10  1  0
  9 18  2  0
 10 11  3  0
 11 12  1  0
 12 13  2  0
 12 17  1  0
 13 14  1  0
 13 30  1  0
 14 15  2  0
 14 31  1  0
 15 16  1  0
 15 32  1  0
 16 17  2  0
 16 33  1  0
 17 34  1  0
 18 19  1  0
 18 35  1  0
 19 20  2  0
 19 24  1  0
 20 21  1  0
 20 36  1  0
 21 22  2  0
 21 37  1  0
 22 23  1  0
 22 38  1  0
 23 24  2  0
 23 39  1  0
 24 40  1  0
M  END

