
     RDKit          3D

 78 81  0  0  0  0  0  0  0  0999 V2000
    4.9990    4.0273   -0.9431 C   0  0  0  0  0  0  0  0  0  0  0  0
    3.8543    3.3689   -0.1405 C   0  0  1  0  0  0  0  0  0  0  0  0
    4.4794    2.6098    1.0495 C   0  0  0  0  0  0  0  0  0  0  0  0
    2.9041    4.4692    0.3746 C   0  0  0  0  0  0  0  0  0  0  0  0
    2.9211    2.1717   -1.3220 Si  0  0  1  0  0  4  0  0  0  0  0  0
    4.0791    0.9661   -1.5919 O   0  0  0  0  0  0  0  0  0  0  0  0
    4.1627   -0.2001   -2.2927 C   0  0  0  0  0  0  0  0  0  0  0  0
    5.2940   -0.4039   -3.0987 C   0  0  0  0  0  0  0  0  0  0  0  0
    5.4207   -1.5904   -3.8204 C   0  0  0  0  0  0  0  0  0  0  0  0
    4.4336   -2.5774   -3.7436 C   0  0  0  0  0  0  0  0  0  0  0  0
    3.3078   -2.3958   -2.9240 C   0  0  0  0  0  0  0  0  0  0  0  0
    2.2425   -3.4650   -2.8231 C   0  0  0  0  0  0  0  0  0  0  0  0
    2.3644   -4.4478   -1.6152 C   0  0  1  0  0  0  0  0  0  0  0  0
    2.3434   -3.6380   -0.4440 O   0  0  0  0  0  0  0  0  0  0  0  0
    1.9498   -3.8570    1.1791 Si  0  0  1  0  0  4  0  0  0  0  0  0
    0.0808   -3.7483    1.4301 C   0  0  0  0  0  0  0  0  0  0  0  0
    2.5763   -5.5012    1.8672 C   0  0  0  0  0  0  0  0  0  0  0  0
    2.7918   -2.4230    2.0550 C   0  0  0  0  0  0  0  0  0  0  0  0
    1.1637   -5.3784   -1.6477 C   0  0  0  0  0  0  0  0  0  0  0  0
    1.2166   -6.6793   -1.9652 C   0  0  0  0  0  0  0  0  0  0  0  0
    2.4867   -7.3976   -2.3405 C   0  0  0  0  0  0  0  0  0  0  0  0
    3.6262   -6.4205   -2.6598 C   0  0  0  0  0  0  0  0  0  0  0  0
    3.6704   -5.2706   -1.6482 C   0  0  0  0  0  0  0  0  0  0  0  0
    3.1840   -1.1986   -2.2009 C   0  0  0  0  0  0  0  0  0  0  0  0
    1.2974    1.4607   -0.6362 C   0  0  0  0  0  0  0  0  0  0  0  0
    0.2658    1.0946   -1.5266 C   0  0  0  0  0  0  0  0  0  0  0  0
   -0.9343    0.5424   -1.0688 C   0  0  0  0  0  0  0  0  0  0  0  0
   -1.1381    0.3460    0.3001 C   0  0  0  0  0  0  0  0  0  0  0  0
   -0.1323    0.7007    1.2039 C   0  0  0  0  0  0  0  0  0  0  0  0
    1.0677    1.2476    0.7386 C   0  0  0  0  0  0  0  0  0  0  0  0
    2.5395    3.0141   -2.9744 C   0  0  0  0  0  0  0  0  0  0  0  0
    3.3624    2.8153   -4.1003 C   0  0  0  0  0  0  0  0  0  0  0  0
    3.1152    3.4796   -5.3061 C   0  0  0  0  0  0  0  0  0  0  0  0
    2.0393    4.3653   -5.4115 C   0  0  0  0  0  0  0  0  0  0  0  0
    1.2089    4.5792   -4.3069 C   0  0  0  0  0  0  0  0  0  0  0  0
    1.4564    3.9078   -3.1060 C   0  0  0  0  0  0  0  0  0  0  0  0
    5.5737    4.7069   -0.2883 H   0  0  0  0  0  0  0  0  0  0  0  0
    4.6246    4.6209   -1.7915 H   0  0  0  0  0  0  0  0  0  0  0  0
    5.7011    3.2766   -1.3393 H   0  0  0  0  0  0  0  0  0  0  0  0
    5.0883    3.3030    1.6579 H   0  0  0  0  0  0  0  0  0  0  0  0
    5.1356    1.7946    0.7092 H   0  0  0  0  0  0  0  0  0  0  0  0
    3.7253    2.1733    1.7222 H   0  0  0  0  0  0  0  0  0  0  0  0
    3.4568    5.1789    1.0163 H   0  0  0  0  0  0  0  0  0  0  0  0
    2.0743    4.0611    0.9734 H   0  0  0  0  0  0  0  0  0  0  0  0
    2.4656    5.0539   -0.4508 H   0  0  0  0  0  0  0  0  0  0  0  0
    6.0575    0.3755   -3.1459 H   0  0  0  0  0  0  0  0  0  0  0  0
    6.2968   -1.7442   -4.4563 H   0  0  0  0  0  0  0  0  0  0  0  0
    4.5365   -3.4946   -4.3295 H   0  0  0  0  0  0  0  0  0  0  0  0
    2.2301   -4.0618   -3.7479 H   0  0  0  0  0  0  0  0  0  0  0  0
    1.2524   -2.9892   -2.7412 H   0  0  0  0  0  0  0  0  0  0  0  0
   -0.4470   -4.6130    0.9969 H   0  0  0  0  0  0  0  0  0  0  0  0
   -0.3209   -2.8328    0.9657 H   0  0  0  0  0  0  0  0  0  0  0  0
   -0.1626   -3.7150    2.5060 H   0  0  0  0  0  0  0  0  0  0  0  0
    2.1415   -6.3610    1.3326 H   0  0  0  0  0  0  0  0  0  0  0  0
    2.2951   -5.5928    2.9304 H   0  0  0  0  0  0  0  0  0  0  0  0
    3.6741   -5.5779    1.8064 H   0  0  0  0  0  0  0  0  0  0  0  0
    2.4254   -1.4598    1.6652 H   0  0  0  0  0  0  0  0  0  0  0  0
    3.8825   -2.4546    1.9012 H   0  0  0  0  0  0  0  0  0  0  0  0
    2.5973   -2.4493    3.1404 H   0  0  0  0  0  0  0  0  0  0  0  0
    0.2020   -4.9124   -1.4072 H   0  0  0  0  0  0  0  0  0  0  0  0
    0.2926   -7.2691   -1.9494 H   0  0  0  0  0  0  0  0  0  0  0  0
    2.2964   -8.0695   -3.1958 H   0  0  0  0  0  0  0  0  0  0  0  0
    2.7792   -8.0670   -1.5074 H   0  0  0  0  0  0  0  0  0  0  0  0
    3.4865   -6.0204   -3.6790 H   0  0  0  0  0  0  0  0  0  0  0  0
    4.5922   -6.9513   -2.6698 H   0  0  0  0  0  0  0  0  0  0  0  0
    4.5204   -4.5991   -1.8408 H   0  0  0  0  0  0  0  0  0  0  0  0
    3.8225   -5.6892   -0.6407 H   0  0  0  0  0  0  0  0  0  0  0  0
    2.3210   -1.0472   -1.5529 H   0  0  0  0  0  0  0  0  0  0  0  0
    0.3995    1.2416   -2.6013 H   0  0  0  0  0  0  0  0  0  0  0  0
   -1.7141    0.2679   -1.7843 H   0  0  0  0  0  0  0  0  0  0  0  0
   -2.0777   -0.0800    0.6619 H   0  0  0  0  0  0  0  0  0  0  0  0
   -0.2812    0.5514    2.2765 H   0  0  0  0  0  0  0  0  0  0  0  0
    1.8350    1.5091    1.4696 H   0  0  0  0  0  0  0  0  0  0  0  0
    4.2080    2.1266   -4.0395 H   0  0  0  0  0  0  0  0  0  0  0  0
    3.7658    3.3032   -6.1669 H   0  0  0  0  0  0  0  0  0  0  0  0
    1.8459    4.8860   -6.3532 H   0  0  0  0  0  0  0  0  0  0  0  0
    0.3632    5.2680   -4.3820 H   0  0  0  0  0  0  0  0  0  0  0  0
    0.7843    4.0804   -2.2600 H   0  0  0  0  0  0  0  0  0  0  0  0
  2  1  1  6
  1 37  1  0
  1 38  1  0
  1 39  1  0
  2  3  1  0
  2  4  1  0
  2  5  1  0
  3 40  1  0
  3 41  1  0
  3 42  1  0
  4 43  1  0
  4 44  1  0
  4 45  1  0
  5  6  1  6
  5 25  1  0
  5 31  1  0
  6  7  1  0
  7  8  2  0
  7 24  1  0
  8  9  1  0
  8 46  1  0
  9 10  2  0
  9 47  1  0
 10 11  1  0
 10 48  1  0
 11 12  1  0
 11 24  2  0
 12 13  1  0
 12 49  1  0
 12 50  1  0
 13 14  1  1
 13 19  1  0
 13 23  1  0
 15 14  1  6
 15 16  1  0
 15 17  1  0
 15 18  1  0
 16 51  1  0
 16 52  1  0
 16 53  1  0
 17 54  1  0
 17 55  1  0
 17 56  1  0
 18 57  1  0
 18 58  1  0
 18 59  1  0
 19 20  2  0
 19 60  1  0
 20 21  1  0
 20 61  1  0
 21 22  1  0
 21 62  1  0
 21 63  1  0
 22 23  1  0
 22 64  1  0
 22 65  1  0
 23 66  1  0
 23 67  1  0
 24 68  1  0
 25 26  2  0
 25 30  1  0
 26 27  1  0
 26 69  1  0
 27 28  2  0
 27 70  1  0
 28 29  1  0
 28 71  1  0
 29 30  2  0
 29 72  1  0
 30 73  1  0
 31 32  2  0
 31 36  1  0
 32 33  1  0
 32 74  1  0
 33 34  2  0
 33 75  1  0
 34 35  1  0
 34 76  1  0
 35 36  2  0
 35 77  1  0
 36 78  1  0
M  END

