
     RDKit          3D

100104  0  0  0  0  0  0  0  0999 V2000
    4.7964   -0.4198    4.2215 C   0  0  0  0  0  0  0  0  0  0  0  0
    6.1189   -0.2378    3.4755 C   0  0  0  0  0  0  0  0  0  0  0  0
    6.1743   -0.9789    2.1355 C   0  0  0  0  0  0  0  0  0  0  0  0
    7.5035   -0.8043    1.3919 C   0  0  0  0  0  0  0  0  0  0  0  0
    7.6070   -1.5686    0.0620 C   0  0  0  0  0  0  0  0  0  0  0  0
    6.7130   -1.0575   -1.0789 C   0  0  0  0  0  0  0  0  0  0  0  0
    7.1164    0.2795   -1.7242 C   0  0  0  0  0  0  0  0  0  0  0  0
    8.3605    0.2006   -2.5019 N   0  0  0  0  0  0  0  0  0  0  0  0
    8.5016   -0.4205   -3.7013 C   0  0  0  0  0  0  0  0  0  0  0  0
    7.5039   -0.9278   -4.5341 C   0  0  0  0  0  0  0  0  0  0  0  0
    6.1624   -0.5891   -4.7542 C   0  0  0  0  0  0  0  0  0  0  0  0
    5.0738   -1.4322   -5.3135 C   0  0  0  0  0  0  0  0  0  0  0  0
    4.9648   -2.5863   -5.6717 O   0  0  0  0  0  0  0  0  0  0  0  0
    4.1617   -0.2587   -5.2362 C   0  0  0  0  0  0  0  0  0  0  0  0
    2.7847   -0.2498   -5.4888 C   0  0  0  0  0  0  0  0  0  0  0  0
    1.8334    0.7377   -5.7472 C   0  0  0  0  0  0  0  0  0  0  0  0
    2.0058    1.9596   -6.3092 N   0  0  0  0  0  0  0  0  0  0  0  0
    3.2041    2.4428   -6.9953 C   0  0  0  0  0  0  0  0  0  0  0  0
    3.1172    2.2798   -8.5186 C   0  0  0  0  0  0  0  0  0  0  0  0
    4.3725    2.8003   -9.2256 C   0  0  0  0  0  0  0  0  0  0  0  0
    4.3273    2.6375  -10.7479 C   0  0  0  0  0  0  0  0  0  0  0  0
    5.5797    3.1552  -11.4610 C   0  0  0  0  0  0  0  0  0  0  0  0
    5.5377    2.9927  -12.9837 C   0  0  0  0  0  0  0  0  0  0  0  0
    6.7917    3.5114  -13.6890 C   0  0  0  0  0  0  0  0  0  0  0  0
    0.7848    2.6644   -6.3749 C   0  0  0  0  0  0  0  0  0  0  0  0
    0.5546    3.9629   -6.8304 C   0  0  0  0  0  0  0  0  0  0  0  0
   -0.7637    4.4357   -6.7978 C   0  0  0  0  0  0  0  0  0  0  0  0
   -1.8090    3.6338   -6.3265 C   0  0  0  0  0  0  0  0  0  0  0  0
   -1.5542    2.3316   -5.8681 C   0  0  0  0  0  0  0  0  0  0  0  0
   -0.2494    1.8534   -5.8909 C   0  0  0  0  0  0  0  0  0  0  0  0
    0.3372    0.5252   -5.4506 C   0  0  2  0  0  0  0  0  0  0  0  0
    0.1336    0.2963   -3.9361 C   0  0  0  0  0  0  0  0  0  0  0  0
   -0.2430   -0.6517   -6.2651 C   0  0  0  0  0  0  0  0  0  0  0  0
    5.2584    0.5509   -4.7139 C   0  0  0  0  0  0  0  0  0  0  0  0
    5.4225    1.9014   -4.3329 C   0  0  0  0  0  0  0  0  0  0  0  0
    6.7256    2.4658   -4.2317 C   0  0  0  0  0  0  0  0  0  0  0  0
    7.8019    2.9127   -4.1806 N   0  0  0  0  0  0  0  0  0  0  0  0
    4.3140    2.7475   -4.0586 C   0  0  0  0  0  0  0  0  0  0  0  0
    3.4026    3.4369   -3.8231 N   0  0  0  0  0  0  0  0  0  0  0  0
    9.9970   -0.5589   -4.0302 C   0  0  1  0  0  0  0  0  0  0  0  0
   10.4300   -2.0362   -4.1426 C   0  0  0  0  0  0  0  0  0  0  0  0
   10.3026    0.2073   -5.3386 C   0  0  0  0  0  0  0  0  0  0  0  0
   10.6318    0.1279   -2.8369 C   0  0  0  0  0  0  0  0  0  0  0  0
   11.9652    0.3626   -2.5241 C   0  0  0  0  0  0  0  0  0  0  0  0
   12.2762    1.0637   -1.3487 C   0  0  0  0  0  0  0  0  0  0  0  0
   11.2549    1.5192   -0.5086 C   0  0  0  0  0  0  0  0  0  0  0  0
    9.9075    1.2828   -0.8108 C   0  0  0  0  0  0  0  0  0  0  0  0
    9.6182    0.5766   -1.9790 C   0  0  0  0  0  0  0  0  0  0  0  0
    4.7926    0.1262    5.1784 H   0  0  0  0  0  0  0  0  0  0  0  0
    4.6047   -1.4829    4.4444 H   0  0  0  0  0  0  0  0  0  0  0  0
    3.9452   -0.0505    3.6250 H   0  0  0  0  0  0  0  0  0  0  0  0
    6.9536   -0.5806    4.1140 H   0  0  0  0  0  0  0  0  0  0  0  0
    6.2988    0.8390    3.3017 H   0  0  0  0  0  0  0  0  0  0  0  0
    5.3359   -0.6339    1.5033 H   0  0  0  0  0  0  0  0  0  0  0  0
    5.9951   -2.0569    2.3074 H   0  0  0  0  0  0  0  0  0  0  0  0
    8.3236   -1.1404    2.0509 H   0  0  0  0  0  0  0  0  0  0  0  0
    7.6878    0.2732    1.2283 H   0  0  0  0  0  0  0  0  0  0  0  0
    7.3541   -2.6274    0.2479 H   0  0  0  0  0  0  0  0  0  0  0  0
    8.6585   -1.5726   -0.2729 H   0  0  0  0  0  0  0  0  0  0  0  0
    5.6760   -0.9385   -0.7218 H   0  0  0  0  0  0  0  0  0  0  0  0
    6.6635   -1.8181   -1.8749 H   0  0  0  0  0  0  0  0  0  0  0  0
    7.2504    1.0680   -0.9724 H   0  0  0  0  0  0  0  0  0  0  0  0
    6.3128    0.6282   -2.3782 H   0  0  0  0  0  0  0  0  0  0  0  0
    7.8289   -1.7673   -5.1609 H   0  0  0  0  0  0  0  0  0  0  0  0
    2.3661   -1.2633   -5.4573 H   0  0  0  0  0  0  0  0  0  0  0  0
    4.0693    1.8953   -6.6124 H   0  0  0  0  0  0  0  0  0  0  0  0
    3.3552    3.4939   -6.7082 H   0  0  0  0  0  0  0  0  0  0  0  0
    2.2278    2.8057   -8.9053 H   0  0  0  0  0  0  0  0  0  0  0  0
    2.9728    1.2105   -8.7526 H   0  0  0  0  0  0  0  0  0  0  0  0
    5.2609    2.2769   -8.8276 H   0  0  0  0  0  0  0  0  0  0  0  0
    4.5181    3.8675   -8.9758 H   0  0  0  0  0  0  0  0  0  0  0  0
    3.4378    3.1614  -11.1448 H   0  0  0  0  0  0  0  0  0  0  0  0
    4.1808    1.5698  -10.9955 H   0  0  0  0  0  0  0  0  0  0  0  0
    6.4688    2.6314  -11.0629 H   0  0  0  0  0  0  0  0  0  0  0  0
    5.7268    4.2229  -11.2123 H   0  0  0  0  0  0  0  0  0  0  0  0
    4.6483    3.5160  -13.3799 H   0  0  0  0  0  0  0  0  0  0  0  0
    5.3904    1.9253  -13.2303 H   0  0  0  0  0  0  0  0  0  0  0  0
    6.9465    4.5858  -13.4933 H   0  0  0  0  0  0  0  0  0  0  0  0
    6.7270    3.3785  -14.7808 H   0  0  0  0  0  0  0  0  0  0  0  0
    7.6948    2.9815  -13.3424 H   0  0  0  0  0  0  0  0  0  0  0  0
    1.3644    4.5987   -7.1893 H   0  0  0  0  0  0  0  0  0  0  0  0
   -0.9738    5.4509   -7.1431 H   0  0  0  0  0  0  0  0  0  0  0  0
   -2.8284    4.0258   -6.3090 H   0  0  0  0  0  0  0  0  0  0  0  0
   -2.3727    1.7105   -5.4947 H   0  0  0  0  0  0  0  0  0  0  0  0
    0.5627    1.1243   -3.3527 H   0  0  0  0  0  0  0  0  0  0  0  0
    0.6172   -0.6395   -3.6165 H   0  0  0  0  0  0  0  0  0  0  0  0
   -0.9411    0.2285   -3.7050 H   0  0  0  0  0  0  0  0  0  0  0  0
   -0.0840   -0.5097   -7.3446 H   0  0  0  0  0  0  0  0  0  0  0  0
   -1.3268   -0.7299   -6.0869 H   0  0  0  0  0  0  0  0  0  0  0  0
    0.2169   -1.6065   -5.9677 H   0  0  0  0  0  0  0  0  0  0  0  0
    9.9318   -2.5333   -4.9891 H   0  0  0  0  0  0  0  0  0  0  0  0
   10.1970   -2.5952   -3.2238 H   0  0  0  0  0  0  0  0  0  0  0  0
   11.5165   -2.0945   -4.3118 H   0  0  0  0  0  0  0  0  0  0  0  0
    9.7911   -0.2663   -6.1907 H   0  0  0  0  0  0  0  0  0  0  0  0
   11.3864    0.2001   -5.5351 H   0  0  0  0  0  0  0  0  0  0  0  0
    9.9635    1.2512   -5.2670 H   0  0  0  0  0  0  0  0  0  0  0  0
   12.7640    0.0151   -3.1846 H   0  0  0  0  0  0  0  0  0  0  0  0
   13.3196    1.2619   -1.0933 H   0  0  0  0  0  0  0  0  0  0  0  0
   11.5063    2.0740    0.3986 H   0  0  0  0  0  0  0  0  0  0  0  0
    9.1234    1.6524   -0.1502 H   0  0  0  0  0  0  0  0  0  0  0  0
  1  2  1  0
  1 49  1  0
  1 50  1  0
  1 51  1  0
  2  3  1  0
  2 52  1  0
  2 53  1  0
  3  4  1  0
  3 54  1  0
  3 55  1  0
  4  5  1  0
  4 56  1  0
  4 57  1  0
  5  6  1  0
  5 58  1  0
  5 59  1  0
  6  7  1  0
  6 60  1  0
  6 61  1  0
  7  8  1  0
  7 62  1  0
  7 63  1  0
  8  9  1  0
  8 48  1  0
  9 10  2  0
  9 40  1  0
 10 11  1  0
 10 64  1  0
 11 12  2  0
 11 34  1  0
 12 13  1  0
 12 14  1  0
 14 15  2  0
 14 34  1  0
 15 16  1  0
 15 65  1  0
 16 17  2  0
 16 31  1  0
 17 18  1  0
 17 25  1  0
 18 19  1  0
 18 66  1  0
 18 67  1  0
 19 20  1  0
 19 68  1  0
 19 69  1  0
 20 21  1  0
 20 70  1  0
 20 71  1  0
 21 22  1  0
 21 72  1  0
 21 73  1  0
 22 23  1  0
 22 74  1  0
 22 75  1  0
 23 24  1  0
 23 76  1  0
 23 77  1  0
 24 78  1  0
 24 79  1  0
 24 80  1  0
 25 26  1  0
 25 30  2  0
 26 27  2  0
 26 81  1  0
 27 28  1  0
 27 82  1  0
 28 29  2  0
 28 83  1  0
 29 30  1  0
 29 84  1  0
 30 31  1  0
 31 32  1  1
 31 33  1  0
 32 85  1  0
 32 86  1  0
 32 87  1  0
 33 88  1  0
 33 89  1  0
 33 90  1  0
 34 35  2  0
 35 36  1  0
 35 38  1  0
 36 37  3  0
 38 39  3  0
 40 41  1  6
 40 42  1  0
 40 43  1  0
 41 91  1  0
 41 92  1  0
 41 93  1  0
 42 94  1  0
 42 95  1  0
 42 96  1  0
 43 44  2  0
 43 48  1  0
 44 45  1  0
 44 97  1  0
 45 46  2  0
 45 98  1  0
 46 47  1  0
 46 99  1  0
 47 48  2  0
 47100  1  0
M  CHG  2  13  -1  17   1
M  END

