
     RDKit          3D

 57 58  0  0  0  0  0  0  0  0999 V2000
    0.5658   -1.1206   -1.2011 C   0  0  0  0  0  0  0  0  0  0  0  0
    1.9145   -1.2327   -1.9020 C   0  0  0  0  0  0  0  0  0  0  0  0
    3.0052   -1.0875   -0.9430 N   0  0  0  0  0  0  0  0  0  0  0  0
    4.3408   -0.9163   -1.2996 C   0  0  0  0  0  0  0  0  0  0  0  0
    5.2430   -0.3146   -0.6030 N   0  0  0  0  0  0  0  0  0  0  0  0
    4.9319    0.4184    0.5964 C   0  0  0  0  0  0  0  0  0  0  0  0
    5.6645   -0.0724    1.8737 C   0  0  1  0  0  0  0  0  0  0  0  0
    7.4284    0.5818    1.8492 S   0  0  1  0  0  0  0  0  0  0  0  0
    8.2912   -0.2380    0.4991 C   0  0  0  0  0  0  0  0  0  0  0  0
    7.3472    2.0191    1.5214 O   0  0  0  0  0  0  0  0  0  0  0  0
    8.0781    0.1598    3.1064 O   0  0  0  0  0  0  0  0  0  0  0  0
    5.0593    0.5891    3.1338 C   0  0  0  0  0  0  0  0  0  0  0  0
    3.7625   -0.1011    3.5697 C   0  0  0  0  0  0  0  0  0  0  0  0
    3.9267   -1.4910    3.7413 O   0  0  0  0  0  0  0  0  0  0  0  0
    4.3526   -2.1334    2.5583 C   0  0  0  0  0  0  0  0  0  0  0  0
    5.7000   -1.5967    2.0639 C   0  0  0  0  0  0  0  0  0  0  0  0
    4.6525   -1.4834   -2.5210 N   0  0  0  0  0  0  0  0  0  0  0  0
    5.9538   -1.4386   -3.1821 C   0  0  1  0  0  0  0  0  0  0  0  0
    6.3721   -0.0017   -3.5292 C   0  0  0  0  0  0  0  0  0  0  0  0
    7.0377   -2.2688   -2.4783 C   0  0  0  0  0  0  0  0  0  0  0  0
    8.4033   -2.0770   -2.7348 C   0  0  0  0  0  0  0  0  0  0  0  0
    9.3703   -2.8954   -2.1405 C   0  0  0  0  0  0  0  0  0  0  0  0
    9.0269   -3.9330   -1.2641 C   0  0  0  0  0  0  0  0  0  0  0  0
   10.0393   -4.8291   -0.6015 C   0  0  0  0  0  0  0  0  0  0  0  0
    7.6576   -4.1023   -1.0264 C   0  0  0  0  0  0  0  0  0  0  0  0
    7.2718   -5.0812   -0.1838 F   0  0  0  0  0  0  0  0  0  0  0  0
    6.6780   -3.3089   -1.6094 C   0  0  0  0  0  0  0  0  0  0  0  0
   -0.2559   -1.2529   -1.9206 H   0  0  0  0  0  0  0  0  0  0  0  0
    0.4418   -0.1302   -0.7321 H   0  0  0  0  0  0  0  0  0  0  0  0
    0.4623   -1.8878   -0.4175 H   0  0  0  0  0  0  0  0  0  0  0  0
    1.9864   -0.4775   -2.7082 H   0  0  0  0  0  0  0  0  0  0  0  0
    1.9705   -2.2217   -2.3936 H   0  0  0  0  0  0  0  0  0  0  0  0
    2.7466   -0.5926   -0.0986 H   0  0  0  0  0  0  0  0  0  0  0  0
    3.8520    0.4518    0.8495 H   0  0  0  0  0  0  0  0  0  0  0  0
    5.2257    1.4750    0.4665 H   0  0  0  0  0  0  0  0  0  0  0  0
    7.6978   -0.1284   -0.4153 H   0  0  0  0  0  0  0  0  0  0  0  0
    8.4381   -1.2956    0.7480 H   0  0  0  0  0  0  0  0  0  0  0  0
    9.2555    0.2847    0.4373 H   0  0  0  0  0  0  0  0  0  0  0  0
    4.8812    1.6615    2.9547 H   0  0  0  0  0  0  0  0  0  0  0  0
    5.7881    0.5099    3.9547 H   0  0  0  0  0  0  0  0  0  0  0  0
    2.9465    0.0980    2.8412 H   0  0  0  0  0  0  0  0  0  0  0  0
    3.4332    0.3022    4.5394 H   0  0  0  0  0  0  0  0  0  0  0  0
    3.5814   -2.0333    1.7655 H   0  0  0  0  0  0  0  0  0  0  0  0
    4.4385   -3.2050    2.7944 H   0  0  0  0  0  0  0  0  0  0  0  0
    5.9742   -2.0962    1.1223 H   0  0  0  0  0  0  0  0  0  0  0  0
    6.4652   -1.8353    2.8194 H   0  0  0  0  0  0  0  0  0  0  0  0
    4.0020   -2.1717   -2.8718 H   0  0  0  0  0  0  0  0  0  0  0  0
    5.7726   -1.9478   -4.1464 H   0  0  0  0  0  0  0  0  0  0  0  0
    6.6331    0.5668   -2.6278 H   0  0  0  0  0  0  0  0  0  0  0  0
    5.5350    0.5068   -4.0305 H   0  0  0  0  0  0  0  0  0  0  0  0
    7.2265    0.0056   -4.2211 H   0  0  0  0  0  0  0  0  0  0  0  0
    8.7327   -1.2827   -3.4057 H   0  0  0  0  0  0  0  0  0  0  0  0
   10.4274   -2.7210   -2.3603 H   0  0  0  0  0  0  0  0  0  0  0  0
   11.0618   -4.5568   -0.8994 H   0  0  0  0  0  0  0  0  0  0  0  0
    9.8734   -5.8862   -0.8669 H   0  0  0  0  0  0  0  0  0  0  0  0
    9.9733   -4.7666    0.4971 H   0  0  0  0  0  0  0  0  0  0  0  0
    5.6341   -3.5089   -1.3655 H   0  0  0  0  0  0  0  0  0  0  0  0
  1  2  1  0
  1 28  1  0
  1 29  1  0
  1 30  1  0
  2  3  1  0
  2 31  1  0
  2 32  1  0
  3  4  1  0
  3 33  1  0
  4  5  2  0
  4 17  1  0
  5  6  1  0
  7  6  1  6
  6 34  1  0
  6 35  1  0
  7  8  1  0
  7 12  1  0
  7 16  1  0
  8  9  1  6
  8 10  2  0
  8 11  2  0
  9 36  1  0
  9 37  1  0
  9 38  1  0
 12 13  1  0
 12 39  1  0
 12 40  1  0
 13 14  1  0
 13 41  1  0
 13 42  1  0
 14 15  1  0
 15 16  1  0
 15 43  1  0
 15 44  1  0
 16 45  1  0
 16 46  1  0
 17 18  1  0
 17 47  1  0
 18 19  1  0
 18 20  1  0
 18 48  1  6
 19 49  1  0
 19 50  1  0
 19 51  1  0
 20 21  2  0
 20 27  1  0
 21 22  1  0
 21 52  1  0
 22 23  2  0
 22 53  1  0
 23 24  1  0
 23 25  1  0
 24 54  1  0
 24 55  1  0
 24 56  1  0
 25 26  1  0
 25 27  2  0
 27 57  1  0
M  END

