
     RDKit          3D

 37 38  0  0  0  0  0  0  0  0999 V2000
    1.7622    0.4810   -3.4210 C   0  0  0  0  0  0  0  0  0  0  0  0
    2.9370    0.7750   -2.6342 N   0  0  0  0  0  0  0  0  0  0  0  0
    3.3259    0.0281   -1.5659 C   0  0  0  0  0  0  0  0  0  0  0  0
    2.7429   -0.9640   -1.1617 O   0  0  0  0  0  0  0  0  0  0  0  0
    4.5673    0.5746   -0.8457 C   0  0  0  0  0  0  0  0  0  0  0  0
    5.4058    1.4296   -1.6621 N   0  0  0  0  0  0  0  0  0  0  0  0
    6.2840    0.7366   -2.6022 C   0  0  0  0  0  0  0  0  0  0  0  0
    7.1893    1.8525   -3.1447 C   0  0  0  0  0  0  0  0  0  0  0  0
    7.2105    2.9511   -2.0236 C   0  0  2  0  0  0  0  0  0  0  0  0
    6.6163    4.2862   -2.5341 C   0  0  0  0  0  0  0  0  0  0  0  0
    7.5179    5.0028   -3.5467 C   0  0  0  0  0  0  0  0  0  0  0  0
    8.9170    5.2457   -2.9680 C   0  0  0  0  0  0  0  0  0  0  0  0
    9.5436    3.9387   -2.4668 C   0  0  0  0  0  0  0  0  0  0  0  0
    8.6284    3.2128   -1.4715 C   0  0  0  0  0  0  0  0  0  0  0  0
    6.2929    2.3341   -0.9378 C   0  0  0  0  0  0  0  0  0  0  0  0
    1.0085    1.2848   -3.3495 H   0  0  0  0  0  0  0  0  0  0  0  0
    1.3218   -0.4466   -3.0308 H   0  0  0  0  0  0  0  0  0  0  0  0
    2.0111    0.3360   -4.4863 H   0  0  0  0  0  0  0  0  0  0  0  0
    3.5226    1.5808   -2.8373 H   0  0  0  0  0  0  0  0  0  0  0  0
    5.1049   -0.3004   -0.4241 H   0  0  0  0  0  0  0  0  0  0  0  0
    4.1933    1.1559    0.0148 H   0  0  0  0  0  0  0  0  0  0  0  0
    5.7039    0.2211   -3.3837 H   0  0  0  0  0  0  0  0  0  0  0  0
    6.8880   -0.0386   -2.0782 H   0  0  0  0  0  0  0  0  0  0  0  0
    6.7764    2.2595   -4.0803 H   0  0  0  0  0  0  0  0  0  0  0  0
    8.1945    1.4720   -3.3802 H   0  0  0  0  0  0  0  0  0  0  0  0
    6.4653    4.9536   -1.6657 H   0  0  0  0  0  0  0  0  0  0  0  0
    5.6162    4.1002   -2.9607 H   0  0  0  0  0  0  0  0  0  0  0  0
    7.0553    5.9571   -3.8502 H   0  0  0  0  0  0  0  0  0  0  0  0
    7.6034    4.3988   -4.4684 H   0  0  0  0  0  0  0  0  0  0  0  0
    8.8418    5.9591   -2.1261 H   0  0  0  0  0  0  0  0  0  0  0  0
    9.5695    5.7210   -3.7198 H   0  0  0  0  0  0  0  0  0  0  0  0
   10.5226    4.1361   -1.9986 H   0  0  0  0  0  0  0  0  0  0  0  0
    9.7463    3.2795   -3.3306 H   0  0  0  0  0  0  0  0  0  0  0  0
    8.5391    3.8253   -0.5545 H   0  0  0  0  0  0  0  0  0  0  0  0
    9.0853    2.2578   -1.1586 H   0  0  0  0  0  0  0  0  0  0  0  0
    5.7150    3.0928   -0.3852 H   0  0  0  0  0  0  0  0  0  0  0  0
    6.9092    1.7795   -0.1936 H   0  0  0  0  0  0  0  0  0  0  0  0
  1  2  1  0
  1 16  1  0
  1 17  1  0
  1 18  1  0
  2  3  1  0
  2 19  1  0
  3  4  2  0
  3  5  1  0
  5  6  1  0
  5 20  1  0
  5 21  1  0
  6  7  1  0
  6 15  1  0
  7  8  1  0
  7 22  1  0
  7 23  1  0
  9  8  1  6
  8 24  1  0
  8 25  1  0
  9 10  1  0
  9 14  1  0
  9 15  1  0
 10 11  1  0
 10 26  1  0
 10 27  1  0
 11 12  1  0
 11 28  1  0
 11 29  1  0
 12 13  1  0
 12 30  1  0
 12 31  1  0
 13 14  1  0
 13 32  1  0
 13 33  1  0
 14 34  1  0
 14 35  1  0
 15 36  1  0
 15 37  1  0
M  END

