
     RDKit          3D

 26 26  0  0  0  0  0  0  0  0999 V2000
    2.0580   -0.0002    1.3804 C   0  0  0  0  0  0  0  0  0  0  0  0
    2.3569   -0.1545   -0.3901 S   0  0  1  0  0  0  0  0  0  0  0  0
    1.0529   -0.2626   -1.0556 O   0  0  0  0  0  0  0  0  0  0  0  0
    3.3234    0.8746   -0.8011 O   0  0  0  0  0  0  0  0  0  0  0  0
    3.1955   -1.7697   -0.5360 C   0  0  0  0  0  0  0  0  0  0  0  0
    4.2893   -1.8728   -1.3942 C   0  0  0  0  0  0  0  0  0  0  0  0
    4.8568   -3.1421   -1.5730 C   0  0  0  0  0  0  0  0  0  0  0  0
    6.0745   -3.3437   -2.4589 C   0  0  1  0  0  0  0  0  0  0  0  0
    6.0066   -4.3783   -2.8702 H   0  0  0  0  0  0  0  0  0  0  0  0
    6.1800   -2.3176   -3.4771 N   0  0  0  0  0  0  0  0  0  0  0  0
    7.3638   -3.3019   -1.6088 C   0  0  0  0  0  0  0  0  0  0  0  0
    8.5200   -3.4739   -2.3991 O   0  0  0  0  0  0  0  0  0  0  0  0
    4.2878   -4.2102   -0.8639 C   0  0  0  0  0  0  0  0  0  0  0  0
    3.2022   -3.9772   -0.0148 C   0  0  0  0  0  0  0  0  0  0  0  0
    2.6536   -2.7702    0.1451 N   0  0  0  0  0  0  0  0  0  0  0  0
    1.4655    0.9187    1.4875 H   0  0  0  0  0  0  0  0  0  0  0  0
    3.0201    0.0888    1.9009 H   0  0  0  0  0  0  0  0  0  0  0  0
    1.4922   -0.8797    1.7100 H   0  0  0  0  0  0  0  0  0  0  0  0
    4.6878   -1.0010   -1.9140 H   0  0  0  0  0  0  0  0  0  0  0  0
    5.4984   -2.4489   -4.2228 H   0  0  0  0  0  0  0  0  0  0  0  0
    7.1131   -2.3476   -3.8873 H   0  0  0  0  0  0  0  0  0  0  0  0
    7.2988   -4.0493   -0.7959 H   0  0  0  0  0  0  0  0  0  0  0  0
    7.4454   -2.3057   -1.1462 H   0  0  0  0  0  0  0  0  0  0  0  0
    8.5672   -4.3979   -2.6793 H   0  0  0  0  0  0  0  0  0  0  0  0
    4.6819   -5.2246   -0.9722 H   0  0  0  0  0  0  0  0  0  0  0  0
    2.7536   -4.8004    0.5523 H   0  0  0  0  0  0  0  0  0  0  0  0
  2  1  1  1
  1 16  1  0
  1 17  1  0
  1 18  1  0
  2  3  2  0
  2  4  2  0
  2  5  1  0
  5  6  2  0
  5 15  1  0
  6  7  1  0
  6 19  1  0
  7  8  1  0
  7 13  2  0
  8  9  1  6
  8 10  1  0
  8 11  1  0
 10 20  1  0
 10 21  1  0
 11 12  1  0
 11 22  1  0
 11 23  1  0
 12 24  1  0
 13 14  1  0
 13 25  1  0
 14 15  2  0
 14 26  1  0
M  END

