
     RDKit          3D

 50 54  0  0  0  0  0  0  0  0999 V2000
    1.6112   -0.2225    2.2088 C   0  0  0  0  0  0  0  0  0  0  0  0
    2.9457   -0.1423    1.5094 C   0  0  0  0  0  0  0  0  0  0  0  0
    3.2986    0.9623    0.7224 C   0  0  0  0  0  0  0  0  0  0  0  0
    4.5325    1.0217    0.0690 C   0  0  0  0  0  0  0  0  0  0  0  0
    5.4641   -0.0256    0.1744 C   0  0  0  0  0  0  0  0  0  0  0  0
    6.7946    0.0839   -0.4877 C   0  0  0  0  0  0  0  0  0  0  0  0
    7.5353    1.2485   -0.3319 C   0  0  0  0  0  0  0  0  0  0  0  0
    8.8077    1.3853   -0.9206 C   0  0  0  0  0  0  0  0  0  0  0  0
    9.6714    2.5376   -0.8125 C   0  0  0  0  0  0  0  0  0  0  0  0
    9.3080    3.6423   -0.1109 N   0  0  0  0  0  0  0  0  0  0  0  0
   10.8508    2.5579   -1.4166 N   0  0  0  0  0  0  0  0  0  0  0  0
   11.2045    1.4625   -2.1236 C   0  0  0  0  0  0  0  0  0  0  0  0
   10.5289    0.3493   -2.2908 N   0  0  0  0  0  0  0  0  0  0  0  0
    9.3123    0.2917   -1.6857 C   0  0  0  0  0  0  0  0  0  0  0  0
    8.5866   -0.8376   -1.8418 N   0  0  0  0  0  0  0  0  0  0  0  0
    7.3940   -0.9568   -1.2884 C   0  0  0  0  0  0  0  0  0  0  0  0
    6.6687   -2.2291   -1.6137 C   0  0  0  0  0  0  0  0  0  0  0  0
    5.4123   -2.1435   -2.2365 C   0  0  0  0  0  0  0  0  0  0  0  0
    4.7406   -3.2823   -2.6801 C   0  0  0  0  0  0  0  0  0  0  0  0
    5.3227   -4.5380   -2.4949 C   0  0  0  0  0  0  0  0  0  0  0  0
    6.5661   -4.6377   -1.8698 C   0  0  0  0  0  0  0  0  0  0  0  0
    7.2626   -3.5014   -1.4188 C   0  0  0  0  0  0  0  0  0  0  0  0
    8.5763   -3.6995   -0.7386 C   0  0  0  0  0  0  0  0  0  0  0  0
    9.5724   -4.4861   -1.3432 C   0  0  0  0  0  0  0  0  0  0  0  0
   10.7899   -4.7224   -0.7010 C   0  0  0  0  0  0  0  0  0  0  0  0
   11.0346   -4.1830    0.5647 C   0  0  0  0  0  0  0  0  0  0  0  0
   10.0514   -3.4034    1.1810 C   0  0  0  0  0  0  0  0  0  0  0  0
    8.8370   -3.1638    0.5349 C   0  0  0  0  0  0  0  0  0  0  0  0
    5.1078   -1.1363    0.9628 C   0  0  0  0  0  0  0  0  0  0  0  0
    3.8788   -1.1881    1.6169 C   0  0  0  0  0  0  0  0  0  0  0  0
    1.0500    0.7195    2.1213 H   0  0  0  0  0  0  0  0  0  0  0  0
    1.7327   -0.4467    3.2814 H   0  0  0  0  0  0  0  0  0  0  0  0
    0.9851   -1.0253    1.7832 H   0  0  0  0  0  0  0  0  0  0  0  0
    2.5939    1.7916    0.6112 H   0  0  0  0  0  0  0  0  0  0  0  0
    4.7675    1.8903   -0.5519 H   0  0  0  0  0  0  0  0  0  0  0  0
    7.1161    2.0511    0.2807 H   0  0  0  0  0  0  0  0  0  0  0  0
    8.5078    3.6490    0.5030 H   0  0  0  0  0  0  0  0  0  0  0  0
   10.0008    4.3745   -0.0155 H   0  0  0  0  0  0  0  0  0  0  0  0
   12.1864    1.5229   -2.6115 H   0  0  0  0  0  0  0  0  0  0  0  0
    4.9666   -1.1597   -2.3978 H   0  0  0  0  0  0  0  0  0  0  0  0
    3.7697   -3.1869   -3.1724 H   0  0  0  0  0  0  0  0  0  0  0  0
    4.8081   -5.4418   -2.8312 H   0  0  0  0  0  0  0  0  0  0  0  0
    7.0100   -5.6225   -1.7054 H   0  0  0  0  0  0  0  0  0  0  0  0
    9.3973   -4.8957   -2.3408 H   0  0  0  0  0  0  0  0  0  0  0  0
   11.5549   -5.3255   -1.1970 H   0  0  0  0  0  0  0  0  0  0  0  0
   11.9874   -4.3670    1.0678 H   0  0  0  0  0  0  0  0  0  0  0  0
   10.2289   -2.9807    2.1735 H   0  0  0  0  0  0  0  0  0  0  0  0
    8.0758   -2.5594    1.0334 H   0  0  0  0  0  0  0  0  0  0  0  0
    5.8048   -1.9685    1.0737 H   0  0  0  0  0  0  0  0  0  0  0  0
    3.6382   -2.0627    2.2285 H   0  0  0  0  0  0  0  0  0  0  0  0
  1  2  1  0
  1 31  1  0
  1 32  1  0
  1 33  1  0
  2  3  2  0
  2 30  1  0
  3  4  1  0
  3 34  1  0
  4  5  2  0
  4 35  1  0
  5  6  1  0
  5 29  1  0
  6  7  2  0
  6 16  1  0
  7  8  1  0
  7 36  1  0
  8  9  2  0
  8 14  1  0
  9 10  1  0
  9 11  1  0
 10 37  1  0
 10 38  1  0
 11 12  2  0
 12 13  1  0
 12 39  1  0
 13 14  2  0
 14 15  1  0
 15 16  2  0
 16 17  1  0
 17 18  2  0
 17 22  1  0
 18 19  1  0
 18 40  1  0
 19 20  2  0
 19 41  1  0
 20 21  1  0
 20 42  1  0
 21 22  2  0
 21 43  1  0
 22 23  1  0
 23 24  2  0
 23 28  1  0
 24 25  1  0
 24 44  1  0
 25 26  2  0
 25 45  1  0
 26 27  1  0
 26 46  1  0
 27 28  2  0
 27 47  1  0
 28 48  1  0
 29 30  2  0
 29 49  1  0
 30 50  1  0
M  END

