
     RDKit          3D

 40 40  0  0  0  0  0  0  0  0999 V2000
    0.9950    0.1944   -0.1262 C   0  0  0  0  0  0  0  0  0  0  0  0
    2.4494   -0.0242    0.2459 C   0  0  0  0  0  0  0  0  0  0  0  0
    3.0134    1.2339    0.5732 O   0  0  0  0  0  0  0  0  0  0  0  0
    4.3186    1.3203    0.9415 C   0  0  0  0  0  0  0  0  0  0  0  0
    4.7804    2.6099    1.2360 C   0  0  0  0  0  0  0  0  0  0  0  0
    6.1120    2.7942    1.6253 C   0  0  0  0  0  0  0  0  0  0  0  0
    6.6180    4.0151    1.9448 O   0  0  0  0  0  0  0  0  0  0  0  0
    5.8101    5.1756    1.8327 C   0  0  0  0  0  0  0  0  0  0  0  0
    6.6541    6.3758    2.2175 C   0  0  0  0  0  0  0  0  0  0  0  0
    7.0151    1.7109    1.7183 C   0  0  0  0  0  0  0  0  0  0  0  0
    8.4676    1.9338    2.1357 C   0  0  1  0  0  0  0  0  0  0  0  0
    8.7012    1.5923    3.6147 C   0  0  0  0  0  0  0  0  0  0  0  0
    9.3884    1.2611    1.2932 O   0  0  0  0  0  0  0  0  0  0  0  0
    6.5096    0.4323    1.4318 C   0  0  0  0  0  0  0  0  0  0  0  0
    7.4020   -0.6027    1.5561 O   0  0  0  0  0  0  0  0  0  0  0  0
    7.0016   -1.9401    1.2930 C   0  0  0  0  0  0  0  0  0  0  0  0
    8.1954   -2.8482    1.5198 C   0  0  0  0  0  0  0  0  0  0  0  0
    5.1772    0.2180    1.0360 C   0  0  0  0  0  0  0  0  0  0  0  0
    0.5184   -0.7642   -0.3840 H   0  0  0  0  0  0  0  0  0  0  0  0
    0.9124    0.8693   -0.9919 H   0  0  0  0  0  0  0  0  0  0  0  0
    0.4431    0.6438    0.7136 H   0  0  0  0  0  0  0  0  0  0  0  0
    3.0040   -0.4810   -0.5962 H   0  0  0  0  0  0  0  0  0  0  0  0
    2.5316   -0.7140    1.1076 H   0  0  0  0  0  0  0  0  0  0  0  0
    4.0735    3.4328    1.1553 H   0  0  0  0  0  0  0  0  0  0  0  0
    4.9291    5.0878    2.4959 H   0  0  0  0  0  0  0  0  0  0  0  0
    5.4345    5.2754    0.7971 H   0  0  0  0  0  0  0  0  0  0  0  0
    7.0240    6.2769    3.2496 H   0  0  0  0  0  0  0  0  0  0  0  0
    6.0565    7.2980    2.1486 H   0  0  0  0  0  0  0  0  0  0  0  0
    7.5228    6.4723    1.5485 H   0  0  0  0  0  0  0  0  0  0  0  0
    8.6798    3.0028    1.9995 H   0  0  0  0  0  0  0  0  0  0  0  0
    8.4704    0.5339    3.8149 H   0  0  0  0  0  0  0  0  0  0  0  0
    8.0669    2.2124    4.2683 H   0  0  0  0  0  0  0  0  0  0  0  0
    9.7568    1.7727    3.8731 H   0  0  0  0  0  0  0  0  0  0  0  0
    9.1211    0.3308    1.2912 H   0  0  0  0  0  0  0  0  0  0  0  0
    6.6373   -2.0264    0.2526 H   0  0  0  0  0  0  0  0  0  0  0  0
    6.1671   -2.2180    1.9629 H   0  0  0  0  0  0  0  0  0  0  0  0
    9.0222   -2.5897    0.8401 H   0  0  0  0  0  0  0  0  0  0  0  0
    7.9129   -3.8961    1.3340 H   0  0  0  0  0  0  0  0  0  0  0  0
    8.5594   -2.7658    2.5554 H   0  0  0  0  0  0  0  0  0  0  0  0
    4.8217   -0.7829    0.8122 H   0  0  0  0  0  0  0  0  0  0  0  0
  1  2  1  0
  1 19  1  0
  1 20  1  0
  1 21  1  0
  2  3  1  0
  2 22  1  0
  2 23  1  0
  3  4  1  0
  4  5  2  0
  4 18  1  0
  5  6  1  0
  5 24  1  0
  6  7  1  0
  6 10  2  0
  7  8  1  0
  8  9  1  0
  8 25  1  0
  8 26  1  0
  9 27  1  0
  9 28  1  0
  9 29  1  0
 10 11  1  0
 10 14  1  0
 11 12  1  0
 11 13  1  0
 11 30  1  1
 12 31  1  0
 12 32  1  0
 12 33  1  0
 13 34  1  0
 14 15  1  0
 14 18  2  0
 15 16  1  0
 16 17  1  0
 16 35  1  0
 16 36  1  0
 17 37  1  0
 17 38  1  0
 17 39  1  0
 18 40  1  0
M  END

