
     RDKit          3D

 73 82  0  0  0  0  0  0  0  0999 V2000
    2.8619   -1.2542   -0.4377 O   0  0  0  0  0  0  0  0  0  0  0  0
    2.0882   -0.0110   -0.3587 S   0  0  2  0  0  0  0  0  0  0  0  0
    0.6321   -0.0717   -0.1978 O   0  0  0  0  0  0  0  0  0  0  0  0
    2.5296    1.0978   -1.7115 C   0  0  0  0  0  0  0  0  0  0  0  0
    2.2676    0.8819   -3.0575 C   0  0  0  0  0  0  0  0  0  0  0  0
    2.6878    1.8579   -3.9701 C   0  0  0  0  0  0  0  0  0  0  0  0
    3.3487    3.0082   -3.5206 C   0  0  0  0  0  0  0  0  0  0  0  0
    3.6026    3.2079   -2.1588 C   0  0  0  0  0  0  0  0  0  0  0  0
    3.1894    2.2414   -1.2353 C   0  0  0  0  0  0  0  0  0  0  0  0
    3.3511    2.2468    0.2367 C   0  0  0  0  0  0  0  0  0  0  0  0
    3.9678    3.2155    1.0313 C   0  0  0  0  0  0  0  0  0  0  0  0
    4.0240    3.0390    2.4252 C   0  0  0  0  0  0  0  0  0  0  0  0
    4.6401    4.0235    3.2330 N   0  0  0  0  0  0  0  0  0  0  0  0
    5.6735    3.8017    4.1548 C   0  0  0  0  0  0  0  0  0  0  0  0
    6.3468    2.6161    4.4744 C   0  0  0  0  0  0  0  0  0  0  0  0
    7.3696    2.6826    5.4222 C   0  0  0  0  0  0  0  0  0  0  0  0
    7.7227    3.8980    6.0367 C   0  0  0  0  0  0  0  0  0  0  0  0
    7.0599    5.0787    5.7042 C   0  0  0  0  0  0  0  0  0  0  0  0
    6.0288    5.0395    4.7548 C   0  0  0  0  0  0  0  0  0  0  0  0
    5.1680    6.0522    4.1724 C   0  0  0  0  0  0  0  0  0  0  0  0
    5.0390    7.4320    4.3703 C   0  0  0  0  0  0  0  0  0  0  0  0
    4.0786    8.1634    3.6543 C   0  0  0  0  0  0  0  0  0  0  0  0
    3.9300    9.6313    3.8476 C   0  0  0  0  0  0  0  0  0  0  0  0
    4.0795   10.2094    5.1332 C   0  0  0  0  0  0  0  0  0  0  0  0
    3.9488   11.5780    5.3584 C   0  0  0  0  0  0  0  0  0  0  0  0
    3.6525   12.4008    4.2649 C   0  0  0  0  0  0  0  0  0  0  0  0
    3.5059   11.8554    2.9619 C   0  0  0  0  0  0  0  0  0  0  0  0
    3.6439   10.4763    2.7642 C   0  0  0  0  0  0  0  0  0  0  0  0
    3.2450   12.9699    2.0710 C   0  0  0  0  0  0  0  0  0  0  0  0
    3.0033   13.0729    0.6934 C   0  0  0  0  0  0  0  0  0  0  0  0
    2.7601   14.3283    0.1379 C   0  0  0  0  0  0  0  0  0  0  0  0
    2.7493   15.4792    0.9485 C   0  0  0  0  0  0  0  0  0  0  0  0
    2.9869   15.4050    2.3216 C   0  0  0  0  0  0  0  0  0  0  0  0
    3.2431   14.1433    2.8737 C   0  0  0  0  0  0  0  0  0  0  0  0
    3.4913   13.7871    4.2033 N   0  0  0  0  0  0  0  0  0  0  0  0
    3.5701   14.6825    5.3040 C   0  0  0  0  0  0  0  0  0  0  0  0
    2.7157   14.5229    6.4057 C   0  0  0  0  0  0  0  0  0  0  0  0
    2.8026   15.3988    7.4904 C   0  0  0  0  0  0  0  0  0  0  0  0
    3.7261   16.4487    7.4777 C   0  0  0  0  0  0  0  0  0  0  0  0
    4.5714   16.6138    6.3762 C   0  0  0  0  0  0  0  0  0  0  0  0
    4.5030   15.7308    5.2960 C   0  0  0  0  0  0  0  0  0  0  0  0
    3.2453    7.4679    2.7432 C   0  0  0  0  0  0  0  0  0  0  0  0
    3.3544    6.0958    2.5247 C   0  0  0  0  0  0  0  0  0  0  0  0
    4.3309    5.3905    3.2376 C   0  0  0  0  0  0  0  0  0  0  0  0
    3.4703    1.8884    3.0169 C   0  0  0  0  0  0  0  0  0  0  0  0
    2.8673    0.9059    2.2264 C   0  0  0  0  0  0  0  0  0  0  0  0
    2.8150    1.1062    0.8537 C   0  0  0  0  0  0  0  0  0  0  0  0
    1.7504   -0.0207   -3.3902 H   0  0  0  0  0  0  0  0  0  0  0  0
    2.4986    1.7200   -5.0372 H   0  0  0  0  0  0  0  0  0  0  0  0
    3.6715    3.7618   -4.2428 H   0  0  0  0  0  0  0  0  0  0  0  0
    4.1187    4.1114   -1.8261 H   0  0  0  0  0  0  0  0  0  0  0  0
    4.4209    4.1027    0.5865 H   0  0  0  0  0  0  0  0  0  0  0  0
    6.0917    1.6687    3.9974 H   0  0  0  0  0  0  0  0  0  0  0  0
    7.9077    1.7691    5.6876 H   0  0  0  0  0  0  0  0  0  0  0  0
    8.5274    3.9152    6.7754 H   0  0  0  0  0  0  0  0  0  0  0  0
    7.3428    6.0243    6.1733 H   0  0  0  0  0  0  0  0  0  0  0  0
    5.7035    7.9433    5.0704 H   0  0  0  0  0  0  0  0  0  0  0  0
    4.2813    9.5572    5.9858 H   0  0  0  0  0  0  0  0  0  0  0  0
    4.0685   11.9884    6.3622 H   0  0  0  0  0  0  0  0  0  0  0  0
    3.5565   10.0618    1.7573 H   0  0  0  0  0  0  0  0  0  0  0  0
    3.0024   12.1791    0.0644 H   0  0  0  0  0  0  0  0  0  0  0  0
    2.5714   14.4219   -0.9341 H   0  0  0  0  0  0  0  0  0  0  0  0
    2.5481   16.4535    0.4956 H   0  0  0  0  0  0  0  0  0  0  0  0
    2.9685   16.3021    2.9423 H   0  0  0  0  0  0  0  0  0  0  0  0
    1.9800   13.7161    6.4013 H   0  0  0  0  0  0  0  0  0  0  0  0
    2.1344   15.2667    8.3451 H   0  0  0  0  0  0  0  0  0  0  0  0
    3.7868   17.1367    8.3244 H   0  0  0  0  0  0  0  0  0  0  0  0
    5.2998   17.4285    6.3614 H   0  0  0  0  0  0  0  0  0  0  0  0
    5.1769   15.8423    4.4443 H   0  0  0  0  0  0  0  0  0  0  0  0
    2.4678    8.0207    2.2115 H   0  0  0  0  0  0  0  0  0  0  0  0
    2.6785    5.5932    1.8311 H   0  0  0  0  0  0  0  0  0  0  0  0
    3.5032    1.7769    4.1018 H   0  0  0  0  0  0  0  0  0  0  0  0
    2.4345    0.0116    2.6799 H   0  0  0  0  0  0  0  0  0  0  0  0
  1  2  2  0
  2  3  2  0
  2  4  1  6
  2 47  1  0
  4  5  2  0
  4  9  1  0
  5  6  1  0
  5 48  1  0
  6  7  2  0
  6 49  1  0
  7  8  1  0
  7 50  1  0
  8  9  2  0
  8 51  1  0
  9 10  1  0
 10 11  2  0
 10 47  1  0
 11 12  1  0
 11 52  1  0
 12 13  1  0
 12 45  2  0
 13 14  1  0
 13 44  1  0
 14 15  2  0
 14 19  1  0
 15 16  1  0
 15 53  1  0
 16 17  2  0
 16 54  1  0
 17 18  1  0
 17 55  1  0
 18 19  2  0
 18 56  1  0
 19 20  1  0
 20 21  1  0
 20 44  2  0
 21 22  2  0
 21 57  1  0
 22 23  1  0
 22 42  1  0
 23 24  2  0
 23 28  1  0
 24 25  1  0
 24 58  1  0
 25 26  2  0
 25 59  1  0
 26 27  1  0
 26 35  1  0
 27 28  2  0
 27 29  1  0
 28 60  1  0
 29 30  2  0
 29 34  1  0
 30 31  1  0
 30 61  1  0
 31 32  2  0
 31 62  1  0
 32 33  1  0
 32 63  1  0
 33 34  2  0
 33 64  1  0
 34 35  1  0
 35 36  1  0
 36 37  2  0
 36 41  1  0
 37 38  1  0
 37 65  1  0
 38 39  2  0
 38 66  1  0
 39 40  1  0
 39 67  1  0
 40 41  2  0
 40 68  1  0
 41 69  1  0
 42 43  2  0
 42 70  1  0
 43 44  1  0
 43 71  1  0
 45 46  1  0
 45 72  1  0
 46 47  2  0
 46 73  1  0
M  END

