
     RDKit          3D

 39 40  0  0  0  0  0  0  0  0999 V2000
    0.7484   -0.4732   -0.6389 C   0  0  0  0  0  0  0  0  0  0  0  0
    2.2678   -0.3492   -0.5296 C   0  0  0  0  0  0  0  0  0  0  0  0
    2.8941    0.2969   -1.7686 C   0  0  0  0  0  0  0  0  0  0  0  0
    4.3443    0.3791   -1.6984 N   0  0  0  0  0  0  0  0  0  0  0  0
    5.1105    1.4812   -1.4649 C   0  0  0  0  0  0  0  0  0  0  0  0
    6.4343    1.0592   -1.4354 C   0  0  0  0  0  0  0  0  0  0  0  0
    7.7023    1.8464   -1.2087 C   0  0  1  0  0  0  0  0  0  0  0  0
    8.7976    1.2511   -1.8879 O   0  0  0  0  0  0  0  0  0  0  0  0
    7.5427    3.3419   -1.5558 C   0  0  0  0  0  0  0  0  0  0  0  0
    8.8272    4.1345   -1.4913 C   0  0  0  0  0  0  0  0  0  0  0  0
    9.2576    4.8575   -2.5396 C   0  0  0  0  0  0  0  0  0  0  0  0
   10.5296    5.6672   -2.5556 C   0  0  0  0  0  0  0  0  0  0  0  0
   11.4586    5.3218   -1.3850 C   0  0  0  0  0  0  0  0  0  0  0  0
   10.6641    5.1890   -0.0829 C   0  0  0  0  0  0  0  0  0  0  0  0
    9.6103    4.0803   -0.1953 C   0  0  0  0  0  0  0  0  0  0  0  0
    6.3416   -0.3388   -1.6666 C   0  0  0  0  0  0  0  0  0  0  0  0
    5.0815   -0.7337   -1.8234 N   0  0  0  0  0  0  0  0  0  0  0  0
    0.3230   -0.9440    0.2608 H   0  0  0  0  0  0  0  0  0  0  0  0
    0.4560   -1.0898   -1.5053 H   0  0  0  0  0  0  0  0  0  0  0  0
    0.2666    0.5124   -0.7561 H   0  0  0  0  0  0  0  0  0  0  0  0
    2.7269   -1.3419   -0.3946 H   0  0  0  0  0  0  0  0  0  0  0  0
    2.5398    0.2458    0.3596 H   0  0  0  0  0  0  0  0  0  0  0  0
    2.5116    1.3200   -1.9116 H   0  0  0  0  0  0  0  0  0  0  0  0
    2.6350   -0.2820   -2.6699 H   0  0  0  0  0  0  0  0  0  0  0  0
    4.6624    2.4652   -1.3434 H   0  0  0  0  0  0  0  0  0  0  0  0
    7.9798    1.7666   -0.1430 H   0  0  0  0  0  0  0  0  0  0  0  0
    8.6182    1.3013   -2.8378 H   0  0  0  0  0  0  0  0  0  0  0  0
    6.8071    3.7719   -0.8488 H   0  0  0  0  0  0  0  0  0  0  0  0
    7.0998    3.4320   -2.5627 H   0  0  0  0  0  0  0  0  0  0  0  0
    8.6501    4.8767   -3.4530 H   0  0  0  0  0  0  0  0  0  0  0  0
   10.2755    6.7458   -2.5326 H   0  0  0  0  0  0  0  0  0  0  0  0
   11.0524    5.5170   -3.5170 H   0  0  0  0  0  0  0  0  0  0  0  0
   12.2492    6.0839   -1.2863 H   0  0  0  0  0  0  0  0  0  0  0  0
   11.9685    4.3642   -1.5943 H   0  0  0  0  0  0  0  0  0  0  0  0
   10.1640    6.1501    0.1362 H   0  0  0  0  0  0  0  0  0  0  0  0
   11.3372    4.9861    0.7664 H   0  0  0  0  0  0  0  0  0  0  0  0
    8.9123    4.1311    0.6605 H   0  0  0  0  0  0  0  0  0  0  0  0
   10.0949    3.0887   -0.1239 H   0  0  0  0  0  0  0  0  0  0  0  0
    7.1596   -1.0550   -1.7349 H   0  0  0  0  0  0  0  0  0  0  0  0
  1  2  1  0
  1 18  1  0
  1 19  1  0
  1 20  1  0
  2  3  1  0
  2 21  1  0
  2 22  1  0
  3  4  1  0
  3 23  1  0
  3 24  1  0
  4  5  1  0
  4 17  1  0
  5  6  2  0
  5 25  1  0
  6  7  1  0
  6 16  1  0
  7  8  1  0
  7  9  1  0
  7 26  1  1
  8 27  1  0
  9 10  1  0
  9 28  1  0
  9 29  1  0
 10 11  2  0
 10 15  1  0
 11 12  1  0
 11 30  1  0
 12 13  1  0
 12 31  1  0
 12 32  1  0
 13 14  1  0
 13 33  1  0
 13 34  1  0
 14 15  1  0
 14 35  1  0
 14 36  1  0
 15 37  1  0
 15 38  1  0
 16 17  2  0
 16 39  1  0
M  END

