
     RDKit          3D

 15 15  0  0  0  0  0  0  0  0999 V2000
    2.8129    0.9276   -1.1488 N   0  0  0  0  0  0  0  0  0  0  0  0
    2.5261   -0.1540   -0.2147 C   0  0  0  0  0  0  0  0  0  0  0  0
    3.0434    0.1864    1.1565 C   0  0  0  0  0  0  0  0  0  0  0  0
    3.3620    1.4067    1.6818 C   0  0  0  0  0  0  0  0  0  0  0  0
    3.7783    1.4361    2.9944 N   0  0  0  0  0  0  0  0  0  0  0  0
    3.7936    0.2427    3.5050 C   0  0  0  0  0  0  0  0  0  0  0  0
    4.2199   -0.0554    4.7784 N   0  0  0  0  0  0  0  0  0  0  0  0
    3.2977   -1.0412    2.3907 S   0  0  0  0  0  0  0  0  0  0  0  0
    2.3680    0.7504   -2.0482 H   0  0  0  0  0  0  0  0  0  0  0  0
    3.8173    0.9917   -1.3179 H   0  0  0  0  0  0  0  0  0  0  0  0
    2.9292   -1.1460   -0.5170 H   0  0  0  0  0  0  0  0  0  0  0  0
    1.4279   -0.2824   -0.1746 H   0  0  0  0  0  0  0  0  0  0  0  0
    3.2912    2.3338    1.1121 H   0  0  0  0  0  0  0  0  0  0  0  0
    4.3017    0.7619    5.3759 H   0  0  0  0  0  0  0  0  0  0  0  0
    3.8027   -0.8601    5.2322 H   0  0  0  0  0  0  0  0  0  0  0  0
  1  2  1  0
  1  9  1  0
  1 10  1  0
  2  3  1  0
  2 11  1  0
  2 12  1  0
  3  4  2  0
  3  8  1  0
  4  5  1  0
  4 13  1  0
  5  6  2  0
  6  7  1  0
  6  8  1  0
  7 14  1  0
  7 15  1  0
M  END

