
     RDKit          3D

 43 45  0  0  0  0  0  0  0  0999 V2000
    4.8703   -2.5728    5.0083 C   0  0  0  0  0  0  0  0  0  0  0  0
    4.8781   -1.2550    4.2565 C   0  0  0  0  0  0  0  0  0  0  0  0
    3.8684   -1.3031    3.2646 O   0  0  0  0  0  0  0  0  0  0  0  0
    3.7093   -0.1495    2.4869 C   0  0  1  0  0  0  0  0  0  0  0  0
    4.8649    0.0393    1.4806 C   0  0  0  0  0  0  0  0  0  0  0  0
    5.7048   -0.8141    1.3100 O   0  0  0  0  0  0  0  0  0  0  0  0
    4.9211    1.3725    0.7244 C   0  0  0  0  0  0  0  0  0  0  0  0
    5.3670    2.5002    1.6108 C   0  0  0  0  0  0  0  0  0  0  0  0
    4.5338    3.4509    2.0017 N   0  0  0  0  0  0  0  0  0  0  0  0
    5.2314    4.3123    2.7776 N   0  0  0  0  0  0  0  0  0  0  0  0
    4.5553    5.4373    3.3994 C   0  0  0  0  0  0  0  0  0  0  0  0
    3.8856    5.0891    4.7287 C   0  0  0  0  0  0  0  0  0  0  0  0
    6.5376    3.9167    2.9183 C   0  0  0  0  0  0  0  0  0  0  0  0
    7.6234    4.4770    3.6185 C   0  0  0  0  0  0  0  0  0  0  0  0
    8.8391    3.8098    3.5384 C   0  0  0  0  0  0  0  0  0  0  0  0
    8.9892    2.6151    2.7906 C   0  0  0  0  0  0  0  0  0  0  0  0
    7.9185    2.0625    2.1013 C   0  0  0  0  0  0  0  0  0  0  0  0
    6.6735    2.7215    2.1634 C   0  0  0  0  0  0  0  0  0  0  0  0
    2.3772   -0.2486    1.7622 C   0  0  1  0  0  0  0  0  0  0  0  0
    1.1076   -0.0127    2.5356 C   0  0  0  0  0  0  0  0  0  0  0  0
    1.5451    0.9831    1.4941 C   0  0  0  0  0  0  0  0  0  0  0  0
    5.6351   -2.5704    5.8010 H   0  0  0  0  0  0  0  0  0  0  0  0
    5.0833   -3.4051    4.3201 H   0  0  0  0  0  0  0  0  0  0  0  0
    3.8867   -2.7527    5.4698 H   0  0  0  0  0  0  0  0  0  0  0  0
    5.8687   -1.0822    3.7995 H   0  0  0  0  0  0  0  0  0  0  0  0
    4.6814   -0.4102    4.9508 H   0  0  0  0  0  0  0  0  0  0  0  0
    3.6872    0.7587    3.1277 H   0  0  0  0  0  0  0  0  0  0  0  0
    3.9317    1.6205    0.3168 H   0  0  0  0  0  0  0  0  0  0  0  0
    5.6286    1.2315   -0.1063 H   0  0  0  0  0  0  0  0  0  0  0  0
    3.8112    5.8001    2.6747 H   0  0  0  0  0  0  0  0  0  0  0  0
    5.2976    6.2398    3.5335 H   0  0  0  0  0  0  0  0  0  0  0  0
    3.1369    4.2950    4.5869 H   0  0  0  0  0  0  0  0  0  0  0  0
    3.3755    5.9735    5.1423 H   0  0  0  0  0  0  0  0  0  0  0  0
    4.6225    4.7404    5.4691 H   0  0  0  0  0  0  0  0  0  0  0  0
    7.5217    5.3935    4.2031 H   0  0  0  0  0  0  0  0  0  0  0  0
    9.7043    4.2149    4.0696 H   0  0  0  0  0  0  0  0  0  0  0  0
    9.9649    2.1244    2.7628 H   0  0  0  0  0  0  0  0  0  0  0  0
    8.0270    1.1348    1.5348 H   0  0  0  0  0  0  0  0  0  0  0  0
    2.3511   -1.0463    1.0117 H   0  0  0  0  0  0  0  0  0  0  0  0
    1.2044    0.2642    3.5893 H   0  0  0  0  0  0  0  0  0  0  0  0
    0.2499   -0.6556    2.3201 H   0  0  0  0  0  0  0  0  0  0  0  0
    1.9373    1.9480    1.8297 H   0  0  0  0  0  0  0  0  0  0  0  0
    0.9919    1.0303    0.5517 H   0  0  0  0  0  0  0  0  0  0  0  0
  1  2  1  0
  1 22  1  0
  1 23  1  0
  1 24  1  0
  2  3  1  0
  2 25  1  0
  2 26  1  0
  3  4  1  0
  4  5  1  0
  4 19  1  0
  4 27  1  1
  5  6  2  0
  5  7  1  0
  7  8  1  0
  7 28  1  0
  7 29  1  0
  8  9  2  0
  8 18  1  0
  9 10  1  0
 10 11  1  0
 10 13  1  0
 11 12  1  0
 11 30  1  0
 11 31  1  0
 12 32  1  0
 12 33  1  0
 12 34  1  0
 13 14  1  0
 13 18  2  0
 14 15  2  0
 14 35  1  0
 15 16  1  0
 15 36  1  0
 16 17  2  0
 16 37  1  0
 17 18  1  0
 17 38  1  0
 19 20  1  0
 19 21  1  0
 19 39  1  6
 20 21  1  0
 20 40  1  0
 20 41  1  0
 21 42  1  0
 21 43  1  0
M  END

