
     RDKit          3D

 85 89  0  0  0  0  0  0  0  0999 V2000
   10.4227    0.8623    2.6055 C   0  0  0  0  0  0  0  0  0  0  0  0
   10.6423    1.3219    3.9694 N   0  0  0  0  0  0  0  0  0  0  0  0
   12.0393    1.3927    4.3681 C   0  0  0  0  0  0  0  0  0  0  0  0
   12.7157    2.7387    4.0641 C   0  0  0  0  0  0  0  0  0  0  0  0
   13.9296    2.8548    4.0803 O   0  0  0  0  0  0  0  0  0  0  0  0
   11.8408    3.7598    3.8395 N   0  0  0  0  0  0  0  0  0  0  0  0
   12.2630    5.1390    3.6833 C   0  0  1  0  0  0  0  0  0  0  0  0
   11.9589    5.6985    2.2823 C   0  0  0  0  0  0  0  0  0  0  0  0
   12.6600    6.5686    1.8121 O   0  0  0  0  0  0  0  0  0  0  0  0
   10.7471    5.1583    1.5342 C   0  0  0  0  0  0  0  0  0  0  0  0
   10.4586    5.8934    0.2254 C   0  0  0  0  0  0  0  0  0  0  0  0
    9.3144    5.2933   -0.6080 C   0  0  0  0  0  0  0  0  0  0  0  0
    7.8905    5.3192    0.0001 C   0  0  2  0  0  0  0  0  0  0  0  0
    7.9318    4.8772    1.0127 H   0  0  0  0  0  0  0  0  0  0  0  0
    6.8391    4.5569   -0.8486 C   0  0  2  0  0  0  0  0  0  0  0  0
    5.9738    4.4094   -0.1818 H   0  0  0  0  0  0  0  0  0  0  0  0
    7.2316    3.2003   -1.4243 C   0  0  0  0  0  0  0  0  0  0  0  0
    6.4071    5.6126   -1.9149 C   0  0  1  0  0  0  0  0  0  0  0  0
    7.1106    5.5362   -2.7603 H   0  0  0  0  0  0  0  0  0  0  0  0
    5.0205    5.4105   -2.4677 C   0  0  0  0  0  0  0  0  0  0  0  0
    3.8250    5.7495   -1.8722 C   0  0  0  0  0  0  0  0  0  0  0  0
    2.7666    5.3647   -2.6759 N   0  0  0  0  0  0  0  0  0  0  0  0
    1.7904    5.5210   -2.4653 H   0  0  0  0  0  0  0  0  0  0  0  0
    3.2502    4.7691   -3.8146 C   0  0  0  0  0  0  0  0  0  0  0  0
    2.5691    4.2307   -4.9171 C   0  0  0  0  0  0  0  0  0  0  0  0
    3.3552    3.6965   -5.9268 C   0  0  0  0  0  0  0  0  0  0  0  0
    2.7499    3.1671   -7.0054 F   0  0  0  0  0  0  0  0  0  0  0  0
    4.7611    3.6812   -5.8783 C   0  0  0  0  0  0  0  0  0  0  0  0
    5.4212    4.2185   -4.7783 C   0  0  0  0  0  0  0  0  0  0  0  0
    4.6742    4.7746   -3.7210 C   0  0  0  0  0  0  0  0  0  0  0  0
    6.6511    6.9716   -1.2012 C   0  0  0  0  0  0  0  0  0  0  0  0
    7.2326    6.6234    0.0878 N   0  0  0  0  0  0  0  0  0  0  0  0
    7.7293    7.6959    0.9115 C   0  0  0  0  0  0  0  0  0  0  0  0
    6.6245    8.5951    1.4486 C   0  0  0  0  0  0  0  0  0  0  0  0
    6.7827    9.9815    1.5479 C   0  0  0  0  0  0  0  0  0  0  0  0
    5.7508   10.7525    2.0879 C   0  0  0  0  0  0  0  0  0  0  0  0
    4.5853   10.1053    2.5065 C   0  0  0  0  0  0  0  0  0  0  0  0
    4.4115    8.7834    2.4130 N   0  0  0  0  0  0  0  0  0  0  0  0
    5.4067    8.0585    1.8991 C   0  0  0  0  0  0  0  0  0  0  0  0
   11.6653    6.0587    4.8004 C   0  0  1  0  0  0  0  0  0  0  0  0
   11.9552    5.5045    6.2133 C   0  0  0  0  0  0  0  0  0  0  0  0
   13.4300    5.6407    6.6196 C   0  0  0  0  0  0  0  0  0  0  0  0
   13.9111    7.0939    6.5082 C   0  0  0  0  0  0  0  0  0  0  0  0
   13.6273    7.6830    5.1201 C   0  0  0  0  0  0  0  0  0  0  0  0
   12.1525    7.5228    4.7238 C   0  0  0  0  0  0  0  0  0  0  0  0
    9.3435    0.8249    2.3903 H   0  0  0  0  0  0  0  0  0  0  0  0
   10.8540   -0.1387    2.3938 H   0  0  0  0  0  0  0  0  0  0  0  0
   10.8770    1.5693    1.8923 H   0  0  0  0  0  0  0  0  0  0  0  0
   10.1137    0.7493    4.6227 H   0  0  0  0  0  0  0  0  0  0  0  0
   12.6799    0.6081    3.9190 H   0  0  0  0  0  0  0  0  0  0  0  0
   12.1146    1.2642    5.4609 H   0  0  0  0  0  0  0  0  0  0  0  0
   10.8581    3.5036    3.9221 H   0  0  0  0  0  0  0  0  0  0  0  0
   13.3589    5.1263    3.7614 H   0  0  0  0  0  0  0  0  0  0  0  0
    9.8845    5.1843    2.2261 H   0  0  0  0  0  0  0  0  0  0  0  0
   10.9232    4.0832    1.3494 H   0  0  0  0  0  0  0  0  0  0  0  0
   11.3795    5.8760   -0.3791 H   0  0  0  0  0  0  0  0  0  0  0  0
   10.2857    6.9588    0.4374 H   0  0  0  0  0  0  0  0  0  0  0  0
    9.5732    4.2415   -0.8209 H   0  0  0  0  0  0  0  0  0  0  0  0
    9.2956    5.7989   -1.5891 H   0  0  0  0  0  0  0  0  0  0  0  0
    8.0426    3.2782   -2.1660 H   0  0  0  0  0  0  0  0  0  0  0  0
    6.3699    2.7363   -1.9292 H   0  0  0  0  0  0  0  0  0  0  0  0
    7.5641    2.5074   -0.6335 H   0  0  0  0  0  0  0  0  0  0  0  0
    3.6383    6.2481   -0.9225 H   0  0  0  0  0  0  0  0  0  0  0  0
    1.4811    4.2205   -5.0016 H   0  0  0  0  0  0  0  0  0  0  0  0
    5.3068    3.2429   -6.7158 H   0  0  0  0  0  0  0  0  0  0  0  0
    6.5131    4.2048   -4.7422 H   0  0  0  0  0  0  0  0  0  0  0  0
    5.7207    7.5457   -1.0625 H   0  0  0  0  0  0  0  0  0  0  0  0
    7.3219    7.6164   -1.8114 H   0  0  0  0  0  0  0  0  0  0  0  0
    8.4770    8.3406    0.3960 H   0  0  0  0  0  0  0  0  0  0  0  0
    8.2566    7.2485    1.7723 H   0  0  0  0  0  0  0  0  0  0  0  0
    7.7069   10.4546    1.2011 H   0  0  0  0  0  0  0  0  0  0  0  0
    5.8441   11.8375    2.1772 H   0  0  0  0  0  0  0  0  0  0  0  0
    3.7551   10.6812    2.9331 H   0  0  0  0  0  0  0  0  0  0  0  0
    5.2448    6.9772    1.8198 H   0  0  0  0  0  0  0  0  0  0  0  0
   10.5676    6.0566    4.6565 H   0  0  0  0  0  0  0  0  0  0  0  0
   11.6307    4.4549    6.2892 H   0  0  0  0  0  0  0  0  0  0  0  0
   11.3303    6.0715    6.9266 H   0  0  0  0  0  0  0  0  0  0  0  0
   14.0532    4.9875    5.9842 H   0  0  0  0  0  0  0  0  0  0  0  0
   13.5621    5.2745    7.6518 H   0  0  0  0  0  0  0  0  0  0  0  0
   14.9874    7.1596    6.7404 H   0  0  0  0  0  0  0  0  0  0  0  0
   13.3919    7.7045    7.2709 H   0  0  0  0  0  0  0  0  0  0  0  0
   14.2653    7.1939    4.3641 H   0  0  0  0  0  0  0  0  0  0  0  0
   13.8991    8.7517    5.0973 H   0  0  0  0  0  0  0  0  0  0  0  0
   11.9859    7.9454    3.7226 H   0  0  0  0  0  0  0  0  0  0  0  0
   11.5285    8.1125    5.4197 H   0  0  0  0  0  0  0  0  0  0  0  0
  1  2  1  0
  1 46  1  0
  1 47  1  0
  1 48  1  0
  2  3  1  0
  2 49  1  0
  3  4  1  0
  3 50  1  0
  3 51  1  0
  4  5  2  0
  4  6  1  0
  6  7  1  0
  6 52  1  0
  7  8  1  0
  7 40  1  0
  7 53  1  1
  8  9  2  0
  8 10  1  0
 10 11  1  0
 10 54  1  0
 10 55  1  0
 11 12  1  0
 11 56  1  0
 11 57  1  0
 12 13  1  0
 12 58  1  0
 12 59  1  0
 13 14  1  1
 13 15  1  0
 13 32  1  0
 15 16  1  1
 15 17  1  0
 15 18  1  0
 17 60  1  0
 17 61  1  0
 17 62  1  0
 18 19  1  6
 18 20  1  0
 18 31  1  0
 20 21  2  0
 20 30  1  0
 21 22  1  0
 21 63  1  0
 22 23  1  0
 22 24  1  0
 24 25  1  0
 24 30  2  0
 25 26  2  0
 25 64  1  0
 26 27  1  0
 26 28  1  0
 28 29  2  0
 28 65  1  0
 29 30  1  0
 29 66  1  0
 31 32  1  0
 31 67  1  0
 31 68  1  0
 32 33  1  0
 33 34  1  0
 33 69  1  0
 33 70  1  0
 34 35  2  0
 34 39  1  0
 35 36  1  0
 35 71  1  0
 36 37  2  0
 36 72  1  0
 37 38  1  0
 37 73  1  0
 38 39  2  0
 39 74  1  0
 40 41  1  0
 40 45  1  0
 40 75  1  6
 41 42  1  0
 41 76  1  0
 41 77  1  0
 42 43  1  0
 42 78  1  0
 42 79  1  0
 43 44  1  0
 43 80  1  0
 43 81  1  0
 44 45  1  0
 44 82  1  0
 44 83  1  0
 45 84  1  0
 45 85  1  0
M  END

