
     RDKit          3D

 46 49  0  0  0  0  0  0  0  0999 V2000
    6.2223    6.6327   -3.2794 C   0  0  0  0  0  0  0  0  0  0  0  0
    7.0327    5.5118   -2.8620 N   0  0  0  0  0  0  0  0  0  0  0  0
    6.6305    4.6515   -1.8825 N   0  0  0  0  0  0  0  0  0  0  0  0
    7.5930    3.7934   -1.7864 C   0  0  0  0  0  0  0  0  0  0  0  0
    7.6707    2.6533   -0.8816 C   0  0  0  0  0  0  0  0  0  0  0  0
    6.6326    2.3833    0.0295 C   0  0  0  0  0  0  0  0  0  0  0  0
    6.6854    1.3688    0.8786 N   0  0  0  0  0  0  0  0  0  0  0  0
    7.7406    0.5537    0.8773 C   0  0  0  0  0  0  0  0  0  0  0  0
    7.6714   -0.5454    1.9384 C   0  0  1  0  0  0  0  0  0  0  0  0
    6.8462   -0.2187    2.9294 F   0  0  0  0  0  0  0  0  0  0  0  0
    7.2264   -1.7032    1.4059 F   0  0  0  0  0  0  0  0  0  0  0  0
    8.8774   -0.7913    2.4797 F   0  0  0  0  0  0  0  0  0  0  0  0
    8.8259    0.6878   -0.0210 C   0  0  0  0  0  0  0  0  0  0  0  0
    9.9988   -0.2228   -0.1046 C   0  0  0  0  0  0  0  0  0  0  0  0
   11.3106    0.2837   -0.0690 C   0  0  0  0  0  0  0  0  0  0  0  0
   12.3895   -0.5783   -0.2040 C   0  0  0  0  0  0  0  0  0  0  0  0
   12.1310   -1.9549   -0.3762 C   0  0  0  0  0  0  0  0  0  0  0  0
   13.2210   -2.8283   -0.4757 N   0  0  0  0  0  0  0  0  0  0  0  0
   13.2585   -4.0981   -1.0431 C   0  0  0  0  0  0  0  0  0  0  0  0
   12.3248   -4.6439   -1.5763 O   0  0  0  0  0  0  0  0  0  0  0  0
   14.6094   -4.7826   -0.9256 C   0  0  0  0  0  0  0  0  0  0  0  0
   15.8444   -4.1462   -1.1201 C   0  0  0  0  0  0  0  0  0  0  0  0
   15.8599   -2.8108   -1.3273 F   0  0  0  0  0  0  0  0  0  0  0  0
   17.0653   -4.8113   -1.1069 C   0  0  0  0  0  0  0  0  0  0  0  0
   17.0703   -6.1889   -0.8793 C   0  0  0  0  0  0  0  0  0  0  0  0
   15.8730   -6.8737   -0.6668 C   0  0  0  0  0  0  0  0  0  0  0  0
   14.6701   -6.1708   -0.6968 C   0  0  0  0  0  0  0  0  0  0  0  0
   13.5475   -6.8462   -0.4726 F   0  0  0  0  0  0  0  0  0  0  0  0
   10.8955   -2.4454   -0.4162 N   0  0  0  0  0  0  0  0  0  0  0  0
    9.8689   -1.6101   -0.2921 C   0  0  0  0  0  0  0  0  0  0  0  0
    8.7665    1.7848   -0.8971 C   0  0  0  0  0  0  0  0  0  0  0  0
    8.6167    4.0366   -2.6502 O   0  0  0  0  0  0  0  0  0  0  0  0
    8.2655    5.1756   -3.3756 C   0  0  0  0  0  0  0  0  0  0  0  0
    8.9303    5.6866   -4.2301 O   0  0  0  0  0  0  0  0  0  0  0  0
    6.0462    7.3180   -2.4362 H   0  0  0  0  0  0  0  0  0  0  0  0
    5.2541    6.2852   -3.6712 H   0  0  0  0  0  0  0  0  0  0  0  0
    6.7717    7.1580   -4.0714 H   0  0  0  0  0  0  0  0  0  0  0  0
    5.7451    3.0234    0.0592 H   0  0  0  0  0  0  0  0  0  0  0  0
   11.4846    1.3532    0.0749 H   0  0  0  0  0  0  0  0  0  0  0  0
   13.4140   -0.1988   -0.1818 H   0  0  0  0  0  0  0  0  0  0  0  0
   14.1184   -2.4228   -0.2390 H   0  0  0  0  0  0  0  0  0  0  0  0
   17.9821   -4.2447   -1.2758 H   0  0  0  0  0  0  0  0  0  0  0  0
   18.0174   -6.7326   -0.8633 H   0  0  0  0  0  0  0  0  0  0  0  0
   15.8466   -7.9475   -0.4756 H   0  0  0  0  0  0  0  0  0  0  0  0
    8.8740   -2.0634   -0.3441 H   0  0  0  0  0  0  0  0  0  0  0  0
    9.5743    1.9474   -1.6129 H   0  0  0  0  0  0  0  0  0  0  0  0
  1  2  1  0
  1 35  1  0
  1 36  1  0
  1 37  1  0
  2  3  1  0
  2 33  1  0
  3  4  2  0
  4  5  1  0
  4 32  1  0
  5  6  2  0
  5 31  1  0
  6  7  1  0
  6 38  1  0
  7  8  2  0
  8  9  1  0
  8 13  1  0
  9 10  1  1
  9 11  1  0
  9 12  1  0
 13 14  1  0
 13 31  2  0
 14 15  2  0
 14 30  1  0
 15 16  1  0
 15 39  1  0
 16 17  2  0
 16 40  1  0
 17 18  1  0
 17 29  1  0
 18 19  1  0
 18 41  1  0
 19 20  2  0
 19 21  1  0
 21 22  2  0
 21 27  1  0
 22 23  1  0
 22 24  1  0
 24 25  2  0
 24 42  1  0
 25 26  1  0
 25 43  1  0
 26 27  2  0
 26 44  1  0
 27 28  1  0
 29 30  2  0
 30 45  1  0
 31 46  1  0
 32 33  1  0
 33 34  2  0
M  END

