
     RDKit          3D

 26 26  0  0  0  0  0  0  0  0999 V2000
    1.3588    0.0359   -0.9201 C   0  0  0  0  0  0  0  0  0  0  0  0
    2.8119    0.2587   -0.5388 C   0  0  0  0  0  0  0  0  0  0  0  0
    3.6961    0.3856   -1.3656 O   0  0  0  0  0  0  0  0  0  0  0  0
    3.0698    0.3024    0.8119 N   0  0  0  0  0  0  0  0  0  0  0  0
    4.4238    0.3813    1.3275 C   0  0  1  0  0  0  0  0  0  0  0  0
    5.0980   -0.0804    0.5899 H   0  0  0  0  0  0  0  0  0  0  0  0
    4.8894    1.8387    1.5525 C   0  0  1  0  0  0  0  0  0  0  0  0
    5.0302    2.3188    0.5686 H   0  0  0  0  0  0  0  0  0  0  0  0
    3.9091    2.5673    2.3120 O   0  0  0  0  0  0  0  0  0  0  0  0
    6.1741    1.8543    2.3251 C   0  0  0  0  0  0  0  0  0  0  0  0
    6.5662    0.7850    3.0333 C   0  0  0  0  0  0  0  0  0  0  0  0
    7.8495    0.7585    3.8283 C   0  0  0  0  0  0  0  0  0  0  0  0
    8.6329    1.6694    3.8378 O   0  0  0  0  0  0  0  0  0  0  0  0
    8.0349   -0.3704    4.5255 O   0  0  0  0  0  0  0  0  0  0  0  0
    5.8680   -0.3873    3.1209 O   0  0  0  0  0  0  0  0  0  0  0  0
    4.5046   -0.3884    2.6541 C   0  0  1  0  0  0  0  0  0  0  0  0
    4.2738   -1.4546    2.5173 H   0  0  0  0  0  0  0  0  0  0  0  0
    3.6283    0.1158    3.5982 O   0  0  0  0  0  0  0  0  0  0  0  0
    1.0772    0.7739   -1.6849 H   0  0  0  0  0  0  0  0  0  0  0  0
    0.6619    0.1013   -0.0718 H   0  0  0  0  0  0  0  0  0  0  0  0
    1.2652   -0.9596   -1.3818 H   0  0  0  0  0  0  0  0  0  0  0  0
    2.3253    0.1380    1.4809 H   0  0  0  0  0  0  0  0  0  0  0  0
    3.1319    2.6823    1.7451 H   0  0  0  0  0  0  0  0  0  0  0  0
    6.7975    2.7482    2.3514 H   0  0  0  0  0  0  0  0  0  0  0  0
    7.2701   -0.9537    4.3711 H   0  0  0  0  0  0  0  0  0  0  0  0
    3.6361    1.0924    3.5312 H   0  0  0  0  0  0  0  0  0  0  0  0
  1  2  1  0
  1 19  1  0
  1 20  1  0
  1 21  1  0
  2  3  2  0
  2  4  1  0
  4  5  1  0
  4 22  1  0
  5  6  1  6
  5  7  1  0
  5 16  1  0
  7  8  1  6
  7  9  1  0
  7 10  1  0
  9 23  1  0
 10 11  2  0
 10 24  1  0
 11 12  1  0
 11 15  1  0
 12 13  2  0
 12 14  1  0
 14 25  1  0
 15 16  1  0
 16 17  1  6
 16 18  1  0
 18 26  1  0
M  END

