
     RDKit          3D

 66 70  0  0  0  0  0  0  0  0999 V2000
    8.0851    3.6257    5.1991 C   0  0  0  0  0  0  0  0  0  0  0  0
    6.6271    3.2683    5.4835 C   0  0  1  0  0  0  0  0  0  0  0  0
    5.8876    4.3648    6.2400 C   0  0  0  0  0  0  0  0  0  0  0  0
    5.9018    3.0722    4.2625 O   0  0  0  0  0  0  0  0  0  0  0  0
    5.9384    1.9034    3.5727 C   0  0  0  0  0  0  0  0  0  0  0  0
    6.7059    0.7779    3.9801 C   0  0  0  0  0  0  0  0  0  0  0  0
    6.6883   -0.3825    3.2379 C   0  0  0  0  0  0  0  0  0  0  0  0
    5.9135   -0.4907    2.0555 C   0  0  0  0  0  0  0  0  0  0  0  0
    5.8831   -1.6854    1.2826 C   0  0  0  0  0  0  0  0  0  0  0  0
    5.1180   -1.7721    0.1401 C   0  0  0  0  0  0  0  0  0  0  0  0
    4.3487   -0.6561   -0.2766 C   0  0  0  0  0  0  0  0  0  0  0  0
    4.3575    0.5168    0.4483 C   0  0  0  0  0  0  0  0  0  0  0  0
    5.1377    0.6443    1.6364 C   0  0  0  0  0  0  0  0  0  0  0  0
    5.1639    1.8471    2.4111 C   0  0  0  0  0  0  0  0  0  0  0  0
    4.3409    3.0394    2.0201 C   0  0  0  0  0  0  0  0  0  0  0  0
    4.8875    4.0835    1.2721 C   0  0  0  0  0  0  0  0  0  0  0  0
    6.6898    3.9963    0.8119 P   0  0  0  0  0  0  0  0  0  0  0  0
    6.6534    3.4666   -0.9669 C   0  0  0  0  0  0  0  0  0  0  0  0
    7.8432    2.9232   -1.4850 C   0  0  0  0  0  0  0  0  0  0  0  0
    7.9175    2.4901   -2.8116 C   0  0  0  0  0  0  0  0  0  0  0  0
    6.7938    2.5751   -3.6392 C   0  0  0  0  0  0  0  0  0  0  0  0
    5.6005    3.0987   -3.1327 C   0  0  0  0  0  0  0  0  0  0  0  0
    5.5305    3.5429   -1.8085 C   0  0  0  0  0  0  0  0  0  0  0  0
    7.1121    5.8006    0.6818 C   0  0  0  0  0  0  0  0  0  0  0  0
    7.1598    6.5332    1.8843 C   0  0  0  0  0  0  0  0  0  0  0  0
    7.5382    7.8764    1.8923 C   0  0  0  0  0  0  0  0  0  0  0  0
    7.8977    8.5122    0.6980 C   0  0  0  0  0  0  0  0  0  0  0  0
    7.8674    7.7935   -0.4991 C   0  0  0  0  0  0  0  0  0  0  0  0
    7.4749    6.4494   -0.5093 C   0  0  0  0  0  0  0  0  0  0  0  0
    4.0768    5.2045    0.9263 C   0  0  0  0  0  0  0  0  0  0  0  0
    2.7581    5.2785    1.3093 C   0  0  0  0  0  0  0  0  0  0  0  0
    2.1653    4.2380    2.0743 C   0  0  0  0  0  0  0  0  0  0  0  0
    0.8069    4.2970    2.4935 C   0  0  0  0  0  0  0  0  0  0  0  0
    0.2518    3.2826    3.2442 C   0  0  0  0  0  0  0  0  0  0  0  0
    1.0380    2.1615    3.6084 C   0  0  0  0  0  0  0  0  0  0  0  0
    2.3574    2.0741    3.2147 C   0  0  0  0  0  0  0  0  0  0  0  0
    2.9651    3.1025    2.4368 C   0  0  0  0  0  0  0  0  0  0  0  0
    8.6395    3.7547    6.1424 H   0  0  0  0  0  0  0  0  0  0  0  0
    8.1445    4.5667    4.6303 H   0  0  0  0  0  0  0  0  0  0  0  0
    8.5881    2.8456    4.6091 H   0  0  0  0  0  0  0  0  0  0  0  0
    6.5806    2.3401    6.0811 H   0  0  0  0  0  0  0  0  0  0  0  0
    5.8857    5.2999    5.6583 H   0  0  0  0  0  0  0  0  0  0  0  0
    6.3725    4.5584    7.2092 H   0  0  0  0  0  0  0  0  0  0  0  0
    4.8426    4.0725    6.4207 H   0  0  0  0  0  0  0  0  0  0  0  0
    7.3170    0.8243    4.8807 H   0  0  0  0  0  0  0  0  0  0  0  0
    7.2834   -1.2410    3.5615 H   0  0  0  0  0  0  0  0  0  0  0  0
    6.4815   -2.5382    1.6159 H   0  0  0  0  0  0  0  0  0  0  0  0
    5.1018   -2.6946   -0.4456 H   0  0  0  0  0  0  0  0  0  0  0  0
    3.7446   -0.7256   -1.1850 H   0  0  0  0  0  0  0  0  0  0  0  0
    3.7631    1.3673    0.1116 H   0  0  0  0  0  0  0  0  0  0  0  0
    8.7197    2.8338   -0.8366 H   0  0  0  0  0  0  0  0  0  0  0  0
    8.8525    2.0740   -3.1960 H   0  0  0  0  0  0  0  0  0  0  0  0
    6.8461    2.2281   -4.6745 H   0  0  0  0  0  0  0  0  0  0  0  0
    4.7161    3.1636   -3.7725 H   0  0  0  0  0  0  0  0  0  0  0  0
    4.5914    3.9514   -1.4300 H   0  0  0  0  0  0  0  0  0  0  0  0
    6.8880    6.0423    2.8237 H   0  0  0  0  0  0  0  0  0  0  0  0
    7.5597    8.4290    2.8356 H   0  0  0  0  0  0  0  0  0  0  0  0
    8.2019    9.5621    0.7031 H   0  0  0  0  0  0  0  0  0  0  0  0
    8.1463    8.2807   -1.4375 H   0  0  0  0  0  0  0  0  0  0  0  0
    7.4505    5.9056   -1.4558 H   0  0  0  0  0  0  0  0  0  0  0  0
    4.5168    6.0218    0.3515 H   0  0  0  0  0  0  0  0  0  0  0  0
    2.1507    6.1450    1.0327 H   0  0  0  0  0  0  0  0  0  0  0  0
    0.2091    5.1674    2.2091 H   0  0  0  0  0  0  0  0  0  0  0  0
   -0.7932    3.3398    3.5597 H   0  0  0  0  0  0  0  0  0  0  0  0
    0.5942    1.3597    4.2042 H   0  0  0  0  0  0  0  0  0  0  0  0
    2.9537    1.2057    3.4982 H   0  0  0  0  0  0  0  0  0  0  0  0
  1  2  1  0
  1 38  1  0
  1 39  1  0
  1 40  1  0
  2  3  1  0
  2  4  1  0
  2 41  1  1
  3 42  1  0
  3 43  1  0
  3 44  1  0
  4  5  1  0
  5  6  1  0
  5 14  1  0
  6  7  1  0
  6 45  1  0
  7  8  1  0
  7 46  1  0
  8  9  1  0
  8 13  1  0
  9 10  1  0
  9 47  1  0
 10 11  1  0
 10 48  1  0
 11 12  1  0
 11 49  1  0
 12 13  1  0
 12 50  1  0
 13 14  1  0
 14 15  1  0
 15 16  1  0
 15 37  1  0
 16 30  1  0
 17 18  1  0
 17 24  1  0
 18 19  1  0
 18 23  1  0
 19 20  1  0
 19 51  1  0
 20 21  1  0
 20 52  1  0
 21 22  1  0
 21 53  1  0
 22 23  1  0
 22 54  1  0
 23 55  1  0
 24 25  1  0
 24 29  1  0
 25 26  1  0
 25 56  1  0
 26 27  1  0
 26 57  1  0
 27 28  1  0
 27 58  1  0
 28 29  1  0
 28 59  1  0
 29 60  1  0
 30 31  1  0
 30 61  1  0
 31 32  1  0
 31 62  1  0
 32 33  1  0
 32 37  1  0
 33 34  1  0
 33 63  1  0
 34 35  1  0
 34 64  1  0
 35 36  1  0
 35 65  1  0
 36 37  1  0
 36 66  1  0
M  CHG  8   5  -1   6   1   7  -1   8   1   9  -1  10   1  11  -1  12   1
M  CHG  8  13  -1  14   1  15  -1  17  -1  18   1  19   1  20   1  21  -1
M  CHG  8  22   1  23  -1  24   1  25  -1  26   1  27  -1  28   1  29  -1
M  CHG  8  30   1  31  -1  32   1  33  -1  34   1  35  -1  36   1  37  -1
M  END

