
     RDKit          3D

 67 70  0  0  0  0  0  0  0  0999 V2000
    2.1385   -0.3739    4.2336 C   0  0  0  0  0  0  0  0  0  0  0  0
    2.9866   -0.3585    3.0592 N   0  0  0  0  0  0  0  0  0  0  0  0
    2.3634    0.1898    1.8750 C   0  0  0  0  0  0  0  0  0  0  0  0
    3.2998    0.1093    0.6560 C   0  0  1  0  0  0  0  0  0  0  0  0
    3.5625   -1.2864    0.3358 N   0  0  0  0  0  0  0  0  0  0  0  0
    4.7981   -1.7306   -0.0506 C   0  0  0  0  0  0  0  0  0  0  0  0
    5.7912   -1.0221   -0.0298 O   0  0  0  0  0  0  0  0  0  0  0  0
    4.9043   -3.1775   -0.4849 C   0  0  0  0  0  0  0  0  0  0  0  0
    6.2022   -3.6872   -0.6741 C   0  0  0  0  0  0  0  0  0  0  0  0
    6.4284   -4.9950   -1.0843 C   0  0  0  0  0  0  0  0  0  0  0  0
    5.3518   -5.8718   -1.3270 C   0  0  0  0  0  0  0  0  0  0  0  0
    5.6185   -7.2579   -1.7983 C   0  0  0  0  0  0  0  0  0  0  0  0
    6.6725   -7.4283   -2.6014 N   0  0  0  0  0  0  0  0  0  0  0  0
    6.9721   -8.6371   -3.0854 C   0  0  0  0  0  0  0  0  0  0  0  0
    8.1437   -8.8234   -4.0351 C   0  0  1  0  0  0  0  0  0  0  0  0
    7.7150   -8.7247   -5.5232 C   0  0  0  0  0  0  0  0  0  0  0  0
    7.4797   -7.2797   -5.9757 C   0  0  0  0  0  0  0  0  0  0  0  0
    8.7214   -6.4175   -5.7522 C   0  0  2  0  0  0  0  0  0  0  0  0
    9.7647   -6.9063   -6.5768 O   0  0  0  0  0  0  0  0  0  0  0  0
    9.1450   -6.4649   -4.2832 C   0  0  2  0  0  0  0  0  0  0  0  0
   10.3747   -5.7909   -4.1849 F   0  0  0  0  0  0  0  0  0  0  0  0
    9.3412   -7.8853   -3.7639 C   0  0  0  0  0  0  0  0  0  0  0  0
    6.1620   -9.7265   -2.7205 C   0  0  0  0  0  0  0  0  0  0  0  0
    5.1304   -9.6053   -1.8952 N   0  0  0  0  0  0  0  0  0  0  0  0
    4.8368   -8.3914   -1.4139 C   0  0  0  0  0  0  0  0  0  0  0  0
    3.7585   -8.3213   -0.5629 N   0  0  0  0  0  0  0  0  0  0  0  0
    4.0467   -5.3775   -1.1559 C   0  0  0  0  0  0  0  0  0  0  0  0
    3.8519   -4.0618   -0.7505 C   0  0  0  0  0  0  0  0  0  0  0  0
    2.5632   -3.6515   -0.6281 F   0  0  0  0  0  0  0  0  0  0  0  0
    2.7432    0.9051   -0.5232 C   0  0  0  0  0  0  0  0  0  0  0  0
    2.9009    2.3005   -0.5442 C   0  0  0  0  0  0  0  0  0  0  0  0
    2.3735    3.0880   -1.5759 C   0  0  0  0  0  0  0  0  0  0  0  0
    2.5615    4.5856   -1.5944 C   0  0  0  0  0  0  0  0  0  0  0  0
    1.6689    2.4536   -2.6129 C   0  0  0  0  0  0  0  0  0  0  0  0
    1.5210    1.0729   -2.5877 C   0  0  0  0  0  0  0  0  0  0  0  0
    0.8517    0.4716   -3.5851 F   0  0  0  0  0  0  0  0  0  0  0  0
    2.0446    0.2848   -1.5641 C   0  0  0  0  0  0  0  0  0  0  0  0
    2.6729   -0.8386    5.0770 H   0  0  0  0  0  0  0  0  0  0  0  0
    1.1732   -0.9145    4.1011 H   0  0  0  0  0  0  0  0  0  0  0  0
    1.8891    0.6583    4.5342 H   0  0  0  0  0  0  0  0  0  0  0  0
    3.3421   -1.2920    2.8588 H   0  0  0  0  0  0  0  0  0  0  0  0
    2.1190    1.2502    2.0567 H   0  0  0  0  0  0  0  0  0  0  0  0
    1.3934   -0.2991    1.6084 H   0  0  0  0  0  0  0  0  0  0  0  0
    4.2679    0.5428    0.9436 H   0  0  0  0  0  0  0  0  0  0  0  0
    2.7719   -1.9102    0.2285 H   0  0  0  0  0  0  0  0  0  0  0  0
    7.0304   -3.0016   -0.4849 H   0  0  0  0  0  0  0  0  0  0  0  0
    7.4467   -5.3596   -1.2229 H   0  0  0  0  0  0  0  0  0  0  0  0
    8.4988   -9.8549   -3.8734 H   0  0  0  0  0  0  0  0  0  0  0  0
    6.8111   -9.3318   -5.6939 H   0  0  0  0  0  0  0  0  0  0  0  0
    8.5163   -9.1574   -6.1428 H   0  0  0  0  0  0  0  0  0  0  0  0
    6.6353   -6.8311   -5.4264 H   0  0  0  0  0  0  0  0  0  0  0  0
    7.2209   -7.2528   -7.0464 H   0  0  0  0  0  0  0  0  0  0  0  0
    8.4928   -5.3633   -6.0096 H   0  0  0  0  0  0  0  0  0  0  0  0
   10.5742   -6.4581   -6.2914 H   0  0  0  0  0  0  0  0  0  0  0  0
    8.4174   -5.9180   -3.6676 H   0  0  0  0  0  0  0  0  0  0  0  0
    9.5768   -7.8511   -2.6886 H   0  0  0  0  0  0  0  0  0  0  0  0
   10.2223   -8.2967   -4.2812 H   0  0  0  0  0  0  0  0  0  0  0  0
    6.3748  -10.7321   -3.1029 H   0  0  0  0  0  0  0  0  0  0  0  0
    3.4328   -9.2253   -0.2360 H   0  0  0  0  0  0  0  0  0  0  0  0
    3.7274   -7.5708    0.1165 H   0  0  0  0  0  0  0  0  0  0  0  0
    3.1673   -5.9857   -1.3703 H   0  0  0  0  0  0  0  0  0  0  0  0
    3.4608    2.7847    0.2613 H   0  0  0  0  0  0  0  0  0  0  0  0
    3.1074    4.9359   -0.7065 H   0  0  0  0  0  0  0  0  0  0  0  0
    1.5916    5.1091   -1.6251 H   0  0  0  0  0  0  0  0  0  0  0  0
    3.1272    4.9045   -2.4857 H   0  0  0  0  0  0  0  0  0  0  0  0
    1.2414    3.0195   -3.4437 H   0  0  0  0  0  0  0  0  0  0  0  0
    1.9122   -0.7970   -1.6108 H   0  0  0  0  0  0  0  0  0  0  0  0
  1  2  1  0
  1 38  1  0
  1 39  1  0
  1 40  1  0
  2  3  1  0
  2 41  1  0
  3  4  1  0
  3 42  1  0
  3 43  1  0
  4  5  1  0
  4 30  1  0
  4 44  1  1
  5  6  1  0
  5 45  1  0
  6  7  2  0
  6  8  1  0
  8  9  2  0
  8 28  1  0
  9 10  1  0
  9 46  1  0
 10 11  2  0
 10 47  1  0
 11 12  1  0
 11 27  1  0
 12 13  2  0
 12 25  1  0
 13 14  1  0
 14 15  1  0
 14 23  2  0
 15 16  1  0
 15 22  1  0
 15 48  1  6
 16 17  1  0
 16 49  1  0
 16 50  1  0
 17 18  1  0
 17 51  1  0
 17 52  1  0
 18 19  1  0
 18 20  1  0
 18 53  1  6
 19 54  1  0
 20 21  1  0
 20 22  1  0
 20 55  1  1
 22 56  1  0
 22 57  1  0
 23 24  1  0
 23 58  1  0
 24 25  2  0
 25 26  1  0
 26 59  1  0
 26 60  1  0
 27 28  2  0
 27 61  1  0
 28 29  1  0
 30 31  2  0
 30 37  1  0
 31 32  1  0
 31 62  1  0
 32 33  1  0
 32 34  2  0
 33 63  1  0
 33 64  1  0
 33 65  1  0
 34 35  1  0
 34 66  1  0
 35 36  1  0
 35 37  2  0
 37 67  1  0
M  END

