
     RDKit          3D

 52 56  0  0  0  0  0  0  0  0999 V2000
    4.0839   -1.6498    1.2162 C   0  0  0  0  0  0  0  0  0  0  0  0
    3.7590   -0.2955    0.9026 O   0  0  0  0  0  0  0  0  0  0  0  0
    4.7179    0.4273    0.2996 C   0  0  0  0  0  0  0  0  0  0  0  0
    5.8147   -0.0108    0.0450 O   0  0  0  0  0  0  0  0  0  0  0  0
    4.2097    1.8114   -0.0392 C   0  0  0  0  0  0  0  0  0  0  0  0
    5.3307    2.8192   -0.3791 C   0  0  2  0  0  0  0  0  0  0  0  0
    5.9693    2.3184   -1.7022 C   0  0  0  0  0  0  0  0  0  0  0  0
    5.2472    2.0481   -2.6441 O   0  0  0  0  0  0  0  0  0  0  0  0
    7.3225    2.2263   -1.7407 N   0  0  0  0  0  0  0  0  0  0  0  0
    8.1625    2.2243   -0.5565 C   0  0  0  0  0  0  0  0  0  0  0  0
    7.6471    3.2613    0.4257 C   0  0  0  0  0  0  0  0  0  0  0  0
    6.2545    2.9852    0.7601 N   0  0  0  0  0  0  0  0  0  0  0  0
    5.6491    3.9267    1.7042 C   0  0  2  0  0  0  0  0  0  0  0  0
    6.4397    4.5779    2.1169 H   0  0  0  0  0  0  0  0  0  0  0  0
    5.0071    3.2181    2.8666 C   0  0  0  0  0  0  0  0  0  0  0  0
    5.2057    1.9860    3.4274 C   0  0  0  0  0  0  0  0  0  0  0  0
    4.3623    1.9336    4.5886 C   0  0  0  0  0  0  0  0  0  0  0  0
    3.7191    3.1355    4.6440 C   0  0  0  0  0  0  0  0  0  0  0  0
    4.1058    3.9220    3.6037 O   0  0  0  0  0  0  0  0  0  0  0  0
    4.6420    4.8157    0.8774 C   0  0  1  0  0  0  0  0  0  0  0  0
    3.6582    4.8425    1.3620 H   0  0  0  0  0  0  0  0  0  0  0  0
    5.1469    6.2436    0.7387 C   0  0  0  0  0  0  0  0  0  0  0  0
    5.1863    7.0786    1.6075 O   0  0  0  0  0  0  0  0  0  0  0  0
    5.6128    6.4170   -0.5781 N   0  0  0  0  0  0  0  0  0  0  0  0
    6.2197    7.6179   -1.0578 C   0  0  0  0  0  0  0  0  0  0  0  0
    7.1007    8.3394   -0.2389 C   0  0  0  0  0  0  0  0  0  0  0  0
    7.6910    9.5136   -0.7062 C   0  0  0  0  0  0  0  0  0  0  0  0
    7.4072    9.9645   -1.9979 C   0  0  0  0  0  0  0  0  0  0  0  0
    8.1505   11.4325   -2.5863 Cl  0  0  0  0  0  0  0  0  0  0  0  0
    6.5332    9.2512   -2.8226 C   0  0  0  0  0  0  0  0  0  0  0  0
    5.9373    8.0818   -2.3509 C   0  0  0  0  0  0  0  0  0  0  0  0
    5.4294    5.2626   -1.3721 C   0  0  0  0  0  0  0  0  0  0  0  0
    5.7908    5.1555   -2.5148 O   0  0  0  0  0  0  0  0  0  0  0  0
    4.6634    4.2283   -0.5397 C   0  0  1  0  0  0  0  0  0  0  0  0
    3.6692    4.1369   -1.0019 H   0  0  0  0  0  0  0  0  0  0  0  0
    3.1841   -2.0832    1.6697 H   0  0  0  0  0  0  0  0  0  0  0  0
    4.9262   -1.6966    1.9234 H   0  0  0  0  0  0  0  0  0  0  0  0
    4.3613   -2.2066    0.3085 H   0  0  0  0  0  0  0  0  0  0  0  0
    3.5739    2.1623    0.7851 H   0  0  0  0  0  0  0  0  0  0  0  0
    3.5699    1.7116   -0.9306 H   0  0  0  0  0  0  0  0  0  0  0  0
    7.6816    1.8213   -2.6003 H   0  0  0  0  0  0  0  0  0  0  0  0
    9.1929    2.4779   -0.8490 H   0  0  0  0  0  0  0  0  0  0  0  0
    8.1656    1.2289   -0.0783 H   0  0  0  0  0  0  0  0  0  0  0  0
    7.7994    4.2743   -0.0085 H   0  0  0  0  0  0  0  0  0  0  0  0
    8.2438    3.2116    1.3503 H   0  0  0  0  0  0  0  0  0  0  0  0
    5.8783    1.2205    3.0501 H   0  0  0  0  0  0  0  0  0  0  0  0
    4.2484    1.1062    5.2861 H   0  0  0  0  0  0  0  0  0  0  0  0
    2.9868    3.5656    5.3220 H   0  0  0  0  0  0  0  0  0  0  0  0
    7.3130    7.9965    0.7724 H   0  0  0  0  0  0  0  0  0  0  0  0
    8.3727   10.0797   -0.0697 H   0  0  0  0  0  0  0  0  0  0  0  0
    6.3186    9.6121   -3.8296 H   0  0  0  0  0  0  0  0  0  0  0  0
    5.2635    7.5231   -2.9986 H   0  0  0  0  0  0  0  0  0  0  0  0
  1  2  1  0
  1 36  1  0
  1 37  1  0
  1 38  1  0
  2  3  1  0
  3  4  2  0
  3  5  1  0
  6  5  1  1
  5 39  1  0
  5 40  1  0
  6  7  1  0
  6 12  1  0
  6 34  1  0
  7  8  2  0
  7  9  1  0
  9 10  1  0
  9 41  1  0
 10 11  1  0
 10 42  1  0
 10 43  1  0
 11 12  1  0
 11 44  1  0
 11 45  1  0
 12 13  1  0
 13 14  1  1
 13 15  1  0
 13 20  1  0
 15 16  2  0
 15 19  1  0
 16 17  1  0
 16 46  1  0
 17 18  2  0
 17 47  1  0
 18 19  1  0
 18 48  1  0
 20 21  1  1
 20 22  1  0
 20 34  1  0
 22 23  2  0
 22 24  1  0
 24 25  1  0
 24 32  1  0
 25 26  2  0
 25 31  1  0
 26 27  1  0
 26 49  1  0
 27 28  2  0
 27 50  1  0
 28 29  1  0
 28 30  1  0
 30 31  2  0
 30 51  1  0
 31 52  1  0
 32 33  2  0
 32 34  1  0
 34 35  1  6
M  END

