
     RDKit          3D

 40 42  0  0  0  0  0  0  0  0999 V2000
    4.7350    0.0275    4.9994 C   0  0  0  0  0  0  0  0  0  0  0  0
    5.6947   -0.0274    3.9757 O   0  0  0  0  0  0  0  0  0  0  0  0
    5.1783    0.1889    2.6830 C   0  0  0  0  0  0  0  0  0  0  0  0
    6.3242    0.0485    1.6944 C   0  0  0  0  0  0  0  0  0  0  0  0
    6.9482   -1.2563    1.7995 N   0  0  0  0  0  0  0  0  0  0  0  0
    7.1422   -2.0751    0.7334 C   0  0  0  0  0  0  0  0  0  0  0  0
    6.8269   -1.8022   -0.4103 O   0  0  0  0  0  0  0  0  0  0  0  0
    7.7522   -3.4535    1.0478 C   0  0  0  0  0  0  0  0  0  0  0  0
    9.0597   -3.3619    2.3323 S   0  0  0  0  0  0  0  0  0  0  0  0
    9.2372   -5.0062    2.9675 C   0  0  0  0  0  0  0  0  0  0  0  0
    9.9872   -5.0383    4.0628 N   0  0  0  0  0  0  0  0  0  0  0  0
   10.2386   -6.2174    4.6472 C   0  0  0  0  0  0  0  0  0  0  0  0
    9.8069   -7.4036    4.2496 N   0  0  0  0  0  0  0  0  0  0  0  0
    9.0535   -7.4088    3.1369 C   0  0  0  0  0  0  0  0  0  0  0  0
    8.4793   -8.5785    2.4653 C   0  0  0  0  0  0  0  0  0  0  0  0
    8.5846   -9.9932    2.8899 C   0  0  0  0  0  0  0  0  0  0  0  0
    9.2841  -10.3856    4.0461 C   0  0  0  0  0  0  0  0  0  0  0  0
    9.3581  -11.7305    4.4129 C   0  0  0  0  0  0  0  0  0  0  0  0
    8.7316  -12.6978    3.6244 C   0  0  0  0  0  0  0  0  0  0  0  0
    8.8221  -14.3818    4.0806 Cl  0  0  0  0  0  0  0  0  0  0  0  0
    8.0303  -12.3308    2.4695 C   0  0  0  0  0  0  0  0  0  0  0  0
    7.9608  -10.9886    2.1104 C   0  0  0  0  0  0  0  0  0  0  0  0
    7.8118   -8.2827    1.3737 N   0  0  0  0  0  0  0  0  0  0  0  0
    7.7832   -6.6475    1.0344 S   0  0  0  0  0  0  0  0  0  0  0  0
    8.7297   -6.2184    2.4353 C   0  0  0  0  0  0  0  0  0  0  0  0
    5.2494   -0.1585    5.9533 H   0  0  0  0  0  0  0  0  0  0  0  0
    3.9442   -0.7385    4.8677 H   0  0  0  0  0  0  0  0  0  0  0  0
    4.2432    1.0196    5.0514 H   0  0  0  0  0  0  0  0  0  0  0  0
    4.7314    1.2012    2.5963 H   0  0  0  0  0  0  0  0  0  0  0  0
    4.3806   -0.5479    2.4522 H   0  0  0  0  0  0  0  0  0  0  0  0
    7.0663    0.8427    1.8912 H   0  0  0  0  0  0  0  0  0  0  0  0
    5.9656    0.1649    0.6623 H   0  0  0  0  0  0  0  0  0  0  0  0
    7.2237   -1.5603    2.7287 H   0  0  0  0  0  0  0  0  0  0  0  0
    8.1446   -3.8427    0.1001 H   0  0  0  0  0  0  0  0  0  0  0  0
    6.9382   -4.1050    1.4015 H   0  0  0  0  0  0  0  0  0  0  0  0
   10.8643   -6.1878    5.5464 H   0  0  0  0  0  0  0  0  0  0  0  0
    9.7726   -9.6282    4.6574 H   0  0  0  0  0  0  0  0  0  0  0  0
    9.9019  -12.0304    5.3102 H   0  0  0  0  0  0  0  0  0  0  0  0
    7.5455  -13.0970    1.8622 H   0  0  0  0  0  0  0  0  0  0  0  0
    7.4171  -10.6913    1.2126 H   0  0  0  0  0  0  0  0  0  0  0  0
  1  2  1  0
  1 26  1  0
  1 27  1  0
  1 28  1  0
  2  3  1  0
  3  4  1  0
  3 29  1  0
  3 30  1  0
  4  5  1  0
  4 31  1  0
  4 32  1  0
  5  6  1  0
  5 33  1  0
  6  7  2  0
  6  8  1  0
  8  9  1  0
  8 34  1  0
  8 35  1  0
  9 10  1  0
 10 11  2  0
 10 25  1  0
 11 12  1  0
 12 13  2  0
 12 36  1  0
 13 14  1  0
 14 15  1  0
 14 25  2  0
 15 16  1  0
 15 23  2  0
 16 17  2  0
 16 22  1  0
 17 18  1  0
 17 37  1  0
 18 19  2  0
 18 38  1  0
 19 20  1  0
 19 21  1  0
 21 22  2  0
 21 39  1  0
 22 40  1  0
 23 24  1  0
 24 25  1  0
M  END

