
     RDKit          3D

 60 63  0  0  0  0  0  0  0  0999 V2000
    0.6759   -0.4741   -0.1440 O   0  0  0  0  0  0  0  0  0  0  0  0
    1.7356    0.0291    0.2158 C   0  0  0  0  0  0  0  0  0  0  0  0
    1.9710    1.3776    0.0208 N   0  0  0  0  0  0  0  0  0  0  0  0
    0.9771    2.2034   -0.6339 C   0  0  0  0  0  0  0  0  0  0  0  0
    0.8766    1.9413   -2.1443 C   0  0  0  0  0  0  0  0  0  0  0  0
   -0.2238    3.1429   -2.9246 S   0  0  1  0  0  0  0  0  0  0  0  0
   -1.5727    2.9376   -2.3912 O   0  0  0  0  0  0  0  0  0  0  0  0
    0.4413    4.4537   -2.8316 O   0  0  0  0  0  0  0  0  0  0  0  0
   -0.2490    2.6479   -4.5388 N   0  0  0  0  0  0  0  0  0  0  0  0
    0.4001    3.4830   -5.5503 C   0  0  0  0  0  0  0  0  0  0  0  0
   -0.5670    4.5220   -6.1426 C   0  0  1  0  0  0  0  0  0  0  0  0
    0.0484    5.3862   -7.2535 C   0  0  0  0  0  0  0  0  0  0  0  0
    0.1443    4.6450   -8.5944 C   0  0  0  0  0  0  0  0  0  0  0  0
   -1.2150    4.0299   -8.9444 C   0  0  0  0  0  0  0  0  0  0  0  0
   -1.7156    3.1699   -7.7865 C   0  0  0  0  0  0  0  0  0  0  0  0
   -1.7804    3.8959   -6.5667 O   0  0  0  0  0  0  0  0  0  0  0  0
    2.7484   -0.6833    0.8420 N   0  0  0  0  0  0  0  0  0  0  0  0
    3.9356    0.0137    1.3342 C   0  0  0  0  0  0  0  0  0  0  0  0
    4.9524   -0.8020    2.1453 C   0  0  2  0  0  0  0  0  0  0  0  0
    5.6806   -1.8903    1.3278 C   0  0  0  0  0  0  0  0  0  0  0  0
    4.8747   -3.1924    1.1827 C   0  0  1  0  0  0  0  0  0  0  0  0
    4.5123   -3.7211    2.5826 C   0  0  0  0  0  0  0  0  0  0  0  0
    3.6185   -2.6916    3.2981 C   0  0  1  0  0  0  0  0  0  0  0  0
    4.3936   -1.3721    3.4676 C   0  0  0  0  0  0  0  0  0  0  0  0
    2.3113   -2.5206    2.5067 C   0  0  0  0  0  0  0  0  0  0  0  0
    2.5199   -2.1247    1.0294 C   0  0  2  0  0  0  0  0  0  0  0  0
    3.5903   -3.0095    0.3556 C   0  0  0  0  0  0  0  0  0  0  0  0
    2.8966    1.7622    0.1433 H   0  0  0  0  0  0  0  0  0  0  0  0
    1.2366    3.2586   -0.4622 H   0  0  0  0  0  0  0  0  0  0  0  0
   -0.0072    2.0158   -0.1825 H   0  0  0  0  0  0  0  0  0  0  0  0
    0.4615    0.9440   -2.3409 H   0  0  0  0  0  0  0  0  0  0  0  0
    1.8504    2.0491   -2.6452 H   0  0  0  0  0  0  0  0  0  0  0  0
   -1.2191    2.4302   -4.7790 H   0  0  0  0  0  0  0  0  0  0  0  0
    0.8145    2.8215   -6.3293 H   0  0  0  0  0  0  0  0  0  0  0  0
    1.2455    4.0082   -5.0841 H   0  0  0  0  0  0  0  0  0  0  0  0
   -0.8724    5.1725   -5.3083 H   0  0  0  0  0  0  0  0  0  0  0  0
    1.0356    5.7554   -6.9284 H   0  0  0  0  0  0  0  0  0  0  0  0
   -0.5931    6.2741   -7.3832 H   0  0  0  0  0  0  0  0  0  0  0  0
    0.9067    3.8468   -8.5404 H   0  0  0  0  0  0  0  0  0  0  0  0
    0.4788    5.3352   -9.3860 H   0  0  0  0  0  0  0  0  0  0  0  0
   -1.1552    3.4189   -9.8609 H   0  0  0  0  0  0  0  0  0  0  0  0
   -1.9484    4.8329   -9.1359 H   0  0  0  0  0  0  0  0  0  0  0  0
   -1.0675    2.2749   -7.6808 H   0  0  0  0  0  0  0  0  0  0  0  0
   -2.7385    2.8071   -7.9707 H   0  0  0  0  0  0  0  0  0  0  0  0
    3.6143    0.8604    1.9694 H   0  0  0  0  0  0  0  0  0  0  0  0
    4.4908    0.4546    0.4806 H   0  0  0  0  0  0  0  0  0  0  0  0
    5.7101   -0.0461    2.4168 H   0  0  0  0  0  0  0  0  0  0  0  0
    6.6322   -2.1264    1.8356 H   0  0  0  0  0  0  0  0  0  0  0  0
    5.9510   -1.4917    0.3342 H   0  0  0  0  0  0  0  0  0  0  0  0
    5.5123   -3.9317    0.6676 H   0  0  0  0  0  0  0  0  0  0  0  0
    5.4292   -3.9059    3.1690 H   0  0  0  0  0  0  0  0  0  0  0  0
    3.9870   -4.6883    2.5009 H   0  0  0  0  0  0  0  0  0  0  0  0
    3.3647   -3.0666    4.3046 H   0  0  0  0  0  0  0  0  0  0  0  0
    5.2434   -1.5564    4.1480 H   0  0  0  0  0  0  0  0  0  0  0  0
    3.7601   -0.6153    3.9621 H   0  0  0  0  0  0  0  0  0  0  0  0
    1.6498   -1.7813    2.9874 H   0  0  0  0  0  0  0  0  0  0  0  0
    1.7686   -3.4821    2.5231 H   0  0  0  0  0  0  0  0  0  0  0  0
    1.5697   -2.2899    0.5084 H   0  0  0  0  0  0  0  0  0  0  0  0
    3.8201   -2.6046   -0.6441 H   0  0  0  0  0  0  0  0  0  0  0  0
    3.1414   -4.0049    0.1929 H   0  0  0  0  0  0  0  0  0  0  0  0
  1  2  2  0
  2  3  1  0
  2 17  1  0
  3  4  1  0
  3 28  1  0
  4  5  1  0
  4 29  1  0
  4 30  1  0
  5  6  1  0
  5 31  1  0
  5 32  1  0
  6  7  2  0
  6  8  2  0
  6  9  1  6
  9 10  1  0
  9 33  1  0
 10 11  1  0
 10 34  1  0
 10 35  1  0
 11 12  1  0
 11 16  1  0
 11 36  1  1
 12 13  1  0
 12 37  1  0
 12 38  1  0
 13 14  1  0
 13 39  1  0
 13 40  1  0
 14 15  1  0
 14 41  1  0
 14 42  1  0
 15 16  1  0
 15 43  1  0
 15 44  1  0
 17 18  1  0
 17 26  1  0
 18 19  1  0
 18 45  1  0
 18 46  1  0
 19 20  1  0
 19 24  1  0
 19 47  1  1
 20 21  1  0
 20 48  1  0
 20 49  1  0
 21 22  1  0
 21 27  1  0
 21 50  1  6
 22 23  1  0
 22 51  1  0
 22 52  1  0
 23 24  1  0
 23 25  1  0
 23 53  1  1
 24 54  1  0
 24 55  1  0
 25 26  1  0
 25 56  1  0
 25 57  1  0
 26 27  1  0
 26 58  1  6
 27 59  1  0
 27 60  1  0
M  END

