
     RDKit          3D

 90100  0  0  0  0  0  0  0  0999 V2000
    2.5288    4.1246    7.1845 C   0  0  0  0  0  0  0  0  0  0  0  0
    1.8437    2.9908    6.7369 C   0  0  0  0  0  0  0  0  0  0  0  0
    2.2949    2.2951    5.6119 C   0  0  0  0  0  0  0  0  0  0  0  0
    3.4431    2.7308    4.9363 C   0  0  0  0  0  0  0  0  0  0  0  0
    3.9169    2.0026    3.8039 N   0  0  0  0  0  0  0  0  0  0  0  0
    4.1121    2.4387    2.4872 C   0  0  0  0  0  0  0  0  0  0  0  0
    3.6653    3.7347    1.9467 C   0  0  0  0  0  0  0  0  0  0  0  0
    4.3430    4.2490    0.8238 C   0  0  0  0  0  0  0  0  0  0  0  0
    3.9515    5.4485    0.2392 C   0  0  0  0  0  0  0  0  0  0  0  0
    2.8614    6.1879    0.7414 C   0  0  0  0  0  0  0  0  0  0  0  0
    2.4454    7.4694    0.1186 C   0  0  0  0  0  0  0  0  0  0  0  0
    2.5523    7.6782   -1.2698 C   0  0  0  0  0  0  0  0  0  0  0  0
    2.1595    8.8803   -1.8543 C   0  0  0  0  0  0  0  0  0  0  0  0
    1.6425    9.9373   -1.0810 C   0  0  0  0  0  0  0  0  0  0  0  0
    1.2245   11.2179   -1.7037 C   0  0  0  0  0  0  0  0  0  0  0  0
    0.6495   11.2545   -2.9872 C   0  0  0  0  0  0  0  0  0  0  0  0
    0.2586   12.4545   -3.5800 C   0  0  0  0  0  0  0  0  0  0  0  0
    0.4294   13.6800   -2.9092 C   0  0  0  0  0  0  0  0  0  0  0  0
    0.0178   14.9963   -3.4309 C   0  0  0  0  0  0  0  0  0  0  0  0
   -0.2641   16.0072   -2.6365 N   0  0  0  0  0  0  0  0  0  0  0  0
   -0.5934   17.0591   -3.4430 C   0  0  0  0  0  0  0  0  0  0  0  0
   -0.9983   18.3658   -3.0367 C   0  0  0  0  0  0  0  0  0  0  0  0
   -1.1111   18.7551   -1.6800 C   0  0  0  0  0  0  0  0  0  0  0  0
   -1.5380   20.0290   -1.3543 C   0  0  0  0  0  0  0  0  0  0  0  0
   -1.8714   20.9572   -2.3723 C   0  0  0  0  0  0  0  0  0  0  0  0
   -1.7651   20.6025   -3.7020 C   0  0  0  0  0  0  0  0  0  0  0  0
   -1.3199   19.3028   -4.0726 C   0  0  0  0  0  0  0  0  0  0  0  0
   -1.1777   18.9191   -5.4353 C   0  0  0  0  0  0  0  0  0  0  0  0
   -1.5807   19.6061   -6.6975 C   0  0  0  0  0  0  0  0  0  0  0  0
   -0.5343   19.6784   -7.5688 C   0  0  0  0  0  0  0  0  0  0  0  0
   -0.4049   18.3699   -8.2507 C   0  0  0  0  0  0  0  0  0  0  0  0
   -0.4827   17.3746   -7.3094 C   0  0  0  0  0  0  0  0  0  0  0  0
   -0.7304   17.6319   -5.8548 C   0  0  0  0  0  0  0  0  0  0  0  0
   -0.4968   16.6935   -4.8026 C   0  0  0  0  0  0  0  0  0  0  0  0
   -0.1104   15.3509   -4.7788 N   0  0  0  0  0  0  0  0  0  0  0  0
    0.1648   14.5261   -5.9149 C   0  0  0  0  0  0  0  0  0  0  0  0
    1.4893   14.2681   -6.2867 C   0  0  0  0  0  0  0  0  0  0  0  0
    1.7535   13.4591   -7.3951 C   0  0  0  0  0  0  0  0  0  0  0  0
    0.6998   12.9141   -8.1356 C   0  0  0  0  0  0  0  0  0  0  0  0
   -0.6234   13.1773   -7.7643 C   0  0  0  0  0  0  0  0  0  0  0  0
   -0.8937   13.9796   -6.6532 C   0  0  0  0  0  0  0  0  0  0  0  0
    0.9919   13.6466   -1.6161 C   0  0  0  0  0  0  0  0  0  0  0  0
    1.3812   12.4471   -1.0316 C   0  0  0  0  0  0  0  0  0  0  0  0
    1.5377    9.7292    0.3077 C   0  0  0  0  0  0  0  0  0  0  0  0
    1.9273    8.5260    0.8918 C   0  0  0  0  0  0  0  0  0  0  0  0
    2.1778    5.6598    1.8525 C   0  0  0  0  0  0  0  0  0  0  0  0
    2.5672    4.4594    2.4448 C   0  0  0  0  0  0  0  0  0  0  0  0
    4.7316    1.5417    1.7524 N   0  0  0  0  0  0  0  0  0  0  0  0
    4.9669    0.4635    2.5731 C   0  0  0  0  0  0  0  0  0  0  0  0
    5.5985   -0.7614    2.2996 C   0  0  0  0  0  0  0  0  0  0  0  0
    5.7172   -1.6838    3.3358 C   0  0  0  0  0  0  0  0  0  0  0  0
    5.2228   -1.4024    4.6283 C   0  0  0  0  0  0  0  0  0  0  0  0
    4.5902   -0.1938    4.9216 C   0  0  0  0  0  0  0  0  0  0  0  0
    4.4645    0.7238    3.8727 C   0  0  0  0  0  0  0  0  0  0  0  0
    4.1391    3.8585    5.3919 C   0  0  0  0  0  0  0  0  0  0  0  0
    3.6747    4.5566    6.5088 C   0  0  0  0  0  0  0  0  0  0  0  0
    2.1713    4.6702    8.0611 H   0  0  0  0  0  0  0  0  0  0  0  0
    0.9480    2.6481    7.2609 H   0  0  0  0  0  0  0  0  0  0  0  0
    1.7585    1.4171    5.2460 H   0  0  0  0  0  0  0  0  0  0  0  0
    5.1864    3.6845    0.4236 H   0  0  0  0  0  0  0  0  0  0  0  0
    4.5194    5.8339   -0.6105 H   0  0  0  0  0  0  0  0  0  0  0  0
    2.9343    6.8784   -1.9081 H   0  0  0  0  0  0  0  0  0  0  0  0
    2.2733    9.0068   -2.9333 H   0  0  0  0  0  0  0  0  0  0  0  0
    0.4715   10.3210   -3.5253 H   0  0  0  0  0  0  0  0  0  0  0  0
   -0.2098   12.4191   -4.5619 H   0  0  0  0  0  0  0  0  0  0  0  0
   -0.8600   18.0251   -0.9082 H   0  0  0  0  0  0  0  0  0  0  0  0
   -1.6259   20.3234   -0.3052 H   0  0  0  0  0  0  0  0  0  0  0  0
   -2.2161   21.9581   -2.1001 H   0  0  0  0  0  0  0  0  0  0  0  0
   -2.0174   21.3105   -4.4957 H   0  0  0  0  0  0  0  0  0  0  0  0
   -2.4853   19.1401   -7.1243 H   0  0  0  0  0  0  0  0  0  0  0  0
    0.4232   20.0949   -7.2099 H   0  0  0  0  0  0  0  0  0  0  0  0
   -0.0244   18.1668   -9.2584 H   0  0  0  0  0  0  0  0  0  0  0  0
   -0.2272   16.3561   -7.6065 H   0  0  0  0  0  0  0  0  0  0  0  0
    2.3035   14.7024   -5.7034 H   0  0  0  0  0  0  0  0  0  0  0  0
    2.7881   13.2569   -7.6826 H   0  0  0  0  0  0  0  0  0  0  0  0
    0.9093   12.2840   -9.0033 H   0  0  0  0  0  0  0  0  0  0  0  0
   -1.4497   12.7536   -8.3402 H   0  0  0  0  0  0  0  0  0  0  0  0
   -1.9218   14.1889   -6.3502 H   0  0  0  0  0  0  0  0  0  0  0  0
    1.1201   14.5892   -1.0826 H   0  0  0  0  0  0  0  0  0  0  0  0
    1.8421   12.4664   -0.0415 H   0  0  0  0  0  0  0  0  0  0  0  0
    1.1268   10.5177    0.9422 H   0  0  0  0  0  0  0  0  0  0  0  0
    1.8435    8.4111    1.9748 H   0  0  0  0  0  0  0  0  0  0  0  0
    1.3013    6.1805    2.2442 H   0  0  0  0  0  0  0  0  0  0  0  0
    1.9866    4.0759    3.2836 H   0  0  0  0  0  0  0  0  0  0  0  0
    5.9832   -0.9661    1.2984 H   0  0  0  0  0  0  0  0  0  0  0  0
    6.2044   -2.6444    3.1509 H   0  0  0  0  0  0  0  0  0  0  0  0
    5.3388   -2.1484    5.4186 H   0  0  0  0  0  0  0  0  0  0  0  0
    4.2134    0.0214    5.9231 H   0  0  0  0  0  0  0  0  0  0  0  0
    5.0390    4.1826    4.8657 H   0  0  0  0  0  0  0  0  0  0  0  0
    4.2173    5.4386    6.8578 H   0  0  0  0  0  0  0  0  0  0  0  0
  1  2  2  0
  1 56  1  0
  1 57  1  0
  2  3  1  0
  2 58  1  0
  3  4  2  0
  3 59  1  0
  4  5  1  0
  4 55  1  0
  5  6  1  0
  5 54  1  0
  6  7  1  0
  6 48  2  0
  7  8  2  0
  7 47  1  0
  8  9  1  0
  8 60  1  0
  9 10  2  0
  9 61  1  0
 10 11  1  0
 10 46  1  0
 11 12  2  0
 11 45  1  0
 12 13  1  0
 12 62  1  0
 13 14  2  0
 13 63  1  0
 14 15  1  0
 14 44  1  0
 15 16  2  0
 15 43  1  0
 16 17  1  0
 16 64  1  0
 17 18  2  0
 17 65  1  0
 18 19  1  0
 18 42  1  0
 19 20  2  0
 19 35  1  0
 20 21  1  0
 21 22  2  0
 21 34  1  0
 22 23  1  0
 22 27  1  0
 23 24  2  0
 23 66  1  0
 24 25  1  0
 24 67  1  0
 25 26  2  0
 25 68  1  0
 26 27  1  0
 26 69  1  0
 27 28  2  0
 28 29  1  0
 28 33  1  0
 29 30  2  0
 29 70  1  0
 30 31  1  0
 30 71  1  0
 31 32  2  0
 31 72  1  0
 32 33  1  0
 32 73  1  0
 33 34  2  0
 34 35  1  0
 35 36  1  0
 36 37  2  0
 36 41  1  0
 37 38  1  0
 37 74  1  0
 38 39  2  0
 38 75  1  0
 39 40  1  0
 39 76  1  0
 40 41  2  0
 40 77  1  0
 41 78  1  0
 42 43  2  0
 42 79  1  0
 43 80  1  0
 44 45  2  0
 44 81  1  0
 45 82  1  0
 46 47  2  0
 46 83  1  0
 47 84  1  0
 48 49  1  0
 49 50  2  0
 49 54  1  0
 50 51  1  0
 50 85  1  0
 51 52  2  0
 51 86  1  0
 52 53  1  0
 52 87  1  0
 53 54  2  0
 53 88  1  0
 55 56  2  0
 55 89  1  0
 56 90  1  0
M  END

