
     RDKit          3D

 40 42  0  0  0  0  0  0  0  0999 V2000
    2.0845   -2.1492   -0.0410 C   0  0  0  0  0  0  0  0  0  0  0  0
    2.8429   -0.9832    0.3680 N   0  0  0  0  0  0  0  0  0  0  0  0
    4.0343   -0.5583   -0.1035 C   0  0  0  0  0  0  0  0  0  0  0  0
    4.3498    0.5930    0.6037 C   0  0  0  0  0  0  0  0  0  0  0  0
    5.8365    1.4943    0.2988 S   0  0  1  0  0  0  0  0  0  0  0  0
    6.5784    1.6563    1.5552 O   0  0  0  0  0  0  0  0  0  0  0  0
    6.4605    0.8460   -0.8615 O   0  0  0  0  0  0  0  0  0  0  0  0
    5.3309    3.0470   -0.1060 N   0  0  0  0  0  0  0  0  0  0  0  0
    5.2348    3.4598   -1.5237 C   0  0  1  0  0  0  0  0  0  0  0  0
    3.9577    2.9131   -2.1853 C   0  0  0  0  0  0  0  0  0  0  0  0
    2.6786    3.5380   -1.6148 C   0  0  0  0  0  0  0  0  0  0  0  0
    2.7191    5.0704   -1.6920 C   0  0  0  0  0  0  0  0  0  0  0  0
    3.9741    5.6330   -1.0114 C   0  0  0  0  0  0  0  0  0  0  0  0
    5.2509    4.9974   -1.5799 C   0  0  0  0  0  0  0  0  0  0  0  0
    3.2619    0.7810    1.5173 C   0  0  0  0  0  0  0  0  0  0  0  0
    3.0276    1.8256    2.5074 C   0  0  0  0  0  0  0  0  0  0  0  0
    3.9315    2.6530    3.1438 C   0  0  0  0  0  0  0  0  0  0  0  0
    3.3106    3.5433    4.0670 C   0  0  0  0  0  0  0  0  0  0  0  0
    1.9473    3.3855    4.1215 C   0  0  0  0  0  0  0  0  0  0  0  0
    1.3976    2.1443    3.0536 S   0  0  0  0  0  0  0  0  0  0  0  0
    2.3637   -0.1918    1.3412 N   0  0  0  0  0  0  0  0  0  0  0  0
    2.6279   -2.6693   -0.8403 H   0  0  0  0  0  0  0  0  0  0  0  0
    1.0943   -1.8431   -0.4097 H   0  0  0  0  0  0  0  0  0  0  0  0
    1.9497   -2.8296    0.8128 H   0  0  0  0  0  0  0  0  0  0  0  0
    4.5849   -1.0633   -0.8933 H   0  0  0  0  0  0  0  0  0  0  0  0
    5.8641    3.6860    0.4827 H   0  0  0  0  0  0  0  0  0  0  0  0
    6.1096    3.0722   -2.0733 H   0  0  0  0  0  0  0  0  0  0  0  0
    3.9356    1.8157   -2.0976 H   0  0  0  0  0  0  0  0  0  0  0  0
    4.0302    3.1312   -3.2659 H   0  0  0  0  0  0  0  0  0  0  0  0
    2.5597    3.2288   -0.5625 H   0  0  0  0  0  0  0  0  0  0  0  0
    1.8000    3.1506   -2.1572 H   0  0  0  0  0  0  0  0  0  0  0  0
    1.8129    5.5012   -1.2345 H   0  0  0  0  0  0  0  0  0  0  0  0
    2.7106    5.3833   -2.7531 H   0  0  0  0  0  0  0  0  0  0  0  0
    3.9158    5.4398    0.0738 H   0  0  0  0  0  0  0  0  0  0  0  0
    4.0204    6.7284   -1.1315 H   0  0  0  0  0  0  0  0  0  0  0  0
    6.1478    5.3809   -1.0615 H   0  0  0  0  0  0  0  0  0  0  0  0
    5.3654    5.2856   -2.6393 H   0  0  0  0  0  0  0  0  0  0  0  0
    5.0055    2.5883    2.9709 H   0  0  0  0  0  0  0  0  0  0  0  0
    3.8572    4.2671    4.6735 H   0  0  0  0  0  0  0  0  0  0  0  0
    1.2327    3.9286    4.7388 H   0  0  0  0  0  0  0  0  0  0  0  0
  1  2  1  0
  1 22  1  0
  1 23  1  0
  1 24  1  0
  2  3  1  0
  2 21  1  0
  3  4  2  0
  3 25  1  0
  4  5  1  0
  4 15  1  0
  5  6  2  0
  5  7  2  0
  5  8  1  6
  8  9  1  0
  8 26  1  0
  9 10  1  0
  9 14  1  0
  9 27  1  6
 10 11  1  0
 10 28  1  0
 10 29  1  0
 11 12  1  0
 11 30  1  0
 11 31  1  0
 12 13  1  0
 12 32  1  0
 12 33  1  0
 13 14  1  0
 13 34  1  0
 13 35  1  0
 14 36  1  0
 14 37  1  0
 15 16  1  0
 15 21  2  0
 16 17  2  0
 16 20  1  0
 17 18  1  0
 17 38  1  0
 18 19  2  0
 18 39  1  0
 19 20  1  0
 19 40  1  0
M  END

