
     RDKit          3D

 38 38  0  0  0  0  0  0  0  0999 V2000
   -0.3012   -2.5462    2.1935 N   0  0  0  0  0  0  0  0  0  0  0  0
    0.8138   -1.6843    1.8344 C   0  0  0  0  0  0  0  0  0  0  0  0
    1.2804   -1.9795    0.4171 C   0  0  1  0  0  0  0  0  0  0  0  0
    2.4365   -1.1112   -0.0915 C   0  0  0  0  0  0  0  0  0  0  0  0
    3.1582   -2.0485   -1.0637 C   0  0  0  0  0  0  0  0  0  0  0  0
    2.9969   -3.4107   -0.3668 C   0  0  2  0  0  0  0  0  0  0  0  0
    3.0142   -4.5830   -1.3479 C   0  0  0  0  0  0  0  0  0  0  0  0
    4.0063   -4.8253   -2.0190 O   0  0  0  0  0  0  0  0  0  0  0  0
    1.8582   -5.2914   -1.4100 N   0  0  0  0  0  0  0  0  0  0  0  0
    1.6927   -6.4124   -2.3039 C   0  0  1  0  0  0  0  0  0  0  0  0
    2.4496   -6.2967   -3.0994 H   0  0  0  0  0  0  0  0  0  0  0  0
    1.9398   -7.7604   -1.5837 C   0  0  0  0  0  0  0  0  0  0  0  0
    1.8989   -8.9967   -2.4817 C   0  0  0  0  0  0  0  0  0  0  0  0
    2.3780  -10.2503   -1.7409 C   0  0  0  0  0  0  0  0  0  0  0  0
    1.8722  -11.4256   -2.2142 N   0  0  0  0  0  0  0  0  0  0  0  0
    3.1692  -10.2007   -0.8188 O   0  0  0  0  0  0  0  0  0  0  0  0
    0.2779   -6.3607   -2.8908 C   0  0  0  0  0  0  0  0  0  0  0  0
   -0.6661   -5.9211   -2.2942 O   0  0  0  0  0  0  0  0  0  0  0  0
    0.1275   -6.9046   -4.1196 O   0  0  0  0  0  0  0  0  0  0  0  0
    1.7740   -3.3353    0.3602 O   0  0  0  0  0  0  0  0  0  0  0  0
   -0.6056   -2.3628    3.1488 H   0  0  0  0  0  0  0  0  0  0  0  0
    0.0068   -3.5189    2.1676 H   0  0  0  0  0  0  0  0  0  0  0  0
    1.7000   -1.7641    2.5031 H   0  0  0  0  0  0  0  0  0  0  0  0
    0.4810   -0.6315    1.8710 H   0  0  0  0  0  0  0  0  0  0  0  0
    0.4057   -1.9070   -0.2560 H   0  0  0  0  0  0  0  0  0  0  0  0
    3.1012   -0.8382    0.7459 H   0  0  0  0  0  0  0  0  0  0  0  0
    2.0857   -0.1813   -0.5628 H   0  0  0  0  0  0  0  0  0  0  0  0
    4.2118   -1.7953   -1.2414 H   0  0  0  0  0  0  0  0  0  0  0  0
    2.6463   -2.0622   -2.0397 H   0  0  0  0  0  0  0  0  0  0  0  0
    3.8371   -3.5835    0.3327 H   0  0  0  0  0  0  0  0  0  0  0  0
    1.0725   -4.9921   -0.8372 H   0  0  0  0  0  0  0  0  0  0  0  0
    1.2035   -7.8610   -0.7690 H   0  0  0  0  0  0  0  0  0  0  0  0
    2.9310   -7.7096   -1.1108 H   0  0  0  0  0  0  0  0  0  0  0  0
    2.5864   -8.8626   -3.3394 H   0  0  0  0  0  0  0  0  0  0  0  0
    0.8953   -9.1664   -2.9050 H   0  0  0  0  0  0  0  0  0  0  0  0
    1.1941  -11.4668   -2.9626 H   0  0  0  0  0  0  0  0  0  0  0  0
    2.1802  -12.2893   -1.7826 H   0  0  0  0  0  0  0  0  0  0  0  0
    0.9904   -7.1385   -4.4907 H   0  0  0  0  0  0  0  0  0  0  0  0
  1  2  1  0
  1 21  1  0
  1 22  1  0
  2  3  1  0
  2 23  1  0
  2 24  1  0
  3  4  1  0
  3 20  1  0
  3 25  1  6
  4  5  1  0
  4 26  1  0
  4 27  1  0
  5  6  1  0
  5 28  1  0
  5 29  1  0
  6  7  1  0
  6 20  1  0
  6 30  1  1
  7  8  2  0
  7  9  1  0
  9 10  1  0
  9 31  1  0
 10 11  1  6
 10 12  1  0
 10 17  1  0
 12 13  1  0
 12 32  1  0
 12 33  1  0
 13 14  1  0
 13 34  1  0
 13 35  1  0
 14 15  1  0
 14 16  2  0
 15 36  1  0
 15 37  1  0
 17 18  2  0
 17 19  1  0
 19 38  1  0
M  END

