
     RDKit          3D

 53 55  0  0  0  0  0  0  0  0999 V2000
    4.6605    2.2026   -0.0352 C   0  0  0  0  0  0  0  0  0  0  0  0
    3.6403    1.0667   -0.1490 C   0  0  0  0  0  0  0  0  0  0  0  0
    3.8364    0.1346   -1.3557 C   0  0  0  0  0  0  0  0  0  0  0  0
    5.1906   -0.6120   -1.4148 C   0  0  1  0  0  0  0  0  0  0  0  0
    5.5033   -1.2630   -0.0897 C   0  0  0  0  0  0  0  0  0  0  0  0
    6.3639   -0.7808    0.7911 N   0  0  0  0  0  0  0  0  0  0  0  0
    6.3130   -1.5915    1.8675 N   0  0  0  0  0  0  0  0  0  0  0  0
    5.4662   -2.5420    1.6828 N   0  0  0  0  0  0  0  0  0  0  0  0
    4.9352   -2.3669    0.4556 N   0  0  0  0  0  0  0  0  0  0  0  0
    3.9549   -3.3293   -0.0574 C   0  0  0  0  0  0  0  0  0  0  0  0
    4.5517   -4.6434   -0.5193 C   0  0  0  0  0  0  0  0  0  0  0  0
    5.2373   -5.4878    0.3747 C   0  0  0  0  0  0  0  0  0  0  0  0
    5.7526   -6.7064   -0.0489 C   0  0  0  0  0  0  0  0  0  0  0  0
    5.5903   -7.1245   -1.3831 C   0  0  0  0  0  0  0  0  0  0  0  0
    6.1224   -8.3307   -1.6997 O   0  0  0  0  0  0  0  0  0  0  0  0
    5.9975   -8.8184   -3.0162 C   0  0  0  0  0  0  0  0  0  0  0  0
    4.9066   -6.2946   -2.2834 C   0  0  0  0  0  0  0  0  0  0  0  0
    4.4006   -5.0649   -1.8432 C   0  0  0  0  0  0  0  0  0  0  0  0
    5.2475   -1.6253   -2.4850 N   0  0  0  0  0  0  0  0  0  0  0  0
    4.6886   -1.2723   -3.7969 C   0  0  0  0  0  0  0  0  0  0  0  0
    5.6111   -0.3545   -4.6203 C   0  0  0  0  0  0  0  0  0  0  0  0
    6.9560   -0.8996   -4.7851 N   0  0  0  0  0  0  0  0  0  0  0  0
    7.0942   -1.8861   -5.8393 C   0  0  0  0  0  0  0  0  0  0  0  0
    7.5224   -1.2869   -3.4937 C   0  0  0  0  0  0  0  0  0  0  0  0
    6.5931   -2.1985   -2.6708 C   0  0  0  0  0  0  0  0  0  0  0  0
    4.3783    2.8990    0.7702 H   0  0  0  0  0  0  0  0  0  0  0  0
    4.7196    2.7853   -0.9707 H   0  0  0  0  0  0  0  0  0  0  0  0
    5.6656    1.8214    0.2001 H   0  0  0  0  0  0  0  0  0  0  0  0
    2.6255    1.4930   -0.2310 H   0  0  0  0  0  0  0  0  0  0  0  0
    3.6411    0.4806    0.7860 H   0  0  0  0  0  0  0  0  0  0  0  0
    3.7367    0.7379   -2.2725 H   0  0  0  0  0  0  0  0  0  0  0  0
    3.0170   -0.6047   -1.3820 H   0  0  0  0  0  0  0  0  0  0  0  0
    5.9794    0.1576   -1.5199 H   0  0  0  0  0  0  0  0  0  0  0  0
    3.4306   -2.8454   -0.8875 H   0  0  0  0  0  0  0  0  0  0  0  0
    3.2400   -3.4948    0.7633 H   0  0  0  0  0  0  0  0  0  0  0  0
    5.3756   -5.1736    1.4119 H   0  0  0  0  0  0  0  0  0  0  0  0
    6.2877   -7.3650    0.6382 H   0  0  0  0  0  0  0  0  0  0  0  0
    6.4952   -9.7972   -3.0364 H   0  0  0  0  0  0  0  0  0  0  0  0
    6.4880   -8.1534   -3.7502 H   0  0  0  0  0  0  0  0  0  0  0  0
    4.9397   -8.9495   -3.3083 H   0  0  0  0  0  0  0  0  0  0  0  0
    4.7636   -6.5883   -3.3234 H   0  0  0  0  0  0  0  0  0  0  0  0
    3.8784   -4.4214   -2.5558 H   0  0  0  0  0  0  0  0  0  0  0  0
    3.6909   -0.8262   -3.6850 H   0  0  0  0  0  0  0  0  0  0  0  0
    4.5384   -2.2193   -4.3460 H   0  0  0  0  0  0  0  0  0  0  0  0
    5.6925    0.6282   -4.1182 H   0  0  0  0  0  0  0  0  0  0  0  0
    5.1724   -0.1645   -5.6144 H   0  0  0  0  0  0  0  0  0  0  0  0
    6.7488   -1.4572   -6.7945 H   0  0  0  0  0  0  0  0  0  0  0  0
    6.5386   -2.8391   -5.6878 H   0  0  0  0  0  0  0  0  0  0  0  0
    8.1579   -2.1477   -5.9619 H   0  0  0  0  0  0  0  0  0  0  0  0
    7.7384   -0.3669   -2.9201 H   0  0  0  0  0  0  0  0  0  0  0  0
    8.4921   -1.7848   -3.6576 H   0  0  0  0  0  0  0  0  0  0  0  0
    7.0424   -2.4142   -1.6893 H   0  0  0  0  0  0  0  0  0  0  0  0
    6.4747   -3.1712   -3.1786 H   0  0  0  0  0  0  0  0  0  0  0  0
  1  2  1  0
  1 26  1  0
  1 27  1  0
  1 28  1  0
  2  3  1  0
  2 29  1  0
  2 30  1  0
  3  4  1  0
  3 31  1  0
  3 32  1  0
  4  5  1  0
  4 19  1  0
  4 33  1  6
  5  6  2  0
  5  9  1  0
  6  7  1  0
  7  8  2  0
  8  9  1  0
  9 10  1  0
 10 11  1  0
 10 34  1  0
 10 35  1  0
 11 12  2  0
 11 18  1  0
 12 13  1  0
 12 36  1  0
 13 14  2  0
 13 37  1  0
 14 15  1  0
 14 17  1  0
 15 16  1  0
 16 38  1  0
 16 39  1  0
 16 40  1  0
 17 18  2  0
 17 41  1  0
 18 42  1  0
 19 20  1  0
 19 25  1  0
 20 21  1  0
 20 43  1  0
 20 44  1  0
 21 22  1  0
 21 45  1  0
 21 46  1  0
 22 23  1  0
 22 24  1  0
 23 47  1  0
 23 48  1  0
 23 49  1  0
 24 25  1  0
 24 50  1  0
 24 51  1  0
 25 52  1  0
 25 53  1  0
M  END

