
     RDKit          3D

 34 34  0  0  0  0  0  0  0  0999 V2000
    7.5423   -1.9628   -0.8245 C   0  0  0  0  0  0  0  0  0  0  0  0
    6.5816   -0.8180   -1.1723 C   0  0  1  0  0  0  0  0  0  0  0  0
    6.7433   -0.4089   -2.6441 C   0  0  0  0  0  0  0  0  0  0  0  0
    5.1019   -1.1457   -0.8828 C   0  0  0  0  0  0  0  0  0  0  0  0
    4.6271   -1.2826    0.5829 C   0  0  2  0  0  0  0  0  0  0  0  0
    3.5139   -1.3144    0.5229 H   0  0  0  0  0  0  0  0  0  0  0  0
    4.9911   -0.0652    1.4363 C   0  0  0  0  0  0  0  0  0  0  0  0
    5.1161   -2.4940    1.2516 N   0  0  0  0  0  0  0  0  0  0  0  0
    4.5002   -3.7371    0.8224 C   0  0  0  0  0  0  0  0  0  0  0  0
    4.9782   -4.9389    1.6096 C   0  0  0  0  0  0  0  0  0  0  0  0
    4.1636   -6.0707    1.7577 C   0  0  0  0  0  0  0  0  0  0  0  0
    4.6485   -7.1771    2.4592 C   0  0  0  0  0  0  0  0  0  0  0  0
    5.8615   -7.2261    3.0168 N   0  0  0  0  0  0  0  0  0  0  0  0
    6.6364   -6.1473    2.8817 C   0  0  0  0  0  0  0  0  0  0  0  0
    6.2499   -4.9913    2.1960 C   0  0  0  0  0  0  0  0  0  0  0  0
    8.5857   -1.6794   -1.0416 H   0  0  0  0  0  0  0  0  0  0  0  0
    7.3134   -2.8606   -1.4255 H   0  0  0  0  0  0  0  0  0  0  0  0
    7.4653   -2.2451    0.2337 H   0  0  0  0  0  0  0  0  0  0  0  0
    6.8636    0.0574   -0.5592 H   0  0  0  0  0  0  0  0  0  0  0  0
    6.4561   -1.2353   -3.3175 H   0  0  0  0  0  0  0  0  0  0  0  0
    7.7888   -0.1454   -2.8725 H   0  0  0  0  0  0  0  0  0  0  0  0
    6.1143    0.4601   -2.8981 H   0  0  0  0  0  0  0  0  0  0  0  0
    4.8271   -2.0598   -1.4400 H   0  0  0  0  0  0  0  0  0  0  0  0
    4.4827   -0.3460   -1.3268 H   0  0  0  0  0  0  0  0  0  0  0  0
    4.5000   -0.1180    2.4225 H   0  0  0  0  0  0  0  0  0  0  0  0
    4.6642    0.8680    0.9526 H   0  0  0  0  0  0  0  0  0  0  0  0
    6.0773   -0.0039    1.6057 H   0  0  0  0  0  0  0  0  0  0  0  0
    4.9848   -2.3919    2.2578 H   0  0  0  0  0  0  0  0  0  0  0  0
    4.7507   -3.9070   -0.2406 H   0  0  0  0  0  0  0  0  0  0  0  0
    3.3874   -3.7062    0.8603 H   0  0  0  0  0  0  0  0  0  0  0  0
    3.1556   -6.0920    1.3334 H   0  0  0  0  0  0  0  0  0  0  0  0
    4.0180   -8.0667    2.5795 H   0  0  0  0  0  0  0  0  0  0  0  0
    7.6296   -6.1986    3.3446 H   0  0  0  0  0  0  0  0  0  0  0  0
    6.9265   -4.1388    2.1175 H   0  0  0  0  0  0  0  0  0  0  0  0
  1  2  1  0
  1 16  1  0
  1 17  1  0
  1 18  1  0
  2  3  1  0
  2  4  1  0
  2 19  1  1
  3 20  1  0
  3 21  1  0
  3 22  1  0
  4  5  1  0
  4 23  1  0
  4 24  1  0
  5  6  1  6
  5  7  1  0
  5  8  1  0
  7 25  1  0
  7 26  1  0
  7 27  1  0
  8  9  1  0
  8 28  1  0
  9 10  1  0
  9 29  1  0
  9 30  1  0
 10 11  2  0
 10 15  1  0
 11 12  1  0
 11 31  1  0
 12 13  2  0
 12 32  1  0
 13 14  1  0
 14 15  2  0
 14 33  1  0
 15 34  1  0
M  END

