
     RDKit          3D

 41 42  0  0  0  0  0  0  0  0999 V2000
    2.1472    0.9779    0.1546 N   0  0  0  0  0  0  0  0  0  0  0  0
    2.1217   -0.3932    0.1016 C   0  0  0  0  0  0  0  0  0  0  0  0
    1.0473   -1.0910    0.2555 N   0  0  0  0  0  0  0  0  0  0  0  0
   -0.0717   -0.2416    0.4124 O   0  0  0  0  0  0  0  0  0  0  0  0
    3.4369   -1.1560   -0.0309 C   0  0  1  0  0  0  0  0  0  0  0  0
    3.2686   -2.5415   -0.6869 C   0  0  0  0  0  0  0  0  0  0  0  0
    2.9782   -2.4326   -2.1913 C   0  0  0  0  0  0  0  0  0  0  0  0
    3.9728   -1.5175   -2.9171 C   0  0  0  0  0  0  0  0  0  0  0  0
    4.0421   -0.2374   -2.2060 N   0  0  0  0  0  0  0  0  0  0  0  0
    4.4926    1.1457   -3.0405 S   0  0  1  0  0  0  0  0  0  0  0  0
    4.3756    2.2277   -2.0466 O   0  0  0  0  0  0  0  0  0  0  0  0
    5.7494    0.9770   -3.7717 O   0  0  0  0  0  0  0  0  0  0  0  0
    3.2734    1.2236   -4.1833 N   0  0  0  0  0  0  0  0  0  0  0  0
    1.9559    1.6997   -3.7292 C   0  0  0  0  0  0  0  0  0  0  0  0
    1.7872    3.2108   -3.9254 C   0  0  0  0  0  0  0  0  0  0  0  0
    2.1095    3.6228   -5.3684 C   0  0  0  0  0  0  0  0  0  0  0  0
    3.4957    3.1172   -5.7910 C   0  0  0  0  0  0  0  0  0  0  0  0
    3.6257    1.6083   -5.5598 C   0  0  0  0  0  0  0  0  0  0  0  0
    4.4906   -0.3650   -0.8156 C   0  0  0  0  0  0  0  0  0  0  0  0
    1.2322    1.4146    0.1804 H   0  0  0  0  0  0  0  0  0  0  0  0
    2.8665    1.4874   -0.3482 H   0  0  0  0  0  0  0  0  0  0  0  0
   -0.7976   -0.8685    0.5088 H   0  0  0  0  0  0  0  0  0  0  0  0
    3.8300   -1.2936    0.9931 H   0  0  0  0  0  0  0  0  0  0  0  0
    2.4627   -3.0946   -0.1861 H   0  0  0  0  0  0  0  0  0  0  0  0
    4.2051   -3.1057   -0.5302 H   0  0  0  0  0  0  0  0  0  0  0  0
    1.9613   -2.0339   -2.3332 H   0  0  0  0  0  0  0  0  0  0  0  0
    3.0045   -3.4320   -2.6565 H   0  0  0  0  0  0  0  0  0  0  0  0
    3.6439   -1.3296   -3.9483 H   0  0  0  0  0  0  0  0  0  0  0  0
    4.9776   -1.9834   -2.9630 H   0  0  0  0  0  0  0  0  0  0  0  0
    1.8161    1.4098   -2.6790 H   0  0  0  0  0  0  0  0  0  0  0  0
    1.1980    1.1500   -4.3165 H   0  0  0  0  0  0  0  0  0  0  0  0
    2.4647    3.7295   -3.2271 H   0  0  0  0  0  0  0  0  0  0  0  0
    0.7568    3.4999   -3.6579 H   0  0  0  0  0  0  0  0  0  0  0  0
    2.0498    4.7181   -5.4764 H   0  0  0  0  0  0  0  0  0  0  0  0
    1.3461    3.2011   -6.0494 H   0  0  0  0  0  0  0  0  0  0  0  0
    4.2792    3.6341   -5.2095 H   0  0  0  0  0  0  0  0  0  0  0  0
    3.6864    3.3414   -6.8541 H   0  0  0  0  0  0  0  0  0  0  0  0
    4.6409    1.2510   -5.7701 H   0  0  0  0  0  0  0  0  0  0  0  0
    2.9332    1.0621   -6.2264 H   0  0  0  0  0  0  0  0  0  0  0  0
    4.6623    0.6319   -0.3949 H   0  0  0  0  0  0  0  0  0  0  0  0
    5.4568   -0.9040   -0.7678 H   0  0  0  0  0  0  0  0  0  0  0  0
  1  2  1  0
  1 20  1  0
  1 21  1  0
  2  3  2  0
  2  5  1  0
  3  4  1  0
  4 22  1  0
  5  6  1  0
  5 19  1  0
  5 23  1  1
  6  7  1  0
  6 24  1  0
  6 25  1  0
  7  8  1  0
  7 26  1  0
  7 27  1  0
  8  9  1  0
  8 28  1  0
  8 29  1  0
 10  9  1  1
  9 19  1  0
 10 11  2  0
 10 12  2  0
 10 13  1  0
 13 14  1  0
 13 18  1  0
 14 15  1  0
 14 30  1  0
 14 31  1  0
 15 16  1  0
 15 32  1  0
 15 33  1  0
 16 17  1  0
 16 34  1  0
 16 35  1  0
 17 18  1  0
 17 36  1  0
 17 37  1  0
 18 38  1  0
 18 39  1  0
 19 40  1  0
 19 41  1  0
M  END

