
     RDKit          3D

 36 38  0  0  0  0  0  0  0  0999 V2000
    5.5241    1.5416   -0.6206 C   0  0  0  0  0  0  0  0  0  0  0  0
    4.9481    0.4493    0.0603 O   0  0  0  0  0  0  0  0  0  0  0  0
    4.3913    0.6388    1.2904 C   0  0  0  0  0  0  0  0  0  0  0  0
    4.3625    1.8900    1.9247 C   0  0  0  0  0  0  0  0  0  0  0  0
    3.7819    2.0423    3.1861 C   0  0  0  0  0  0  0  0  0  0  0  0
    3.2297    0.9281    3.8071 C   0  0  0  0  0  0  0  0  0  0  0  0
    2.6677    1.0599    5.0205 F   0  0  0  0  0  0  0  0  0  0  0  0
    3.2463   -0.3197    3.1994 C   0  0  0  0  0  0  0  0  0  0  0  0
    3.8254   -0.4942    1.9310 C   0  0  0  0  0  0  0  0  0  0  0  0
    3.8142   -1.8441    1.3333 C   0  0  0  0  0  0  0  0  0  0  0  0
    4.3162   -2.3122    0.0876 C   0  0  0  0  0  0  0  0  0  0  0  0
    4.0205   -3.6714    0.0694 C   0  0  0  0  0  0  0  0  0  0  0  0
    4.2257   -4.7978   -0.8708 C   0  0  0  0  0  0  0  0  0  0  0  0
    3.8345   -5.9218   -0.5864 O   0  0  0  0  0  0  0  0  0  0  0  0
    4.8690   -4.4675   -2.0387 N   0  0  0  0  0  0  0  0  0  0  0  0
    5.2061   -5.3003   -3.1157 C   0  0  0  0  0  0  0  0  0  0  0  0
    4.9269   -6.6758   -3.1744 C   0  0  0  0  0  0  0  0  0  0  0  0
    5.3246   -7.3747   -4.3148 C   0  0  0  0  0  0  0  0  0  0  0  0
    5.9781   -6.6987   -5.3483 C   0  0  0  0  0  0  0  0  0  0  0  0
    6.2449   -5.3902   -5.2951 N   0  0  0  0  0  0  0  0  0  0  0  0
    5.8702   -4.7177   -4.2146 C   0  0  0  0  0  0  0  0  0  0  0  0
    3.3900   -3.9277    1.2462 N   0  0  0  0  0  0  0  0  0  0  0  0
    3.0471   -4.8410    1.5293 H   0  0  0  0  0  0  0  0  0  0  0  0
    3.2542   -2.8610    2.0151 N   0  0  0  0  0  0  0  0  0  0  0  0
    5.9014    1.1513   -1.5757 H   0  0  0  0  0  0  0  0  0  0  0  0
    6.3674    1.9796   -0.0573 H   0  0  0  0  0  0  0  0  0  0  0  0
    4.7835    2.3345   -0.8281 H   0  0  0  0  0  0  0  0  0  0  0  0
    4.7950    2.7638    1.4391 H   0  0  0  0  0  0  0  0  0  0  0  0
    3.7561    3.0127    3.6851 H   0  0  0  0  0  0  0  0  0  0  0  0
    2.8064   -1.1775    3.7078 H   0  0  0  0  0  0  0  0  0  0  0  0
    4.8171   -1.7164   -0.6664 H   0  0  0  0  0  0  0  0  0  0  0  0
    5.1388   -3.4956   -2.1428 H   0  0  0  0  0  0  0  0  0  0  0  0
    4.4158   -7.1626   -2.3467 H   0  0  0  0  0  0  0  0  0  0  0  0
    5.1253   -8.4458   -4.3977 H   0  0  0  0  0  0  0  0  0  0  0  0
    6.2976   -7.2313   -6.2510 H   0  0  0  0  0  0  0  0  0  0  0  0
    6.1014   -3.6426   -4.1956 H   0  0  0  0  0  0  0  0  0  0  0  0
  1  2  1  0
  1 25  1  0
  1 26  1  0
  1 27  1  0
  2  3  1  0
  3  4  2  0
  3  9  1  0
  4  5  1  0
  4 28  1  0
  5  6  2  0
  5 29  1  0
  6  7  1  0
  6  8  1  0
  8  9  2  0
  8 30  1  0
  9 10  1  0
 10 11  1  0
 10 24  2  0
 11 12  2  0
 11 31  1  0
 12 13  1  0
 12 22  1  0
 13 14  2  0
 13 15  1  0
 15 16  1  0
 15 32  1  0
 16 17  2  0
 16 21  1  0
 17 18  1  0
 17 33  1  0
 18 19  2  0
 18 34  1  0
 19 20  1  0
 19 35  1  0
 20 21  2  0
 21 36  1  0
 22 23  1  0
 22 24  1  0
M  END

