
     RDKit          3D

 51 53  0  0  0  0  0  0  0  0999 V2000
    2.9579   -1.5935   -1.3202 C   0  0  0  0  0  0  0  0  0  0  0  0
    3.3390   -1.2192   -0.0961 C   0  0  0  0  0  0  0  0  0  0  0  0
    4.6903   -0.6526    0.2443 C   0  0  0  0  0  0  0  0  0  0  0  0
    4.5645    0.6588    0.8547 N   0  0  0  0  0  0  0  0  0  0  0  0
    5.4294    1.1881    1.7747 C   0  0  0  0  0  0  0  0  0  0  0  0
    5.2285    2.5008    2.2527 C   0  0  0  0  0  0  0  0  0  0  0  0
    6.1183    2.9847    3.2085 C   0  0  0  0  0  0  0  0  0  0  0  0
    5.8999    4.2593    3.6527 O   0  0  0  0  0  0  0  0  0  0  0  0
    6.7139    4.8351    4.6095 C   0  0  0  0  0  0  0  0  0  0  0  0
    7.8170    5.5957    4.1809 C   0  0  0  0  0  0  0  0  0  0  0  0
    8.1344    5.7204    2.7134 C   0  0  0  0  0  0  0  0  0  0  0  0
    8.5879    6.2321    5.1586 C   0  0  0  0  0  0  0  0  0  0  0  0
    8.2625    6.1153    6.5210 C   0  0  0  0  0  0  0  0  0  0  0  0
    9.0676    6.7743    7.5117 C   0  0  0  0  0  0  0  0  0  0  0  0
    9.7200    7.3045    8.3129 N   0  0  0  0  0  0  0  0  0  0  0  0
    7.1438    5.3597    6.9127 C   0  0  0  0  0  0  0  0  0  0  0  0
    6.3502    4.7096    5.9627 C   0  0  0  0  0  0  0  0  0  0  0  0
    5.1355    3.9098    6.3559 C   0  0  0  0  0  0  0  0  0  0  0  0
    7.1691    2.1855    3.6691 C   0  0  0  0  0  0  0  0  0  0  0  0
    7.2774    0.8900    3.1187 C   0  0  0  0  0  0  0  0  0  0  0  0
    8.3184    0.0919    3.5803 N   0  0  0  0  0  0  0  0  0  0  0  0
    8.7681   -1.1725    3.2167 C   0  0  0  0  0  0  0  0  0  0  0  0
    8.2787   -1.9120    2.1190 C   0  0  0  0  0  0  0  0  0  0  0  0
    8.8084   -3.1649    1.8284 C   0  0  0  0  0  0  0  0  0  0  0  0
    9.8358   -3.7256    2.6104 C   0  0  0  0  0  0  0  0  0  0  0  0
   10.3715   -5.0184    2.3005 C   0  0  0  0  0  0  0  0  0  0  0  0
   10.8060   -6.0666    2.0492 N   0  0  0  0  0  0  0  0  0  0  0  0
   10.3279   -2.9866    3.7045 C   0  0  0  0  0  0  0  0  0  0  0  0
    9.8026   -1.7373    3.9990 C   0  0  0  0  0  0  0  0  0  0  0  0
    6.4407    0.4101    2.1992 N   0  0  0  0  0  0  0  0  0  0  0  0
    1.9673   -2.0169   -1.5072 H   0  0  0  0  0  0  0  0  0  0  0  0
    3.6280   -1.5012   -2.1819 H   0  0  0  0  0  0  0  0  0  0  0  0
    2.6436   -1.3186    0.7469 H   0  0  0  0  0  0  0  0  0  0  0  0
    5.3311   -0.6291   -0.6591 H   0  0  0  0  0  0  0  0  0  0  0  0
    5.1953   -1.3024    0.9757 H   0  0  0  0  0  0  0  0  0  0  0  0
    3.8869    1.2904    0.4472 H   0  0  0  0  0  0  0  0  0  0  0  0
    4.4056    3.1266    1.9060 H   0  0  0  0  0  0  0  0  0  0  0  0
    7.2561    6.0705    2.1489 H   0  0  0  0  0  0  0  0  0  0  0  0
    8.4211    4.7477    2.2810 H   0  0  0  0  0  0  0  0  0  0  0  0
    8.9614    6.4245    2.5464 H   0  0  0  0  0  0  0  0  0  0  0  0
    9.4507    6.8317    4.8614 H   0  0  0  0  0  0  0  0  0  0  0  0
    6.8898    5.2850    7.9721 H   0  0  0  0  0  0  0  0  0  0  0  0
    4.9371    3.9964    7.4332 H   0  0  0  0  0  0  0  0  0  0  0  0
    5.2639    2.8413    6.1167 H   0  0  0  0  0  0  0  0  0  0  0  0
    4.2444    4.2515    5.8066 H   0  0  0  0  0  0  0  0  0  0  0  0
    7.8785    2.5506    4.4117 H   0  0  0  0  0  0  0  0  0  0  0  0
    8.8486    0.5145    4.3322 H   0  0  0  0  0  0  0  0  0  0  0  0
    7.4879   -1.4861    1.5094 H   0  0  0  0  0  0  0  0  0  0  0  0
    8.4211   -3.7242    0.9742 H   0  0  0  0  0  0  0  0  0  0  0  0
   11.1254   -3.4017    4.3239 H   0  0  0  0  0  0  0  0  0  0  0  0
   10.1955   -1.1795    4.8542 H   0  0  0  0  0  0  0  0  0  0  0  0
  1  2  2  0
  1 31  1  0
  1 32  1  0
  2  3  1  0
  2 33  1  0
  3  4  1  0
  3 34  1  0
  3 35  1  0
  4  5  1  0
  4 36  1  0
  5  6  2  0
  5 30  1  0
  6  7  1  0
  6 37  1  0
  7  8  1  0
  7 19  2  0
  8  9  1  0
  9 10  2  0
  9 17  1  0
 10 11  1  0
 10 12  1  0
 11 38  1  0
 11 39  1  0
 11 40  1  0
 12 13  2  0
 12 41  1  0
 13 14  1  0
 13 16  1  0
 14 15  3  0
 16 17  2  0
 16 42  1  0
 17 18  1  0
 18 43  1  0
 18 44  1  0
 18 45  1  0
 19 20  1  0
 19 46  1  0
 20 21  1  0
 20 30  2  0
 21 22  1  0
 21 47  1  0
 22 23  2  0
 22 29  1  0
 23 24  1  0
 23 48  1  0
 24 25  2  0
 24 49  1  0
 25 26  1  0
 25 28  1  0
 26 27  3  0
 28 29  2  0
 28 50  1  0
 29 51  1  0
M  END

