
     RDKit          3D

 74 78  0  0  0  0  0  0  0  0999 V2000
    6.8042    3.2434    1.6041 C   0  0  0  0  0  0  0  0  0  0  0  0
    6.5057    1.8417    1.2400 C   0  0  0  0  0  0  0  0  0  0  0  0
    6.7795    0.7287    0.6231 C   0  0  0  0  0  0  0  0  0  0  0  0
    5.4718    0.7481    1.3560 C   0  0  2  0  0  0  0  0  0  0  0  0
    4.1809    0.8442    0.6191 C   0  0  0  0  0  0  0  0  0  0  0  0
    2.9864    0.3713    1.0219 C   0  0  0  0  0  0  0  0  0  0  0  0
    1.7056    0.4768    0.3080 C   0  0  0  0  0  0  0  0  0  0  0  0
    1.5324    1.1736   -0.9013 C   0  0  0  0  0  0  0  0  0  0  0  0
    0.2944    1.2443   -1.5436 C   0  0  0  0  0  0  0  0  0  0  0  0
   -0.8242    0.6086   -0.9806 C   0  0  0  0  0  0  0  0  0  0  0  0
   -2.0723    0.6173   -1.5237 O   0  0  0  0  0  0  0  0  0  0  0  0
   -2.3017    1.2912   -2.7433 C   0  0  0  0  0  0  0  0  0  0  0  0
   -3.7720    1.1230   -3.0970 C   0  0  0  0  0  0  0  0  0  0  0  0
   -4.1377    1.8136   -4.4047 C   0  0  0  0  0  0  0  0  0  0  0  0
   -5.5692    1.6074   -4.6684 N   0  0  0  0  0  0  0  0  0  0  0  0
   -6.0417    2.0958   -5.6883 N   0  0  0  0  0  0  0  0  0  0  0  0
   -6.5951    2.4984   -6.5986 N   0  0  0  0  0  0  0  0  0  0  0  0
   -0.6754   -0.0913    0.2275 C   0  0  0  0  0  0  0  0  0  0  0  0
    0.5644   -0.1515    0.8528 C   0  0  0  0  0  0  0  0  0  0  0  0
    5.3849    0.0052    2.6285 N   0  0  0  0  0  0  0  0  0  0  0  0
    5.6650    0.5834    3.7448 C   0  0  0  0  0  0  0  0  0  0  0  0
    5.8827   -0.0704    4.9691 C   0  0  0  0  0  0  0  0  0  0  0  0
    5.3560    0.4953    6.2018 C   0  0  0  0  0  0  0  0  0  0  0  0
    5.0536   -0.3136    7.3202 C   0  0  0  0  0  0  0  0  0  0  0  0
    4.4744    0.2106    8.4648 C   0  0  0  0  0  0  0  0  0  0  0  0
    4.1621    1.5951    8.5643 C   0  0  0  0  0  0  0  0  0  0  0  0
    3.5941    2.1220    9.7012 N   0  0  0  0  0  0  0  0  0  0  0  0
    3.3221    1.2711   10.8441 C   0  0  0  0  0  0  0  0  0  0  0  0
    3.2289    3.5250    9.7499 C   0  0  0  0  0  0  0  0  0  0  0  0
    4.4652    2.4092    7.4396 C   0  0  0  0  0  0  0  0  0  0  0  0
    5.0426    1.8701    6.3002 C   0  0  0  0  0  0  0  0  0  0  0  0
    6.6251   -1.2810    4.8465 C   0  0  0  0  0  0  0  0  0  0  0  0
    7.5728   -1.9697    5.6544 C   0  0  0  0  0  0  0  0  0  0  0  0
    8.1765   -1.5153    6.9499 C   0  0  0  0  0  0  0  0  0  0  0  0
    7.8757   -3.1477    4.9596 C   0  0  0  0  0  0  0  0  0  0  0  0
    7.1381   -3.1548    3.7552 C   0  0  0  0  0  0  0  0  0  0  0  0
    7.1104   -4.2234    2.7110 C   0  0  0  0  0  0  0  0  0  0  0  0
    6.4138   -2.0164    3.6794 N   0  0  0  0  0  0  0  0  0  0  0  0
    5.3099   -1.5986    2.6343 B   0  0  1  0  0  0  0  0  0  0  0  0
    4.0650   -2.0248    3.0629 F   0  0  0  0  0  0  0  0  0  0  0  0
    5.6354   -2.0663    1.3788 F   0  0  0  0  0  0  0  0  0  0  0  0
    5.9721    3.9036    1.3073 H   0  0  0  0  0  0  0  0  0  0  0  0
    7.7279    3.5975    1.1209 H   0  0  0  0  0  0  0  0  0  0  0  0
    6.9155    3.3357    2.6959 H   0  0  0  0  0  0  0  0  0  0  0  0
    7.4155    0.1118   -0.0069 H   0  0  0  0  0  0  0  0  0  0  0  0
    4.2721    1.3676   -0.3387 H   0  0  0  0  0  0  0  0  0  0  0  0
    2.9374   -0.1742    1.9683 H   0  0  0  0  0  0  0  0  0  0  0  0
    2.3826    1.6812   -1.3629 H   0  0  0  0  0  0  0  0  0  0  0  0
    0.2145    1.7978   -2.4796 H   0  0  0  0  0  0  0  0  0  0  0  0
   -1.6578    0.8731   -3.5420 H   0  0  0  0  0  0  0  0  0  0  0  0
   -2.0447    2.3645   -2.6456 H   0  0  0  0  0  0  0  0  0  0  0  0
   -4.3913    1.5296   -2.2817 H   0  0  0  0  0  0  0  0  0  0  0  0
   -4.0083    0.0496   -3.1701 H   0  0  0  0  0  0  0  0  0  0  0  0
   -3.5351    1.4049   -5.2386 H   0  0  0  0  0  0  0  0  0  0  0  0
   -3.9149    2.8964   -4.3447 H   0  0  0  0  0  0  0  0  0  0  0  0
   -1.5517   -0.5829    0.6550 H   0  0  0  0  0  0  0  0  0  0  0  0
    0.6636   -0.7055    1.7903 H   0  0  0  0  0  0  0  0  0  0  0  0
    5.2387   -1.3878    7.2632 H   0  0  0  0  0  0  0  0  0  0  0  0
    4.2406   -0.4663    9.2854 H   0  0  0  0  0  0  0  0  0  0  0  0
    4.2371    0.7774   11.2170 H   0  0  0  0  0  0  0  0  0  0  0  0
    2.5856    0.4795   10.6123 H   0  0  0  0  0  0  0  0  0  0  0  0
    2.9144    1.8790   11.6615 H   0  0  0  0  0  0  0  0  0  0  0  0
    2.5037    3.7925    8.9602 H   0  0  0  0  0  0  0  0  0  0  0  0
    4.1063    4.1876    9.6361 H   0  0  0  0  0  0  0  0  0  0  0  0
    2.7659    3.7473   10.7195 H   0  0  0  0  0  0  0  0  0  0  0  0
    4.2641    3.4794    7.4644 H   0  0  0  0  0  0  0  0  0  0  0  0
    5.2925    2.5193    5.4586 H   0  0  0  0  0  0  0  0  0  0  0  0
    8.0820   -0.4288    7.0871 H   0  0  0  0  0  0  0  0  0  0  0  0
    9.2458   -1.7765    6.9912 H   0  0  0  0  0  0  0  0  0  0  0  0
    7.6954   -1.9961    7.8191 H   0  0  0  0  0  0  0  0  0  0  0  0
    8.5782   -3.9221    5.2662 H   0  0  0  0  0  0  0  0  0  0  0  0
    7.7685   -5.0540    3.0015 H   0  0  0  0  0  0  0  0  0  0  0  0
    7.4295   -3.8369    1.7316 H   0  0  0  0  0  0  0  0  0  0  0  0
    6.0903   -4.6178    2.5730 H   0  0  0  0  0  0  0  0  0  0  0  0
  1  2  1  0
  1 42  1  0
  1 43  1  0
  1 44  1  0
  2  3  2  0
  2  4  1  0
  3  4  1  0
  3 45  1  0
  4  5  1  6
  4 20  1  0
  5  6  1  0
  5 46  1  0
  6  7  2  0
  6 47  1  0
  7  8  1  0
  7 19  1  0
  8  9  2  0
  8 48  1  0
  9 10  1  0
  9 49  1  0
 10 11  2  0
 10 18  1  0
 11 12  1  0
 12 13  1  0
 12 50  1  0
 12 51  1  0
 13 14  1  0
 13 52  1  0
 13 53  1  0
 14 15  1  0
 14 54  1  0
 14 55  1  0
 15 16  1  0
 16 17  3  0
 18 19  2  0
 18 56  1  0
 19 57  1  0
 20 21  2  0
 20 39  1  0
 21 22  1  0
 22 23  1  0
 22 32  2  0
 23 24  1  0
 23 31  1  0
 24 25  2  0
 24 58  1  0
 25 26  1  0
 25 59  1  0
 26 27  2  0
 26 30  1  0
 27 28  1  0
 27 29  1  0
 28 60  1  0
 28 61  1  0
 28 62  1  0
 29 63  1  0
 29 64  1  0
 29 65  1  0
 30 31  2  0
 30 66  1  0
 31 67  1  0
 32 33  1  0
 32 38  1  0
 33 34  1  0
 33 35  2  0
 34 68  1  0
 34 69  1  0
 34 70  1  0
 35 36  1  0
 35 71  1  0
 36 37  1  0
 36 38  2  0
 37 72  1  0
 37 73  1  0
 37 74  1  0
 38 39  1  0
 39 40  1  1
 39 41  1  0
M  CHG  8   5  -1  11   1  15  -1  16   1  20   1  21  -1  23  -1  27   1
M  CHG  2  38   1  39  -1
M  END

