
     RDKit          3D

 74 79  0  0  0  0  0  0  0  0999 V2000
    2.9228   -1.0978    5.3373 C   0  0  0  0  0  0  0  0  0  0  0  0
    2.4682   -0.0408    4.3458 C   0  0  0  0  0  0  0  0  0  0  0  0
    3.5164    0.9128    4.0705 O   0  0  0  0  0  0  0  0  0  0  0  0
    4.3848    0.6075    3.1077 C   0  0  0  0  0  0  0  0  0  0  0  0
    4.3696   -0.4011    2.4451 O   0  0  0  0  0  0  0  0  0  0  0  0
    5.4574    1.6665    2.8949 C   0  0  0  0  0  0  0  0  0  0  0  0
    5.2505    2.8012    3.6938 O   0  0  0  0  0  0  0  0  0  0  0  0
    6.1303    3.8321    3.6326 C   0  0  0  0  0  0  0  0  0  0  0  0
    7.2628    3.8669    2.8006 C   0  0  0  0  0  0  0  0  0  0  0  0
    8.1025    4.9807    2.8172 C   0  0  0  0  0  0  0  0  0  0  0  0
    7.8525    6.0863    3.6513 C   0  0  0  0  0  0  0  0  0  0  0  0
    8.7088    7.2762    3.7044 C   0  0  0  0  0  0  0  0  0  0  0  0
    9.8747    7.4789    3.0580 C   0  0  0  0  0  0  0  0  0  0  0  0
   10.6989    8.6977    3.1941 C   0  0  0  0  0  0  0  0  0  0  0  0
   12.0278    8.5569    3.6699 C   0  0  0  0  0  0  0  0  0  0  0  0
   12.7975    7.3983    4.0061 C   0  0  0  0  0  0  0  0  0  0  0  0
   12.4225    5.9483    3.9270 C   0  0  0  0  0  0  0  0  0  0  0  0
   14.0352    7.8766    4.4469 C   0  0  0  0  0  0  0  0  0  0  0  0
   14.0114    9.2833    4.3983 C   0  0  0  0  0  0  0  0  0  0  0  0
   15.0844   10.2372    4.8086 C   0  0  0  0  0  0  0  0  0  0  0  0
   12.8075    9.6809    3.9256 N   0  0  0  0  0  0  0  0  0  0  0  0
   12.3220   11.1516    3.8402 B   0  0  1  0  0  0  0  0  0  0  0  0
   12.1074   11.6748    5.1087 F   0  0  0  0  0  0  0  0  0  0  0  0
   13.2534   11.9019    3.1409 F   0  0  0  0  0  0  0  0  0  0  0  0
   10.9378   11.1253    3.0712 N   0  0  0  0  0  0  0  0  0  0  0  0
   10.1765    9.9640    2.8753 C   0  0  0  0  0  0  0  0  0  0  0  0
    8.9064   10.3758    2.3083 C   0  0  0  0  0  0  0  0  0  0  0  0
    7.7699    9.7081    1.7990 C   0  0  0  0  0  0  0  0  0  0  0  0
    6.7235   10.4580    1.2763 C   0  0  0  0  0  0  0  0  0  0  0  0
    6.7675   11.8710    1.2317 C   0  0  0  0  0  0  0  0  0  0  0  0
    7.8819   12.5489    1.6997 C   0  0  0  0  0  0  0  0  0  0  0  0
    8.9477   11.7998    2.2378 C   0  0  0  0  0  0  0  0  0  0  0  0
   10.2381   12.2167    2.7098 C   0  0  0  0  0  0  0  0  0  0  0  0
   10.6887   13.6029    2.7849 C   0  0  0  0  0  0  0  0  0  0  0  0
    9.9332   14.5169    3.5104 N   0  0  0  0  0  0  0  0  0  0  0  0
    9.2108   14.2521    4.1682 H   0  0  0  0  0  0  0  0  0  0  0  0
   10.4516   15.7779    3.3795 C   0  0  0  0  0  0  0  0  0  0  0  0
    9.8913   16.9506    4.1173 C   0  0  0  0  0  0  0  0  0  0  0  0
   11.5245   15.6832    2.5072 C   0  0  0  0  0  0  0  0  0  0  0  0
   11.6848   14.3203    2.1198 C   0  0  0  0  0  0  0  0  0  0  0  0
   12.6735   13.8147    1.1126 C   0  0  0  0  0  0  0  0  0  0  0  0
    6.7056    6.0280    4.4740 C   0  0  0  0  0  0  0  0  0  0  0  0
    5.8591    4.9273    4.4701 C   0  0  0  0  0  0  0  0  0  0  0  0
    2.0786   -1.7592    5.5899 H   0  0  0  0  0  0  0  0  0  0  0  0
    3.2875   -0.6349    6.2673 H   0  0  0  0  0  0  0  0  0  0  0  0
    3.7246   -1.7176    4.9094 H   0  0  0  0  0  0  0  0  0  0  0  0
    1.6463    0.5648    4.7533 H   0  0  0  0  0  0  0  0  0  0  0  0
    2.1462   -0.4982    3.3988 H   0  0  0  0  0  0  0  0  0  0  0  0
    5.4530    1.9119    1.8167 H   0  0  0  0  0  0  0  0  0  0  0  0
    6.4293    1.1835    3.1113 H   0  0  0  0  0  0  0  0  0  0  0  0
    7.4983    3.0364    2.1348 H   0  0  0  0  0  0  0  0  0  0  0  0
    8.9713    4.9823    2.1551 H   0  0  0  0  0  0  0  0  0  0  0  0
    8.3457    8.0758    4.3593 H   0  0  0  0  0  0  0  0  0  0  0  0
   10.2969    6.6824    2.4392 H   0  0  0  0  0  0  0  0  0  0  0  0
   12.2585    5.6129    2.8883 H   0  0  0  0  0  0  0  0  0  0  0  0
   11.5010    5.7245    4.4868 H   0  0  0  0  0  0  0  0  0  0  0  0
   13.2300    5.3282    4.3437 H   0  0  0  0  0  0  0  0  0  0  0  0
   14.8772    7.2733    4.7833 H   0  0  0  0  0  0  0  0  0  0  0  0
   15.9543    9.6897    5.1964 H   0  0  0  0  0  0  0  0  0  0  0  0
   15.4002   10.8662    3.9623 H   0  0  0  0  0  0  0  0  0  0  0  0
   14.7185   10.9235    5.5893 H   0  0  0  0  0  0  0  0  0  0  0  0
    7.7036    8.6224    1.8005 H   0  0  0  0  0  0  0  0  0  0  0  0
    5.8455    9.9398    0.8818 H   0  0  0  0  0  0  0  0  0  0  0  0
    5.9253   12.4246    0.8096 H   0  0  0  0  0  0  0  0  0  0  0  0
    7.9472   13.6378    1.6462 H   0  0  0  0  0  0  0  0  0  0  0  0
    8.8115   17.0815    3.9282 H   0  0  0  0  0  0  0  0  0  0  0  0
   10.4000   17.8727    3.8034 H   0  0  0  0  0  0  0  0  0  0  0  0
   10.0244   16.8538    5.2096 H   0  0  0  0  0  0  0  0  0  0  0  0
   12.1318   16.5202    2.1647 H   0  0  0  0  0  0  0  0  0  0  0  0
   12.6780   14.4594    0.2181 H   0  0  0  0  0  0  0  0  0  0  0  0
   12.4474   12.7876    0.7969 H   0  0  0  0  0  0  0  0  0  0  0  0
   13.6938   13.8030    1.5256 H   0  0  0  0  0  0  0  0  0  0  0  0
    6.4804    6.8713    5.1326 H   0  0  0  0  0  0  0  0  0  0  0  0
    4.9747    4.8859    5.1087 H   0  0  0  0  0  0  0  0  0  0  0  0
  1  2  1  0
  1 44  1  0
  1 45  1  0
  1 46  1  0
  2  3  1  0
  2 47  1  0
  2 48  1  0
  3  4  1  0
  4  5  2  0
  4  6  1  0
  6  7  1  0
  6 49  1  0
  6 50  1  0
  7  8  1  0
  8  9  2  0
  8 43  1  0
  9 10  1  0
  9 51  1  0
 10 11  2  0
 10 52  1  0
 11 12  1  0
 11 42  1  0
 12 13  2  0
 12 53  1  0
 13 14  1  0
 13 54  1  0
 14 15  1  0
 14 26  2  0
 15 16  2  0
 15 21  1  0
 16 17  1  0
 16 18  1  0
 17 55  1  0
 17 56  1  0
 17 57  1  0
 18 19  2  0
 18 58  1  0
 19 20  1  0
 19 21  1  0
 20 59  1  0
 20 60  1  0
 20 61  1  0
 21 22  1  0
 22 23  1  1
 22 24  1  0
 22 25  1  0
 25 26  1  0
 25 33  1  0
 26 27  1  0
 27 28  2  0
 27 32  1  0
 28 29  1  0
 28 62  1  0
 29 30  2  0
 29 63  1  0
 30 31  1  0
 30 64  1  0
 31 32  2  0
 31 65  1  0
 32 33  1  0
 33 34  2  0
 34 35  1  0
 34 40  1  0
 35 36  1  0
 35 37  2  0
 37 38  1  0
 37 39  1  0
 38 66  1  0
 38 67  1  0
 38 68  1  0
 39 40  2  0
 39 69  1  0
 40 41  1  0
 41 70  1  0
 41 71  1  0
 41 72  1  0
 42 43  2  0
 42 73  1  0
 43 74  1  0
M  CHG  2  22  -1  35   1
M  END

