
     RDKit          3D

 42 43  0  0  0  0  0  0  0  0999 V2000
    0.8216    0.3956    0.3707 C   0  0  0  0  0  0  0  0  0  0  0  0
    2.3112    0.2762    0.1631 C   0  0  0  0  0  0  0  0  0  0  0  0
    3.0370    1.2701   -0.5126 C   0  0  0  0  0  0  0  0  0  0  0  0
    4.4084    1.1468   -0.7355 C   0  0  0  0  0  0  0  0  0  0  0  0
    5.0888    0.0155   -0.2731 C   0  0  0  0  0  0  0  0  0  0  0  0
    6.4955   -0.0873   -0.4919 N   0  0  0  0  0  0  0  0  0  0  0  0
    7.2714    0.9816   -0.2439 N   0  0  0  0  0  0  0  0  0  0  0  0
    8.5026    0.6059   -0.5582 C   0  0  0  0  0  0  0  0  0  0  0  0
    8.5594   -0.7301   -1.0322 C   0  0  0  0  0  0  0  0  0  0  0  0
    9.7959   -1.4668   -1.5116 C   0  0  0  0  0  0  0  0  0  0  0  0
    9.9537   -1.6316   -2.9509 N   0  0  0  0  0  0  0  0  0  0  0  0
   10.0444   -0.4053   -3.7263 C   0  0  0  0  0  0  0  0  0  0  0  0
   10.4401   -0.6592   -5.1901 C   0  0  1  0  0  0  0  0  0  0  0  0
    9.4134   -1.5293   -5.9268 C   0  0  0  0  0  0  0  0  0  0  0  0
   10.6617    0.6697   -5.9218 C   0  0  0  0  0  0  0  0  0  0  0  0
    7.2297   -1.1444   -0.9828 C   0  0  0  0  0  0  0  0  0  0  0  0
    6.6034   -2.4329   -1.4246 C   0  0  1  0  0  0  0  0  0  0  0  0
    5.6505   -2.2061   -2.3718 F   0  0  0  0  0  0  0  0  0  0  0  0
    7.5553   -3.2365   -1.9818 F   0  0  0  0  0  0  0  0  0  0  0  0
    4.3904   -0.9743    0.4273 C   0  0  0  0  0  0  0  0  0  0  0  0
    3.0164   -0.8441    0.6309 C   0  0  0  0  0  0  0  0  0  0  0  0
    0.4762    1.4317    0.2392 H   0  0  0  0  0  0  0  0  0  0  0  0
    0.5265    0.0623    1.3782 H   0  0  0  0  0  0  0  0  0  0  0  0
    0.2690   -0.2306   -0.3514 H   0  0  0  0  0  0  0  0  0  0  0  0
    2.5177    2.1603   -0.8780 H   0  0  0  0  0  0  0  0  0  0  0  0
    4.9663    1.9245   -1.2582 H   0  0  0  0  0  0  0  0  0  0  0  0
    9.3336    1.3011   -0.4329 H   0  0  0  0  0  0  0  0  0  0  0  0
    9.8277   -2.4680   -1.0553 H   0  0  0  0  0  0  0  0  0  0  0  0
   10.6761   -0.9213   -1.1299 H   0  0  0  0  0  0  0  0  0  0  0  0
    9.2041   -2.2245   -3.3013 H   0  0  0  0  0  0  0  0  0  0  0  0
   10.8192    0.2300   -3.2595 H   0  0  0  0  0  0  0  0  0  0  0  0
    9.1081    0.1998   -3.7109 H   0  0  0  0  0  0  0  0  0  0  0  0
   11.3971   -1.2113   -5.1672 H   0  0  0  0  0  0  0  0  0  0  0  0
    8.4161   -1.0550   -5.9264 H   0  0  0  0  0  0  0  0  0  0  0  0
    9.3169   -2.5270   -5.4698 H   0  0  0  0  0  0  0  0  0  0  0  0
    9.7070   -1.6830   -6.9779 H   0  0  0  0  0  0  0  0  0  0  0  0
    9.7314    1.2625   -5.9625 H   0  0  0  0  0  0  0  0  0  0  0  0
   10.9930    0.5035   -6.9595 H   0  0  0  0  0  0  0  0  0  0  0  0
   11.4268    1.2855   -5.4210 H   0  0  0  0  0  0  0  0  0  0  0  0
    6.1289   -3.0119   -0.6151 H   0  0  0  0  0  0  0  0  0  0  0  0
    4.9205   -1.8329    0.8431 H   0  0  0  0  0  0  0  0  0  0  0  0
    2.4847   -1.6245    1.1827 H   0  0  0  0  0  0  0  0  0  0  0  0
  1  2  1  0
  1 22  1  0
  1 23  1  0
  1 24  1  0
  2  3  2  0
  2 21  1  0
  3  4  1  0
  3 25  1  0
  4  5  2  0
  4 26  1  0
  5  6  1  0
  5 20  1  0
  6  7  1  0
  6 16  1  0
  7  8  2  0
  8  9  1  0
  8 27  1  0
  9 10  1  0
  9 16  2  0
 10 11  1  0
 10 28  1  0
 10 29  1  0
 11 12  1  0
 11 30  1  0
 12 13  1  0
 12 31  1  0
 12 32  1  0
 13 14  1  0
 13 15  1  0
 13 33  1  1
 14 34  1  0
 14 35  1  0
 14 36  1  0
 15 37  1  0
 15 38  1  0
 15 39  1  0
 16 17  1  0
 17 18  1  0
 17 19  1  0
 17 40  1  1
 20 21  2  0
 20 41  1  0
 21 42  1  0
M  END

