
     RDKit          3D

111119  0  0  0  0  0  0  0  0999 V2000
    1.1485   -0.2047    0.1688 C   0  0  0  0  0  0  0  0  0  0  0  0
    2.5298   -0.0915   -0.1657 O   0  0  0  0  0  0  0  0  0  0  0  0
    3.1806   -1.2477   -0.4057 C   0  0  0  0  0  0  0  0  0  0  0  0
    2.6421   -2.3298   -0.3464 O   0  0  0  0  0  0  0  0  0  0  0  0
    4.6173   -1.0356   -0.7471 C   0  0  0  0  0  0  0  0  0  0  0  0
    5.1988    0.2420   -0.8086 C   0  0  0  0  0  0  0  0  0  0  0  0
    6.5440    0.3868   -1.1330 C   0  0  0  0  0  0  0  0  0  0  0  0
    7.3431   -0.7471   -1.4049 C   0  0  0  0  0  0  0  0  0  0  0  0
    8.7204   -0.5949   -1.7404 C   0  0  0  0  0  0  0  0  0  0  0  0
    9.8951   -0.4297   -2.0277 C   0  0  0  0  0  0  0  0  0  0  0  0
   11.2754   -0.3025   -2.3652 C   0  0  0  0  0  0  0  0  0  0  0  0
   12.0341   -1.4894   -2.5776 C   0  0  0  0  0  0  0  0  0  0  0  0
   13.4063   -1.4635   -2.7130 C   0  0  0  0  0  0  0  0  0  0  0  0
   14.1124   -0.2116   -2.7718 C   0  0  0  0  0  0  0  0  0  0  0  0
   15.5444   -0.0979   -2.8353 C   0  0  0  0  0  0  0  0  0  0  0  0
   16.4382   -1.2894   -2.6508 C   0  0  0  0  0  0  0  0  0  0  0  0
   17.0378   -1.9260   -3.7484 C   0  0  0  0  0  0  0  0  0  0  0  0
   17.8826   -3.0240   -3.5640 C   0  0  0  0  0  0  0  0  0  0  0  0
   18.1487   -3.4982   -2.2764 C   0  0  0  0  0  0  0  0  0  0  0  0
   17.5673   -2.8643   -1.1740 C   0  0  0  0  0  0  0  0  0  0  0  0
   16.7201   -1.7691   -1.3609 C   0  0  0  0  0  0  0  0  0  0  0  0
   16.1469    1.1457   -3.0351 C   0  0  0  0  0  0  0  0  0  0  0  0
   17.6441    1.2673   -3.0560 C   0  0  0  0  0  0  0  0  0  0  0  0
   18.3763    1.2754   -1.8579 C   0  0  0  0  0  0  0  0  0  0  0  0
   19.7683    1.3987   -1.8692 C   0  0  0  0  0  0  0  0  0  0  0  0
   20.4533    1.5139   -3.0818 C   0  0  0  0  0  0  0  0  0  0  0  0
   19.7359    1.5062   -4.2814 C   0  0  0  0  0  0  0  0  0  0  0  0
   18.3442    1.3859   -4.2675 C   0  0  0  0  0  0  0  0  0  0  0  0
   15.3458    2.3075   -3.2775 C   0  0  0  0  0  0  0  0  0  0  0  0
   16.0240    3.5867   -3.6787 C   0  0  0  0  0  0  0  0  0  0  0  0
   16.0020    4.0263   -5.0121 C   0  0  0  0  0  0  0  0  0  0  0  0
   16.6423    5.2104   -5.3860 C   0  0  0  0  0  0  0  0  0  0  0  0
   17.3164    5.9771   -4.4312 C   0  0  0  0  0  0  0  0  0  0  0  0
   17.3463    5.5495   -3.1009 C   0  0  0  0  0  0  0  0  0  0  0  0
   16.7073    4.3637   -2.7294 C   0  0  0  0  0  0  0  0  0  0  0  0
   13.9556    2.2358   -3.1749 C   0  0  0  0  0  0  0  0  0  0  0  0
   13.1420    3.4000   -3.6598 C   0  0  0  0  0  0  0  0  0  0  0  0
   12.4263    3.2617   -4.8623 C   0  0  0  0  0  0  0  0  0  0  0  0
   11.7238    4.3388   -5.4081 C   0  0  0  0  0  0  0  0  0  0  0  0
   11.7197    5.5748   -4.7561 C   0  0  0  0  0  0  0  0  0  0  0  0
   12.4272    5.7242   -3.5591 C   0  0  0  0  0  0  0  0  0  0  0  0
   13.1366    4.6493   -3.0202 C   0  0  0  0  0  0  0  0  0  0  0  0
   13.3208    0.9990   -2.7895 C   0  0  0  0  0  0  0  0  0  0  0  0
   11.9210    0.9406   -2.4422 C   0  0  0  0  0  0  0  0  0  0  0  0
   11.1672    2.1377   -1.9539 C   0  0  0  0  0  0  0  0  0  0  0  0
   10.0153    2.6231   -2.5957 C   0  0  0  0  0  0  0  0  0  0  0  0
    9.2859    3.6752   -2.0484 C   0  0  0  0  0  0  0  0  0  0  0  0
    9.6787    4.2579   -0.8329 C   0  0  0  0  0  0  0  0  0  0  0  0
    8.8529    5.3736   -0.2884 C   0  0  0  0  0  0  0  0  0  0  0  0
    7.8523    5.8087   -0.8126 O   0  0  0  0  0  0  0  0  0  0  0  0
    9.3397    5.8611    0.8719 O   0  0  0  0  0  0  0  0  0  0  0  0
    8.6026    6.9275    1.4640 C   0  0  0  0  0  0  0  0  0  0  0  0
   10.8205    3.7721   -0.1780 C   0  0  0  0  0  0  0  0  0  0  0  0
   11.5539    2.7268   -0.7363 C   0  0  0  0  0  0  0  0  0  0  0  0
   13.9250   -2.8793   -2.9074 C   0  0  0  0  0  0  0  0  0  0  0  0
   12.7149   -3.8006   -2.5515 C   0  0  2  0  0  0  0  0  0  0  0  0
   12.8438   -4.3594   -1.1208 C   0  0  0  0  0  0  0  0  0  0  0  0
   11.9952   -4.2968   -0.2682 O   0  0  0  0  0  0  0  0  0  0  0  0
   14.0386   -4.9390   -0.9354 O   0  0  0  0  0  0  0  0  0  0  0  0
   14.2424   -5.5855    0.3207 C   0  0  0  0  0  0  0  0  0  0  0  0
   12.5653   -5.0132   -3.4732 C   0  0  0  0  0  0  0  0  0  0  0  0
   12.3184   -6.1339   -3.1012 O   0  0  0  0  0  0  0  0  0  0  0  0
   12.6890   -4.6772   -4.7690 O   0  0  0  0  0  0  0  0  0  0  0  0
   12.5020   -5.7300   -5.7173 C   0  0  0  0  0  0  0  0  0  0  0  0
   11.4661   -2.8808   -2.6457 C   0  0  0  0  0  0  0  0  0  0  0  0
    6.7508   -2.0290   -1.3380 C   0  0  0  0  0  0  0  0  0  0  0  0
    5.4062   -2.1668   -1.0141 C   0  0  0  0  0  0  0  0  0  0  0  0
    0.7869    0.8186    0.3287 H   0  0  0  0  0  0  0  0  0  0  0  0
    1.0139   -0.8045    1.0820 H   0  0  0  0  0  0  0  0  0  0  0  0
    0.5857   -0.6856   -0.6459 H   0  0  0  0  0  0  0  0  0  0  0  0
    4.5869    1.1202   -0.5998 H   0  0  0  0  0  0  0  0  0  0  0  0
    6.9958    1.3794   -1.1792 H   0  0  0  0  0  0  0  0  0  0  0  0
   16.8364   -1.5578   -4.7572 H   0  0  0  0  0  0  0  0  0  0  0  0
   18.3376   -3.5097   -4.4312 H   0  0  0  0  0  0  0  0  0  0  0  0
   18.8108   -4.3557   -2.1321 H   0  0  0  0  0  0  0  0  0  0  0  0
   17.7751   -3.2234   -0.1626 H   0  0  0  0  0  0  0  0  0  0  0  0
   16.2629   -1.2804   -0.4967 H   0  0  0  0  0  0  0  0  0  0  0  0
   17.8477    1.1854   -0.9058 H   0  0  0  0  0  0  0  0  0  0  0  0
   20.3194    1.4040   -0.9251 H   0  0  0  0  0  0  0  0  0  0  0  0
   21.5420    1.6099   -3.0921 H   0  0  0  0  0  0  0  0  0  0  0  0
   20.2619    1.5963   -5.2354 H   0  0  0  0  0  0  0  0  0  0  0  0
   17.7910    1.3868   -5.2095 H   0  0  0  0  0  0  0  0  0  0  0  0
   15.4715    3.4363   -5.7630 H   0  0  0  0  0  0  0  0  0  0  0  0
   16.6123    5.5360   -6.4291 H   0  0  0  0  0  0  0  0  0  0  0  0
   17.8165    6.9042   -4.7228 H   0  0  0  0  0  0  0  0  0  0  0  0
   17.8710    6.1413   -2.3463 H   0  0  0  0  0  0  0  0  0  0  0  0
   16.7383    4.0347   -1.6880 H   0  0  0  0  0  0  0  0  0  0  0  0
   12.4295    2.2979   -5.3780 H   0  0  0  0  0  0  0  0  0  0  0  0
   11.1785    4.2114   -6.3471 H   0  0  0  0  0  0  0  0  0  0  0  0
   11.1683    6.4188   -5.1781 H   0  0  0  0  0  0  0  0  0  0  0  0
   12.4287    6.6866   -3.0410 H   0  0  0  0  0  0  0  0  0  0  0  0
   13.6889    4.7782   -2.0879 H   0  0  0  0  0  0  0  0  0  0  0  0
    9.6984    2.1773   -3.5399 H   0  0  0  0  0  0  0  0  0  0  0  0
    8.3991    4.0654   -2.5513 H   0  0  0  0  0  0  0  0  0  0  0  0
    9.1344    7.1934    2.3862 H   0  0  0  0  0  0  0  0  0  0  0  0
    7.5732    6.6131    1.6949 H   0  0  0  0  0  0  0  0  0  0  0  0
    8.5541    7.7949    0.7879 H   0  0  0  0  0  0  0  0  0  0  0  0
   11.1253    4.2146    0.7711 H   0  0  0  0  0  0  0  0  0  0  0  0
   12.4364    2.3469   -0.2163 H   0  0  0  0  0  0  0  0  0  0  0  0
   14.7923   -3.1374   -2.2955 H   0  0  0  0  0  0  0  0  0  0  0  0
   14.2247   -3.0295   -3.9556 H   0  0  0  0  0  0  0  0  0  0  0  0
   15.2658   -5.9797    0.2986 H   0  0  0  0  0  0  0  0  0  0  0  0
   13.5200   -6.4050    0.4522 H   0  0  0  0  0  0  0  0  0  0  0  0
   14.1222   -4.8743    1.1516 H   0  0  0  0  0  0  0  0  0  0  0  0
   12.6376   -5.2768   -6.7069 H   0  0  0  0  0  0  0  0  0  0  0  0
   11.4933   -6.1604   -5.6279 H   0  0  0  0  0  0  0  0  0  0  0  0
   13.2382   -6.5321   -5.5586 H   0  0  0  0  0  0  0  0  0  0  0  0
   10.7609   -3.0996   -1.8322 H   0  0  0  0  0  0  0  0  0  0  0  0
   10.9305   -3.0245   -3.5994 H   0  0  0  0  0  0  0  0  0  0  0  0
    7.3618   -2.9105   -1.5414 H   0  0  0  0  0  0  0  0  0  0  0  0
    4.9394   -3.1521   -0.9596 H   0  0  0  0  0  0  0  0  0  0  0  0
  1  2  1  0
  1 68  1  0
  1 69  1  0
  1 70  1  0
  2  3  1  0
  3  4  2  0
  3  5  1  0
  5  6  2  0
  5 67  1  0
  6  7  1  0
  6 71  1  0
  7  8  2  0
  7 72  1  0
  8  9  1  0
  8 66  1  0
  9 10  3  0
 10 11  1  0
 11 12  1  0
 11 44  2  0
 12 13  2  0
 12 65  1  0
 13 14  1  0
 13 55  1  0
 14 15  2  0
 14 43  1  0
 15 16  1  0
 15 22  1  0
 16 17  2  0
 16 21  1  0
 17 18  1  0
 17 73  1  0
 18 19  2  0
 18 74  1  0
 19 20  1  0
 19 75  1  0
 20 21  2  0
 20 76  1  0
 21 77  1  0
 22 23  1  0
 22 29  2  0
 23 24  2  0
 23 28  1  0
 24 25  1  0
 24 78  1  0
 25 26  2  0
 25 79  1  0
 26 27  1  0
 26 80  1  0
 27 28  2  0
 27 81  1  0
 28 82  1  0
 29 30  1  0
 29 36  1  0
 30 31  2  0
 30 35  1  0
 31 32  1  0
 31 83  1  0
 32 33  2  0
 32 84  1  0
 33 34  1  0
 33 85  1  0
 34 35  2  0
 34 86  1  0
 35 87  1  0
 36 37  1  0
 36 43  2  0
 37 38  2  0
 37 42  1  0
 38 39  1  0
 38 88  1  0
 39 40  2  0
 39 89  1  0
 40 41  1  0
 40 90  1  0
 41 42  2  0
 41 91  1  0
 42 92  1  0
 43 44  1  0
 44 45  1  0
 45 46  2  0
 45 54  1  0
 46 47  1  0
 46 93  1  0
 47 48  2  0
 47 94  1  0
 48 49  1  0
 48 53  1  0
 49 50  2  0
 49 51  1  0
 51 52  1  0
 52 95  1  0
 52 96  1  0
 52 97  1  0
 53 54  2  0
 53 98  1  0
 54 99  1  0
 55 56  1  0
 55100  1  0
 55101  1  0
 56 57  1  1
 56 61  1  0
 56 65  1  0
 57 58  2  0
 57 59  1  0
 59 60  1  0
 60102  1  0
 60103  1  0
 60104  1  0
 61 62  2  0
 61 63  1  0
 63 64  1  0
 64105  1  0
 64106  1  0
 64107  1  0
 65108  1  0
 65109  1  0
 66 67  2  0
 66110  1  0
 67111  1  0
M  END

