
     RDKit          3D

 34 35  0  0  0  0  0  0  0  0999 V2000
    1.2655    0.7173    1.5766 C   0  0  0  0  0  0  0  0  0  0  0  0
    2.6477    0.4040    1.0578 C   0  0  0  0  0  0  0  0  0  0  0  0
    3.3447   -0.7435    1.4595 C   0  0  0  0  0  0  0  0  0  0  0  0
    4.6283   -1.0407    0.9932 C   0  0  0  0  0  0  0  0  0  0  0  0
    5.2556   -0.1681    0.0897 C   0  0  0  0  0  0  0  0  0  0  0  0
    6.5499   -0.3809   -0.4297 N   0  0  0  0  0  0  0  0  0  0  0  0
    7.3962   -1.4479   -0.2315 C   0  0  0  0  0  0  0  0  0  0  0  0
    7.1336   -2.4240    0.4458 O   0  0  0  0  0  0  0  0  0  0  0  0
    8.7301   -1.2986   -0.9288 C   0  0  0  0  0  0  0  0  0  0  0  0
    9.4420   -0.0940   -0.8786 C   0  0  0  0  0  0  0  0  0  0  0  0
   10.6957   -0.0073   -1.4888 C   0  0  0  0  0  0  0  0  0  0  0  0
   11.2592   -1.0269   -2.1402 N   0  0  0  0  0  0  0  0  0  0  0  0
   10.5926   -2.1757   -2.1929 C   0  0  0  0  0  0  0  0  0  0  0  0
    9.3253   -2.3929   -1.6030 C   0  0  0  0  0  0  0  0  0  0  0  0
    8.7059   -3.6730   -1.7363 C   0  0  0  0  0  0  0  0  0  0  0  0
    8.2294   -4.7827   -1.8748 C   0  0  0  0  0  0  0  0  0  0  0  0
    7.5933   -6.0946   -2.0428 C   0  0  0  0  0  0  0  0  0  0  0  0
    7.5064   -6.5253   -3.3857 O   0  0  0  0  0  0  0  0  0  0  0  0
    4.5687    0.9879   -0.3252 C   0  0  0  0  0  0  0  0  0  0  0  0
    3.2906    1.2643    0.1516 C   0  0  0  0  0  0  0  0  0  0  0  0
    0.8737   -0.1004    2.1994 H   0  0  0  0  0  0  0  0  0  0  0  0
    0.5527    0.8839    0.7519 H   0  0  0  0  0  0  0  0  0  0  0  0
    1.2646    1.6339    2.1912 H   0  0  0  0  0  0  0  0  0  0  0  0
    2.8731   -1.4364    2.1623 H   0  0  0  0  0  0  0  0  0  0  0  0
    5.1465   -1.9404    1.3159 H   0  0  0  0  0  0  0  0  0  0  0  0
    6.8688    0.3218   -1.0865 H   0  0  0  0  0  0  0  0  0  0  0  0
    9.0394    0.7684   -0.3416 H   0  0  0  0  0  0  0  0  0  0  0  0
   11.2674    0.9269   -1.4430 H   0  0  0  0  0  0  0  0  0  0  0  0
   11.0669   -3.0024   -2.7332 H   0  0  0  0  0  0  0  0  0  0  0  0
    6.6013   -6.0694   -1.5468 H   0  0  0  0  0  0  0  0  0  0  0  0
    8.1867   -6.8566   -1.5099 H   0  0  0  0  0  0  0  0  0  0  0  0
    7.0140   -5.8563   -3.8802 H   0  0  0  0  0  0  0  0  0  0  0  0
    5.0438    1.6770   -1.0306 H   0  0  0  0  0  0  0  0  0  0  0  0
    2.7812    2.1704   -0.1897 H   0  0  0  0  0  0  0  0  0  0  0  0
  1  2  1  0
  1 21  1  0
  1 22  1  0
  1 23  1  0
  2  3  2  0
  2 20  1  0
  3  4  1  0
  3 24  1  0
  4  5  2  0
  4 25  1  0
  5  6  1  0
  5 19  1  0
  6  7  1  0
  6 26  1  0
  7  8  2  0
  7  9  1  0
  9 10  2  0
  9 14  1  0
 10 11  1  0
 10 27  1  0
 11 12  2  0
 11 28  1  0
 12 13  1  0
 13 14  2  0
 13 29  1  0
 14 15  1  0
 15 16  3  0
 16 17  1  0
 17 18  1  0
 17 30  1  0
 17 31  1  0
 18 32  1  0
 19 20  2  0
 19 33  1  0
 20 34  1  0
M  END

