
     RDKit          3D

 68 72  0  0  0  0  0  0  0  0999 V2000
    0.5731   -1.9814   -2.9818 C   0  0  0  0  0  0  0  0  0  0  0  0
    1.8800   -1.4590   -2.9840 O   0  0  0  0  0  0  0  0  0  0  0  0
    2.0967   -0.1810   -2.5585 C   0  0  0  0  0  0  0  0  0  0  0  0
    1.0673    0.6751   -2.1457 C   0  0  0  0  0  0  0  0  0  0  0  0
    1.3646    1.9826   -1.7445 C   0  0  0  0  0  0  0  0  0  0  0  0
    2.6809    2.4356   -1.7612 C   0  0  0  0  0  0  0  0  0  0  0  0
    3.7072    1.5751   -2.1741 C   0  0  0  0  0  0  0  0  0  0  0  0
    3.4446    0.2601   -2.5714 C   0  0  0  0  0  0  0  0  0  0  0  0
    4.5211   -0.7252   -3.0332 C   0  0  1  0  0  0  0  0  0  0  0  0
    5.7874   -0.0708   -3.6815 C   0  0  0  0  0  0  0  0  0  0  0  0
    6.9287    0.3516   -2.7583 C   0  0  0  0  0  0  0  0  0  0  0  0
    6.8574    1.3962   -2.1176 O   0  0  0  0  0  0  0  0  0  0  0  0
    8.0511   -0.4406   -2.6813 N   0  0  0  0  0  0  0  0  0  0  0  0
    9.1490   -0.0488   -1.8047 C   0  0  0  0  0  0  0  0  0  0  0  0
    9.3904   -1.1080   -0.7321 C   0  0  0  0  0  0  0  0  0  0  0  0
    9.5948   -2.4387   -1.3238 N   0  0  0  0  0  0  0  0  0  0  0  0
   10.1147   -3.4450   -0.4969 C   0  0  0  0  0  0  0  0  0  0  0  0
   11.2286   -3.1962    0.3415 C   0  0  0  0  0  0  0  0  0  0  0  0
   11.7573   -4.1947    1.1524 C   0  0  0  0  0  0  0  0  0  0  0  0
   11.2077   -5.4826    1.1677 C   0  0  0  0  0  0  0  0  0  0  0  0
   10.1124   -5.7417    0.3447 C   0  0  0  0  0  0  0  0  0  0  0  0
    9.4654   -7.1026    0.3144 C   0  0  1  0  0  0  0  0  0  0  0  0
    9.9791   -7.9403    1.2272 F   0  0  0  0  0  0  0  0  0  0  0  0
    8.1336   -7.0249    0.5525 F   0  0  0  0  0  0  0  0  0  0  0  0
    9.5962   -7.6936   -0.8898 F   0  0  0  0  0  0  0  0  0  0  0  0
    9.5699   -4.7438   -0.4740 C   0  0  0  0  0  0  0  0  0  0  0  0
    8.5425   -2.8184   -2.2590 C   0  0  0  0  0  0  0  0  0  0  0  0
    8.2924   -1.7303   -3.3061 C   0  0  0  0  0  0  0  0  0  0  0  0
    4.8270   -1.7826   -1.9858 C   0  0  0  0  0  0  0  0  0  0  0  0
    4.7278   -3.1402   -2.2012 C   0  0  0  0  0  0  0  0  0  0  0  0
    5.0502   -3.8531   -1.0616 N   0  0  0  0  0  0  0  0  0  0  0  0
    4.9977   -5.2899   -0.9034 C   0  0  0  0  0  0  0  0  0  0  0  0
    5.3499   -2.9489   -0.0616 C   0  0  0  0  0  0  0  0  0  0  0  0
    5.7221   -3.1867    1.2705 C   0  0  0  0  0  0  0  0  0  0  0  0
    5.9666   -2.0798    2.0783 C   0  0  0  0  0  0  0  0  0  0  0  0
    5.8454   -0.7680    1.5700 C   0  0  0  0  0  0  0  0  0  0  0  0
    5.4804   -0.5341    0.2472 C   0  0  0  0  0  0  0  0  0  0  0  0
    5.2244   -1.6324   -0.6003 C   0  0  0  0  0  0  0  0  0  0  0  0
    0.6476   -3.0160   -3.3444 H   0  0  0  0  0  0  0  0  0  0  0  0
   -0.1004   -1.4169   -3.6523 H   0  0  0  0  0  0  0  0  0  0  0  0
    0.1349   -1.9903   -1.9675 H   0  0  0  0  0  0  0  0  0  0  0  0
    0.0319    0.3347   -2.1373 H   0  0  0  0  0  0  0  0  0  0  0  0
    0.5540    2.6420   -1.4229 H   0  0  0  0  0  0  0  0  0  0  0  0
    2.9204    3.4558   -1.4521 H   0  0  0  0  0  0  0  0  0  0  0  0
    4.7403    1.9286   -2.1755 H   0  0  0  0  0  0  0  0  0  0  0  0
    4.0539   -1.2786   -3.8616 H   0  0  0  0  0  0  0  0  0  0  0  0
    5.4775    0.8460   -4.2045 H   0  0  0  0  0  0  0  0  0  0  0  0
    6.1516   -0.7575   -4.4558 H   0  0  0  0  0  0  0  0  0  0  0  0
    8.8892    0.9110   -1.3433 H   0  0  0  0  0  0  0  0  0  0  0  0
   10.0641    0.0803   -2.4120 H   0  0  0  0  0  0  0  0  0  0  0  0
    8.5282   -1.1230   -0.0360 H   0  0  0  0  0  0  0  0  0  0  0  0
   10.2775   -0.8201   -0.1537 H   0  0  0  0  0  0  0  0  0  0  0  0
   11.6973   -2.2113    0.3415 H   0  0  0  0  0  0  0  0  0  0  0  0
   12.6214   -3.9683    1.7820 H   0  0  0  0  0  0  0  0  0  0  0  0
   11.6209   -6.2641    1.8055 H   0  0  0  0  0  0  0  0  0  0  0  0
    8.6985   -4.9878   -1.0779 H   0  0  0  0  0  0  0  0  0  0  0  0
    7.5903   -3.0369   -1.7377 H   0  0  0  0  0  0  0  0  0  0  0  0
    8.8526   -3.7313   -2.7898 H   0  0  0  0  0  0  0  0  0  0  0  0
    7.4411   -2.0350   -3.9223 H   0  0  0  0  0  0  0  0  0  0  0  0
    9.1785   -1.6493   -3.9640 H   0  0  0  0  0  0  0  0  0  0  0  0
    4.4180   -3.6649   -3.1046 H   0  0  0  0  0  0  0  0  0  0  0  0
    4.8092   -5.7561   -1.8800 H   0  0  0  0  0  0  0  0  0  0  0  0
    4.1905   -5.5911   -0.2132 H   0  0  0  0  0  0  0  0  0  0  0  0
    5.9489   -5.6841   -0.5100 H   0  0  0  0  0  0  0  0  0  0  0  0
    5.8197   -4.2016    1.6618 H   0  0  0  0  0  0  0  0  0  0  0  0
    6.2564   -2.2294    3.1215 H   0  0  0  0  0  0  0  0  0  0  0  0
    6.0412    0.0809    2.2301 H   0  0  0  0  0  0  0  0  0  0  0  0
    5.4075    0.4853   -0.1312 H   0  0  0  0  0  0  0  0  0  0  0  0
  1  2  1  0
  1 39  1  0
  1 40  1  0
  1 41  1  0
  2  3  1  0
  3  4  2  0
  3  8  1  0
  4  5  1  0
  4 42  1  0
  5  6  2  0
  5 43  1  0
  6  7  1  0
  6 44  1  0
  7  8  2  0
  7 45  1  0
  8  9  1  0
  9 10  1  0
  9 29  1  0
  9 46  1  6
 10 11  1  0
 10 47  1  0
 10 48  1  0
 11 12  2  0
 11 13  1  0
 13 14  1  0
 13 28  1  0
 14 15  1  0
 14 49  1  0
 14 50  1  0
 15 16  1  0
 15 51  1  0
 15 52  1  0
 16 17  1  0
 16 27  1  0
 17 18  2  0
 17 26  1  0
 18 19  1  0
 18 53  1  0
 19 20  2  0
 19 54  1  0
 20 21  1  0
 20 55  1  0
 21 22  1  0
 21 26  2  0
 22 23  1  1
 22 24  1  0
 22 25  1  0
 26 56  1  0
 27 28  1  0
 27 57  1  0
 27 58  1  0
 28 59  1  0
 28 60  1  0
 29 30  2  0
 29 38  1  0
 30 31  1  0
 30 61  1  0
 31 32  1  0
 31 33  1  0
 32 62  1  0
 32 63  1  0
 32 64  1  0
 33 34  1  0
 33 38  2  0
 34 35  2  0
 34 65  1  0
 35 36  1  0
 35 66  1  0
 36 37  2  0
 36 67  1  0
 37 38  1  0
 37 68  1  0
M  END

