
     RDKit          3D

 40 41  0  0  0  0  0  0  0  0999 V2000
    4.2480    1.9447   -4.1831 C   0  0  0  0  0  0  0  0  0  0  0  0
    3.0054    2.0006   -3.2909 C   0  0  0  0  0  0  0  0  0  0  0  0
    2.8510    0.8234   -2.3167 C   0  0  0  0  0  0  0  0  0  0  0  0
    3.9672    0.6762   -1.2750 C   0  0  1  0  0  0  0  0  0  0  0  0
    4.0032    1.8240   -0.3808 N   0  0  0  0  0  0  0  0  0  0  0  0
    4.5400    1.8376    0.8674 C   0  0  0  0  0  0  0  0  0  0  0  0
    4.6799    2.8497    1.5299 O   0  0  0  0  0  0  0  0  0  0  0  0
    5.0052    0.4788    1.3940 C   0  0  2  0  0  0  0  0  0  0  0  0
    6.5372    0.3810    1.2837 C   0  0  0  0  0  0  0  0  0  0  0  0
    4.3107   -0.6537    0.7748 N   0  0  0  0  0  0  0  0  0  0  0  0
    4.1935   -1.8857    1.5659 C   0  0  0  0  0  0  0  0  0  0  0  0
    3.0728   -1.8386    2.5876 C   0  0  0  0  0  0  0  0  0  0  0  0
    1.7318   -1.8651    2.1623 C   0  0  0  0  0  0  0  0  0  0  0  0
    0.7065   -1.8072    3.1055 C   0  0  0  0  0  0  0  0  0  0  0  0
    0.9933   -1.7258    4.4725 C   0  0  0  0  0  0  0  0  0  0  0  0
    2.3261   -1.7038    4.9005 C   0  0  0  0  0  0  0  0  0  0  0  0
    2.6786   -1.6298    6.2102 O   0  0  0  0  0  0  0  0  0  0  0  0
    3.3610   -1.7597    3.9531 C   0  0  0  0  0  0  0  0  0  0  0  0
    3.8051   -0.6393   -0.4929 C   0  0  0  0  0  0  0  0  0  0  0  0
    3.2725   -1.6099   -1.0120 O   0  0  0  0  0  0  0  0  0  0  0  0
    4.2481    2.7697   -4.9129 H   0  0  0  0  0  0  0  0  0  0  0  0
    4.2899    0.9990   -4.7487 H   0  0  0  0  0  0  0  0  0  0  0  0
    5.1828    2.0261   -3.6043 H   0  0  0  0  0  0  0  0  0  0  0  0
    2.1048    2.0223   -3.9276 H   0  0  0  0  0  0  0  0  0  0  0  0
    2.9864    2.9625   -2.7444 H   0  0  0  0  0  0  0  0  0  0  0  0
    2.8101   -0.1242   -2.8737 H   0  0  0  0  0  0  0  0  0  0  0  0
    1.8910    0.9081   -1.7801 H   0  0  0  0  0  0  0  0  0  0  0  0
    4.9340    0.5780   -1.8118 H   0  0  0  0  0  0  0  0  0  0  0  0
    3.7511    2.7359   -0.7516 H   0  0  0  0  0  0  0  0  0  0  0  0
    4.7287    0.4894    2.4596 H   0  0  0  0  0  0  0  0  0  0  0  0
    6.8625    0.4047    0.2314 H   0  0  0  0  0  0  0  0  0  0  0  0
    6.9080   -0.5518    1.7352 H   0  0  0  0  0  0  0  0  0  0  0  0
    6.9975    1.2288    1.8114 H   0  0  0  0  0  0  0  0  0  0  0  0
    5.1541   -2.0727    2.0700 H   0  0  0  0  0  0  0  0  0  0  0  0
    4.0184   -2.6993    0.8496 H   0  0  0  0  0  0  0  0  0  0  0  0
    1.5059   -1.9393    1.0964 H   0  0  0  0  0  0  0  0  0  0  0  0
   -0.3365   -1.8313    2.7790 H   0  0  0  0  0  0  0  0  0  0  0  0
    0.1828   -1.6829    5.2072 H   0  0  0  0  0  0  0  0  0  0  0  0
    1.8828   -1.5909    6.7568 H   0  0  0  0  0  0  0  0  0  0  0  0
    4.3924   -1.7470    4.3143 H   0  0  0  0  0  0  0  0  0  0  0  0
  1  2  1  0
  1 21  1  0
  1 22  1  0
  1 23  1  0
  2  3  1  0
  2 24  1  0
  2 25  1  0
  3  4  1  0
  3 26  1  0
  3 27  1  0
  4  5  1  0
  4 19  1  0
  4 28  1  6
  5  6  1  0
  5 29  1  0
  6  7  2  0
  6  8  1  0
  8  9  1  0
  8 10  1  0
  8 30  1  1
  9 31  1  0
  9 32  1  0
  9 33  1  0
 10 11  1  0
 10 19  1  0
 11 12  1  0
 11 34  1  0
 11 35  1  0
 12 13  2  0
 12 18  1  0
 13 14  1  0
 13 36  1  0
 14 15  2  0
 14 37  1  0
 15 16  1  0
 15 38  1  0
 16 17  1  0
 16 18  2  0
 17 39  1  0
 18 40  1  0
 19 20  2  0
M  END

