
     RDKit          3D

 36 36  0  0  0  0  0  0  0  0999 V2000
    0.8580    0.0659   -0.0818 C   0  0  0  0  0  0  0  0  0  0  0  0
    2.3720    0.1446    0.0897 C   0  0  1  0  0  0  0  0  0  0  0  0
    2.8799    1.1435    1.1395 C   0  0  0  0  0  0  0  0  0  0  0  0
    4.3467    0.7260    1.3644 C   0  0  2  0  0  0  0  0  0  0  0  0
    5.1964    1.1863    0.3408 O   0  0  0  0  0  0  0  0  0  0  0  0
    4.2486   -0.8147    1.4163 C   0  0  0  0  0  0  0  0  0  0  0  0
    3.0290   -1.2028    0.5211 C   0  0  2  0  0  0  0  0  0  0  0  0
    3.3279   -2.0996   -0.5934 N   0  0  0  0  0  0  0  0  0  0  0  0
    4.2308   -1.8297   -1.5710 C   0  0  0  0  0  0  0  0  0  0  0  0
    4.8922   -0.8012   -1.6420 O   0  0  0  0  0  0  0  0  0  0  0  0
    4.2935   -2.8511   -2.4447 O   0  0  0  0  0  0  0  0  0  0  0  0
    5.1877   -2.8395   -3.6095 C   0  0  1  0  0  0  0  0  0  0  0  0
    6.6473   -2.7720   -3.1496 C   0  0  0  0  0  0  0  0  0  0  0  0
    4.8905   -4.1851   -4.2741 C   0  0  0  0  0  0  0  0  0  0  0  0
    4.8197   -1.6808   -4.5415 C   0  0  0  0  0  0  0  0  0  0  0  0
    0.4423    1.0278   -0.4221 H   0  0  0  0  0  0  0  0  0  0  0  0
    0.3597   -0.1939    0.8686 H   0  0  0  0  0  0  0  0  0  0  0  0
    0.5793   -0.6969   -0.8282 H   0  0  0  0  0  0  0  0  0  0  0  0
    2.8227    0.4288   -0.8743 H   0  0  0  0  0  0  0  0  0  0  0  0
    2.3074    1.0345    2.0801 H   0  0  0  0  0  0  0  0  0  0  0  0
    2.8037    2.1926    0.8157 H   0  0  0  0  0  0  0  0  0  0  0  0
    4.7400    1.1383    2.3089 H   0  0  0  0  0  0  0  0  0  0  0  0
    5.1260    0.5803   -0.4207 H   0  0  0  0  0  0  0  0  0  0  0  0
    4.0656   -1.1474    2.4501 H   0  0  0  0  0  0  0  0  0  0  0  0
    5.1857   -1.2838    1.0852 H   0  0  0  0  0  0  0  0  0  0  0  0
    2.3028   -1.7588    1.1341 H   0  0  0  0  0  0  0  0  0  0  0  0
    2.8663   -2.9985   -0.6456 H   0  0  0  0  0  0  0  0  0  0  0  0
    6.8665   -3.5917   -2.4475 H   0  0  0  0  0  0  0  0  0  0  0  0
    6.8649   -1.8159   -2.6573 H   0  0  0  0  0  0  0  0  0  0  0  0
    7.3144   -2.8811   -4.0189 H   0  0  0  0  0  0  0  0  0  0  0  0
    5.1122   -5.0151   -3.5861 H   0  0  0  0  0  0  0  0  0  0  0  0
    5.5060   -4.3073   -5.1780 H   0  0  0  0  0  0  0  0  0  0  0  0
    3.8303   -4.2496   -4.5625 H   0  0  0  0  0  0  0  0  0  0  0  0
    5.0153   -0.7116   -4.0658 H   0  0  0  0  0  0  0  0  0  0  0  0
    3.7547   -1.7336   -4.8171 H   0  0  0  0  0  0  0  0  0  0  0  0
    5.4143   -1.7466   -5.4660 H   0  0  0  0  0  0  0  0  0  0  0  0
  1  2  1  0
  1 16  1  0
  1 17  1  0
  1 18  1  0
  2  3  1  0
  2  7  1  0
  2 19  1  6
  3  4  1  0
  3 20  1  0
  3 21  1  0
  4  5  1  0
  4  6  1  0
  4 22  1  1
  5 23  1  0
  6  7  1  0
  6 24  1  0
  6 25  1  0
  7  8  1  0
  7 26  1  1
  8  9  1  0
  8 27  1  0
  9 10  2  0
  9 11  1  0
 12 11  1  1
 12 13  1  0
 12 14  1  0
 12 15  1  0
 13 28  1  0
 13 29  1  0
 13 30  1  0
 14 31  1  0
 14 32  1  0
 14 33  1  0
 15 34  1  0
 15 35  1  0
 15 36  1  0
M  END

