
     RDKit          3D

 54 58  0  0  0  0  0  0  0  0999 V2000
    2.2380    1.7361   -0.0388 C   0  0  0  0  0  0  0  0  0  0  0  0
    2.1720    0.2606   -0.4595 C   0  0  1  0  0  0  0  0  0  0  0  0
    2.6045   -0.5905    0.7524 C   0  0  0  0  0  0  0  0  0  0  0  0
    0.7168   -0.0366   -0.8759 C   0  0  0  0  0  0  0  0  0  0  0  0
    3.0777   -0.0627   -1.6144 N   0  0  0  0  0  0  0  0  0  0  0  0
    3.9813    0.7240   -2.3349 C   0  0  0  0  0  0  0  0  0  0  0  0
    4.2931    2.1686   -2.1307 C   0  0  0  0  0  0  0  0  0  0  0  0
    5.4444    2.5157   -1.4061 C   0  0  0  0  0  0  0  0  0  0  0  0
    5.8005    3.8500   -1.2077 C   0  0  0  0  0  0  0  0  0  0  0  0
    5.0081    4.8678   -1.7477 C   0  0  0  0  0  0  0  0  0  0  0  0
    3.8828    4.5457   -2.5045 C   0  0  0  0  0  0  0  0  0  0  0  0
    3.5363    3.2043   -2.7095 C   0  0  0  0  0  0  0  0  0  0  0  0
    2.3847    2.9190   -3.4976 N   0  0  0  0  0  0  0  0  0  0  0  0
    2.2270    2.0326   -4.5225 C   0  0  0  0  0  0  0  0  0  0  0  0
    1.0154    2.1388   -5.0282 N   0  0  0  0  0  0  0  0  0  0  0  0
    0.4536    3.1228   -4.2753 C   0  0  0  0  0  0  0  0  0  0  0  0
    1.2401    3.6305   -3.3415 N   0  0  0  0  0  0  0  0  0  0  0  0
    4.6222    0.0623   -3.2691 N   0  0  0  0  0  0  0  0  0  0  0  0
    4.1524   -1.2303   -3.2043 C   0  0  0  0  0  0  0  0  0  0  0  0
    4.5233   -2.3353   -3.9819 C   0  0  0  0  0  0  0  0  0  0  0  0
    3.9184   -3.5758   -3.7458 C   0  0  0  0  0  0  0  0  0  0  0  0
    4.2583   -4.7492   -4.5860 C   0  0  0  0  0  0  0  0  0  0  0  0
    4.6033   -4.6205   -5.9184 C   0  0  0  0  0  0  0  0  0  0  0  0
    4.9678   -5.6218   -6.7607 N   0  0  0  0  0  0  0  0  0  0  0  0
    4.9980   -6.8313   -6.2605 C   0  0  0  0  0  0  0  0  0  0  0  0
    5.4085   -7.8783   -7.0347 N   0  0  0  0  0  0  0  0  0  0  0  0
    4.6582   -7.0840   -4.9642 N   0  0  0  0  0  0  0  0  0  0  0  0
    4.6995   -8.0236   -4.5771 H   0  0  0  0  0  0  0  0  0  0  0  0
    4.2523   -6.0995   -4.0271 C   0  0  0  0  0  0  0  0  0  0  0  0
    3.9554   -6.4607   -2.8997 O   0  0  0  0  0  0  0  0  0  0  0  0
    2.9602   -3.6747   -2.6995 C   0  0  0  0  0  0  0  0  0  0  0  0
    2.5860   -2.5861   -1.9189 C   0  0  0  0  0  0  0  0  0  0  0  0
    3.1862   -1.3402   -2.1767 C   0  0  0  0  0  0  0  0  0  0  0  0
    1.5691    1.8614    0.8258 H   0  0  0  0  0  0  0  0  0  0  0  0
    1.8841    2.4152   -0.8244 H   0  0  0  0  0  0  0  0  0  0  0  0
    3.2442    2.0422    0.2742 H   0  0  0  0  0  0  0  0  0  0  0  0
    1.9389   -0.3881    1.6054 H   0  0  0  0  0  0  0  0  0  0  0  0
    3.6319   -0.3323    1.0526 H   0  0  0  0  0  0  0  0  0  0  0  0
    2.5751   -1.6682    0.5494 H   0  0  0  0  0  0  0  0  0  0  0  0
    0.0395    0.1920   -0.0389 H   0  0  0  0  0  0  0  0  0  0  0  0
    0.5586   -1.0840   -1.1606 H   0  0  0  0  0  0  0  0  0  0  0  0
    0.4274    0.5934   -1.7306 H   0  0  0  0  0  0  0  0  0  0  0  0
    6.0569    1.7150   -0.9858 H   0  0  0  0  0  0  0  0  0  0  0  0
    6.6960    4.0948   -0.6317 H   0  0  0  0  0  0  0  0  0  0  0  0
    5.2742    5.9161   -1.5929 H   0  0  0  0  0  0  0  0  0  0  0  0
    3.2566    5.3206   -2.9481 H   0  0  0  0  0  0  0  0  0  0  0  0
    3.0239    1.3615   -4.8395 H   0  0  0  0  0  0  0  0  0  0  0  0
   -0.5679    3.4773   -4.4156 H   0  0  0  0  0  0  0  0  0  0  0  0
    5.2963   -2.2074   -4.7415 H   0  0  0  0  0  0  0  0  0  0  0  0
    4.5729   -3.6272   -6.3779 H   0  0  0  0  0  0  0  0  0  0  0  0
    5.5125   -7.6659   -8.0200 H   0  0  0  0  0  0  0  0  0  0  0  0
    5.1483   -8.8265   -6.7955 H   0  0  0  0  0  0  0  0  0  0  0  0
    2.5111   -4.6452   -2.4948 H   0  0  0  0  0  0  0  0  0  0  0  0
    1.8444   -2.7334   -1.1356 H   0  0  0  0  0  0  0  0  0  0  0  0
  2  1  1  1
  1 34  1  0
  1 35  1  0
  1 36  1  0
  2  3  1  0
  2  4  1  0
  2  5  1  0
  3 37  1  0
  3 38  1  0
  3 39  1  0
  4 40  1  0
  4 41  1  0
  4 42  1  0
  5  6  1  0
  5 33  1  0
  6  7  1  0
  6 18  2  0
  7  8  2  0
  7 12  1  0
  8  9  1  0
  8 43  1  0
  9 10  2  0
  9 44  1  0
 10 11  1  0
 10 45  1  0
 11 12  2  0
 11 46  1  0
 12 13  1  0
 13 14  1  0
 13 17  1  0
 14 15  2  0
 14 47  1  0
 15 16  1  0
 16 17  2  0
 16 48  1  0
 18 19  1  0
 19 20  1  0
 19 33  2  0
 20 21  2  0
 20 49  1  0
 21 22  1  0
 21 31  1  0
 22 23  2  0
 22 29  1  0
 23 24  1  0
 23 50  1  0
 24 25  2  0
 25 26  1  0
 25 27  1  0
 26 51  1  0
 26 52  1  0
 27 28  1  0
 27 29  1  0
 29 30  2  0
 31 32  2  0
 31 53  1  0
 32 33  1  0
 32 54  1  0
M  END

