
     RDKit          3D

 39 40  0  0  0  0  0  0  0  0999 V2000
    2.9800    0.6462    3.3962 C   0  0  0  0  0  0  0  0  0  0  0  0
    3.7513    0.3255    2.1423 C   0  0  0  0  0  0  0  0  0  0  0  0
    3.3752    0.8602    0.8959 C   0  0  0  0  0  0  0  0  0  0  0  0
    4.0605    0.5839   -0.2812 C   0  0  0  0  0  0  0  0  0  0  0  0
    5.1914   -0.2624   -0.2759 C   0  0  0  0  0  0  0  0  0  0  0  0
    5.8623   -0.5247   -1.4531 N   0  0  0  0  0  0  0  0  0  0  0  0
    6.8880   -1.5268   -1.6168 C   0  0  1  0  0  0  0  0  0  0  0  0
    6.8994   -1.9885   -3.1025 C   0  0  0  0  0  0  0  0  0  0  0  0
    7.1461   -0.8757   -4.0890 C   0  0  0  0  0  0  0  0  0  0  0  0
    8.4292   -0.5988   -4.4711 N   0  0  0  0  0  0  0  0  0  0  0  0
    6.1050   -0.2393   -4.5200 N   0  0  0  0  0  0  0  0  0  0  0  0
    6.4973    0.8144   -5.3732 O   0  0  0  0  0  0  0  0  0  0  0  0
    8.2805   -1.0901   -1.1471 C   0  0  0  0  0  0  0  0  0  0  0  0
    8.6402    0.2621   -1.0683 C   0  0  0  0  0  0  0  0  0  0  0  0
    9.9309    0.6352   -0.6797 C   0  0  0  0  0  0  0  0  0  0  0  0
   10.8818   -0.3395   -0.3637 C   0  0  0  0  0  0  0  0  0  0  0  0
   10.5317   -1.6921   -0.4324 C   0  0  0  0  0  0  0  0  0  0  0  0
    9.2402   -2.0613   -0.8182 C   0  0  0  0  0  0  0  0  0  0  0  0
    5.5954   -0.8061    0.9609 C   0  0  0  0  0  0  0  0  0  0  0  0
    4.8784   -0.5097    2.1222 C   0  0  0  0  0  0  0  0  0  0  0  0
    5.5020   -1.2992    3.7572 Br  0  0  0  0  0  0  0  0  0  0  0  0
    2.1397    1.3203    3.1738 H   0  0  0  0  0  0  0  0  0  0  0  0
    3.6173    1.1326    4.1533 H   0  0  0  0  0  0  0  0  0  0  0  0
    2.5726   -0.2636    3.8677 H   0  0  0  0  0  0  0  0  0  0  0  0
    2.5018    1.5176    0.8546 H   0  0  0  0  0  0  0  0  0  0  0  0
    3.7213    1.0204   -1.2245 H   0  0  0  0  0  0  0  0  0  0  0  0
    5.4785   -0.1392   -2.3123 H   0  0  0  0  0  0  0  0  0  0  0  0
    6.6176   -2.4253   -1.0295 H   0  0  0  0  0  0  0  0  0  0  0  0
    5.9205   -2.4334   -3.3313 H   0  0  0  0  0  0  0  0  0  0  0  0
    7.6635   -2.7700   -3.2292 H   0  0  0  0  0  0  0  0  0  0  0  0
    9.1825   -0.8982   -3.8652 H   0  0  0  0  0  0  0  0  0  0  0  0
    8.5630    0.2787   -4.9620 H   0  0  0  0  0  0  0  0  0  0  0  0
    5.6538    1.1723   -5.6737 H   0  0  0  0  0  0  0  0  0  0  0  0
    7.8923    1.0221   -1.3043 H   0  0  0  0  0  0  0  0  0  0  0  0
   10.1925    1.6948   -0.6177 H   0  0  0  0  0  0  0  0  0  0  0  0
   11.8889   -0.0473   -0.0553 H   0  0  0  0  0  0  0  0  0  0  0  0
   11.2637   -2.4621   -0.1750 H   0  0  0  0  0  0  0  0  0  0  0  0
    8.9710   -3.1220   -0.8554 H   0  0  0  0  0  0  0  0  0  0  0  0
    6.4756   -1.4432    1.0299 H   0  0  0  0  0  0  0  0  0  0  0  0
  1  2  1  0
  1 22  1  0
  1 23  1  0
  1 24  1  0
  2  3  2  0
  2 20  1  0
  3  4  1  0
  3 25  1  0
  4  5  2  0
  4 26  1  0
  5  6  1  0
  5 19  1  0
  6  7  1  0
  6 27  1  0
  7  8  1  0
  7 13  1  0
  7 28  1  1
  8  9  1  0
  8 29  1  0
  8 30  1  0
  9 10  1  0
  9 11  2  0
 10 31  1  0
 10 32  1  0
 11 12  1  0
 12 33  1  0
 13 14  2  0
 13 18  1  0
 14 15  1  0
 14 34  1  0
 15 16  2  0
 15 35  1  0
 16 17  1  0
 16 36  1  0
 17 18  2  0
 17 37  1  0
 18 38  1  0
 19 20  2  0
 19 39  1  0
 20 21  1  0
M  END

