
     RDKit          3D

 55 60  0  0  0  0  0  0  0  0999 V2000
    2.5140   -1.6173   -1.4947 C   0  0  0  0  0  0  0  0  0  0  0  0
    3.4217   -1.1671   -0.5159 O   0  0  0  0  0  0  0  0  0  0  0  0
    3.7713   -1.9966    0.5024 C   0  0  0  0  0  0  0  0  0  0  0  0
    3.2675   -3.3023    0.6732 C   0  0  0  0  0  0  0  0  0  0  0  0
    3.7175   -4.0722    1.7355 C   0  0  0  0  0  0  0  0  0  0  0  0
    4.6733   -3.6019    2.6655 C   0  0  0  0  0  0  0  0  0  0  0  0
    5.1395   -4.3859    3.7944 C   0  0  0  0  0  0  0  0  0  0  0  0
    5.7321   -3.7561    4.8778 C   0  0  0  0  0  0  0  0  0  0  0  0
    6.1418   -2.3779    4.8163 C   0  0  0  0  0  0  0  0  0  0  0  0
    6.8159   -1.7150    5.8721 C   0  0  0  0  0  0  0  0  0  0  0  0
    7.2808   -0.4137    5.7605 C   0  0  0  0  0  0  0  0  0  0  0  0
    7.0813    0.2926    4.5564 C   0  0  0  0  0  0  0  0  0  0  0  0
    7.5094    1.5627    4.3336 O   0  0  0  0  0  0  0  0  0  0  0  0
    8.2053    2.2476    5.3491 C   0  0  0  0  0  0  0  0  0  0  0  0
    6.3958   -0.3218    3.5109 C   0  0  0  0  0  0  0  0  0  0  0  0
    5.9037   -1.6359    3.6109 C   0  0  0  0  0  0  0  0  0  0  0  0
    5.0971   -2.2384    2.5485 C   0  0  0  0  0  0  0  0  0  0  0  0
    4.6562   -1.4812    1.4453 C   0  0  0  0  0  0  0  0  0  0  0  0
    5.8459   -4.7179    6.0639 C   0  0  1  0  0  0  0  0  0  0  0  0
    7.3058   -4.9910    6.5031 C   0  0  0  0  0  0  0  0  0  0  0  0
    4.9840   -4.2510    7.2601 C   0  0  0  0  0  0  0  0  0  0  0  0
    5.2869   -5.9970    5.4592 C   0  0  0  0  0  0  0  0  0  0  0  0
    5.1145   -7.2322    6.1132 C   0  0  0  0  0  0  0  0  0  0  0  0
    4.6893   -8.3279    5.3905 C   0  0  0  0  0  0  0  0  0  0  0  0
    4.5320   -8.2492    3.9788 C   0  0  0  0  0  0  0  0  0  0  0  0
    4.2409   -9.4168    3.2170 C   0  0  0  0  0  0  0  0  0  0  0  0
    4.2267   -9.3879    1.8396 C   0  0  0  0  0  0  0  0  0  0  0  0
    4.5315   -8.1819    1.1641 C   0  0  0  0  0  0  0  0  0  0  0  0
    4.7777   -7.0226    1.8725 C   0  0  0  0  0  0  0  0  0  0  0  0
    4.7369   -6.9937    3.2972 C   0  0  0  0  0  0  0  0  0  0  0  0
    4.9966   -5.8299    4.1035 C   0  0  0  0  0  0  0  0  0  0  0  0
    2.4017   -0.7982   -2.2180 H   0  0  0  0  0  0  0  0  0  0  0  0
    1.5223   -1.8494   -1.0652 H   0  0  0  0  0  0  0  0  0  0  0  0
    2.8877   -2.5119   -2.0254 H   0  0  0  0  0  0  0  0  0  0  0  0
    2.5190   -3.7138   -0.0042 H   0  0  0  0  0  0  0  0  0  0  0  0
    3.2845   -5.0609    1.8723 H   0  0  0  0  0  0  0  0  0  0  0  0
    6.9928   -2.2386    6.8094 H   0  0  0  0  0  0  0  0  0  0  0  0
    7.7993    0.0420    6.6042 H   0  0  0  0  0  0  0  0  0  0  0  0
    8.4509    3.2394    4.9459 H   0  0  0  0  0  0  0  0  0  0  0  0
    9.1440    1.7343    5.6264 H   0  0  0  0  0  0  0  0  0  0  0  0
    7.5901    2.3764    6.2583 H   0  0  0  0  0  0  0  0  0  0  0  0
    6.2527    0.2687    2.6068 H   0  0  0  0  0  0  0  0  0  0  0  0
    4.9644   -0.4454    1.3107 H   0  0  0  0  0  0  0  0  0  0  0  0
    7.7828   -4.0965    6.9283 H   0  0  0  0  0  0  0  0  0  0  0  0
    7.9138   -5.3255    5.6490 H   0  0  0  0  0  0  0  0  0  0  0  0
    7.3352   -5.7804    7.2707 H   0  0  0  0  0  0  0  0  0  0  0  0
    5.3557   -3.3100    7.6915 H   0  0  0  0  0  0  0  0  0  0  0  0
    4.9917   -5.0102    8.0585 H   0  0  0  0  0  0  0  0  0  0  0  0
    3.9398   -4.0922    6.9509 H   0  0  0  0  0  0  0  0  0  0  0  0
    5.3094   -7.3229    7.1850 H   0  0  0  0  0  0  0  0  0  0  0  0
    4.5215   -9.2883    5.8852 H   0  0  0  0  0  0  0  0  0  0  0  0
    4.0568  -10.3529    3.7517 H   0  0  0  0  0  0  0  0  0  0  0  0
    4.0149  -10.2962    1.2698 H   0  0  0  0  0  0  0  0  0  0  0  0
    4.5857   -8.1698    0.0724 H   0  0  0  0  0  0  0  0  0  0  0  0
    5.0503   -6.1198    1.3292 H   0  0  0  0  0  0  0  0  0  0  0  0
  1  2  1  0
  1 32  1  0
  1 33  1  0
  1 34  1  0
  2  3  1  0
  3  4  2  0
  3 18  1  0
  4  5  1  0
  4 35  1  0
  5  6  2  0
  5 36  1  0
  6  7  1  0
  6 17  1  0
  7  8  2  0
  7 31  1  0
  8  9  1  0
  8 19  1  0
  9 10  1  0
  9 16  2  0
 10 11  2  0
 10 37  1  0
 11 12  1  0
 11 38  1  0
 12 13  1  0
 12 15  2  0
 13 14  1  0
 14 39  1  0
 14 40  1  0
 14 41  1  0
 15 16  1  0
 15 42  1  0
 16 17  1  0
 17 18  2  0
 18 43  1  0
 19 20  1  1
 19 21  1  0
 19 22  1  0
 20 44  1  0
 20 45  1  0
 20 46  1  0
 21 47  1  0
 21 48  1  0
 21 49  1  0
 22 23  1  0
 22 31  2  0
 23 24  2  0
 23 50  1  0
 24 25  1  0
 24 51  1  0
 25 26  1  0
 25 30  2  0
 26 27  2  0
 26 52  1  0
 27 28  1  0
 27 53  1  0
 28 29  2  0
 28 54  1  0
 29 30  1  0
 29 55  1  0
 30 31  1  0
M  END

