
     RDKit          3D

 39 41  0  0  0  0  0  0  0  0999 V2000
    1.3769    0.0080   -1.0738 O   0  0  0  0  0  0  0  0  0  0  0  0
    2.4978    0.4074   -0.9045 C   0  0  0  0  0  0  0  0  0  0  0  0
    3.0005    1.3606   -1.7278 O   0  0  0  0  0  0  0  0  0  0  0  0
    3.4458   -0.0667    0.2033 C   0  0  1  0  0  0  0  0  0  0  0  0
    2.7776   -1.0895    1.1371 C   0  0  0  0  0  0  0  0  0  0  0  0
    2.5879   -2.4631    0.4754 C   0  0  0  0  0  0  0  0  0  0  0  0
    3.8293   -3.0464   -0.2319 C   0  0  2  0  0  0  0  0  0  0  0  0
    4.7078   -3.8591    0.6424 N   0  0  0  0  0  0  0  0  0  0  0  0
    5.4436   -3.4526    1.7496 C   0  0  0  0  0  0  0  0  0  0  0  0
    5.5114   -2.3234    2.1847 O   0  0  0  0  0  0  0  0  0  0  0  0
    6.1711   -4.6630    2.3426 C   0  0  2  0  0  0  0  0  0  0  0  0
    7.6821   -4.3724    2.4898 C   0  0  0  0  0  0  0  0  0  0  0  0
    8.4099   -4.5389    1.1795 C   0  0  0  0  0  0  0  0  0  0  0  0
    8.1006   -5.5531    0.3600 C   0  0  0  0  0  0  0  0  0  0  0  0
    7.0242   -6.5375    0.7423 C   0  0  0  0  0  0  0  0  0  0  0  0
    5.8165   -5.8357    1.4064 C   0  0  2  0  0  0  0  0  0  0  0  0
    4.9011   -5.2183    0.3513 C   0  0  0  0  0  0  0  0  0  0  0  0
    4.4142   -5.7936   -0.5926 O   0  0  0  0  0  0  0  0  0  0  0  0
    4.5802   -1.9802   -1.0588 C   0  0  0  0  0  0  0  0  0  0  0  0
    4.7746   -0.6295   -0.3570 C   0  0  0  0  0  0  0  0  0  0  0  0
    3.9012    1.5938   -1.4618 H   0  0  0  0  0  0  0  0  0  0  0  0
    3.6857    0.8392    0.7916 H   0  0  0  0  0  0  0  0  0  0  0  0
    1.7934   -0.7091    1.4500 H   0  0  0  0  0  0  0  0  0  0  0  0
    3.4043   -1.1837    2.0344 H   0  0  0  0  0  0  0  0  0  0  0  0
    1.8068   -2.3630   -0.2939 H   0  0  0  0  0  0  0  0  0  0  0  0
    2.2092   -3.1926    1.2096 H   0  0  0  0  0  0  0  0  0  0  0  0
    3.4731   -3.8057   -0.9408 H   0  0  0  0  0  0  0  0  0  0  0  0
    5.7424   -4.8085    3.3474 H   0  0  0  0  0  0  0  0  0  0  0  0
    8.1027   -5.0686    3.2391 H   0  0  0  0  0  0  0  0  0  0  0  0
    7.8064   -3.3598    2.9014 H   0  0  0  0  0  0  0  0  0  0  0  0
    9.2032   -3.8310    0.9204 H   0  0  0  0  0  0  0  0  0  0  0  0
    8.6349   -5.6936   -0.5846 H   0  0  0  0  0  0  0  0  0  0  0  0
    7.4355   -7.2771    1.4541 H   0  0  0  0  0  0  0  0  0  0  0  0
    6.6648   -7.1088   -0.1265 H   0  0  0  0  0  0  0  0  0  0  0  0
    5.2118   -6.5965    1.9255 H   0  0  0  0  0  0  0  0  0  0  0  0
    3.9890   -1.8240   -1.9784 H   0  0  0  0  0  0  0  0  0  0  0  0
    5.5503   -2.3860   -1.3876 H   0  0  0  0  0  0  0  0  0  0  0  0
    5.2423    0.0782   -1.0646 H   0  0  0  0  0  0  0  0  0  0  0  0
    5.4708   -0.7405    0.4848 H   0  0  0  0  0  0  0  0  0  0  0  0
  1  2  2  0
  2  3  1  0
  2  4  1  0
  3 21  1  0
  4  5  1  0
  4 20  1  0
  4 22  1  1
  5  6  1  0
  5 23  1  0
  5 24  1  0
  6  7  1  0
  6 25  1  0
  6 26  1  0
  7  8  1  0
  7 19  1  0
  7 27  1  6
  8  9  1  0
  8 17  1  0
  9 10  2  0
  9 11  1  0
 11 12  1  0
 11 16  1  0
 11 28  1  1
 12 13  1  0
 12 29  1  0
 12 30  1  0
 13 14  2  0
 13 31  1  0
 14 15  1  0
 14 32  1  0
 15 16  1  0
 15 33  1  0
 15 34  1  0
 16 17  1  0
 16 35  1  1
 17 18  2  0
 19 20  1  0
 19 36  1  0
 19 37  1  0
 20 38  1  0
 20 39  1  0
M  END

