
     RDKit          3D

 36 38  0  0  0  0  0  0  0  0999 V2000
    0.7595    0.2706   -0.4439 O   0  0  0  0  0  0  0  0  0  0  0  0
    1.9067    0.0325   -0.0918 C   0  0  0  0  0  0  0  0  0  0  0  0
    2.5980   -1.0774   -0.4519 N   0  0  0  0  0  0  0  0  0  0  0  0
    2.0258   -2.1053   -1.2835 C   0  0  1  0  0  0  0  0  0  0  0  0
    2.2021   -1.7984   -2.8079 C   0  0  0  0  0  0  0  0  0  0  0  0
    1.8871   -2.9222   -3.8234 C   0  0  0  0  0  0  0  0  0  0  0  0
    2.8426   -4.1416   -3.8264 C   0  0  0  0  0  0  0  0  0  0  0  0
    2.5688   -5.1777   -2.7072 C   0  0  0  0  0  0  0  0  0  0  0  0
    2.0161   -4.5253   -1.5124 N   0  0  0  0  0  0  0  0  0  0  0  0
    2.7406   -3.4308   -1.0595 C   0  0  0  0  0  0  0  0  0  0  0  0
    3.9072   -3.4838   -0.7288 O   0  0  0  0  0  0  0  0  0  0  0  0
    2.6568    0.9823    0.7937 C   0  0  0  0  0  0  0  0  0  0  0  0
    2.1612    2.2063    1.3259 C   0  0  0  0  0  0  0  0  0  0  0  0
    3.2150    2.6878    2.0548 C   0  0  0  0  0  0  0  0  0  0  0  0
    3.4081    3.8981    2.8667 C   0  0  1  0  0  0  0  0  0  0  0  0
    4.2558    3.8564    4.1268 C   0  0  0  0  0  0  0  0  0  0  0  0
    4.7621    4.5848    2.9210 C   0  0  0  0  0  0  0  0  0  0  0  0
    4.2492    1.8200    1.9601 O   0  0  0  0  0  0  0  0  0  0  0  0
    3.8954    0.7513    1.1680 N   0  0  0  0  0  0  0  0  0  0  0  0
    3.5482   -1.2240   -0.1146 H   0  0  0  0  0  0  0  0  0  0  0  0
    0.9489   -2.1786   -1.0581 H   0  0  0  0  0  0  0  0  0  0  0  0
    3.2502   -1.4829   -2.9461 H   0  0  0  0  0  0  0  0  0  0  0  0
    1.5717   -0.9226   -3.0276 H   0  0  0  0  0  0  0  0  0  0  0  0
    1.9345   -2.4578   -4.8219 H   0  0  0  0  0  0  0  0  0  0  0  0
    0.8378   -3.2562   -3.7140 H   0  0  0  0  0  0  0  0  0  0  0  0
    3.8773   -3.7703   -3.7347 H   0  0  0  0  0  0  0  0  0  0  0  0
    2.7863   -4.6491   -4.8035 H   0  0  0  0  0  0  0  0  0  0  0  0
    3.4883   -5.7162   -2.4368 H   0  0  0  0  0  0  0  0  0  0  0  0
    1.8358   -5.9306   -3.0355 H   0  0  0  0  0  0  0  0  0  0  0  0
    1.0370   -4.2920   -1.6484 H   0  0  0  0  0  0  0  0  0  0  0  0
    1.1759    2.6362    1.1760 H   0  0  0  0  0  0  0  0  0  0  0  0
    2.5240    4.5400    2.8836 H   0  0  0  0  0  0  0  0  0  0  0  0
    4.7204    2.8996    4.3788 H   0  0  0  0  0  0  0  0  0  0  0  0
    3.9020    4.4351    4.9844 H   0  0  0  0  0  0  0  0  0  0  0  0
    5.5727    4.1256    2.3493 H   0  0  0  0  0  0  0  0  0  0  0  0
    4.7662    5.6782    2.9267 H   0  0  0  0  0  0  0  0  0  0  0  0
  1  2  2  0
  2  3  1  0
  2 12  1  0
  3  4  1  0
  3 20  1  0
  4  5  1  0
  4 10  1  0
  4 21  1  6
  5  6  1  0
  5 22  1  0
  5 23  1  0
  6  7  1  0
  6 24  1  0
  6 25  1  0
  7  8  1  0
  7 26  1  0
  7 27  1  0
  8  9  1  0
  8 28  1  0
  8 29  1  0
  9 10  1  0
  9 30  1  0
 10 11  2  0
 12 13  1  0
 12 19  2  0
 13 14  2  0
 13 31  1  0
 14 15  1  0
 14 18  1  0
 15 16  1  0
 15 17  1  0
 15 32  1  1
 16 17  1  0
 16 33  1  0
 16 34  1  0
 17 35  1  0
 17 36  1  0
 18 19  1  0
M  END

