
     RDKit          3D

 51 53  0  0  0  0  0  0  0  0999 V2000
    4.1918    7.7595   -4.7593 C   0  0  0  0  0  0  0  0  0  0  0  0
    4.6460    8.2847   -3.5336 O   0  0  0  0  0  0  0  0  0  0  0  0
    4.5966    7.5097   -2.4175 C   0  0  0  0  0  0  0  0  0  0  0  0
    4.0930    6.2054   -2.3786 C   0  0  0  0  0  0  0  0  0  0  0  0
    4.0908    5.4382   -1.1989 C   0  0  0  0  0  0  0  0  0  0  0  0
    3.4961    4.0464   -1.2507 C   0  0  0  0  0  0  0  0  0  0  0  0
    4.6132    6.0007   -0.0147 C   0  0  0  0  0  0  0  0  0  0  0  0
    4.6768    5.2294    1.3006 C   0  0  0  0  0  0  0  0  0  0  0  0
    5.9802    4.6644    1.6873 N   0  0  0  0  0  0  0  0  0  0  0  0
    6.5542    3.7291    0.7390 C   0  0  0  0  0  0  0  0  0  0  0  0
    6.9357    5.5917    2.2568 C   0  0  0  0  0  0  0  0  0  0  0  0
    6.5271    6.0737    3.5665 N   0  0  0  0  0  0  0  0  0  0  0  0
    6.2656    7.4046    3.8626 C   0  0  0  0  0  0  0  0  0  0  0  0
    6.2704    8.3350    3.0927 O   0  0  0  0  0  0  0  0  0  0  0  0
    5.9618    7.4523    5.4010 C   0  0  0  0  0  0  0  0  0  0  0  0
    5.6918    8.4567    6.0117 O   0  0  0  0  0  0  0  0  0  0  0  0
    6.0856    6.0556    5.8480 C   0  0  0  0  0  0  0  0  0  0  0  0
    5.9331    5.4816    7.1099 C   0  0  0  0  0  0  0  0  0  0  0  0
    6.1074    4.0992    7.2694 C   0  0  0  0  0  0  0  0  0  0  0  0
    5.9581    3.4332    8.6165 C   0  0  0  0  0  0  0  0  0  0  0  0
    6.4279    3.3384    6.1268 C   0  0  0  0  0  0  0  0  0  0  0  0
    6.5800    3.8972    4.8506 C   0  0  0  0  0  0  0  0  0  0  0  0
    6.4130    5.2748    4.7221 C   0  0  0  0  0  0  0  0  0  0  0  0
    5.0844    7.3273   -0.0550 C   0  0  0  0  0  0  0  0  0  0  0  0
    5.0941    8.0838   -1.2248 C   0  0  0  0  0  0  0  0  0  0  0  0
    5.6326    9.3383   -1.2022 O   0  0  0  0  0  0  0  0  0  0  0  0
    4.7506   10.4299   -1.4112 C   0  0  0  0  0  0  0  0  0  0  0  0
    4.3447    8.5445   -5.5123 H   0  0  0  0  0  0  0  0  0  0  0  0
    3.1177    7.5006   -4.7264 H   0  0  0  0  0  0  0  0  0  0  0  0
    4.7628    6.8618   -5.0581 H   0  0  0  0  0  0  0  0  0  0  0  0
    3.6886    5.7572   -3.2869 H   0  0  0  0  0  0  0  0  0  0  0  0
    3.0909    3.8321   -2.2504 H   0  0  0  0  0  0  0  0  0  0  0  0
    2.6702    3.9229   -0.5305 H   0  0  0  0  0  0  0  0  0  0  0  0
    4.2369    3.2631   -1.0246 H   0  0  0  0  0  0  0  0  0  0  0  0
    3.9574    4.3966    1.2847 H   0  0  0  0  0  0  0  0  0  0  0  0
    4.3584    5.8896    2.1221 H   0  0  0  0  0  0  0  0  0  0  0  0
    5.8397    2.9137    0.5429 H   0  0  0  0  0  0  0  0  0  0  0  0
    7.4620    3.2736    1.1672 H   0  0  0  0  0  0  0  0  0  0  0  0
    6.8308    4.1767   -0.2390 H   0  0  0  0  0  0  0  0  0  0  0  0
    7.1281    6.4960    1.6506 H   0  0  0  0  0  0  0  0  0  0  0  0
    7.8945    5.0561    2.3626 H   0  0  0  0  0  0  0  0  0  0  0  0
    5.6799    6.1207    7.9602 H   0  0  0  0  0  0  0  0  0  0  0  0
    5.6692    4.1568    9.3926 H   0  0  0  0  0  0  0  0  0  0  0  0
    6.9003    2.9576    8.9373 H   0  0  0  0  0  0  0  0  0  0  0  0
    5.1900    2.6423    8.5927 H   0  0  0  0  0  0  0  0  0  0  0  0
    6.5574    2.2572    6.2371 H   0  0  0  0  0  0  0  0  0  0  0  0
    6.7979    3.2698    3.9871 H   0  0  0  0  0  0  0  0  0  0  0  0
    5.4582    7.8190    0.8468 H   0  0  0  0  0  0  0  0  0  0  0  0
    5.3494   11.3450   -1.2999 H   0  0  0  0  0  0  0  0  0  0  0  0
    3.9437   10.4408   -0.6555 H   0  0  0  0  0  0  0  0  0  0  0  0
    4.3037   10.4105   -2.4183 H   0  0  0  0  0  0  0  0  0  0  0  0
  1  2  1  0
  1 28  1  0
  1 29  1  0
  1 30  1  0
  2  3  1  0
  3  4  2  0
  3 25  1  0
  4  5  1  0
  4 31  1  0
  5  6  1  0
  5  7  2  0
  6 32  1  0
  6 33  1  0
  6 34  1  0
  7  8  1  0
  7 24  1  0
  8  9  1  0
  8 35  1  0
  8 36  1  0
  9 10  1  0
  9 11  1  0
 10 37  1  0
 10 38  1  0
 10 39  1  0
 11 12  1  0
 11 40  1  0
 11 41  1  0
 12 13  1  0
 12 23  1  0
 13 14  2  0
 13 15  1  0
 15 16  2  0
 15 17  1  0
 17 18  1  0
 17 23  2  0
 18 19  2  0
 18 42  1  0
 19 20  1  0
 19 21  1  0
 20 43  1  0
 20 44  1  0
 20 45  1  0
 21 22  2  0
 21 46  1  0
 22 23  1  0
 22 47  1  0
 24 25  2  0
 24 48  1  0
 25 26  1  0
 26 27  1  0
 27 49  1  0
 27 50  1  0
 27 51  1  0
M  END

