
     RDKit          3D

 36 35  0  0  0  0  0  0  0  0999 V2000
    2.3255    1.2775    1.2750 C   0  0  0  0  0  0  0  0  0  0  0  0
    2.5099    0.0284    1.7261 C   0  0  0  0  0  0  0  0  0  0  0  0
    1.4168   -1.0080    1.7138 C   0  0  0  0  0  0  0  0  0  0  0  0
    3.8473   -0.3975    2.2872 C   0  0  0  0  0  0  0  0  0  0  0  0
    4.6213   -1.4351    1.4667 C   0  0  0  0  0  0  0  0  0  0  0  0
    4.1089   -2.1065    0.6011 O   0  0  0  0  0  0  0  0  0  0  0  0
    6.1167   -1.6105    1.8269 C   0  0  1  0  0  0  0  0  0  0  0  0
    6.4845   -2.9692    1.8650 O   0  0  0  0  0  0  0  0  0  0  0  0
    6.2204   -3.6930    3.0519 C   0  0  0  0  0  0  0  0  0  0  0  0
    4.7846   -4.1892    3.1929 C   0  0  0  0  0  0  0  0  0  0  0  0
    7.0605   -0.8888    0.8054 C   0  0  1  0  0  0  0  0  0  0  0  0
    6.6578    0.5882    0.6428 C   0  0  0  0  0  0  0  0  0  0  0  0
    8.4949   -0.9619    1.3625 C   0  0  0  0  0  0  0  0  0  0  0  0
    7.0044   -1.5946   -0.5623 C   0  0  0  0  0  0  0  0  0  0  0  0
    1.3627    1.5993    0.8674 H   0  0  0  0  0  0  0  0  0  0  0  0
    3.1276    2.0214    1.2954 H   0  0  0  0  0  0  0  0  0  0  0  0
    0.4731   -0.5973    1.3259 H   0  0  0  0  0  0  0  0  0  0  0  0
    1.2310   -1.3943    2.7323 H   0  0  0  0  0  0  0  0  0  0  0  0
    1.7152   -1.8661    1.0919 H   0  0  0  0  0  0  0  0  0  0  0  0
    3.7151   -0.8573    3.2881 H   0  0  0  0  0  0  0  0  0  0  0  0
    4.4987    0.4738    2.4564 H   0  0  0  0  0  0  0  0  0  0  0  0
    6.2862   -1.1497    2.8227 H   0  0  0  0  0  0  0  0  0  0  0  0
    6.5073   -3.0871    3.9362 H   0  0  0  0  0  0  0  0  0  0  0  0
    6.9035   -4.5576    3.0195 H   0  0  0  0  0  0  0  0  0  0  0  0
    4.0692   -3.3701    3.3641 H   0  0  0  0  0  0  0  0  0  0  0  0
    4.7101   -4.8768    4.0514 H   0  0  0  0  0  0  0  0  0  0  0  0
    4.4729   -4.7250    2.2839 H   0  0  0  0  0  0  0  0  0  0  0  0
    6.6686    1.1271    1.6053 H   0  0  0  0  0  0  0  0  0  0  0  0
    5.6587    0.7028    0.1928 H   0  0  0  0  0  0  0  0  0  0  0  0
    7.3730    1.0968   -0.0231 H   0  0  0  0  0  0  0  0  0  0  0  0
    8.5799   -0.4287    2.3245 H   0  0  0  0  0  0  0  0  0  0  0  0
    9.2045   -0.4982    0.6584 H   0  0  0  0  0  0  0  0  0  0  0  0
    8.7996   -2.0061    1.5206 H   0  0  0  0  0  0  0  0  0  0  0  0
    5.9962   -1.5594   -0.9994 H   0  0  0  0  0  0  0  0  0  0  0  0
    7.2895   -2.6513   -0.4660 H   0  0  0  0  0  0  0  0  0  0  0  0
    7.7026   -1.1070   -1.2621 H   0  0  0  0  0  0  0  0  0  0  0  0
  1  2  2  0
  1 15  1  0
  1 16  1  0
  2  3  1  0
  2  4  1  0
  3 17  1  0
  3 18  1  0
  3 19  1  0
  4  5  1  0
  4 20  1  0
  4 21  1  0
  5  6  2  0
  5  7  1  0
  7  8  1  0
  7 11  1  0
  7 22  1  1
  8  9  1  0
  9 10  1  0
  9 23  1  0
  9 24  1  0
 10 25  1  0
 10 26  1  0
 10 27  1  0
 11 12  1  6
 11 13  1  0
 11 14  1  0
 12 28  1  0
 12 29  1  0
 12 30  1  0
 13 31  1  0
 13 32  1  0
 13 33  1  0
 14 34  1  0
 14 35  1  0
 14 36  1  0
M  END

