
     RDKit          3D

 24 24  0  0  0  0  0  0  0  0999 V2000
    2.1497    0.2815    0.9148 N   0  0  0  0  0  0  0  0  0  0  0  0
    2.1277   -0.1758   -0.3567 C   0  0  0  0  0  0  0  0  0  0  0  0
    1.3449    0.1943   -1.2130 O   0  0  0  0  0  0  0  0  0  0  0  0
    3.0625   -1.3467   -0.6570 C   0  0  0  0  0  0  0  0  0  0  0  0
    4.2913   -1.1913   -1.3189 C   0  0  0  0  0  0  0  0  0  0  0  0
    4.8183    0.1624   -1.6191 N   0  0  0  0  0  0  0  0  0  0  0  0
    4.3593    1.0960   -0.9824 O   0  0  0  0  0  0  0  0  0  0  0  0
    5.6867    0.2482   -2.4672 O   0  0  0  0  0  0  0  0  0  0  0  0
    5.0834   -2.2734   -1.6975 C   0  0  0  0  0  0  0  0  0  0  0  0
    4.6472   -3.5621   -1.4084 C   0  0  0  0  0  0  0  0  0  0  0  0
    3.4194   -3.7302   -0.7742 C   0  0  0  0  0  0  0  0  0  0  0  0
    2.9614   -5.1261   -0.5720 N   0  0  0  0  0  0  0  0  0  0  0  0
    3.8183   -5.9538   -0.3220 O   0  0  0  0  0  0  0  0  0  0  0  0
    1.7738   -5.3456   -0.7174 O   0  0  0  0  0  0  0  0  0  0  0  0
    2.6087   -2.6532   -0.3882 C   0  0  0  0  0  0  0  0  0  0  0  0
    1.3534   -2.8942    0.4491 C   0  0  0  0  0  0  0  0  0  0  0  0
    0.1979   -2.4438   -0.0889 N   0  0  0  0  0  0  0  0  0  0  0  0
    1.4560   -3.4301    1.5350 O   0  0  0  0  0  0  0  0  0  0  0  0
    1.5658    1.0807    1.1396 H   0  0  0  0  0  0  0  0  0  0  0  0
    2.9085    0.0502    1.5434 H   0  0  0  0  0  0  0  0  0  0  0  0
    6.0254   -2.0877   -2.2124 H   0  0  0  0  0  0  0  0  0  0  0  0
    5.2385   -4.4389   -1.6721 H   0  0  0  0  0  0  0  0  0  0  0  0
    0.1758   -1.9015   -0.9454 H   0  0  0  0  0  0  0  0  0  0  0  0
   -0.6487   -2.5315    0.4627 H   0  0  0  0  0  0  0  0  0  0  0  0
  1  2  1  0
  1 19  1  0
  1 20  1  0
  2  3  2  0
  2  4  1  0
  4  5  2  0
  4 15  1  0
  5  6  1  0
  5  9  1  0
  6  7  2  0
  6  8  1  0
  9 10  2  0
  9 21  1  0
 10 11  1  0
 10 22  1  0
 11 12  1  0
 11 15  2  0
 12 13  2  0
 12 14  1  0
 15 16  1  0
 16 17  1  0
 16 18  2  0
 17 23  1  0
 17 24  1  0
M  CHG  4   6   1   8  -1  12   1  14  -1
M  END

