
     RDKit          3D

 36 37  0  0  0  0  0  0  0  0999 V2000
    5.6943   -1.9403   -3.7818 C   0  0  0  0  0  0  0  0  0  0  0  0
    5.4685   -0.4591   -4.0021 C   0  0  0  0  0  0  0  0  0  0  0  0
    6.0470    0.1082   -4.9117 O   0  0  0  0  0  0  0  0  0  0  0  0
    4.5360    0.3327   -3.1143 C   0  0  0  0  0  0  0  0  0  0  0  0
    4.4059    1.6971   -3.4299 C   0  0  0  0  0  0  0  0  0  0  0  0
    3.5852    2.5539   -2.7029 C   0  0  0  0  0  0  0  0  0  0  0  0
    2.8644    2.0426   -1.6206 C   0  0  0  0  0  0  0  0  0  0  0  0
    2.9663    0.6947   -1.2750 C   0  0  0  0  0  0  0  0  0  0  0  0
    3.7961   -0.1709   -2.0109 C   0  0  0  0  0  0  0  0  0  0  0  0
    3.9170   -1.4865   -1.7037 O   0  0  0  0  0  0  0  0  0  0  0  0
    3.2151   -2.0342   -0.5950 C   0  0  0  0  0  0  0  0  0  0  0  0
    3.5959   -3.5045   -0.4991 C   0  0  0  0  0  0  0  0  0  0  0  0
    2.6978   -4.3805    0.8265 S   0  0  0  0  0  0  0  0  0  0  0  0
    3.6459   -3.9482    2.2649 C   0  0  0  0  0  0  0  0  0  0  0  0
    3.2014   -4.5043    3.3946 N   0  0  0  0  0  0  0  0  0  0  0  0
    3.8853   -4.2292    4.5023 C   0  0  0  0  0  0  0  0  0  0  0  0
    5.0205   -3.4036    4.5227 C   0  0  0  0  0  0  0  0  0  0  0  0
    5.7918   -3.1021    5.7790 C   0  0  0  0  0  0  0  0  0  0  0  0
    5.3765   -2.8786    3.2727 C   0  0  0  0  0  0  0  0  0  0  0  0
    4.7018   -3.1398    2.1528 N   0  0  0  0  0  0  0  0  0  0  0  0
    6.4006   -2.2932   -4.5445 H   0  0  0  0  0  0  0  0  0  0  0  0
    4.7477   -2.4967   -3.8498 H   0  0  0  0  0  0  0  0  0  0  0  0
    6.0912   -2.1323   -2.7740 H   0  0  0  0  0  0  0  0  0  0  0  0
    4.9863    2.0560   -4.2819 H   0  0  0  0  0  0  0  0  0  0  0  0
    3.5066    3.6086   -2.9753 H   0  0  0  0  0  0  0  0  0  0  0  0
    2.2121    2.6947   -1.0335 H   0  0  0  0  0  0  0  0  0  0  0  0
    2.3944    0.3193   -0.4275 H   0  0  0  0  0  0  0  0  0  0  0  0
    2.1251   -1.9271   -0.7380 H   0  0  0  0  0  0  0  0  0  0  0  0
    3.5003   -1.5144    0.3346 H   0  0  0  0  0  0  0  0  0  0  0  0
    4.6750   -3.6117   -0.3260 H   0  0  0  0  0  0  0  0  0  0  0  0
    3.3294   -4.0327   -1.4270 H   0  0  0  0  0  0  0  0  0  0  0  0
    3.5182   -4.6858    5.4307 H   0  0  0  0  0  0  0  0  0  0  0  0
    5.3311   -3.5847    6.6537 H   0  0  0  0  0  0  0  0  0  0  0  0
    5.8338   -2.0184    5.9769 H   0  0  0  0  0  0  0  0  0  0  0  0
    6.8325   -3.4598    5.7090 H   0  0  0  0  0  0  0  0  0  0  0  0
    6.2447   -2.2140    3.1751 H   0  0  0  0  0  0  0  0  0  0  0  0
  1  2  1  0
  1 21  1  0
  1 22  1  0
  1 23  1  0
  2  3  2  0
  2  4  1  0
  4  5  2  0
  4  9  1  0
  5  6  1  0
  5 24  1  0
  6  7  2  0
  6 25  1  0
  7  8  1  0
  7 26  1  0
  8  9  2  0
  8 27  1  0
  9 10  1  0
 10 11  1  0
 11 12  1  0
 11 28  1  0
 11 29  1  0
 12 13  1  0
 12 30  1  0
 12 31  1  0
 13 14  1  0
 14 15  2  0
 14 20  1  0
 15 16  1  0
 16 17  2  0
 16 32  1  0
 17 18  1  0
 17 19  1  0
 18 33  1  0
 18 34  1  0
 18 35  1  0
 19 20  2  0
 19 36  1  0
M  END

