
     RDKit          3D

 89 97  0  0  0  0  0  0  0  0999 V2000
    7.2083   -6.6123  -15.6117 F   0  0  0  0  0  0  0  0  0  0  0  0
    6.1001   -5.8337  -15.6287 C   0  0  0  0  0  0  0  0  0  0  0  0
    4.8901   -6.4141  -15.2774 C   0  0  0  0  0  0  0  0  0  0  0  0
    3.7548   -5.5902  -15.2986 C   0  0  0  0  0  0  0  0  0  0  0  0
    2.4373   -5.8746  -14.9966 N   0  0  0  0  0  0  0  0  0  0  0  0
    1.7977   -4.7413  -15.1737 C   0  0  0  0  0  0  0  0  0  0  0  0
    0.3179   -4.5132  -14.9648 C   0  0  2  0  0  0  0  0  0  0  0  0
    0.1008   -4.7646  -13.9119 H   0  0  0  0  0  0  0  0  0  0  0  0
   -0.5553   -5.3804  -15.9061 C   0  0  0  0  0  0  0  0  0  0  0  0
   -0.8786   -4.4207  -17.0586 C   0  0  0  0  0  0  0  0  0  0  0  0
   -1.0726   -3.0888  -16.3287 C   0  0  0  0  0  0  0  0  0  0  0  0
   -0.0372   -3.1139  -15.2834 N   0  0  0  0  0  0  0  0  0  0  0  0
    2.6108   -3.7166  -15.5765 N   0  0  0  0  0  0  0  0  0  0  0  0
    2.2514   -2.7851  -15.7548 H   0  0  0  0  0  0  0  0  0  0  0  0
    3.8919   -4.2233  -15.6721 C   0  0  0  0  0  0  0  0  0  0  0  0
    5.1196   -3.6617  -16.0246 C   0  0  0  0  0  0  0  0  0  0  0  0
    6.2543   -4.4805  -16.0033 C   0  0  0  0  0  0  0  0  0  0  0  0
    7.6216   -3.9702  -16.4345 C   0  0  1  0  0  0  0  0  0  0  0  0
    8.3841   -4.6385  -15.9946 H   0  0  0  0  0  0  0  0  0  0  0  0
    7.7741   -3.9762  -17.9728 C   0  0  0  0  0  0  0  0  0  0  0  0
    8.7952   -2.8777  -18.2443 C   0  0  0  0  0  0  0  0  0  0  0  0
    8.4550   -1.7883  -17.2020 C   0  0  2  0  0  0  0  0  0  0  0  0
    7.6876   -1.1138  -17.6236 H   0  0  0  0  0  0  0  0  0  0  0  0
    9.6723   -0.9444  -16.8526 C   0  0  0  0  0  0  0  0  0  0  0  0
   10.6374   -1.3828  -15.9391 C   0  0  0  0  0  0  0  0  0  0  0  0
   11.7542   -0.5761  -15.7185 C   0  0  0  0  0  0  0  0  0  0  0  0
   12.8607   -0.6930  -14.9005 N   0  0  0  0  0  0  0  0  0  0  0  0
   13.1317   -1.4251  -14.2530 H   0  0  0  0  0  0  0  0  0  0  0  0
   13.6331    0.4191  -15.1005 C   0  0  0  0  0  0  0  0  0  0  0  0
   14.9265    0.6047  -14.3403 C   0  0  2  0  0  0  0  0  0  0  0  0
   14.8283    1.5419  -13.7652 H   0  0  0  0  0  0  0  0  0  0  0  0
   16.1587    0.6848  -15.2759 C   0  0  0  0  0  0  0  0  0  0  0  0
   16.7009   -0.7502  -15.2554 C   0  0  0  0  0  0  0  0  0  0  0  0
   16.4782   -1.1619  -13.7975 C   0  0  0  0  0  0  0  0  0  0  0  0
   15.1787   -0.5578  -13.4622 N   0  0  0  0  0  0  0  0  0  0  0  0
   13.1263    1.2539  -15.9786 N   0  0  0  0  0  0  0  0  0  0  0  0
   11.9460    0.6652  -16.3888 C   0  0  0  0  0  0  0  0  0  0  0  0
   10.9812    1.1067  -17.3067 C   0  0  0  0  0  0  0  0  0  0  0  0
    9.8780    0.2901  -17.5075 C   0  0  0  0  0  0  0  0  0  0  0  0
    8.9339    0.7007  -18.3878 F   0  0  0  0  0  0  0  0  0  0  0  0
    7.8998   -2.5679  -16.0837 N   0  0  0  0  0  0  0  0  0  0  0  0
    7.6590   -2.0324  -14.8259 C   0  0  0  0  0  0  0  0  0  0  0  0
    7.4965   -0.6439  -14.6395 C   0  0  0  0  0  0  0  0  0  0  0  0
    7.2477   -0.1322  -13.3707 C   0  0  0  0  0  0  0  0  0  0  0  0
    7.0643    1.1994  -13.2664 F   0  0  0  0  0  0  0  0  0  0  0  0
    7.1760   -0.9149  -12.2043 C   0  0  0  0  0  0  0  0  0  0  0  0
    6.9790   -0.4272  -10.8995 N   0  0  0  0  0  0  0  0  0  0  0  0
    5.7241   -0.7626  -10.2289 C   0  0  0  0  0  0  0  0  0  0  0  0
    5.8973   -0.7464   -8.7082 C   0  0  0  0  0  0  0  0  0  0  0  0
    6.4874    0.5859   -8.2328 C   0  0  0  0  0  0  0  0  0  0  0  0
    7.7752    0.9075   -8.9994 C   0  0  0  0  0  0  0  0  0  0  0  0
    7.5406    0.8624  -10.5129 C   0  0  0  0  0  0  0  0  0  0  0  0
    7.3434   -2.2954  -12.4362 C   0  0  0  0  0  0  0  0  0  0  0  0
    7.2787   -3.1191  -11.3747 F   0  0  0  0  0  0  0  0  0  0  0  0
    7.5670   -2.8590  -13.6835 C   0  0  0  0  0  0  0  0  0  0  0  0
    4.8388   -7.4662  -14.9958 H   0  0  0  0  0  0  0  0  0  0  0  0
   -1.4826   -5.6693  -15.3850 H   0  0  0  0  0  0  0  0  0  0  0  0
   -0.0380   -6.3006  -16.2096 H   0  0  0  0  0  0  0  0  0  0  0  0
   -1.7619   -4.7191  -17.6427 H   0  0  0  0  0  0  0  0  0  0  0  0
   -0.0246   -4.3522  -17.7531 H   0  0  0  0  0  0  0  0  0  0  0  0
   -2.0973   -3.0378  -15.9075 H   0  0  0  0  0  0  0  0  0  0  0  0
   -0.9490   -2.2156  -16.9911 H   0  0  0  0  0  0  0  0  0  0  0  0
   -0.3031   -2.5850  -14.4579 H   0  0  0  0  0  0  0  0  0  0  0  0
    5.2130   -2.6085  -16.2963 H   0  0  0  0  0  0  0  0  0  0  0  0
    6.8048   -3.7242  -18.4312 H   0  0  0  0  0  0  0  0  0  0  0  0
    8.0736   -4.9658  -18.3477 H   0  0  0  0  0  0  0  0  0  0  0  0
    8.7629   -2.4830  -19.2703 H   0  0  0  0  0  0  0  0  0  0  0  0
    9.8167   -3.2458  -18.0595 H   0  0  0  0  0  0  0  0  0  0  0  0
   10.4959   -2.3261  -15.4082 H   0  0  0  0  0  0  0  0  0  0  0  0
   16.9029    1.3749  -14.8460 H   0  0  0  0  0  0  0  0  0  0  0  0
   15.8896    1.0571  -16.2737 H   0  0  0  0  0  0  0  0  0  0  0  0
   17.7545   -0.8251  -15.5629 H   0  0  0  0  0  0  0  0  0  0  0  0
   16.1090   -1.3947  -15.9267 H   0  0  0  0  0  0  0  0  0  0  0  0
   17.3017   -0.7692  -13.1671 H   0  0  0  0  0  0  0  0  0  0  0  0
   16.4563   -2.2561  -13.6602 H   0  0  0  0  0  0  0  0  0  0  0  0
   15.1008   -0.3222  -12.4772 H   0  0  0  0  0  0  0  0  0  0  0  0
   11.0797    2.0507  -17.8435 H   0  0  0  0  0  0  0  0  0  0  0  0
    7.5368    0.0597  -15.4692 H   0  0  0  0  0  0  0  0  0  0  0  0
    5.4016   -1.7592  -10.5598 H   0  0  0  0  0  0  0  0  0  0  0  0
    4.9202   -0.0465  -10.5180 H   0  0  0  0  0  0  0  0  0  0  0  0
    6.5731   -1.5728   -8.4279 H   0  0  0  0  0  0  0  0  0  0  0  0
    4.9249   -0.9395   -8.2243 H   0  0  0  0  0  0  0  0  0  0  0  0
    6.6759    0.5626   -7.1464 H   0  0  0  0  0  0  0  0  0  0  0  0
    5.7511    1.3933   -8.4058 H   0  0  0  0  0  0  0  0  0  0  0  0
    8.5552    0.1717   -8.7368 H   0  0  0  0  0  0  0  0  0  0  0  0
    8.1572    1.9040   -8.7189 H   0  0  0  0  0  0  0  0  0  0  0  0
    8.4886    1.0083  -11.0512 H   0  0  0  0  0  0  0  0  0  0  0  0
    6.8766    1.7047  -10.8033 H   0  0  0  0  0  0  0  0  0  0  0  0
    7.6853   -3.9396  -13.7399 H   0  0  0  0  0  0  0  0  0  0  0  0
  1  2  1  0
  2  3  2  0
  2 17  1  0
  3  4  1  0
  3 56  1  0
  4  5  1  0
  4 15  2  0
  5  6  2  0
  6  7  1  0
  6 13  1  0
  7  8  1  1
  7  9  1  0
  7 12  1  0
  9 10  1  0
  9 57  1  0
  9 58  1  0
 10 11  1  0
 10 59  1  0
 10 60  1  0
 11 12  1  0
 11 61  1  0
 11 62  1  0
 12 63  1  0
 13 14  1  0
 13 15  1  0
 15 16  1  0
 16 17  2  0
 16 64  1  0
 17 18  1  0
 18 19  1  1
 18 20  1  0
 18 41  1  0
 20 21  1  0
 20 65  1  0
 20 66  1  0
 21 22  1  0
 21 67  1  0
 21 68  1  0
 22 23  1  6
 22 24  1  0
 22 41  1  0
 24 25  2  0
 24 39  1  0
 25 26  1  0
 25 69  1  0
 26 27  1  0
 26 37  2  0
 27 28  1  0
 27 29  1  0
 29 30  1  0
 29 36  2  0
 30 31  1  1
 30 32  1  0
 30 35  1  0
 32 33  1  0
 32 70  1  0
 32 71  1  0
 33 34  1  0
 33 72  1  0
 33 73  1  0
 34 35  1  0
 34 74  1  0
 34 75  1  0
 35 76  1  0
 36 37  1  0
 37 38  1  0
 38 39  2  0
 38 77  1  0
 39 40  1  0
 41 42  1  0
 42 43  2  0
 42 55  1  0
 43 44  1  0
 43 78  1  0
 44 45  1  0
 44 46  2  0
 46 47  1  0
 46 53  1  0
 47 48  1  0
 47 52  1  0
 48 49  1  0
 48 79  1  0
 48 80  1  0
 49 50  1  0
 49 81  1  0
 49 82  1  0
 50 51  1  0
 50 83  1  0
 50 84  1  0
 51 52  1  0
 51 85  1  0
 51 86  1  0
 52 87  1  0
 52 88  1  0
 53 54  1  0
 53 55  2  0
 55 89  1  0
M  END

