
     RDKit          3D

 45 47  0  0  0  0  0  0  0  0999 V2000
    0.9947   -0.2782    0.4239 C   0  0  0  0  0  0  0  0  0  0  0  0
    2.4757   -0.1338    0.1714 C   0  0  0  0  0  0  0  0  0  0  0  0
    3.3045   -1.2924    0.2150 C   0  0  0  0  0  0  0  0  0  0  0  0
    4.6748   -1.2568   -0.0037 C   0  0  0  0  0  0  0  0  0  0  0  0
    5.5296   -2.4950    0.0484 C   0  0  0  0  0  0  0  0  0  0  0  0
    5.2562    0.0099   -0.2830 C   0  0  0  0  0  0  0  0  0  0  0  0
    6.5902    0.4422   -0.5535 C   0  0  0  0  0  0  0  0  0  0  0  0
    6.5352    1.8125   -0.7516 C   0  0  0  0  0  0  0  0  0  0  0  0
    7.5677    2.7971   -1.0584 C   0  0  0  0  0  0  0  0  0  0  0  0
    7.3364    3.9894   -1.1942 O   0  0  0  0  0  0  0  0  0  0  0  0
    8.7886    2.2538   -1.1797 O   0  0  0  0  0  0  0  0  0  0  0  0
    9.9127    3.1299   -1.3521 C   0  0  0  0  0  0  0  0  0  0  0  0
   10.1880    3.5096   -2.8173 C   0  0  0  0  0  0  0  0  0  0  0  0
   11.2451    3.2061   -3.3486 O   0  0  0  0  0  0  0  0  0  0  0  0
    9.1935    4.2040   -3.4281 N   0  0  0  0  0  0  0  0  0  0  0  0
    9.2947    4.6534   -4.8105 C   0  0  0  0  0  0  0  0  0  0  0  0
    9.7694    6.0884   -4.9584 C   0  0  0  0  0  0  0  0  0  0  0  0
   11.1070    6.4219   -4.6833 C   0  0  0  0  0  0  0  0  0  0  0  0
   11.5463    7.7419   -4.8021 C   0  0  0  0  0  0  0  0  0  0  0  0
   10.6582    8.7482   -5.2000 C   0  0  0  0  0  0  0  0  0  0  0  0
    9.3280    8.4258   -5.4786 C   0  0  0  0  0  0  0  0  0  0  0  0
    8.8886    7.1029   -5.3571 C   0  0  0  0  0  0  0  0  0  0  0  0
    5.2273    2.2410   -0.6141 N   0  0  0  0  0  0  0  0  0  0  0  0
    4.9527    3.2112   -0.7084 H   0  0  0  0  0  0  0  0  0  0  0  0
    4.4252    1.1699   -0.3276 C   0  0  0  0  0  0  0  0  0  0  0  0
    3.0386    1.1079   -0.1018 C   0  0  0  0  0  0  0  0  0  0  0  0
    0.5309   -0.9647   -0.3046 H   0  0  0  0  0  0  0  0  0  0  0  0
    0.4731    0.6877    0.3563 H   0  0  0  0  0  0  0  0  0  0  0  0
    0.7999   -0.6982    1.4253 H   0  0  0  0  0  0  0  0  0  0  0  0
    2.8324   -2.2555    0.4321 H   0  0  0  0  0  0  0  0  0  0  0  0
    4.9309   -3.3904    0.2696 H   0  0  0  0  0  0  0  0  0  0  0  0
    6.3110   -2.4091    0.8228 H   0  0  0  0  0  0  0  0  0  0  0  0
    6.0501   -2.6623   -0.9100 H   0  0  0  0  0  0  0  0  0  0  0  0
    7.4933   -0.1606   -0.6042 H   0  0  0  0  0  0  0  0  0  0  0  0
   10.7848    2.5701   -0.9979 H   0  0  0  0  0  0  0  0  0  0  0  0
    9.7664    4.0389   -0.7470 H   0  0  0  0  0  0  0  0  0  0  0  0
    8.4071    4.5054   -2.8548 H   0  0  0  0  0  0  0  0  0  0  0  0
    8.3097    4.5350   -5.2892 H   0  0  0  0  0  0  0  0  0  0  0  0
    9.9993    3.9732   -5.3105 H   0  0  0  0  0  0  0  0  0  0  0  0
   11.7988    5.6327   -4.3773 H   0  0  0  0  0  0  0  0  0  0  0  0
   12.5900    7.9876   -4.5884 H   0  0  0  0  0  0  0  0  0  0  0  0
   11.0047    9.7806   -5.2951 H   0  0  0  0  0  0  0  0  0  0  0  0
    8.6284    9.2051   -5.7925 H   0  0  0  0  0  0  0  0  0  0  0  0
    7.8458    6.8559   -5.5788 H   0  0  0  0  0  0  0  0  0  0  0  0
    2.4208    2.0086   -0.1401 H   0  0  0  0  0  0  0  0  0  0  0  0
  1  2  1  0
  1 27  1  0
  1 28  1  0
  1 29  1  0
  2  3  2  0
  2 26  1  0
  3  4  1  0
  3 30  1  0
  4  5  1  0
  4  6  2  0
  5 31  1  0
  5 32  1  0
  5 33  1  0
  6  7  1  0
  6 25  1  0
  7  8  2  0
  7 34  1  0
  8  9  1  0
  8 23  1  0
  9 10  2  0
  9 11  1  0
 11 12  1  0
 12 13  1  0
 12 35  1  0
 12 36  1  0
 13 14  2  0
 13 15  1  0
 15 16  1  0
 15 37  1  0
 16 17  1  0
 16 38  1  0
 16 39  1  0
 17 18  2  0
 17 22  1  0
 18 19  1  0
 18 40  1  0
 19 20  2  0
 19 41  1  0
 20 21  1  0
 20 42  1  0
 21 22  2  0
 21 43  1  0
 22 44  1  0
 23 24  1  0
 23 25  1  0
 25 26  2  0
 26 45  1  0
M  END

