
     RDKit          3D

 74 78  0  0  0  0  0  0  0  0999 V2000
    9.3558   -5.1181   -5.9351 C   0  0  0  0  0  0  0  0  0  0  0  0
    8.4743   -5.5203   -4.7502 C   0  0  0  0  0  0  0  0  0  0  0  0
    7.6826   -4.4312   -4.2075 N   0  0  0  0  0  0  0  0  0  0  0  0
    6.3808   -4.1273   -4.5681 C   0  0  0  0  0  0  0  0  0  0  0  0
    5.9370   -2.9989   -3.9144 C   0  0  0  0  0  0  0  0  0  0  0  0
    4.5723   -2.3538   -3.9819 C   0  0  2  0  0  0  0  0  0  0  0  0
    4.1468   -2.3687   -2.9640 H   0  0  0  0  0  0  0  0  0  0  0  0
    3.5721   -3.1436   -4.8526 C   0  0  0  0  0  0  0  0  0  0  0  0
    3.1525   -4.4732   -4.2275 C   0  0  0  0  0  0  0  0  0  0  0  0
    2.9281   -4.5895   -3.0347 O   0  0  0  0  0  0  0  0  0  0  0  0
    3.0221   -5.5179   -5.1054 N   0  0  0  0  0  0  0  0  0  0  0  0
    2.5035   -6.8128   -4.6928 C   0  0  0  0  0  0  0  0  0  0  0  0
    0.9714   -6.8890   -4.7175 C   0  0  0  0  0  0  0  0  0  0  0  0
    0.4214   -8.2920   -4.3880 C   0  0  1  0  0  0  0  0  0  0  0  0
    0.8117   -8.7572   -2.9829 C   0  0  0  0  0  0  0  0  0  0  0  0
    0.3350   -8.0948   -1.8397 C   0  0  0  0  0  0  0  0  0  0  0  0
    0.7011   -8.5186   -0.5609 C   0  0  0  0  0  0  0  0  0  0  0  0
    1.5499   -9.6189   -0.3981 C   0  0  0  0  0  0  0  0  0  0  0  0
    2.0288  -10.2892   -1.5255 C   0  0  0  0  0  0  0  0  0  0  0  0
    1.6616   -9.8590   -2.8052 C   0  0  0  0  0  0  0  0  0  0  0  0
   -1.0858   -8.4249   -4.6164 C   0  0  0  0  0  0  0  0  0  0  0  0
   -1.6242   -9.6924   -4.8986 C   0  0  0  0  0  0  0  0  0  0  0  0
   -2.9950   -9.8710   -5.0909 C   0  0  0  0  0  0  0  0  0  0  0  0
   -3.8643   -8.7783   -5.0038 C   0  0  0  0  0  0  0  0  0  0  0  0
   -3.3453   -7.5126   -4.7254 C   0  0  0  0  0  0  0  0  0  0  0  0
   -1.9695   -7.3378   -4.5355 C   0  0  0  0  0  0  0  0  0  0  0  0
    4.6181   -0.8946   -4.4355 C   0  0  0  0  0  0  0  0  0  0  0  0
    3.8135    0.0678   -3.8106 C   0  0  0  0  0  0  0  0  0  0  0  0
    3.8031    1.3965   -4.2472 C   0  0  0  0  0  0  0  0  0  0  0  0
    4.5967    1.8119   -5.3253 C   0  0  0  0  0  0  0  0  0  0  0  0
    4.6052    3.2467   -5.7951 C   0  0  0  0  0  0  0  0  0  0  0  0
    5.4023    0.8449   -5.9504 C   0  0  0  0  0  0  0  0  0  0  0  0
    5.4153   -0.4800   -5.5139 C   0  0  0  0  0  0  0  0  0  0  0  0
    7.0423   -2.5626   -3.0908 C   0  0  0  0  0  0  0  0  0  0  0  0
    7.2246   -1.4973   -2.1880 C   0  0  0  0  0  0  0  0  0  0  0  0
    8.4451   -1.3655   -1.5324 C   0  0  0  0  0  0  0  0  0  0  0  0
    9.4964   -2.2789   -1.7619 C   0  0  0  0  0  0  0  0  0  0  0  0
    9.3480   -3.3420   -2.6495 C   0  0  0  0  0  0  0  0  0  0  0  0
    8.1145   -3.4773   -3.3054 C   0  0  0  0  0  0  0  0  0  0  0  0
    9.9313   -5.9853   -6.2973 H   0  0  0  0  0  0  0  0  0  0  0  0
   10.0688   -4.3291   -5.6505 H   0  0  0  0  0  0  0  0  0  0  0  0
    8.7458   -4.7381   -6.7696 H   0  0  0  0  0  0  0  0  0  0  0  0
    9.0932   -5.9350   -3.9376 H   0  0  0  0  0  0  0  0  0  0  0  0
    7.7790   -6.3215   -5.0476 H   0  0  0  0  0  0  0  0  0  0  0  0
    5.8477   -4.7866   -5.2503 H   0  0  0  0  0  0  0  0  0  0  0  0
    3.9636   -3.2772   -5.8748 H   0  0  0  0  0  0  0  0  0  0  0  0
    2.6516   -2.5431   -4.9474 H   0  0  0  0  0  0  0  0  0  0  0  0
    3.1048   -5.3242   -6.0962 H   0  0  0  0  0  0  0  0  0  0  0  0
    2.8700   -7.0011   -3.6738 H   0  0  0  0  0  0  0  0  0  0  0  0
    2.9372   -7.5845   -5.3513 H   0  0  0  0  0  0  0  0  0  0  0  0
    0.6082   -6.5918   -5.7168 H   0  0  0  0  0  0  0  0  0  0  0  0
    0.5870   -6.1437   -4.0031 H   0  0  0  0  0  0  0  0  0  0  0  0
    0.9006   -8.9961   -5.0903 H   0  0  0  0  0  0  0  0  0  0  0  0
   -0.3367   -7.2395   -1.9482 H   0  0  0  0  0  0  0  0  0  0  0  0
    0.3212   -7.9863    0.3149 H   0  0  0  0  0  0  0  0  0  0  0  0
    1.8358   -9.9502    0.6034 H   0  0  0  0  0  0  0  0  0  0  0  0
    2.6924  -11.1505   -1.4120 H   0  0  0  0  0  0  0  0  0  0  0  0
    2.0439  -10.3895   -3.6826 H   0  0  0  0  0  0  0  0  0  0  0  0
   -0.9544  -10.5549   -4.9644 H   0  0  0  0  0  0  0  0  0  0  0  0
   -3.3870  -10.8675   -5.3115 H   0  0  0  0  0  0  0  0  0  0  0  0
   -4.9383   -8.9140   -5.1544 H   0  0  0  0  0  0  0  0  0  0  0  0
   -4.0130   -6.6496   -4.6569 H   0  0  0  0  0  0  0  0  0  0  0  0
   -1.5901   -6.3364   -4.3236 H   0  0  0  0  0  0  0  0  0  0  0  0
    3.1840   -0.2252   -2.9646 H   0  0  0  0  0  0  0  0  0  0  0  0
    3.1674    2.1249   -3.7350 H   0  0  0  0  0  0  0  0  0  0  0  0
    3.8494    3.8492   -5.2697 H   0  0  0  0  0  0  0  0  0  0  0  0
    4.4019    3.3181   -6.8766 H   0  0  0  0  0  0  0  0  0  0  0  0
    5.5874    3.7194   -5.6223 H   0  0  0  0  0  0  0  0  0  0  0  0
    6.0372    1.1381   -6.7924 H   0  0  0  0  0  0  0  0  0  0  0  0
    6.0649   -1.2062   -6.0097 H   0  0  0  0  0  0  0  0  0  0  0  0
    6.4195   -0.7814   -2.0087 H   0  0  0  0  0  0  0  0  0  0  0  0
    8.5961   -0.5416   -0.8304 H   0  0  0  0  0  0  0  0  0  0  0  0
   10.4452   -2.1498   -1.2348 H   0  0  0  0  0  0  0  0  0  0  0  0
   10.1680   -4.0427   -2.8219 H   0  0  0  0  0  0  0  0  0  0  0  0
  1  2  1  0
  1 40  1  0
  1 41  1  0
  1 42  1  0
  2  3  1  0
  2 43  1  0
  2 44  1  0
  3  4  1  0
  3 39  1  0
  4  5  2  0
  4 45  1  0
  5  6  1  0
  5 34  1  0
  6  7  1  1
  6  8  1  0
  6 27  1  0
  8  9  1  0
  8 46  1  0
  8 47  1  0
  9 10  2  0
  9 11  1  0
 11 12  1  0
 11 48  1  0
 12 13  1  0
 12 49  1  0
 12 50  1  0
 13 14  1  0
 13 51  1  0
 13 52  1  0
 14 15  1  0
 14 21  1  0
 14 53  1  6
 15 16  2  0
 15 20  1  0
 16 17  1  0
 16 54  1  0
 17 18  2  0
 17 55  1  0
 18 19  1  0
 18 56  1  0
 19 20  2  0
 19 57  1  0
 20 58  1  0
 21 22  2  0
 21 26  1  0
 22 23  1  0
 22 59  1  0
 23 24  2  0
 23 60  1  0
 24 25  1  0
 24 61  1  0
 25 26  2  0
 25 62  1  0
 26 63  1  0
 27 28  2  0
 27 33  1  0
 28 29  1  0
 28 64  1  0
 29 30  2  0
 29 65  1  0
 30 31  1  0
 30 32  1  0
 31 66  1  0
 31 67  1  0
 31 68  1  0
 32 33  2  0
 32 69  1  0
 33 70  1  0
 34 35  1  0
 34 39  2  0
 35 36  2  0
 35 71  1  0
 36 37  1  0
 36 72  1  0
 37 38  2  0
 37 73  1  0
 38 39  1  0
 38 74  1  0
M  END

