
     RDKit          3D

 35 36  0  0  0  0  0  0  0  0999 V2000
    0.8483    0.1637    0.2284 C   0  0  0  0  0  0  0  0  0  0  0  0
    2.3651    0.2863    0.0973 C   0  0  1  0  0  0  0  0  0  0  0  0
    3.0600    0.9687    1.2942 C   0  0  0  0  0  0  0  0  0  0  0  0
    4.4972    0.4320    1.2397 C   0  0  2  0  0  0  0  0  0  0  0  0
    5.4036    1.2280    0.2829 C   0  0  0  0  0  0  0  0  0  0  0  0
    4.2612   -0.9665    0.8667 N   0  0  0  0  0  0  0  0  0  0  0  0
    5.3903   -1.8263    0.6170 C   0  0  0  0  0  0  0  0  0  0  0  0
    5.0883   -3.2996    0.9539 C   0  0  0  0  0  0  0  0  0  0  0  0
    6.3015   -4.1736    0.8194 C   0  0  0  0  0  0  0  0  0  0  0  0
    7.4550   -3.9254    1.3647 N   0  0  0  0  0  0  0  0  0  0  0  0
    8.3845   -4.8976    1.0834 C   0  0  0  0  0  0  0  0  0  0  0  0
    9.7736   -4.7709    1.6148 C   0  0  0  0  0  0  0  0  0  0  0  0
   10.7829   -3.6078    0.6375 Cl  0  0  0  0  0  0  0  0  0  0  0  0
    7.9283   -5.9272    0.2951 C   0  0  0  0  0  0  0  0  0  0  0  0
    6.2715   -5.6662   -0.1140 S   0  0  0  0  0  0  0  0  0  0  0  0
    3.1090   -1.0690   -0.0244 C   0  0  0  0  0  0  0  0  0  0  0  0
    0.3737    1.1543    0.3208 H   0  0  0  0  0  0  0  0  0  0  0  0
    0.5749   -0.4239    1.1213 H   0  0  0  0  0  0  0  0  0  0  0  0
    0.4052   -0.3348   -0.6495 H   0  0  0  0  0  0  0  0  0  0  0  0
    2.5820    0.8787   -0.8079 H   0  0  0  0  0  0  0  0  0  0  0  0
    2.5852    0.6458    2.2358 H   0  0  0  0  0  0  0  0  0  0  0  0
    3.0061    2.0677    1.2488 H   0  0  0  0  0  0  0  0  0  0  0  0
    4.9618    0.4565    2.2426 H   0  0  0  0  0  0  0  0  0  0  0  0
    4.9843    1.2814   -0.7352 H   0  0  0  0  0  0  0  0  0  0  0  0
    6.4043    0.7741    0.2085 H   0  0  0  0  0  0  0  0  0  0  0  0
    5.5368    2.2596    0.6477 H   0  0  0  0  0  0  0  0  0  0  0  0
    6.2315   -1.5074    1.2512 H   0  0  0  0  0  0  0  0  0  0  0  0
    5.7519   -1.7732   -0.4361 H   0  0  0  0  0  0  0  0  0  0  0  0
    4.2798   -3.6869    0.3147 H   0  0  0  0  0  0  0  0  0  0  0  0
    4.7215   -3.3446    1.9940 H   0  0  0  0  0  0  0  0  0  0  0  0
   10.3022   -5.7315    1.5974 H   0  0  0  0  0  0  0  0  0  0  0  0
    9.7592   -4.3729    2.6370 H   0  0  0  0  0  0  0  0  0  0  0  0
    8.4773   -6.7974   -0.0604 H   0  0  0  0  0  0  0  0  0  0  0  0
    2.4532   -1.9107    0.2714 H   0  0  0  0  0  0  0  0  0  0  0  0
    3.4060   -1.2625   -1.0788 H   0  0  0  0  0  0  0  0  0  0  0  0
  1  2  1  0
  1 17  1  0
  1 18  1  0
  1 19  1  0
  2  3  1  0
  2 16  1  0
  2 20  1  6
  3  4  1  0
  3 21  1  0
  3 22  1  0
  4  5  1  0
  4  6  1  0
  4 23  1  1
  5 24  1  0
  5 25  1  0
  5 26  1  0
  6  7  1  0
  6 16  1  0
  7  8  1  0
  7 27  1  0
  7 28  1  0
  8  9  1  0
  8 29  1  0
  8 30  1  0
  9 10  2  0
  9 15  1  0
 10 11  1  0
 11 12  1  0
 11 14  2  0
 12 13  1  0
 12 31  1  0
 12 32  1  0
 14 15  1  0
 14 33  1  0
 16 34  1  0
 16 35  1  0
M  END

