
     RDKit          3D

 45 47  0  0  0  0  0  0  0  0999 V2000
    0.7844   -0.4316   -0.2224 C   0  0  0  0  0  0  0  0  0  0  0  0
    2.2723   -0.5331   -0.5387 C   0  0  1  0  0  0  0  0  0  0  0  0
    3.0125    0.8242   -0.5143 C   0  0  0  0  0  0  0  0  0  0  0  0
    4.4122    0.5258    0.0920 C   0  0  2  0  0  0  0  0  0  0  0  0
    5.5295    1.0691   -0.6543 N   0  0  0  0  0  0  0  0  0  0  0  0
    6.4507    1.9253   -0.1192 C   0  0  0  0  0  0  0  0  0  0  0  0
    6.4206    2.3011    1.0428 O   0  0  0  0  0  0  0  0  0  0  0  0
    7.5281    2.4072   -1.0869 C   0  0  0  0  0  0  0  0  0  0  0  0
    8.9055    2.4339   -0.4099 C   0  0  0  0  0  0  0  0  0  0  0  0
    9.9395    3.0652   -1.2105 N   0  0  0  0  0  0  0  0  0  0  0  0
   10.5062    2.4296   -2.2796 C   0  0  0  0  0  0  0  0  0  0  0  0
   10.1698    1.3015   -2.6170 O   0  0  0  0  0  0  0  0  0  0  0  0
   11.5638    3.1912   -3.0170 C   0  0  0  0  0  0  0  0  0  0  0  0
   12.2083    4.4160   -2.6315 C   0  0  0  0  0  0  0  0  0  0  0  0
   13.1405    4.8350   -3.5438 C   0  0  0  0  0  0  0  0  0  0  0  0
   13.2505    3.7432   -4.8844 S   0  0  0  0  0  0  0  0  0  0  0  0
   12.0424    2.7168   -4.2187 C   0  0  0  0  0  0  0  0  0  0  0  0
    4.4311   -1.0085    0.2013 C   0  0  0  0  0  0  0  0  0  0  0  0
    3.0342   -1.3497    0.4191 N   0  0  0  0  0  0  0  0  0  0  0  0
    2.7555   -2.7533    0.4233 C   0  0  1  0  0  0  0  0  0  0  0  0
    3.1297   -3.5529    1.6444 C   0  0  0  0  0  0  0  0  0  0  0  0
    1.6789   -3.3010    1.3272 C   0  0  0  0  0  0  0  0  0  0  0  0
    0.2890    0.2418   -0.9403 H   0  0  0  0  0  0  0  0  0  0  0  0
    0.6345   -0.0281    0.7920 H   0  0  0  0  0  0  0  0  0  0  0  0
    0.2848   -1.4096   -0.2828 H   0  0  0  0  0  0  0  0  0  0  0  0
    2.3781   -0.9721   -1.5597 H   0  0  0  0  0  0  0  0  0  0  0  0
    2.4713    1.5568    0.1041 H   0  0  0  0  0  0  0  0  0  0  0  0
    3.0974    1.2538   -1.5243 H   0  0  0  0  0  0  0  0  0  0  0  0
    4.4923    0.9652    1.0941 H   0  0  0  0  0  0  0  0  0  0  0  0
    5.6459    0.7846   -1.6204 H   0  0  0  0  0  0  0  0  0  0  0  0
    7.2543    3.4324   -1.3938 H   0  0  0  0  0  0  0  0  0  0  0  0
    7.5754    1.7899   -1.9965 H   0  0  0  0  0  0  0  0  0  0  0  0
    9.2202    1.4011   -0.1943 H   0  0  0  0  0  0  0  0  0  0  0  0
    8.8216    2.9648    0.5485 H   0  0  0  0  0  0  0  0  0  0  0  0
   10.1564    4.0381   -1.0391 H   0  0  0  0  0  0  0  0  0  0  0  0
   12.0132    4.9598   -1.7054 H   0  0  0  0  0  0  0  0  0  0  0  0
   13.7761    5.7183   -3.4991 H   0  0  0  0  0  0  0  0  0  0  0  0
   11.7217    1.8043   -4.7182 H   0  0  0  0  0  0  0  0  0  0  0  0
    5.0701   -1.3743    1.0193 H   0  0  0  0  0  0  0  0  0  0  0  0
    4.8263   -1.4448   -0.7484 H   0  0  0  0  0  0  0  0  0  0  0  0
    2.8816   -3.2677   -0.5482 H   0  0  0  0  0  0  0  0  0  0  0  0
    3.5620   -2.9987    2.4818 H   0  0  0  0  0  0  0  0  0  0  0  0
    3.5364   -4.5577    1.5006 H   0  0  0  0  0  0  0  0  0  0  0  0
    1.1482   -2.5822    1.9554 H   0  0  0  0  0  0  0  0  0  0  0  0
    1.0684   -4.1305    0.9589 H   0  0  0  0  0  0  0  0  0  0  0  0
  1  2  1  0
  1 23  1  0
  1 24  1  0
  1 25  1  0
  2  3  1  0
  2 19  1  0
  2 26  1  6
  3  4  1  0
  3 27  1  0
  3 28  1  0
  4  5  1  0
  4 18  1  0
  4 29  1  1
  5  6  1  0
  5 30  1  0
  6  7  2  0
  6  8  1  0
  8  9  1  0
  8 31  1  0
  8 32  1  0
  9 10  1  0
  9 33  1  0
  9 34  1  0
 10 11  1  0
 10 35  1  0
 11 12  2  0
 11 13  1  0
 13 14  1  0
 13 17  2  0
 14 15  2  0
 14 36  1  0
 15 16  1  0
 15 37  1  0
 16 17  1  0
 17 38  1  0
 18 19  1  0
 18 39  1  0
 18 40  1  0
 19 20  1  0
 20 21  1  0
 20 22  1  0
 20 41  1  6
 21 22  1  0
 21 42  1  0
 21 43  1  0
 22 44  1  0
 22 45  1  0
M  END

