
     RDKit          3D

 36 39  0  0  0  0  0  0  0  0999 V2000
    1.1851    0.1001   -1.1247 O   0  0  0  0  0  0  0  0  0  0  0  0
    2.3087   -0.0455   -0.6982 C   0  0  0  0  0  0  0  0  0  0  0  0
    2.9710   -1.2535   -0.6392 N   0  0  0  0  0  0  0  0  0  0  0  0
    2.4764   -2.4886   -1.0249 C   0  0  0  0  0  0  0  0  0  0  0  0
    1.3396   -2.7355   -1.5815 N   0  0  0  0  0  0  0  0  0  0  0  0
    1.1895   -4.0794   -1.8334 C   0  0  0  0  0  0  0  0  0  0  0  0
    2.2658   -4.8976   -1.4534 C   0  0  0  0  0  0  0  0  0  0  0  0
    2.2534   -6.2981   -1.6536 C   0  0  0  0  0  0  0  0  0  0  0  0
    1.1435   -6.8660   -2.2409 C   0  0  0  0  0  0  0  0  0  0  0  0
    0.0194   -6.0798   -2.6460 C   0  0  0  0  0  0  0  0  0  0  0  0
   -1.1269   -6.6642   -3.2512 C   0  0  0  0  0  0  0  0  0  0  0  0
   -2.2018   -5.8860   -3.6336 C   0  0  0  0  0  0  0  0  0  0  0  0
   -2.1797   -4.4849   -3.4278 C   0  0  0  0  0  0  0  0  0  0  0  0
   -1.0831   -3.8814   -2.8431 C   0  0  0  0  0  0  0  0  0  0  0  0
    0.0319   -4.6606   -2.4429 C   0  0  0  0  0  0  0  0  0  0  0  0
    3.5206   -3.9088   -0.7386 S   0  0  0  0  0  0  0  0  0  0  0  0
    3.1029    1.1975   -0.2728 C   0  0  0  0  0  0  0  0  0  0  0  0
    2.7251    2.3462   -0.9949 C   0  0  0  0  0  0  0  0  0  0  0  0
    3.2581    3.6059   -0.7333 C   0  0  0  0  0  0  0  0  0  0  0  0
    4.1681    3.7755    0.3131 C   0  0  0  0  0  0  0  0  0  0  0  0
    4.5331    2.6746    1.0808 C   0  0  0  0  0  0  0  0  0  0  0  0
    4.0279    1.4041    0.7760 C   0  0  0  0  0  0  0  0  0  0  0  0
    4.5420    0.3387    1.6687 N   0  0  0  0  0  0  0  0  0  0  0  0
    4.8983   -0.7275    1.1720 O   0  0  0  0  0  0  0  0  0  0  0  0
    4.6403    0.6018    2.8489 O   0  0  0  0  0  0  0  0  0  0  0  0
    3.8947   -1.2368   -0.2034 H   0  0  0  0  0  0  0  0  0  0  0  0
    3.1021   -6.9143   -1.3500 H   0  0  0  0  0  0  0  0  0  0  0  0
    1.1111   -7.9461   -2.4058 H   0  0  0  0  0  0  0  0  0  0  0  0
   -1.1444   -7.7460   -3.4097 H   0  0  0  0  0  0  0  0  0  0  0  0
   -3.0754   -6.3514   -4.0973 H   0  0  0  0  0  0  0  0  0  0  0  0
   -3.0369   -3.8799   -3.7341 H   0  0  0  0  0  0  0  0  0  0  0  0
   -1.0462   -2.8034   -2.6748 H   0  0  0  0  0  0  0  0  0  0  0  0
    1.9705    2.2154   -1.7713 H   0  0  0  0  0  0  0  0  0  0  0  0
    2.9477    4.4603   -1.3391 H   0  0  0  0  0  0  0  0  0  0  0  0
    4.5838    4.7593    0.5407 H   0  0  0  0  0  0  0  0  0  0  0  0
    5.2140    2.7773    1.9258 H   0  0  0  0  0  0  0  0  0  0  0  0
  1  2  2  0
  2  3  1  0
  2 17  1  0
  3  4  1  0
  3 26  1  0
  4  5  2  0
  4 16  1  0
  5  6  1  0
  6  7  2  0
  6 15  1  0
  7  8  1  0
  7 16  1  0
  8  9  2  0
  8 27  1  0
  9 10  1  0
  9 28  1  0
 10 11  1  0
 10 15  2  0
 11 12  2  0
 11 29  1  0
 12 13  1  0
 12 30  1  0
 13 14  2  0
 13 31  1  0
 14 15  1  0
 14 32  1  0
 17 18  2  0
 17 22  1  0
 18 19  1  0
 18 33  1  0
 19 20  2  0
 19 34  1  0
 20 21  1  0
 20 35  1  0
 21 22  2  0
 21 36  1  0
 22 23  1  0
 23 24  2  0
 23 25  1  0
M  CHG  2  23   1  25  -1
M  END

