
     RDKit          3D

 49 51  0  0  0  0  0  0  0  0999 V2000
    1.1400   -0.0751    0.2425 O   0  0  0  0  0  0  0  0  0  0  0  0
    2.3465   -0.0281    0.0395 C   0  0  0  0  0  0  0  0  0  0  0  0
    3.0145    1.1599   -0.0845 N   0  0  0  0  0  0  0  0  0  0  0  0
    2.3268    2.4376    0.0177 C   0  0  0  0  0  0  0  0  0  0  0  0
    2.1342    2.9459    1.4536 C   0  0  0  0  0  0  0  0  0  0  0  0
    3.4381    3.2232    2.2049 C   0  0  0  0  0  0  0  0  0  0  0  0
    3.2098    3.7388    3.6375 C   0  0  0  0  0  0  0  0  0  0  0  0
    4.4872    4.0024    4.3994 C   0  0  0  0  0  0  0  0  0  0  0  0
    4.9834    3.1219    5.3727 C   0  0  0  0  0  0  0  0  0  0  0  0
    6.1795    3.3764    6.0512 C   0  0  0  0  0  0  0  0  0  0  0  0
    6.9115    4.5321    5.7651 C   0  0  0  0  0  0  0  0  0  0  0  0
    6.4446    5.4295    4.8003 C   0  0  0  0  0  0  0  0  0  0  0  0
    5.2526    5.1472    4.1407 C   0  0  0  0  0  0  0  0  0  0  0  0
    4.8098    6.0169    3.2096 F   0  0  0  0  0  0  0  0  0  0  0  0
    3.1731   -1.2793   -0.0834 C   0  0  0  0  0  0  0  0  0  0  0  0
    4.4550   -1.3355   -0.6532 C   0  0  0  0  0  0  0  0  0  0  0  0
    5.1643   -2.5307   -0.7468 C   0  0  0  0  0  0  0  0  0  0  0  0
    4.5966   -3.7298   -0.2656 C   0  0  0  0  0  0  0  0  0  0  0  0
    5.2845   -4.9593   -0.3281 N   0  0  0  0  0  0  0  0  0  0  0  0
    4.7393   -6.1740    0.2872 C   0  0  0  0  0  0  0  0  0  0  0  0
    5.9073   -7.1716    0.2499 C   0  0  0  0  0  0  0  0  0  0  0  0
    6.7240   -6.7165   -0.9590 C   0  0  0  0  0  0  0  0  0  0  0  0
    6.4436   -5.2204   -1.0605 C   0  0  0  0  0  0  0  0  0  0  0  0
    7.1004   -4.4175   -1.6878 O   0  0  0  0  0  0  0  0  0  0  0  0
    3.3000   -3.6809    0.2894 C   0  0  0  0  0  0  0  0  0  0  0  0
    2.6059   -2.4773    0.3708 C   0  0  0  0  0  0  0  0  0  0  0  0
    4.0254    1.1529   -0.1066 H   0  0  0  0  0  0  0  0  0  0  0  0
    1.3415    2.3148   -0.4546 H   0  0  0  0  0  0  0  0  0  0  0  0
    2.8941    3.1764   -0.5736 H   0  0  0  0  0  0  0  0  0  0  0  0
    1.5267    2.2067    2.0030 H   0  0  0  0  0  0  0  0  0  0  0  0
    1.5316    3.8710    1.4077 H   0  0  0  0  0  0  0  0  0  0  0  0
    4.0376    3.9659    1.6492 H   0  0  0  0  0  0  0  0  0  0  0  0
    4.0447    2.3018    2.2517 H   0  0  0  0  0  0  0  0  0  0  0  0
    2.6052    3.0048    4.1953 H   0  0  0  0  0  0  0  0  0  0  0  0
    2.6149    4.6666    3.5898 H   0  0  0  0  0  0  0  0  0  0  0  0
    4.4102    2.2192    5.6033 H   0  0  0  0  0  0  0  0  0  0  0  0
    6.5378    2.6722    6.8059 H   0  0  0  0  0  0  0  0  0  0  0  0
    7.8461    4.7400    6.2917 H   0  0  0  0  0  0  0  0  0  0  0  0
    6.9863    6.3439    4.5499 H   0  0  0  0  0  0  0  0  0  0  0  0
    4.9210   -0.4368   -1.0662 H   0  0  0  0  0  0  0  0  0  0  0  0
    6.1493   -2.5544   -1.2045 H   0  0  0  0  0  0  0  0  0  0  0  0
    3.8671   -6.5405   -0.2860 H   0  0  0  0  0  0  0  0  0  0  0  0
    4.3976   -5.9690    1.3127 H   0  0  0  0  0  0  0  0  0  0  0  0
    5.5584   -8.2121    0.1884 H   0  0  0  0  0  0  0  0  0  0  0  0
    6.5066   -7.0748    1.1691 H   0  0  0  0  0  0  0  0  0  0  0  0
    6.3763   -7.1835   -1.8977 H   0  0  0  0  0  0  0  0  0  0  0  0
    7.8058   -6.8946   -0.8886 H   0  0  0  0  0  0  0  0  0  0  0  0
    2.8158   -4.5868    0.6529 H   0  0  0  0  0  0  0  0  0  0  0  0
    1.5973   -2.4436    0.7871 H   0  0  0  0  0  0  0  0  0  0  0  0
  1  2  2  0
  2  3  1  0
  2 15  1  0
  3  4  1  0
  3 27  1  0
  4  5  1  0
  4 28  1  0
  4 29  1  0
  5  6  1  0
  5 30  1  0
  5 31  1  0
  6  7  1  0
  6 32  1  0
  6 33  1  0
  7  8  1  0
  7 34  1  0
  7 35  1  0
  8  9  2  0
  8 13  1  0
  9 10  1  0
  9 36  1  0
 10 11  2  0
 10 37  1  0
 11 12  1  0
 11 38  1  0
 12 13  2  0
 12 39  1  0
 13 14  1  0
 15 16  2  0
 15 26  1  0
 16 17  1  0
 16 40  1  0
 17 18  2  0
 17 41  1  0
 18 19  1  0
 18 25  1  0
 19 20  1  0
 19 23  1  0
 20 21  1  0
 20 42  1  0
 20 43  1  0
 21 22  1  0
 21 44  1  0
 21 45  1  0
 22 23  1  0
 22 46  1  0
 22 47  1  0
 23 24  2  0
 25 26  2  0
 25 48  1  0
 26 49  1  0
M  END

