
     RDKit          3D

 40 41  0  0  0  0  0  0  0  0999 V2000
    0.8811    0.1310    0.0995 C   0  0  0  0  0  0  0  0  0  0  0  0
    2.3767    0.0587    0.0248 C   0  0  0  0  0  0  0  0  0  0  0  0
    3.1744   -1.0718   -0.0146 C   0  0  0  0  0  0  0  0  0  0  0  0
    2.7558   -2.5109   -0.0382 C   0  0  0  0  0  0  0  0  0  0  0  0
    2.7556   -3.1357   -1.4422 C   0  0  0  0  0  0  0  0  0  0  0  0
    2.3582   -4.6070   -1.4373 C   0  0  0  0  0  0  0  0  0  0  0  0
    2.1595   -5.2529   -0.4459 O   0  0  0  0  0  0  0  0  0  0  0  0
    2.2474   -5.1785   -2.6603 O   0  0  0  0  0  0  0  0  0  0  0  0
    4.5198   -0.6930   -0.0755 N   0  0  0  0  0  0  0  0  0  0  0  0
    5.6774   -1.5559   -0.1238 C   0  0  0  0  0  0  0  0  0  0  0  0
    4.5888    0.6862   -0.0800 C   0  0  0  0  0  0  0  0  0  0  0  0
    5.6977    1.5421   -0.1338 C   0  0  0  0  0  0  0  0  0  0  0  0
    5.4620    2.9148   -0.1169 C   0  0  0  0  0  0  0  0  0  0  0  0
    4.1535    3.4577   -0.0493 C   0  0  0  0  0  0  0  0  0  0  0  0
    3.9383    4.9677   -0.0326 C   0  0  1  0  0  0  0  0  0  0  0  0
    4.5567    5.6288    1.2116 C   0  0  0  0  0  0  0  0  0  0  0  0
    4.4353    5.6405   -1.3240 C   0  0  0  0  0  0  0  0  0  0  0  0
    3.0628    2.5865    0.0012 C   0  0  0  0  0  0  0  0  0  0  0  0
    3.2640    1.1936   -0.0145 C   0  0  0  0  0  0  0  0  0  0  0  0
    0.4197   -0.8637    0.1894 H   0  0  0  0  0  0  0  0  0  0  0  0
    0.4494    0.6138   -0.7951 H   0  0  0  0  0  0  0  0  0  0  0  0
    0.5499    0.7250    0.9689 H   0  0  0  0  0  0  0  0  0  0  0  0
    1.7431   -2.5954    0.3801 H   0  0  0  0  0  0  0  0  0  0  0  0
    3.3880   -3.1266    0.6215 H   0  0  0  0  0  0  0  0  0  0  0  0
    3.7536   -3.0562   -1.9109 H   0  0  0  0  0  0  0  0  0  0  0  0
    2.0707   -2.5795   -2.1068 H   0  0  0  0  0  0  0  0  0  0  0  0
    2.4256   -4.5307   -3.3570 H   0  0  0  0  0  0  0  0  0  0  0  0
    5.3962   -2.5859    0.1283 H   0  0  0  0  0  0  0  0  0  0  0  0
    6.4323   -1.2285    0.6094 H   0  0  0  0  0  0  0  0  0  0  0  0
    6.1515   -1.5581   -1.1221 H   0  0  0  0  0  0  0  0  0  0  0  0
    6.7181    1.1563   -0.1906 H   0  0  0  0  0  0  0  0  0  0  0  0
    6.3200    3.5910   -0.1591 H   0  0  0  0  0  0  0  0  0  0  0  0
    2.8474    5.1298    0.0204 H   0  0  0  0  0  0  0  0  0  0  0  0
    5.6539    5.5203    1.2221 H   0  0  0  0  0  0  0  0  0  0  0  0
    4.1689    5.1768    2.1380 H   0  0  0  0  0  0  0  0  0  0  0  0
    4.3306    6.7079    1.2370 H   0  0  0  0  0  0  0  0  0  0  0  0
    5.5267    5.5335   -1.4398 H   0  0  0  0  0  0  0  0  0  0  0  0
    4.2077    6.7195   -1.3181 H   0  0  0  0  0  0  0  0  0  0  0  0
    3.9613    5.1965   -2.2134 H   0  0  0  0  0  0  0  0  0  0  0  0
    2.0479    2.9922    0.0529 H   0  0  0  0  0  0  0  0  0  0  0  0
  1  2  1  0
  1 20  1  0
  1 21  1  0
  1 22  1  0
  2  3  2  0
  2 19  1  0
  3  4  1  0
  3  9  1  0
  4  5  1  0
  4 23  1  0
  4 24  1  0
  5  6  1  0
  5 25  1  0
  5 26  1  0
  6  7  2  0
  6  8  1  0
  8 27  1  0
  9 10  1  0
  9 11  1  0
 10 28  1  0
 10 29  1  0
 10 30  1  0
 11 12  1  0
 11 19  2  0
 12 13  2  0
 12 31  1  0
 13 14  1  0
 13 32  1  0
 14 15  1  0
 14 18  2  0
 15 16  1  0
 15 17  1  0
 15 33  1  1
 16 34  1  0
 16 35  1  0
 16 36  1  0
 17 37  1  0
 17 38  1  0
 17 39  1  0
 18 19  1  0
 18 40  1  0
M  END

