
     RDKit          3D

 41 41  0  0  0  0  0  0  0  0999 V2000
    3.0079   -1.3155    0.9339 C   0  0  0  0  0  0  0  0  0  0  0  0
    4.3856   -1.6186    0.3032 C   0  0  1  0  0  0  0  0  0  0  0  0
    5.5019   -1.0072    1.1686 C   0  0  0  0  0  0  0  0  0  0  0  0
    4.5889   -3.1406    0.2293 C   0  0  0  0  0  0  0  0  0  0  0  0
    4.5075   -1.1206   -1.0823 N   0  0  0  0  0  0  0  0  0  0  0  0
    4.2236    0.2797   -1.3576 C   0  0  0  0  0  0  0  0  0  0  0  0
    4.8062    0.7266   -2.7136 C   0  0  1  0  0  0  0  0  0  0  0  0
    4.2652   -0.0616   -3.9229 C   0  0  0  0  0  0  0  0  0  0  0  0
    2.8124    0.2932   -4.2630 C   0  0  0  0  0  0  0  0  0  0  0  0
    2.6432    1.8021   -4.5008 C   0  0  0  0  0  0  0  0  0  0  0  0
    3.1657    2.6077   -3.3074 C   0  0  2  0  0  0  0  0  0  0  0  0
    3.1416    4.4176   -3.6356 S   0  0  1  0  0  0  0  0  0  0  0  0
    1.3958    4.8650   -3.7895 C   0  0  0  0  0  0  0  0  0  0  0  0
    3.6472    5.0922   -2.4288 O   0  0  0  0  0  0  0  0  0  0  0  0
    3.7749    4.6558   -4.9442 O   0  0  0  0  0  0  0  0  0  0  0  0
    4.6161    2.2396   -2.9484 C   0  0  0  0  0  0  0  0  0  0  0  0
    2.9260   -1.7521    1.9424 H   0  0  0  0  0  0  0  0  0  0  0  0
    2.1944   -1.7365    0.3190 H   0  0  0  0  0  0  0  0  0  0  0  0
    2.8341   -0.2320    1.0293 H   0  0  0  0  0  0  0  0  0  0  0  0
    5.4888   -1.4421    2.1804 H   0  0  0  0  0  0  0  0  0  0  0  0
    5.3878    0.0822    1.2821 H   0  0  0  0  0  0  0  0  0  0  0  0
    6.4858   -1.2019    0.7152 H   0  0  0  0  0  0  0  0  0  0  0  0
    4.5576   -3.5951    1.2315 H   0  0  0  0  0  0  0  0  0  0  0  0
    5.5594   -3.3754   -0.2338 H   0  0  0  0  0  0  0  0  0  0  0  0
    3.7980   -3.6159   -0.3764 H   0  0  0  0  0  0  0  0  0  0  0  0
    3.9417   -1.7122   -1.6885 H   0  0  0  0  0  0  0  0  0  0  0  0
    4.7032    0.8943   -0.5797 H   0  0  0  0  0  0  0  0  0  0  0  0
    3.1404    0.5260   -1.3038 H   0  0  0  0  0  0  0  0  0  0  0  0
    5.8899    0.5333   -2.6484 H   0  0  0  0  0  0  0  0  0  0  0  0
    4.3753   -1.1449   -3.7513 H   0  0  0  0  0  0  0  0  0  0  0  0
    4.8988    0.1679   -4.7980 H   0  0  0  0  0  0  0  0  0  0  0  0
    2.1391   -0.0290   -3.4484 H   0  0  0  0  0  0  0  0  0  0  0  0
    2.4874   -0.2562   -5.1620 H   0  0  0  0  0  0  0  0  0  0  0  0
    1.5839    2.0353   -4.6990 H   0  0  0  0  0  0  0  0  0  0  0  0
    3.2118    2.1073   -5.3952 H   0  0  0  0  0  0  0  0  0  0  0  0
    2.5107    2.4914   -2.4279 H   0  0  0  0  0  0  0  0  0  0  0  0
    0.8710    4.6187   -2.8571 H   0  0  0  0  0  0  0  0  0  0  0  0
    0.9504    4.3639   -4.6580 H   0  0  0  0  0  0  0  0  0  0  0  0
    1.4081    5.9529   -3.9428 H   0  0  0  0  0  0  0  0  0  0  0  0
    4.9312    2.8168   -2.0661 H   0  0  0  0  0  0  0  0  0  0  0  0
    5.2613    2.5586   -3.7842 H   0  0  0  0  0  0  0  0  0  0  0  0
  1  2  1  0
  1 17  1  0
  1 18  1  0
  1 19  1  0
  2  3  1  0
  2  4  1  0
  2  5  1  6
  3 20  1  0
  3 21  1  0
  3 22  1  0
  4 23  1  0
  4 24  1  0
  4 25  1  0
  5  6  1  0
  5 26  1  0
  6  7  1  0
  6 27  1  0
  6 28  1  0
  7  8  1  0
  7 16  1  0
  7 29  1  1
  8  9  1  0
  8 30  1  0
  8 31  1  0
  9 10  1  0
  9 32  1  0
  9 33  1  0
 10 11  1  0
 10 34  1  0
 10 35  1  0
 11 12  1  0
 11 16  1  0
 11 36  1  1
 12 13  1  6
 12 14  2  0
 12 15  2  0
 13 37  1  0
 13 38  1  0
 13 39  1  0
 16 40  1  0
 16 41  1  0
M  END

