
     RDKit          3D

 49 52  0  0  0  0  0  0  0  0999 V2000
    2.0197    0.4946   -1.8796 C   0  0  0  0  0  0  0  0  0  0  0  0
    2.8836   -0.1870   -2.7816 O   0  0  0  0  0  0  0  0  0  0  0  0
    3.2892   -1.4231   -2.4578 C   0  0  0  0  0  0  0  0  0  0  0  0
    4.1624   -2.0736   -3.3590 C   0  0  0  0  0  0  0  0  0  0  0  0
    4.5831   -3.3511   -3.0407 C   0  0  0  0  0  0  0  0  0  0  0  0
    4.1166   -3.9708   -1.8612 C   0  0  0  0  0  0  0  0  0  0  0  0
    4.6706   -5.3126   -1.4848 C   0  0  0  0  0  0  0  0  0  0  0  0
    5.8330   -5.5886   -1.7571 O   0  0  0  0  0  0  0  0  0  0  0  0
    3.8589   -6.1880   -0.7825 N   0  0  0  0  0  0  0  0  0  0  0  0
    2.4137   -6.3170   -0.9902 C   0  0  0  0  0  0  0  0  0  0  0  0
    2.0953   -7.4823   -1.9414 C   0  0  0  0  0  0  0  0  0  0  0  0
    2.7499   -8.7939   -1.4844 C   0  0  0  0  0  0  0  0  0  0  0  0
    4.2546   -8.5762   -1.2625 C   0  0  2  0  0  0  0  0  0  0  0  0
    5.0090   -9.7709   -0.8931 N   0  0  0  0  0  0  0  0  0  0  0  0
    4.7504  -10.7240    0.0949 C   0  0  0  0  0  0  0  0  0  0  0  0
    3.5822  -10.7506    1.0283 C   0  0  0  0  0  0  0  0  0  0  0  0
    5.8060  -11.6054    0.0147 C   0  0  0  0  0  0  0  0  0  0  0  0
    6.6978  -11.2296   -0.9522 N   0  0  0  0  0  0  0  0  0  0  0  0
    6.2142  -10.1261   -1.4793 C   0  0  0  0  0  0  0  0  0  0  0  0
    6.8495   -9.3514   -2.5760 C   0  0  1  0  0  0  0  0  0  0  0  0
    8.1040   -9.9029   -3.1994 C   0  0  0  0  0  0  0  0  0  0  0  0
    6.8342   -9.8988   -3.9996 C   0  0  0  0  0  0  0  0  0  0  0  0
    4.4827   -7.4093   -0.2800 C   0  0  0  0  0  0  0  0  0  0  0  0
    3.2777   -3.2155   -1.0363 C   0  0  0  0  0  0  0  0  0  0  0  0
    2.8729   -1.9739   -1.3245 N   0  0  0  0  0  0  0  0  0  0  0  0
    1.8226    1.4736   -2.3353 H   0  0  0  0  0  0  0  0  0  0  0  0
    2.4932    0.6224   -0.8938 H   0  0  0  0  0  0  0  0  0  0  0  0
    1.0764   -0.0553   -1.7379 H   0  0  0  0  0  0  0  0  0  0  0  0
    4.4865   -1.5562   -4.2631 H   0  0  0  0  0  0  0  0  0  0  0  0
    5.2817   -3.8920   -3.6825 H   0  0  0  0  0  0  0  0  0  0  0  0
    2.0098   -5.3818   -1.3931 H   0  0  0  0  0  0  0  0  0  0  0  0
    1.9316   -6.4883   -0.0103 H   0  0  0  0  0  0  0  0  0  0  0  0
    2.4517   -7.2196   -2.9530 H   0  0  0  0  0  0  0  0  0  0  0  0
    1.0018   -7.6058   -2.0116 H   0  0  0  0  0  0  0  0  0  0  0  0
    2.5893   -9.5909   -2.2281 H   0  0  0  0  0  0  0  0  0  0  0  0
    2.2707   -9.1248   -0.5502 H   0  0  0  0  0  0  0  0  0  0  0  0
    4.6772   -8.2526   -2.2238 H   0  0  0  0  0  0  0  0  0  0  0  0
    3.4355   -9.7978    1.5643 H   0  0  0  0  0  0  0  0  0  0  0  0
    3.7587  -11.5259    1.7881 H   0  0  0  0  0  0  0  0  0  0  0  0
    2.6305  -10.9981    0.5276 H   0  0  0  0  0  0  0  0  0  0  0  0
    5.9599  -12.4940    0.6279 H   0  0  0  0  0  0  0  0  0  0  0  0
    6.7924   -8.2622   -2.4802 H   0  0  0  0  0  0  0  0  0  0  0  0
    8.4525  -10.8575   -2.7989 H   0  0  0  0  0  0  0  0  0  0  0  0
    8.8894   -9.1902   -3.4640 H   0  0  0  0  0  0  0  0  0  0  0  0
    6.3292  -10.8556   -4.1596 H   0  0  0  0  0  0  0  0  0  0  0  0
    6.7283   -9.1815   -4.8193 H   0  0  0  0  0  0  0  0  0  0  0  0
    5.5555   -7.2277   -0.1512 H   0  0  0  0  0  0  0  0  0  0  0  0
    4.0421   -7.6476    0.7037 H   0  0  0  0  0  0  0  0  0  0  0  0
    2.9344   -3.6218   -0.0782 H   0  0  0  0  0  0  0  0  0  0  0  0
  1  2  1  0
  1 26  1  0
  1 27  1  0
  1 28  1  0
  2  3  1  0
  3  4  2  0
  3 25  1  0
  4  5  1  0
  4 29  1  0
  5  6  2  0
  5 30  1  0
  6  7  1  0
  6 24  1  0
  7  8  2  0
  7  9  1  0
  9 10  1  0
  9 23  1  0
 10 11  1  0
 10 31  1  0
 10 32  1  0
 11 12  1  0
 11 33  1  0
 11 34  1  0
 12 13  1  0
 12 35  1  0
 12 36  1  0
 13 14  1  0
 13 23  1  0
 13 37  1  6
 14 15  1  0
 14 19  1  0
 15 16  1  0
 15 17  2  0
 16 38  1  0
 16 39  1  0
 16 40  1  0
 17 18  1  0
 17 41  1  0
 18 19  2  0
 19 20  1  0
 20 21  1  0
 20 22  1  0
 20 42  1  6
 21 22  1  0
 21 43  1  0
 21 44  1  0
 22 45  1  0
 22 46  1  0
 23 47  1  0
 23 48  1  0
 24 25  2  0
 24 49  1  0
M  END

