
     RDKit          3D

 42 43  0  0  0  0  0  0  0  0999 V2000
    1.5283   -0.9847    0.6979 C   0  0  0  0  0  0  0  0  0  0  0  0
    2.0599   -0.7981   -0.7140 C   0  0  2  0  0  0  0  0  0  0  0  0
    1.4877   -1.4519   -1.4062 H   0  0  0  0  0  0  0  0  0  0  0  0
    3.4155   -1.2083   -0.7247 O   0  0  0  0  0  0  0  0  0  0  0  0
    3.9424   -1.2451   -2.0375 C   0  0  0  0  0  0  0  0  0  0  0  0
    3.8929    0.1300   -2.6861 C   0  0  0  0  0  0  0  0  0  0  0  0
    2.5427    0.6839   -2.5982 N   0  0  0  0  0  0  0  0  0  0  0  0
    2.0954    1.4393   -3.6745 C   0  0  0  0  0  0  0  0  0  0  0  0
    2.6816    1.4533   -4.7478 O   0  0  0  0  0  0  0  0  0  0  0  0
    0.9379    2.1630   -3.4397 N   0  0  0  0  0  0  0  0  0  0  0  0
    0.2572    3.0048   -4.3287 C   0  0  0  0  0  0  0  0  0  0  0  0
    0.5822    3.2096   -5.6767 C   0  0  0  0  0  0  0  0  0  0  0  0
   -0.1626    4.0973   -6.4625 C   0  0  0  0  0  0  0  0  0  0  0  0
   -1.2311    4.7794   -5.8979 C   0  0  0  0  0  0  0  0  0  0  0  0
   -1.9471    5.6391   -6.6421 F   0  0  0  0  0  0  0  0  0  0  0  0
   -1.5916    4.5983   -4.5613 C   0  0  0  0  0  0  0  0  0  0  0  0
   -0.8517    3.7050   -3.7889 C   0  0  0  0  0  0  0  0  0  0  0  0
   -1.1294    3.4205   -2.4751 O   0  0  0  0  0  0  0  0  0  0  0  0
   -1.8354    4.3453   -1.6862 C   0  0  0  0  0  0  0  0  0  0  0  0
   -1.7857    3.8361   -0.2582 C   0  0  1  0  0  0  0  0  0  0  0  0
   -0.4967    3.7736    0.1699 F   0  0  0  0  0  0  0  0  0  0  0  0
   -2.4585    4.7049    0.5355 F   0  0  0  0  0  0  0  0  0  0  0  0
    1.9096    0.6422   -1.2709 C   0  0  2  0  0  0  0  0  0  0  0  0
    0.8251    0.7743   -1.4097 H   0  0  0  0  0  0  0  0  0  0  0  0
    2.4380    1.7381   -0.3333 C   0  0  0  0  0  0  0  0  0  0  0  0
    2.1265   -0.4155    1.4244 H   0  0  0  0  0  0  0  0  0  0  0  0
    1.5845   -2.0476    0.9748 H   0  0  0  0  0  0  0  0  0  0  0  0
    0.4785   -0.6599    0.7726 H   0  0  0  0  0  0  0  0  0  0  0  0
    3.3741   -1.9720   -2.6532 H   0  0  0  0  0  0  0  0  0  0  0  0
    4.9826   -1.5957   -1.9591 H   0  0  0  0  0  0  0  0  0  0  0  0
    4.1656    0.0794   -3.7476 H   0  0  0  0  0  0  0  0  0  0  0  0
    4.6183    0.7989   -2.1839 H   0  0  0  0  0  0  0  0  0  0  0  0
    0.5757    2.2141   -2.4967 H   0  0  0  0  0  0  0  0  0  0  0  0
    1.4355    2.6767   -6.0895 H   0  0  0  0  0  0  0  0  0  0  0  0
    0.0901    4.2661   -7.5106 H   0  0  0  0  0  0  0  0  0  0  0  0
   -2.4438    5.1467   -4.1607 H   0  0  0  0  0  0  0  0  0  0  0  0
   -2.8940    4.4310   -1.9907 H   0  0  0  0  0  0  0  0  0  0  0  0
   -1.3749    5.3492   -1.7249 H   0  0  0  0  0  0  0  0  0  0  0  0
   -2.2310    2.8311   -0.1516 H   0  0  0  0  0  0  0  0  0  0  0  0
    2.4001    2.7200   -0.8289 H   0  0  0  0  0  0  0  0  0  0  0  0
    3.4795    1.5379   -0.0403 H   0  0  0  0  0  0  0  0  0  0  0  0
    1.8310    1.8082    0.5812 H   0  0  0  0  0  0  0  0  0  0  0  0
  1  2  1  0
  1 26  1  0
  1 27  1  0
  1 28  1  0
  2  3  1  6
  2  4  1  0
  2 23  1  0
  4  5  1  0
  5  6  1  0
  5 29  1  0
  5 30  1  0
  6  7  1  0
  6 31  1  0
  6 32  1  0
  7  8  1  0
  7 23  1  0
  8  9  2  0
  8 10  1  0
 10 11  1  0
 10 33  1  0
 11 12  2  0
 11 17  1  0
 12 13  1  0
 12 34  1  0
 13 14  2  0
 13 35  1  0
 14 15  1  0
 14 16  1  0
 16 17  2  0
 16 36  1  0
 17 18  1  0
 18 19  1  0
 19 20  1  0
 19 37  1  0
 19 38  1  0
 20 21  1  0
 20 22  1  0
 20 39  1  6
 23 24  1  6
 23 25  1  0
 25 40  1  0
 25 41  1  0
 25 42  1  0
M  END

