
     RDKit          3D

 33 33  0  0  0  0  0  0  0  0999 V2000
    0.9259   -0.1726    0.4109 C   0  0  0  0  0  0  0  0  0  0  0  0
    2.5606    0.1119   -0.2868 S   0  0  1  0  0  0  0  0  0  0  0  0
    2.9958   -1.1569   -0.8806 O   0  0  0  0  0  0  0  0  0  0  0  0
    2.4711    1.3357   -1.0929 O   0  0  0  0  0  0  0  0  0  0  0  0
    3.5120    0.4304    1.0682 N   0  0  0  0  0  0  0  0  0  0  0  0
    4.4765   -0.5938    1.4988 C   0  0  0  0  0  0  0  0  0  0  0  0
    5.8547   -0.3780    0.8666 C   0  0  0  0  0  0  0  0  0  0  0  0
    6.3570    1.0532    1.0995 C   0  0  0  0  0  0  0  0  0  0  0  0
    5.3182    2.0932    0.6366 C   0  0  2  0  0  0  0  0  0  0  0  0
    5.7747    3.5484    0.8159 C   0  0  0  0  0  0  0  0  0  0  0  0
    5.9468    4.0772    2.2306 C   0  0  0  0  0  0  0  0  0  0  0  0
    5.9337    3.3745    3.2207 O   0  0  0  0  0  0  0  0  0  0  0  0
    6.1097    5.5883    2.3644 C   0  0  0  0  0  0  0  0  0  0  0  0
    6.7309    5.9369    3.6209 N   0  0  0  0  0  0  0  0  0  0  0  0
    3.9536    1.8130    1.2951 C   0  0  0  0  0  0  0  0  0  0  0  0
    0.2578   -0.3875   -0.4346 H   0  0  0  0  0  0  0  0  0  0  0  0
    0.6027    0.7336    0.9386 H   0  0  0  0  0  0  0  0  0  0  0  0
    0.9770   -1.0322    1.0911 H   0  0  0  0  0  0  0  0  0  0  0  0
    4.0790   -1.5845    1.2445 H   0  0  0  0  0  0  0  0  0  0  0  0
    4.5445   -0.5295    2.5998 H   0  0  0  0  0  0  0  0  0  0  0  0
    5.7723   -0.5846   -0.2140 H   0  0  0  0  0  0  0  0  0  0  0  0
    6.5683   -1.1095    1.2822 H   0  0  0  0  0  0  0  0  0  0  0  0
    7.3079    1.2117    0.5620 H   0  0  0  0  0  0  0  0  0  0  0  0
    6.5668    1.2072    2.1704 H   0  0  0  0  0  0  0  0  0  0  0  0
    5.1612    1.9535   -0.4476 H   0  0  0  0  0  0  0  0  0  0  0  0
    5.0892    4.2343    0.2845 H   0  0  0  0  0  0  0  0  0  0  0  0
    6.7515    3.6924    0.3158 H   0  0  0  0  0  0  0  0  0  0  0  0
    5.0776    5.9873    2.2112 H   0  0  0  0  0  0  0  0  0  0  0  0
    6.6931    5.9656    1.5039 H   0  0  0  0  0  0  0  0  0  0  0  0
    6.4103    5.2849    4.3383 H   0  0  0  0  0  0  0  0  0  0  0  0
    6.4798    6.8782    3.9141 H   0  0  0  0  0  0  0  0  0  0  0  0
    3.1898    2.4973    0.9018 H   0  0  0  0  0  0  0  0  0  0  0  0
    4.0213    1.9615    2.3848 H   0  0  0  0  0  0  0  0  0  0  0  0
  2  1  1  1
  1 16  1  0
  1 17  1  0
  1 18  1  0
  2  3  2  0
  2  4  2  0
  2  5  1  0
  5  6  1  0
  5 15  1  0
  6  7  1  0
  6 19  1  0
  6 20  1  0
  7  8  1  0
  7 21  1  0
  7 22  1  0
  8  9  1  0
  8 23  1  0
  8 24  1  0
  9 10  1  0
  9 15  1  0
  9 25  1  6
 10 11  1  0
 10 26  1  0
 10 27  1  0
 11 12  2  0
 11 13  1  0
 13 14  1  0
 13 28  1  0
 13 29  1  0
 14 30  1  0
 14 31  1  0
 15 32  1  0
 15 33  1  0
M  END

