
     RDKit          3D

 50 51  0  0  0  0  0  0  0  0999 V2000
    1.8207   -1.8701    1.3286 C   0  0  0  0  0  0  0  0  0  0  0  0
    2.7349   -1.0402    0.8028 C   0  0  0  0  0  0  0  0  0  0  0  0
    3.2264   -1.1099   -0.6180 C   0  0  0  0  0  0  0  0  0  0  0  0
    3.2973    0.0090    1.7119 C   0  0  0  0  0  0  0  0  0  0  0  0
    3.0130    0.1628    2.8776 O   0  0  0  0  0  0  0  0  0  0  0  0
    4.1794    0.8073    1.0608 O   0  0  0  0  0  0  0  0  0  0  0  0
    4.8713    1.7937    1.8121 C   0  0  2  0  0  0  0  0  0  0  0  0
    5.6147    1.2215    3.0254 C   0  0  0  0  0  0  0  0  0  0  0  0
    6.1775    0.1697    3.0990 O   0  0  0  0  0  0  0  0  0  0  0  0
    5.5914    2.1372    4.0132 O   0  0  0  0  0  0  0  0  0  0  0  0
    4.8122    3.3275    3.6922 C   0  0  2  0  0  0  0  0  0  0  0  0
    5.8010    4.4937    3.5231 C   0  0  0  0  0  0  0  0  0  0  0  0
    6.5565    4.8000    4.8230 C   0  0  0  0  0  0  0  0  0  0  0  0
    5.5881    5.0756    5.9798 C   0  0  0  0  0  0  0  0  0  0  0  0
    4.6040    3.9143    6.1663 C   0  0  0  0  0  0  0  0  0  0  0  0
    3.8603    3.5810    4.8668 C   0  0  0  0  0  0  0  0  0  0  0  0
    4.0398    2.9402    2.3797 C   0  0  1  0  0  0  0  0  0  0  0  0
    3.8610    4.0882    1.3958 C   0  0  0  0  0  0  0  0  0  0  0  0
    4.5902    4.2876    0.4517 O   0  0  0  0  0  0  0  0  0  0  0  0
    2.8003    4.8318    1.7318 O   0  0  0  0  0  0  0  0  0  0  0  0
    2.3654    6.0068    0.9501 C   0  0  1  0  0  0  0  0  0  0  0  0
    1.9890    5.5687   -0.4684 C   0  0  0  0  0  0  0  0  0  0  0  0
    1.1332    6.4871    1.7172 C   0  0  0  0  0  0  0  0  0  0  0  0
    3.4631    7.0744    0.9539 C   0  0  0  0  0  0  0  0  0  0  0  0
    1.3672   -2.6661    0.7323 H   0  0  0  0  0  0  0  0  0  0  0  0
    1.5163   -1.7661    2.3725 H   0  0  0  0  0  0  0  0  0  0  0  0
    2.7316   -1.9263   -1.1633 H   0  0  0  0  0  0  0  0  0  0  0  0
    4.3154   -1.2734   -0.6497 H   0  0  0  0  0  0  0  0  0  0  0  0
    3.0391   -0.1644   -1.1518 H   0  0  0  0  0  0  0  0  0  0  0  0
    5.6190    2.1947    1.1108 H   0  0  0  0  0  0  0  0  0  0  0  0
    5.2270    5.3850    3.2182 H   0  0  0  0  0  0  0  0  0  0  0  0
    6.5013    4.2743    2.7016 H   0  0  0  0  0  0  0  0  0  0  0  0
    7.2262    5.6611    4.6636 H   0  0  0  0  0  0  0  0  0  0  0  0
    7.1995    3.9407    5.0761 H   0  0  0  0  0  0  0  0  0  0  0  0
    5.0252    6.0052    5.7716 H   0  0  0  0  0  0  0  0  0  0  0  0
    6.1483    5.2547    6.9124 H   0  0  0  0  0  0  0  0  0  0  0  0
    3.8740    4.1481    6.9587 H   0  0  0  0  0  0  0  0  0  0  0  0
    5.1542    3.0180    6.4984 H   0  0  0  0  0  0  0  0  0  0  0  0
    3.1963    4.4137    4.5764 H   0  0  0  0  0  0  0  0  0  0  0  0
    3.2256    2.6902    4.9977 H   0  0  0  0  0  0  0  0  0  0  0  0
    3.0493    2.5740    2.6736 H   0  0  0  0  0  0  0  0  0  0  0  0
    1.2367    4.7653   -0.4355 H   0  0  0  0  0  0  0  0  0  0  0  0
    2.8659    5.2118   -1.0232 H   0  0  0  0  0  0  0  0  0  0  0  0
    1.5525    6.4210   -1.0119 H   0  0  0  0  0  0  0  0  0  0  0  0
    0.3678    5.6975    1.7558 H   0  0  0  0  0  0  0  0  0  0  0  0
    0.6995    7.3700    1.2238 H   0  0  0  0  0  0  0  0  0  0  0  0
    1.3987    6.7611    2.7494 H   0  0  0  0  0  0  0  0  0  0  0  0
    4.3611    6.7268    0.4276 H   0  0  0  0  0  0  0  0  0  0  0  0
    3.7355    7.3464    1.9858 H   0  0  0  0  0  0  0  0  0  0  0  0
    3.0925    7.9824    0.4532 H   0  0  0  0  0  0  0  0  0  0  0  0
  1  2  2  0
  1 25  1  0
  1 26  1  0
  2  3  1  0
  2  4  1  0
  3 27  1  0
  3 28  1  0
  3 29  1  0
  4  5  2  0
  4  6  1  0
  6  7  1  0
  7  8  1  0
  7 17  1  0
  7 30  1  6
  8  9  2  0
  8 10  1  0
 11 10  1  1
 11 12  1  0
 11 16  1  0
 11 17  1  0
 12 13  1  0
 12 31  1  0
 12 32  1  0
 13 14  1  0
 13 33  1  0
 13 34  1  0
 14 15  1  0
 14 35  1  0
 14 36  1  0
 15 16  1  0
 15 37  1  0
 15 38  1  0
 16 39  1  0
 16 40  1  0
 17 18  1  0
 17 41  1  1
 18 19  2  0
 18 20  1  0
 21 20  1  1
 21 22  1  0
 21 23  1  0
 21 24  1  0
 22 42  1  0
 22 43  1  0
 22 44  1  0
 23 45  1  0
 23 46  1  0
 23 47  1  0
 24 48  1  0
 24 49  1  0
 24 50  1  0
M  END

