
     RDKit          3D

 49 51  0  0  0  0  0  0  0  0999 V2000
    4.1957    1.9417    0.0413 O   0  0  0  0  0  0  0  0  0  0  0  0
    3.3508    1.0905   -0.1733 C   0  0  0  0  0  0  0  0  0  0  0  0
    1.9245    1.2378    0.3744 C   0  0  0  0  0  0  0  0  0  0  0  0
    1.1571    0.0544    0.3056 O   0  0  0  0  0  0  0  0  0  0  0  0
    1.1851   -0.7686    1.4597 C   0  0  0  0  0  0  0  0  0  0  0  0
    0.0661   -0.3889    2.4246 C   0  0  0  0  0  0  0  0  0  0  0  0
    0.1415   -1.2815    3.5143 O   0  0  0  0  0  0  0  0  0  0  0  0
   -0.7532   -1.1831    4.5362 C   0  0  0  0  0  0  0  0  0  0  0  0
   -1.7866   -0.2365    4.5918 C   0  0  0  0  0  0  0  0  0  0  0  0
   -2.6525   -0.2246    5.6932 C   0  0  0  0  0  0  0  0  0  0  0  0
   -2.5017   -1.1404    6.7345 C   0  0  0  0  0  0  0  0  0  0  0  0
   -1.4665   -2.0831    6.6709 C   0  0  0  0  0  0  0  0  0  0  0  0
   -0.5975   -2.1078    5.5833 C   0  0  0  0  0  0  0  0  0  0  0  0
    3.5446   -0.0251   -0.9305 N   0  0  0  0  0  0  0  0  0  0  0  0
    4.8405   -0.3794   -1.4907 C   0  0  1  0  0  0  0  0  0  0  0  0
    5.3474   -1.6838   -0.8754 C   0  0  0  0  0  0  0  0  0  0  0  0
    4.9172   -2.9317   -1.3534 C   0  0  0  0  0  0  0  0  0  0  0  0
    5.3328   -4.1131   -0.7335 C   0  0  0  0  0  0  0  0  0  0  0  0
    6.1902   -4.0635    0.3702 C   0  0  0  0  0  0  0  0  0  0  0  0
    6.6273   -2.8260    0.8512 C   0  0  0  0  0  0  0  0  0  0  0  0
    6.2060   -1.6448    0.2333 C   0  0  0  0  0  0  0  0  0  0  0  0
    4.8515   -0.3807   -3.0186 C   0  0  0  0  0  0  0  0  0  0  0  0
    3.7457   -0.0025   -3.7868 C   0  0  0  0  0  0  0  0  0  0  0  0
    3.8510   -0.0030   -5.1832 C   0  0  0  0  0  0  0  0  0  0  0  0
    4.9588   -0.3415   -5.8427 N   0  0  0  0  0  0  0  0  0  0  0  0
    6.0193   -0.6959   -5.1093 C   0  0  0  0  0  0  0  0  0  0  0  0
    6.0180   -0.7345   -3.7142 C   0  0  0  0  0  0  0  0  0  0  0  0
    1.4178    2.0054   -0.2346 H   0  0  0  0  0  0  0  0  0  0  0  0
    2.0079    1.6398    1.3985 H   0  0  0  0  0  0  0  0  0  0  0  0
    2.1609   -0.7200    1.9762 H   0  0  0  0  0  0  0  0  0  0  0  0
    1.0379   -1.8091    1.1306 H   0  0  0  0  0  0  0  0  0  0  0  0
   -0.9072   -0.4652    1.9054 H   0  0  0  0  0  0  0  0  0  0  0  0
    0.1848    0.6583    2.7632 H   0  0  0  0  0  0  0  0  0  0  0  0
   -1.9276    0.4899    3.7910 H   0  0  0  0  0  0  0  0  0  0  0  0
   -3.4552    0.5167    5.7283 H   0  0  0  0  0  0  0  0  0  0  0  0
   -3.1819   -1.1230    7.5889 H   0  0  0  0  0  0  0  0  0  0  0  0
   -1.3351   -2.8073    7.4791 H   0  0  0  0  0  0  0  0  0  0  0  0
    0.2148   -2.8346    5.5168 H   0  0  0  0  0  0  0  0  0  0  0  0
    2.7716   -0.6821   -0.9809 H   0  0  0  0  0  0  0  0  0  0  0  0
    5.5073    0.4347   -1.1639 H   0  0  0  0  0  0  0  0  0  0  0  0
    4.2599   -2.9828   -2.2259 H   0  0  0  0  0  0  0  0  0  0  0  0
    4.9904   -5.0773   -1.1182 H   0  0  0  0  0  0  0  0  0  0  0  0
    6.5198   -4.9878    0.8515 H   0  0  0  0  0  0  0  0  0  0  0  0
    7.3008   -2.7784    1.7108 H   0  0  0  0  0  0  0  0  0  0  0  0
    6.5446   -0.6782    0.6170 H   0  0  0  0  0  0  0  0  0  0  0  0
    2.8125    0.3011   -3.3097 H   0  0  0  0  0  0  0  0  0  0  0  0
    2.9872    0.2891   -5.7929 H   0  0  0  0  0  0  0  0  0  0  0  0
    6.9271   -0.9674   -5.6615 H   0  0  0  0  0  0  0  0  0  0  0  0
    6.9184   -1.0410   -3.1762 H   0  0  0  0  0  0  0  0  0  0  0  0
  1  2  2  0
  2  3  1  0
  2 14  1  0
  3  4  1  0
  3 28  1  0
  3 29  1  0
  4  5  1  0
  5  6  1  0
  5 30  1  0
  5 31  1  0
  6  7  1  0
  6 32  1  0
  6 33  1  0
  7  8  1  0
  8  9  2  0
  8 13  1  0
  9 10  1  0
  9 34  1  0
 10 11  2  0
 10 35  1  0
 11 12  1  0
 11 36  1  0
 12 13  2  0
 12 37  1  0
 13 38  1  0
 14 15  1  0
 14 39  1  0
 15 16  1  0
 15 22  1  0
 15 40  1  1
 16 17  2  0
 16 21  1  0
 17 18  1  0
 17 41  1  0
 18 19  2  0
 18 42  1  0
 19 20  1  0
 19 43  1  0
 20 21  2  0
 20 44  1  0
 21 45  1  0
 22 23  2  0
 22 27  1  0
 23 24  1  0
 23 46  1  0
 24 25  2  0
 24 47  1  0
 25 26  1  0
 26 27  2  0
 26 48  1  0
 27 49  1  0
M  END

