
     RDKit          3D

 62 64  0  0  0  0  0  0  0  0999 V2000
    2.6404    1.5145   -9.5610 C   0  0  0  0  0  0  0  0  0  0  0  0
    1.5386    1.9006   -8.7616 O   0  0  0  0  0  0  0  0  0  0  0  0
    1.6969    2.0022   -7.4182 C   0  0  0  0  0  0  0  0  0  0  0  0
    2.9262    1.8693   -6.7518 C   0  0  0  0  0  0  0  0  0  0  0  0
    2.9950    1.9916   -5.3550 C   0  0  0  0  0  0  0  0  0  0  0  0
    4.2970    1.8706   -4.5786 C   0  0  0  0  0  0  0  0  0  0  0  0
    5.5043    1.2971   -5.3216 C   0  0  0  0  0  0  0  0  0  0  0  0
    6.2545    2.3083   -6.1615 C   0  0  0  0  0  0  0  0  0  0  0  0
    6.2630    3.5014   -5.9951 O   0  0  0  0  0  0  0  0  0  0  0  0
    7.0083    1.6917   -7.1072 O   0  0  0  0  0  0  0  0  0  0  0  0
    7.7694    2.5375   -7.9437 C   0  0  0  0  0  0  0  0  0  0  0  0
    6.8932    3.1181   -9.0683 C   0  0  0  0  0  0  0  0  0  0  0  0
    5.7234    2.7914   -9.1720 O   0  0  0  0  0  0  0  0  0  0  0  0
    7.4997    3.9954   -9.9265 N   0  0  0  0  0  0  0  0  0  0  0  0
    6.7455    4.5769  -11.0316 C   0  0  0  0  0  0  0  0  0  0  0  0
    6.8746    6.0977  -11.0231 C   0  0  0  0  0  0  0  0  0  0  0  0
    8.2802    6.5084  -11.0172 N   0  0  0  0  0  0  0  0  0  0  0  0
    8.6101    7.7989  -11.4684 C   0  0  0  0  0  0  0  0  0  0  0  0
    8.0613    8.2990  -12.6714 C   0  0  0  0  0  0  0  0  0  0  0  0
    8.4079    9.5624  -13.1421 C   0  0  0  0  0  0  0  0  0  0  0  0
    9.3146   10.3745  -12.4521 C   0  0  0  0  0  0  0  0  0  0  0  0
    9.8569    9.8803  -11.2670 C   0  0  0  0  0  0  0  0  0  0  0  0
   10.9883   10.8640  -10.3603 Cl  0  0  0  0  0  0  0  0  0  0  0  0
    9.5133    8.6219  -10.7649 C   0  0  0  0  0  0  0  0  0  0  0  0
    9.0203    5.9369   -9.9046 C   0  0  0  0  0  0  0  0  0  0  0  0
    8.8952    4.4089   -9.8973 C   0  0  0  0  0  0  0  0  0  0  0  0
    1.8197    2.2421   -4.6368 C   0  0  0  0  0  0  0  0  0  0  0  0
    0.5916    2.3911   -5.2909 C   0  0  0  0  0  0  0  0  0  0  0  0
   -0.5133    2.6954   -4.5445 O   0  0  0  0  0  0  0  0  0  0  0  0
   -1.5609    1.7369   -4.5167 C   0  0  0  0  0  0  0  0  0  0  0  0
    0.5170    2.2686   -6.6887 C   0  0  0  0  0  0  0  0  0  0  0  0
   -0.6918    2.3809   -7.3229 O   0  0  0  0  0  0  0  0  0  0  0  0
   -0.9161    3.6024   -8.0110 C   0  0  0  0  0  0  0  0  0  0  0  0
    2.2702    1.4765  -10.5948 H   0  0  0  0  0  0  0  0  0  0  0  0
    3.0087    0.5117   -9.2780 H   0  0  0  0  0  0  0  0  0  0  0  0
    3.4793    2.2247   -9.4955 H   0  0  0  0  0  0  0  0  0  0  0  0
    3.8276    1.6946   -7.3379 H   0  0  0  0  0  0  0  0  0  0  0  0
    4.1068    1.2473   -3.6899 H   0  0  0  0  0  0  0  0  0  0  0  0
    4.5782    2.8669   -4.1960 H   0  0  0  0  0  0  0  0  0  0  0  0
    5.2493    0.4263   -5.9434 H   0  0  0  0  0  0  0  0  0  0  0  0
    6.2438    0.9316   -4.5863 H   0  0  0  0  0  0  0  0  0  0  0  0
    8.5680    1.9116   -8.3702 H   0  0  0  0  0  0  0  0  0  0  0  0
    8.2182    3.3516   -7.3544 H   0  0  0  0  0  0  0  0  0  0  0  0
    5.6971    4.2739  -10.9243 H   0  0  0  0  0  0  0  0  0  0  0  0
    7.1327    4.1792  -11.9882 H   0  0  0  0  0  0  0  0  0  0  0  0
    6.3496    6.5018  -10.1317 H   0  0  0  0  0  0  0  0  0  0  0  0
    6.3696    6.5018  -11.9087 H   0  0  0  0  0  0  0  0  0  0  0  0
    7.3801    7.6818  -13.2584 H   0  0  0  0  0  0  0  0  0  0  0  0
    7.9740    9.9203  -14.0793 H   0  0  0  0  0  0  0  0  0  0  0  0
    9.5964   11.3607  -12.8216 H   0  0  0  0  0  0  0  0  0  0  0  0
    9.9475    8.3100   -9.8171 H   0  0  0  0  0  0  0  0  0  0  0  0
    8.6723    6.3349   -8.9263 H   0  0  0  0  0  0  0  0  0  0  0  0
   10.0850    6.1899  -10.0080 H   0  0  0  0  0  0  0  0  0  0  0  0
    9.4019    4.0143   -9.0089 H   0  0  0  0  0  0  0  0  0  0  0  0
    9.4152    4.0052  -10.7866 H   0  0  0  0  0  0  0  0  0  0  0  0
    1.8318    2.3414   -3.5489 H   0  0  0  0  0  0  0  0  0  0  0  0
   -2.3420    2.1433   -3.8580 H   0  0  0  0  0  0  0  0  0  0  0  0
   -1.2084    0.7762   -4.0975 H   0  0  0  0  0  0  0  0  0  0  0  0
   -1.9812    1.5613   -5.5190 H   0  0  0  0  0  0  0  0  0  0  0  0
   -1.9299    3.5491   -8.4339 H   0  0  0  0  0  0  0  0  0  0  0  0
   -0.1918    3.7402   -8.8308 H   0  0  0  0  0  0  0  0  0  0  0  0
   -0.8588    4.4651   -7.3234 H   0  0  0  0  0  0  0  0  0  0  0  0
  1  2  1  0
  1 34  1  0
  1 35  1  0
  1 36  1  0
  2  3  1  0
  3  4  2  0
  3 31  1  0
  4  5  1  0
  4 37  1  0
  5  6  1  0
  5 27  2  0
  6  7  1  0
  6 38  1  0
  6 39  1  0
  7  8  1  0
  7 40  1  0
  7 41  1  0
  8  9  2  0
  8 10  1  0
 10 11  1  0
 11 12  1  0
 11 42  1  0
 11 43  1  0
 12 13  2  0
 12 14  1  0
 14 15  1  0
 14 26  1  0
 15 16  1  0
 15 44  1  0
 15 45  1  0
 16 17  1  0
 16 46  1  0
 16 47  1  0
 17 18  1  0
 17 25  1  0
 18 19  2  0
 18 24  1  0
 19 20  1  0
 19 48  1  0
 20 21  2  0
 20 49  1  0
 21 22  1  0
 21 50  1  0
 22 23  1  0
 22 24  2  0
 24 51  1  0
 25 26  1  0
 25 52  1  0
 25 53  1  0
 26 54  1  0
 26 55  1  0
 27 28  1  0
 27 56  1  0
 28 29  1  0
 28 31  2  0
 29 30  1  0
 30 57  1  0
 30 58  1  0
 30 59  1  0
 31 32  1  0
 32 33  1  0
 33 60  1  0
 33 61  1  0
 33 62  1  0
M  END

