
     RDKit          3D

 19 20  0  0  0  0  0  0  0  0999 V2000
    1.0410    0.0083    0.0109 N   0  0  0  0  0  0  0  0  0  0  0  0
    2.2023   -0.0071   -0.0190 C   0  0  0  0  0  0  0  0  0  0  0  0
    3.6376   -0.0196   -0.0544 C   0  0  0  0  0  0  0  0  0  0  0  0
    4.3108   -1.2353   -0.0635 C   0  0  0  0  0  0  0  0  0  0  0  0
    5.7221   -1.2716   -0.0982 C   0  0  0  0  0  0  0  0  0  0  0  0
    6.4463   -0.0977   -0.1233 C   0  0  0  0  0  0  0  0  0  0  0  0
    5.7964    1.1677   -0.1149 C   0  0  0  0  0  0  0  0  0  0  0  0
    6.5287    2.3880   -0.1403 C   0  0  0  0  0  0  0  0  0  0  0  0
    5.8783    3.6032   -0.1315 C   0  0  0  0  0  0  0  0  0  0  0  0
    4.4622    3.6523   -0.0969 C   0  0  0  0  0  0  0  0  0  0  0  0
    3.7206    2.4891   -0.0716 C   0  0  0  0  0  0  0  0  0  0  0  0
    4.3629    1.2211   -0.0798 C   0  0  0  0  0  0  0  0  0  0  0  0
    3.7388   -2.1649   -0.0435 H   0  0  0  0  0  0  0  0  0  0  0  0
    6.2344   -2.2362   -0.1050 H   0  0  0  0  0  0  0  0  0  0  0  0
    7.5390   -0.1249   -0.1503 H   0  0  0  0  0  0  0  0  0  0  0  0
    7.6207    2.3433   -0.1670 H   0  0  0  0  0  0  0  0  0  0  0  0
    6.4523    4.5328   -0.1512 H   0  0  0  0  0  0  0  0  0  0  0  0
    3.9545    4.6199   -0.0903 H   0  0  0  0  0  0  0  0  0  0  0  0
    2.6294    2.5303   -0.0451 H   0  0  0  0  0  0  0  0  0  0  0  0
  1  2  3  0
  2  3  1  0
  3  4  2  0
  3 12  1  0
  4  5  1  0
  4 13  1  0
  5  6  2  0
  5 14  1  0
  6  7  1  0
  6 15  1  0
  7  8  1  0
  7 12  2  0
  8  9  2  0
  8 16  1  0
  9 10  1  0
  9 17  1  0
 10 11  2  0
 10 18  1  0
 11 12  1  0
 11 19  1  0
M  END

