
     RDKit          3D

 27 26  0  0  0  0  0  0  0  0999 V2000
    2.5356   -2.6504   -0.5778 C   0  0  0  0  0  0  0  0  0  0  0  0
    3.3181   -1.3674   -0.2947 C   0  0  0  0  0  0  0  0  0  0  0  0
    3.8970   -0.7144   -1.5536 C   0  0  0  0  0  0  0  0  0  0  0  0
    4.6889    0.5733   -1.2694 C   0  0  0  0  0  0  0  0  0  0  0  0
    5.2156    1.2380   -2.5086 C   0  0  0  0  0  0  0  0  0  0  0  0
    6.5074    1.4601   -2.7834 C   0  0  0  0  0  0  0  0  0  0  0  0
    7.0030    2.0936   -4.0432 C   0  0  1  0  0  0  0  0  0  0  0  0
    7.8059    3.7028   -3.6067 Cl  0  0  0  0  0  0  0  0  0  0  0  0
    7.9948    1.2241   -4.8185 C   0  0  0  0  0  0  0  0  0  0  0  0
    8.4632    1.8102   -6.1492 C   0  0  0  0  0  0  0  0  0  0  0  0
    2.1347   -3.0923    0.3484 H   0  0  0  0  0  0  0  0  0  0  0  0
    3.1726   -3.4107   -1.0602 H   0  0  0  0  0  0  0  0  0  0  0  0
    1.6831   -2.4604   -1.2514 H   0  0  0  0  0  0  0  0  0  0  0  0
    4.1401   -1.5843    0.4116 H   0  0  0  0  0  0  0  0  0  0  0  0
    2.6640   -0.6414    0.2218 H   0  0  0  0  0  0  0  0  0  0  0  0
    3.0759   -0.4901   -2.2597 H   0  0  0  0  0  0  0  0  0  0  0  0
    4.5539   -1.4338   -2.0752 H   0  0  0  0  0  0  0  0  0  0  0  0
    5.5227    0.3541   -0.5804 H   0  0  0  0  0  0  0  0  0  0  0  0
    4.0254    1.2823   -0.7380 H   0  0  0  0  0  0  0  0  0  0  0  0
    4.4614    1.5542   -3.2431 H   0  0  0  0  0  0  0  0  0  0  0  0
    7.2802    1.1608   -2.0642 H   0  0  0  0  0  0  0  0  0  0  0  0
    6.1582    2.3785   -4.6873 H   0  0  0  0  0  0  0  0  0  0  0  0
    7.4911    0.2557   -4.9908 H   0  0  0  0  0  0  0  0  0  0  0  0
    8.8598    1.0121   -4.1667 H   0  0  0  0  0  0  0  0  0  0  0  0
    7.6136    1.9901   -6.8291 H   0  0  0  0  0  0  0  0  0  0  0  0
    9.1572    1.1222   -6.6569 H   0  0  0  0  0  0  0  0  0  0  0  0
    8.9807    2.7688   -5.9969 H   0  0  0  0  0  0  0  0  0  0  0  0
  1  2  1  0
  1 11  1  0
  1 12  1  0
  1 13  1  0
  2  3  1  0
  2 14  1  0
  2 15  1  0
  3  4  1  0
  3 16  1  0
  3 17  1  0
  4  5  1  0
  4 18  1  0
  4 19  1  0
  5  6  2  0
  5 20  1  0
  6  7  1  0
  6 21  1  0
  7  8  1  0
  7  9  1  0
  7 22  1  6
  9 10  1  0
  9 23  1  0
  9 24  1  0
 10 25  1  0
 10 26  1  0
 10 27  1  0
M  END

