
     RDKit          3D

 53 56  0  0  0  0  0  0  0  0999 V2000
   -1.2493   -5.3995   -2.3957 O   0  0  0  0  0  0  0  0  0  0  0  0
   -1.1736   -4.4371   -3.1438 C   0  0  0  0  0  0  0  0  0  0  0  0
   -0.3075   -3.3791   -2.9600 N   0  0  0  0  0  0  0  0  0  0  0  0
    0.6814   -3.2103   -1.9932 C   0  0  0  0  0  0  0  0  0  0  0  0
    0.9290   -4.1719   -0.9906 C   0  0  0  0  0  0  0  0  0  0  0  0
    1.9369   -3.9692   -0.0527 C   0  0  0  0  0  0  0  0  0  0  0  0
    2.7285   -2.8143   -0.0751 C   0  0  0  0  0  0  0  0  0  0  0  0
    2.4951   -1.8570   -1.0541 C   0  0  0  0  0  0  0  0  0  0  0  0
    1.4817   -2.0256   -2.0178 C   0  0  0  0  0  0  0  0  0  0  0  0
    1.2713   -0.9779   -3.0433 C   0  0  0  0  0  0  0  0  0  0  0  0
    0.4441   -1.0166   -3.9423 O   0  0  0  0  0  0  0  0  0  0  0  0
    2.0672    0.0970   -2.8752 O   0  0  0  0  0  0  0  0  0  0  0  0
    2.0161    1.0914   -3.8788 C   0  0  0  0  0  0  0  0  0  0  0  0
    2.8414    0.6502   -5.1043 C   0  0  0  0  0  0  0  0  0  0  0  0
    3.3813   -0.4404   -5.1192 O   0  0  0  0  0  0  0  0  0  0  0  0
    2.9229    1.5418   -6.1406 N   0  0  0  0  0  0  0  0  0  0  0  0
    2.3092    2.8616   -6.1908 C   0  0  0  0  0  0  0  0  0  0  0  0
    3.3885    3.9445   -6.2581 C   0  0  0  0  0  0  0  0  0  0  0  0
    4.4201    3.6407   -7.3265 C   0  0  0  0  0  0  0  0  0  0  0  0
    5.2413    4.6597   -7.8360 C   0  0  0  0  0  0  0  0  0  0  0  0
    6.2039    4.3928   -8.8085 C   0  0  0  0  0  0  0  0  0  0  0  0
    6.3579    3.0878   -9.2898 C   0  0  0  0  0  0  0  0  0  0  0  0
    5.5478    2.0686   -8.7916 C   0  0  0  0  0  0  0  0  0  0  0  0
    4.5785    2.3285   -7.8099 C   0  0  0  0  0  0  0  0  0  0  0  0
    3.7069    1.1880   -7.3171 C   0  0  0  0  0  0  0  0  0  0  0  0
   -2.0596   -4.3268   -4.3600 C   0  0  0  0  0  0  0  0  0  0  0  0
   -3.1565   -5.2017   -4.4266 C   0  0  0  0  0  0  0  0  0  0  0  0
   -4.0194   -5.1751   -5.5217 C   0  0  0  0  0  0  0  0  0  0  0  0
   -3.7898   -4.2806   -6.5730 C   0  0  0  0  0  0  0  0  0  0  0  0
   -2.6923   -3.4162   -6.5225 C   0  0  0  0  0  0  0  0  0  0  0  0
   -1.8297   -3.4369   -5.4234 C   0  0  0  0  0  0  0  0  0  0  0  0
   -0.3788   -2.5826   -3.5955 H   0  0  0  0  0  0  0  0  0  0  0  0
    0.3141   -5.0676   -0.9721 H   0  0  0  0  0  0  0  0  0  0  0  0
    2.1068   -4.7327    0.7113 H   0  0  0  0  0  0  0  0  0  0  0  0
    3.5205   -2.6667    0.6622 H   0  0  0  0  0  0  0  0  0  0  0  0
    3.1021   -0.9534   -1.0982 H   0  0  0  0  0  0  0  0  0  0  0  0
    2.4433    1.9970   -3.4244 H   0  0  0  0  0  0  0  0  0  0  0  0
    0.9731    1.2863   -4.1711 H   0  0  0  0  0  0  0  0  0  0  0  0
    1.6538    3.0176   -5.3261 H   0  0  0  0  0  0  0  0  0  0  0  0
    1.6654    2.9192   -7.0886 H   0  0  0  0  0  0  0  0  0  0  0  0
    3.8861    4.0177   -5.2734 H   0  0  0  0  0  0  0  0  0  0  0  0
    2.9235    4.9266   -6.4458 H   0  0  0  0  0  0  0  0  0  0  0  0
    5.1173    5.6801   -7.4607 H   0  0  0  0  0  0  0  0  0  0  0  0
    6.8324    5.2000   -9.1928 H   0  0  0  0  0  0  0  0  0  0  0  0
    7.1102    2.8659  -10.0508 H   0  0  0  0  0  0  0  0  0  0  0  0
    5.6684    1.0471   -9.1650 H   0  0  0  0  0  0  0  0  0  0  0  0
    4.3139    0.3113   -7.0535 H   0  0  0  0  0  0  0  0  0  0  0  0
    3.0281    0.8669   -8.1329 H   0  0  0  0  0  0  0  0  0  0  0  0
   -3.3085   -5.8988   -3.6007 H   0  0  0  0  0  0  0  0  0  0  0  0
   -4.8735   -5.8562   -5.5586 H   0  0  0  0  0  0  0  0  0  0  0  0
   -4.4632   -4.2607   -7.4339 H   0  0  0  0  0  0  0  0  0  0  0  0
   -2.5007   -2.7240   -7.3462 H   0  0  0  0  0  0  0  0  0  0  0  0
   -0.9706   -2.7623   -5.4187 H   0  0  0  0  0  0  0  0  0  0  0  0
  1  2  2  0
  2  3  1  0
  2 26  1  0
  3  4  1  0
  3 32  1  0
  4  5  2  0
  4  9  1  0
  5  6  1  0
  5 33  1  0
  6  7  2  0
  6 34  1  0
  7  8  1  0
  7 35  1  0
  8  9  2  0
  8 36  1  0
  9 10  1  0
 10 11  2  0
 10 12  1  0
 12 13  1  0
 13 14  1  0
 13 37  1  0
 13 38  1  0
 14 15  2  0
 14 16  1  0
 16 17  1  0
 16 25  1  0
 17 18  1  0
 17 39  1  0
 17 40  1  0
 18 19  1  0
 18 41  1  0
 18 42  1  0
 19 20  2  0
 19 24  1  0
 20 21  1  0
 20 43  1  0
 21 22  2  0
 21 44  1  0
 22 23  1  0
 22 45  1  0
 23 24  2  0
 23 46  1  0
 24 25  1  0
 25 47  1  0
 25 48  1  0
 26 27  2  0
 26 31  1  0
 27 28  1  0
 27 49  1  0
 28 29  2  0
 28 50  1  0
 29 30  1  0
 29 51  1  0
 30 31  2  0
 30 52  1  0
 31 53  1  0
M  END

