
     RDKit          3D

 67 70  0  0  0  0  0  0  0  0999 V2000
    6.2758   -4.7499    4.2147 C   0  0  0  0  0  0  0  0  0  0  0  0
    6.6436   -4.2204    2.8422 C   0  0  0  0  0  0  0  0  0  0  0  0
    7.0552   -2.8668    2.9669 O   0  0  0  0  0  0  0  0  0  0  0  0
    7.4854   -2.2193    1.7799 C   0  0  1  0  0  0  0  0  0  0  0  0
    6.3352   -1.6301    0.9377 C   0  0  0  0  0  0  0  0  0  0  0  0
    5.4486   -0.6569    1.6823 C   0  0  0  0  0  0  0  0  0  0  0  0
    5.7535    0.7097    1.7374 C   0  0  0  0  0  0  0  0  0  0  0  0
    4.9529    1.6138    2.4450 C   0  0  0  0  0  0  0  0  0  0  0  0
    3.8131    1.1551    3.1215 C   0  0  0  0  0  0  0  0  0  0  0  0
    2.9700    1.9447    3.8349 O   0  0  0  0  0  0  0  0  0  0  0  0
    3.1997    3.3409    3.9039 C   0  0  0  0  0  0  0  0  0  0  0  0
    2.0818    3.9325    4.7623 C   0  0  0  0  0  0  0  0  0  0  0  0
    2.2399    5.3627    4.9677 N   0  0  0  0  0  0  0  0  0  0  0  0
    1.9180    6.1600    3.7991 C   0  0  0  0  0  0  0  0  0  0  0  0
    1.7463    5.8708    6.2684 C   0  0  1  0  0  0  0  0  0  0  0  0
    2.4420    7.1930    6.6445 C   0  0  0  0  0  0  0  0  0  0  0  0
    3.8040    7.1982    6.6574 C   0  0  0  0  0  0  0  0  0  0  0  0
    4.5896    8.3550    7.0685 C   0  0  0  0  0  0  0  0  0  0  0  0
    4.0005    9.3848    7.7049 C   0  0  0  0  0  0  0  0  0  0  0  0
    2.5233    9.3335    7.9940 C   0  0  0  0  0  0  0  0  0  0  0  0
    1.7570    8.4491    7.0253 C   0  0  0  0  0  0  0  0  0  0  0  0
    0.5736    8.8640    6.5283 C   0  0  0  0  0  0  0  0  0  0  0  0
   -0.3050    8.1043    5.5644 C   0  0  0  0  0  0  0  0  0  0  0  0
   -0.7234    6.7397    6.0741 C   0  0  0  0  0  0  0  0  0  0  0  0
   -2.0918    6.4675    6.2297 C   0  0  0  0  0  0  0  0  0  0  0  0
   -2.5476    5.2624    6.7664 C   0  0  0  0  0  0  0  0  0  0  0  0
   -1.6191    4.3065    7.1779 C   0  0  0  0  0  0  0  0  0  0  0  0
   -0.2563    4.5675    7.0262 C   0  0  0  0  0  0  0  0  0  0  0  0
    0.2230    5.7644    6.4637 C   0  0  0  0  0  0  0  0  0  0  0  0
    3.4932   -0.2130    3.0741 C   0  0  0  0  0  0  0  0  0  0  0  0
    4.3013   -1.0969    2.3667 C   0  0  0  0  0  0  0  0  0  0  0  0
    8.4957   -1.1273    2.1820 C   0  0  0  0  0  0  0  0  0  0  0  0
    8.9804   -0.3739    1.3787 O   0  0  0  0  0  0  0  0  0  0  0  0
    8.7895   -1.1040    3.4820 O   0  0  0  0  0  0  0  0  0  0  0  0
    5.9467   -5.7981    4.1438 H   0  0  0  0  0  0  0  0  0  0  0  0
    5.4587   -4.1570    4.6534 H   0  0  0  0  0  0  0  0  0  0  0  0
    7.1395   -4.7050    4.8965 H   0  0  0  0  0  0  0  0  0  0  0  0
    5.7773   -4.2910    2.1578 H   0  0  0  0  0  0  0  0  0  0  0  0
    7.4624   -4.8182    2.3942 H   0  0  0  0  0  0  0  0  0  0  0  0
    8.0504   -2.9339    1.1481 H   0  0  0  0  0  0  0  0  0  0  0  0
    5.7325   -2.4633    0.5412 H   0  0  0  0  0  0  0  0  0  0  0  0
    6.8085   -1.1395    0.0739 H   0  0  0  0  0  0  0  0  0  0  0  0
    6.6414    1.0822    1.2205 H   0  0  0  0  0  0  0  0  0  0  0  0
    5.2294    2.6681    2.4605 H   0  0  0  0  0  0  0  0  0  0  0  0
    3.2066    3.7722    2.8867 H   0  0  0  0  0  0  0  0  0  0  0  0
    4.1792    3.5592    4.3674 H   0  0  0  0  0  0  0  0  0  0  0  0
    2.1264    3.4222    5.7358 H   0  0  0  0  0  0  0  0  0  0  0  0
    1.1036    3.6568    4.3131 H   0  0  0  0  0  0  0  0  0  0  0  0
    2.5053    5.8186    2.9332 H   0  0  0  0  0  0  0  0  0  0  0  0
    2.1910    7.2107    3.9746 H   0  0  0  0  0  0  0  0  0  0  0  0
    0.8463    6.1135    3.5072 H   0  0  0  0  0  0  0  0  0  0  0  0
    2.1543    5.1494    6.9940 H   0  0  0  0  0  0  0  0  0  0  0  0
    4.3331    6.3028    6.3199 H   0  0  0  0  0  0  0  0  0  0  0  0
    5.6682    8.3482    6.8886 H   0  0  0  0  0  0  0  0  0  0  0  0
    4.5833   10.2337    8.0748 H   0  0  0  0  0  0  0  0  0  0  0  0
    2.0834   10.3431    8.0119 H   0  0  0  0  0  0  0  0  0  0  0  0
    2.3961    8.9369    9.0263 H   0  0  0  0  0  0  0  0  0  0  0  0
    0.2150    9.8525    6.8362 H   0  0  0  0  0  0  0  0  0  0  0  0
    0.2105    8.0066    4.5948 H   0  0  0  0  0  0  0  0  0  0  0  0
   -1.2084    8.6956    5.3572 H   0  0  0  0  0  0  0  0  0  0  0  0
   -2.8164    7.2304    5.9305 H   0  0  0  0  0  0  0  0  0  0  0  0
   -3.6199    5.0810    6.8758 H   0  0  0  0  0  0  0  0  0  0  0  0
   -1.9495    3.3634    7.6207 H   0  0  0  0  0  0  0  0  0  0  0  0
    0.4641    3.8172    7.3634 H   0  0  0  0  0  0  0  0  0  0  0  0
    2.5990   -0.5551    3.5994 H   0  0  0  0  0  0  0  0  0  0  0  0
    4.0276   -2.1556    2.3368 H   0  0  0  0  0  0  0  0  0  0  0  0
    8.2403   -1.8002    3.8977 H   0  0  0  0  0  0  0  0  0  0  0  0
  1  2  1  0
  1 35  1  0
  1 36  1  0
  1 37  1  0
  2  3  1  0
  2 38  1  0
  2 39  1  0
  3  4  1  0
  4  5  1  0
  4 32  1  0
  4 40  1  6
  5  6  1  0
  5 41  1  0
  5 42  1  0
  6  7  2  0
  6 31  1  0
  7  8  1  0
  7 43  1  0
  8  9  2  0
  8 44  1  0
  9 10  1  0
  9 30  1  0
 10 11  1  0
 11 12  1  0
 11 45  1  0
 11 46  1  0
 12 13  1  0
 12 47  1  0
 12 48  1  0
 13 14  1  0
 13 15  1  0
 14 49  1  0
 14 50  1  0
 14 51  1  0
 15 16  1  0
 15 29  1  0
 15 52  1  1
 16 17  2  0
 16 21  1  0
 17 18  1  0
 17 53  1  0
 18 19  2  0
 18 54  1  0
 19 20  1  0
 19 55  1  0
 20 21  1  0
 20 56  1  0
 20 57  1  0
 21 22  2  0
 22 23  1  0
 22 58  1  0
 23 24  1  0
 23 59  1  0
 23 60  1  0
 24 25  1  0
 24 29  2  0
 25 26  2  0
 25 61  1  0
 26 27  1  0
 26 62  1  0
 27 28  2  0
 27 63  1  0
 28 29  1  0
 28 64  1  0
 30 31  2  0
 30 65  1  0
 31 66  1  0
 32 33  2  0
 32 34  1  0
 34 67  1  0
M  END

