
     RDKit          3D

 55 57  0  0  0  0  0  0  0  0999 V2000
    3.2238    2.3787   -2.6837 N   0  0  0  0  0  0  0  0  0  0  0  0
    3.9366    1.6891   -2.0804 C   0  0  0  0  0  0  0  0  0  0  0  0
    4.8077    0.8538   -1.2962 C   0  0  0  0  0  0  0  0  0  0  0  0
    4.8893    1.0068    0.0995 C   0  0  0  0  0  0  0  0  0  0  0  0
    5.6784    0.2432    0.8427 N   0  0  0  0  0  0  0  0  0  0  0  0
    6.4086   -0.6958    0.2210 C   0  0  0  0  0  0  0  0  0  0  0  0
    7.1895   -1.4821    1.0183 N   0  0  0  0  0  0  0  0  0  0  0  0
    8.0454   -2.5474    0.5747 C   0  0  0  0  0  0  0  0  0  0  0  0
    9.3484   -2.0588    0.1648 N   0  0  0  0  0  0  0  0  0  0  0  0
   10.3440   -2.8932   -0.3218 C   0  0  0  0  0  0  0  0  0  0  0  0
   11.5008   -2.3471   -0.9138 C   0  0  0  0  0  0  0  0  0  0  0  0
   12.5205   -3.1721   -1.3774 C   0  0  0  0  0  0  0  0  0  0  0  0
   12.4647   -4.5749   -1.2869 C   0  0  0  0  0  0  0  0  0  0  0  0
   13.5704   -5.4855   -1.7757 C   0  0  0  0  0  0  0  0  0  0  0  0
   14.7444   -4.8092   -2.4805 C   0  0  0  0  0  0  0  0  0  0  0  0
   15.7458   -5.7901   -2.8579 N   0  0  0  0  0  0  0  0  0  0  0  0
   16.9150   -5.2482   -3.5298 C   0  0  0  0  0  0  0  0  0  0  0  0
   17.9437   -6.3420   -3.8689 C   0  0  1  0  0  0  0  0  0  0  0  0
   19.1238   -5.7907   -4.6960 C   0  0  0  0  0  0  0  0  0  0  0  0
   20.1095   -4.9562   -3.8637 C   0  0  0  0  0  0  0  0  0  0  0  0
   20.6129   -5.7361   -2.6418 C   0  0  0  0  0  0  0  0  0  0  0  0
   19.4477   -6.2564   -1.7896 C   0  0  0  0  0  0  0  0  0  0  0  0
   18.4616   -7.0894   -2.6216 C   0  0  0  0  0  0  0  0  0  0  0  0
   11.3012   -5.0946   -0.6961 C   0  0  0  0  0  0  0  0  0  0  0  0
   11.1145   -6.8341   -0.5305 Cl  0  0  0  0  0  0  0  0  0  0  0  0
   10.2564   -4.2949   -0.2254 C   0  0  0  0  0  0  0  0  0  0  0  0
    6.3456   -0.8315   -1.1974 C   0  0  0  0  0  0  0  0  0  0  0  0
    5.5533   -0.0712   -1.9270 N   0  0  0  0  0  0  0  0  0  0  0  0
    4.2961    1.7721    0.6117 H   0  0  0  0  0  0  0  0  0  0  0  0
    7.1959   -1.2152    1.9974 H   0  0  0  0  0  0  0  0  0  0  0  0
    7.5369   -3.1088   -0.2355 H   0  0  0  0  0  0  0  0  0  0  0  0
    8.1655   -3.2570    1.4105 H   0  0  0  0  0  0  0  0  0  0  0  0
    9.3672   -1.1002   -0.1628 H   0  0  0  0  0  0  0  0  0  0  0  0
   11.5988   -1.2618   -1.0048 H   0  0  0  0  0  0  0  0  0  0  0  0
   13.3951   -2.7005   -1.8286 H   0  0  0  0  0  0  0  0  0  0  0  0
   13.1297   -6.2376   -2.4557 H   0  0  0  0  0  0  0  0  0  0  0  0
   13.9681   -6.0721   -0.9295 H   0  0  0  0  0  0  0  0  0  0  0  0
   15.2217   -4.0817   -1.7996 H   0  0  0  0  0  0  0  0  0  0  0  0
   14.3715   -4.2155   -3.3478 H   0  0  0  0  0  0  0  0  0  0  0  0
   15.3203   -6.5153   -3.4365 H   0  0  0  0  0  0  0  0  0  0  0  0
   17.3628   -4.4901   -2.8637 H   0  0  0  0  0  0  0  0  0  0  0  0
   16.6560   -4.7046   -4.4686 H   0  0  0  0  0  0  0  0  0  0  0  0
   17.4123   -7.0772   -4.5036 H   0  0  0  0  0  0  0  0  0  0  0  0
   18.7462   -5.2000   -5.5487 H   0  0  0  0  0  0  0  0  0  0  0  0
   19.6704   -6.6458   -5.1329 H   0  0  0  0  0  0  0  0  0  0  0  0
   19.6230   -4.0231   -3.5263 H   0  0  0  0  0  0  0  0  0  0  0  0
   20.9583   -4.6430   -4.4951 H   0  0  0  0  0  0  0  0  0  0  0  0
   21.2854   -5.1066   -2.0345 H   0  0  0  0  0  0  0  0  0  0  0  0
   21.2199   -6.5942   -2.9871 H   0  0  0  0  0  0  0  0  0  0  0  0
   18.9200   -5.4011   -1.3303 H   0  0  0  0  0  0  0  0  0  0  0  0
   19.8287   -6.8610   -0.9490 H   0  0  0  0  0  0  0  0  0  0  0  0
   17.6048   -7.3978   -2.0033 H   0  0  0  0  0  0  0  0  0  0  0  0
   18.9700   -8.0127   -2.9544 H   0  0  0  0  0  0  0  0  0  0  0  0
    9.3891   -4.7861    0.2135 H   0  0  0  0  0  0  0  0  0  0  0  0
    6.9618   -1.5642   -1.7278 H   0  0  0  0  0  0  0  0  0  0  0  0
  1  2  3  0
  2  3  1  0
  3  4  2  0
  3 28  1  0
  4  5  1  0
  4 29  1  0
  5  6  2  0
  6  7  1  0
  6 27  1  0
  7  8  1  0
  7 30  1  0
  8  9  1  0
  8 31  1  0
  8 32  1  0
  9 10  1  0
  9 33  1  0
 10 11  2  0
 10 26  1  0
 11 12  1  0
 11 34  1  0
 12 13  2  0
 12 35  1  0
 13 14  1  0
 13 24  1  0
 14 15  1  0
 14 36  1  0
 14 37  1  0
 15 16  1  0
 15 38  1  0
 15 39  1  0
 16 17  1  0
 16 40  1  0
 17 18  1  0
 17 41  1  0
 17 42  1  0
 18 19  1  0
 18 23  1  0
 18 43  1  6
 19 20  1  0
 19 44  1  0
 19 45  1  0
 20 21  1  0
 20 46  1  0
 20 47  1  0
 21 22  1  0
 21 48  1  0
 21 49  1  0
 22 23  1  0
 22 50  1  0
 22 51  1  0
 23 52  1  0
 23 53  1  0
 24 25  1  0
 24 26  2  0
 26 54  1  0
 27 28  2  0
 27 55  1  0
M  END

