
     RDKit          3D

 69 71  0  0  0  0  0  0  0  0999 V2000
    6.7905   -4.5586    6.0592 C   0  0  0  0  0  0  0  0  0  0  0  0
    7.9109   -5.3316    5.6650 O   0  0  0  0  0  0  0  0  0  0  0  0
    7.6314   -6.5983    5.1352 C   0  0  1  0  0  0  0  0  0  0  0  0
    6.8574   -7.4701    6.0414 C   0  0  0  0  0  0  0  0  0  0  0  0
    6.2308   -8.2226    6.7568 C   0  0  0  0  0  0  0  0  0  0  0  0
    5.3691   -9.1490    7.4918 C   0  0  0  0  0  0  0  0  0  0  0  0
    3.9204   -9.1203    6.9560 C   0  0  0  0  0  0  0  0  0  0  0  0
    3.8644   -9.3206    5.5220 N   0  0  0  0  0  0  0  0  0  0  0  0
    3.2723  -10.3957    4.9364 C   0  0  0  0  0  0  0  0  0  0  0  0
    2.6913  -11.2723    5.5607 O   0  0  0  0  0  0  0  0  0  0  0  0
    3.3436  -10.4322    3.4010 C   0  0  2  0  0  0  0  0  0  0  0  0
    4.2947   -9.9994    3.0535 H   0  0  0  0  0  0  0  0  0  0  0  0
    2.1685   -9.6617    2.7482 C   0  0  0  0  0  0  0  0  0  0  0  0
    2.1328   -8.1312    2.9165 C   0  0  1  0  0  0  0  0  0  0  0  0
    3.3603   -7.4355    2.3083 C   0  0  0  0  0  0  0  0  0  0  0  0
    0.8402   -7.5769    2.3008 C   0  0  0  0  0  0  0  0  0  0  0  0
    3.3237  -11.8318    3.0250 N   0  0  0  0  0  0  0  0  0  0  0  0
    3.8768  -12.2803    1.8725 C   0  0  0  0  0  0  0  0  0  0  0  0
    4.4264  -11.5860    1.0385 O   0  0  0  0  0  0  0  0  0  0  0  0
    3.7296  -13.6282    1.7681 O   0  0  0  0  0  0  0  0  0  0  0  0
    4.2467  -14.2394    0.5842 C   0  0  0  0  0  0  0  0  0  0  0  0
    3.2672  -14.1465   -0.5983 C   0  0  2  0  0  0  0  0  0  0  0  0
    1.9668  -14.9101   -0.4055 C   0  0  0  0  0  0  0  0  0  0  0  0
    0.9954  -14.7717    0.5853 C   0  0  0  0  0  0  0  0  0  0  0  0
   -0.1324  -15.6034    0.5532 C   0  0  0  0  0  0  0  0  0  0  0  0
   -0.2863  -16.5605   -0.4585 C   0  0  0  0  0  0  0  0  0  0  0  0
    0.6840  -16.7039   -1.4555 C   0  0  0  0  0  0  0  0  0  0  0  0
    1.8117  -15.8765   -1.4255 C   0  0  0  0  0  0  0  0  0  0  0  0
    2.9713  -15.7971   -2.3262 C   0  0  0  0  0  0  0  0  0  0  0  0
    3.2921  -16.5220   -3.4790 C   0  0  0  0  0  0  0  0  0  0  0  0
    4.4789  -16.2245   -4.1572 C   0  0  0  0  0  0  0  0  0  0  0  0
    5.3326  -15.2148   -3.6937 C   0  0  0  0  0  0  0  0  0  0  0  0
    5.0126  -14.4853   -2.5400 C   0  0  0  0  0  0  0  0  0  0  0  0
    3.8329  -14.7796   -1.8589 C   0  0  0  0  0  0  0  0  0  0  0  0
    6.9232   -6.5385    3.9202 O   0  0  0  0  0  0  0  0  0  0  0  0
    7.6760   -6.0192    2.8390 C   0  0  0  0  0  0  0  0  0  0  0  0
    7.1776   -3.5798    6.3742 H   0  0  0  0  0  0  0  0  0  0  0  0
    6.2551   -5.0230    6.9067 H   0  0  0  0  0  0  0  0  0  0  0  0
    6.0792   -4.4176    5.2278 H   0  0  0  0  0  0  0  0  0  0  0  0
    8.6324   -7.0421    4.9672 H   0  0  0  0  0  0  0  0  0  0  0  0
    5.3626   -8.9020    8.5673 H   0  0  0  0  0  0  0  0  0  0  0  0
    5.7742  -10.1719    7.4035 H   0  0  0  0  0  0  0  0  0  0  0  0
    3.4552   -8.1546    7.2185 H   0  0  0  0  0  0  0  0  0  0  0  0
    3.3300   -9.9224    7.4189 H   0  0  0  0  0  0  0  0  0  0  0  0
    4.3996   -8.6816    4.9424 H   0  0  0  0  0  0  0  0  0  0  0  0
    1.2324  -10.0979    3.1371 H   0  0  0  0  0  0  0  0  0  0  0  0
    2.2081   -9.8977    1.6712 H   0  0  0  0  0  0  0  0  0  0  0  0
    2.1076   -7.9003    3.9970 H   0  0  0  0  0  0  0  0  0  0  0  0
    3.4716   -7.6979    1.2425 H   0  0  0  0  0  0  0  0  0  0  0  0
    4.3062   -7.6962    2.8102 H   0  0  0  0  0  0  0  0  0  0  0  0
    3.2600   -6.3400    2.3749 H   0  0  0  0  0  0  0  0  0  0  0  0
    0.8048   -7.7728    1.2154 H   0  0  0  0  0  0  0  0  0  0  0  0
    0.7645   -6.4871    2.4452 H   0  0  0  0  0  0  0  0  0  0  0  0
   -0.0526   -8.0394    2.7516 H   0  0  0  0  0  0  0  0  0  0  0  0
    2.9109  -12.4790    3.6913 H   0  0  0  0  0  0  0  0  0  0  0  0
    4.4274  -15.2901    0.8509 H   0  0  0  0  0  0  0  0  0  0  0  0
    5.1986  -13.7597    0.3153 H   0  0  0  0  0  0  0  0  0  0  0  0
    3.0725  -13.0725   -0.7693 H   0  0  0  0  0  0  0  0  0  0  0  0
    1.1126  -14.0294    1.3771 H   0  0  0  0  0  0  0  0  0  0  0  0
   -0.8999  -15.5036    1.3252 H   0  0  0  0  0  0  0  0  0  0  0  0
   -1.1730  -17.1997   -0.4691 H   0  0  0  0  0  0  0  0  0  0  0  0
    0.5587  -17.4506   -2.2440 H   0  0  0  0  0  0  0  0  0  0  0  0
    2.6287  -17.3085   -3.8480 H   0  0  0  0  0  0  0  0  0  0  0  0
    4.7420  -16.7834   -5.0590 H   0  0  0  0  0  0  0  0  0  0  0  0
    6.2541  -14.9919   -4.2376 H   0  0  0  0  0  0  0  0  0  0  0  0
    5.6789  -13.6922   -2.1897 H   0  0  0  0  0  0  0  0  0  0  0  0
    7.0176   -6.0120    1.9598 H   0  0  0  0  0  0  0  0  0  0  0  0
    8.5560   -6.6545    2.6213 H   0  0  0  0  0  0  0  0  0  0  0  0
    8.0271   -4.9930    3.0408 H   0  0  0  0  0  0  0  0  0  0  0  0
  1  2  1  0
  1 37  1  0
  1 38  1  0
  1 39  1  0
  2  3  1  0
  3  4  1  0
  3 35  1  0
  3 40  1  6
  4  5  3  0
  5  6  1  0
  6  7  1  0
  6 41  1  0
  6 42  1  0
  7  8  1  0
  7 43  1  0
  7 44  1  0
  8  9  1  0
  8 45  1  0
  9 10  2  0
  9 11  1  0
 11 12  1  1
 11 13  1  0
 11 17  1  0
 13 14  1  0
 13 46  1  0
 13 47  1  0
 14 15  1  0
 14 16  1  0
 14 48  1  1
 15 49  1  0
 15 50  1  0
 15 51  1  0
 16 52  1  0
 16 53  1  0
 16 54  1  0
 17 18  1  0
 17 55  1  0
 18 19  2  0
 18 20  1  0
 20 21  1  0
 21 22  1  0
 21 56  1  0
 21 57  1  0
 22 23  1  0
 22 34  1  0
 22 58  1  6
 23 24  2  0
 23 28  1  0
 24 25  1  0
 24 59  1  0
 25 26  2  0
 25 60  1  0
 26 27  1  0
 26 61  1  0
 27 28  2  0
 27 62  1  0
 28 29  1  0
 29 30  2  0
 29 34  1  0
 30 31  1  0
 30 63  1  0
 31 32  2  0
 31 64  1  0
 32 33  1  0
 32 65  1  0
 33 34  2  0
 33 66  1  0
 35 36  1  0
 36 67  1  0
 36 68  1  0
 36 69  1  0
M  END

