
     RDKit          3D

 35 37  0  0  0  0  0  0  0  0999 V2000
    0.6811   -0.6424    0.8632 N   0  0  0  0  0  0  0  0  0  0  0  0
    2.0088   -0.3601    0.3356 C   0  0  1  0  0  0  0  0  0  0  0  0
    2.9337    0.3902    1.3471 C   0  0  0  0  0  0  0  0  0  0  0  0
    2.5238    1.8265    1.6028 C   0  0  0  0  0  0  0  0  0  0  0  0
    3.4735    2.8767    1.4157 C   0  0  0  0  0  0  0  0  0  0  0  0
    3.1018    4.1797    1.6523 C   0  0  0  0  0  0  0  0  0  0  0  0
    1.7767    4.4661    2.0738 C   0  0  0  0  0  0  0  0  0  0  0  0
    1.3026    5.7794    2.3411 C   0  0  0  0  0  0  0  0  0  0  0  0
   -0.0008    5.9837    2.7433 C   0  0  0  0  0  0  0  0  0  0  0  0
   -0.8826    4.8822    2.8946 C   0  0  0  0  0  0  0  0  0  0  0  0
   -0.4512    3.5965    2.6432 C   0  0  0  0  0  0  0  0  0  0  0  0
    0.8875    3.3518    2.2265 C   0  0  0  0  0  0  0  0  0  0  0  0
    1.2836    2.0706    1.9898 N   0  0  0  0  0  0  0  0  0  0  0  0
    2.6732   -1.6306   -0.1857 C   0  0  0  0  0  0  0  0  0  0  0  0
    2.1086   -2.9016   -0.0120 C   0  0  0  0  0  0  0  0  0  0  0  0
    2.7234   -4.0619   -0.4928 C   0  0  0  0  0  0  0  0  0  0  0  0
    3.9315   -3.9563   -1.1833 C   0  0  0  0  0  0  0  0  0  0  0  0
    4.7901   -5.5233   -1.8484 Br  0  0  0  0  0  0  0  0  0  0  0  0
    4.5187   -2.7084   -1.4052 C   0  0  0  0  0  0  0  0  0  0  0  0
    3.8738   -1.5809   -0.9070 C   0  0  0  0  0  0  0  0  0  0  0  0
    4.4398   -0.3802   -1.1501 F   0  0  0  0  0  0  0  0  0  0  0  0
    0.2694    0.2492    1.1450 H   0  0  0  0  0  0  0  0  0  0  0  0
    0.7768   -1.1610    1.7401 H   0  0  0  0  0  0  0  0  0  0  0  0
    1.8786    0.3076   -0.5354 H   0  0  0  0  0  0  0  0  0  0  0  0
    3.9723    0.3811    0.9925 H   0  0  0  0  0  0  0  0  0  0  0  0
    2.9114   -0.1709    2.2986 H   0  0  0  0  0  0  0  0  0  0  0  0
    4.4860    2.6340    1.0864 H   0  0  0  0  0  0  0  0  0  0  0  0
    3.8136    4.9992    1.5172 H   0  0  0  0  0  0  0  0  0  0  0  0
    1.9875    6.6236    2.2216 H   0  0  0  0  0  0  0  0  0  0  0  0
   -0.3600    6.9954    2.9470 H   0  0  0  0  0  0  0  0  0  0  0  0
   -1.9129    5.0584    3.2143 H   0  0  0  0  0  0  0  0  0  0  0  0
   -1.1152    2.7373    2.7567 H   0  0  0  0  0  0  0  0  0  0  0  0
    1.1427   -2.9736    0.4891 H   0  0  0  0  0  0  0  0  0  0  0  0
    2.2597   -5.0373   -0.3396 H   0  0  0  0  0  0  0  0  0  0  0  0
    5.4516   -2.5954   -1.9577 H   0  0  0  0  0  0  0  0  0  0  0  0
  1  2  1  0
  1 22  1  0
  1 23  1  0
  2  3  1  0
  2 14  1  0
  2 24  1  6
  3  4  1  0
  3 25  1  0
  3 26  1  0
  4  5  2  0
  4 13  1  0
  5  6  1  0
  5 27  1  0
  6  7  2  0
  6 28  1  0
  7  8  1  0
  7 12  1  0
  8  9  2  0
  8 29  1  0
  9 10  1  0
  9 30  1  0
 10 11  2  0
 10 31  1  0
 11 12  1  0
 11 32  1  0
 12 13  2  0
 14 15  2  0
 14 20  1  0
 15 16  1  0
 15 33  1  0
 16 17  2  0
 16 34  1  0
 17 18  1  0
 17 19  1  0
 19 20  2  0
 19 35  1  0
 20 21  1  0
M  END

