
     RDKit          3D

 56 61  0  0  0  0  0  0  0  0999 V2000
    7.2561    2.3409    0.2316 O   0  0  0  0  0  0  0  0  0  0  0  0
    7.2049    2.3619    1.4460 C   0  0  0  0  0  0  0  0  0  0  0  0
    6.2067    3.0154    2.1434 N   0  0  0  0  0  0  0  0  0  0  0  0
    5.1986    3.6703    1.4704 N   0  0  0  0  0  0  0  0  0  0  0  0
    3.8535    3.2903    1.7823 C   0  0  0  0  0  0  0  0  0  0  0  0
    3.4865    1.8670    1.7226 C   0  0  0  0  0  0  0  0  0  0  0  0
    4.0300    1.0538    0.7072 C   0  0  0  0  0  0  0  0  0  0  0  0
    3.7029   -0.3015    0.6368 C   0  0  0  0  0  0  0  0  0  0  0  0
    2.8372   -0.8711    1.5760 C   0  0  0  0  0  0  0  0  0  0  0  0
    2.3057   -0.0755    2.5971 C   0  0  0  0  0  0  0  0  0  0  0  0
    2.6321    1.2789    2.6756 C   0  0  0  0  0  0  0  0  0  0  0  0
    3.1500    4.4174    2.0711 C   0  0  0  0  0  0  0  0  0  0  0  0
    1.7425    4.7020    2.3598 C   0  0  0  0  0  0  0  0  0  0  0  0
    0.6994    3.8702    1.9067 C   0  0  0  0  0  0  0  0  0  0  0  0
   -0.6291    4.1785    2.1982 C   0  0  0  0  0  0  0  0  0  0  0  0
   -0.9465    5.3225    2.9389 C   0  0  0  0  0  0  0  0  0  0  0  0
    0.0799    6.1656    3.3751 C   0  0  0  0  0  0  0  0  0  0  0  0
    1.4109    5.8654    3.0837 C   0  0  0  0  0  0  0  0  0  0  0  0
    3.9789    5.5339    2.0496 O   0  0  0  0  0  0  0  0  0  0  0  0
    5.1938    5.1541    1.4279 C   0  0  2  0  0  0  0  0  0  0  0  0
    5.1925    5.5842   -0.0879 C   0  0  0  0  0  0  0  0  0  0  0  0
    4.3454    5.3452   -0.9083 O   0  0  0  0  0  0  0  0  0  0  0  0
    6.3717    6.2776   -0.2889 N   0  0  0  0  0  0  0  0  0  0  0  0
    7.0780    6.4801    0.8993 C   0  0  0  0  0  0  0  0  0  0  0  0
    8.2525    7.2013    1.1061 C   0  0  0  0  0  0  0  0  0  0  0  0
    8.7364    7.3038    2.4183 C   0  0  0  0  0  0  0  0  0  0  0  0
    8.0623    6.7139    3.4931 C   0  0  0  0  0  0  0  0  0  0  0  0
    6.8842    5.9850    3.2676 C   0  0  0  0  0  0  0  0  0  0  0  0
    6.4082    5.8586    1.9694 C   0  0  0  0  0  0  0  0  0  0  0  0
    8.2286    1.6661    2.3026 C   0  0  0  0  0  0  0  0  0  0  0  0
    8.5244    2.0275    3.6268 C   0  0  0  0  0  0  0  0  0  0  0  0
    9.5001    1.3430    4.3541 C   0  0  0  0  0  0  0  0  0  0  0  0
   10.1884    0.2869    3.7504 C   0  0  0  0  0  0  0  0  0  0  0  0
   11.4060   -0.5771    4.6558 Cl  0  0  0  0  0  0  0  0  0  0  0  0
    9.9203   -0.0794    2.4265 C   0  0  0  0  0  0  0  0  0  0  0  0
    8.9496    0.6171    1.7102 C   0  0  0  0  0  0  0  0  0  0  0  0
    6.1159    2.8857    3.1492 H   0  0  0  0  0  0  0  0  0  0  0  0
    4.7111    1.4983   -0.0216 H   0  0  0  0  0  0  0  0  0  0  0  0
    4.1273   -0.9172   -0.1605 H   0  0  0  0  0  0  0  0  0  0  0  0
    2.5833   -1.9326    1.5183 H   0  0  0  0  0  0  0  0  0  0  0  0
    1.6399   -0.5153    3.3443 H   0  0  0  0  0  0  0  0  0  0  0  0
    2.2281    1.8895    3.4858 H   0  0  0  0  0  0  0  0  0  0  0  0
    0.9296    2.9900    1.3059 H   0  0  0  0  0  0  0  0  0  0  0  0
   -1.4250    3.5250    1.8318 H   0  0  0  0  0  0  0  0  0  0  0  0
   -1.9891    5.5615    3.1633 H   0  0  0  0  0  0  0  0  0  0  0  0
   -0.1576    7.0693    3.9425 H   0  0  0  0  0  0  0  0  0  0  0  0
    2.2090    6.5331    3.4112 H   0  0  0  0  0  0  0  0  0  0  0  0
    6.6340    6.6477   -1.1952 H   0  0  0  0  0  0  0  0  0  0  0  0
    8.7756    7.6809    0.2761 H   0  0  0  0  0  0  0  0  0  0  0  0
    9.6553    7.8664    2.6019 H   0  0  0  0  0  0  0  0  0  0  0  0
    8.4514    6.8251    4.5075 H   0  0  0  0  0  0  0  0  0  0  0  0
    6.3408    5.5358    4.1028 H   0  0  0  0  0  0  0  0  0  0  0  0
    8.0215    2.8737    4.1001 H   0  0  0  0  0  0  0  0  0  0  0  0
    9.7364    1.6293    5.3800 H   0  0  0  0  0  0  0  0  0  0  0  0
   10.4737   -0.9008    1.9684 H   0  0  0  0  0  0  0  0  0  0  0  0
    8.7326    0.3614    0.6715 H   0  0  0  0  0  0  0  0  0  0  0  0
  1  2  2  0
  2  3  1  0
  2 30  1  0
  3  4  1  0
  3 37  1  0
  4  5  1  0
  4 20  1  0
  5  6  1  0
  5 12  2  0
  6  7  2  0
  6 11  1  0
  7  8  1  0
  7 38  1  0
  8  9  2  0
  8 39  1  0
  9 10  1  0
  9 40  1  0
 10 11  2  0
 10 41  1  0
 11 42  1  0
 12 13  1  0
 12 19  1  0
 13 14  2  0
 13 18  1  0
 14 15  1  0
 14 43  1  0
 15 16  2  0
 15 44  1  0
 16 17  1  0
 16 45  1  0
 17 18  2  0
 17 46  1  0
 18 47  1  0
 20 19  1  1
 20 21  1  0
 20 29  1  0
 21 22  2  0
 21 23  1  0
 23 24  1  0
 23 48  1  0
 24 25  1  0
 24 29  2  0
 25 26  2  0
 25 49  1  0
 26 27  1  0
 26 50  1  0
 27 28  2  0
 27 51  1  0
 28 29  1  0
 28 52  1  0
 30 31  2  0
 30 36  1  0
 31 32  1  0
 31 53  1  0
 32 33  2  0
 32 54  1  0
 33 34  1  0
 33 35  1  0
 35 36  2  0
 35 55  1  0
 36 56  1  0
M  END

