
     RDKit          3D

 20 20  0  0  0  0  0  0  0  0999 V2000
    1.8619   -1.0542   -0.2682 C   0  0  0  0  0  0  0  0  0  0  0  0
    2.0536    0.2647   -0.1167 C   0  0  0  0  0  0  0  0  0  0  0  0
    2.8990    1.1536   -0.9356 C   0  0  0  0  0  0  0  0  0  0  0  0
    2.9758    2.5147   -0.5995 C   0  0  0  0  0  0  0  0  0  0  0  0
    3.7688    3.3867   -1.3537 C   0  0  0  0  0  0  0  0  0  0  0  0
    4.4918    2.9211   -2.4462 C   0  0  0  0  0  0  0  0  0  0  0  0
    4.4248    1.5588   -2.7967 C   0  0  0  0  0  0  0  0  0  0  0  0
    5.1601    1.1894   -3.8771 O   0  0  0  0  0  0  0  0  0  0  0  0
    5.1571   -0.1562   -4.2910 C   0  0  0  0  0  0  0  0  0  0  0  0
    3.6338    0.6834   -2.0451 C   0  0  0  0  0  0  0  0  0  0  0  0
    1.2060   -1.6070    0.4087 H   0  0  0  0  0  0  0  0  0  0  0  0
    2.3429   -1.6328   -1.0619 H   0  0  0  0  0  0  0  0  0  0  0  0
    1.5330    0.7683    0.7062 H   0  0  0  0  0  0  0  0  0  0  0  0
    2.4113    2.8903    0.2576 H   0  0  0  0  0  0  0  0  0  0  0  0
    3.8227    4.4446   -1.0837 H   0  0  0  0  0  0  0  0  0  0  0  0
    5.1162    3.5832   -3.0490 H   0  0  0  0  0  0  0  0  0  0  0  0
    5.8174   -0.2176   -5.1667 H   0  0  0  0  0  0  0  0  0  0  0  0
    4.1466   -0.4974   -4.5820 H   0  0  0  0  0  0  0  0  0  0  0  0
    5.5435   -0.8313   -3.5054 H   0  0  0  0  0  0  0  0  0  0  0  0
    3.5787   -0.3715   -2.3099 H   0  0  0  0  0  0  0  0  0  0  0  0
  1  2  2  0
  1 11  1  0
  1 12  1  0
  2  3  1  0
  2 13  1  0
  3  4  2  0
  3 10  1  0
  4  5  1  0
  4 14  1  0
  5  6  2  0
  5 15  1  0
  6  7  1  0
  6 16  1  0
  7  8  1  0
  7 10  2  0
  8  9  1  0
  9 17  1  0
  9 18  1  0
  9 19  1  0
 10 20  1  0
M  END

