
     RDKit          3D

 40 43  0  0  0  0  0  0  0  0999 V2000
    1.1186   -0.4338   -0.2849 C   0  0  0  0  0  0  0  0  0  0  0  0
    2.5721   -0.8191   -0.4657 C   0  0  0  0  0  0  0  0  0  0  0  0
    3.0946   -0.8771   -1.5578 O   0  0  0  0  0  0  0  0  0  0  0  0
    3.3553   -1.1311    0.8046 C   0  0  0  0  0  0  0  0  0  0  0  0
    4.8567   -1.2388    0.5421 C   0  0  0  0  0  0  0  0  0  0  0  0
    5.6137   -1.7140    1.7087 N   0  0  0  0  0  0  0  0  0  0  0  0
    6.0870   -2.9908    1.7473 C   0  0  0  0  0  0  0  0  0  0  0  0
    6.7981   -3.4989    2.8002 C   0  0  0  0  0  0  0  0  0  0  0  0
    7.0416   -2.6264    3.8901 C   0  0  0  0  0  0  0  0  0  0  0  0
    6.5814   -1.2990    3.9059 C   0  0  0  0  0  0  0  0  0  0  0  0
    6.8045   -0.4378    4.9455 N   0  0  0  0  0  0  0  0  0  0  0  0
    7.4671   -0.8231    5.9828 N   0  0  0  0  0  0  0  0  0  0  0  0
    7.9471   -2.0911    6.0479 C   0  0  0  0  0  0  0  0  0  0  0  0
    8.6871   -2.7856    7.0256 C   0  0  0  0  0  0  0  0  0  0  0  0
    9.1803   -2.3117    8.3272 C   0  0  0  0  0  0  0  0  0  0  0  0
    8.9423   -0.9928    8.7651 C   0  0  0  0  0  0  0  0  0  0  0  0
    9.4174   -0.5585   10.0034 C   0  0  0  0  0  0  0  0  0  0  0  0
   10.1380   -1.4235   10.8326 C   0  0  0  0  0  0  0  0  0  0  0  0
   10.3808   -2.7342   10.4100 C   0  0  0  0  0  0  0  0  0  0  0  0
    9.9082   -3.1731    9.1732 C   0  0  0  0  0  0  0  0  0  0  0  0
    8.8457   -4.0704    6.4476 C   0  0  0  0  0  0  0  0  0  0  0  0
    8.2794   -4.1975    5.2434 N   0  0  0  0  0  0  0  0  0  0  0  0
    7.7387   -3.0027    5.0051 N   0  0  0  0  0  0  0  0  0  0  0  0
    5.8121   -0.7728    2.7625 C   0  0  0  0  0  0  0  0  0  0  0  0
    5.3561    0.3482    2.6638 O   0  0  0  0  0  0  0  0  0  0  0  0
    0.6121   -0.4171   -1.2587 H   0  0  0  0  0  0  0  0  0  0  0  0
    1.0635    0.5709    0.1685 H   0  0  0  0  0  0  0  0  0  0  0  0
    0.6034   -1.1234    0.4030 H   0  0  0  0  0  0  0  0  0  0  0  0
    2.9601   -2.0805    1.2126 H   0  0  0  0  0  0  0  0  0  0  0  0
    3.1529   -0.3620    1.5669 H   0  0  0  0  0  0  0  0  0  0  0  0
    5.2507   -0.2520    0.2638 H   0  0  0  0  0  0  0  0  0  0  0  0
    5.0460   -1.9227   -0.2949 H   0  0  0  0  0  0  0  0  0  0  0  0
    5.8668   -3.6006    0.8683 H   0  0  0  0  0  0  0  0  0  0  0  0
    7.1704   -4.5208    2.8096 H   0  0  0  0  0  0  0  0  0  0  0  0
    8.3807   -0.3137    8.1223 H   0  0  0  0  0  0  0  0  0  0  0  0
    9.2213    0.4684   10.3226 H   0  0  0  0  0  0  0  0  0  0  0  0
   10.5084   -1.0795   11.8016 H   0  0  0  0  0  0  0  0  0  0  0  0
   10.9429   -3.4214   11.0478 H   0  0  0  0  0  0  0  0  0  0  0  0
   10.1107   -4.2012    8.8658 H   0  0  0  0  0  0  0  0  0  0  0  0
    9.3633   -4.9299    6.8716 H   0  0  0  0  0  0  0  0  0  0  0  0
  1  2  1  0
  1 26  1  0
  1 27  1  0
  1 28  1  0
  2  3  2  0
  2  4  1  0
  4  5  1  0
  4 29  1  0
  4 30  1  0
  5  6  1  0
  5 31  1  0
  5 32  1  0
  6  7  1  0
  6 24  1  0
  7  8  2  0
  7 33  1  0
  8  9  1  0
  8 34  1  0
  9 10  2  0
  9 23  1  0
 10 11  1  0
 10 24  1  0
 11 12  2  0
 12 13  1  0
 13 14  2  0
 13 23  1  0
 14 15  1  0
 14 21  1  0
 15 16  2  0
 15 20  1  0
 16 17  1  0
 16 35  1  0
 17 18  2  0
 17 36  1  0
 18 19  1  0
 18 37  1  0
 19 20  2  0
 19 38  1  0
 20 39  1  0
 21 22  2  0
 21 40  1  0
 22 23  1  0
 24 25  2  0
M  END

