
     RDKit          3D

 35 36  0  0  0  0  0  0  0  0999 V2000
    3.3656   -2.7896   -0.5939 C   0  0  0  0  0  0  0  0  0  0  0  0
    3.6435   -1.4646   -0.2341 O   0  0  0  0  0  0  0  0  0  0  0  0
    4.3713   -1.3425    0.9647 C   0  0  0  0  0  0  0  0  0  0  0  0
    4.6261    0.1468    1.2253 C   0  0  1  0  0  0  0  0  0  0  0  0
    3.2969    0.8952    1.3458 C   0  0  0  0  0  0  0  0  0  0  0  0
    5.3925    0.2981    2.4730 N   0  0  0  0  0  0  0  0  0  0  0  0
    6.5925   -0.5193    2.3565 O   0  0  0  0  0  0  0  0  0  0  0  0
    7.6715    0.3122    2.3888 C   0  0  0  0  0  0  0  0  0  0  0  0
    8.8655   -0.3418    2.1802 N   0  0  0  0  0  0  0  0  0  0  0  0
    7.3551    1.6016    2.5934 C   0  0  0  0  0  0  0  0  0  0  0  0
    5.8541    1.6870    2.7644 C   0  0  2  0  0  0  0  0  0  0  0  0
    5.3948    2.1263    4.1434 C   0  0  0  0  0  0  0  0  0  0  0  0
    4.8515    1.3769    5.1537 C   0  0  0  0  0  0  0  0  0  0  0  0
    4.5730    2.1391    6.3331 C   0  0  0  0  0  0  0  0  0  0  0  0
    4.9016    3.4670    6.2263 C   0  0  0  0  0  0  0  0  0  0  0  0
    4.7536    4.5578    7.2437 C   0  0  0  0  0  0  0  0  0  0  0  0
    5.5658    3.7927    4.6406 S   0  0  0  0  0  0  0  0  0  0  0  0
    2.8075   -2.7726   -1.5418 H   0  0  0  0  0  0  0  0  0  0  0  0
    2.7491   -3.3083    0.1688 H   0  0  0  0  0  0  0  0  0  0  0  0
    4.2911   -3.3837   -0.7402 H   0  0  0  0  0  0  0  0  0  0  0  0
    5.3307   -1.8854    0.8939 H   0  0  0  0  0  0  0  0  0  0  0  0
    3.8084   -1.7706    1.8214 H   0  0  0  0  0  0  0  0  0  0  0  0
    5.1989    0.5460    0.3613 H   0  0  0  0  0  0  0  0  0  0  0  0
    2.7430    0.5492    2.2328 H   0  0  0  0  0  0  0  0  0  0  0  0
    2.6959    0.6880    0.4504 H   0  0  0  0  0  0  0  0  0  0  0  0
    3.4295    1.9834    1.4278 H   0  0  0  0  0  0  0  0  0  0  0  0
    8.8372   -1.3330    2.3994 H   0  0  0  0  0  0  0  0  0  0  0  0
    9.6793    0.1231    2.5668 H   0  0  0  0  0  0  0  0  0  0  0  0
    8.0385    2.4420    2.6749 H   0  0  0  0  0  0  0  0  0  0  0  0
    5.4139    2.3791    2.0216 H   0  0  0  0  0  0  0  0  0  0  0  0
    4.6553    0.3112    5.0385 H   0  0  0  0  0  0  0  0  0  0  0  0
    4.1363    1.7142    7.2398 H   0  0  0  0  0  0  0  0  0  0  0  0
    4.3159    4.1497    8.1670 H   0  0  0  0  0  0  0  0  0  0  0  0
    4.0951    5.3691    6.8896 H   0  0  0  0  0  0  0  0  0  0  0  0
    5.7228    5.0155    7.5052 H   0  0  0  0  0  0  0  0  0  0  0  0
  1  2  1  0
  1 18  1  0
  1 19  1  0
  1 20  1  0
  2  3  1  0
  3  4  1  0
  3 21  1  0
  3 22  1  0
  4  5  1  0
  4  6  1  0
  4 23  1  6
  5 24  1  0
  5 25  1  0
  5 26  1  0
  6  7  1  0
  6 11  1  0
  7  8  1  0
  8  9  1  0
  8 10  2  0
  9 27  1  0
  9 28  1  0
 10 11  1  0
 10 29  1  0
 11 12  1  0
 11 30  1  6
 12 13  2  0
 12 17  1  0
 13 14  1  0
 13 31  1  0
 14 15  2  0
 14 32  1  0
 15 16  1  0
 15 17  1  0
 16 33  1  0
 16 34  1  0
 16 35  1  0
M  END

