
     RDKit          3D

 65 67  0  0  0  0  0  0  0  0999 V2000
    3.5247   -0.3340    6.2800 C   0  0  0  0  0  0  0  0  0  0  0  0
    2.9698    0.4081    5.0467 C   0  0  1  0  0  0  0  0  0  0  0  0
    1.5381    0.8987    5.3467 C   0  0  0  0  0  0  0  0  0  0  0  0
    3.8739    1.6195    4.7381 C   0  0  0  0  0  0  0  0  0  0  0  0
    2.9538   -0.7720    3.5392 Si  0  0  1  0  0  4  0  0  0  0  0  0
    1.9345   -2.3304    3.8607 C   0  0  0  0  0  0  0  0  0  0  0  0
    2.3097    0.0743    1.9777 C   0  0  0  0  0  0  0  0  0  0  0  0
    4.5738   -1.1960    3.3203 O   0  0  0  0  0  0  0  0  0  0  0  0
    5.1052   -2.0213    2.3059 C   0  0  0  0  0  0  0  0  0  0  0  0
    6.6295   -2.1220    2.4522 C   0  0  1  0  0  0  0  0  0  0  0  0
    7.0620   -2.7153    3.8059 C   0  0  0  0  0  0  0  0  0  0  0  0
    6.8490   -4.2336    3.9001 C   0  0  0  0  0  0  0  0  0  0  0  0
    7.5205   -5.0416    2.7570 C   0  0  1  0  0  0  0  0  0  0  0  0
    9.0684   -5.0084    2.8548 C   0  0  0  0  0  0  0  0  0  0  0  0
    9.6392   -5.8056    4.0466 C   0  0  0  0  0  0  0  0  0  0  0  0
    9.1407   -7.2292    4.0366 C   0  0  0  0  0  0  0  0  0  0  0  0
   10.0071   -8.2700    4.0372 C   0  0  0  0  0  0  0  0  0  0  0  0
    9.7495   -9.7039    3.9973 C   0  0  0  0  0  0  0  0  0  0  0  0
    8.7364  -10.4631    3.5209 C   0  0  0  0  0  0  0  0  0  0  0  0
    9.0518  -11.8941    3.7218 C   0  0  0  0  0  0  0  0  0  0  0  0
    8.4173  -12.8725    3.4398 O   0  0  0  0  0  0  0  0  0  0  0  0
   10.2879  -11.9626    4.3262 O   0  0  0  0  0  0  0  0  0  0  0  0
   10.7970  -10.6594    4.5314 C   0  0  0  0  0  0  0  0  0  0  0  0
    7.6379   -7.3169    3.9970 C   0  0  0  0  0  0  0  0  0  0  0  0
    7.0715   -6.5227    2.8023 C   0  0  0  0  0  0  0  0  0  0  0  0
    7.0558   -4.4335    1.4099 C   0  0  0  0  0  0  0  0  0  0  0  0
    7.2665   -2.9158    1.2952 C   0  0  0  0  0  0  0  0  0  0  0  0
    3.5639    0.3445    7.1517 H   0  0  0  0  0  0  0  0  0  0  0  0
    4.5451   -0.7087    6.1029 H   0  0  0  0  0  0  0  0  0  0  0  0
    2.8953   -1.1932    6.5649 H   0  0  0  0  0  0  0  0  0  0  0  0
    1.5394    1.5796    6.2172 H   0  0  0  0  0  0  0  0  0  0  0  0
    0.8545    0.0675    5.5873 H   0  0  0  0  0  0  0  0  0  0  0  0
    1.1031    1.4561    4.5006 H   0  0  0  0  0  0  0  0  0  0  0  0
    3.9207    2.2976    5.6098 H   0  0  0  0  0  0  0  0  0  0  0  0
    3.4978    2.2103    3.8865 H   0  0  0  0  0  0  0  0  0  0  0  0
    4.9021    1.3051    4.5002 H   0  0  0  0  0  0  0  0  0  0  0  0
    0.8765   -2.0864    4.0525 H   0  0  0  0  0  0  0  0  0  0  0  0
    2.3141   -2.8937    4.7282 H   0  0  0  0  0  0  0  0  0  0  0  0
    1.9591   -3.0035    2.9874 H   0  0  0  0  0  0  0  0  0  0  0  0
    1.2651    0.4041    2.1015 H   0  0  0  0  0  0  0  0  0  0  0  0
    2.3325   -0.6161    1.1180 H   0  0  0  0  0  0  0  0  0  0  0  0
    2.9143    0.9568    1.7138 H   0  0  0  0  0  0  0  0  0  0  0  0
    4.8765   -1.6049    1.3048 H   0  0  0  0  0  0  0  0  0  0  0  0
    4.6394   -3.0253    2.3438 H   0  0  0  0  0  0  0  0  0  0  0  0
    6.9965   -1.0818    2.4047 H   0  0  0  0  0  0  0  0  0  0  0  0
    6.5100   -2.2117    4.6144 H   0  0  0  0  0  0  0  0  0  0  0  0
    8.1274   -2.4784    3.9702 H   0  0  0  0  0  0  0  0  0  0  0  0
    5.7663   -4.4516    3.8777 H   0  0  0  0  0  0  0  0  0  0  0  0
    7.1959   -4.5836    4.8859 H   0  0  0  0  0  0  0  0  0  0  0  0
    9.4390   -3.9732    2.9075 H   0  0  0  0  0  0  0  0  0  0  0  0
    9.4817   -5.4358    1.9241 H   0  0  0  0  0  0  0  0  0  0  0  0
    9.3281   -5.3224    4.9913 H   0  0  0  0  0  0  0  0  0  0  0  0
   10.7399   -5.7766    4.0260 H   0  0  0  0  0  0  0  0  0  0  0  0
   11.0717   -8.0146    4.1175 H   0  0  0  0  0  0  0  0  0  0  0  0
    7.8216  -10.1556    3.0207 H   0  0  0  0  0  0  0  0  0  0  0  0
   11.7604  -10.5448    4.0009 H   0  0  0  0  0  0  0  0  0  0  0  0
   10.9869  -10.4987    5.6083 H   0  0  0  0  0  0  0  0  0  0  0  0
    7.2494   -6.8792    4.9350 H   0  0  0  0  0  0  0  0  0  0  0  0
    7.2831   -8.3536    3.9716 H   0  0  0  0  0  0  0  0  0  0  0  0
    5.9694   -6.5740    2.8174 H   0  0  0  0  0  0  0  0  0  0  0  0
    7.3940   -7.0166    1.8684 H   0  0  0  0  0  0  0  0  0  0  0  0
    5.9841   -4.6673    1.2797 H   0  0  0  0  0  0  0  0  0  0  0  0
    7.5758   -4.9436    0.5803 H   0  0  0  0  0  0  0  0  0  0  0  0
    6.8708   -2.5618    0.3272 H   0  0  0  0  0  0  0  0  0  0  0  0
    8.3473   -2.6962    1.2722 H   0  0  0  0  0  0  0  0  0  0  0  0
  2  1  1  1
  1 28  1  0
  1 29  1  0
  1 30  1  0
  2  3  1  0
  2  4  1  0
  2  5  1  0
  3 31  1  0
  3 32  1  0
  3 33  1  0
  4 34  1  0
  4 35  1  0
  4 36  1  0
  5  6  1  0
  5  7  1  0
  5  8  1  6
  6 37  1  0
  6 38  1  0
  6 39  1  0
  7 40  1  0
  7 41  1  0
  7 42  1  0
  8  9  1  0
  9 10  1  0
  9 43  1  0
  9 44  1  0
 10 11  1  0
 10 27  1  0
 10 45  1  1
 11 12  1  0
 11 46  1  0
 11 47  1  0
 13 12  1  1
 12 48  1  0
 12 49  1  0
 13 14  1  0
 13 25  1  0
 13 26  1  0
 14 15  1  0
 14 50  1  0
 14 51  1  0
 15 16  1  0
 15 52  1  0
 15 53  1  0
 16 17  2  0
 16 24  1  0
 17 18  1  0
 17 54  1  0
 18 19  2  0
 18 23  1  0
 19 20  1  0
 19 55  1  0
 20 21  2  0
 20 22  1  0
 22 23  1  0
 23 56  1  0
 23 57  1  0
 24 25  1  0
 24 58  1  0
 24 59  1  0
 25 60  1  0
 25 61  1  0
 26 27  1  0
 26 62  1  0
 26 63  1  0
 27 64  1  0
 27 65  1  0
M  END

