
     RDKit          3D

 41 43  0  0  0  0  0  0  0  0999 V2000
    4.0694    0.2803   -2.3187 O   0  0  0  0  0  0  0  0  0  0  0  0
    4.4525   -0.0653   -1.2310 C   0  0  0  0  0  0  0  0  0  0  0  0
    5.0283   -1.2776   -1.0645 O   0  0  0  0  0  0  0  0  0  0  0  0
    4.3151    0.7904   -0.0007 C   0  0  0  0  0  0  0  0  0  0  0  0
    3.4755    1.9136   -0.0564 C   0  0  0  0  0  0  0  0  0  0  0  0
    3.2991    2.7017    1.0812 C   0  0  0  0  0  0  0  0  0  0  0  0
    3.9541    2.3799    2.2764 C   0  0  0  0  0  0  0  0  0  0  0  0
    4.8145    1.2765    2.3406 C   0  0  0  0  0  0  0  0  0  0  0  0
    5.5695    0.9073    3.6112 C   0  0  0  0  0  0  0  0  0  0  0  0
    5.9099   -0.4960    3.6393 N   0  0  0  0  0  0  0  0  0  0  0  0
    7.0489   -0.9548    4.4111 C   0  0  0  0  0  0  0  0  0  0  0  0
    7.0450   -2.4781    4.1556 C   0  0  0  0  0  0  0  0  0  0  0  0
    5.5778   -2.8031    3.7404 C   0  0  2  0  0  0  0  0  0  0  0  0
    5.5907   -3.4277    2.0047 S   0  0  0  0  0  0  0  0  0  0  0  0
    3.9123   -3.9570    1.6977 C   0  0  0  0  0  0  0  0  0  0  0  0
    3.5371   -4.1112    0.3499 C   0  0  0  0  0  0  0  0  0  0  0  0
    2.2598   -4.5702    0.0288 C   0  0  0  0  0  0  0  0  0  0  0  0
    1.3294   -4.8719    1.0278 C   0  0  0  0  0  0  0  0  0  0  0  0
    1.7096   -4.7072    2.3606 C   0  0  0  0  0  0  0  0  0  0  0  0
    0.5674   -5.0713    3.6366 Cl  0  0  0  0  0  0  0  0  0  0  0  0
    2.9877   -4.2591    2.7088 C   0  0  0  0  0  0  0  0  0  0  0  0
    4.8516   -1.4547    3.8883 C   0  0  0  0  0  0  0  0  0  0  0  0
    4.9920    0.5006    1.1894 C   0  0  0  0  0  0  0  0  0  0  0  0
    5.2055   -1.4676   -0.1287 H   0  0  0  0  0  0  0  0  0  0  0  0
    2.9644    2.1396   -0.9941 H   0  0  0  0  0  0  0  0  0  0  0  0
    2.6351    3.5690    1.0443 H   0  0  0  0  0  0  0  0  0  0  0  0
    3.7903    2.9938    3.1674 H   0  0  0  0  0  0  0  0  0  0  0  0
    4.9827    1.2316    4.5005 H   0  0  0  0  0  0  0  0  0  0  0  0
    6.5125    1.4818    3.6461 H   0  0  0  0  0  0  0  0  0  0  0  0
    6.9350   -0.7470    5.5005 H   0  0  0  0  0  0  0  0  0  0  0  0
    7.9777   -0.4649    4.0777 H   0  0  0  0  0  0  0  0  0  0  0  0
    7.3427   -3.0493    5.0465 H   0  0  0  0  0  0  0  0  0  0  0  0
    7.7496   -2.7427    3.3527 H   0  0  0  0  0  0  0  0  0  0  0  0
    5.1452   -3.5846    4.3782 H   0  0  0  0  0  0  0  0  0  0  0  0
    4.2374   -3.8561   -0.4484 H   0  0  0  0  0  0  0  0  0  0  0  0
    1.9788   -4.6825   -1.0212 H   0  0  0  0  0  0  0  0  0  0  0  0
    0.3256   -5.2210    0.7829 H   0  0  0  0  0  0  0  0  0  0  0  0
    3.2346   -4.1597    3.7646 H   0  0  0  0  0  0  0  0  0  0  0  0
    4.4427   -1.3662    4.9238 H   0  0  0  0  0  0  0  0  0  0  0  0
    4.0102   -1.3304    3.1912 H   0  0  0  0  0  0  0  0  0  0  0  0
    5.6751   -0.3472    1.2760 H   0  0  0  0  0  0  0  0  0  0  0  0
  1  2  2  0
  2  3  1  0
  2  4  1  0
  3 24  1  0
  4  5  2  0
  4 23  1  0
  5  6  1  0
  5 25  1  0
  6  7  2  0
  6 26  1  0
  7  8  1  0
  7 27  1  0
  8  9  1  0
  8 23  2  0
  9 10  1  0
  9 28  1  0
  9 29  1  0
 10 11  1  0
 10 22  1  0
 11 12  1  0
 11 30  1  0
 11 31  1  0
 12 13  1  0
 12 32  1  0
 12 33  1  0
 13 14  1  0
 13 22  1  0
 13 34  1  1
 14 15  1  0
 15 16  2  0
 15 21  1  0
 16 17  1  0
 16 35  1  0
 17 18  2  0
 17 36  1  0
 18 19  1  0
 18 37  1  0
 19 20  1  0
 19 21  2  0
 21 38  1  0
 22 39  1  0
 22 40  1  0
 23 41  1  0
M  END

