
     RDKit          3D

 47 48  0  0  0  0  0  0  0  0999 V2000
    3.9548    1.5645    0.3252 C   0  0  0  0  0  0  0  0  0  0  0  0
    3.1130    0.5290   -0.4340 C   0  0  1  0  0  0  0  0  0  0  0  0
    2.1389    1.2013   -1.4125 C   0  0  0  0  0  0  0  0  0  0  0  0
    4.0430   -0.4104   -1.2112 C   0  0  0  0  0  0  0  0  0  0  0  0
    4.8022    0.0046   -2.0747 O   0  0  0  0  0  0  0  0  0  0  0  0
    3.9609   -1.7332   -0.8835 N   0  0  0  0  0  0  0  0  0  0  0  0
    4.7803   -2.7523   -1.5259 C   0  0  1  0  0  0  0  0  0  0  0  0
    6.1294   -2.9671   -0.8145 C   0  0  0  0  0  0  0  0  0  0  0  0
    5.9348   -3.5822    0.5780 C   0  0  2  0  0  0  0  0  0  0  0  0
    7.2592   -3.8349    1.3428 C   0  0  0  0  0  0  0  0  0  0  0  0
    8.2267   -4.8264    0.7272 C   0  0  0  0  0  0  0  0  0  0  0  0
    9.1899   -4.4141   -0.2096 C   0  0  0  0  0  0  0  0  0  0  0  0
   10.0765   -5.3288   -0.7850 C   0  0  0  0  0  0  0  0  0  0  0  0
   10.0210   -6.6798   -0.4302 C   0  0  0  0  0  0  0  0  0  0  0  0
    9.0766   -7.1052    0.5085 C   0  0  0  0  0  0  0  0  0  0  0  0
    8.1920   -6.1863    1.0804 C   0  0  0  0  0  0  0  0  0  0  0  0
    5.0532   -4.8356    0.4845 C   0  0  0  0  0  0  0  0  0  0  0  0
    3.7863   -4.5514   -0.2002 N   0  0  0  0  0  0  0  0  0  0  0  0
    2.8528   -5.6629   -0.1458 C   0  0  0  0  0  0  0  0  0  0  0  0
    2.3655   -5.9210    1.2192 C   0  0  0  0  0  0  0  0  0  0  0  0
    1.9890   -6.1303    2.2942 N   0  0  0  0  0  0  0  0  0  0  0  0
    3.9998   -4.0682   -1.5634 C   0  0  0  0  0  0  0  0  0  0  0  0
    3.3085    2.2757    0.8636 H   0  0  0  0  0  0  0  0  0  0  0  0
    4.5838    2.1274   -0.3812 H   0  0  0  0  0  0  0  0  0  0  0  0
    4.6192    1.0840    1.0615 H   0  0  0  0  0  0  0  0  0  0  0  0
    2.5326   -0.0630    0.2960 H   0  0  0  0  0  0  0  0  0  0  0  0
    2.7005    1.7502   -2.1839 H   0  0  0  0  0  0  0  0  0  0  0  0
    1.4819    1.9110   -0.8852 H   0  0  0  0  0  0  0  0  0  0  0  0
    1.5015    0.4599   -1.9206 H   0  0  0  0  0  0  0  0  0  0  0  0
    3.3485   -2.0376   -0.1347 H   0  0  0  0  0  0  0  0  0  0  0  0
    4.9713   -2.4034   -2.5515 H   0  0  0  0  0  0  0  0  0  0  0  0
    6.6614   -2.0046   -0.7512 H   0  0  0  0  0  0  0  0  0  0  0  0
    6.7472   -3.6358   -1.4382 H   0  0  0  0  0  0  0  0  0  0  0  0
    5.3744   -2.8502    1.1859 H   0  0  0  0  0  0  0  0  0  0  0  0
    7.0050   -4.1690    2.3629 H   0  0  0  0  0  0  0  0  0  0  0  0
    7.7657   -2.8620    1.4545 H   0  0  0  0  0  0  0  0  0  0  0  0
    9.2537   -3.3575   -0.4846 H   0  0  0  0  0  0  0  0  0  0  0  0
   10.8189   -4.9824   -1.5088 H   0  0  0  0  0  0  0  0  0  0  0  0
   10.7164   -7.3957   -0.8759 H   0  0  0  0  0  0  0  0  0  0  0  0
    9.0322   -8.1570    0.8034 H   0  0  0  0  0  0  0  0  0  0  0  0
    7.4678   -6.5296    1.8250 H   0  0  0  0  0  0  0  0  0  0  0  0
    4.8252   -5.2045    1.4975 H   0  0  0  0  0  0  0  0  0  0  0  0
    5.6036   -5.6471   -0.0422 H   0  0  0  0  0  0  0  0  0  0  0  0
    3.2783   -6.6145   -0.5402 H   0  0  0  0  0  0  0  0  0  0  0  0
    1.9764   -5.4300   -0.7729 H   0  0  0  0  0  0  0  0  0  0  0  0
    3.0212   -3.9061   -2.0429 H   0  0  0  0  0  0  0  0  0  0  0  0
    4.5570   -4.8072   -2.1821 H   0  0  0  0  0  0  0  0  0  0  0  0
  1  2  1  0
  1 23  1  0
  1 24  1  0
  1 25  1  0
  2  3  1  0
  2  4  1  0
  2 26  1  1
  3 27  1  0
  3 28  1  0
  3 29  1  0
  4  5  2  0
  4  6  1  0
  6  7  1  0
  6 30  1  0
  7  8  1  0
  7 22  1  0
  7 31  1  6
  8  9  1  0
  8 32  1  0
  8 33  1  0
  9 10  1  0
  9 17  1  0
  9 34  1  1
 10 11  1  0
 10 35  1  0
 10 36  1  0
 11 12  2  0
 11 16  1  0
 12 13  1  0
 12 37  1  0
 13 14  2  0
 13 38  1  0
 14 15  1  0
 14 39  1  0
 15 16  2  0
 15 40  1  0
 16 41  1  0
 17 18  1  0
 17 42  1  0
 17 43  1  0
 18 19  1  0
 18 22  1  0
 19 20  1  0
 19 44  1  0
 19 45  1  0
 20 21  3  0
 22 46  1  0
 22 47  1  0
M  END

