
     RDKit          3D

 73 77  0  0  0  0  0  0  0  0999 V2000
   -0.2556   -2.4908    0.9102 O   0  0  0  0  0  0  0  0  0  0  0  0
   -1.0017   -1.6546    1.4057 C   0  0  0  0  0  0  0  0  0  0  0  0
   -0.6198   -0.3483    1.5392 N   0  0  0  0  0  0  0  0  0  0  0  0
    0.7080    0.1177    1.1404 C   0  0  1  0  0  0  0  0  0  0  0  0
    0.8057    0.3629   -0.3769 C   0  0  0  0  0  0  0  0  0  0  0  0
    0.0177    1.5989   -0.8129 C   0  0  0  0  0  0  0  0  0  0  0  0
    0.4598    2.7807   -0.0747 N   0  0  0  0  0  0  0  0  0  0  0  0
    0.1258    4.0522   -0.6021 C   0  0  0  0  0  0  0  0  0  0  0  0
   -0.9579    4.2374   -1.4818 C   0  0  0  0  0  0  0  0  0  0  0  0
   -1.2699    5.5017   -1.9881 C   0  0  0  0  0  0  0  0  0  0  0  0
   -0.5221    6.6176   -1.6096 C   0  0  0  0  0  0  0  0  0  0  0  0
    0.5572    6.4494   -0.7384 C   0  0  0  0  0  0  0  0  0  0  0  0
    0.9106    5.1823   -0.2600 C   0  0  0  0  0  0  0  0  0  0  0  0
    2.1075    5.0927    0.6617 C   0  0  0  0  0  0  0  0  0  0  0  0
    2.0487    5.5423    1.8000 O   0  0  0  0  0  0  0  0  0  0  0  0
    3.2512    4.5244    0.1599 N   0  0  0  0  0  0  0  0  0  0  0  0
    3.4306    3.9912   -1.1801 C   0  0  0  0  0  0  0  0  0  0  0  0
    4.6727    4.5987   -1.8333 C   0  0  0  0  0  0  0  0  0  0  0  0
    5.8547    4.4350   -0.9885 N   0  0  0  0  0  0  0  0  0  0  0  0
    7.1246    4.5221   -1.5880 C   0  0  0  0  0  0  0  0  0  0  0  0
    8.1730    5.2809   -1.0270 C   0  0  0  0  0  0  0  0  0  0  0  0
    9.4401    5.3170   -1.6153 C   0  0  0  0  0  0  0  0  0  0  0  0
    9.6854    4.6084   -2.7904 C   0  0  0  0  0  0  0  0  0  0  0  0
   11.2693    4.6581   -3.5353 Cl  0  0  0  0  0  0  0  0  0  0  0  0
    8.6614    3.8543   -3.3732 C   0  0  0  0  0  0  0  0  0  0  0  0
    7.4048    3.8099   -2.7764 C   0  0  0  0  0  0  0  0  0  0  0  0
    5.6640    4.9870    0.3456 C   0  0  0  0  0  0  0  0  0  0  0  0
    4.4249    4.3850    1.0103 C   0  0  0  0  0  0  0  0  0  0  0  0
    0.2981    2.6209    1.3775 C   0  0  0  0  0  0  0  0  0  0  0  0
    1.0741    1.4052    1.8907 C   0  0  0  0  0  0  0  0  0  0  0  0
   -2.3970   -1.9847    1.9405 C   0  0  1  0  0  0  0  0  0  0  0  0
   -3.2665   -2.7156    0.8906 C   0  0  0  0  0  0  0  0  0  0  0  0
   -2.8662   -4.1812    0.6701 C   0  0  0  0  0  0  0  0  0  0  0  0
   -2.8163   -4.9567    1.9929 C   0  0  0  0  0  0  0  0  0  0  0  0
   -1.8916   -4.2722    3.0079 C   0  0  0  0  0  0  0  0  0  0  0  0
   -2.3076   -2.8148    3.2459 C   0  0  0  0  0  0  0  0  0  0  0  0
   -1.2708    0.3102    1.9481 H   0  0  0  0  0  0  0  0  0  0  0  0
    1.4097   -0.6887    1.4035 H   0  0  0  0  0  0  0  0  0  0  0  0
    0.4488   -0.5296   -0.9123 H   0  0  0  0  0  0  0  0  0  0  0  0
    1.8679    0.5016   -0.6406 H   0  0  0  0  0  0  0  0  0  0  0  0
   -1.0689    1.4076   -0.6677 H   0  0  0  0  0  0  0  0  0  0  0  0
    0.1687    1.7773   -1.8881 H   0  0  0  0  0  0  0  0  0  0  0  0
   -1.5792    3.3861   -1.7618 H   0  0  0  0  0  0  0  0  0  0  0  0
   -2.1178    5.6130   -2.6692 H   0  0  0  0  0  0  0  0  0  0  0  0
   -0.7727    7.6106   -1.9895 H   0  0  0  0  0  0  0  0  0  0  0  0
    1.1566    7.3118   -0.4353 H   0  0  0  0  0  0  0  0  0  0  0  0
    2.5470    4.2145   -1.7897 H   0  0  0  0  0  0  0  0  0  0  0  0
    3.5425    2.8924   -1.1280 H   0  0  0  0  0  0  0  0  0  0  0  0
    4.4834    5.6765   -2.0316 H   0  0  0  0  0  0  0  0  0  0  0  0
    4.8341    4.1141   -2.8042 H   0  0  0  0  0  0  0  0  0  0  0  0
    8.0098    5.8690   -0.1242 H   0  0  0  0  0  0  0  0  0  0  0  0
   10.2363    5.9117   -1.1638 H   0  0  0  0  0  0  0  0  0  0  0  0
    8.8564    3.2896   -4.2867 H   0  0  0  0  0  0  0  0  0  0  0  0
    6.6344    3.1847   -3.2309 H   0  0  0  0  0  0  0  0  0  0  0  0
    5.5664    6.0946    0.3233 H   0  0  0  0  0  0  0  0  0  0  0  0
    6.5389    4.7437    0.9652 H   0  0  0  0  0  0  0  0  0  0  0  0
    4.2122    4.8847    1.9633 H   0  0  0  0  0  0  0  0  0  0  0  0
    4.6076    3.3112    1.2052 H   0  0  0  0  0  0  0  0  0  0  0  0
   -0.7846    2.5204    1.6252 H   0  0  0  0  0  0  0  0  0  0  0  0
    0.6407    3.5273    1.8918 H   0  0  0  0  0  0  0  0  0  0  0  0
    0.9017    1.2809    2.9727 H   0  0  0  0  0  0  0  0  0  0  0  0
    2.1507    1.5933    1.7526 H   0  0  0  0  0  0  0  0  0  0  0  0
   -2.8957   -1.0304    2.1843 H   0  0  0  0  0  0  0  0  0  0  0  0
   -3.2453   -2.1624   -0.0639 H   0  0  0  0  0  0  0  0  0  0  0  0
   -4.3123   -2.6770    1.2470 H   0  0  0  0  0  0  0  0  0  0  0  0
   -1.8756   -4.2146    0.1913 H   0  0  0  0  0  0  0  0  0  0  0  0
   -3.5819   -4.6544   -0.0239 H   0  0  0  0  0  0  0  0  0  0  0  0
   -2.4837   -5.9929    1.8133 H   0  0  0  0  0  0  0  0  0  0  0  0
   -3.8362   -5.0274    2.4178 H   0  0  0  0  0  0  0  0  0  0  0  0
   -0.8558   -4.2990    2.6330 H   0  0  0  0  0  0  0  0  0  0  0  0
   -1.9031   -4.8176    3.9670 H   0  0  0  0  0  0  0  0  0  0  0  0
   -1.6192   -2.3233    3.9546 H   0  0  0  0  0  0  0  0  0  0  0  0
   -3.3060   -2.7965    3.7202 H   0  0  0  0  0  0  0  0  0  0  0  0
  1  2  2  0
  2  3  1  0
  2 31  1  0
  3  4  1  0
  3 37  1  0
  4  5  1  0
  4 30  1  0
  4 38  1  1
  5  6  1  0
  5 39  1  0
  5 40  1  0
  6  7  1  0
  6 41  1  0
  6 42  1  0
  7  8  1  0
  7 29  1  0
  8  9  2  0
  8 13  1  0
  9 10  1  0
  9 43  1  0
 10 11  2  0
 10 44  1  0
 11 12  1  0
 11 45  1  0
 12 13  2  0
 12 46  1  0
 13 14  1  0
 14 15  2  0
 14 16  1  0
 16 17  1  0
 16 28  1  0
 17 18  1  0
 17 47  1  0
 17 48  1  0
 18 19  1  0
 18 49  1  0
 18 50  1  0
 19 20  1  0
 19 27  1  0
 20 21  2  0
 20 26  1  0
 21 22  1  0
 21 51  1  0
 22 23  2  0
 22 52  1  0
 23 24  1  0
 23 25  1  0
 25 26  2  0
 25 53  1  0
 26 54  1  0
 27 28  1  0
 27 55  1  0
 27 56  1  0
 28 57  1  0
 28 58  1  0
 29 30  1  0
 29 59  1  0
 29 60  1  0
 30 61  1  0
 30 62  1  0
 31 32  1  0
 31 36  1  0
 31 63  1  1
 32 33  1  0
 32 64  1  0
 32 65  1  0
 33 34  1  0
 33 66  1  0
 33 67  1  0
 34 35  1  0
 34 68  1  0
 34 69  1  0
 35 36  1  0
 35 70  1  0
 35 71  1  0
 36 72  1  0
 36 73  1  0
M  END

