
     RDKit          3D

 42 44  0  0  0  0  0  0  0  0999 V2000
    2.0016    2.6934    0.6113 C   0  0  0  0  0  0  0  0  0  0  0  0
    3.2298    2.2776    0.0146 O   0  0  0  0  0  0  0  0  0  0  0  0
    3.3188    0.9779   -0.3081 C   0  0  0  0  0  0  0  0  0  0  0  0
    2.4230    0.1886   -0.1245 O   0  0  0  0  0  0  0  0  0  0  0  0
    4.7033    0.6053   -0.8678 C   0  0  1  0  0  0  0  0  0  0  0  0
    4.6536   -0.7415   -1.6205 C   0  0  0  0  0  0  0  0  0  0  0  0
    4.0190   -0.5889   -3.0091 C   0  0  0  0  0  0  0  0  0  0  0  0
    4.6988    0.5355   -3.8011 C   0  0  0  0  0  0  0  0  0  0  0  0
    4.7046    1.8316   -2.9760 C   0  0  0  0  0  0  0  0  0  0  0  0
    5.2952    1.6796   -1.6517 N   0  0  0  0  0  0  0  0  0  0  0  0
    6.7248    1.8667   -1.5051 C   0  0  0  0  0  0  0  0  0  0  0  0
    7.0423    2.7697   -0.3002 C   0  0  0  0  0  0  0  0  0  0  0  0
    8.4640    2.9521   -0.0998 N   0  0  0  0  0  0  0  0  0  0  0  0
    9.2160    3.6678   -1.0014 N   0  0  0  0  0  0  0  0  0  0  0  0
   10.4380    3.6068   -0.5354 C   0  0  0  0  0  0  0  0  0  0  0  0
   11.6611    4.1619   -1.0283 C   0  0  0  0  0  0  0  0  0  0  0  0
   12.8132    3.9380   -0.3251 C   0  0  0  0  0  0  0  0  0  0  0  0
   12.8141    3.1617    0.8897 C   0  0  0  0  0  0  0  0  0  0  0  0
   11.6478    2.6348    1.3563 C   0  0  0  0  0  0  0  0  0  0  0  0
   10.4931    2.8613    0.6479 N   0  0  0  0  0  0  0  0  0  0  0  0
    9.1853    2.4144    0.9440 C   0  0  0  0  0  0  0  0  0  0  0  0
    8.8286    1.7358    1.8878 O   0  0  0  0  0  0  0  0  0  0  0  0
    2.1015    3.7696    0.7991 H   0  0  0  0  0  0  0  0  0  0  0  0
    1.8218    2.1560    1.5551 H   0  0  0  0  0  0  0  0  0  0  0  0
    1.1532    2.5002   -0.0628 H   0  0  0  0  0  0  0  0  0  0  0  0
    5.3189    0.4723    0.0398 H   0  0  0  0  0  0  0  0  0  0  0  0
    4.1053   -1.4800   -1.0180 H   0  0  0  0  0  0  0  0  0  0  0  0
    5.6897   -1.1072   -1.7271 H   0  0  0  0  0  0  0  0  0  0  0  0
    2.9449   -0.3590   -2.8925 H   0  0  0  0  0  0  0  0  0  0  0  0
    4.0739   -1.5437   -3.5579 H   0  0  0  0  0  0  0  0  0  0  0  0
    4.1850    0.7043   -4.7631 H   0  0  0  0  0  0  0  0  0  0  0  0
    5.7389    0.2487   -4.0424 H   0  0  0  0  0  0  0  0  0  0  0  0
    3.6605    2.1807   -2.8533 H   0  0  0  0  0  0  0  0  0  0  0  0
    5.2350    2.6380   -3.5057 H   0  0  0  0  0  0  0  0  0  0  0  0
    7.1238    2.3515   -2.4090 H   0  0  0  0  0  0  0  0  0  0  0  0
    7.2836    0.9136   -1.3927 H   0  0  0  0  0  0  0  0  0  0  0  0
    6.6537    2.3310    0.6297 H   0  0  0  0  0  0  0  0  0  0  0  0
    6.5648    3.7512   -0.4423 H   0  0  0  0  0  0  0  0  0  0  0  0
   11.6353    4.7460   -1.9488 H   0  0  0  0  0  0  0  0  0  0  0  0
   13.7567    4.3539   -0.6862 H   0  0  0  0  0  0  0  0  0  0  0  0
   13.7416    2.9935    1.4378 H   0  0  0  0  0  0  0  0  0  0  0  0
   11.5323    2.0344    2.2603 H   0  0  0  0  0  0  0  0  0  0  0  0
  1  2  1  0
  1 23  1  0
  1 24  1  0
  1 25  1  0
  2  3  1  0
  3  4  2  0
  3  5  1  0
  5  6  1  0
  5 10  1  0
  5 26  1  1
  6  7  1  0
  6 27  1  0
  6 28  1  0
  7  8  1  0
  7 29  1  0
  7 30  1  0
  8  9  1  0
  8 31  1  0
  8 32  1  0
  9 10  1  0
  9 33  1  0
  9 34  1  0
 10 11  1  0
 11 12  1  0
 11 35  1  0
 11 36  1  0
 12 13  1  0
 12 37  1  0
 12 38  1  0
 13 14  1  0
 13 21  1  0
 14 15  2  0
 15 16  1  0
 15 20  1  0
 16 17  2  0
 16 39  1  0
 17 18  1  0
 17 40  1  0
 18 19  2  0
 18 41  1  0
 19 20  1  0
 19 42  1  0
 20 21  1  0
 21 22  2  0
M  END

