
     RDKit          3D

 52 53  0  0  0  0  0  0  0  0999 V2000
    0.8408    0.0866    0.3550 C   0  0  0  0  0  0  0  0  0  0  0  0
    2.2669    0.1537    0.0737 N   0  0  0  0  0  0  0  0  0  0  0  0
    2.7987    1.4699    0.4458 C   0  0  0  0  0  0  0  0  0  0  0  0
    2.4290    2.6067   -0.5133 C   0  0  0  0  0  0  0  0  0  0  0  0
    2.9204    2.4067   -1.9474 C   0  0  0  0  0  0  0  0  0  0  0  0
    2.6840    3.5328   -2.7679 O   0  0  0  0  0  0  0  0  0  0  0  0
    3.0592   -0.9529    0.6487 C   0  0  1  0  0  0  0  0  0  0  0  0
    2.3776   -2.3304    0.5232 C   0  0  0  0  0  0  0  0  0  0  0  0
    2.2854   -2.8293   -0.9224 C   0  0  0  0  0  0  0  0  0  0  0  0
    3.6104   -2.8496   -1.5399 N   0  0  0  0  0  0  0  0  0  0  0  0
    3.9852   -3.9481   -2.2680 C   0  0  0  0  0  0  0  0  0  0  0  0
    3.2340   -4.8956   -2.4644 O   0  0  0  0  0  0  0  0  0  0  0  0
    5.3981   -3.9943   -2.7861 C   0  0  0  0  0  0  0  0  0  0  0  0
    6.7250   -4.1051   -1.6560 S   0  0  0  0  0  0  0  0  0  0  0  0
    7.8001   -4.3587   -2.9971 C   0  0  0  0  0  0  0  0  0  0  0  0
    7.2269   -4.3612   -4.1584 N   0  0  0  0  0  0  0  0  0  0  0  0
    5.8652   -4.1621   -4.0791 C   0  0  0  0  0  0  0  0  0  0  0  0
    5.0497   -4.1970   -5.3762 C   0  0  1  0  0  0  0  0  0  0  0  0
    4.5490   -5.6474   -5.5808 C   0  0  0  0  0  0  0  0  0  0  0  0
    3.8433   -3.2378   -5.3264 C   0  0  0  0  0  0  0  0  0  0  0  0
    5.9495   -3.7916   -6.5609 C   0  0  0  0  0  0  0  0  0  0  0  0
    4.3217   -1.5742   -1.4815 C   0  0  0  0  0  0  0  0  0  0  0  0
    4.4382   -1.0738   -0.0390 C   0  0  0  0  0  0  0  0  0  0  0  0
    0.3423    0.9780   -0.0507 H   0  0  0  0  0  0  0  0  0  0  0  0
    0.6098    0.0483    1.4443 H   0  0  0  0  0  0  0  0  0  0  0  0
    0.3683   -0.7810   -0.1253 H   0  0  0  0  0  0  0  0  0  0  0  0
    3.8957    1.4087    0.4819 H   0  0  0  0  0  0  0  0  0  0  0  0
    2.4808    1.7446    1.4777 H   0  0  0  0  0  0  0  0  0  0  0  0
    2.8626    3.5441   -0.1258 H   0  0  0  0  0  0  0  0  0  0  0  0
    1.3352    2.7666   -0.5269 H   0  0  0  0  0  0  0  0  0  0  0  0
    2.4746    1.4861   -2.3705 H   0  0  0  0  0  0  0  0  0  0  0  0
    4.0135    2.2548   -1.9453 H   0  0  0  0  0  0  0  0  0  0  0  0
    1.7286    3.6404   -2.8618 H   0  0  0  0  0  0  0  0  0  0  0  0
    3.2247   -0.7658    1.7347 H   0  0  0  0  0  0  0  0  0  0  0  0
    1.3796   -2.3359    0.9841 H   0  0  0  0  0  0  0  0  0  0  0  0
    2.9831   -3.0472    1.1017 H   0  0  0  0  0  0  0  0  0  0  0  0
    1.6172   -2.1775   -1.5152 H   0  0  0  0  0  0  0  0  0  0  0  0
    1.8807   -3.8474   -0.9712 H   0  0  0  0  0  0  0  0  0  0  0  0
    8.8705   -4.5087   -2.8348 H   0  0  0  0  0  0  0  0  0  0  0  0
    3.9102   -5.9573   -4.7408 H   0  0  0  0  0  0  0  0  0  0  0  0
    5.3971   -6.3467   -5.6510 H   0  0  0  0  0  0  0  0  0  0  0  0
    3.9682   -5.7223   -6.5153 H   0  0  0  0  0  0  0  0  0  0  0  0
    3.0885   -3.5588   -4.5965 H   0  0  0  0  0  0  0  0  0  0  0  0
    3.3512   -3.2141   -6.3118 H   0  0  0  0  0  0  0  0  0  0  0  0
    4.1575   -2.2089   -5.0862 H   0  0  0  0  0  0  0  0  0  0  0  0
    6.8198   -4.4547   -6.6503 H   0  0  0  0  0  0  0  0  0  0  0  0
    6.3266   -2.7627   -6.4444 H   0  0  0  0  0  0  0  0  0  0  0  0
    5.3705   -3.8387   -7.4971 H   0  0  0  0  0  0  0  0  0  0  0  0
    3.7655   -0.8300   -2.0797 H   0  0  0  0  0  0  0  0  0  0  0  0
    5.3133   -1.6858   -1.9345 H   0  0  0  0  0  0  0  0  0  0  0  0
    4.9790   -0.1161   -0.0368 H   0  0  0  0  0  0  0  0  0  0  0  0
    5.0557   -1.7798    0.5413 H   0  0  0  0  0  0  0  0  0  0  0  0
  1  2  1  0
  1 24  1  0
  1 25  1  0
  1 26  1  0
  2  3  1  0
  2  7  1  0
  3  4  1  0
  3 27  1  0
  3 28  1  0
  4  5  1  0
  4 29  1  0
  4 30  1  0
  5  6  1  0
  5 31  1  0
  5 32  1  0
  6 33  1  0
  7  8  1  0
  7 23  1  0
  7 34  1  1
  8  9  1  0
  8 35  1  0
  8 36  1  0
  9 10  1  0
  9 37  1  0
  9 38  1  0
 10 11  1  0
 10 22  1  0
 11 12  2  0
 11 13  1  0
 13 14  1  0
 13 17  2  0
 14 15  1  0
 15 16  2  0
 15 39  1  0
 16 17  1  0
 17 18  1  0
 18 19  1  6
 18 20  1  0
 18 21  1  0
 19 40  1  0
 19 41  1  0
 19 42  1  0
 20 43  1  0
 20 44  1  0
 20 45  1  0
 21 46  1  0
 21 47  1  0
 21 48  1  0
 22 23  1  0
 22 49  1  0
 22 50  1  0
 23 51  1  0
 23 52  1  0
M  END

