
     RDKit          3D

 35 37  0  0  0  0  0  0  0  0999 V2000
    1.0154    0.1170   -0.1224 C   0  0  0  0  0  0  0  0  0  0  0  0
    2.5250    0.0351   -0.1175 C   0  0  0  0  0  0  0  0  0  0  0  0
    3.1799   -1.2189   -0.1128 C   0  0  0  0  0  0  0  0  0  0  0  0
    4.5692   -1.3286   -0.1075 C   0  0  0  0  0  0  0  0  0  0  0  0
    5.3497   -0.1610   -0.1080 C   0  0  0  0  0  0  0  0  0  0  0  0
    6.7621    0.1189   -0.1080 C   0  0  0  0  0  0  0  0  0  0  0  0
    6.9030    1.4897   -0.1043 C   0  0  0  0  0  0  0  0  0  0  0  0
    5.6508    2.0940   -0.1115 N   0  0  0  0  0  0  0  0  0  0  0  0
    5.3624    3.5097   -0.1227 C   0  0  0  0  0  0  0  0  0  0  0  0
    4.6866    1.1009   -0.1121 C   0  0  0  0  0  0  0  0  0  0  0  0
    3.2914    1.2077   -0.1171 C   0  0  0  0  0  0  0  0  0  0  0  0
    8.2129    2.2159   -0.1086 C   0  0  0  0  0  0  0  0  0  0  0  0
    9.3533    1.2455    0.2409 C   0  0  0  0  0  0  0  0  0  0  0  0
    9.2280   -0.0896   -0.5060 C   0  0  1  0  0  0  0  0  0  0  0  0
   10.4722   -0.9555   -0.2978 C   0  0  0  0  0  0  0  0  0  0  0  0
   11.4583   -0.6016    0.2886 O   0  0  0  0  0  0  0  0  0  0  0  0
   10.4145   -2.1948   -0.8410 O   0  0  0  0  0  0  0  0  0  0  0  0
    7.9244   -0.8302   -0.1176 C   0  0  0  0  0  0  0  0  0  0  0  0
    0.5573   -0.8831   -0.1212 H   0  0  0  0  0  0  0  0  0  0  0  0
    0.6418    0.6535   -1.0111 H   0  0  0  0  0  0  0  0  0  0  0  0
    0.6365    0.6580    0.7614 H   0  0  0  0  0  0  0  0  0  0  0  0
    2.5722   -2.1280   -0.1118 H   0  0  0  0  0  0  0  0  0  0  0  0
    5.0403   -2.3154   -0.1006 H   0  0  0  0  0  0  0  0  0  0  0  0
    6.2981    4.0822   -0.1353 H   0  0  0  0  0  0  0  0  0  0  0  0
    4.7877    3.8088    0.7707 H   0  0  0  0  0  0  0  0  0  0  0  0
    4.7778    3.7901   -1.0156 H   0  0  0  0  0  0  0  0  0  0  0  0
    2.8003    2.1845   -0.1202 H   0  0  0  0  0  0  0  0  0  0  0  0
    8.2107    3.0505    0.6136 H   0  0  0  0  0  0  0  0  0  0  0  0
    8.3955    2.6747   -1.0998 H   0  0  0  0  0  0  0  0  0  0  0  0
    9.3493    1.0406    1.3246 H   0  0  0  0  0  0  0  0  0  0  0  0
   10.3283    1.7011    0.0196 H   0  0  0  0  0  0  0  0  0  0  0  0
    9.1790    0.1234   -1.5926 H   0  0  0  0  0  0  0  0  0  0  0  0
    9.5594   -2.3349   -1.2723 H   0  0  0  0  0  0  0  0  0  0  0  0
    8.0525   -1.3095    0.8720 H   0  0  0  0  0  0  0  0  0  0  0  0
    7.7181   -1.6564   -0.8248 H   0  0  0  0  0  0  0  0  0  0  0  0
  1  2  1  0
  1 19  1  0
  1 20  1  0
  1 21  1  0
  2  3  2  0
  2 11  1  0
  3  4  1  0
  3 22  1  0
  4  5  2  0
  4 23  1  0
  5  6  1  0
  5 10  1  0
  6  7  2  0
  6 18  1  0
  7  8  1  0
  7 12  1  0
  8  9  1  0
  8 10  1  0
  9 24  1  0
  9 25  1  0
  9 26  1  0
 10 11  2  0
 11 27  1  0
 12 13  1  0
 12 28  1  0
 12 29  1  0
 13 14  1  0
 13 30  1  0
 13 31  1  0
 14 15  1  0
 14 18  1  0
 14 32  1  6
 15 16  2  0
 15 17  1  0
 17 33  1  0
 18 34  1  0
 18 35  1  0
M  END

