
     RDKit          3D

 63 67  0  0  0  0  0  0  0  0999 V2000
    4.6437   -1.0891    0.9518 C   0  0  0  0  0  0  0  0  0  0  0  0
    4.4620   -0.1776   -0.2230 C   0  0  0  0  0  0  0  0  0  0  0  0
    3.1813    0.4308   -0.6619 C   0  0  0  0  0  0  0  0  0  0  0  0
    3.1991    0.5959   -2.0163 C   0  0  0  0  0  0  0  0  0  0  0  0
    3.9603    1.8078   -2.4326 C   0  0  0  0  0  0  0  0  0  0  0  0
    3.6427    2.8250   -3.1679 N   0  0  0  0  0  0  0  0  0  0  0  0
    4.6367    3.7057   -3.5074 C   0  0  0  0  0  0  0  0  0  0  0  0
    4.2969    4.8309   -4.2967 C   0  0  0  0  0  0  0  0  0  0  0  0
    5.2279    5.7660   -4.7418 C   0  0  0  0  0  0  0  0  0  0  0  0
    6.6176    5.5580   -4.3955 C   0  0  0  0  0  0  0  0  0  0  0  0
    6.9510    4.4465   -3.6227 C   0  0  0  0  0  0  0  0  0  0  0  0
    5.9988    3.5096   -3.1383 C   0  0  0  0  0  0  0  0  0  0  0  0
    6.3403    2.3843   -2.3058 C   0  0  0  0  0  0  0  0  0  0  0  0
    7.7592    2.1556   -1.8909 C   0  0  0  0  0  0  0  0  0  0  0  0
    8.3687    2.9810   -0.9299 C   0  0  0  0  0  0  0  0  0  0  0  0
    9.6920    2.7608   -0.5377 C   0  0  0  0  0  0  0  0  0  0  0  0
   10.4287    1.7153   -1.1030 C   0  0  0  0  0  0  0  0  0  0  0  0
    9.8334    0.8901   -2.0615 C   0  0  0  0  0  0  0  0  0  0  0  0
    8.5089    1.1075   -2.4516 C   0  0  0  0  0  0  0  0  0  0  0  0
    5.3136    1.5440   -1.8879 C   0  0  0  0  0  0  0  0  0  0  0  0
    5.4915    0.4588   -0.8822 C   0  0  0  0  0  0  0  0  0  0  0  0
    8.1034    6.6743   -4.8401 Si  0  0  2  0  0  4  0  0  0  0  0  0
    9.7097    5.6969   -4.7513 C   0  0  0  0  0  0  0  0  0  0  0  0
    8.2065    8.1417   -3.6608 C   0  0  0  0  0  0  0  0  0  0  0  0
    7.9949    7.2487   -6.4041 O   0  0  0  0  0  0  0  0  0  0  0  0
    6.9669    7.6597   -7.6459 Si  0  0  1  0  0  4  0  0  0  0  0  0
    7.3731    9.3907   -8.2286 C   0  0  0  0  0  0  0  0  0  0  0  0
    7.1112    6.3965   -9.0200 C   0  0  0  0  0  0  0  0  0  0  0  0
    5.4215    7.6399   -7.0319 O   0  0  0  0  0  0  0  0  0  0  0  0
    4.4694    7.2191   -5.7254 Si  0  0  1  0  0  4  0  0  0  0  0  0
    2.7947    6.7297   -6.4282 C   0  0  0  0  0  0  0  0  0  0  0  0
    4.2586    8.7286   -4.6161 C   0  0  0  0  0  0  0  0  0  0  0  0
    4.1078   -0.6916    1.8321 H   0  0  0  0  0  0  0  0  0  0  0  0
    5.7029   -1.2243    1.2176 H   0  0  0  0  0  0  0  0  0  0  0  0
    4.2069   -2.0817    0.7473 H   0  0  0  0  0  0  0  0  0  0  0  0
    2.8237    1.2527   -0.0196 H   0  0  0  0  0  0  0  0  0  0  0  0
    3.6104   -0.2748   -2.5532 H   0  0  0  0  0  0  0  0  0  0  0  0
    3.2370    4.9143   -4.5456 H   0  0  0  0  0  0  0  0  0  0  0  0
    7.9947    4.2651   -3.3623 H   0  0  0  0  0  0  0  0  0  0  0  0
    7.7958    3.7977   -0.4834 H   0  0  0  0  0  0  0  0  0  0  0  0
   10.1486    3.4083    0.2154 H   0  0  0  0  0  0  0  0  0  0  0  0
   11.4639    1.5445   -0.7972 H   0  0  0  0  0  0  0  0  0  0  0  0
   10.4029    0.0724   -2.5107 H   0  0  0  0  0  0  0  0  0  0  0  0
    8.0475    0.4612   -3.2025 H   0  0  0  0  0  0  0  0  0  0  0  0
    6.5181    0.2733   -0.5509 H   0  0  0  0  0  0  0  0  0  0  0  0
    9.9804    5.4024   -3.7249 H   0  0  0  0  0  0  0  0  0  0  0  0
   10.5240    6.3289   -5.1425 H   0  0  0  0  0  0  0  0  0  0  0  0
    9.6651    4.7867   -5.3703 H   0  0  0  0  0  0  0  0  0  0  0  0
    8.3192    7.8010   -2.6182 H   0  0  0  0  0  0  0  0  0  0  0  0
    7.3088    8.7771   -3.7087 H   0  0  0  0  0  0  0  0  0  0  0  0
    9.0774    8.7702   -3.9107 H   0  0  0  0  0  0  0  0  0  0  0  0
    8.4040    9.4462   -8.6149 H   0  0  0  0  0  0  0  0  0  0  0  0
    7.2808   10.1127   -7.4014 H   0  0  0  0  0  0  0  0  0  0  0  0
    6.6901    9.7073   -9.0338 H   0  0  0  0  0  0  0  0  0  0  0  0
    8.1345    6.3712   -9.4291 H   0  0  0  0  0  0  0  0  0  0  0  0
    6.4197    6.6293   -9.8463 H   0  0  0  0  0  0  0  0  0  0  0  0
    6.8688    5.3877   -8.6488 H   0  0  0  0  0  0  0  0  0  0  0  0
    2.8568    5.8050   -7.0236 H   0  0  0  0  0  0  0  0  0  0  0  0
    2.4467    7.5361   -7.0946 H   0  0  0  0  0  0  0  0  0  0  0  0
    2.0287    6.5878   -5.6494 H   0  0  0  0  0  0  0  0  0  0  0  0
    5.2204    9.1020   -4.2324 H   0  0  0  0  0  0  0  0  0  0  0  0
    3.6211    8.4912   -3.7484 H   0  0  0  0  0  0  0  0  0  0  0  0
    3.7794    9.5481   -5.1772 H   0  0  0  0  0  0  0  0  0  0  0  0
  1  2  1  0
  1 33  1  0
  1 34  1  0
  1 35  1  0
  2  3  2  0
  2 21  1  0
  3  4  1  0
  3 36  1  0
  4  5  2  0
  4 37  1  0
  5  6  1  0
  5 20  1  0
  6  7  2  0
  7  8  1  0
  7 12  1  0
  8  9  2  0
  8 38  1  0
  9 10  1  0
  9 30  1  0
 10 11  2  0
 10 22  1  0
 11 12  1  0
 11 39  1  0
 12 13  2  0
 13 14  1  0
 13 20  1  0
 14 15  2  0
 14 19  1  0
 15 16  1  0
 15 40  1  0
 16 17  2  0
 16 41  1  0
 17 18  1  0
 17 42  1  0
 18 19  2  0
 18 43  1  0
 19 44  1  0
 20 21  2  0
 21 45  1  0
 22 23  1  6
 22 24  1  0
 22 25  1  0
 23 46  1  0
 23 47  1  0
 23 48  1  0
 24 49  1  0
 24 50  1  0
 24 51  1  0
 25 26  1  0
 26 27  1  6
 26 28  1  0
 26 29  1  0
 27 52  1  0
 27 53  1  0
 27 54  1  0
 28 55  1  0
 28 56  1  0
 28 57  1  0
 29 30  1  0
 30 31  1  6
 30 32  1  0
 31 58  1  0
 31 59  1  0
 31 60  1  0
 32 61  1  0
 32 62  1  0
 32 63  1  0
M  END

