
     RDKit          3D

 35 36  0  0  0  0  0  0  0  0999 V2000
    0.7283    0.3119    0.2279 C   0  0  0  0  0  0  0  0  0  0  0  0
    2.2239    0.6030    0.3087 C   0  0  1  0  0  0  0  0  0  0  0  0
    2.7727    0.8145    1.7300 C   0  0  0  0  0  0  0  0  0  0  0  0
    4.2998    0.6278    1.6062 C   0  0  2  0  0  0  0  0  0  0  0  0
    5.0867    1.9300    1.4712 C   0  0  0  0  0  0  0  0  0  0  0  0
    4.4316   -0.2126    0.3733 N   0  0  0  0  0  0  0  0  0  0  0  0
    5.5885   -1.4392    0.3887 S   0  0  1  0  0  0  0  0  0  0  0  0
    6.6902   -0.9385    1.2184 O   0  0  0  0  0  0  0  0  0  0  0  0
    4.9632   -2.7348    0.6922 O   0  0  0  0  0  0  0  0  0  0  0  0
    6.1240   -1.5022   -1.3139 C   0  0  0  0  0  0  0  0  0  0  0  0
    6.8834   -0.4548   -1.8506 C   0  0  0  0  0  0  0  0  0  0  0  0
    7.3242   -0.5284   -3.1643 C   0  0  0  0  0  0  0  0  0  0  0  0
    7.0333   -1.6474   -3.9818 C   0  0  0  0  0  0  0  0  0  0  0  0
    7.4953   -1.7329   -5.2637 N   0  0  0  0  0  0  0  0  0  0  0  0
    6.2673   -2.6891   -3.4009 C   0  0  0  0  0  0  0  0  0  0  0  0
    5.8792   -4.0943   -4.3814 Cl  0  0  0  0  0  0  0  0  0  0  0  0
    5.8203   -2.6259   -2.0857 C   0  0  0  0  0  0  0  0  0  0  0  0
    3.1168   -0.5341   -0.2018 C   0  0  0  0  0  0  0  0  0  0  0  0
    0.1384    1.1569    0.6177 H   0  0  0  0  0  0  0  0  0  0  0  0
    0.4647   -0.5822    0.8175 H   0  0  0  0  0  0  0  0  0  0  0  0
    0.4075    0.1354   -0.8117 H   0  0  0  0  0  0  0  0  0  0  0  0
    2.4450    1.5043   -0.2907 H   0  0  0  0  0  0  0  0  0  0  0  0
    2.3519    0.0439    2.3981 H   0  0  0  0  0  0  0  0  0  0  0  0
    2.5085    1.7968    2.1512 H   0  0  0  0  0  0  0  0  0  0  0  0
    4.6912    0.0767    2.4753 H   0  0  0  0  0  0  0  0  0  0  0  0
    4.7218    2.5307    0.6224 H   0  0  0  0  0  0  0  0  0  0  0  0
    6.1520    1.7087    1.3136 H   0  0  0  0  0  0  0  0  0  0  0  0
    4.9946    2.5325    2.3898 H   0  0  0  0  0  0  0  0  0  0  0  0
    7.1301    0.4121   -1.2355 H   0  0  0  0  0  0  0  0  0  0  0  0
    7.9204    0.2860   -3.5844 H   0  0  0  0  0  0  0  0  0  0  0  0
    7.8818   -0.9132   -5.7100 H   0  0  0  0  0  0  0  0  0  0  0  0
    7.1446   -2.4723   -5.8585 H   0  0  0  0  0  0  0  0  0  0  0  0
    5.2431   -3.4442   -1.6543 H   0  0  0  0  0  0  0  0  0  0  0  0
    2.7462   -1.5114    0.1613 H   0  0  0  0  0  0  0  0  0  0  0  0
    3.1691   -0.5768   -1.3022 H   0  0  0  0  0  0  0  0  0  0  0  0
  1  2  1  0
  1 19  1  0
  1 20  1  0
  1 21  1  0
  2  3  1  0
  2 18  1  0
  2 22  1  6
  3  4  1  0
  3 23  1  0
  3 24  1  0
  4  5  1  0
  4  6  1  0
  4 25  1  1
  5 26  1  0
  5 27  1  0
  5 28  1  0
  6  7  1  0
  6 18  1  0
  7  8  2  0
  7  9  2  0
  7 10  1  6
 10 11  2  0
 10 17  1  0
 11 12  1  0
 11 29  1  0
 12 13  2  0
 12 30  1  0
 13 14  1  0
 13 15  1  0
 14 31  1  0
 14 32  1  0
 15 16  1  0
 15 17  2  0
 17 33  1  0
 18 34  1  0
 18 35  1  0
M  END

