
     RDKit          3D

 52 54  0  0  0  0  0  0  0  0999 V2000
    0.7261    0.2430    0.1032 C   0  0  0  0  0  0  0  0  0  0  0  0
    2.2328    0.1506    0.0110 C   0  0  0  0  0  0  0  0  0  0  0  0
    3.0238    1.3219   -0.0473 C   0  0  0  0  0  0  0  0  0  0  0  0
    4.4154    1.2782   -0.1367 C   0  0  0  0  0  0  0  0  0  0  0  0
    5.0308    0.0217   -0.1679 C   0  0  0  0  0  0  0  0  0  0  0  0
    4.2639   -1.1794   -0.1088 C   0  0  0  0  0  0  0  0  0  0  0  0
    2.8638   -1.0973   -0.0220 C   0  0  0  0  0  0  0  0  0  0  0  0
    5.2049   -2.2666   -0.1725 C   0  0  0  0  0  0  0  0  0  0  0  0
    6.4611   -1.7120   -0.2541 C   0  0  0  0  0  0  0  0  0  0  0  0
    6.3713   -0.3243   -0.2657 N   0  0  0  0  0  0  0  0  0  0  0  0
    7.4777    0.6087   -0.2793 C   0  0  0  0  0  0  0  0  0  0  0  0
    7.8655    1.1086    1.1188 C   0  0  0  0  0  0  0  0  0  0  0  0
    9.0635    2.0475    1.0824 C   0  0  0  0  0  0  0  0  0  0  0  0
    9.7006    2.2844    0.0931 O   0  0  0  0  0  0  0  0  0  0  0  0
    9.3948    2.6140    2.2648 O   0  0  0  0  0  0  0  0  0  0  0  0
    7.7249   -2.5088   -0.3484 C   0  0  0  0  0  0  0  0  0  0  0  0
    7.4220   -3.9522    0.0946 C   0  0  0  0  0  0  0  0  0  0  0  0
    6.2004   -4.4552   -0.5194 N   0  0  0  0  0  0  0  0  0  0  0  0
    6.1403   -5.5098   -1.3959 C   0  0  0  0  0  0  0  0  0  0  0  0
    5.1058   -5.9173   -1.8902 O   0  0  0  0  0  0  0  0  0  0  0  0
    7.3672   -6.0279   -1.6317 O   0  0  0  0  0  0  0  0  0  0  0  0
    7.5617   -7.1747   -2.5224 C   0  0  1  0  0  0  0  0  0  0  0  0
    7.1205   -6.8167   -3.9456 C   0  0  0  0  0  0  0  0  0  0  0  0
    9.0750   -7.3963   -2.4665 C   0  0  0  0  0  0  0  0  0  0  0  0
    6.8165   -8.3981   -1.9779 C   0  0  0  0  0  0  0  0  0  0  0  0
    4.9637   -3.7491   -0.1848 C   0  0  0  0  0  0  0  0  0  0  0  0
    0.3852    1.2890    0.1216 H   0  0  0  0  0  0  0  0  0  0  0  0
    0.3452   -0.2475    1.0149 H   0  0  0  0  0  0  0  0  0  0  0  0
    0.2380   -0.2508   -0.7539 H   0  0  0  0  0  0  0  0  0  0  0  0
    2.5267    2.2957   -0.0248 H   0  0  0  0  0  0  0  0  0  0  0  0
    4.9932    2.2041   -0.1878 H   0  0  0  0  0  0  0  0  0  0  0  0
    2.2633   -2.0114    0.0172 H   0  0  0  0  0  0  0  0  0  0  0  0
    7.2206    1.4669   -0.9187 H   0  0  0  0  0  0  0  0  0  0  0  0
    8.3481    0.1337   -0.7514 H   0  0  0  0  0  0  0  0  0  0  0  0
    8.1128    0.2538    1.7740 H   0  0  0  0  0  0  0  0  0  0  0  0
    7.0109    1.6201    1.5953 H   0  0  0  0  0  0  0  0  0  0  0  0
    8.7843    2.3356    2.9626 H   0  0  0  0  0  0  0  0  0  0  0  0
    8.5257   -2.0954    0.2895 H   0  0  0  0  0  0  0  0  0  0  0  0
    8.1162   -2.5084   -1.3830 H   0  0  0  0  0  0  0  0  0  0  0  0
    7.2985   -3.9694    1.1939 H   0  0  0  0  0  0  0  0  0  0  0  0
    8.2489   -4.6209   -0.1607 H   0  0  0  0  0  0  0  0  0  0  0  0
    7.6456   -5.9128   -4.2930 H   0  0  0  0  0  0  0  0  0  0  0  0
    6.0392   -6.6366   -3.9883 H   0  0  0  0  0  0  0  0  0  0  0  0
    7.3719   -7.6412   -4.6312 H   0  0  0  0  0  0  0  0  0  0  0  0
    9.6117   -6.5006   -2.8147 H   0  0  0  0  0  0  0  0  0  0  0  0
    9.3601   -8.2439   -3.1081 H   0  0  0  0  0  0  0  0  0  0  0  0
    9.3980   -7.6153   -1.4372 H   0  0  0  0  0  0  0  0  0  0  0  0
    5.7311   -8.2395   -1.9987 H   0  0  0  0  0  0  0  0  0  0  0  0
    7.1262   -8.6046   -0.9412 H   0  0  0  0  0  0  0  0  0  0  0  0
    7.0589   -9.2822   -2.5883 H   0  0  0  0  0  0  0  0  0  0  0  0
    4.5811   -4.0960    0.7978 H   0  0  0  0  0  0  0  0  0  0  0  0
    4.2080   -4.0338   -0.9302 H   0  0  0  0  0  0  0  0  0  0  0  0
  1  2  1  0
  1 27  1  0
  1 28  1  0
  1 29  1  0
  2  3  2  0
  2  7  1  0
  3  4  1  0
  3 30  1  0
  4  5  2  0
  4 31  1  0
  5  6  1  0
  5 10  1  0
  6  7  2  0
  6  8  1  0
  7 32  1  0
  8  9  2  0
  8 26  1  0
  9 10  1  0
  9 16  1  0
 10 11  1  0
 11 12  1  0
 11 33  1  0
 11 34  1  0
 12 13  1  0
 12 35  1  0
 12 36  1  0
 13 14  2  0
 13 15  1  0
 15 37  1  0
 16 17  1  0
 16 38  1  0
 16 39  1  0
 17 18  1  0
 17 40  1  0
 17 41  1  0
 18 19  1  0
 18 26  1  0
 19 20  2  0
 19 21  1  0
 22 21  1  1
 22 23  1  0
 22 24  1  0
 22 25  1  0
 23 42  1  0
 23 43  1  0
 23 44  1  0
 24 45  1  0
 24 46  1  0
 24 47  1  0
 25 48  1  0
 25 49  1  0
 25 50  1  0
 26 51  1  0
 26 52  1  0
M  END

