
     RDKit          3D

 48 50  0  0  0  0  0  0  0  0999 V2000
    1.1435    1.4233    0.6087 O   0  0  0  0  0  0  0  0  0  0  0  0
    1.7636    0.4010    0.7184 C   0  0  0  0  0  0  0  0  0  0  0  0
    1.1262   -0.7372    1.0830 O   0  0  0  0  0  0  0  0  0  0  0  0
    3.2811    0.2751    0.5112 C   0  0  1  0  0  0  0  0  0  0  0  0
    3.6713   -0.8895   -0.4301 C   0  0  0  0  0  0  0  0  0  0  0  0
    3.3144   -0.5982   -1.8941 C   0  0  0  0  0  0  0  0  0  0  0  0
    3.9337    0.7186   -2.3976 C   0  0  2  0  0  0  0  0  0  0  0  0
    5.3800    0.5788   -2.5768 N   0  0  0  0  0  0  0  0  0  0  0  0
    6.0070    1.2054   -3.6444 C   0  0  0  0  0  0  0  0  0  0  0  0
    5.3804    1.8015   -4.5099 O   0  0  0  0  0  0  0  0  0  0  0  0
    7.3892    1.1026   -3.6788 N   0  0  0  0  0  0  0  0  0  0  0  0
    8.1308    1.8363   -4.6960 C   0  0  0  0  0  0  0  0  0  0  0  0
    8.9158    0.8664   -5.5705 C   0  0  0  0  0  0  0  0  0  0  0  0
    9.7229    0.0012   -4.7877 O   0  0  0  0  0  0  0  0  0  0  0  0
    9.0218   -0.7571   -3.7894 C   0  0  2  0  0  0  0  0  0  0  0  0
   10.1102   -1.5310   -3.0108 C   0  0  0  0  0  0  0  0  0  0  0  0
   10.2041   -2.9407   -3.6555 C   0  0  0  0  0  0  0  0  0  0  0  0
    9.2466   -2.9023   -4.8640 C   0  0  0  0  0  0  0  0  0  0  0  0
    8.1851   -1.8773   -4.4489 C   0  0  0  0  0  0  0  0  0  0  0  0
    8.2194    0.2050   -2.8916 C   0  0  0  0  0  0  0  0  0  0  0  0
    3.5526    1.8813   -1.4603 C   0  0  0  0  0  0  0  0  0  0  0  0
    3.8874    1.5988    0.0117 C   0  0  0  0  0  0  0  0  0  0  0  0
    1.7513   -1.4733    1.1418 H   0  0  0  0  0  0  0  0  0  0  0  0
    3.6855    0.0548    1.5178 H   0  0  0  0  0  0  0  0  0  0  0  0
    3.2151   -1.8442   -0.1126 H   0  0  0  0  0  0  0  0  0  0  0  0
    4.7590   -1.0560   -0.3366 H   0  0  0  0  0  0  0  0  0  0  0  0
    2.2170   -0.5285   -1.9938 H   0  0  0  0  0  0  0  0  0  0  0  0
    3.6417   -1.4294   -2.5383 H   0  0  0  0  0  0  0  0  0  0  0  0
    3.5474    0.9412   -3.4007 H   0  0  0  0  0  0  0  0  0  0  0  0
    5.9308    0.4456   -1.7382 H   0  0  0  0  0  0  0  0  0  0  0  0
    8.8342    2.5332   -4.2006 H   0  0  0  0  0  0  0  0  0  0  0  0
    7.4146    2.4160   -5.2915 H   0  0  0  0  0  0  0  0  0  0  0  0
    9.6047    1.4122   -6.2337 H   0  0  0  0  0  0  0  0  0  0  0  0
    8.2158    0.2929   -6.2077 H   0  0  0  0  0  0  0  0  0  0  0  0
    9.8440   -1.5970   -1.9433 H   0  0  0  0  0  0  0  0  0  0  0  0
   11.0495   -0.9640   -3.0795 H   0  0  0  0  0  0  0  0  0  0  0  0
    9.8746   -3.7094   -2.9373 H   0  0  0  0  0  0  0  0  0  0  0  0
   11.2331   -3.2011   -3.9454 H   0  0  0  0  0  0  0  0  0  0  0  0
    8.8254   -3.8880   -5.1152 H   0  0  0  0  0  0  0  0  0  0  0  0
    9.7766   -2.5289   -5.7540 H   0  0  0  0  0  0  0  0  0  0  0  0
    7.5073   -2.3114   -3.6926 H   0  0  0  0  0  0  0  0  0  0  0  0
    7.5544   -1.5244   -5.2777 H   0  0  0  0  0  0  0  0  0  0  0  0
    8.9346    0.7950   -2.2859 H   0  0  0  0  0  0  0  0  0  0  0  0
    7.6068   -0.3914   -2.2043 H   0  0  0  0  0  0  0  0  0  0  0  0
    2.4695    2.0628   -1.5456 H   0  0  0  0  0  0  0  0  0  0  0  0
    4.0551    2.8004   -1.8006 H   0  0  0  0  0  0  0  0  0  0  0  0
    3.5293    2.4262    0.6411 H   0  0  0  0  0  0  0  0  0  0  0  0
    4.9826    1.5496    0.1515 H   0  0  0  0  0  0  0  0  0  0  0  0
  1  2  2  0
  2  3  1  0
  2  4  1  0
  3 23  1  0
  4  5  1  0
  4 22  1  0
  4 24  1  1
  5  6  1  0
  5 25  1  0
  5 26  1  0
  6  7  1  0
  6 27  1  0
  6 28  1  0
  7  8  1  0
  7 21  1  0
  7 29  1  6
  8  9  1  0
  8 30  1  0
  9 10  2  0
  9 11  1  0
 11 12  1  0
 11 20  1  0
 12 13  1  0
 12 31  1  0
 12 32  1  0
 13 14  1  0
 13 33  1  0
 13 34  1  0
 15 14  1  6
 15 16  1  0
 15 19  1  0
 15 20  1  0
 16 17  1  0
 16 35  1  0
 16 36  1  0
 17 18  1  0
 17 37  1  0
 17 38  1  0
 18 19  1  0
 18 39  1  0
 18 40  1  0
 19 41  1  0
 19 42  1  0
 20 43  1  0
 20 44  1  0
 21 22  1  0
 21 45  1  0
 21 46  1  0
 22 47  1  0
 22 48  1  0
M  END

