
     RDKit          3D

 47 50  0  0  0  0  0  0  0  0999 V2000
    2.1538   -1.9350   -0.2509 O   0  0  0  0  0  0  0  0  0  0  0  0
    1.6258   -0.5866   -0.4884 S   0  0  1  0  0  0  0  0  0  0  0  0
    0.6986   -0.3120   -1.5931 O   0  0  0  0  0  0  0  0  0  0  0  0
    0.8165   -0.0347    1.0589 C   0  0  0  0  0  0  0  0  0  0  0  0
   -0.3911   -0.8718    1.3672 C   0  0  0  0  0  0  0  0  0  0  0  0
   -0.2667   -2.0567    2.1104 C   0  0  0  0  0  0  0  0  0  0  0  0
   -1.3780   -2.8588    2.3699 C   0  0  0  0  0  0  0  0  0  0  0  0
   -2.6192   -2.4704    1.8692 C   0  0  0  0  0  0  0  0  0  0  0  0
   -3.6910   -3.2333    2.1182 F   0  0  0  0  0  0  0  0  0  0  0  0
   -2.7734   -1.3077    1.1166 C   0  0  0  0  0  0  0  0  0  0  0  0
   -1.6530   -0.5156    0.8649 C   0  0  0  0  0  0  0  0  0  0  0  0
    2.9357    0.4802   -0.6276 N   0  0  0  0  0  0  0  0  0  0  0  0
    4.2865   -0.0340   -0.3651 C   0  0  0  0  0  0  0  0  0  0  0  0
    4.9637   -0.5188   -1.6470 C   0  0  0  0  0  0  0  0  0  0  0  0
    4.9199    0.5159   -2.6822 N   0  0  0  0  0  0  0  0  0  0  0  0
    6.0269    0.8137   -3.4336 C   0  0  0  0  0  0  0  0  0  0  0  0
    5.9913    1.6603   -4.5710 C   0  0  0  0  0  0  0  0  0  0  0  0
    7.2040    1.8977   -5.2152 C   0  0  0  0  0  0  0  0  0  0  0  0
    7.2837    2.7280   -6.3498 N   0  0  0  0  0  0  0  0  0  0  0  0
    6.2663    3.4282   -6.9880 C   0  0  0  0  0  0  0  0  0  0  0  0
    6.8683    4.0799   -8.0327 C   0  0  0  0  0  0  0  0  0  0  0  0
    8.2197    3.8086   -8.0634 N   0  0  0  0  0  0  0  0  0  0  0  0
    8.4416    3.0060   -7.0572 C   0  0  0  0  0  0  0  0  0  0  0  0
    8.3608    1.3579   -4.8112 N   0  0  0  0  0  0  0  0  0  0  0  0
    8.2805    0.5648   -3.7475 C   0  0  0  0  0  0  0  0  0  0  0  0
    7.1972    0.2647   -3.0453 N   0  0  0  0  0  0  0  0  0  0  0  0
    3.5805    1.0117   -2.9696 C   0  0  0  0  0  0  0  0  0  0  0  0
    2.8953    1.4933   -1.6836 C   0  0  0  0  0  0  0  0  0  0  0  0
    0.5714    1.0233    0.8924 H   0  0  0  0  0  0  0  0  0  0  0  0
    1.5951   -0.1082    1.8310 H   0  0  0  0  0  0  0  0  0  0  0  0
    0.7136   -2.3606    2.4848 H   0  0  0  0  0  0  0  0  0  0  0  0
   -1.2976   -3.7800    2.9499 H   0  0  0  0  0  0  0  0  0  0  0  0
   -3.7614   -1.0410    0.7371 H   0  0  0  0  0  0  0  0  0  0  0  0
   -1.7604    0.3898    0.2631 H   0  0  0  0  0  0  0  0  0  0  0  0
    4.2276   -0.8583    0.3565 H   0  0  0  0  0  0  0  0  0  0  0  0
    4.8726    0.7842    0.0884 H   0  0  0  0  0  0  0  0  0  0  0  0
    4.4359   -1.4229   -2.0048 H   0  0  0  0  0  0  0  0  0  0  0  0
    6.0130   -0.7766   -1.4656 H   0  0  0  0  0  0  0  0  0  0  0  0
    5.0694    2.0974   -4.9418 H   0  0  0  0  0  0  0  0  0  0  0  0
    5.2339    3.4040   -6.6552 H   0  0  0  0  0  0  0  0  0  0  0  0
    6.3976    4.7327   -8.7673 H   0  0  0  0  0  0  0  0  0  0  0  0
    9.3917    2.5721   -6.7551 H   0  0  0  0  0  0  0  0  0  0  0  0
    9.2192    0.1062   -3.4114 H   0  0  0  0  0  0  0  0  0  0  0  0
    2.9633    0.2135   -3.4243 H   0  0  0  0  0  0  0  0  0  0  0  0
    3.6217    1.8476   -3.6776 H   0  0  0  0  0  0  0  0  0  0  0  0
    1.8519    1.7555   -1.8985 H   0  0  0  0  0  0  0  0  0  0  0  0
    3.4107    2.3931   -1.3042 H   0  0  0  0  0  0  0  0  0  0  0  0
  1  2  2  0
  2  3  2  0
  2  4  1  1
  2 12  1  0
  4  5  1  0
  4 29  1  0
  4 30  1  0
  5  6  2  0
  5 11  1  0
  6  7  1  0
  6 31  1  0
  7  8  2  0
  7 32  1  0
  8  9  1  0
  8 10  1  0
 10 11  2  0
 10 33  1  0
 11 34  1  0
 12 13  1  0
 12 28  1  0
 13 14  1  0
 13 35  1  0
 13 36  1  0
 14 15  1  0
 14 37  1  0
 14 38  1  0
 15 16  1  0
 15 27  1  0
 16 17  2  0
 16 26  1  0
 17 18  1  0
 17 39  1  0
 18 19  1  0
 18 24  2  0
 19 20  1  0
 19 23  1  0
 20 21  2  0
 20 40  1  0
 21 22  1  0
 21 41  1  0
 22 23  2  0
 23 42  1  0
 24 25  1  0
 25 26  2  0
 25 43  1  0
 27 28  1  0
 27 44  1  0
 27 45  1  0
 28 46  1  0
 28 47  1  0
M  END

