
     RDKit          3D

 68 70  0  0  0  0  0  0  0  0999 V2000
    2.0755    2.9279   -0.8292 C   0  0  0  0  0  0  0  0  0  0  0  0
    2.1346    1.5869   -1.5705 C   0  0  0  0  0  0  0  0  0  0  0  0
    3.1169    0.6345   -1.0630 N   0  0  0  0  0  0  0  0  0  0  0  0
    2.6564   -0.3716   -0.1126 C   0  0  0  0  0  0  0  0  0  0  0  0
    2.8612   -0.0218    1.3665 C   0  0  0  0  0  0  0  0  0  0  0  0
    4.4495    0.7218   -1.4279 C   0  0  0  0  0  0  0  0  0  0  0  0
    5.4175   -0.1973   -0.9189 C   0  0  0  0  0  0  0  0  0  0  0  0
    6.7388   -0.1156   -1.3203 C   0  0  0  0  0  0  0  0  0  0  0  0
    7.1988    0.8598   -2.2283 C   0  0  0  0  0  0  0  0  0  0  0  0
    8.5861    0.9218   -2.6215 C   0  0  0  0  0  0  0  0  0  0  0  0
    9.0215    1.8296   -3.4399 N   0  0  0  0  0  0  0  0  0  0  0  0
   10.3272    1.9089   -3.9212 C   0  0  0  0  0  0  0  0  0  0  0  0
   10.8073    3.1958   -4.2380 C   0  0  0  0  0  0  0  0  0  0  0  0
   12.0810    3.3975   -4.7610 C   0  0  0  0  0  0  0  0  0  0  0  0
   12.9064    2.2948   -5.0135 C   0  0  0  0  0  0  0  0  0  0  0  0
   12.4498    1.0110   -4.7273 C   0  0  0  0  0  0  0  0  0  0  0  0
   11.1748    0.7814   -4.1641 C   0  0  0  0  0  0  0  0  0  0  0  0
   10.6897   -0.5027   -3.9348 N   0  0  0  0  0  0  0  0  0  0  0  0
   11.4531   -1.4660   -3.5569 C   0  0  0  0  0  0  0  0  0  0  0  0
   10.9788   -2.8376   -3.4255 C   0  0  0  0  0  0  0  0  0  0  0  0
    9.6623   -3.2096   -3.7633 C   0  0  0  0  0  0  0  0  0  0  0  0
    9.1966   -4.5078   -3.6433 C   0  0  0  0  0  0  0  0  0  0  0  0
   10.0467   -5.5441   -3.1624 C   0  0  0  0  0  0  0  0  0  0  0  0
    9.6013   -6.8457   -3.0381 N   0  0  0  0  0  0  0  0  0  0  0  0
   10.4937   -7.9317   -2.6529 C   0  0  0  0  0  0  0  0  0  0  0  0
   10.6183   -8.1405   -1.1398 C   0  0  0  0  0  0  0  0  0  0  0  0
    8.2108   -7.2098   -3.2913 C   0  0  0  0  0  0  0  0  0  0  0  0
    7.9064   -7.5575   -4.7517 C   0  0  0  0  0  0  0  0  0  0  0  0
   11.3724   -5.1795   -2.8200 C   0  0  0  0  0  0  0  0  0  0  0  0
   11.8265   -3.8650   -2.9498 C   0  0  0  0  0  0  0  0  0  0  0  0
   13.1001   -3.5297   -2.6137 O   0  0  0  0  0  0  0  0  0  0  0  0
    6.2382    1.7910   -2.7328 C   0  0  0  0  0  0  0  0  0  0  0  0
    6.5965    2.7490   -3.5854 O   0  0  0  0  0  0  0  0  0  0  0  0
    4.9007    1.7131   -2.3280 C   0  0  0  0  0  0  0  0  0  0  0  0
    1.3293    3.5900   -1.2984 H   0  0  0  0  0  0  0  0  0  0  0  0
    3.0479    3.4426   -0.8527 H   0  0  0  0  0  0  0  0  0  0  0  0
    1.7908    2.7923    0.2257 H   0  0  0  0  0  0  0  0  0  0  0  0
    2.3241    1.7628   -2.6418 H   0  0  0  0  0  0  0  0  0  0  0  0
    1.1484    1.0986   -1.5191 H   0  0  0  0  0  0  0  0  0  0  0  0
    3.1442   -1.3339   -0.3381 H   0  0  0  0  0  0  0  0  0  0  0  0
    1.5833   -0.5332   -0.3021 H   0  0  0  0  0  0  0  0  0  0  0  0
    3.9236    0.1551    1.5934 H   0  0  0  0  0  0  0  0  0  0  0  0
    2.5085   -0.8471    2.0069 H   0  0  0  0  0  0  0  0  0  0  0  0
    2.3028    0.8849    1.6459 H   0  0  0  0  0  0  0  0  0  0  0  0
    5.1337   -0.9713   -0.2091 H   0  0  0  0  0  0  0  0  0  0  0  0
    7.4607   -0.8343   -0.9204 H   0  0  0  0  0  0  0  0  0  0  0  0
    9.2612    0.1759   -2.1788 H   0  0  0  0  0  0  0  0  0  0  0  0
   10.1402    4.0409   -4.0538 H   0  0  0  0  0  0  0  0  0  0  0  0
   12.4231    4.4097   -4.9909 H   0  0  0  0  0  0  0  0  0  0  0  0
   13.8979    2.4343   -5.4522 H   0  0  0  0  0  0  0  0  0  0  0  0
   13.0724    0.1477   -4.9732 H   0  0  0  0  0  0  0  0  0  0  0  0
   12.5115   -1.2954   -3.2941 H   0  0  0  0  0  0  0  0  0  0  0  0
    9.0031   -2.4255   -4.1417 H   0  0  0  0  0  0  0  0  0  0  0  0
    8.1727   -4.7241   -3.9421 H   0  0  0  0  0  0  0  0  0  0  0  0
   11.4870   -7.7656   -3.0992 H   0  0  0  0  0  0  0  0  0  0  0  0
   10.1171   -8.8564   -3.1202 H   0  0  0  0  0  0  0  0  0  0  0  0
   11.0197   -7.2449   -0.6413 H   0  0  0  0  0  0  0  0  0  0  0  0
   11.2893   -8.9867   -0.9192 H   0  0  0  0  0  0  0  0  0  0  0  0
    9.6378   -8.3613   -0.6884 H   0  0  0  0  0  0  0  0  0  0  0  0
    7.5520   -6.3983   -2.9466 H   0  0  0  0  0  0  0  0  0  0  0  0
    7.9707   -8.0734   -2.6493 H   0  0  0  0  0  0  0  0  0  0  0  0
    8.1042   -6.7029   -5.4164 H   0  0  0  0  0  0  0  0  0  0  0  0
    6.8489   -7.8453   -4.8683 H   0  0  0  0  0  0  0  0  0  0  0  0
    8.5254   -8.4013   -5.0971 H   0  0  0  0  0  0  0  0  0  0  0  0
   12.0695   -5.9198   -2.4252 H   0  0  0  0  0  0  0  0  0  0  0  0
   13.5730   -4.3157   -2.3115 H   0  0  0  0  0  0  0  0  0  0  0  0
    7.5865    2.6417   -3.7382 H   0  0  0  0  0  0  0  0  0  0  0  0
    4.2321    2.4627   -2.7455 H   0  0  0  0  0  0  0  0  0  0  0  0
  1  2  1  0
  1 35  1  0
  1 36  1  0
  1 37  1  0
  2  3  1  0
  2 38  1  0
  2 39  1  0
  3  4  1  0
  3  6  1  0
  4  5  1  0
  4 40  1  0
  4 41  1  0
  5 42  1  0
  5 43  1  0
  5 44  1  0
  6  7  2  0
  6 34  1  0
  7  8  1  0
  7 45  1  0
  8  9  2  0
  8 46  1  0
  9 10  1  0
  9 32  1  0
 10 11  2  0
 10 47  1  0
 11 12  1  0
 12 13  2  0
 12 17  1  0
 13 14  1  0
 13 48  1  0
 14 15  2  0
 14 49  1  0
 15 16  1  0
 15 50  1  0
 16 17  2  0
 16 51  1  0
 17 18  1  0
 18 19  2  0
 19 20  1  0
 19 52  1  0
 20 21  2  0
 20 30  1  0
 21 22  1  0
 21 53  1  0
 22 23  2  0
 22 54  1  0
 23 24  1  0
 23 29  1  0
 24 25  1  0
 24 27  1  0
 25 26  1  0
 25 55  1  0
 25 56  1  0
 26 57  1  0
 26 58  1  0
 26 59  1  0
 27 28  1  0
 27 60  1  0
 27 61  1  0
 28 62  1  0
 28 63  1  0
 28 64  1  0
 29 30  2  0
 29 65  1  0
 30 31  1  0
 31 66  1  0
 32 33  1  0
 32 34  2  0
 33 67  1  0
 34 68  1  0
M  END

