
     RDKit          3D

 32 33  0  0  0  0  0  0  0  0999 V2000
    0.7317   -0.6352   -0.1238 C   0  0  0  0  0  0  0  0  0  0  0  0
    2.2509   -0.5465    0.0262 C   0  0  0  0  0  0  0  0  0  0  0  0
    2.9827   -0.3970   -1.3239 C   0  0  0  0  0  0  0  0  0  0  0  0
    4.4952   -0.3058   -1.2226 C   0  0  0  0  0  0  0  0  0  0  0  0
    5.2534   -1.4815   -1.1479 C   0  0  0  0  0  0  0  0  0  0  0  0
    4.6590   -2.8808   -1.0959 C   0  0  0  0  0  0  0  0  0  0  0  0
    5.5289   -3.8866   -1.5705 O   0  0  0  0  0  0  0  0  0  0  0  0
    6.6653   -1.3637   -1.0944 C   0  0  0  0  0  0  0  0  0  0  0  0
    7.3408   -0.2415   -1.1776 N   0  0  0  0  0  0  0  0  0  0  0  0
    6.6457    0.9188   -1.2848 C   0  0  0  0  0  0  0  0  0  0  0  0
    7.3824    2.0373   -1.4496 N   0  0  0  0  0  0  0  0  0  0  0  0
    6.7241    3.1779   -1.5514 C   0  0  0  0  0  0  0  0  0  0  0  0
    7.4341    4.3050   -1.8252 N   0  0  0  0  0  0  0  0  0  0  0  0
    5.3886    3.3514   -1.3864 N   0  0  0  0  0  0  0  0  0  0  0  0
    4.6399    2.2806   -1.2069 C   0  0  0  0  0  0  0  0  0  0  0  0
    3.3080    2.5356   -0.9966 N   0  0  0  0  0  0  0  0  0  0  0  0
    5.2034    0.9387   -1.2336 C   0  0  0  0  0  0  0  0  0  0  0  0
    0.2367   -0.7508    0.8532 H   0  0  0  0  0  0  0  0  0  0  0  0
    0.4430   -1.4967   -0.7482 H   0  0  0  0  0  0  0  0  0  0  0  0
    0.3188    0.2682   -0.6034 H   0  0  0  0  0  0  0  0  0  0  0  0
    2.6282   -1.4435    0.5451 H   0  0  0  0  0  0  0  0  0  0  0  0
    2.5141    0.2932    0.6968 H   0  0  0  0  0  0  0  0  0  0  0  0
    2.5874    0.4709   -1.8685 H   0  0  0  0  0  0  0  0  0  0  0  0
    2.7241   -1.2704   -1.9428 H   0  0  0  0  0  0  0  0  0  0  0  0
    3.6897   -2.9129   -1.6289 H   0  0  0  0  0  0  0  0  0  0  0  0
    4.4387   -3.1583   -0.0498 H   0  0  0  0  0  0  0  0  0  0  0  0
    5.7640   -3.6734   -2.4842 H   0  0  0  0  0  0  0  0  0  0  0  0
    7.2524   -2.2853   -1.0020 H   0  0  0  0  0  0  0  0  0  0  0  0
    8.4429    4.2455   -1.8340 H   0  0  0  0  0  0  0  0  0  0  0  0
    6.9737    5.2019   -1.7672 H   0  0  0  0  0  0  0  0  0  0  0  0
    3.1059    3.5204   -0.8581 H   0  0  0  0  0  0  0  0  0  0  0  0
    2.7575    1.8923   -0.4465 H   0  0  0  0  0  0  0  0  0  0  0  0
  1  2  1  0
  1 18  1  0
  1 19  1  0
  1 20  1  0
  2  3  1  0
  2 21  1  0
  2 22  1  0
  3  4  1  0
  3 23  1  0
  3 24  1  0
  4  5  2  0
  4 17  1  0
  5  6  1  0
  5  8  1  0
  6  7  1  0
  6 25  1  0
  6 26  1  0
  7 27  1  0
  8  9  2  0
  8 28  1  0
  9 10  1  0
 10 11  1  0
 10 17  2  0
 11 12  2  0
 12 13  1  0
 12 14  1  0
 13 29  1  0
 13 30  1  0
 14 15  2  0
 15 16  1  0
 15 17  1  0
 16 31  1  0
 16 32  1  0
M  END

