
     RDKit          3D

 32 33  0  0  0  0  0  0  0  0999 V2000
    1.0318   -0.4575    0.2088 O   0  0  0  0  0  0  0  0  0  0  0  0
    2.4080   -0.1545    0.2066 C   0  0  0  0  0  0  0  0  0  0  0  0
    2.9728   -0.0395   -1.2229 C   0  0  1  0  0  0  0  0  0  0  0  0
    2.2829    1.0852   -2.0553 C   0  0  0  0  0  0  0  0  0  0  0  0
    2.4865    2.5013   -1.5677 C   0  0  0  0  0  0  0  0  0  0  0  0
    3.5601    3.2971   -2.0036 C   0  0  0  0  0  0  0  0  0  0  0  0
    3.7367    4.6069   -1.5501 C   0  0  0  0  0  0  0  0  0  0  0  0
    2.8315    5.1611   -0.6400 C   0  0  0  0  0  0  0  0  0  0  0  0
    1.7500    4.4009   -0.1886 C   0  0  0  0  0  0  0  0  0  0  0  0
    1.6061    3.0997   -0.6589 C   0  0  0  0  0  0  0  0  0  0  0  0
    0.5415    2.3818   -0.2106 F   0  0  0  0  0  0  0  0  0  0  0  0
    4.4889    0.0441   -1.2705 C   0  0  0  0  0  0  0  0  0  0  0  0
    5.2320    0.6870   -0.2636 C   0  0  0  0  0  0  0  0  0  0  0  0
    6.6258    0.7684   -0.3040 C   0  0  0  0  0  0  0  0  0  0  0  0
    7.3262    0.2031   -1.3709 C   0  0  0  0  0  0  0  0  0  0  0  0
    6.6241   -0.4384   -2.3926 C   0  0  0  0  0  0  0  0  0  0  0  0
    5.2294   -0.5104   -2.3352 C   0  0  0  0  0  0  0  0  0  0  0  0
    4.4101   -1.3247   -3.6632 Cl  0  0  0  0  0  0  0  0  0  0  0  0
    0.5475    0.3738    0.1214 H   0  0  0  0  0  0  0  0  0  0  0  0
    2.9273   -0.9798    0.7217 H   0  0  0  0  0  0  0  0  0  0  0  0
    2.6113    0.7623    0.7918 H   0  0  0  0  0  0  0  0  0  0  0  0
    2.6831   -0.9761   -1.7234 H   0  0  0  0  0  0  0  0  0  0  0  0
    1.2074    0.8540   -2.0790 H   0  0  0  0  0  0  0  0  0  0  0  0
    2.6450    1.0085   -3.0912 H   0  0  0  0  0  0  0  0  0  0  0  0
    4.2662    2.8726   -2.7215 H   0  0  0  0  0  0  0  0  0  0  0  0
    4.5816    5.1974   -1.9118 H   0  0  0  0  0  0  0  0  0  0  0  0
    2.9610    6.1856   -0.2830 H   0  0  0  0  0  0  0  0  0  0  0  0
    1.0161    4.7967    0.5160 H   0  0  0  0  0  0  0  0  0  0  0  0
    4.7047    1.1408    0.5768 H   0  0  0  0  0  0  0  0  0  0  0  0
    7.1625    1.2759    0.5011 H   0  0  0  0  0  0  0  0  0  0  0  0
    8.4167    0.2584   -1.4139 H   0  0  0  0  0  0  0  0  0  0  0  0
    7.1470   -0.8887   -3.2379 H   0  0  0  0  0  0  0  0  0  0  0  0
  1  2  1  0
  1 19  1  0
  2  3  1  0
  2 20  1  0
  2 21  1  0
  3  4  1  0
  3 12  1  0
  3 22  1  6
  4  5  1  0
  4 23  1  0
  4 24  1  0
  5  6  2  0
  5 10  1  0
  6  7  1  0
  6 25  1  0
  7  8  2  0
  7 26  1  0
  8  9  1  0
  8 27  1  0
  9 10  2  0
  9 28  1  0
 10 11  1  0
 12 13  2  0
 12 17  1  0
 13 14  1  0
 13 29  1  0
 14 15  2  0
 14 30  1  0
 15 16  1  0
 15 31  1  0
 16 17  2  0
 16 32  1  0
 17 18  1  0
M  END

