
     RDKit          3D

 38 38  0  0  0  0  0  0  0  0999 V2000
    4.4822    0.7387   -4.7352 C   0  0  0  0  0  0  0  0  0  0  0  0
    4.9001    0.9834   -3.4006 O   0  0  0  0  0  0  0  0  0  0  0  0
    3.9399    1.5011   -2.5706 C   0  0  0  0  0  0  0  0  0  0  0  0
    3.9548    2.8609   -2.2518 C   0  0  0  0  0  0  0  0  0  0  0  0
    3.0175    3.4123   -1.3722 C   0  0  0  0  0  0  0  0  0  0  0  0
    2.0542    2.5694   -0.8282 C   0  0  0  0  0  0  0  0  0  0  0  0
    1.1349    3.0738    0.0122 F   0  0  0  0  0  0  0  0  0  0  0  0
    2.0079    1.2086   -1.1253 C   0  0  0  0  0  0  0  0  0  0  0  0
    2.9579    0.6568   -1.9973 C   0  0  0  0  0  0  0  0  0  0  0  0
    2.9599   -0.6524   -2.3256 O   0  0  0  0  0  0  0  0  0  0  0  0
    2.9396   -2.0838   -1.3914 Si  0  0  1  0  0  4  0  0  0  0  0  0
    3.5680   -1.6958    0.3405 C   0  0  0  0  0  0  0  0  0  0  0  0
    1.1619   -2.7041   -1.3326 C   0  0  0  0  0  0  0  0  0  0  0  0
    4.0959   -3.2796   -2.3366 C   0  0  1  0  0  0  0  0  0  0  0  0
    5.5222   -2.6894   -2.3554 C   0  0  0  0  0  0  0  0  0  0  0  0
    4.1141   -4.6552   -1.6379 C   0  0  0  0  0  0  0  0  0  0  0  0
    3.5953   -3.4502   -3.7856 C   0  0  0  0  0  0  0  0  0  0  0  0
    5.3414    0.3068   -5.2678 H   0  0  0  0  0  0  0  0  0  0  0  0
    4.1834    1.6772   -5.2374 H   0  0  0  0  0  0  0  0  0  0  0  0
    3.6386    0.0291   -4.7746 H   0  0  0  0  0  0  0  0  0  0  0  0
    4.7325    3.4831   -2.7003 H   0  0  0  0  0  0  0  0  0  0  0  0
    3.0240    4.4715   -1.1107 H   0  0  0  0  0  0  0  0  0  0  0  0
    1.2266    0.5888   -0.6833 H   0  0  0  0  0  0  0  0  0  0  0  0
    2.8938   -1.0029    0.8681 H   0  0  0  0  0  0  0  0  0  0  0  0
    4.5677   -1.2343    0.3135 H   0  0  0  0  0  0  0  0  0  0  0  0
    3.6352   -2.6167    0.9429 H   0  0  0  0  0  0  0  0  0  0  0  0
    0.5162   -1.9933   -0.7913 H   0  0  0  0  0  0  0  0  0  0  0  0
    1.0914   -3.6749   -0.8152 H   0  0  0  0  0  0  0  0  0  0  0  0
    0.7461   -2.8279   -2.3451 H   0  0  0  0  0  0  0  0  0  0  0  0
    5.9565   -2.6348   -1.3435 H   0  0  0  0  0  0  0  0  0  0  0  0
    5.5400   -1.6736   -2.7807 H   0  0  0  0  0  0  0  0  0  0  0  0
    6.1925   -3.3251   -2.9619 H   0  0  0  0  0  0  0  0  0  0  0  0
    4.4697   -4.5895   -0.5961 H   0  0  0  0  0  0  0  0  0  0  0  0
    4.7945   -5.3453   -2.1687 H   0  0  0  0  0  0  0  0  0  0  0  0
    3.1187   -5.1295   -1.6240 H   0  0  0  0  0  0  0  0  0  0  0  0
    3.5665   -2.4888   -4.3215 H   0  0  0  0  0  0  0  0  0  0  0  0
    2.5850   -3.8898   -3.8279 H   0  0  0  0  0  0  0  0  0  0  0  0
    4.2681   -4.1245   -4.3461 H   0  0  0  0  0  0  0  0  0  0  0  0
  1  2  1  0
  1 18  1  0
  1 19  1  0
  1 20  1  0
  2  3  1  0
  3  4  2  0
  3  9  1  0
  4  5  1  0
  4 21  1  0
  5  6  2  0
  5 22  1  0
  6  7  1  0
  6  8  1  0
  8  9  2  0
  8 23  1  0
  9 10  1  0
 11 10  1  6
 11 12  1  0
 11 13  1  0
 11 14  1  0
 12 24  1  0
 12 25  1  0
 12 26  1  0
 13 27  1  0
 13 28  1  0
 13 29  1  0
 14 15  1  6
 14 16  1  0
 14 17  1  0
 15 30  1  0
 15 31  1  0
 15 32  1  0
 16 33  1  0
 16 34  1  0
 16 35  1  0
 17 36  1  0
 17 37  1  0
 17 38  1  0
M  END

