
     RDKit          3D

 22 22  0  0  0  0  0  0  0  0999 V2000
    0.9176    0.0569    0.2274 C   0  0  0  0  0  0  0  0  0  0  0  0
    2.3531   -0.0771    0.0909 N   0  0  0  0  0  0  0  0  0  0  0  0
    3.0534   -1.1268    0.6015 C   0  0  0  0  0  0  0  0  0  0  0  0
    2.5410   -2.0398    1.2285 O   0  0  0  0  0  0  0  0  0  0  0  0
    4.5959   -1.0640    0.4025 C   0  0  1  0  0  0  0  0  0  0  0  0
    5.1518   -2.4663    0.1547 C   0  0  0  0  0  0  0  0  0  0  0  0
    4.9511   -2.8484   -1.2362 N   0  0  0  0  0  0  0  0  0  0  0  0
    4.8959   -2.0093   -2.3096 C   0  0  0  0  0  0  0  0  0  0  0  0
    4.8463   -2.4059   -3.4602 O   0  0  0  0  0  0  0  0  0  0  0  0
    4.8178   -0.5132   -1.9997 C   0  0  0  0  0  0  0  0  0  0  0  0
    5.1220   -0.1806   -0.6186 N   0  0  0  0  0  0  0  0  0  0  0  0
    0.6466    0.9783    0.7702 H   0  0  0  0  0  0  0  0  0  0  0  0
    0.5560   -0.8090    0.7974 H   0  0  0  0  0  0  0  0  0  0  0  0
    0.4175    0.0698   -0.7554 H   0  0  0  0  0  0  0  0  0  0  0  0
    2.8660    0.6220   -0.4301 H   0  0  0  0  0  0  0  0  0  0  0  0
    4.9875   -0.7295    1.3788 H   0  0  0  0  0  0  0  0  0  0  0  0
    4.6241   -3.1768    0.8051 H   0  0  0  0  0  0  0  0  0  0  0  0
    6.2256   -2.4736    0.4152 H   0  0  0  0  0  0  0  0  0  0  0  0
    4.9968   -3.8334   -1.4807 H   0  0  0  0  0  0  0  0  0  0  0  0
    3.8051   -0.2088   -2.3449 H   0  0  0  0  0  0  0  0  0  0  0  0
    5.5346   -0.0208   -2.6751 H   0  0  0  0  0  0  0  0  0  0  0  0
    5.0815    0.8099   -0.4028 H   0  0  0  0  0  0  0  0  0  0  0  0
  1  2  1  0
  1 12  1  0
  1 13  1  0
  1 14  1  0
  2  3  1  0
  2 15  1  0
  3  4  2  0
  3  5  1  0
  5  6  1  0
  5 11  1  0
  5 16  1  1
  6  7  1  0
  6 17  1  0
  6 18  1  0
  7  8  1  0
  7 19  1  0
  8  9  2  0
  8 10  1  0
 10 11  1  0
 10 20  1  0
 10 21  1  0
 11 22  1  0
M  END

