
     RDKit          3D

 44 47  0  0  0  0  0  0  0  0999 V2000
    2.7746   -2.8732   -0.7998 O   0  0  0  0  0  0  0  0  0  0  0  0
    3.2347   -1.7765   -0.5128 C   0  0  0  0  0  0  0  0  0  0  0  0
    3.1026   -1.2143    0.7277 N   0  0  0  0  0  0  0  0  0  0  0  0
    2.4453   -1.8871    1.8259 C   0  0  0  0  0  0  0  0  0  0  0  0
    3.4200   -2.2738    2.9682 C   0  0  1  0  0  0  0  0  0  0  0  0
    4.1737   -2.9630    2.5206 H   0  0  0  0  0  0  0  0  0  0  0  0
    4.1608   -1.0388    3.4705 C   0  0  0  0  0  0  0  0  0  0  0  0
    5.4681   -0.7677    3.0495 C   0  0  0  0  0  0  0  0  0  0  0  0
    6.1568    0.3989    3.4457 C   0  0  0  0  0  0  0  0  0  0  0  0
    5.4828    1.2707    4.2797 C   0  0  0  0  0  0  0  0  0  0  0  0
    4.1770    1.0087    4.7083 C   0  0  0  0  0  0  0  0  0  0  0  0
    3.4910   -0.1263    4.3224 C   0  0  0  0  0  0  0  0  0  0  0  0
    3.7511    2.0366    5.5049 O   0  0  0  0  0  0  0  0  0  0  0  0
    4.8796    2.8826    5.7026 C   0  0  0  0  0  0  0  0  0  0  0  0
    5.8989    2.4661    4.7981 O   0  0  0  0  0  0  0  0  0  0  0  0
    2.7012   -2.9290    4.0537 N   0  0  0  0  0  0  0  0  0  0  0  0
    1.8537   -4.0672    3.6904 C   0  0  0  0  0  0  0  0  0  0  0  0
    1.4820   -4.7096    5.0416 C   0  0  0  0  0  0  0  0  0  0  0  0
    2.5834   -4.2260    6.0215 C   0  0  0  0  0  0  0  0  0  0  0  0
    3.5504   -3.4302    5.1344 C   0  0  0  0  0  0  0  0  0  0  0  0
    3.9853   -0.9408   -1.5099 C   0  0  1  0  0  0  0  0  0  0  0  0
    4.8244   -1.6774   -2.5368 C   0  0  0  0  0  0  0  0  0  0  0  0
    3.5458   -1.0316   -2.9586 C   0  0  0  0  0  0  0  0  0  0  0  0
    3.5451   -0.3210    0.9067 H   0  0  0  0  0  0  0  0  0  0  0  0
    1.9882   -2.7862    1.3938 H   0  0  0  0  0  0  0  0  0  0  0  0
    1.6408   -1.2558    2.2428 H   0  0  0  0  0  0  0  0  0  0  0  0
    5.9762   -1.4853    2.4006 H   0  0  0  0  0  0  0  0  0  0  0  0
    7.1769    0.6034    3.1172 H   0  0  0  0  0  0  0  0  0  0  0  0
    2.4790   -0.3338    4.6723 H   0  0  0  0  0  0  0  0  0  0  0  0
    5.2429    2.7839    6.7450 H   0  0  0  0  0  0  0  0  0  0  0  0
    4.6018    3.9290    5.4939 H   0  0  0  0  0  0  0  0  0  0  0  0
    2.4087   -4.7958    3.0559 H   0  0  0  0  0  0  0  0  0  0  0  0
    0.9680   -3.7495    3.1216 H   0  0  0  0  0  0  0  0  0  0  0  0
    1.4399   -5.8060    4.9594 H   0  0  0  0  0  0  0  0  0  0  0  0
    0.4889   -4.3721    5.3736 H   0  0  0  0  0  0  0  0  0  0  0  0
    3.0920   -5.0541    6.5376 H   0  0  0  0  0  0  0  0  0  0  0  0
    2.1523   -3.5734    6.7957 H   0  0  0  0  0  0  0  0  0  0  0  0
    4.3498   -4.0984    4.7364 H   0  0  0  0  0  0  0  0  0  0  0  0
    4.0507   -2.6068    5.6646 H   0  0  0  0  0  0  0  0  0  0  0  0
    4.3577    0.0261   -1.1577 H   0  0  0  0  0  0  0  0  0  0  0  0
    4.8311   -2.7672   -2.4516 H   0  0  0  0  0  0  0  0  0  0  0  0
    5.7725   -1.2203   -2.8329 H   0  0  0  0  0  0  0  0  0  0  0  0
    2.6940   -1.6875   -3.1562 H   0  0  0  0  0  0  0  0  0  0  0  0
    3.5854   -0.1155   -3.5542 H   0  0  0  0  0  0  0  0  0  0  0  0
  1  2  2  0
  2  3  1  0
  2 21  1  0
  3  4  1  0
  3 24  1  0
  4  5  1  0
  4 25  1  0
  4 26  1  0
  5  6  1  6
  5  7  1  0
  5 16  1  0
  7  8  2  0
  7 12  1  0
  8  9  1  0
  8 27  1  0
  9 10  2  0
  9 28  1  0
 10 11  1  0
 10 15  1  0
 11 12  2  0
 11 13  1  0
 12 29  1  0
 13 14  1  0
 14 15  1  0
 14 30  1  0
 14 31  1  0
 16 17  1  0
 16 20  1  0
 17 18  1  0
 17 32  1  0
 17 33  1  0
 18 19  1  0
 18 34  1  0
 18 35  1  0
 19 20  1  0
 19 36  1  0
 19 37  1  0
 20 38  1  0
 20 39  1  0
 21 22  1  0
 21 23  1  0
 21 40  1  1
 22 23  1  0
 22 41  1  0
 22 42  1  0
 23 43  1  0
 23 44  1  0
M  END

