
     RDKit          3D

 32 33  0  0  0  0  0  0  0  0999 V2000
    4.6084    2.0328   -1.8529 C   0  0  0  0  0  0  0  0  0  0  0  0
    4.2836    1.0098   -0.8797 N   0  0  0  0  0  0  0  0  0  0  0  0
    4.8885    1.2052    0.4234 C   0  0  0  0  0  0  0  0  0  0  0  0
    4.4527    0.1141    1.3994 C   0  0  0  0  0  0  0  0  0  0  0  0
    5.0319    0.2857    2.7939 C   0  0  1  0  0  0  0  0  0  0  0  0
    4.5178    1.5002    3.3503 O   0  0  0  0  0  0  0  0  0  0  0  0
    4.7860    1.7308    4.6670 C   0  0  0  0  0  0  0  0  0  0  0  0
    4.9017    3.0318    5.1495 C   0  0  0  0  0  0  0  0  0  0  0  0
    5.1166    3.2564    6.5140 C   0  0  0  0  0  0  0  0  0  0  0  0
    5.2305    2.1897    7.4166 C   0  0  0  0  0  0  0  0  0  0  0  0
    5.4730    2.4224    8.8886 C   0  0  0  0  0  0  0  0  0  0  0  0
    5.1162    0.8816    6.9166 C   0  0  0  0  0  0  0  0  0  0  0  0
    4.8875    0.6464    5.5593 C   0  0  0  0  0  0  0  0  0  0  0  0
    4.7174   -0.6413    5.0305 N   0  0  0  0  0  0  0  0  0  0  0  0
    4.7452   -0.9305    3.6905 C   0  0  0  0  0  0  0  0  0  0  0  0
    4.6134   -2.0579    3.2567 O   0  0  0  0  0  0  0  0  0  0  0  0
    4.1448    1.7922   -2.8226 H   0  0  0  0  0  0  0  0  0  0  0  0
    5.6994    2.1808   -2.0248 H   0  0  0  0  0  0  0  0  0  0  0  0
    4.2001    3.0048   -1.5268 H   0  0  0  0  0  0  0  0  0  0  0  0
    4.5287    0.0891   -1.2425 H   0  0  0  0  0  0  0  0  0  0  0  0
    4.5680    2.1868    0.8122 H   0  0  0  0  0  0  0  0  0  0  0  0
    6.0050    1.2426    0.3884 H   0  0  0  0  0  0  0  0  0  0  0  0
    4.7651   -0.8790    1.0390 H   0  0  0  0  0  0  0  0  0  0  0  0
    3.3530    0.0977    1.4640 H   0  0  0  0  0  0  0  0  0  0  0  0
    6.1387    0.3686    2.7318 H   0  0  0  0  0  0  0  0  0  0  0  0
    4.8111    3.8603    4.4443 H   0  0  0  0  0  0  0  0  0  0  0  0
    5.2023    4.2830    6.8790 H   0  0  0  0  0  0  0  0  0  0  0  0
    5.5133    3.4959    9.1242 H   0  0  0  0  0  0  0  0  0  0  0  0
    6.4250    1.9721    9.2168 H   0  0  0  0  0  0  0  0  0  0  0  0
    4.6758    1.9738    9.5049 H   0  0  0  0  0  0  0  0  0  0  0  0
    5.1953    0.0279    7.5967 H   0  0  0  0  0  0  0  0  0  0  0  0
    4.6056   -1.4342    5.6556 H   0  0  0  0  0  0  0  0  0  0  0  0
  1  2  1  0
  1 17  1  0
  1 18  1  0
  1 19  1  0
  2  3  1  0
  2 20  1  0
  3  4  1  0
  3 21  1  0
  3 22  1  0
  4  5  1  0
  4 23  1  0
  4 24  1  0
  5  6  1  0
  5 15  1  0
  5 25  1  6
  6  7  1  0
  7  8  1  0
  7 13  2  0
  8  9  2  0
  8 26  1  0
  9 10  1  0
  9 27  1  0
 10 11  1  0
 10 12  2  0
 11 28  1  0
 11 29  1  0
 11 30  1  0
 12 13  1  0
 12 31  1  0
 13 14  1  0
 14 15  1  0
 14 32  1  0
 15 16  2  0
M  END

