
     RDKit          3D

 46 49  0  0  0  0  0  0  0  0999 V2000
    1.0752   -0.1853   -0.2467 C   0  0  0  0  0  0  0  0  0  0  0  0
    2.5126   -0.0520   -0.0728 N   0  0  0  0  0  0  0  0  0  0  0  0
    2.9802    1.2327    0.4302 C   0  0  0  0  0  0  0  0  0  0  0  0
    2.9008    1.3841    1.9285 C   0  0  0  0  0  0  0  0  0  0  0  0
    2.7341    2.5780    2.6824 C   0  0  0  0  0  0  0  0  0  0  0  0
    2.7492    2.3462    3.9863 N   0  0  0  0  0  0  0  0  0  0  0  0
    2.9192    1.0157    4.1130 N   0  0  0  0  0  0  0  0  0  0  0  0
    2.9770    0.4209    5.4026 C   0  0  0  0  0  0  0  0  0  0  0  0
    3.1722    1.2361    6.5271 C   0  0  0  0  0  0  0  0  0  0  0  0
    3.2364    0.6587    7.7955 C   0  0  0  0  0  0  0  0  0  0  0  0
    3.1131   -0.7251    7.9573 C   0  0  0  0  0  0  0  0  0  0  0  0
    2.9156   -1.5311    6.8331 C   0  0  0  0  0  0  0  0  0  0  0  0
    2.8411   -0.9661    5.5580 C   0  0  0  0  0  0  0  0  0  0  0  0
    3.0186    0.4002    2.8942 C   0  0  0  0  0  0  0  0  0  0  0  0
    3.3279   -1.1076   -0.4336 C   0  0  0  0  0  0  0  0  0  0  0  0
    2.8688   -2.1193   -0.9574 O   0  0  0  0  0  0  0  0  0  0  0  0
    4.7856   -0.9864   -0.1399 C   0  0  0  0  0  0  0  0  0  0  0  0
    5.6062   -1.9700   -0.5776 C   0  0  0  0  0  0  0  0  0  0  0  0
    7.0267   -2.0912   -0.4128 C   0  0  0  0  0  0  0  0  0  0  0  0
    8.0282   -1.3023    0.1871 C   0  0  0  0  0  0  0  0  0  0  0  0
    7.7716    0.2074    0.9870 Cl  0  0  0  0  0  0  0  0  0  0  0  0
    9.2528   -1.8226    0.0891 N   0  0  0  0  0  0  0  0  0  0  0  0
    9.0971   -2.9696   -0.5770 C   0  0  0  0  0  0  0  0  0  0  0  0
   10.0558   -3.9321   -0.9637 C   0  0  0  0  0  0  0  0  0  0  0  0
    9.6479   -5.0524   -1.6551 C   0  0  0  0  0  0  0  0  0  0  0  0
    8.2728   -5.2323   -1.9729 C   0  0  0  0  0  0  0  0  0  0  0  0
    7.3440   -4.2967   -1.5960 C   0  0  0  0  0  0  0  0  0  0  0  0
    7.7505   -3.1811   -0.9084 N   0  0  0  0  0  0  0  0  0  0  0  0
    0.7072    0.4865   -1.0434 H   0  0  0  0  0  0  0  0  0  0  0  0
    0.5499    0.0703    0.6887 H   0  0  0  0  0  0  0  0  0  0  0  0
    0.8504   -1.2203   -0.5271 H   0  0  0  0  0  0  0  0  0  0  0  0
    2.3737    2.0253   -0.0416 H   0  0  0  0  0  0  0  0  0  0  0  0
    4.0071    1.4106    0.0790 H   0  0  0  0  0  0  0  0  0  0  0  0
    2.6004    3.5958    2.3135 H   0  0  0  0  0  0  0  0  0  0  0  0
    3.2670    2.3119    6.3842 H   0  0  0  0  0  0  0  0  0  0  0  0
    3.3891    1.3004    8.6670 H   0  0  0  0  0  0  0  0  0  0  0  0
    3.1674   -1.1718    8.9528 H   0  0  0  0  0  0  0  0  0  0  0  0
    2.8087   -2.6129    6.9447 H   0  0  0  0  0  0  0  0  0  0  0  0
    2.6633   -1.6089    4.6949 H   0  0  0  0  0  0  0  0  0  0  0  0
    3.1752   -0.6696    2.7935 H   0  0  0  0  0  0  0  0  0  0  0  0
    5.1781   -0.1514    0.4358 H   0  0  0  0  0  0  0  0  0  0  0  0
    5.0997   -2.7722   -1.1250 H   0  0  0  0  0  0  0  0  0  0  0  0
   11.0973   -3.7501   -0.6969 H   0  0  0  0  0  0  0  0  0  0  0  0
   10.3766   -5.8057   -1.9612 H   0  0  0  0  0  0  0  0  0  0  0  0
    7.9378   -6.1150   -2.5194 H   0  0  0  0  0  0  0  0  0  0  0  0
    6.2800   -4.3854   -1.8122 H   0  0  0  0  0  0  0  0  0  0  0  0
  1  2  1  0
  1 29  1  0
  1 30  1  0
  1 31  1  0
  2  3  1  0
  2 15  1  0
  3  4  1  0
  3 32  1  0
  3 33  1  0
  4  5  1  0
  4 14  2  0
  5  6  2  0
  5 34  1  0
  6  7  1  0
  7  8  1  0
  7 14  1  0
  8  9  2  0
  8 13  1  0
  9 10  1  0
  9 35  1  0
 10 11  2  0
 10 36  1  0
 11 12  1  0
 11 37  1  0
 12 13  2  0
 12 38  1  0
 13 39  1  0
 14 40  1  0
 15 16  2  0
 15 17  1  0
 17 18  2  0
 17 41  1  0
 18 19  1  0
 18 42  1  0
 19 20  2  0
 19 28  1  0
 20 21  1  0
 20 22  1  0
 22 23  2  0
 23 24  1  0
 23 28  1  0
 24 25  2  0
 24 43  1  0
 25 26  1  0
 25 44  1  0
 26 27  2  0
 26 45  1  0
 27 28  1  0
 27 46  1  0
M  END

