
     RDKit          3D

 46 47  0  0  0  0  0  0  0  0999 V2000
    5.1153    1.0543    1.5638 C   0  0  0  0  0  0  0  0  0  0  0  0
    4.7017    1.6711    0.2177 C   0  0  1  0  0  0  0  0  0  0  0  0
    5.2255    3.0254    0.0109 N   0  0  0  0  0  0  0  0  0  0  0  0
    5.1263    0.8201   -0.9909 C   0  0  0  0  0  0  0  0  0  0  0  0
    4.5870   -0.6205   -1.0667 C   0  0  1  0  0  0  0  0  0  0  0  0
    3.0541   -0.6465   -1.0041 C   0  0  0  0  0  0  0  0  0  0  0  0
    5.0439   -1.2768   -2.2912 N   0  0  0  0  0  0  0  0  0  0  0  0
    6.4477   -1.1637   -2.6658 C   0  0  0  0  0  0  0  0  0  0  0  0
    6.5802   -2.1794   -3.7956 C   0  0  0  0  0  0  0  0  0  0  0  0
    5.7668   -3.3690   -3.2635 C   0  0  2  0  0  0  0  0  0  0  0  0
    5.2506   -4.2636   -4.2972 N   0  0  0  0  0  0  0  0  0  0  0  0
    6.2230   -4.7355   -5.2834 C   0  0  0  0  0  0  0  0  0  0  0  0
    7.1578   -5.8451   -4.7676 C   0  0  0  0  0  0  0  0  0  0  0  0
    6.3406   -7.0223   -4.2167 C   0  0  0  0  0  0  0  0  0  0  0  0
    5.2974   -6.5351   -3.2012 C   0  0  0  0  0  0  0  0  0  0  0  0
    4.4577   -5.3867   -3.7919 C   0  0  0  0  0  0  0  0  0  0  0  0
    4.6369   -2.6780   -2.4541 C   0  0  0  0  0  0  0  0  0  0  0  0
    4.8315    1.7184    2.3973 H   0  0  0  0  0  0  0  0  0  0  0  0
    6.2095    0.9108    1.6065 H   0  0  0  0  0  0  0  0  0  0  0  0
    4.6432    0.0751    1.7460 H   0  0  0  0  0  0  0  0  0  0  0  0
    3.6018    1.7667    0.2090 H   0  0  0  0  0  0  0  0  0  0  0  0
    6.2477    3.0076    0.0383 H   0  0  0  0  0  0  0  0  0  0  0  0
    4.9381    3.6340    0.7784 H   0  0  0  0  0  0  0  0  0  0  0  0
    6.2302    0.7937   -0.9954 H   0  0  0  0  0  0  0  0  0  0  0  0
    4.8239    1.3582   -1.9044 H   0  0  0  0  0  0  0  0  0  0  0  0
    4.9719   -1.1837   -0.1804 H   0  0  0  0  0  0  0  0  0  0  0  0
    2.6293   -0.0624   -1.8369 H   0  0  0  0  0  0  0  0  0  0  0  0
    2.6834   -0.2261   -0.0577 H   0  0  0  0  0  0  0  0  0  0  0  0
    2.6618   -1.6712   -1.0756 H   0  0  0  0  0  0  0  0  0  0  0  0
    7.1450   -1.4216   -1.8321 H   0  0  0  0  0  0  0  0  0  0  0  0
    6.7022   -0.1449   -2.9955 H   0  0  0  0  0  0  0  0  0  0  0  0
    7.6284   -2.4257   -4.0223 H   0  0  0  0  0  0  0  0  0  0  0  0
    6.1019   -1.7877   -4.7078 H   0  0  0  0  0  0  0  0  0  0  0  0
    6.4185   -3.9026   -2.5358 H   0  0  0  0  0  0  0  0  0  0  0  0
    6.8030   -3.8834   -5.6663 H   0  0  0  0  0  0  0  0  0  0  0  0
    5.6520   -5.1301   -6.1452 H   0  0  0  0  0  0  0  0  0  0  0  0
    7.8129   -5.4420   -3.9741 H   0  0  0  0  0  0  0  0  0  0  0  0
    7.8244   -6.1797   -5.5811 H   0  0  0  0  0  0  0  0  0  0  0  0
    7.0005   -7.7833   -3.7668 H   0  0  0  0  0  0  0  0  0  0  0  0
    5.8197   -7.5204   -5.0563 H   0  0  0  0  0  0  0  0  0  0  0  0
    5.8058   -6.1918   -2.2824 H   0  0  0  0  0  0  0  0  0  0  0  0
    4.6331   -7.3620   -2.8965 H   0  0  0  0  0  0  0  0  0  0  0  0
    3.7323   -5.0188   -3.0504 H   0  0  0  0  0  0  0  0  0  0  0  0
    3.8620   -5.7825   -4.6361 H   0  0  0  0  0  0  0  0  0  0  0  0
    4.4967   -3.1808   -1.4739 H   0  0  0  0  0  0  0  0  0  0  0  0
    3.6832   -2.7540   -3.0043 H   0  0  0  0  0  0  0  0  0  0  0  0
  1  2  1  0
  1 18  1  0
  1 19  1  0
  1 20  1  0
  2  3  1  0
  2  4  1  0
  2 21  1  1
  3 22  1  0
  3 23  1  0
  4  5  1  0
  4 24  1  0
  4 25  1  0
  5  6  1  0
  5  7  1  0
  5 26  1  1
  6 27  1  0
  6 28  1  0
  6 29  1  0
  7  8  1  0
  7 17  1  0
  8  9  1  0
  8 30  1  0
  8 31  1  0
  9 10  1  0
  9 32  1  0
  9 33  1  0
 10 11  1  0
 10 17  1  0
 10 34  1  1
 11 12  1  0
 11 16  1  0
 12 13  1  0
 12 35  1  0
 12 36  1  0
 13 14  1  0
 13 37  1  0
 13 38  1  0
 14 15  1  0
 14 39  1  0
 14 40  1  0
 15 16  1  0
 15 41  1  0
 15 42  1  0
 16 43  1  0
 16 44  1  0
 17 45  1  0
 17 46  1  0
M  END

