
     RDKit          3D

 59 62  0  0  0  0  0  0  0  0999 V2000
    0.2658   -2.1645   -0.3267 C   0  0  0  0  0  0  0  0  0  0  0  0
    0.8962   -1.8146    0.8932 O   0  0  0  0  0  0  0  0  0  0  0  0
    2.2470   -1.8340    0.9883 C   0  0  0  0  0  0  0  0  0  0  0  0
    2.7965   -1.5713    2.2659 C   0  0  0  0  0  0  0  0  0  0  0  0
    4.1709   -1.5426    2.5060 C   0  0  0  0  0  0  0  0  0  0  0  0
    4.6941   -1.3207    3.9159 C   0  0  0  0  0  0  0  0  0  0  0  0
    5.8611   -0.4478    3.9612 N   0  0  0  0  0  0  0  0  0  0  0  0
    5.5967    0.9557    3.6355 C   0  0  0  0  0  0  0  0  0  0  0  0
    5.0819    1.7716    4.8361 C   0  0  0  0  0  0  0  0  0  0  0  0
    5.9539    1.6601    6.0186 N   0  0  0  0  0  0  0  0  0  0  0  0
    7.1753    2.4703    5.8995 C   0  0  0  0  0  0  0  0  0  0  0  0
    6.9118    3.9653    6.0357 C   0  0  0  0  0  0  0  0  0  0  0  0
    6.1080    4.4241    7.0924 C   0  0  0  0  0  0  0  0  0  0  0  0
    5.8613    5.7841    7.2832 C   0  0  0  0  0  0  0  0  0  0  0  0
    6.4232    6.7155    6.4075 C   0  0  0  0  0  0  0  0  0  0  0  0
    7.2278    6.2719    5.3574 C   0  0  0  0  0  0  0  0  0  0  0  0
    7.4886    4.9063    5.1510 C   0  0  0  0  0  0  0  0  0  0  0  0
    8.3810    4.4946    4.0000 C   0  0  0  0  0  0  0  0  0  0  0  0
    6.1422    0.2268    6.3545 C   0  0  2  0  0  0  0  0  0  0  0  0
    5.1181   -0.1415    6.5407 H   0  0  0  0  0  0  0  0  0  0  0  0
    6.9104   -0.0078    7.6629 C   0  0  0  0  0  0  0  0  0  0  0  0
    6.4815    0.9463    8.8001 C   0  0  0  0  0  0  0  0  0  0  0  0
    5.1148    1.2907    8.7527 O   0  0  0  0  0  0  0  0  0  0  0  0
    6.6931   -0.5705    5.1567 C   0  0  0  0  0  0  0  0  0  0  0  0
    5.0826   -1.7738    1.4513 C   0  0  0  0  0  0  0  0  0  0  0  0
    4.5386   -2.0327    0.2088 C   0  0  0  0  0  0  0  0  0  0  0  0
    3.1610   -2.0686   -0.0382 C   0  0  0  0  0  0  0  0  0  0  0  0
    2.9534   -2.2907   -1.3863 O   0  0  0  0  0  0  0  0  0  0  0  0
    4.2198   -2.6900   -1.8931 C   0  0  0  0  0  0  0  0  0  0  0  0
    5.2043   -2.2491   -0.9708 O   0  0  0  0  0  0  0  0  0  0  0  0
   -0.8150   -2.0951   -0.1428 H   0  0  0  0  0  0  0  0  0  0  0  0
    0.5165   -3.1937   -0.6336 H   0  0  0  0  0  0  0  0  0  0  0  0
    0.5425   -1.4783   -1.1429 H   0  0  0  0  0  0  0  0  0  0  0  0
    2.0863   -1.3914    3.0762 H   0  0  0  0  0  0  0  0  0  0  0  0
    5.0069   -2.2960    4.3295 H   0  0  0  0  0  0  0  0  0  0  0  0
    3.8486   -0.9827    4.5532 H   0  0  0  0  0  0  0  0  0  0  0  0
    4.8733    1.0026    2.8069 H   0  0  0  0  0  0  0  0  0  0  0  0
    6.5319    1.4041    3.2541 H   0  0  0  0  0  0  0  0  0  0  0  0
    4.0756    1.4195    5.1221 H   0  0  0  0  0  0  0  0  0  0  0  0
    4.9799    2.8344    4.5653 H   0  0  0  0  0  0  0  0  0  0  0  0
    7.7205    2.2747    4.9603 H   0  0  0  0  0  0  0  0  0  0  0  0
    7.8643    2.1675    6.7033 H   0  0  0  0  0  0  0  0  0  0  0  0
    5.6686    3.6981    7.7794 H   0  0  0  0  0  0  0  0  0  0  0  0
    5.2332    6.1127    8.1152 H   0  0  0  0  0  0  0  0  0  0  0  0
    6.2382    7.7846    6.5409 H   0  0  0  0  0  0  0  0  0  0  0  0
    7.6692    7.0019    4.6727 H   0  0  0  0  0  0  0  0  0  0  0  0
    8.6888    5.3725    3.4136 H   0  0  0  0  0  0  0  0  0  0  0  0
    7.8766    3.7984    3.3093 H   0  0  0  0  0  0  0  0  0  0  0  0
    9.3000    3.9920    4.3456 H   0  0  0  0  0  0  0  0  0  0  0  0
    8.0017    0.0724    7.5106 H   0  0  0  0  0  0  0  0  0  0  0  0
    6.7211   -1.0542    7.9556 H   0  0  0  0  0  0  0  0  0  0  0  0
    7.1158    1.8553    8.7787 H   0  0  0  0  0  0  0  0  0  0  0  0
    6.6650    0.4688    9.7761 H   0  0  0  0  0  0  0  0  0  0  0  0
    4.9938    1.6997    7.8752 H   0  0  0  0  0  0  0  0  0  0  0  0
    6.7871   -1.6366    5.4205 H   0  0  0  0  0  0  0  0  0  0  0  0
    7.7127   -0.2140    4.9167 H   0  0  0  0  0  0  0  0  0  0  0  0
    6.1584   -1.7332    1.6186 H   0  0  0  0  0  0  0  0  0  0  0  0
    4.3899   -2.2222   -2.8749 H   0  0  0  0  0  0  0  0  0  0  0  0
    4.2579   -3.7968   -1.9787 H   0  0  0  0  0  0  0  0  0  0  0  0
  1  2  1  0
  1 31  1  0
  1 32  1  0
  1 33  1  0
  2  3  1  0
  3  4  2  0
  3 27  1  0
  4  5  1  0
  4 34  1  0
  5  6  1  0
  5 25  2  0
  6  7  1  0
  6 35  1  0
  6 36  1  0
  7  8  1  0
  7 24  1  0
  8  9  1  0
  8 37  1  0
  8 38  1  0
  9 10  1  0
  9 39  1  0
  9 40  1  0
 10 11  1  0
 10 19  1  0
 11 12  1  0
 11 41  1  0
 11 42  1  0
 12 13  2  0
 12 17  1  0
 13 14  1  0
 13 43  1  0
 14 15  2  0
 14 44  1  0
 15 16  1  0
 15 45  1  0
 16 17  2  0
 16 46  1  0
 17 18  1  0
 18 47  1  0
 18 48  1  0
 18 49  1  0
 19 20  1  1
 19 21  1  0
 19 24  1  0
 21 22  1  0
 21 50  1  0
 21 51  1  0
 22 23  1  0
 22 52  1  0
 22 53  1  0
 23 54  1  0
 24 55  1  0
 24 56  1  0
 25 26  1  0
 25 57  1  0
 26 27  2  0
 26 30  1  0
 27 28  1  0
 28 29  1  0
 29 30  1  0
 29 58  1  0
 29 59  1  0
M  END

