
     RDKit          3D

 36 38  0  0  0  0  0  0  0  0999 V2000
    2.3603   -1.7295   -0.7970 C   0  0  0  0  0  0  0  0  0  0  0  0
    3.0754   -0.8209   -0.4385 C   0  0  0  0  0  0  0  0  0  0  0  0
    3.9369    0.2829    0.0110 C   0  0  0  0  0  0  0  0  0  0  0  0
    4.5803    1.0375   -1.0541 N   0  0  0  0  0  0  0  0  0  0  0  0
    5.8687    0.9421   -1.4965 C   0  0  0  0  0  0  0  0  0  0  0  0
    6.7694   -0.1299   -1.5401 C   0  0  0  0  0  0  0  0  0  0  0  0
    6.3840   -1.5514   -1.1714 C   0  0  0  0  0  0  0  0  0  0  0  0
    6.2175   -2.5060   -2.3505 C   0  0  0  0  0  0  0  0  0  0  0  0
    6.6489   -3.8376   -2.2467 C   0  0  0  0  0  0  0  0  0  0  0  0
    6.4571   -4.7408   -3.2964 C   0  0  0  0  0  0  0  0  0  0  0  0
    5.8293   -4.3244   -4.4735 C   0  0  0  0  0  0  0  0  0  0  0  0
    5.3953   -3.0004   -4.5893 C   0  0  0  0  0  0  0  0  0  0  0  0
    5.5880   -2.1006   -3.5374 C   0  0  0  0  0  0  0  0  0  0  0  0
    8.0978    0.1375   -2.0338 C   0  0  0  0  0  0  0  0  0  0  0  0
    9.1313   -0.9611   -2.0332 C   0  0  0  0  0  0  0  0  0  0  0  0
    8.5079    1.3071   -2.5022 N   0  0  0  0  0  0  0  0  0  0  0  0
    7.6198    2.3050   -2.5167 C   0  0  0  0  0  0  0  0  0  0  0  0
    7.7343    3.5681   -2.9340 N   0  0  0  0  0  0  0  0  0  0  0  0
    6.5246    4.0940   -2.6664 C   0  0  0  0  0  0  0  0  0  0  0  0
    5.6311    3.2785   -2.1034 N   0  0  0  0  0  0  0  0  0  0  0  0
    6.3368    2.1278   -2.0152 N   0  0  0  0  0  0  0  0  0  0  0  0
    1.7314   -2.5368   -1.1236 H   0  0  0  0  0  0  0  0  0  0  0  0
    4.6915   -0.0968    0.7201 H   0  0  0  0  0  0  0  0  0  0  0  0
    3.3213    0.9930    0.5888 H   0  0  0  0  0  0  0  0  0  0  0  0
    4.1905    1.9583   -1.2509 H   0  0  0  0  0  0  0  0  0  0  0  0
    5.4378   -1.5682   -0.6163 H   0  0  0  0  0  0  0  0  0  0  0  0
    7.1313   -1.9748   -0.4820 H   0  0  0  0  0  0  0  0  0  0  0  0
    7.1448   -4.1727   -1.3306 H   0  0  0  0  0  0  0  0  0  0  0  0
    6.8051   -5.7722   -3.1951 H   0  0  0  0  0  0  0  0  0  0  0  0
    5.6821   -5.0268   -5.2979 H   0  0  0  0  0  0  0  0  0  0  0  0
    4.9041   -2.6634   -5.5060 H   0  0  0  0  0  0  0  0  0  0  0  0
    5.2447   -1.0685   -3.6420 H   0  0  0  0  0  0  0  0  0  0  0  0
    8.8186   -1.8122   -2.6577 H   0  0  0  0  0  0  0  0  0  0  0  0
    9.3016   -1.3532   -1.0165 H   0  0  0  0  0  0  0  0  0  0  0  0
   10.0739   -0.5564   -2.4210 H   0  0  0  0  0  0  0  0  0  0  0  0
    6.2644    5.1300   -2.8878 H   0  0  0  0  0  0  0  0  0  0  0  0
  1  2  3  0
  1 22  1  0
  2  3  1  0
  3  4  1  0
  3 23  1  0
  3 24  1  0
  4  5  1  0
  4 25  1  0
  5  6  2  0
  5 21  1  0
  6  7  1  0
  6 14  1  0
  7  8  1  0
  7 26  1  0
  7 27  1  0
  8  9  2  0
  8 13  1  0
  9 10  1  0
  9 28  1  0
 10 11  2  0
 10 29  1  0
 11 12  1  0
 11 30  1  0
 12 13  2  0
 12 31  1  0
 13 32  1  0
 14 15  1  0
 14 16  2  0
 15 33  1  0
 15 34  1  0
 15 35  1  0
 16 17  1  0
 17 18  2  0
 17 21  1  0
 18 19  1  0
 19 20  2  0
 19 36  1  0
 20 21  1  0
M  END

