
     RDKit          3D

 37 38  0  0  0  0  0  0  0  0999 V2000
    3.0746    0.9373   -0.8552 C   0  0  0  0  0  0  0  0  0  0  0  0
    2.6109   -0.1046    0.1671 C   0  0  0  0  0  0  0  0  0  0  0  0
    2.9536    0.1502    1.6615 C   0  0  1  0  0  0  0  0  0  0  0  0
    2.4994    1.5494    2.1579 C   0  0  0  0  0  0  0  0  0  0  0  0
    1.0331    1.9561    1.9756 C   0  0  0  0  0  0  0  0  0  0  0  0
    2.3844   -0.9988    2.5269 C   0  0  0  0  0  0  0  0  0  0  0  0
    0.4723   -1.4780    2.2896 Br  0  0  0  0  0  0  0  0  0  0  0  0
    4.5203    0.0566    1.7718 C   0  0  0  0  0  0  0  0  0  0  0  0
    5.1264    0.3098    3.0828 N   0  0  0  0  0  0  0  0  0  0  0  0
    5.2564   -0.7347    3.9971 C   0  0  0  0  0  0  0  0  0  0  0  0
    4.9693   -1.8911    3.8080 O   0  0  0  0  0  0  0  0  0  0  0  0
    5.8305   -0.1187    5.2987 C   0  0  0  0  0  0  0  0  0  0  0  0
    6.0321   -0.7180    6.3239 O   0  0  0  0  0  0  0  0  0  0  0  0
    6.0675    1.2967    4.9669 C   0  0  0  0  0  0  0  0  0  0  0  0
    6.6287    2.2744    5.7776 C   0  0  0  0  0  0  0  0  0  0  0  0
    6.8370    3.5264    5.2065 C   0  0  0  0  0  0  0  0  0  0  0  0
    7.3605    4.5170    5.9359 F   0  0  0  0  0  0  0  0  0  0  0  0
    6.5348    3.7613    3.8687 C   0  0  0  0  0  0  0  0  0  0  0  0
    5.9817    2.7555    3.0549 C   0  0  0  0  0  0  0  0  0  0  0  0
    5.7745    3.2301    1.2153 Br  0  0  0  0  0  0  0  0  0  0  0  0
    5.6917    1.4995    3.6120 C   0  0  0  0  0  0  0  0  0  0  0  0
    2.7532    0.6351   -1.8645 H   0  0  0  0  0  0  0  0  0  0  0  0
    4.1694    1.0527   -0.8912 H   0  0  0  0  0  0  0  0  0  0  0  0
    2.6426    1.9313   -0.6616 H   0  0  0  0  0  0  0  0  0  0  0  0
    3.0209   -1.0923   -0.1110 H   0  0  0  0  0  0  0  0  0  0  0  0
    1.5195   -0.2152    0.0878 H   0  0  0  0  0  0  0  0  0  0  0  0
    3.1260    2.3017    1.6542 H   0  0  0  0  0  0  0  0  0  0  0  0
    2.7536    1.6256    3.2298 H   0  0  0  0  0  0  0  0  0  0  0  0
    0.7156    1.9075    0.9224 H   0  0  0  0  0  0  0  0  0  0  0  0
    0.8974    2.9977    2.3091 H   0  0  0  0  0  0  0  0  0  0  0  0
    0.3452    1.3259    2.5547 H   0  0  0  0  0  0  0  0  0  0  0  0
    2.4679   -0.7779    3.5967 H   0  0  0  0  0  0  0  0  0  0  0  0
    2.9094   -1.9388    2.3307 H   0  0  0  0  0  0  0  0  0  0  0  0
    4.9640    0.7525    1.0557 H   0  0  0  0  0  0  0  0  0  0  0  0
    4.8322   -0.9589    1.4860 H   0  0  0  0  0  0  0  0  0  0  0  0
    6.9005    2.0593    6.8125 H   0  0  0  0  0  0  0  0  0  0  0  0
    6.7504    4.7434    3.4460 H   0  0  0  0  0  0  0  0  0  0  0  0
  1  2  1  0
  1 22  1  0
  1 23  1  0
  1 24  1  0
  3  2  1  6
  2 25  1  0
  2 26  1  0
  3  4  1  0
  3  6  1  0
  3  8  1  0
  4  5  1  0
  4 27  1  0
  4 28  1  0
  5 29  1  0
  5 30  1  0
  5 31  1  0
  6  7  1  0
  6 32  1  0
  6 33  1  0
  8  9  1  0
  8 34  1  0
  8 35  1  0
  9 10  1  0
  9 21  1  0
 10 11  2  0
 10 12  1  0
 12 13  2  0
 12 14  1  0
 14 15  2  0
 14 21  1  0
 15 16  1  0
 15 36  1  0
 16 17  1  0
 16 18  2  0
 18 19  1  0
 18 37  1  0
 19 20  1  0
 19 21  2  0
M  END

