
     RDKit          3D

 31 32  0  0  0  0  0  0  0  0999 V2000
    1.8191    0.9514   -0.5736 C   0  0  0  0  0  0  0  0  0  0  0  0
    2.4243   -0.0643    0.1959 O   0  0  0  0  0  0  0  0  0  0  0  0
    3.0553    0.2560    1.3486 C   0  0  0  0  0  0  0  0  0  0  0  0
    3.1488    1.5531    1.8604 C   0  0  0  0  0  0  0  0  0  0  0  0
    3.8404    1.7959    3.0615 C   0  0  0  0  0  0  0  0  0  0  0  0
    3.9247    3.0542    3.5351 O   0  0  0  0  0  0  0  0  0  0  0  0
    4.4378    0.7333    3.7844 C   0  0  0  0  0  0  0  0  0  0  0  0
    4.3196   -0.5741    3.2471 C   0  0  0  0  0  0  0  0  0  0  0  0
    3.6479   -0.8073    2.0504 C   0  0  0  0  0  0  0  0  0  0  0  0
    4.8392   -1.7908    3.9996 C   0  0  2  0  0  0  0  0  0  0  0  0
    5.1711   -2.5390    3.2522 H   0  0  0  0  0  0  0  0  0  0  0  0
    3.7966   -2.3467    4.8015 O   0  0  0  0  0  0  0  0  0  0  0  0
    5.9973   -1.4900    4.9561 C   0  0  1  0  0  0  0  0  0  0  0  0
    6.0755   -2.3744    5.6112 H   0  0  0  0  0  0  0  0  0  0  0  0
    7.3522   -1.3590    4.2653 C   0  0  0  0  0  0  0  0  0  0  0  0
    7.3506   -0.2424    3.4005 O   0  0  0  0  0  0  0  0  0  0  0  0
    5.6342   -0.2747    5.8166 C   0  0  0  0  0  0  0  0  0  0  0  0
    5.2190    0.9680    5.0363 C   0  0  0  0  0  0  0  0  0  0  0  0
    5.4849    2.0736    5.4646 O   0  0  0  0  0  0  0  0  0  0  0  0
    1.3825    0.4595   -1.4530 H   0  0  0  0  0  0  0  0  0  0  0  0
    2.5549    1.7025   -0.9125 H   0  0  0  0  0  0  0  0  0  0  0  0
    1.0152    1.4650   -0.0162 H   0  0  0  0  0  0  0  0  0  0  0  0
    2.6992    2.4004    1.3392 H   0  0  0  0  0  0  0  0  0  0  0  0
    3.4567    3.6488    2.9337 H   0  0  0  0  0  0  0  0  0  0  0  0
    3.5804   -1.8102    1.6230 H   0  0  0  0  0  0  0  0  0  0  0  0
    2.9737   -2.2957    4.2974 H   0  0  0  0  0  0  0  0  0  0  0  0
    8.1293   -1.2609    5.0494 H   0  0  0  0  0  0  0  0  0  0  0  0
    7.5675   -2.2969    3.7111 H   0  0  0  0  0  0  0  0  0  0  0  0
    8.2547   -0.0588    3.1187 H   0  0  0  0  0  0  0  0  0  0  0  0
    6.4504    0.0202    6.4923 H   0  0  0  0  0  0  0  0  0  0  0  0
    4.7687   -0.5499    6.4439 H   0  0  0  0  0  0  0  0  0  0  0  0
  1  2  1  0
  1 20  1  0
  1 21  1  0
  1 22  1  0
  2  3  1  0
  3  4  2  0
  3  9  1  0
  4  5  1  0
  4 23  1  0
  5  6  1  0
  5  7  2  0
  6 24  1  0
  7  8  1  0
  7 18  1  0
  8  9  2  0
  8 10  1  0
  9 25  1  0
 10 11  1  6
 10 12  1  0
 10 13  1  0
 12 26  1  0
 13 14  1  1
 13 15  1  0
 13 17  1  0
 15 16  1  0
 15 27  1  0
 15 28  1  0
 16 29  1  0
 17 18  1  0
 17 30  1  0
 17 31  1  0
 18 19  2  0
M  END

