
     RDKit          3D

 47 48  0  0  0  0  0  0  0  0999 V2000
    1.1059    0.1385    0.1339 N   0  0  0  0  0  0  0  0  0  0  0  0
    2.2637    0.1743    0.0962 C   0  0  0  0  0  0  0  0  0  0  0  0
    3.7320    0.2318    0.0112 C   0  0  1  0  0  0  0  0  0  0  0  0
    4.1910    0.4681   -1.4546 C   0  0  0  0  0  0  0  0  0  0  0  0
    3.7509   -0.6179   -2.4387 C   0  0  0  0  0  0  0  0  0  0  0  0
    4.2328   -0.3637   -3.8704 C   0  0  0  0  0  0  0  0  0  0  0  0
    3.8042   -1.4493   -4.8618 C   0  0  0  0  0  0  0  0  0  0  0  0
    4.2889   -1.1920   -6.2913 C   0  0  0  0  0  0  0  0  0  0  0  0
    3.8897   -2.2688   -7.2942 C   0  0  0  0  0  0  0  0  0  0  0  0
    4.4046   -3.5646   -6.9382 O   0  0  0  0  0  0  0  0  0  0  0  0
    5.6506   -3.8756   -7.3505 C   0  0  0  0  0  0  0  0  0  0  0  0
    6.3479   -3.1221   -7.9918 O   0  0  0  0  0  0  0  0  0  0  0  0
    6.0654   -5.2481   -6.9285 C   0  0  0  0  0  0  0  0  0  0  0  0
    5.2157   -6.1028   -6.2076 C   0  0  0  0  0  0  0  0  0  0  0  0
    5.6553   -7.3765   -5.8416 C   0  0  0  0  0  0  0  0  0  0  0  0
    6.9408   -7.8032   -6.1917 C   0  0  0  0  0  0  0  0  0  0  0  0
    7.7899   -6.9542   -6.9108 C   0  0  0  0  0  0  0  0  0  0  0  0
    7.3543   -5.6812   -7.2786 C   0  0  0  0  0  0  0  0  0  0  0  0
    4.3211    1.2678    0.9669 C   0  0  0  0  0  0  0  0  0  0  0  0
    5.5646    1.0210    1.5672 C   0  0  0  0  0  0  0  0  0  0  0  0
    6.1574    1.9751    2.3982 C   0  0  0  0  0  0  0  0  0  0  0  0
    5.5111    3.1905    2.6418 C   0  0  0  0  0  0  0  0  0  0  0  0
    4.2699    3.4430    2.0507 C   0  0  0  0  0  0  0  0  0  0  0  0
    3.6783    2.4884    1.2188 C   0  0  0  0  0  0  0  0  0  0  0  0
    4.0967   -0.7634    0.3206 H   0  0  0  0  0  0  0  0  0  0  0  0
    5.2912    0.5406   -1.4395 H   0  0  0  0  0  0  0  0  0  0  0  0
    3.8207    1.4544   -1.7822 H   0  0  0  0  0  0  0  0  0  0  0  0
    2.6497   -0.6979   -2.4320 H   0  0  0  0  0  0  0  0  0  0  0  0
    4.1292   -1.5983   -2.0947 H   0  0  0  0  0  0  0  0  0  0  0  0
    5.3352   -0.2783   -3.8782 H   0  0  0  0  0  0  0  0  0  0  0  0
    3.8540    0.6170   -4.2133 H   0  0  0  0  0  0  0  0  0  0  0  0
    2.7016   -1.5347   -4.8575 H   0  0  0  0  0  0  0  0  0  0  0  0
    4.1840   -2.4282   -4.5213 H   0  0  0  0  0  0  0  0  0  0  0  0
    5.3863   -1.0820   -6.3109 H   0  0  0  0  0  0  0  0  0  0  0  0
    3.8790   -0.2339   -6.6596 H   0  0  0  0  0  0  0  0  0  0  0  0
    4.2467   -2.0085   -8.3010 H   0  0  0  0  0  0  0  0  0  0  0  0
    2.7974   -2.4009   -7.3180 H   0  0  0  0  0  0  0  0  0  0  0  0
    4.2146   -5.7622   -5.9409 H   0  0  0  0  0  0  0  0  0  0  0  0
    4.9920   -8.0404   -5.2814 H   0  0  0  0  0  0  0  0  0  0  0  0
    7.2819   -8.8012   -5.9039 H   0  0  0  0  0  0  0  0  0  0  0  0
    8.7938   -7.2877   -7.1852 H   0  0  0  0  0  0  0  0  0  0  0  0
    7.9972   -5.0013   -7.8409 H   0  0  0  0  0  0  0  0  0  0  0  0
    6.0745    0.0701    1.3855 H   0  0  0  0  0  0  0  0  0  0  0  0
    7.1248    1.7650    2.8614 H   0  0  0  0  0  0  0  0  0  0  0  0
    5.9711    3.9363    3.2948 H   0  0  0  0  0  0  0  0  0  0  0  0
    3.7542    4.3877    2.2413 H   0  0  0  0  0  0  0  0  0  0  0  0
    2.7010    2.6893    0.7722 H   0  0  0  0  0  0  0  0  0  0  0  0
  1  2  3  0
  2  3  1  0
  3  4  1  0
  3 19  1  0
  3 25  1  1
  4  5  1  0
  4 26  1  0
  4 27  1  0
  5  6  1  0
  5 28  1  0
  5 29  1  0
  6  7  1  0
  6 30  1  0
  6 31  1  0
  7  8  1  0
  7 32  1  0
  7 33  1  0
  8  9  1  0
  8 34  1  0
  8 35  1  0
  9 10  1  0
  9 36  1  0
  9 37  1  0
 10 11  1  0
 11 12  2  0
 11 13  1  0
 13 14  2  0
 13 18  1  0
 14 15  1  0
 14 38  1  0
 15 16  2  0
 15 39  1  0
 16 17  1  0
 16 40  1  0
 17 18  2  0
 17 41  1  0
 18 42  1  0
 19 20  2  0
 19 24  1  0
 20 21  1  0
 20 43  1  0
 21 22  2  0
 21 44  1  0
 22 23  1  0
 22 45  1  0
 23 24  2  0
 23 46  1  0
 24 47  1  0
M  END

