
     RDKit          3D

 33 33  0  0  0  0  0  0  0  0999 V2000
    0.6612    1.5679    2.9259 C   0  0  0  0  0  0  0  0  0  0  0  0
    1.9645    1.9405    3.2863 O   0  0  0  0  0  0  0  0  0  0  0  0
    2.7262    2.4487    2.2241 C   0  0  0  0  0  0  0  0  0  0  0  0
    4.1052    2.7832    2.7635 C   0  0  0  0  0  0  0  0  0  0  0  0
    4.8690    3.3182    1.6911 O   0  0  0  0  0  0  0  0  0  0  0  0
    6.1314    3.7330    2.0160 C   0  0  0  0  0  0  0  0  0  0  0  0
    6.9311    2.5933    2.3234 O   0  0  0  0  0  0  0  0  0  0  0  0
    8.2078    2.7625    2.7231 C   0  0  0  0  0  0  0  0  0  0  0  0
    8.8995    3.9820    2.7742 C   0  0  0  0  0  0  0  0  0  0  0  0
   10.2326    4.0287    3.1990 C   0  0  0  0  0  0  0  0  0  0  0  0
   10.9204    2.8701    3.5801 C   0  0  0  0  0  0  0  0  0  0  0  0
   12.3453    2.9300    4.0771 C   0  0  0  0  0  0  0  0  0  0  0  0
   12.5247    3.1583    5.5886 C   0  0  0  0  0  0  0  0  0  0  0  0
   13.5410    3.5867    6.0598 O   0  0  0  0  0  0  0  0  0  0  0  0
   11.4849    2.8087    6.3706 O   0  0  0  0  0  0  0  0  0  0  0  0
   10.2266    1.6443    3.5277 C   0  0  0  0  0  0  0  0  0  0  0  0
    8.9048    1.5990    3.1097 C   0  0  0  0  0  0  0  0  0  0  0  0
    8.2636    0.4280    3.0612 F   0  0  0  0  0  0  0  0  0  0  0  0
    0.1590    1.1864    3.8269 H   0  0  0  0  0  0  0  0  0  0  0  0
    0.6555    0.7712    2.1544 H   0  0  0  0  0  0  0  0  0  0  0  0
    0.0776    2.4253    2.5328 H   0  0  0  0  0  0  0  0  0  0  0  0
    2.2654    3.3612    1.7907 H   0  0  0  0  0  0  0  0  0  0  0  0
    2.8222    1.7114    1.4002 H   0  0  0  0  0  0  0  0  0  0  0  0
    4.5807    1.8755    3.1708 H   0  0  0  0  0  0  0  0  0  0  0  0
    4.0185    3.5218    3.5842 H   0  0  0  0  0  0  0  0  0  0  0  0
    6.1362    4.4151    2.8942 H   0  0  0  0  0  0  0  0  0  0  0  0
    6.5446    4.2551    1.1352 H   0  0  0  0  0  0  0  0  0  0  0  0
    8.4062    4.9076    2.4768 H   0  0  0  0  0  0  0  0  0  0  0  0
   10.7444    4.9941    3.2262 H   0  0  0  0  0  0  0  0  0  0  0  0
   12.9159    3.7274    3.5802 H   0  0  0  0  0  0  0  0  0  0  0  0
   12.8731    1.9876    3.8515 H   0  0  0  0  0  0  0  0  0  0  0  0
   10.7340    2.5320    5.8202 H   0  0  0  0  0  0  0  0  0  0  0  0
   10.7113    0.7017    3.7951 H   0  0  0  0  0  0  0  0  0  0  0  0
  1  2  1  0
  1 19  1  0
  1 20  1  0
  1 21  1  0
  2  3  1  0
  3  4  1  0
  3 22  1  0
  3 23  1  0
  4  5  1  0
  4 24  1  0
  4 25  1  0
  5  6  1  0
  6  7  1  0
  6 26  1  0
  6 27  1  0
  7  8  1  0
  8  9  2  0
  8 17  1  0
  9 10  1  0
  9 28  1  0
 10 11  2  0
 10 29  1  0
 11 12  1  0
 11 16  1  0
 12 13  1  0
 12 30  1  0
 12 31  1  0
 13 14  2  0
 13 15  1  0
 15 32  1  0
 16 17  2  0
 16 33  1  0
 17 18  1  0
M  END

