
     RDKit          3D

 38 39  0  0  0  0  0  0  0  0999 V2000
    0.9596    0.2595    0.6502 C   0  0  0  0  0  0  0  0  0  0  0  0
    2.4364    0.1178    0.3701 C   0  0  0  0  0  0  0  0  0  0  0  0
    3.2893    1.2378    0.4090 C   0  0  0  0  0  0  0  0  0  0  0  0
    4.6509    1.1254    0.1515 C   0  0  0  0  0  0  0  0  0  0  0  0
    5.2111   -0.1261   -0.1570 C   0  0  0  0  0  0  0  0  0  0  0  0
    6.5536   -0.1427   -0.3933 O   0  0  0  0  0  0  0  0  0  0  0  0
    7.1939   -1.3599   -0.7026 C   0  0  0  0  0  0  0  0  0  0  0  0
    8.6701   -1.0360   -0.9329 C   0  0  0  0  0  0  0  0  0  0  0  0
    9.4663   -2.2231   -1.1858 N   0  0  0  0  0  0  0  0  0  0  0  0
    9.6238   -2.7285   -2.4324 C   0  0  0  0  0  0  0  0  0  0  0  0
    9.1430   -2.2608   -3.4461 O   0  0  0  0  0  0  0  0  0  0  0  0
   10.4793   -4.0256   -2.5100 C   0  0  1  0  0  0  0  0  0  0  0  0
   10.9637   -4.3376   -1.2628 F   0  0  0  0  0  0  0  0  0  0  0  0
    9.6292   -5.0296   -2.8615 F   0  0  0  0  0  0  0  0  0  0  0  0
   11.6144   -3.9317   -3.5024 C   0  0  0  0  0  0  0  0  0  0  0  0
   12.9430   -3.8306   -3.0815 C   0  0  0  0  0  0  0  0  0  0  0  0
   13.9423   -3.7407   -4.0567 C   0  0  0  0  0  0  0  0  0  0  0  0
   13.6954   -3.7417   -5.3673 N   0  0  0  0  0  0  0  0  0  0  0  0
   12.4216   -3.8360   -5.7596 C   0  0  0  0  0  0  0  0  0  0  0  0
   11.3442   -3.9330   -4.8754 C   0  0  0  0  0  0  0  0  0  0  0  0
    4.3833   -1.2540   -0.2016 C   0  0  0  0  0  0  0  0  0  0  0  0
    3.0130   -1.1183    0.0612 C   0  0  0  0  0  0  0  0  0  0  0  0
    0.7767    0.6745    1.6558 H   0  0  0  0  0  0  0  0  0  0  0  0
    0.4430   -0.7100    0.5906 H   0  0  0  0  0  0  0  0  0  0  0  0
    0.4753    0.9405   -0.0701 H   0  0  0  0  0  0  0  0  0  0  0  0
    2.8740    2.2220    0.6466 H   0  0  0  0  0  0  0  0  0  0  0  0
    5.3090    1.9963    0.1815 H   0  0  0  0  0  0  0  0  0  0  0  0
    6.7670   -1.8174   -1.6137 H   0  0  0  0  0  0  0  0  0  0  0  0
    7.0851   -2.0860    0.1266 H   0  0  0  0  0  0  0  0  0  0  0  0
    9.0710   -0.5128   -0.0517 H   0  0  0  0  0  0  0  0  0  0  0  0
    8.7592   -0.3656   -1.7996 H   0  0  0  0  0  0  0  0  0  0  0  0
    9.8840   -2.7255   -0.4115 H   0  0  0  0  0  0  0  0  0  0  0  0
   13.1993   -3.8325   -2.0212 H   0  0  0  0  0  0  0  0  0  0  0  0
   14.9937   -3.6667   -3.7545 H   0  0  0  0  0  0  0  0  0  0  0  0
   12.2406   -3.8338   -6.8407 H   0  0  0  0  0  0  0  0  0  0  0  0
   10.3198   -3.9974   -5.2427 H   0  0  0  0  0  0  0  0  0  0  0  0
    4.7842   -2.2394   -0.4406 H   0  0  0  0  0  0  0  0  0  0  0  0
    2.3813   -2.0105    0.0206 H   0  0  0  0  0  0  0  0  0  0  0  0
  1  2  1  0
  1 23  1  0
  1 24  1  0
  1 25  1  0
  2  3  2  0
  2 22  1  0
  3  4  1  0
  3 26  1  0
  4  5  2  0
  4 27  1  0
  5  6  1  0
  5 21  1  0
  6  7  1  0
  7  8  1  0
  7 28  1  0
  7 29  1  0
  8  9  1  0
  8 30  1  0
  8 31  1  0
  9 10  1  0
  9 32  1  0
 10 11  2  0
 10 12  1  0
 12 13  1  1
 12 14  1  0
 12 15  1  0
 15 16  2  0
 15 20  1  0
 16 17  1  0
 16 33  1  0
 17 18  2  0
 17 34  1  0
 18 19  1  0
 19 20  2  0
 19 35  1  0
 20 36  1  0
 21 22  2  0
 21 37  1  0
 22 38  1  0
M  END

