
     RDKit          3D

 42 44  0  0  0  0  0  0  0  0999 V2000
    2.0684   -0.1959   -1.0263 C   0  0  0  0  0  0  0  0  0  0  0  0
    2.1605    0.0470    0.4892 C   0  0  1  0  0  0  0  0  0  0  0  0
    0.8028    0.4516    1.0869 C   0  0  0  0  0  0  0  0  0  0  0  0
    2.7035   -1.1681    1.1863 C   0  0  0  0  0  0  0  0  0  0  0  0
    3.8300   -1.1582    1.8512 N   0  0  0  0  0  0  0  0  0  0  0  0
    3.9464   -2.4702    2.3238 O   0  0  0  0  0  0  0  0  0  0  0  0
    2.8741   -3.1336    1.8881 C   0  0  0  0  0  0  0  0  0  0  0  0
    2.7154   -4.5825    2.2601 C   0  0  1  0  0  0  0  0  0  0  0  0
    2.7254   -4.7524    3.7939 C   0  0  0  0  0  0  0  0  0  0  0  0
    1.5146   -5.0801    1.6303 N   0  0  0  0  0  0  0  0  0  0  0  0
    1.3490   -6.3857    1.1919 C   0  0  0  0  0  0  0  0  0  0  0  0
    2.2260   -7.4325    1.5377 C   0  0  0  0  0  0  0  0  0  0  0  0
    2.0085   -8.7292    1.0638 C   0  0  0  0  0  0  0  0  0  0  0  0
    0.9100   -9.0248    0.2535 C   0  0  0  0  0  0  0  0  0  0  0  0
    0.0088   -7.9947   -0.0896 C   0  0  0  0  0  0  0  0  0  0  0  0
    0.2426   -6.7023    0.3712 C   0  0  0  0  0  0  0  0  0  0  0  0
   -1.1984   -8.3711   -0.9172 C   0  0  0  0  0  0  0  0  0  0  0  0
   -0.8563   -9.4814   -1.9174 C   0  0  0  0  0  0  0  0  0  0  0  0
   -0.1581  -10.6683   -1.2657 C   0  0  0  0  0  0  0  0  0  0  0  0
   -0.2855  -11.8188   -1.6395 O   0  0  0  0  0  0  0  0  0  0  0  0
    0.6726  -10.3302   -0.2201 N   0  0  0  0  0  0  0  0  0  0  0  0
    2.0694   -2.3951    1.1865 N   0  0  0  0  0  0  0  0  0  0  0  0
    1.6897    0.7042   -1.5356 H   0  0  0  0  0  0  0  0  0  0  0  0
    1.3832   -1.0294   -1.2474 H   0  0  0  0  0  0  0  0  0  0  0  0
    3.0528   -0.4411   -1.4542 H   0  0  0  0  0  0  0  0  0  0  0  0
    2.8874    0.8533    0.6775 H   0  0  0  0  0  0  0  0  0  0  0  0
    0.0630   -0.3538    0.9563 H   0  0  0  0  0  0  0  0  0  0  0  0
    0.4186    1.3546    0.5870 H   0  0  0  0  0  0  0  0  0  0  0  0
    0.8859    0.6673    2.1634 H   0  0  0  0  0  0  0  0  0  0  0  0
    3.6043   -5.1052    1.8524 H   0  0  0  0  0  0  0  0  0  0  0  0
    1.8804   -4.2067    4.2402 H   0  0  0  0  0  0  0  0  0  0  0  0
    3.6645   -4.3746    4.2256 H   0  0  0  0  0  0  0  0  0  0  0  0
    2.6201   -5.8152    4.0537 H   0  0  0  0  0  0  0  0  0  0  0  0
    0.9553   -4.3702    1.1696 H   0  0  0  0  0  0  0  0  0  0  0  0
    3.0900   -7.2495    2.1775 H   0  0  0  0  0  0  0  0  0  0  0  0
    2.7110   -9.5227    1.3340 H   0  0  0  0  0  0  0  0  0  0  0  0
   -0.4571   -5.9071    0.0954 H   0  0  0  0  0  0  0  0  0  0  0  0
   -1.6040   -7.4902   -1.4380 H   0  0  0  0  0  0  0  0  0  0  0  0
   -1.9986   -8.7287   -0.2413 H   0  0  0  0  0  0  0  0  0  0  0  0
   -0.1706   -9.0925   -2.6928 H   0  0  0  0  0  0  0  0  0  0  0  0
   -1.7440   -9.8687   -2.4357 H   0  0  0  0  0  0  0  0  0  0  0  0
    1.2039  -11.1011    0.1733 H   0  0  0  0  0  0  0  0  0  0  0  0
  1  2  1  0
  1 23  1  0
  1 24  1  0
  1 25  1  0
  2  3  1  0
  2  4  1  0
  2 26  1  6
  3 27  1  0
  3 28  1  0
  3 29  1  0
  4  5  2  0
  4 22  1  0
  5  6  1  0
  6  7  1  0
  7  8  1  0
  7 22  2  0
  8  9  1  0
  8 10  1  0
  8 30  1  6
  9 31  1  0
  9 32  1  0
  9 33  1  0
 10 11  1  0
 10 34  1  0
 11 12  2  0
 11 16  1  0
 12 13  1  0
 12 35  1  0
 13 14  2  0
 13 36  1  0
 14 15  1  0
 14 21  1  0
 15 16  2  0
 15 17  1  0
 16 37  1  0
 17 18  1  0
 17 38  1  0
 17 39  1  0
 18 19  1  0
 18 40  1  0
 18 41  1  0
 19 20  2  0
 19 21  1  0
 21 42  1  0
M  END

