
     RDKit          3D

 69 71  0  0  0  0  0  0  0  0999 V2000
    2.2505   -1.0803    2.9344 C   0  0  0  0  0  0  0  0  0  0  0  0
    2.1518   -1.0488    1.4089 C   0  0  0  0  0  0  0  0  0  0  0  0
    2.7823    0.1940    0.7556 C   0  0  0  0  0  0  0  0  0  0  0  0
    4.2180    0.3537    0.9957 N   0  0  0  0  0  0  0  0  0  0  0  0
    5.0904   -0.7021    0.4846 C   0  0  0  0  0  0  0  0  0  0  0  0
    4.8556   -1.0635   -0.9885 C   0  0  0  0  0  0  0  0  0  0  0  0
    5.0734    0.0987   -1.9585 C   0  0  0  0  0  0  0  0  0  0  0  0
    4.6923    1.2198    1.9758 C   0  0  0  0  0  0  0  0  0  0  0  0
    4.0110    2.4575    2.2462 C   0  0  0  0  0  0  0  0  0  0  0  0
    4.4798    3.3485    3.1784 C   0  0  0  0  0  0  0  0  0  0  0  0
    5.6674    3.0929    3.9231 C   0  0  0  0  0  0  0  0  0  0  0  0
    6.1725    3.9882    4.8882 C   0  0  0  0  0  0  0  0  0  0  0  0
    7.3385    3.7183    5.6120 C   0  0  0  0  0  0  0  0  0  0  0  0
    7.7662    4.7105    6.5784 C   0  0  0  0  0  0  0  0  0  0  0  0
    8.8423    4.7437    7.4109 C   0  0  0  0  0  0  0  0  0  0  0  0
    9.8867    3.7906    7.5499 C   0  0  0  0  0  0  0  0  0  0  0  0
   10.7800    3.0586    7.6933 N   0  0  0  0  0  0  0  0  0  0  0  0
    9.0081    6.1543    8.5330 S   0  0  1  0  0  0  0  0  0  0  0  0
    7.9856    7.1306    8.1509 O   0  0  0  0  0  0  0  0  0  0  0  0
    9.1118    5.6241    9.8930 O   0  0  0  0  0  0  0  0  0  0  0  0
   10.5064    6.7757    8.1316 N   0  0  0  0  0  0  0  0  0  0  0  0
   11.6012    6.7630    9.0959 C   0  0  0  0  0  0  0  0  0  0  0  0
   12.8525    7.2929    8.3841 C   0  0  1  0  0  0  0  0  0  0  0  0
   12.6270    8.5602    7.7825 O   0  0  0  0  0  0  0  0  0  0  0  0
   12.5293    9.6943    8.6614 C   0  0  2  0  0  0  0  0  0  0  0  0
   12.3948   10.8201    7.8874 O   0  0  0  0  0  0  0  0  0  0  0  0
   13.7891    9.7866    9.5408 C   0  0  2  0  0  0  0  0  0  0  0  0
   14.8896   10.1861    8.7362 O   0  0  0  0  0  0  0  0  0  0  0  0
   14.0752    8.4691   10.2776 C   0  0  2  0  0  0  0  0  0  0  0  0
   15.2444    8.5407   11.0478 O   0  0  0  0  0  0  0  0  0  0  0  0
   14.1103    7.3059    9.2707 C   0  0  2  0  0  0  0  0  0  0  0  0
   15.2775    7.5117    8.4709 O   0  0  0  0  0  0  0  0  0  0  0  0
    8.0240    2.4869    5.3526 C   0  0  0  0  0  0  0  0  0  0  0  0
    7.5515    1.6014    4.4153 C   0  0  0  0  0  0  0  0  0  0  0  0
    6.3653    1.8667    3.6643 C   0  0  0  0  0  0  0  0  0  0  0  0
    5.8606    0.9592    2.7053 C   0  0  0  0  0  0  0  0  0  0  0  0
    1.7512   -1.9722    3.3448 H   0  0  0  0  0  0  0  0  0  0  0  0
    1.7757   -0.1941    3.3870 H   0  0  0  0  0  0  0  0  0  0  0  0
    3.2975   -1.0997    3.2756 H   0  0  0  0  0  0  0  0  0  0  0  0
    1.0912   -1.0725    1.1015 H   0  0  0  0  0  0  0  0  0  0  0  0
    2.6013   -1.9637    0.9858 H   0  0  0  0  0  0  0  0  0  0  0  0
    2.2617    1.0845    1.1279 H   0  0  0  0  0  0  0  0  0  0  0  0
    2.5931    0.1674   -0.3300 H   0  0  0  0  0  0  0  0  0  0  0  0
    5.0231   -1.6205    1.1030 H   0  0  0  0  0  0  0  0  0  0  0  0
    6.1261   -0.3444    0.5747 H   0  0  0  0  0  0  0  0  0  0  0  0
    3.8508   -1.4954   -1.1301 H   0  0  0  0  0  0  0  0  0  0  0  0
    5.5579   -1.8810   -1.2260 H   0  0  0  0  0  0  0  0  0  0  0  0
    4.3838    0.9333   -1.7564 H   0  0  0  0  0  0  0  0  0  0  0  0
    4.9197   -0.2198   -3.0015 H   0  0  0  0  0  0  0  0  0  0  0  0
    6.0986    0.4966   -1.8779 H   0  0  0  0  0  0  0  0  0  0  0  0
    3.1205    2.7202    1.6754 H   0  0  0  0  0  0  0  0  0  0  0  0
    3.9428    4.2863    3.3454 H   0  0  0  0  0  0  0  0  0  0  0  0
    5.6310    4.9205    5.0736 H   0  0  0  0  0  0  0  0  0  0  0  0
    7.1211    5.5912    6.6618 H   0  0  0  0  0  0  0  0  0  0  0  0
   10.4380    7.6221    7.5660 H   0  0  0  0  0  0  0  0  0  0  0  0
   11.7802    5.7299    9.4271 H   0  0  0  0  0  0  0  0  0  0  0  0
   11.3648    7.3512   10.0002 H   0  0  0  0  0  0  0  0  0  0  0  0
   13.0419    6.6150    7.5337 H   0  0  0  0  0  0  0  0  0  0  0  0
   11.6205    9.6047    9.2862 H   0  0  0  0  0  0  0  0  0  0  0  0
   13.2990   11.0603    7.6165 H   0  0  0  0  0  0  0  0  0  0  0  0
   13.6373   10.5881   10.2813 H   0  0  0  0  0  0  0  0  0  0  0  0
   15.1525    9.4014    8.2193 H   0  0  0  0  0  0  0  0  0  0  0  0
   13.2470    8.2809   10.9810 H   0  0  0  0  0  0  0  0  0  0  0  0
   15.9465    8.8521   10.4572 H   0  0  0  0  0  0  0  0  0  0  0  0
   14.1934    6.3522    9.8230 H   0  0  0  0  0  0  0  0  0  0  0  0
   15.3684    6.7867    7.8387 H   0  0  0  0  0  0  0  0  0  0  0  0
    8.9330    2.2435    5.9024 H   0  0  0  0  0  0  0  0  0  0  0  0
    8.0903    0.6677    4.2333 H   0  0  0  0  0  0  0  0  0  0  0  0
    6.4014    0.0233    2.5680 H   0  0  0  0  0  0  0  0  0  0  0  0
  1  2  1  0
  1 37  1  0
  1 38  1  0
  1 39  1  0
  2  3  1  0
  2 40  1  0
  2 41  1  0
  3  4  1  0
  3 42  1  0
  3 43  1  0
  4  5  1  0
  4  8  1  0
  5  6  1  0
  5 44  1  0
  5 45  1  0
  6  7  1  0
  6 46  1  0
  6 47  1  0
  7 48  1  0
  7 49  1  0
  7 50  1  0
  8  9  2  0
  8 36  1  0
  9 10  1  0
  9 51  1  0
 10 11  2  0
 10 52  1  0
 11 12  1  0
 11 35  1  0
 12 13  2  0
 12 53  1  0
 13 14  1  0
 13 33  1  0
 14 15  2  0
 14 54  1  0
 15 16  1  0
 18 15  1  6
 16 17  3  0
 18 19  2  0
 18 20  2  0
 18 21  1  0
 21 22  1  0
 21 55  1  0
 22 23  1  0
 22 56  1  0
 22 57  1  0
 23 24  1  0
 23 31  1  0
 23 58  1  6
 24 25  1  0
 25 26  1  0
 25 27  1  0
 25 59  1  1
 26 60  1  0
 27 28  1  0
 27 29  1  0
 27 61  1  1
 28 62  1  0
 29 30  1  0
 29 31  1  0
 29 63  1  1
 30 64  1  0
 31 32  1  0
 31 65  1  1
 32 66  1  0
 33 34  2  0
 33 67  1  0
 34 35  1  0
 34 68  1  0
 35 36  2  0
 36 69  1  0
M  END

