
     RDKit          3D

 59 62  0  0  0  0  0  0  0  0999 V2000
    7.1384    4.9204    1.4972 C   0  0  0  0  0  0  0  0  0  0  0  0
    7.1881    3.4184    1.3697 C   0  0  0  0  0  0  0  0  0  0  0  0
    6.1262    2.7204    0.7638 C   0  0  0  0  0  0  0  0  0  0  0  0
    6.1501    1.3334    0.6400 C   0  0  0  0  0  0  0  0  0  0  0  0
    7.2574    0.6277    1.1230 C   0  0  0  0  0  0  0  0  0  0  0  0
    7.2997   -1.1564    0.9760 S   0  0  1  0  0  0  0  0  0  0  0  0
    8.3593   -1.6493    1.8550 O   0  0  0  0  0  0  0  0  0  0  0  0
    5.9182   -1.6491    1.0613 O   0  0  0  0  0  0  0  0  0  0  0  0
    7.7399   -1.4312   -0.6533 N   0  0  0  0  0  0  0  0  0  0  0  0
    9.0455   -1.8504   -1.0040 C   0  0  0  0  0  0  0  0  0  0  0  0
   10.1190   -0.9308   -1.1557 C   0  0  0  0  0  0  0  0  0  0  0  0
   11.2947   -1.5060   -1.5979 C   0  0  0  0  0  0  0  0  0  0  0  0
   12.5865   -0.8684   -1.8597 C   0  0  0  0  0  0  0  0  0  0  0  0
   12.9073    0.3850   -1.3005 C   0  0  0  0  0  0  0  0  0  0  0  0
   14.1228    1.0124   -1.5447 C   0  0  0  0  0  0  0  0  0  0  0  0
   15.1084    0.4121   -2.3700 C   0  0  0  0  0  0  0  0  0  0  0  0
   16.3199    1.0285   -2.6163 N   0  0  0  0  0  0  0  0  0  0  0  0
   17.3128    0.3726   -3.4417 C   0  0  0  0  0  0  0  0  0  0  0  0
   16.6100    2.3198   -2.0289 C   0  0  0  0  0  0  0  0  0  0  0  0
   14.7909   -0.8524   -2.9277 C   0  0  0  0  0  0  0  0  0  0  0  0
   13.5675   -1.4628   -2.6774 C   0  0  0  0  0  0  0  0  0  0  0  0
   11.0545   -3.2196   -1.8488 S   0  0  0  0  0  0  0  0  0  0  0  0
    9.3836   -3.1637   -1.3312 C   0  0  0  0  0  0  0  0  0  0  0  0
    8.6178   -4.3939   -1.3247 C   0  0  0  0  0  0  0  0  0  0  0  0
    7.4522   -4.6399   -0.6718 C   0  0  0  0  0  0  0  0  0  0  0  0
    6.6900   -5.8915   -0.6861 C   0  0  0  0  0  0  0  0  0  0  0  0
    7.0209   -7.0048   -1.4889 C   0  0  0  0  0  0  0  0  0  0  0  0
    6.2586   -8.1704   -1.4464 C   0  0  0  0  0  0  0  0  0  0  0  0
    5.1414   -8.2583   -0.6060 C   0  0  0  0  0  0  0  0  0  0  0  0
    4.7944   -7.1636    0.1909 C   0  0  0  0  0  0  0  0  0  0  0  0
    5.5577   -5.9961    0.1498 C   0  0  0  0  0  0  0  0  0  0  0  0
    8.3204    1.2880    1.7398 C   0  0  0  0  0  0  0  0  0  0  0  0
    8.2779    2.6805    1.8555 C   0  0  0  0  0  0  0  0  0  0  0  0
    7.0306    5.4001    0.5103 H   0  0  0  0  0  0  0  0  0  0  0  0
    8.0479    5.3185    1.9699 H   0  0  0  0  0  0  0  0  0  0  0  0
    6.2746    5.2387    2.1045 H   0  0  0  0  0  0  0  0  0  0  0  0
    5.2619    3.2759    0.3888 H   0  0  0  0  0  0  0  0  0  0  0  0
    5.3161    0.7951    0.1859 H   0  0  0  0  0  0  0  0  0  0  0  0
    6.9816   -1.9560   -1.0880 H   0  0  0  0  0  0  0  0  0  0  0  0
    9.9971    0.1378   -0.9799 H   0  0  0  0  0  0  0  0  0  0  0  0
   12.1922    0.8778   -0.6379 H   0  0  0  0  0  0  0  0  0  0  0  0
   14.3102    1.9775   -1.0755 H   0  0  0  0  0  0  0  0  0  0  0  0
   17.6289   -0.6011   -3.0228 H   0  0  0  0  0  0  0  0  0  0  0  0
   18.2040    1.0088   -3.5156 H   0  0  0  0  0  0  0  0  0  0  0  0
   16.9468    0.1880   -4.4689 H   0  0  0  0  0  0  0  0  0  0  0  0
   15.8826    3.0922   -2.3405 H   0  0  0  0  0  0  0  0  0  0  0  0
   17.6054    2.6518   -2.3506 H   0  0  0  0  0  0  0  0  0  0  0  0
   16.6073    2.2893   -0.9229 H   0  0  0  0  0  0  0  0  0  0  0  0
   15.5027   -1.3658   -3.5729 H   0  0  0  0  0  0  0  0  0  0  0  0
   13.3647   -2.4292   -3.1469 H   0  0  0  0  0  0  0  0  0  0  0  0
    9.0681   -5.2096   -1.9008 H   0  0  0  0  0  0  0  0  0  0  0  0
    7.0218   -3.8669   -0.0326 H   0  0  0  0  0  0  0  0  0  0  0  0
    7.8813   -6.9579   -2.1602 H   0  0  0  0  0  0  0  0  0  0  0  0
    6.5348   -9.0194   -2.0775 H   0  0  0  0  0  0  0  0  0  0  0  0
    4.5452   -9.1738   -0.5770 H   0  0  0  0  0  0  0  0  0  0  0  0
    3.9234   -7.2183    0.8492 H   0  0  0  0  0  0  0  0  0  0  0  0
    5.2820   -5.1418    0.7744 H   0  0  0  0  0  0  0  0  0  0  0  0
    9.1597    0.7110    2.1316 H   0  0  0  0  0  0  0  0  0  0  0  0
    9.1075    3.2017    2.3407 H   0  0  0  0  0  0  0  0  0  0  0  0
  1  2  1  0
  1 34  1  0
  1 35  1  0
  1 36  1  0
  2  3  2  0
  2 33  1  0
  3  4  1  0
  3 37  1  0
  4  5  2  0
  4 38  1  0
  5  6  1  0
  5 32  1  0
  6  7  2  0
  6  8  2  0
  6  9  1  6
  9 10  1  0
  9 39  1  0
 10 11  1  0
 10 23  2  0
 11 12  2  0
 11 40  1  0
 12 13  1  0
 12 22  1  0
 13 14  2  0
 13 21  1  0
 14 15  1  0
 14 41  1  0
 15 16  2  0
 15 42  1  0
 16 17  1  0
 16 20  1  0
 17 18  1  0
 17 19  1  0
 18 43  1  0
 18 44  1  0
 18 45  1  0
 19 46  1  0
 19 47  1  0
 19 48  1  0
 20 21  2  0
 20 49  1  0
 21 50  1  0
 22 23  1  0
 23 24  1  0
 24 25  2  0
 24 51  1  0
 25 26  1  0
 25 52  1  0
 26 27  2  0
 26 31  1  0
 27 28  1  0
 27 53  1  0
 28 29  2  0
 28 54  1  0
 29 30  1  0
 29 55  1  0
 30 31  2  0
 30 56  1  0
 31 57  1  0
 32 33  2  0
 32 58  1  0
 33 59  1  0
M  END

