
     RDKit          3D

 34 35  0  0  0  0  0  0  0  0999 V2000
    2.5436    0.3288    2.3051 C   0  0  0  0  0  0  0  0  0  0  0  0
    3.2329    0.1395    0.9702 C   0  0  0  0  0  0  0  0  0  0  0  0
    4.0114    1.2047    0.4824 C   0  0  0  0  0  0  0  0  0  0  0  0
    4.6823    1.0578   -0.7267 C   0  0  0  0  0  0  0  0  0  0  0  0
    4.5881   -0.0317   -1.4839 N   0  0  0  0  0  0  0  0  0  0  0  0
    3.8322   -1.0482   -1.0476 C   0  0  0  0  0  0  0  0  0  0  0  0
    3.7893   -2.1448   -1.8919 N   0  0  0  0  0  0  0  0  0  0  0  0
    3.1574   -1.0453    0.2126 C   0  0  0  0  0  0  0  0  0  0  0  0
    2.4252   -2.3221    0.6500 C   0  0  1  0  0  0  0  0  0  0  0  0
    2.6590   -2.7850    2.0169 N   0  0  0  0  0  0  0  0  0  0  0  0
    0.8953   -2.2555    0.3721 C   0  0  0  0  0  0  0  0  0  0  0  0
    0.2197   -3.6066    0.3771 C   0  0  0  0  0  0  0  0  0  0  0  0
   -0.2134   -4.1897    1.5814 C   0  0  0  0  0  0  0  0  0  0  0  0
   -0.8177   -5.4448    1.6321 C   0  0  0  0  0  0  0  0  0  0  0  0
   -0.9934   -6.1486    0.4433 C   0  0  0  0  0  0  0  0  0  0  0  0
   -1.5746   -7.3554    0.4690 F   0  0  0  0  0  0  0  0  0  0  0  0
   -0.5798   -5.6274   -0.7778 C   0  0  0  0  0  0  0  0  0  0  0  0
    0.0235   -4.3663   -0.7897 C   0  0  0  0  0  0  0  0  0  0  0  0
    0.5323   -3.7465   -2.3601 Cl  0  0  0  0  0  0  0  0  0  0  0  0
    2.4521    1.3996    2.5381 H   0  0  0  0  0  0  0  0  0  0  0  0
    3.1225   -0.1277    3.1261 H   0  0  0  0  0  0  0  0  0  0  0  0
    1.5313   -0.0995    2.3313 H   0  0  0  0  0  0  0  0  0  0  0  0
    4.0909    2.1354    1.0489 H   0  0  0  0  0  0  0  0  0  0  0  0
    5.3156    1.8669   -1.1111 H   0  0  0  0  0  0  0  0  0  0  0  0
    4.2265   -1.9558   -2.7881 H   0  0  0  0  0  0  0  0  0  0  0  0
    2.9285   -2.6765   -1.9604 H   0  0  0  0  0  0  0  0  0  0  0  0
    2.8208   -3.1269    0.0125 H   0  0  0  0  0  0  0  0  0  0  0  0
    2.4117   -2.0777    2.7043 H   0  0  0  0  0  0  0  0  0  0  0  0
    3.6452   -3.0015    2.1568 H   0  0  0  0  0  0  0  0  0  0  0  0
    0.7334   -1.7616   -0.5957 H   0  0  0  0  0  0  0  0  0  0  0  0
    0.4221   -1.6141    1.1332 H   0  0  0  0  0  0  0  0  0  0  0  0
   -0.0584   -3.6361    2.5087 H   0  0  0  0  0  0  0  0  0  0  0  0
   -1.1510   -5.8844    2.5737 H   0  0  0  0  0  0  0  0  0  0  0  0
   -0.7269   -6.1948   -1.6966 H   0  0  0  0  0  0  0  0  0  0  0  0
  1  2  1  0
  1 20  1  0
  1 21  1  0
  1 22  1  0
  2  3  2  0
  2  8  1  0
  3  4  1  0
  3 23  1  0
  4  5  2  0
  4 24  1  0
  5  6  1  0
  6  7  1  0
  6  8  2  0
  7 25  1  0
  7 26  1  0
  8  9  1  0
  9 10  1  0
  9 11  1  0
  9 27  1  6
 10 28  1  0
 10 29  1  0
 11 12  1  0
 11 30  1  0
 11 31  1  0
 12 13  2  0
 12 18  1  0
 13 14  1  0
 13 32  1  0
 14 15  2  0
 14 33  1  0
 15 16  1  0
 15 17  1  0
 17 18  2  0
 17 34  1  0
 18 19  1  0
M  END

