
     RDKit          3D

 41 42  0  0  0  0  0  0  0  0999 V2000
    4.7143   -0.9937    1.7785 C   0  0  0  0  0  0  0  0  0  0  0  0
    4.3986    0.0603    2.8388 C   0  0  0  0  0  0  0  0  0  0  0  0
    5.0065    1.4463    2.5781 C   0  0  0  0  0  0  0  0  0  0  0  0
    4.4635    2.1614    1.4181 N   0  0  0  0  0  0  0  0  0  0  0  0
    3.0581    2.5528    1.4619 C   0  0  0  0  0  0  0  0  0  0  0  0
    2.1511    1.8444    0.4662 C   0  0  1  0  0  0  0  0  0  0  0  0
    2.0940    0.5045    0.7228 F   0  0  0  0  0  0  0  0  0  0  0  0
    0.8926    2.3411    0.6185 F   0  0  0  0  0  0  0  0  0  0  0  0
    5.1956    2.7091    0.3894 C   0  0  0  0  0  0  0  0  0  0  0  0
    4.6230    3.3062   -0.5156 O   0  0  0  0  0  0  0  0  0  0  0  0
    6.7351    2.6044    0.3887 C   0  0  1  0  0  0  0  0  0  0  0  0
    7.1839    1.2029   -0.0233 C   0  0  0  0  0  0  0  0  0  0  0  0
    6.6063    0.6196   -1.1673 C   0  0  0  0  0  0  0  0  0  0  0  0
    7.0149   -0.6371   -1.6123 C   0  0  0  0  0  0  0  0  0  0  0  0
    8.0134   -1.3462   -0.9364 C   0  0  0  0  0  0  0  0  0  0  0  0
    8.5919   -0.7643    0.1911 C   0  0  0  0  0  0  0  0  0  0  0  0
    9.8476   -1.6221    1.0603 Cl  0  0  0  0  0  0  0  0  0  0  0  0
    8.1886    0.4952    0.6497 C   0  0  0  0  0  0  0  0  0  0  0  0
    7.4031    3.6959   -0.5233 C   0  0  0  0  0  0  0  0  0  0  0  0
    8.3953    4.0248    0.6144 C   0  0  0  0  0  0  0  0  0  0  0  0
    7.4761    3.2688    1.5995 C   0  0  0  0  0  0  0  0  0  0  0  0
    4.2490   -1.9572    2.0397 H   0  0  0  0  0  0  0  0  0  0  0  0
    5.7991   -1.1585    1.6818 H   0  0  0  0  0  0  0  0  0  0  0  0
    4.3267   -0.6971    0.7938 H   0  0  0  0  0  0  0  0  0  0  0  0
    4.7842   -0.2692    3.8199 H   0  0  0  0  0  0  0  0  0  0  0  0
    3.3066    0.1486    2.9591 H   0  0  0  0  0  0  0  0  0  0  0  0
    6.0866    1.3355    2.4370 H   0  0  0  0  0  0  0  0  0  0  0  0
    4.8657    2.0763    3.4770 H   0  0  0  0  0  0  0  0  0  0  0  0
    2.9680    3.6293    1.2480 H   0  0  0  0  0  0  0  0  0  0  0  0
    2.6590    2.3629    2.4690 H   0  0  0  0  0  0  0  0  0  0  0  0
    2.4694    1.9883   -0.5771 H   0  0  0  0  0  0  0  0  0  0  0  0
    5.8329    1.1649   -1.7133 H   0  0  0  0  0  0  0  0  0  0  0  0
    6.5521   -1.0757   -2.5000 H   0  0  0  0  0  0  0  0  0  0  0  0
    8.3409   -2.3300   -1.2754 H   0  0  0  0  0  0  0  0  0  0  0  0
    8.6748    0.9030    1.5353 H   0  0  0  0  0  0  0  0  0  0  0  0
    6.6945    4.5065   -0.7361 H   0  0  0  0  0  0  0  0  0  0  0  0
    7.8203    3.3348   -1.4739 H   0  0  0  0  0  0  0  0  0  0  0  0
    8.5767    5.0893    0.8249 H   0  0  0  0  0  0  0  0  0  0  0  0
    9.3677    3.5256    0.4866 H   0  0  0  0  0  0  0  0  0  0  0  0
    6.8002    3.9504    2.1381 H   0  0  0  0  0  0  0  0  0  0  0  0
    7.9514    2.6144    2.3444 H   0  0  0  0  0  0  0  0  0  0  0  0
  1  2  1  0
  1 22  1  0
  1 23  1  0
  1 24  1  0
  2  3  1  0
  2 25  1  0
  2 26  1  0
  3  4  1  0
  3 27  1  0
  3 28  1  0
  4  5  1  0
  4  9  1  0
  5  6  1  0
  5 29  1  0
  5 30  1  0
  6  7  1  0
  6  8  1  0
  6 31  1  6
  9 10  2  0
 11  9  1  1
 11 12  1  0
 11 19  1  0
 11 21  1  0
 12 13  2  0
 12 18  1  0
 13 14  1  0
 13 32  1  0
 14 15  2  0
 14 33  1  0
 15 16  1  0
 15 34  1  0
 16 17  1  0
 16 18  2  0
 18 35  1  0
 19 20  1  0
 19 36  1  0
 19 37  1  0
 20 21  1  0
 20 38  1  0
 20 39  1  0
 21 40  1  0
 21 41  1  0
M  END

