
     RDKit          3D

 38 41  0  0  0  0  0  0  0  0999 V2000
    2.7306    1.1534    0.1025 O   0  0  0  0  0  0  0  0  0  0  0  0
    2.7018   -0.0701    0.0610 C   0  0  0  0  0  0  0  0  0  0  0  0
    2.3543   -0.8580    1.3010 C   0  0  0  0  0  0  0  0  0  0  0  0
    3.1315   -1.9362    1.7585 C   0  0  0  0  0  0  0  0  0  0  0  0
    2.8354   -2.5770    2.9670 C   0  0  0  0  0  0  0  0  0  0  0  0
    1.7401   -2.1376    3.7092 C   0  0  0  0  0  0  0  0  0  0  0  0
    0.9700   -1.0576    3.2670 C   0  0  0  0  0  0  0  0  0  0  0  0
    1.2775   -0.3998    2.0797 C   0  0  0  0  0  0  0  0  0  0  0  0
   -0.1113   -0.7964    4.2850 C   0  0  0  0  0  0  0  0  0  0  0  0
   -0.0050   -1.8578    5.2264 O   0  0  0  0  0  0  0  0  0  0  0  0
    1.1827   -2.6124    5.0266 C   0  0  0  0  0  0  0  0  0  0  0  0
    2.9852   -0.7572   -1.0911 N   0  0  0  0  0  0  0  0  0  0  0  0
    3.3025    0.0072   -2.3109 C   0  0  0  0  0  0  0  0  0  0  0  0
    2.9347   -0.9500   -3.4497 C   0  0  0  0  0  0  0  0  0  0  0  0
    3.1425   -2.3385   -2.8378 C   0  0  1  0  0  0  0  0  0  0  0  0
    2.6401   -3.6123   -3.5678 C   0  0  0  0  0  0  0  0  0  0  0  0
    3.9760   -4.3206   -3.2234 C   0  0  0  0  0  0  0  0  0  0  0  0
    4.5843   -2.9402   -2.8675 C   0  0  0  0  0  0  0  0  0  0  0  0
    2.5950   -2.1370   -1.4172 C   0  0  0  0  0  0  0  0  0  0  0  0
    3.9989   -2.2602    1.1793 H   0  0  0  0  0  0  0  0  0  0  0  0
    3.4609   -3.4031    3.3164 H   0  0  0  0  0  0  0  0  0  0  0  0
    0.7104    0.4699    1.7398 H   0  0  0  0  0  0  0  0  0  0  0  0
   -1.1256   -0.7990    3.8450 H   0  0  0  0  0  0  0  0  0  0  0  0
    0.0277    0.1860    4.7817 H   0  0  0  0  0  0  0  0  0  0  0  0
    0.9357   -3.6905    5.0248 H   0  0  0  0  0  0  0  0  0  0  0  0
    1.9015   -2.4440    5.8556 H   0  0  0  0  0  0  0  0  0  0  0  0
    4.3754    0.2691   -2.3231 H   0  0  0  0  0  0  0  0  0  0  0  0
    2.7425    0.9533   -2.3188 H   0  0  0  0  0  0  0  0  0  0  0  0
    3.5358   -0.7874   -4.3571 H   0  0  0  0  0  0  0  0  0  0  0  0
    1.8730   -0.8268   -3.7267 H   0  0  0  0  0  0  0  0  0  0  0  0
    2.5246   -3.4390   -4.6494 H   0  0  0  0  0  0  0  0  0  0  0  0
    1.7097   -4.0669   -3.1905 H   0  0  0  0  0  0  0  0  0  0  0  0
    4.4642   -4.8875   -4.0301 H   0  0  0  0  0  0  0  0  0  0  0  0
    3.8865   -4.9812   -2.3471 H   0  0  0  0  0  0  0  0  0  0  0  0
    5.1810   -2.5226   -3.6940 H   0  0  0  0  0  0  0  0  0  0  0  0
    5.1776   -2.8651   -1.9423 H   0  0  0  0  0  0  0  0  0  0  0  0
    3.0002   -2.8674   -0.7047 H   0  0  0  0  0  0  0  0  0  0  0  0
    1.4934   -2.2485   -1.4128 H   0  0  0  0  0  0  0  0  0  0  0  0
  1  2  2  0
  2  3  1  0
  2 12  1  0
  3  4  2  0
  3  8  1  0
  4  5  1  0
  4 20  1  0
  5  6  2  0
  5 21  1  0
  6  7  1  0
  6 11  1  0
  7  8  2  0
  7  9  1  0
  8 22  1  0
  9 10  1  0
  9 23  1  0
  9 24  1  0
 10 11  1  0
 11 25  1  0
 11 26  1  0
 12 13  1  0
 12 19  1  0
 13 14  1  0
 13 27  1  0
 13 28  1  0
 15 14  1  6
 14 29  1  0
 14 30  1  0
 15 16  1  0
 15 18  1  0
 15 19  1  0
 16 17  1  0
 16 31  1  0
 16 32  1  0
 17 18  1  0
 17 33  1  0
 17 34  1  0
 18 35  1  0
 18 36  1  0
 19 37  1  0
 19 38  1  0
M  END

