
     RDKit          3D

 31 31  0  0  0  0  0  0  0  0999 V2000
    0.9414    0.0369   -0.2676 C   0  0  0  0  0  0  0  0  0  0  0  0
    2.4540   -0.0880   -0.1222 C   0  0  0  0  0  0  0  0  0  0  0  0
    3.1418    0.9970   -0.7978 N   0  0  0  0  0  0  0  0  0  0  0  0
    4.5844    0.9573   -0.7194 C   0  0  0  0  0  0  0  0  0  0  0  0
    5.1847    2.2234   -1.3320 C   0  0  1  0  0  0  0  0  0  0  0  0
    4.7170    3.3801   -0.6451 O   0  0  0  0  0  0  0  0  0  0  0  0
    6.7164    2.2326   -1.3711 C   0  0  0  0  0  0  0  0  0  0  0  0
    7.3791    0.9296   -2.4965 S   0  0  0  0  0  0  0  0  0  0  0  0
    9.1354    1.2871   -2.4025 C   0  0  0  0  0  0  0  0  0  0  0  0
    9.9709    0.4846   -1.6111 C   0  0  0  0  0  0  0  0  0  0  0  0
   11.3466    0.7319   -1.5673 C   0  0  0  0  0  0  0  0  0  0  0  0
   11.8952    1.7824   -2.3087 C   0  0  0  0  0  0  0  0  0  0  0  0
   11.0657    2.5827   -3.1019 C   0  0  0  0  0  0  0  0  0  0  0  0
    9.6922    2.3325   -3.1564 C   0  0  0  0  0  0  0  0  0  0  0  0
    0.4243   -0.8031    0.2220 H   0  0  0  0  0  0  0  0  0  0  0  0
    0.6550    0.0560   -1.3306 H   0  0  0  0  0  0  0  0  0  0  0  0
    0.5742    0.9688    0.1957 H   0  0  0  0  0  0  0  0  0  0  0  0
    2.7901   -1.0410   -0.5703 H   0  0  0  0  0  0  0  0  0  0  0  0
    2.7189   -0.1581    0.9602 H   0  0  0  0  0  0  0  0  0  0  0  0
    2.8189    1.9006   -0.4510 H   0  0  0  0  0  0  0  0  0  0  0  0
    4.9622    0.0693   -1.2563 H   0  0  0  0  0  0  0  0  0  0  0  0
    4.9717    0.8640    0.3283 H   0  0  0  0  0  0  0  0  0  0  0  0
    4.7946    2.3246   -2.3578 H   0  0  0  0  0  0  0  0  0  0  0  0
    5.0542    3.3413    0.2619 H   0  0  0  0  0  0  0  0  0  0  0  0
    7.1280    2.0743   -0.3591 H   0  0  0  0  0  0  0  0  0  0  0  0
    7.0477    3.2186   -1.7281 H   0  0  0  0  0  0  0  0  0  0  0  0
    9.5344   -0.3331   -1.0333 H   0  0  0  0  0  0  0  0  0  0  0  0
   11.9912    0.1010   -0.9498 H   0  0  0  0  0  0  0  0  0  0  0  0
   12.9704    1.9755   -2.2727 H   0  0  0  0  0  0  0  0  0  0  0  0
   11.4916    3.4000   -3.6898 H   0  0  0  0  0  0  0  0  0  0  0  0
    9.0433    2.9419   -3.7898 H   0  0  0  0  0  0  0  0  0  0  0  0
  1  2  1  0
  1 15  1  0
  1 16  1  0
  1 17  1  0
  2  3  1  0
  2 18  1  0
  2 19  1  0
  3  4  1  0
  3 20  1  0
  4  5  1  0
  4 21  1  0
  4 22  1  0
  5  6  1  0
  5  7  1  0
  5 23  1  6
  6 24  1  0
  7  8  1  0
  7 25  1  0
  7 26  1  0
  8  9  1  0
  9 10  2  0
  9 14  1  0
 10 11  1  0
 10 27  1  0
 11 12  2  0
 11 28  1  0
 12 13  1  0
 12 29  1  0
 13 14  2  0
 13 30  1  0
 14 31  1  0
M  END

