
     RDKit          3D

 36 37  0  0  0  0  0  0  0  0999 V2000
    2.0917   -1.1855   -1.1349 C   0  0  0  0  0  0  0  0  0  0  0  0
    2.4097   -0.2018    0.0022 C   0  0  0  0  0  0  0  0  0  0  0  0
    2.9785   -0.8746    1.2330 C   0  0  0  0  0  0  0  0  0  0  0  0
    4.3605   -1.0599    1.3865 C   0  0  0  0  0  0  0  0  0  0  0  0
    4.8830   -1.7192    2.5022 C   0  0  0  0  0  0  0  0  0  0  0  0
    4.0419   -2.2121    3.5085 C   0  0  0  0  0  0  0  0  0  0  0  0
    4.6120   -2.9153    4.7318 C   0  0  1  0  0  0  0  0  0  0  0  0
    4.3935   -2.0933    6.0164 C   0  0  0  0  0  0  0  0  0  0  0  0
    4.0372   -4.2545    4.8351 N   0  0  0  0  0  0  0  0  0  0  0  0
    4.6442   -5.3257    5.4435 C   0  0  0  0  0  0  0  0  0  0  0  0
    5.8252   -5.2496    6.2078 C   0  0  0  0  0  0  0  0  0  0  0  0
    6.3518   -6.4040    6.7882 C   0  0  0  0  0  0  0  0  0  0  0  0
    7.4788   -6.2856    7.5113 F   0  0  0  0  0  0  0  0  0  0  0  0
    5.7645   -7.6556    6.6508 C   0  0  0  0  0  0  0  0  0  0  0  0
    4.5912   -7.7433    5.8862 C   0  0  0  0  0  0  0  0  0  0  0  0
    4.0580   -6.6078    5.3071 C   0  0  0  0  0  0  0  0  0  0  0  0
    2.9316   -6.6901    4.5590 F   0  0  0  0  0  0  0  0  0  0  0  0
    2.6576   -2.0230    3.3619 C   0  0  0  0  0  0  0  0  0  0  0  0
    2.1379   -1.3708    2.2425 C   0  0  0  0  0  0  0  0  0  0  0  0
    1.6802   -0.6583   -2.0107 H   0  0  0  0  0  0  0  0  0  0  0  0
    1.3539   -1.9386   -0.8147 H   0  0  0  0  0  0  0  0  0  0  0  0
    2.9961   -1.7257   -1.4578 H   0  0  0  0  0  0  0  0  0  0  0  0
    1.4917    0.3447    0.2770 H   0  0  0  0  0  0  0  0  0  0  0  0
    3.1240    0.5558   -0.3618 H   0  0  0  0  0  0  0  0  0  0  0  0
    5.0428   -0.6815    0.6194 H   0  0  0  0  0  0  0  0  0  0  0  0
    5.9652   -1.8511    2.5917 H   0  0  0  0  0  0  0  0  0  0  0  0
    5.7020   -3.0147    4.5733 H   0  0  0  0  0  0  0  0  0  0  0  0
    3.3201   -1.9264    6.1940 H   0  0  0  0  0  0  0  0  0  0  0  0
    4.8870   -1.1123    5.9340 H   0  0  0  0  0  0  0  0  0  0  0  0
    4.8025   -2.6137    6.8955 H   0  0  0  0  0  0  0  0  0  0  0  0
    3.3034   -4.4910    4.1792 H   0  0  0  0  0  0  0  0  0  0  0  0
    6.3460   -4.3065    6.3667 H   0  0  0  0  0  0  0  0  0  0  0  0
    6.2121   -8.5290    7.1257 H   0  0  0  0  0  0  0  0  0  0  0  0
    4.0828   -8.6974    5.7333 H   0  0  0  0  0  0  0  0  0  0  0  0
    1.9720   -2.3836    4.1344 H   0  0  0  0  0  0  0  0  0  0  0  0
    1.0556   -1.2355    2.1555 H   0  0  0  0  0  0  0  0  0  0  0  0
  1  2  1  0
  1 20  1  0
  1 21  1  0
  1 22  1  0
  2  3  1  0
  2 23  1  0
  2 24  1  0
  3  4  2  0
  3 19  1  0
  4  5  1  0
  4 25  1  0
  5  6  2  0
  5 26  1  0
  6  7  1  0
  6 18  1  0
  7  8  1  0
  7  9  1  0
  7 27  1  6
  8 28  1  0
  8 29  1  0
  8 30  1  0
  9 10  1  0
  9 31  1  0
 10 11  2  0
 10 16  1  0
 11 12  1  0
 11 32  1  0
 12 13  1  0
 12 14  2  0
 14 15  1  0
 14 33  1  0
 15 16  2  0
 15 34  1  0
 16 17  1  0
 18 19  2  0
 18 35  1  0
 19 36  1  0
M  END

