
     RDKit          3D

 56 58  0  0  0  0  0  0  0  0999 V2000
    9.0779    5.0940    5.5735 C   0  0  0  0  0  0  0  0  0  0  0  0
    8.8711    3.7162    4.9745 C   0  0  0  0  0  0  0  0  0  0  0  0
   10.0706    3.3388    4.3144 O   0  0  0  0  0  0  0  0  0  0  0  0
   10.1529    2.1387    3.6933 C   0  0  0  0  0  0  0  0  0  0  0  0
    9.1122    1.1950    3.6376 C   0  0  0  0  0  0  0  0  0  0  0  0
    9.3037   -0.0140    2.9695 C   0  0  0  0  0  0  0  0  0  0  0  0
   10.5241   -0.3180    2.3425 C   0  0  0  0  0  0  0  0  0  0  0  0
   10.6839   -1.6026    1.6503 C   0  0  0  0  0  0  0  0  0  0  0  0
    9.7394   -2.5033    1.5775 N   0  0  0  0  0  0  0  0  0  0  0  0
   10.0978   -3.6130    0.8944 N   0  0  0  0  0  0  0  0  0  0  0  0
   11.3211   -3.5764    0.4353 C   0  0  0  0  0  0  0  0  0  0  0  0
   11.8749   -4.6325   -0.2964 N   0  0  0  0  0  0  0  0  0  0  0  0
   13.1888   -4.5222   -0.7567 C   0  0  0  0  0  0  0  0  0  0  0  0
   13.8454   -3.5206   -0.5237 O   0  0  0  0  0  0  0  0  0  0  0  0
   13.7900   -5.6741   -1.5566 C   0  0  0  0  0  0  0  0  0  0  0  0
   15.2309   -5.3905   -1.9873 C   0  0  0  0  0  0  0  0  0  0  0  0
   15.8837   -6.5433   -2.7542 C   0  0  1  0  0  0  0  0  0  0  0  0
   15.2730   -6.8812   -4.1274 C   0  0  0  0  0  0  0  0  0  0  0  0
   16.3286   -7.7813   -4.7947 C   0  0  0  0  0  0  0  0  0  0  0  0
   17.6986   -7.2879   -4.2471 C   0  0  0  0  0  0  0  0  0  0  0  0
   17.3631   -6.2913   -3.1094 C   0  0  0  0  0  0  0  0  0  0  0  0
   11.0372   -5.8446   -0.5560 C   0  0  1  0  0  0  0  0  0  0  0  0
   10.6767   -6.5922    0.7330 C   0  0  0  0  0  0  0  0  0  0  0  0
    9.8252   -5.5372   -1.4432 C   0  0  0  0  0  0  0  0  0  0  0  0
   12.1685   -2.0879    0.8339 S   0  0  0  0  0  0  0  0  0  0  0  0
   11.5582    0.6376    2.4063 C   0  0  0  0  0  0  0  0  0  0  0  0
   11.3788    1.8449    3.0688 C   0  0  0  0  0  0  0  0  0  0  0  0
    8.1661    5.4226    6.0957 H   0  0  0  0  0  0  0  0  0  0  0  0
    9.3139    5.8279    4.7879 H   0  0  0  0  0  0  0  0  0  0  0  0
    9.9088    5.0834    6.2952 H   0  0  0  0  0  0  0  0  0  0  0  0
    8.0307    3.7231    4.2550 H   0  0  0  0  0  0  0  0  0  0  0  0
    8.6258    2.9786    5.7618 H   0  0  0  0  0  0  0  0  0  0  0  0
    8.1501    1.3919    4.1106 H   0  0  0  0  0  0  0  0  0  0  0  0
    8.4991   -0.7498    2.9236 H   0  0  0  0  0  0  0  0  0  0  0  0
   13.1580   -5.8697   -2.4391 H   0  0  0  0  0  0  0  0  0  0  0  0
   13.7534   -6.5964   -0.9502 H   0  0  0  0  0  0  0  0  0  0  0  0
   15.8283   -5.1539   -1.0922 H   0  0  0  0  0  0  0  0  0  0  0  0
   15.2519   -4.4757   -2.6036 H   0  0  0  0  0  0  0  0  0  0  0  0
   15.8312   -7.4566   -2.1282 H   0  0  0  0  0  0  0  0  0  0  0  0
   15.1448   -5.9452   -4.7022 H   0  0  0  0  0  0  0  0  0  0  0  0
   14.2837   -7.3631   -4.0684 H   0  0  0  0  0  0  0  0  0  0  0  0
   16.2722   -7.7533   -5.8939 H   0  0  0  0  0  0  0  0  0  0  0  0
   16.1586   -8.8296   -4.4985 H   0  0  0  0  0  0  0  0  0  0  0  0
   18.3027   -6.8059   -5.0314 H   0  0  0  0  0  0  0  0  0  0  0  0
   18.2960   -8.1344   -3.8738 H   0  0  0  0  0  0  0  0  0  0  0  0
   17.4671   -5.2526   -3.4689 H   0  0  0  0  0  0  0  0  0  0  0  0
   18.0288   -6.3914   -2.2375 H   0  0  0  0  0  0  0  0  0  0  0  0
   11.6902   -6.5063   -1.1321 H   0  0  0  0  0  0  0  0  0  0  0  0
    9.9819   -6.0110    1.3518 H   0  0  0  0  0  0  0  0  0  0  0  0
   11.5796   -6.8122    1.3245 H   0  0  0  0  0  0  0  0  0  0  0  0
   10.2003   -7.5509    0.4731 H   0  0  0  0  0  0  0  0  0  0  0  0
    9.0944   -4.9091   -0.9187 H   0  0  0  0  0  0  0  0  0  0  0  0
    9.3373   -6.4827   -1.7287 H   0  0  0  0  0  0  0  0  0  0  0  0
   10.1357   -5.0239   -2.3671 H   0  0  0  0  0  0  0  0  0  0  0  0
   12.5213    0.4359    1.9301 H   0  0  0  0  0  0  0  0  0  0  0  0
   12.1779    2.5868    3.1198 H   0  0  0  0  0  0  0  0  0  0  0  0
  1  2  1  0
  1 28  1  0
  1 29  1  0
  1 30  1  0
  2  3  1  0
  2 31  1  0
  2 32  1  0
  3  4  1  0
  4  5  2  0
  4 27  1  0
  5  6  1  0
  5 33  1  0
  6  7  2  0
  6 34  1  0
  7  8  1  0
  7 26  1  0
  8  9  2  0
  8 25  1  0
  9 10  1  0
 10 11  2  0
 11 12  1  0
 11 25  1  0
 12 13  1  0
 12 22  1  0
 13 14  2  0
 13 15  1  0
 15 16  1  0
 15 35  1  0
 15 36  1  0
 16 17  1  0
 16 37  1  0
 16 38  1  0
 17 18  1  0
 17 21  1  0
 17 39  1  1
 18 19  1  0
 18 40  1  0
 18 41  1  0
 19 20  1  0
 19 42  1  0
 19 43  1  0
 20 21  1  0
 20 44  1  0
 20 45  1  0
 21 46  1  0
 21 47  1  0
 22 23  1  0
 22 24  1  0
 22 48  1  6
 23 49  1  0
 23 50  1  0
 23 51  1  0
 24 52  1  0
 24 53  1  0
 24 54  1  0
 26 27  2  0
 26 55  1  0
 27 56  1  0
M  END

