
     RDKit          3D

 48 49  0  0  0  0  0  0  0  0999 V2000
    1.7768   -0.9718    0.2772 C   0  0  0  0  0  0  0  0  0  0  0  0
    3.0167   -0.1313   -0.0861 C   0  0  1  0  0  0  0  0  0  0  0  0
    2.9068    0.4454   -1.4132 N   0  0  0  0  0  0  0  0  0  0  0  0
    3.1634   -0.2635   -2.5418 C   0  0  0  0  0  0  0  0  0  0  0  0
    3.4563   -1.4537   -2.5223 O   0  0  0  0  0  0  0  0  0  0  0  0
    3.1009    0.5230   -3.8491 C   0  0  0  0  0  0  0  0  0  0  0  0
    2.4513   -0.2853   -4.9765 C   0  0  0  0  0  0  0  0  0  0  0  0
    2.8317    0.1833   -6.3831 C   0  0  0  0  0  0  0  0  0  0  0  0
    4.2800    0.1174   -6.6217 N   0  0  0  0  0  0  0  0  0  0  0  0
    4.8947   -1.2089   -6.5347 C   0  0  0  0  0  0  0  0  0  0  0  0
    4.8360    1.1189   -7.8769 S   0  0  1  0  0  0  0  0  0  0  0  0
    6.2180    0.7168   -8.1526 O   0  0  0  0  0  0  0  0  0  0  0  0
    3.8447    1.1906   -8.9576 O   0  0  0  0  0  0  0  0  0  0  0  0
    4.8766    2.7361   -7.0943 C   0  0  0  0  0  0  0  0  0  0  0  0
    5.8433    2.9986   -6.1158 C   0  0  0  0  0  0  0  0  0  0  0  0
    5.9065    4.2651   -5.5387 C   0  0  0  0  0  0  0  0  0  0  0  0
    5.0051    5.2455   -5.9609 C   0  0  0  0  0  0  0  0  0  0  0  0
    5.0668    6.4603   -5.4056 F   0  0  0  0  0  0  0  0  0  0  0  0
    4.0495    4.9979   -6.9440 C   0  0  0  0  0  0  0  0  0  0  0  0
    3.9886    3.7265   -7.5204 C   0  0  0  0  0  0  0  0  0  0  0  0
    3.2486    0.9853    0.9248 C   0  0  0  0  0  0  0  0  0  0  0  0
    3.7793    0.7087    2.1950 C   0  0  0  0  0  0  0  0  0  0  0  0
    3.9367    1.7546    3.1025 C   0  0  0  0  0  0  0  0  0  0  0  0
    3.5623    3.0458    2.7182 C   0  0  0  0  0  0  0  0  0  0  0  0
    3.0503    3.2252    1.4325 C   0  0  0  0  0  0  0  0  0  0  0  0
    2.8978    2.2233    0.5611 N   0  0  0  0  0  0  0  0  0  0  0  0
    1.6574   -1.7758   -0.4631 H   0  0  0  0  0  0  0  0  0  0  0  0
    0.8722   -0.3435    0.2774 H   0  0  0  0  0  0  0  0  0  0  0  0
    1.8844   -1.4288    1.2735 H   0  0  0  0  0  0  0  0  0  0  0  0
    3.8892   -0.8064   -0.0818 H   0  0  0  0  0  0  0  0  0  0  0  0
    2.6959    1.4402   -1.4357 H   0  0  0  0  0  0  0  0  0  0  0  0
    4.1466    0.7434   -4.1271 H   0  0  0  0  0  0  0  0  0  0  0  0
    2.6009    1.4956   -3.7094 H   0  0  0  0  0  0  0  0  0  0  0  0
    1.3521   -0.2412   -4.8932 H   0  0  0  0  0  0  0  0  0  0  0  0
    2.7230   -1.3427   -4.8403 H   0  0  0  0  0  0  0  0  0  0  0  0
    2.5120    1.2277   -6.5252 H   0  0  0  0  0  0  0  0  0  0  0  0
    2.2871   -0.4175   -7.1365 H   0  0  0  0  0  0  0  0  0  0  0  0
    4.8613   -1.5558   -5.4912 H   0  0  0  0  0  0  0  0  0  0  0  0
    5.9427   -1.1416   -6.8488 H   0  0  0  0  0  0  0  0  0  0  0  0
    4.3791   -1.9520   -7.1727 H   0  0  0  0  0  0  0  0  0  0  0  0
    6.5452    2.2174   -5.8186 H   0  0  0  0  0  0  0  0  0  0  0  0
    6.6455    4.5109   -4.7738 H   0  0  0  0  0  0  0  0  0  0  0  0
    3.3733    5.7985   -7.2497 H   0  0  0  0  0  0  0  0  0  0  0  0
    3.2660    3.4957   -8.3049 H   0  0  0  0  0  0  0  0  0  0  0  0
    4.0679   -0.3114    2.4597 H   0  0  0  0  0  0  0  0  0  0  0  0
    4.3518    1.5673    4.0962 H   0  0  0  0  0  0  0  0  0  0  0  0
    3.6696    3.8956    3.3955 H   0  0  0  0  0  0  0  0  0  0  0  0
    2.7514    4.2218    1.0877 H   0  0  0  0  0  0  0  0  0  0  0  0
  1  2  1  0
  1 27  1  0
  1 28  1  0
  1 29  1  0
  2  3  1  0
  2 21  1  0
  2 30  1  6
  3  4  1  0
  3 31  1  0
  4  5  2  0
  4  6  1  0
  6  7  1  0
  6 32  1  0
  6 33  1  0
  7  8  1  0
  7 34  1  0
  7 35  1  0
  8  9  1  0
  8 36  1  0
  8 37  1  0
  9 10  1  0
 11  9  1  1
 10 38  1  0
 10 39  1  0
 10 40  1  0
 11 12  2  0
 11 13  2  0
 11 14  1  0
 14 15  2  0
 14 20  1  0
 15 16  1  0
 15 41  1  0
 16 17  2  0
 16 42  1  0
 17 18  1  0
 17 19  1  0
 19 20  2  0
 19 43  1  0
 20 44  1  0
 21 22  2  0
 21 26  1  0
 22 23  1  0
 22 45  1  0
 23 24  2  0
 23 46  1  0
 24 25  1  0
 24 47  1  0
 25 26  2  0
 25 48  1  0
M  END

