
     RDKit          3D

 33 34  0  0  0  0  0  0  0  0999 V2000
    4.8876   -2.4881   -0.6696 N   0  0  0  0  0  0  0  0  0  0  0  0
    4.3236   -1.2664   -1.0911 C   0  0  0  0  0  0  0  0  0  0  0  0
    5.0719   -0.2693   -1.7208 C   0  0  0  0  0  0  0  0  0  0  0  0
    4.4690    0.9110   -2.1561 C   0  0  0  0  0  0  0  0  0  0  0  0
    5.2003    1.8603   -2.7587 F   0  0  0  0  0  0  0  0  0  0  0  0
    3.1092    1.1042   -1.9418 C   0  0  0  0  0  0  0  0  0  0  0  0
    2.5267    2.2449   -2.3393 F   0  0  0  0  0  0  0  0  0  0  0  0
    2.3392    0.1183   -1.3242 C   0  0  0  0  0  0  0  0  0  0  0  0
    2.9180   -1.0920   -0.9080 C   0  0  0  0  0  0  0  0  0  0  0  0
    2.2374   -2.1355   -0.2812 N   0  0  0  0  0  0  0  0  0  0  0  0
    0.7806   -2.3114   -0.2244 C   0  0  1  0  0  0  0  0  0  0  0  0
    0.1697   -2.4001   -1.6481 C   0  0  0  0  0  0  0  0  0  0  0  0
    0.7858   -3.3872   -2.4434 O   0  0  0  0  0  0  0  0  0  0  0  0
    0.4912   -3.6344    0.5364 C   0  0  0  0  0  0  0  0  0  0  0  0
   -0.8257   -3.3886    1.2776 C   0  0  0  0  0  0  0  0  0  0  0  0
   -0.6666   -1.9458    1.7765 C   0  0  0  0  0  0  0  0  0  0  0  0
    0.0583   -1.2136    0.6237 C   0  0  0  0  0  0  0  0  0  0  0  0
    5.8872   -2.5502   -0.8399 H   0  0  0  0  0  0  0  0  0  0  0  0
    4.6999   -2.6851    0.3146 H   0  0  0  0  0  0  0  0  0  0  0  0
    6.1477   -0.3878   -1.8699 H   0  0  0  0  0  0  0  0  0  0  0  0
    1.2790    0.3248   -1.1949 H   0  0  0  0  0  0  0  0  0  0  0  0
    2.7245   -3.0184   -0.4216 H   0  0  0  0  0  0  0  0  0  0  0  0
    0.2003   -1.4104   -2.1399 H   0  0  0  0  0  0  0  0  0  0  0  0
   -0.8933   -2.6777   -1.5622 H   0  0  0  0  0  0  0  0  0  0  0  0
    1.6668   -3.0701   -2.6830 H   0  0  0  0  0  0  0  0  0  0  0  0
    1.2980   -3.7966    1.2709 H   0  0  0  0  0  0  0  0  0  0  0  0
    0.4766   -4.4958   -0.1485 H   0  0  0  0  0  0  0  0  0  0  0  0
   -1.0054   -4.1143    2.0861 H   0  0  0  0  0  0  0  0  0  0  0  0
   -1.6805   -3.4646    0.5831 H   0  0  0  0  0  0  0  0  0  0  0  0
   -0.0334   -1.9406    2.6796 H   0  0  0  0  0  0  0  0  0  0  0  0
   -1.6202   -1.4689    2.0519 H   0  0  0  0  0  0  0  0  0  0  0  0
    0.7760   -0.4727    1.0013 H   0  0  0  0  0  0  0  0  0  0  0  0
   -0.6655   -0.6655   -0.0034 H   0  0  0  0  0  0  0  0  0  0  0  0
  1  2  1  0
  1 18  1  0
  1 19  1  0
  2  3  2  0
  2  9  1  0
  3  4  1  0
  3 20  1  0
  4  5  1  0
  4  6  2  0
  6  7  1  0
  6  8  1  0
  8  9  2  0
  8 21  1  0
  9 10  1  0
 11 10  1  6
 10 22  1  0
 11 12  1  0
 11 14  1  0
 11 17  1  0
 12 13  1  0
 12 23  1  0
 12 24  1  0
 13 25  1  0
 14 15  1  0
 14 26  1  0
 14 27  1  0
 15 16  1  0
 15 28  1  0
 15 29  1  0
 16 17  1  0
 16 30  1  0
 16 31  1  0
 17 32  1  0
 17 33  1  0
M  END

