
     RDKit          3D

 44 47  0  0  0  0  0  0  0  0999 V2000
    1.5610   -0.0038    0.8085 C   0  0  0  0  0  0  0  0  0  0  0  0
    2.4718   -0.3503   -0.3526 C   0  0  0  0  0  0  0  0  0  0  0  0
    2.5867   -1.4915   -0.7629 O   0  0  0  0  0  0  0  0  0  0  0  0
    3.1926    0.6866   -0.9439 N   0  0  0  0  0  0  0  0  0  0  0  0
    3.1674    2.0056   -0.4940 C   0  0  0  0  0  0  0  0  0  0  0  0
    3.6888    3.0245   -1.2095 C   0  0  0  0  0  0  0  0  0  0  0  0
    4.2430    2.7922   -2.5362 C   0  0  0  0  0  0  0  0  0  0  0  0
    4.5793    3.8394   -3.4133 C   0  0  0  0  0  0  0  0  0  0  0  0
    5.0512    3.5711   -4.6987 C   0  0  0  0  0  0  0  0  0  0  0  0
    5.1832    2.2478   -5.1327 C   0  0  0  0  0  0  0  0  0  0  0  0
    4.8540    1.1988   -4.2667 C   0  0  0  0  0  0  0  0  0  0  0  0
    4.4004    1.4559   -2.9690 C   0  0  0  0  0  0  0  0  0  0  0  0
    4.1443    0.3089   -2.0056 C   0  0  1  0  0  0  0  0  0  0  0  0
    5.4530   -0.2757   -1.3900 C   0  0  0  0  0  0  0  0  0  0  0  0
    6.1193    0.6245   -0.3554 C   0  0  0  0  0  0  0  0  0  0  0  0
    5.7903    0.5875    0.8197 O   0  0  0  0  0  0  0  0  0  0  0  0
    7.0821    1.4655   -0.8632 N   0  0  0  0  0  0  0  0  0  0  0  0
    7.8455    2.4510   -0.2019 C   0  0  0  0  0  0  0  0  0  0  0  0
    7.7841    2.6643    1.1849 C   0  0  0  0  0  0  0  0  0  0  0  0
    8.5722    3.6588    1.7973 C   0  0  0  0  0  0  0  0  0  0  0  0
    9.4011    4.4172    0.9934 C   0  0  0  0  0  0  0  0  0  0  0  0
    9.4613    4.2055   -0.3856 C   0  0  0  0  0  0  0  0  0  0  0  0
    8.7036    3.2374   -1.0133 C   0  0  0  0  0  0  0  0  0  0  0  0
   10.3724    5.0629   -0.9370 O   0  0  0  0  0  0  0  0  0  0  0  0
   10.7459    5.9593    0.1084 C   0  0  0  0  0  0  0  0  0  0  0  0
   10.2821    5.4120    1.3355 O   0  0  0  0  0  0  0  0  0  0  0  0
    1.0190   -0.9162    1.0835 H   0  0  0  0  0  0  0  0  0  0  0  0
    0.8406    0.7887    0.5551 H   0  0  0  0  0  0  0  0  0  0  0  0
    2.1521    0.3336    1.6751 H   0  0  0  0  0  0  0  0  0  0  0  0
    2.7040    2.1742    0.4762 H   0  0  0  0  0  0  0  0  0  0  0  0
    3.6510    4.0374   -0.8065 H   0  0  0  0  0  0  0  0  0  0  0  0
    4.4583    4.8731   -3.0779 H   0  0  0  0  0  0  0  0  0  0  0  0
    5.3083    4.3960   -5.3680 H   0  0  0  0  0  0  0  0  0  0  0  0
    5.5393    2.0310   -6.1427 H   0  0  0  0  0  0  0  0  0  0  0  0
    4.9556    0.1634   -4.6066 H   0  0  0  0  0  0  0  0  0  0  0  0
    3.6785   -0.5249   -2.5481 H   0  0  0  0  0  0  0  0  0  0  0  0
    6.1381   -0.5202   -2.2173 H   0  0  0  0  0  0  0  0  0  0  0  0
    5.1904   -1.2093   -0.8751 H   0  0  0  0  0  0  0  0  0  0  0  0
    7.2227    1.4188   -1.8653 H   0  0  0  0  0  0  0  0  0  0  0  0
    7.1132    2.0495    1.7788 H   0  0  0  0  0  0  0  0  0  0  0  0
    8.5292    3.8205    2.8755 H   0  0  0  0  0  0  0  0  0  0  0  0
    8.7663    3.0905   -2.0935 H   0  0  0  0  0  0  0  0  0  0  0  0
   10.2732    6.9474   -0.0660 H   0  0  0  0  0  0  0  0  0  0  0  0
   11.8429    6.0603    0.1347 H   0  0  0  0  0  0  0  0  0  0  0  0
  1  2  1  0
  1 27  1  0
  1 28  1  0
  1 29  1  0
  2  3  2  0
  2  4  1  0
  4  5  1  0
  4 13  1  0
  5  6  2  0
  5 30  1  0
  6  7  1  0
  6 31  1  0
  7  8  1  0
  7 12  2  0
  8  9  2  0
  8 32  1  0
  9 10  1  0
  9 33  1  0
 10 11  2  0
 10 34  1  0
 11 12  1  0
 11 35  1  0
 12 13  1  0
 13 14  1  0
 13 36  1  6
 14 15  1  0
 14 37  1  0
 14 38  1  0
 15 16  2  0
 15 17  1  0
 17 18  1  0
 17 39  1  0
 18 19  2  0
 18 23  1  0
 19 20  1  0
 19 40  1  0
 20 21  2  0
 20 41  1  0
 21 22  1  0
 21 26  1  0
 22 23  2  0
 22 24  1  0
 23 42  1  0
 24 25  1  0
 25 26  1  0
 25 43  1  0
 25 44  1  0
M  END

