
     RDKit          3D

 50 54  0  0  0  0  0  0  0  0999 V2000
    0.8587    0.0380    0.6109 C   0  0  0  0  0  0  0  0  0  0  0  0
    2.1840   -0.0857    0.1421 O   0  0  0  0  0  0  0  0  0  0  0  0
    2.5696    0.6072   -0.9545 C   0  0  0  0  0  0  0  0  0  0  0  0
    1.7399    1.4711   -1.6842 C   0  0  0  0  0  0  0  0  0  0  0  0
    2.2499    2.1453   -2.7986 C   0  0  0  0  0  0  0  0  0  0  0  0
    3.5758    1.9674   -3.2196 C   0  0  0  0  0  0  0  0  0  0  0  0
    4.1001    2.7248   -4.3894 C   0  0  0  0  0  0  0  0  0  0  0  0
    4.0353    4.1297   -4.4160 C   0  0  0  0  0  0  0  0  0  0  0  0
    3.4854    4.9190   -3.2398 C   0  0  0  0  0  0  0  0  0  0  0  0
    4.3136    4.9448   -1.9726 C   0  0  0  0  0  0  0  0  0  0  0  0
    2.4662    5.5653   -3.3572 O   0  0  0  0  0  0  0  0  0  0  0  0
    4.4918    4.8602   -5.5519 C   0  0  0  0  0  0  0  0  0  0  0  0
    4.4028    6.3635   -5.6132 C   0  0  0  0  0  0  0  0  0  0  0  0
    5.0259    4.2507   -6.6102 N   0  0  0  0  0  0  0  0  0  0  0  0
    5.0941    2.9293   -6.5881 C   0  0  0  0  0  0  0  0  0  0  0  0
    5.7421    2.0367   -7.9714 S   0  0  0  0  0  0  0  0  0  0  0  0
    5.3974    0.5470   -7.1562 C   0  0  0  0  0  0  0  0  0  0  0  0
    5.6642   -0.7600   -7.7098 C   0  0  0  0  0  0  0  0  0  0  0  0
    6.1710   -0.9999   -8.7876 O   0  0  0  0  0  0  0  0  0  0  0  0
    5.2456   -1.7768   -6.7977 N   0  0  0  0  0  0  0  0  0  0  0  0
    5.4495   -3.1692   -7.1011 C   0  0  0  0  0  0  0  0  0  0  0  0
    5.2008   -3.6699   -8.3858 C   0  0  0  0  0  0  0  0  0  0  0  0
    5.3872   -5.0309   -8.6375 C   0  0  0  0  0  0  0  0  0  0  0  0
    5.8152   -5.8913   -7.6227 C   0  0  0  0  0  0  0  0  0  0  0  0
    6.0591   -5.3838   -6.3430 C   0  0  0  0  0  0  0  0  0  0  0  0
    5.8809   -4.0253   -6.0788 C   0  0  0  0  0  0  0  0  0  0  0  0
    4.6859   -1.5647   -5.5742 N   0  0  0  0  0  0  0  0  0  0  0  0
    4.4874   -0.3928   -5.1369 N   0  0  0  0  0  0  0  0  0  0  0  0
    4.8295    0.6966   -5.8992 C   0  0  0  0  0  0  0  0  0  0  0  0
    4.6520    2.0891   -5.5342 C   0  0  0  0  0  0  0  0  0  0  0  0
    4.3916    1.0842   -2.4837 C   0  0  0  0  0  0  0  0  0  0  0  0
    3.9044    0.4252   -1.3646 C   0  0  0  0  0  0  0  0  0  0  0  0
    0.7791   -0.6070    1.4960 H   0  0  0  0  0  0  0  0  0  0  0  0
    0.1241   -0.2966   -0.1432 H   0  0  0  0  0  0  0  0  0  0  0  0
    0.6217    1.0770    0.9025 H   0  0  0  0  0  0  0  0  0  0  0  0
    0.6996    1.6288   -1.4000 H   0  0  0  0  0  0  0  0  0  0  0  0
    1.5909    2.8138   -3.3566 H   0  0  0  0  0  0  0  0  0  0  0  0
    4.6052    3.9335   -1.6549 H   0  0  0  0  0  0  0  0  0  0  0  0
    3.7522    5.4515   -1.1760 H   0  0  0  0  0  0  0  0  0  0  0  0
    5.2446    5.5039   -2.1723 H   0  0  0  0  0  0  0  0  0  0  0  0
    4.9071    6.8378   -4.7552 H   0  0  0  0  0  0  0  0  0  0  0  0
    3.3527    6.6908   -5.5824 H   0  0  0  0  0  0  0  0  0  0  0  0
    4.8717    6.7137   -6.5411 H   0  0  0  0  0  0  0  0  0  0  0  0
    4.8754   -3.0032   -9.1817 H   0  0  0  0  0  0  0  0  0  0  0  0
    5.1928   -5.4194   -9.6402 H   0  0  0  0  0  0  0  0  0  0  0  0
    5.9603   -6.9545   -7.8289 H   0  0  0  0  0  0  0  0  0  0  0  0
    6.3953   -6.0474   -5.5426 H   0  0  0  0  0  0  0  0  0  0  0  0
    6.0643   -3.6211   -5.0832 H   0  0  0  0  0  0  0  0  0  0  0  0
    5.4269    0.9223   -2.7888 H   0  0  0  0  0  0  0  0  0  0  0  0
    4.5356   -0.2521   -0.7863 H   0  0  0  0  0  0  0  0  0  0  0  0
  1  2  1  0
  1 33  1  0
  1 34  1  0
  1 35  1  0
  2  3  1  0
  3  4  2  0
  3 32  1  0
  4  5  1  0
  4 36  1  0
  5  6  2  0
  5 37  1  0
  6  7  1  0
  6 31  1  0
  7  8  2  0
  7 30  1  0
  8  9  1  0
  8 12  1  0
  9 10  1  0
  9 11  2  0
 10 38  1  0
 10 39  1  0
 10 40  1  0
 12 13  1  0
 12 14  2  0
 13 41  1  0
 13 42  1  0
 13 43  1  0
 14 15  1  0
 15 16  2  0
 15 30  1  0
 16 17  1  0
 17 18  2  0
 17 29  1  0
 18 19  1  0
 18 20  1  0
 20 21  1  0
 20 27  1  0
 21 22  2  0
 21 26  1  0
 22 23  1  0
 22 44  1  0
 23 24  2  0
 23 45  1  0
 24 25  1  0
 24 46  1  0
 25 26  2  0
 25 47  1  0
 26 48  1  0
 27 28  2  0
 28 29  1  0
 29 30  2  0
 31 32  2  0
 31 49  1  0
 32 50  1  0
M  CHG  2  16   1  19  -1
M  END

