
     RDKit          3D

 51 53  0  0  0  0  0  0  0  0999 V2000
    3.3846    2.0443   -0.4737 C   0  0  0  0  0  0  0  0  0  0  0  0
    2.8227    1.0724   -1.1955 C   0  0  0  0  0  0  0  0  0  0  0  0
    3.5323   -0.0040   -1.9813 C   0  0  0  0  0  0  0  0  0  0  0  0
    4.9729   -0.0949   -1.7549 N   0  0  0  0  0  0  0  0  0  0  0  0
    5.3759   -0.7876   -0.5346 C   0  0  0  0  0  0  0  0  0  0  0  0
    5.1220   -2.2759   -0.4789 C   0  0  0  0  0  0  0  0  0  0  0  0
    4.7311   -2.9756    0.6529 C   0  0  0  0  0  0  0  0  0  0  0  0
    4.7647   -4.3648    0.3528 C   0  0  0  0  0  0  0  0  0  0  0  0
    5.1682   -4.4755   -0.9605 C   0  0  0  0  0  0  0  0  0  0  0  0
    5.3928   -3.2120   -1.4713 N   0  0  0  0  0  0  0  0  0  0  0  0
    5.6612   -2.9919   -2.8865 C   0  0  0  0  0  0  0  0  0  0  0  0
    4.4351   -2.8246   -3.7752 C   0  0  0  0  0  0  0  0  0  0  0  0
    4.5149   -2.0071   -4.9117 C   0  0  0  0  0  0  0  0  0  0  0  0
    3.4220   -1.8824   -5.7733 C   0  0  0  0  0  0  0  0  0  0  0  0
    2.2306   -2.5639   -5.5144 C   0  0  0  0  0  0  0  0  0  0  0  0
    2.1536   -3.3698   -4.3753 C   0  0  0  0  0  0  0  0  0  0  0  0
    0.6662   -4.2250   -4.0244 Cl  0  0  0  0  0  0  0  0  0  0  0  0
    3.2401   -3.5068   -3.5076 C   0  0  0  0  0  0  0  0  0  0  0  0
    5.7900    0.6619   -2.5746 C   0  0  0  0  0  0  0  0  0  0  0  0
    5.3080    1.3213   -3.4881 O   0  0  0  0  0  0  0  0  0  0  0  0
    7.2872    0.7301   -2.3544 C   0  0  0  0  0  0  0  0  0  0  0  0
    8.1495   -0.3215   -1.9809 C   0  0  0  0  0  0  0  0  0  0  0  0
    9.5267   -0.1366   -1.9101 C   0  0  0  0  0  0  0  0  0  0  0  0
   10.0947    1.1159   -2.1985 C   0  0  0  0  0  0  0  0  0  0  0  0
   11.4405    1.2034   -2.0887 O   0  0  0  0  0  0  0  0  0  0  0  0
   12.0825    2.4278   -2.3727 C   0  0  0  0  0  0  0  0  0  0  0  0
    9.2536    2.1734   -2.5816 C   0  0  0  0  0  0  0  0  0  0  0  0
    7.8771    1.9656   -2.6691 C   0  0  0  0  0  0  0  0  0  0  0  0
    2.7754    2.7868    0.0484 H   0  0  0  0  0  0  0  0  0  0  0  0
    4.4707    2.1436   -0.3848 H   0  0  0  0  0  0  0  0  0  0  0  0
    1.7283    1.0216   -1.2624 H   0  0  0  0  0  0  0  0  0  0  0  0
    3.3664    0.1689   -3.0547 H   0  0  0  0  0  0  0  0  0  0  0  0
    3.0835   -0.9820   -1.7402 H   0  0  0  0  0  0  0  0  0  0  0  0
    4.8227   -0.3563    0.3168 H   0  0  0  0  0  0  0  0  0  0  0  0
    6.4318   -0.5616   -0.3408 H   0  0  0  0  0  0  0  0  0  0  0  0
    4.4743   -2.5189    1.6079 H   0  0  0  0  0  0  0  0  0  0  0  0
    4.5241   -5.1891    1.0212 H   0  0  0  0  0  0  0  0  0  0  0  0
    5.3064   -5.3531   -1.5892 H   0  0  0  0  0  0  0  0  0  0  0  0
    6.2419   -3.8624   -3.2361 H   0  0  0  0  0  0  0  0  0  0  0  0
    6.3144   -2.1215   -3.0123 H   0  0  0  0  0  0  0  0  0  0  0  0
    5.4290   -1.4444   -5.1166 H   0  0  0  0  0  0  0  0  0  0  0  0
    3.4937   -1.2357   -6.6511 H   0  0  0  0  0  0  0  0  0  0  0  0
    1.3684   -2.4702   -6.1764 H   0  0  0  0  0  0  0  0  0  0  0  0
    3.1438   -4.1383   -2.6230 H   0  0  0  0  0  0  0  0  0  0  0  0
    7.7647   -1.3159   -1.7554 H   0  0  0  0  0  0  0  0  0  0  0  0
   10.1913   -0.9567   -1.6317 H   0  0  0  0  0  0  0  0  0  0  0  0
   13.1564    2.2605   -2.2165 H   0  0  0  0  0  0  0  0  0  0  0  0
   11.7442    3.2347   -1.6983 H   0  0  0  0  0  0  0  0  0  0  0  0
   11.9178    2.7449   -3.4180 H   0  0  0  0  0  0  0  0  0  0  0  0
    9.6591    3.1560   -2.8233 H   0  0  0  0  0  0  0  0  0  0  0  0
    7.2270    2.7767   -3.0010 H   0  0  0  0  0  0  0  0  0  0  0  0
  1  2  2  0
  1 29  1  0
  1 30  1  0
  2  3  1  0
  2 31  1  0
  3  4  1  0
  3 32  1  0
  3 33  1  0
  4  5  1  0
  4 19  1  0
  5  6  1  0
  5 34  1  0
  5 35  1  0
  6  7  2  0
  6 10  1  0
  7  8  1  0
  7 36  1  0
  8  9  2  0
  8 37  1  0
  9 10  1  0
  9 38  1  0
 10 11  1  0
 11 12  1  0
 11 39  1  0
 11 40  1  0
 12 13  2  0
 12 18  1  0
 13 14  1  0
 13 41  1  0
 14 15  2  0
 14 42  1  0
 15 16  1  0
 15 43  1  0
 16 17  1  0
 16 18  2  0
 18 44  1  0
 19 20  2  0
 19 21  1  0
 21 22  2  0
 21 28  1  0
 22 23  1  0
 22 45  1  0
 23 24  2  0
 23 46  1  0
 24 25  1  0
 24 27  1  0
 25 26  1  0
 26 47  1  0
 26 48  1  0
 26 49  1  0
 27 28  2  0
 27 50  1  0
 28 51  1  0
M  END

