
     RDKit          3D

 32 33  0  0  0  0  0  0  0  0999 V2000
    1.8457   -0.8472    1.3167 C   0  0  0  0  0  0  0  0  0  0  0  0
    2.9491   -0.1993    0.5289 C   0  0  0  0  0  0  0  0  0  0  0  0
    4.1324    0.3308    1.1257 C   0  0  0  0  0  0  0  0  0  0  0  0
    5.0056    0.8813    0.2161 C   0  0  0  0  0  0  0  0  0  0  0  0
    6.5476    1.7013    0.5967 S   0  0  1  0  0  0  0  0  0  0  0  0
    6.8736    1.3093    1.9662 O   0  0  0  0  0  0  0  0  0  0  0  0
    7.4293    1.4725   -0.5439 O   0  0  0  0  0  0  0  0  0  0  0  0
    6.2163    3.3197    0.6317 N   0  0  0  0  0  0  0  0  0  0  0  0
    5.5889    3.9526    1.8030 C   0  0  0  0  0  0  0  0  0  0  0  0
    5.0714    5.2878    1.2514 C   0  0  2  0  0  0  0  0  0  0  0  0
    5.1369    6.0986    1.9977 H   0  0  0  0  0  0  0  0  0  0  0  0
    3.7550    5.1855    0.7254 O   0  0  0  0  0  0  0  0  0  0  0  0
    5.9659    5.5582    0.0219 C   0  0  2  0  0  0  0  0  0  0  0  0
    6.9461    5.9283    0.3656 H   0  0  0  0  0  0  0  0  0  0  0  0
    5.4312    6.5019   -0.8515 O   0  0  0  0  0  0  0  0  0  0  0  0
    6.1461    4.1456   -0.5752 C   0  0  0  0  0  0  0  0  0  0  0  0
    4.4163    0.7651   -1.4044 S   0  0  0  0  0  0  0  0  0  0  0  0
    2.9656   -0.0399   -0.8526 C   0  0  0  0  0  0  0  0  0  0  0  0
    1.9035   -0.4873   -1.7909 C   0  0  0  0  0  0  0  0  0  0  0  0
    0.8005   -0.7993   -1.4210 O   0  0  0  0  0  0  0  0  0  0  0  0
    2.2202   -0.5367   -3.1050 O   0  0  0  0  0  0  0  0  0  0  0  0
    2.1538   -0.9995    2.3611 H   0  0  0  0  0  0  0  0  0  0  0  0
    1.5539   -1.8137    0.8816 H   0  0  0  0  0  0  0  0  0  0  0  0
    0.9375   -0.2246    1.3015 H   0  0  0  0  0  0  0  0  0  0  0  0
    4.3527    0.2936    2.1932 H   0  0  0  0  0  0  0  0  0  0  0  0
    6.3263    4.0932    2.6097 H   0  0  0  0  0  0  0  0  0  0  0  0
    4.7556    3.3519    2.2066 H   0  0  0  0  0  0  0  0  0  0  0  0
    3.1131    5.2043    1.4456 H   0  0  0  0  0  0  0  0  0  0  0  0
    4.4724    6.3465   -0.8555 H   0  0  0  0  0  0  0  0  0  0  0  0
    7.0593    4.0450   -1.1752 H   0  0  0  0  0  0  0  0  0  0  0  0
    5.2712    3.9002   -1.2068 H   0  0  0  0  0  0  0  0  0  0  0  0
    3.1680   -0.4060   -3.2561 H   0  0  0  0  0  0  0  0  0  0  0  0
  1  2  1  0
  1 22  1  0
  1 23  1  0
  1 24  1  0
  2  3  2  0
  2 18  1  0
  3  4  1  0
  3 25  1  0
  5  4  1  6
  4 17  2  0
  5  6  2  0
  5  7  2  0
  5  8  1  0
  8  9  1  0
  8 16  1  0
  9 10  1  0
  9 26  1  0
  9 27  1  0
 10 11  1  1
 10 12  1  0
 10 13  1  0
 12 28  1  0
 13 14  1  1
 13 15  1  0
 13 16  1  0
 15 29  1  0
 16 30  1  0
 16 31  1  0
 17 18  1  0
 18 19  2  0
 19 20  1  0
 19 21  1  0
 21 32  1  0
M  CHG  2  17   1  20  -1
M  END

