
     RDKit          3D

 55 57  0  0  0  0  0  0  0  0999 V2000
    3.2679    3.9016   -3.8809 C   0  0  0  0  0  0  0  0  0  0  0  0
    2.8663    3.3016   -2.6577 O   0  0  0  0  0  0  0  0  0  0  0  0
    3.2057    2.0248   -2.4271 C   0  0  0  0  0  0  0  0  0  0  0  0
    2.8047    1.4575   -1.2123 C   0  0  0  0  0  0  0  0  0  0  0  0
    3.1956    0.1262   -1.0318 C   0  0  0  0  0  0  0  0  0  0  0  0
    2.8461   -0.4730    0.1163 O   0  0  0  0  0  0  0  0  0  0  0  0
    3.2360   -1.8226    0.3248 C   0  0  0  0  0  0  0  0  0  0  0  0
    3.8905   -0.5596   -1.9349 N   0  0  0  0  0  0  0  0  0  0  0  0
    4.2158    0.0853   -3.0693 C   0  0  0  0  0  0  0  0  0  0  0  0
    4.9147   -0.6168   -4.0197 N   0  0  0  0  0  0  0  0  0  0  0  0
    5.3975   -1.9712   -3.7859 C   0  0  0  0  0  0  0  0  0  0  0  0
    5.1321   -2.8421   -5.0220 C   0  0  0  0  0  0  0  0  0  0  0  0
    5.6481   -2.2699   -6.2657 N   0  0  0  0  0  0  0  0  0  0  0  0
    7.0785   -2.4194   -6.4998 C   0  0  0  0  0  0  0  0  0  0  0  0
    7.4623   -2.5666   -7.9830 C   0  0  0  0  0  0  0  0  0  0  0  0
    8.6121   -2.3882   -8.3525 O   0  0  0  0  0  0  0  0  0  0  0  0
    6.4375   -2.9387   -8.7922 N   0  0  0  0  0  0  0  0  0  0  0  0
    6.6028   -3.1907  -10.2195 C   0  0  1  0  0  0  0  0  0  0  0  0
    6.8705   -4.6816  -10.5179 C   0  0  0  0  0  0  0  0  0  0  0  0
    5.6330   -5.5554  -10.2770 C   0  0  0  0  0  0  0  0  0  0  0  0
    4.4237   -5.0486  -11.0758 C   0  0  0  0  0  0  0  0  0  0  0  0
    4.1347   -3.5693  -10.7839 C   0  0  0  0  0  0  0  0  0  0  0  0
    5.3781   -2.6948  -11.0086 C   0  0  0  0  0  0  0  0  0  0  0  0
    5.1457   -0.9039   -6.4461 C   0  0  0  0  0  0  0  0  0  0  0  0
    5.4094    0.0085   -5.2397 C   0  0  0  0  0  0  0  0  0  0  0  0
    3.9004    1.3625   -3.3477 N   0  0  0  0  0  0  0  0  0  0  0  0
    2.8944    4.9335   -3.8456 H   0  0  0  0  0  0  0  0  0  0  0  0
    2.8358    3.3766   -4.7474 H   0  0  0  0  0  0  0  0  0  0  0  0
    4.3639    3.9025   -3.9879 H   0  0  0  0  0  0  0  0  0  0  0  0
    2.2398    2.0098   -0.4649 H   0  0  0  0  0  0  0  0  0  0  0  0
    2.8546   -2.0950    1.3178 H   0  0  0  0  0  0  0  0  0  0  0  0
    4.3314   -1.9335    0.3000 H   0  0  0  0  0  0  0  0  0  0  0  0
    2.8031   -2.4888   -0.4381 H   0  0  0  0  0  0  0  0  0  0  0  0
    4.8881   -2.3760   -2.9040 H   0  0  0  0  0  0  0  0  0  0  0  0
    6.4842   -1.9499   -3.5643 H   0  0  0  0  0  0  0  0  0  0  0  0
    4.0400   -2.9681   -5.1308 H   0  0  0  0  0  0  0  0  0  0  0  0
    5.5656   -3.8443   -4.8764 H   0  0  0  0  0  0  0  0  0  0  0  0
    7.4294   -3.3396   -6.0035 H   0  0  0  0  0  0  0  0  0  0  0  0
    7.7091   -1.6018   -6.1015 H   0  0  0  0  0  0  0  0  0  0  0  0
    5.5434   -3.0668   -8.3243 H   0  0  0  0  0  0  0  0  0  0  0  0
    7.4934   -2.6152  -10.5136 H   0  0  0  0  0  0  0  0  0  0  0  0
    7.7240   -5.0228   -9.9107 H   0  0  0  0  0  0  0  0  0  0  0  0
    7.1805   -4.7697  -11.5749 H   0  0  0  0  0  0  0  0  0  0  0  0
    5.3875   -5.5523   -9.1989 H   0  0  0  0  0  0  0  0  0  0  0  0
    5.8523   -6.6046  -10.5363 H   0  0  0  0  0  0  0  0  0  0  0  0
    3.5330   -5.6626  -10.8601 H   0  0  0  0  0  0  0  0  0  0  0  0
    4.6287   -5.1686  -12.1560 H   0  0  0  0  0  0  0  0  0  0  0  0
    3.7849   -3.4651   -9.7392 H   0  0  0  0  0  0  0  0  0  0  0  0
    3.3035   -3.2075  -11.4120 H   0  0  0  0  0  0  0  0  0  0  0  0
    5.1706   -1.6433  -10.7494 H   0  0  0  0  0  0  0  0  0  0  0  0
    5.6368   -2.7104  -12.0819 H   0  0  0  0  0  0  0  0  0  0  0  0
    4.0553   -0.9566   -6.6141 H   0  0  0  0  0  0  0  0  0  0  0  0
    5.5957   -0.4697   -7.3525 H   0  0  0  0  0  0  0  0  0  0  0  0
    4.9077    0.9745   -5.3654 H   0  0  0  0  0  0  0  0  0  0  0  0
    6.4953    0.2094   -5.1429 H   0  0  0  0  0  0  0  0  0  0  0  0
  1  2  1  0
  1 27  1  0
  1 28  1  0
  1 29  1  0
  2  3  1  0
  3  4  2  0
  3 26  1  0
  4  5  1  0
  4 30  1  0
  5  6  1  0
  5  8  2  0
  6  7  1  0
  7 31  1  0
  7 32  1  0
  7 33  1  0
  8  9  1  0
  9 10  1  0
  9 26  2  0
 10 11  1  0
 10 25  1  0
 11 12  1  0
 11 34  1  0
 11 35  1  0
 12 13  1  0
 12 36  1  0
 12 37  1  0
 13 14  1  0
 13 24  1  0
 14 15  1  0
 14 38  1  0
 14 39  1  0
 15 16  2  0
 15 17  1  0
 17 18  1  0
 17 40  1  0
 18 19  1  0
 18 23  1  0
 18 41  1  6
 19 20  1  0
 19 42  1  0
 19 43  1  0
 20 21  1  0
 20 44  1  0
 20 45  1  0
 21 22  1  0
 21 46  1  0
 21 47  1  0
 22 23  1  0
 22 48  1  0
 22 49  1  0
 23 50  1  0
 23 51  1  0
 24 25  1  0
 24 52  1  0
 24 53  1  0
 25 54  1  0
 25 55  1  0
M  END

