
     RDKit          3D

 50 54  0  0  0  0  0  0  0  0999 V2000
   10.9844    8.4372   -1.8915 O   0  0  0  0  0  0  0  0  0  0  0  0
   10.4040    7.4011   -1.6699 C   0  0  0  0  0  0  0  0  0  0  0  0
    9.6706    7.0561   -0.5281 N   0  0  0  0  0  0  0  0  0  0  0  0
    9.5620    7.6992    0.2453 H   0  0  0  0  0  0  0  0  0  0  0  0
    9.1433    5.7819   -0.6300 C   0  0  0  0  0  0  0  0  0  0  0  0
    8.3517    5.0240    0.2266 C   0  0  0  0  0  0  0  0  0  0  0  0
    7.9751    3.7386   -0.1902 C   0  0  0  0  0  0  0  0  0  0  0  0
    8.3975    3.2491   -1.4292 C   0  0  0  0  0  0  0  0  0  0  0  0
    7.8778    1.6120   -1.9466 S   0  0  1  0  0  0  0  0  0  0  0  0
    6.9126    1.1348   -0.9459 O   0  0  0  0  0  0  0  0  0  0  0  0
    7.5164    1.6758   -3.3670 O   0  0  0  0  0  0  0  0  0  0  0  0
    9.3072    0.7152   -1.8629 N   0  0  0  0  0  0  0  0  0  0  0  0
    9.6859    0.1900   -0.5416 C   0  0  0  0  0  0  0  0  0  0  0  0
    9.1681   -1.2444   -0.3434 C   0  0  0  0  0  0  0  0  0  0  0  0
    9.5596   -2.1614   -1.4156 N   0  0  0  0  0  0  0  0  0  0  0  0
   10.9416   -2.6416   -1.3786 C   0  0  2  0  0  0  0  0  0  0  0  0
   11.2218   -3.7952   -2.4036 C   0  0  0  0  0  0  0  0  0  0  0  0
   11.8828   -4.8982   -1.5457 C   0  0  2  0  0  0  0  0  0  0  0  0
   10.7866   -5.5672   -0.6891 C   0  0  0  0  0  0  0  0  0  0  0  0
   10.3980   -4.4434    0.3220 C   0  0  0  0  0  0  0  0  0  0  0  0
   11.3716   -3.2956   -0.0357 C   0  0  1  0  0  0  0  0  0  0  0  0
   12.6299   -4.0657   -0.4850 C   0  0  0  0  0  0  0  0  0  0  0  0
    9.1235   -1.6190   -2.7038 C   0  0  0  0  0  0  0  0  0  0  0  0
    9.6280   -0.1922   -2.9760 C   0  0  0  0  0  0  0  0  0  0  0  0
    9.1863    4.0070   -2.3122 C   0  0  0  0  0  0  0  0  0  0  0  0
    9.5557    5.2752   -1.8920 C   0  0  0  0  0  0  0  0  0  0  0  0
   10.3098    6.2742   -2.4890 N   0  0  0  0  0  0  0  0  0  0  0  0
   10.7479    6.2426   -3.4003 H   0  0  0  0  0  0  0  0  0  0  0  0
    8.0242    5.4159    1.1916 H   0  0  0  0  0  0  0  0  0  0  0  0
    7.3389    3.1125    0.4364 H   0  0  0  0  0  0  0  0  0  0  0  0
    9.2921    0.8533    0.2419 H   0  0  0  0  0  0  0  0  0  0  0  0
   10.7874    0.2289   -0.4731 H   0  0  0  0  0  0  0  0  0  0  0  0
    8.0665   -1.1992   -0.3149 H   0  0  0  0  0  0  0  0  0  0  0  0
    9.5035   -1.6340    0.6285 H   0  0  0  0  0  0  0  0  0  0  0  0
   11.6680   -1.8227   -1.5751 H   0  0  0  0  0  0  0  0  0  0  0  0
   11.8889   -3.4602   -3.2135 H   0  0  0  0  0  0  0  0  0  0  0  0
   10.2906   -4.1557   -2.8654 H   0  0  0  0  0  0  0  0  0  0  0  0
   12.4898   -5.6079   -2.1275 H   0  0  0  0  0  0  0  0  0  0  0  0
   11.1868   -6.4530   -0.1700 H   0  0  0  0  0  0  0  0  0  0  0  0
    9.9337   -5.9039   -1.2989 H   0  0  0  0  0  0  0  0  0  0  0  0
   10.5482   -4.7675    1.3636 H   0  0  0  0  0  0  0  0  0  0  0  0
    9.3498   -4.1325    0.2135 H   0  0  0  0  0  0  0  0  0  0  0  0
   11.5326   -2.5729    0.7777 H   0  0  0  0  0  0  0  0  0  0  0  0
   13.0738   -4.6742    0.3194 H   0  0  0  0  0  0  0  0  0  0  0  0
   13.4139   -3.4149   -0.9059 H   0  0  0  0  0  0  0  0  0  0  0  0
    8.0190   -1.6018   -2.7153 H   0  0  0  0  0  0  0  0  0  0  0  0
    9.4430   -2.2844   -3.5195 H   0  0  0  0  0  0  0  0  0  0  0  0
    9.1836    0.2087   -3.8960 H   0  0  0  0  0  0  0  0  0  0  0  0
   10.7254   -0.1805   -3.1006 H   0  0  0  0  0  0  0  0  0  0  0  0
    9.4781    3.6082   -3.2845 H   0  0  0  0  0  0  0  0  0  0  0  0
  1  2  2  0
  2  3  1  0
  2 27  1  0
  3  4  1  0
  3  5  1  0
  5  6  2  0
  5 26  1  0
  6  7  1  0
  6 29  1  0
  7  8  2  0
  7 30  1  0
  9  8  1  1
  8 25  1  0
  9 10  2  0
  9 11  2  0
  9 12  1  0
 12 13  1  0
 12 24  1  0
 13 14  1  0
 13 31  1  0
 13 32  1  0
 14 15  1  0
 14 33  1  0
 14 34  1  0
 15 16  1  0
 15 23  1  0
 16 17  1  0
 16 21  1  0
 16 35  1  6
 17 18  1  0
 17 36  1  0
 17 37  1  0
 18 19  1  0
 18 22  1  0
 18 38  1  6
 19 20  1  0
 19 39  1  0
 19 40  1  0
 20 21  1  0
 20 41  1  0
 20 42  1  0
 21 22  1  0
 21 43  1  1
 22 44  1  0
 22 45  1  0
 23 24  1  0
 23 46  1  0
 23 47  1  0
 24 48  1  0
 24 49  1  0
 25 26  2  0
 25 50  1  0
 26 27  1  0
 27 28  1  0
M  END

