
     RDKit          3D

 40 41  0  0  0  0  0  0  0  0999 V2000
    1.0614    0.0940    0.4057 C   0  0  0  0  0  0  0  0  0  0  0  0
    2.5519    0.0713    0.0358 C   0  0  1  0  0  0  0  0  0  0  0  0
    3.0377   -1.3262   -0.4027 C   0  0  0  0  0  0  0  0  0  0  0  0
    2.5723   -1.7096   -1.8114 C   0  0  0  0  0  0  0  0  0  0  0  0
    2.9624   -0.6797   -2.7761 N   0  0  0  0  0  0  0  0  0  0  0  0
    3.4204   -1.0851   -4.0110 C   0  0  0  0  0  0  0  0  0  0  0  0
    3.4246   -2.2608   -4.3496 O   0  0  0  0  0  0  0  0  0  0  0  0
    3.9781   -0.0466   -4.9532 C   0  0  0  0  0  0  0  0  0  0  0  0
    4.8425    0.9849   -4.5575 C   0  0  0  0  0  0  0  0  0  0  0  0
    5.4312    1.8352   -5.4923 C   0  0  0  0  0  0  0  0  0  0  0  0
    5.1515    1.6962   -6.8642 C   0  0  0  0  0  0  0  0  0  0  0  0
    5.7187    2.5216   -7.8427 N   0  0  0  0  0  0  0  0  0  0  0  0
    6.1768    4.1410   -7.6839 S   0  0  1  0  0  0  0  0  0  0  0  0
    4.6395    5.0251   -7.3653 C   0  0  0  0  0  0  0  0  0  0  0  0
    7.0116    4.2809   -6.4939 O   0  0  0  0  0  0  0  0  0  0  0  0
    6.6506    4.5089   -9.0130 O   0  0  0  0  0  0  0  0  0  0  0  0
    4.2883    0.6464   -7.2545 C   0  0  0  0  0  0  0  0  0  0  0  0
    3.9284    0.4232   -8.9596 Cl  0  0  0  0  0  0  0  0  0  0  0  0
    3.7324   -0.2220   -6.3222 C   0  0  0  0  0  0  0  0  0  0  0  0
    2.4480    0.6512   -2.4534 C   0  0  0  0  0  0  0  0  0  0  0  0
    2.9085    1.0968   -1.0615 C   0  0  0  0  0  0  0  0  0  0  0  0
    0.8493   -0.6175    1.2201 H   0  0  0  0  0  0  0  0  0  0  0  0
    0.4079   -0.1746   -0.4396 H   0  0  0  0  0  0  0  0  0  0  0  0
    0.7562    1.0954    0.7506 H   0  0  0  0  0  0  0  0  0  0  0  0
    3.1127    0.3498    0.9450 H   0  0  0  0  0  0  0  0  0  0  0  0
    2.6959   -2.0926    0.3133 H   0  0  0  0  0  0  0  0  0  0  0  0
    4.1410   -1.3459   -0.3873 H   0  0  0  0  0  0  0  0  0  0  0  0
    1.4735   -1.8452   -1.8385 H   0  0  0  0  0  0  0  0  0  0  0  0
    3.0138   -2.6586   -2.1384 H   0  0  0  0  0  0  0  0  0  0  0  0
    5.1006    1.1069   -3.5036 H   0  0  0  0  0  0  0  0  0  0  0  0
    6.1349    2.6050   -5.1767 H   0  0  0  0  0  0  0  0  0  0  0  0
    5.5187    2.2785   -8.8114 H   0  0  0  0  0  0  0  0  0  0  0  0
    4.1774    4.6267   -6.4525 H   0  0  0  0  0  0  0  0  0  0  0  0
    3.9812    4.9110   -8.2359 H   0  0  0  0  0  0  0  0  0  0  0  0
    4.9191    6.0781   -7.2243 H   0  0  0  0  0  0  0  0  0  0  0  0
    3.1047   -1.0496   -6.6545 H   0  0  0  0  0  0  0  0  0  0  0  0
    1.3409    0.6221   -2.4905 H   0  0  0  0  0  0  0  0  0  0  0  0
    2.7636    1.3703   -3.2172 H   0  0  0  0  0  0  0  0  0  0  0  0
    2.4644    2.0795   -0.8285 H   0  0  0  0  0  0  0  0  0  0  0  0
    4.0033    1.2373   -1.0828 H   0  0  0  0  0  0  0  0  0  0  0  0
  1  2  1  0
  1 22  1  0
  1 23  1  0
  1 24  1  0
  2  3  1  0
  2 21  1  0
  2 25  1  1
  3  4  1  0
  3 26  1  0
  3 27  1  0
  4  5  1  0
  4 28  1  0
  4 29  1  0
  5  6  1  0
  5 20  1  0
  6  7  2  0
  6  8  1  0
  8  9  2  0
  8 19  1  0
  9 10  1  0
  9 30  1  0
 10 11  2  0
 10 31  1  0
 11 12  1  0
 11 17  1  0
 13 12  1  6
 12 32  1  0
 13 14  1  0
 13 15  2  0
 13 16  2  0
 14 33  1  0
 14 34  1  0
 14 35  1  0
 17 18  1  0
 17 19  2  0
 19 36  1  0
 20 21  1  0
 20 37  1  0
 20 38  1  0
 21 39  1  0
 21 40  1  0
M  END

