
     RDKit          3D

 40 40  0  0  0  0  0  0  0  0999 V2000
    3.8536    0.8884   -1.1345 C   0  0  0  0  0  0  0  0  0  0  0  0
    3.0572   -0.2678   -1.0129 O   0  0  0  0  0  0  0  0  0  0  0  0
    3.4261   -1.2363   -0.1327 C   0  0  0  0  0  0  0  0  0  0  0  0
    4.5913   -1.1856    0.6356 C   0  0  0  0  0  0  0  0  0  0  0  0
    4.9219   -2.2462    1.5142 C   0  0  0  0  0  0  0  0  0  0  0  0
    6.1056   -2.1932    2.2685 N   0  0  0  0  0  0  0  0  0  0  0  0
    6.5923   -3.4139    2.8769 C   0  0  0  0  0  0  0  0  0  0  0  0
    6.5404   -0.9197    2.8726 C   0  0  1  0  0  0  0  0  0  0  0  0
    6.4570   -0.9209    4.4059 C   0  0  0  0  0  0  0  0  0  0  0  0
    7.9328   -0.5073    2.3717 C   0  0  0  0  0  0  0  0  0  0  0  0
    7.9272   -0.3577    0.9225 N   0  0  0  0  0  0  0  0  0  0  0  0
    4.0596   -3.3538    1.5796 C   0  0  0  0  0  0  0  0  0  0  0  0
    2.9011   -3.4091    0.7905 C   0  0  0  0  0  0  0  0  0  0  0  0
    2.1351   -4.5405    0.8669 O   0  0  0  0  0  0  0  0  0  0  0  0
    0.8068   -4.3945    1.3483 C   0  0  0  0  0  0  0  0  0  0  0  0
    2.5596   -2.3530   -0.0647 C   0  0  0  0  0  0  0  0  0  0  0  0
    1.4120   -2.3991   -0.8156 O   0  0  0  0  0  0  0  0  0  0  0  0
    1.5879   -2.7748   -2.1728 C   0  0  0  0  0  0  0  0  0  0  0  0
    3.3579    1.5329   -1.8734 H   0  0  0  0  0  0  0  0  0  0  0  0
    4.8740    0.6549   -1.4884 H   0  0  0  0  0  0  0  0  0  0  0  0
    3.9323    1.4343   -0.1772 H   0  0  0  0  0  0  0  0  0  0  0  0
    5.2938   -0.3633    0.5144 H   0  0  0  0  0  0  0  0  0  0  0  0
    6.0106   -3.7454    3.7610 H   0  0  0  0  0  0  0  0  0  0  0  0
    7.6357   -3.2783    3.1990 H   0  0  0  0  0  0  0  0  0  0  0  0
    6.5780   -4.2343    2.1434 H   0  0  0  0  0  0  0  0  0  0  0  0
    5.8405   -0.1553    2.5104 H   0  0  0  0  0  0  0  0  0  0  0  0
    7.1913   -1.5998    4.8675 H   0  0  0  0  0  0  0  0  0  0  0  0
    5.4535   -1.2236    4.7426 H   0  0  0  0  0  0  0  0  0  0  0  0
    6.6534    0.0901    4.7967 H   0  0  0  0  0  0  0  0  0  0  0  0
    8.6857   -1.2330    2.7548 H   0  0  0  0  0  0  0  0  0  0  0  0
    8.1888    0.4647    2.8279 H   0  0  0  0  0  0  0  0  0  0  0  0
    7.6990   -1.2574    0.4961 H   0  0  0  0  0  0  0  0  0  0  0  0
    8.8510   -0.0957    0.5802 H   0  0  0  0  0  0  0  0  0  0  0  0
    4.2441   -4.1963    2.2436 H   0  0  0  0  0  0  0  0  0  0  0  0
    0.3645   -5.4013    1.3600 H   0  0  0  0  0  0  0  0  0  0  0  0
    0.2066   -3.7378    0.7000 H   0  0  0  0  0  0  0  0  0  0  0  0
    0.8005   -3.9921    2.3782 H   0  0  0  0  0  0  0  0  0  0  0  0
    0.5896   -2.7918   -2.6342 H   0  0  0  0  0  0  0  0  0  0  0  0
    2.0396   -3.7796   -2.2562 H   0  0  0  0  0  0  0  0  0  0  0  0
    2.2180   -2.0474   -2.7122 H   0  0  0  0  0  0  0  0  0  0  0  0
  1  2  1  0
  1 19  1  0
  1 20  1  0
  1 21  1  0
  2  3  1  0
  3  4  2  0
  3 16  1  0
  4  5  1  0
  4 22  1  0
  5  6  1  0
  5 12  2  0
  6  7  1  0
  6  8  1  0
  7 23  1  0
  7 24  1  0
  7 25  1  0
  8  9  1  0
  8 10  1  0
  8 26  1  6
  9 27  1  0
  9 28  1  0
  9 29  1  0
 10 11  1  0
 10 30  1  0
 10 31  1  0
 11 32  1  0
 11 33  1  0
 12 13  1  0
 12 34  1  0
 13 14  1  0
 13 16  2  0
 14 15  1  0
 15 35  1  0
 15 36  1  0
 15 37  1  0
 16 17  1  0
 17 18  1  0
 18 38  1  0
 18 39  1  0
 18 40  1  0
M  END

