
     RDKit          3D

 37 39  0  0  0  0  0  0  0  0999 V2000
    1.0956   -0.4498   -0.7799 C   0  0  0  0  0  0  0  0  0  0  0  0
    2.4061   -0.2040   -0.2164 N   0  0  0  0  0  0  0  0  0  0  0  0
    3.0960    0.9740   -0.2620 C   0  0  0  0  0  0  0  0  0  0  0  0
    4.3272    0.8456    0.3723 C   0  0  0  0  0  0  0  0  0  0  0  0
    5.4047    1.8336    0.4924 C   0  0  0  0  0  0  0  0  0  0  0  0
    6.5333    1.5059    0.8370 O   0  0  0  0  0  0  0  0  0  0  0  0
    5.1438    3.2874    0.1633 C   0  0  0  0  0  0  0  0  0  0  0  0
    6.2011    4.0221   -0.4022 C   0  0  0  0  0  0  0  0  0  0  0  0
    6.0514    5.3761   -0.6948 C   0  0  0  0  0  0  0  0  0  0  0  0
    4.8345    6.0014   -0.4028 C   0  0  0  0  0  0  0  0  0  0  0  0
    4.6337    7.7595   -0.7613 S   0  0  1  0  0  0  0  0  0  0  0  0
    4.0255    7.7966   -2.4639 C   0  0  0  0  0  0  0  0  0  0  0  0
    3.5545    8.2729    0.0939 O   0  0  0  0  0  0  0  0  0  0  0  0
    5.9672    8.3754   -0.7658 O   0  0  0  0  0  0  0  0  0  0  0  0
    3.7860    5.3073    0.2031 C   0  0  0  0  0  0  0  0  0  0  0  0
    3.9437    3.9462    0.4789 C   0  0  0  0  0  0  0  0  0  0  0  0
    4.3961   -0.5287    0.8330 C   0  0  0  0  0  0  0  0  0  0  0  0
    5.3632   -1.2823    1.5223 C   0  0  0  0  0  0  0  0  0  0  0  0
    5.0815   -2.6133    1.8208 C   0  0  0  0  0  0  0  0  0  0  0  0
    3.8591   -3.2083    1.4443 C   0  0  0  0  0  0  0  0  0  0  0  0
    2.8865   -2.4855    0.7563 C   0  0  0  0  0  0  0  0  0  0  0  0
    3.1748   -1.1474    0.4576 C   0  0  0  0  0  0  0  0  0  0  0  0
    0.7331    0.4623   -1.2719 H   0  0  0  0  0  0  0  0  0  0  0  0
    0.3757   -0.7346    0.0049 H   0  0  0  0  0  0  0  0  0  0  0  0
    1.1345   -1.2595   -1.5266 H   0  0  0  0  0  0  0  0  0  0  0  0
    2.6717    1.8326   -0.7782 H   0  0  0  0  0  0  0  0  0  0  0  0
    7.1465    3.5102   -0.5919 H   0  0  0  0  0  0  0  0  0  0  0  0
    6.8708    5.9580   -1.1217 H   0  0  0  0  0  0  0  0  0  0  0  0
    3.0607    7.2762   -2.5165 H   0  0  0  0  0  0  0  0  0  0  0  0
    4.7714    7.3403   -3.1272 H   0  0  0  0  0  0  0  0  0  0  0  0
    3.9028    8.8640   -2.6967 H   0  0  0  0  0  0  0  0  0  0  0  0
    2.8725    5.8399    0.4752 H   0  0  0  0  0  0  0  0  0  0  0  0
    3.1406    3.4057    0.9827 H   0  0  0  0  0  0  0  0  0  0  0  0
    6.3097   -0.8189    1.8005 H   0  0  0  0  0  0  0  0  0  0  0  0
    5.8226   -3.2128    2.3553 H   0  0  0  0  0  0  0  0  0  0  0  0
    3.6714   -4.2555    1.6945 H   0  0  0  0  0  0  0  0  0  0  0  0
    1.9417   -2.9492    0.4647 H   0  0  0  0  0  0  0  0  0  0  0  0
  1  2  1  0
  1 23  1  0
  1 24  1  0
  1 25  1  0
  2  3  1  0
  2 22  1  0
  3  4  2  0
  3 26  1  0
  4  5  1  0
  4 17  1  0
  5  6  2  0
  5  7  1  0
  7  8  2  0
  7 16  1  0
  8  9  1  0
  8 27  1  0
  9 10  2  0
  9 28  1  0
 10 11  1  0
 10 15  1  0
 11 12  1  6
 11 13  2  0
 11 14  2  0
 12 29  1  0
 12 30  1  0
 12 31  1  0
 15 16  2  0
 15 32  1  0
 16 33  1  0
 17 18  1  0
 17 22  2  0
 18 19  2  0
 18 34  1  0
 19 20  1  0
 19 35  1  0
 20 21  2  0
 20 36  1  0
 21 22  1  0
 21 37  1  0
M  END

