
     RDKit          3D

 49 51  0  0  0  0  0  0  0  0999 V2000
    2.1500   -0.0920    1.4356 O   0  0  0  0  0  0  0  0  0  0  0  0
    2.9693   -0.1200    0.5297 C   0  0  0  0  0  0  0  0  0  0  0  0
    3.1710   -1.3818   -0.3116 C   0  0  0  0  0  0  0  0  0  0  0  0
    2.2639   -2.5334    0.1461 C   0  0  0  0  0  0  0  0  0  0  0  0
    2.4496   -3.7866   -0.6811 C   0  0  0  0  0  0  0  0  0  0  0  0
    3.4086   -4.7509   -0.3293 C   0  0  0  0  0  0  0  0  0  0  0  0
    3.6107   -5.8956   -1.1044 C   0  0  0  0  0  0  0  0  0  0  0  0
    2.8395   -6.0760   -2.2500 C   0  0  0  0  0  0  0  0  0  0  0  0
    3.0244   -7.1739   -3.0000 F   0  0  0  0  0  0  0  0  0  0  0  0
    1.8762   -5.1450   -2.6307 C   0  0  0  0  0  0  0  0  0  0  0  0
    1.6898   -4.0072   -1.8418 C   0  0  0  0  0  0  0  0  0  0  0  0
    3.7452    0.9777    0.2240 N   0  0  0  0  0  0  0  0  0  0  0  0
    4.7606    1.0616   -0.8178 C   0  0  0  0  0  0  0  0  0  0  0  0
    4.5089    2.2764   -1.7177 C   0  0  0  0  0  0  0  0  0  0  0  0
    4.3727    3.4940   -0.9251 N   0  0  0  0  0  0  0  0  0  0  0  0
    5.1822    4.5702   -1.2067 C   0  0  0  0  0  0  0  0  0  0  0  0
    6.0422    4.5207   -2.0747 O   0  0  0  0  0  0  0  0  0  0  0  0
    5.0132    5.8474   -0.3767 C   0  0  0  0  0  0  0  0  0  0  0  0
    5.8095    5.8160    0.9171 C   0  0  0  0  0  0  0  0  0  0  0  0
    7.1716    5.4697    0.9041 C   0  0  0  0  0  0  0  0  0  0  0  0
    7.9217    5.4513    2.0802 C   0  0  0  0  0  0  0  0  0  0  0  0
    7.3090    5.7836    3.2932 C   0  0  0  0  0  0  0  0  0  0  0  0
    8.2438    5.7622    4.7713 Cl  0  0  0  0  0  0  0  0  0  0  0  0
    5.9580    6.1336    3.3330 C   0  0  0  0  0  0  0  0  0  0  0  0
    5.2198    6.1463    2.1457 C   0  0  0  0  0  0  0  0  0  0  0  0
    3.3633    3.4086    0.1245 C   0  0  0  0  0  0  0  0  0  0  0  0
    3.6158    2.1915    1.0211 C   0  0  0  0  0  0  0  0  0  0  0  0
    4.2289   -1.6933   -0.2621 H   0  0  0  0  0  0  0  0  0  0  0  0
    2.9778   -1.1529   -1.3741 H   0  0  0  0  0  0  0  0  0  0  0  0
    1.2169   -2.1973    0.1026 H   0  0  0  0  0  0  0  0  0  0  0  0
    2.4656   -2.7418    1.2077 H   0  0  0  0  0  0  0  0  0  0  0  0
    4.0066   -4.6098    0.5758 H   0  0  0  0  0  0  0  0  0  0  0  0
    4.3507   -6.6507   -0.8316 H   0  0  0  0  0  0  0  0  0  0  0  0
    1.2838   -5.3236   -3.5303 H   0  0  0  0  0  0  0  0  0  0  0  0
    0.9281   -3.2779   -2.1328 H   0  0  0  0  0  0  0  0  0  0  0  0
    4.7645    0.1517   -1.4285 H   0  0  0  0  0  0  0  0  0  0  0  0
    5.7614    1.1562   -0.3542 H   0  0  0  0  0  0  0  0  0  0  0  0
    3.5799    2.1120   -2.2961 H   0  0  0  0  0  0  0  0  0  0  0  0
    5.3385    2.4261   -2.4194 H   0  0  0  0  0  0  0  0  0  0  0  0
    3.9581    6.0751   -0.1691 H   0  0  0  0  0  0  0  0  0  0  0  0
    5.3982    6.6475   -1.0267 H   0  0  0  0  0  0  0  0  0  0  0  0
    7.6472    5.2124   -0.0458 H   0  0  0  0  0  0  0  0  0  0  0  0
    8.9795    5.1833    2.0629 H   0  0  0  0  0  0  0  0  0  0  0  0
    5.4909    6.3942    4.2842 H   0  0  0  0  0  0  0  0  0  0  0  0
    4.1638    6.4297    2.1833 H   0  0  0  0  0  0  0  0  0  0  0  0
    2.3599    3.3205   -0.3343 H   0  0  0  0  0  0  0  0  0  0  0  0
    3.3734    4.3141    0.7402 H   0  0  0  0  0  0  0  0  0  0  0  0
    2.7877    2.0433    1.7251 H   0  0  0  0  0  0  0  0  0  0  0  0
    4.5445    2.3567    1.5991 H   0  0  0  0  0  0  0  0  0  0  0  0
  1  2  2  0
  2  3  1  0
  2 12  1  0
  3  4  1  0
  3 28  1  0
  3 29  1  0
  4  5  1  0
  4 30  1  0
  4 31  1  0
  5  6  2  0
  5 11  1  0
  6  7  1  0
  6 32  1  0
  7  8  2  0
  7 33  1  0
  8  9  1  0
  8 10  1  0
 10 11  2  0
 10 34  1  0
 11 35  1  0
 12 13  1  0
 12 27  1  0
 13 14  1  0
 13 36  1  0
 13 37  1  0
 14 15  1  0
 14 38  1  0
 14 39  1  0
 15 16  1  0
 15 26  1  0
 16 17  2  0
 16 18  1  0
 18 19  1  0
 18 40  1  0
 18 41  1  0
 19 20  2  0
 19 25  1  0
 20 21  1  0
 20 42  1  0
 21 22  2  0
 21 43  1  0
 22 23  1  0
 22 24  1  0
 24 25  2  0
 24 44  1  0
 25 45  1  0
 26 27  1  0
 26 46  1  0
 26 47  1  0
 27 48  1  0
 27 49  1  0
M  END

