
     RDKit          3D

 25 26  0  0  0  0  0  0  0  0999 V2000
    1.1707   -0.2448   -0.0413 C   0  0  0  0  0  0  0  0  0  0  0  0
    2.6285   -0.1072    0.0116 N   0  0  0  0  0  0  0  0  0  0  0  0
    3.4043   -1.3034    0.0973 C   0  0  0  0  0  0  0  0  0  0  0  0
    2.8859   -2.3970    0.1273 O   0  0  0  0  0  0  0  0  0  0  0  0
    4.8278   -1.0156    0.1416 C   0  0  0  0  0  0  0  0  0  0  0  0
    5.8638   -1.9150    0.2299 N   0  0  0  0  0  0  0  0  0  0  0  0
    6.9386   -1.2051    0.2462 C   0  0  0  0  0  0  0  0  0  0  0  0
    8.8780   -2.0080    0.3781 I   0  0  0  0  0  0  0  0  0  0  0  0
    6.6874    0.1798    0.1811 N   0  0  0  0  0  0  0  0  0  0  0  0
    7.7055    1.2184    0.1565 C   0  0  0  0  0  0  0  0  0  0  0  0
    8.0179    1.7155   -1.1934 C   0  0  0  0  0  0  0  0  0  0  0  0
    8.2550    2.1249   -2.2500 N   0  0  0  0  0  0  0  0  0  0  0  0
    5.3075    0.2824    0.1044 C   0  0  0  0  0  0  0  0  0  0  0  0
    4.5020    1.3921    0.0147 N   0  0  0  0  0  0  0  0  0  0  0  0
    4.9849    2.7693   -0.0398 C   0  0  0  0  0  0  0  0  0  0  0  0
    3.0987    1.2012   -0.0307 C   0  0  0  0  0  0  0  0  0  0  0  0
    2.3436    2.1505   -0.1041 O   0  0  0  0  0  0  0  0  0  0  0  0
    0.9419   -1.3142    0.0037 H   0  0  0  0  0  0  0  0  0  0  0  0
    0.7811    0.1930   -0.9713 H   0  0  0  0  0  0  0  0  0  0  0  0
    0.7082    0.2842    0.8039 H   0  0  0  0  0  0  0  0  0  0  0  0
    8.6228    0.7943    0.5920 H   0  0  0  0  0  0  0  0  0  0  0  0
    7.4115    2.0619    0.7943 H   0  0  0  0  0  0  0  0  0  0  0  0
    5.6948    2.9089   -0.8673 H   0  0  0  0  0  0  0  0  0  0  0  0
    5.4463    3.0731    0.9135 H   0  0  0  0  0  0  0  0  0  0  0  0
    4.1083    3.4029   -0.2131 H   0  0  0  0  0  0  0  0  0  0  0  0
  1  2  1  0
  1 18  1  0
  1 19  1  0
  1 20  1  0
  2  3  1  0
  2 16  1  0
  3  4  2  0
  3  5  1  0
  5  6  1  0
  5 13  2  0
  6  7  2  0
  7  8  1  0
  7  9  1  0
  9 10  1  0
  9 13  1  0
 10 11  1  0
 10 21  1  0
 10 22  1  0
 11 12  3  0
 13 14  1  0
 14 15  1  0
 14 16  1  0
 15 23  1  0
 15 24  1  0
 15 25  1  0
 16 17  2  0
M  END

