
     RDKit          3D

 22 23  0  0  0  0  0  0  0  0999 V2000
    1.1036    0.2250    0.5498 N   0  0  0  0  0  0  0  0  0  0  0  0
    2.4046   -0.0044    0.1246 C   0  0  0  0  0  0  0  0  0  0  0  0
    3.3432    1.0451    0.0617 C   0  0  0  0  0  0  0  0  0  0  0  0
    4.6637    0.8036   -0.3157 C   0  0  0  0  0  0  0  0  0  0  0  0
    5.0687   -0.4901   -0.6370 C   0  0  0  0  0  0  0  0  0  0  0  0
    6.3712   -0.6997   -1.1010 O   0  0  0  0  0  0  0  0  0  0  0  0
    7.3189   -1.1903   -0.2945 C   0  0  0  0  0  0  0  0  0  0  0  0
    8.5141   -1.3566   -0.8764 N   0  0  0  0  0  0  0  0  0  0  0  0
    9.4537   -1.8366   -0.0804 C   0  0  0  0  0  0  0  0  0  0  0  0
    9.1775   -2.1358    1.2633 C   0  0  0  0  0  0  0  0  0  0  0  0
    7.9604   -1.9424    1.7636 N   0  0  0  0  0  0  0  0  0  0  0  0
    7.0118   -1.4626    0.9778 N   0  0  0  0  0  0  0  0  0  0  0  0
    4.1571   -1.5440   -0.5913 C   0  0  0  0  0  0  0  0  0  0  0  0
    2.8382   -1.3035   -0.2125 C   0  0  0  0  0  0  0  0  0  0  0  0
    0.7639    1.1767    0.4777 H   0  0  0  0  0  0  0  0  0  0  0  0
    0.4112   -0.4653    0.2841 H   0  0  0  0  0  0  0  0  0  0  0  0
    3.0324    2.0624    0.3153 H   0  0  0  0  0  0  0  0  0  0  0  0
    5.3858    1.6210   -0.3686 H   0  0  0  0  0  0  0  0  0  0  0  0
   10.4528   -1.9925   -0.5064 H   0  0  0  0  0  0  0  0  0  0  0  0
    9.9350   -2.5334    1.9441 H   0  0  0  0  0  0  0  0  0  0  0  0
    4.4816   -2.5526   -0.8551 H   0  0  0  0  0  0  0  0  0  0  0  0
    2.1290   -2.1349   -0.1732 H   0  0  0  0  0  0  0  0  0  0  0  0
  1  2  1  0
  1 15  1  0
  1 16  1  0
  2  3  2  0
  2 14  1  0
  3  4  1  0
  3 17  1  0
  4  5  2  0
  4 18  1  0
  5  6  1  0
  5 13  1  0
  6  7  1  0
  7  8  2  0
  7 12  1  0
  8  9  1  0
  9 10  2  0
  9 19  1  0
 10 11  1  0
 10 20  1  0
 11 12  2  0
 13 14  2  0
 13 21  1  0
 14 22  1  0
M  END

