
     RDKit          3D

 40 42  0  0  0  0  0  0  0  0999 V2000
   -0.5923   -0.2624   -1.7965 O   0  0  0  0  0  0  0  0  0  0  0  0
    0.4951    0.2458   -1.7358 C   0  0  0  0  0  0  0  0  0  0  0  0
    0.6238    1.5473   -1.3849 O   0  0  0  0  0  0  0  0  0  0  0  0
    1.7716   -0.4944   -2.0331 C   0  0  0  0  0  0  0  0  0  0  0  0
    2.9608    0.1576   -2.4023 C   0  0  0  0  0  0  0  0  0  0  0  0
    4.1031   -0.5886   -2.6920 C   0  0  0  0  0  0  0  0  0  0  0  0
    4.0648   -1.9841   -2.6136 C   0  0  0  0  0  0  0  0  0  0  0  0
    2.8834   -2.6533   -2.2624 C   0  0  0  0  0  0  0  0  0  0  0  0
    2.8288   -4.1682   -2.2088 C   0  0  0  0  0  0  0  0  0  0  0  0
    2.2921   -4.6689   -0.9637 N   0  0  0  0  0  0  0  0  0  0  0  0
    2.1143   -6.1157   -0.7845 C   0  0  0  0  0  0  0  0  0  0  0  0
    2.5433   -5.9685    0.7065 C   0  0  2  0  0  0  0  0  0  0  0  0
    1.4332   -5.9759    1.7290 C   0  0  0  0  0  0  0  0  0  0  0  0
    1.5194   -6.7889    2.8687 C   0  0  0  0  0  0  0  0  0  0  0  0
    0.4951   -6.8087    3.8204 C   0  0  0  0  0  0  0  0  0  0  0  0
   -0.6366   -6.0123    3.6496 C   0  0  0  0  0  0  0  0  0  0  0  0
   -0.7333   -5.1936    2.5169 C   0  0  0  0  0  0  0  0  0  0  0  0
   -1.9290   -4.2873    2.3500 C   0  0  1  0  0  0  0  0  0  0  0  0
   -3.0440   -4.8332    2.8709 F   0  0  0  0  0  0  0  0  0  0  0  0
   -1.7453   -3.1078    2.9755 F   0  0  0  0  0  0  0  0  0  0  0  0
   -2.1779   -4.0135    1.0592 F   0  0  0  0  0  0  0  0  0  0  0  0
    0.2895   -5.1762    1.5652 C   0  0  0  0  0  0  0  0  0  0  0  0
    3.0799   -4.5702    0.2738 C   0  0  0  0  0  0  0  0  0  0  0  0
    1.7409   -1.8939   -1.9788 C   0  0  0  0  0  0  0  0  0  0  0  0
    1.5549    1.7670   -1.2421 H   0  0  0  0  0  0  0  0  0  0  0  0
    2.9983    1.2468   -2.4998 H   0  0  0  0  0  0  0  0  0  0  0  0
    5.0264   -0.0827   -2.9843 H   0  0  0  0  0  0  0  0  0  0  0  0
    4.9661   -2.5630   -2.8346 H   0  0  0  0  0  0  0  0  0  0  0  0
    3.8454   -4.5767   -2.4164 H   0  0  0  0  0  0  0  0  0  0  0  0
    2.1755   -4.5342   -3.0215 H   0  0  0  0  0  0  0  0  0  0  0  0
    2.8400   -6.7251   -1.3627 H   0  0  0  0  0  0  0  0  0  0  0  0
    1.0964   -6.4933   -0.9828 H   0  0  0  0  0  0  0  0  0  0  0  0
    3.3292   -6.6708    1.0156 H   0  0  0  0  0  0  0  0  0  0  0  0
    2.4013   -7.4197    3.0123 H   0  0  0  0  0  0  0  0  0  0  0  0
    0.5800   -7.4533    4.6986 H   0  0  0  0  0  0  0  0  0  0  0  0
   -1.4445   -6.0280    4.3833 H   0  0  0  0  0  0  0  0  0  0  0  0
    0.1996   -4.5409    0.6813 H   0  0  0  0  0  0  0  0  0  0  0  0
    4.1763   -4.5839    0.0999 H   0  0  0  0  0  0  0  0  0  0  0  0
    2.8347   -3.7131    0.9227 H   0  0  0  0  0  0  0  0  0  0  0  0
    0.8052   -2.3855   -1.7063 H   0  0  0  0  0  0  0  0  0  0  0  0
  1  2  2  0
  2  3  1  0
  2  4  1  0
  3 25  1  0
  4  5  2  0
  4 24  1  0
  5  6  1  0
  5 26  1  0
  6  7  2  0
  6 27  1  0
  7  8  1  0
  7 28  1  0
  8  9  1  0
  8 24  2  0
  9 10  1  0
  9 29  1  0
  9 30  1  0
 10 11  1  0
 10 23  1  0
 11 12  1  0
 11 31  1  0
 11 32  1  0
 12 13  1  0
 12 23  1  0
 12 33  1  1
 13 14  2  0
 13 22  1  0
 14 15  1  0
 14 34  1  0
 15 16  2  0
 15 35  1  0
 16 17  1  0
 16 36  1  0
 17 18  1  0
 17 22  2  0
 18 19  1  1
 18 20  1  0
 18 21  1  0
 22 37  1  0
 23 38  1  0
 23 39  1  0
 24 40  1  0
M  END

