
     RDKit          3D

 34 34  0  0  0  0  0  0  0  0999 V2000
    0.5940    1.1312   -0.3063 C   0  0  0  0  0  0  0  0  0  0  0  0
    2.1190    1.2404   -0.3696 C   0  0  0  0  0  0  0  0  0  0  0  0
    2.7927    0.8540    0.9527 C   0  0  0  0  0  0  0  0  0  0  0  0
    4.3438    0.9310    0.9882 C   0  0  1  0  0  0  0  0  0  0  0  0
    4.8171    2.3247    0.5209 C   0  0  0  0  0  0  0  0  0  0  0  0
    5.5158    2.5073   -0.4559 O   0  0  0  0  0  0  0  0  0  0  0  0
    4.3234    3.3776    1.2702 N   0  0  0  0  0  0  0  0  0  0  0  0
    4.9392    4.6146    1.1520 O   0  0  0  0  0  0  0  0  0  0  0  0
    4.3488    5.3935    0.1200 C   0  0  0  0  0  0  0  0  0  0  0  0
    4.8725    0.6712    2.4310 C   0  0  0  0  0  0  0  0  0  0  0  0
    4.7195   -0.7904    2.8791 C   0  0  0  0  0  0  0  0  0  0  0  0
    5.3121   -1.7483    1.8346 C   0  0  0  0  0  0  0  0  0  0  0  0
    4.8275   -1.5103    0.4823 N   0  0  0  0  0  0  0  0  0  0  0  0
    4.9937   -0.1319    0.0503 C   0  0  0  0  0  0  0  0  0  0  0  0
    0.1304    1.4106   -1.2656 H   0  0  0  0  0  0  0  0  0  0  0  0
    0.1752    1.7933    0.4702 H   0  0  0  0  0  0  0  0  0  0  0  0
    0.2720    0.1031   -0.0691 H   0  0  0  0  0  0  0  0  0  0  0  0
    2.3993    2.2721   -0.6413 H   0  0  0  0  0  0  0  0  0  0  0  0
    2.4962    0.6006   -1.1852 H   0  0  0  0  0  0  0  0  0  0  0  0
    2.4902   -0.1746    1.2150 H   0  0  0  0  0  0  0  0  0  0  0  0
    2.3811    1.4894    1.7575 H   0  0  0  0  0  0  0  0  0  0  0  0
    4.0234    3.2159    2.2268 H   0  0  0  0  0  0  0  0  0  0  0  0
    4.8692    6.3616    0.1506 H   0  0  0  0  0  0  0  0  0  0  0  0
    3.2699    5.5496    0.2996 H   0  0  0  0  0  0  0  0  0  0  0  0
    4.5026    4.9264   -0.8657 H   0  0  0  0  0  0  0  0  0  0  0  0
    4.3668    1.3330    3.1564 H   0  0  0  0  0  0  0  0  0  0  0  0
    5.9436    0.9405    2.4602 H   0  0  0  0  0  0  0  0  0  0  0  0
    3.6535   -1.0309    3.0375 H   0  0  0  0  0  0  0  0  0  0  0  0
    5.2158   -0.9319    3.8549 H   0  0  0  0  0  0  0  0  0  0  0  0
    5.1127   -2.7970    2.1102 H   0  0  0  0  0  0  0  0  0  0  0  0
    6.4124   -1.6322    1.8245 H   0  0  0  0  0  0  0  0  0  0  0  0
    3.8607   -1.8162    0.3849 H   0  0  0  0  0  0  0  0  0  0  0  0
    4.6133   -0.0198   -0.9748 H   0  0  0  0  0  0  0  0  0  0  0  0
    6.0721    0.0858   -0.0109 H   0  0  0  0  0  0  0  0  0  0  0  0
  1  2  1  0
  1 15  1  0
  1 16  1  0
  1 17  1  0
  2  3  1  0
  2 18  1  0
  2 19  1  0
  3  4  1  0
  3 20  1  0
  3 21  1  0
  4  5  1  6
  4 10  1  0
  4 14  1  0
  5  6  2  0
  5  7  1  0
  7  8  1  0
  7 22  1  0
  8  9  1  0
  9 23  1  0
  9 24  1  0
  9 25  1  0
 10 11  1  0
 10 26  1  0
 10 27  1  0
 11 12  1  0
 11 28  1  0
 11 29  1  0
 12 13  1  0
 12 30  1  0
 12 31  1  0
 13 14  1  0
 13 32  1  0
 14 33  1  0
 14 34  1  0
M  END

