
     RDKit          3D

 54 57  0  0  0  0  0  0  0  0999 V2000
    0.8436    0.3425   -0.0431 C   0  0  0  0  0  0  0  0  0  0  0  0
    2.3179   -0.0575   -0.0032 C   0  0  0  0  0  0  0  0  0  0  0  0
    2.8408   -0.5079   -1.3812 C   0  0  0  0  0  0  0  0  0  0  0  0
    4.3095   -0.8575   -1.3801 C   0  0  0  0  0  0  0  0  0  0  0  0
    4.8587   -2.0797   -1.0687 C   0  0  0  0  0  0  0  0  0  0  0  0
    4.0078   -3.2098   -0.6471 C   0  0  0  0  0  0  0  0  0  0  0  0
    2.7965   -3.2097   -0.5286 O   0  0  0  0  0  0  0  0  0  0  0  0
    4.7589   -4.3014   -0.3701 O   0  0  0  0  0  0  0  0  0  0  0  0
    4.0769   -5.4976    0.0423 C   0  0  0  0  0  0  0  0  0  0  0  0
    3.6088   -6.3185   -1.1479 C   0  0  0  0  0  0  0  0  0  0  0  0
    6.3629   -2.3513   -1.1580 C   0  0  1  0  0  0  0  0  0  0  0  0
    6.7872   -3.2281   -2.3406 C   0  0  0  0  0  0  0  0  0  0  0  0
    6.1853   -3.1017   -3.5989 C   0  0  0  0  0  0  0  0  0  0  0  0
    6.6446   -3.8713   -4.6720 C   0  0  0  0  0  0  0  0  0  0  0  0
    7.7093   -4.7572   -4.5058 C   0  0  0  0  0  0  0  0  0  0  0  0
    8.3122   -4.8809   -3.2477 C   0  0  0  0  0  0  0  0  0  0  0  0
    9.3127   -5.8119   -3.1350 O   0  0  0  0  0  0  0  0  0  0  0  0
   10.3972   -5.6534   -2.3046 C   0  0  0  0  0  0  0  0  0  0  0  0
   10.9591   -6.8286   -1.7898 C   0  0  0  0  0  0  0  0  0  0  0  0
   12.1064   -6.7596   -0.9979 C   0  0  0  0  0  0  0  0  0  0  0  0
   12.6943   -5.5234   -0.7097 C   0  0  0  0  0  0  0  0  0  0  0  0
   12.1256   -4.3560   -1.2276 C   0  0  0  0  0  0  0  0  0  0  0  0
   10.9811   -4.4095   -2.0286 C   0  0  0  0  0  0  0  0  0  0  0  0
    7.8443   -4.1280   -2.1649 C   0  0  0  0  0  0  0  0  0  0  0  0
    7.0517   -1.0594   -1.2178 N   0  0  0  0  0  0  0  0  0  0  0  0
    8.3923   -0.8966   -1.0915 N   0  0  0  0  0  0  0  0  0  0  0  0
    8.5437    0.3962   -1.3252 C   0  0  0  0  0  0  0  0  0  0  0  0
    7.3968    1.0824   -1.6031 N   0  0  0  0  0  0  0  0  0  0  0  0
    6.4926    0.1259   -1.5273 C   0  0  0  0  0  0  0  0  0  0  0  0
    5.1303    0.2100   -1.6842 N   0  0  0  0  0  0  0  0  0  0  0  0
    0.4904    0.6579    0.9513 H   0  0  0  0  0  0  0  0  0  0  0  0
    0.2140   -0.5012   -0.3693 H   0  0  0  0  0  0  0  0  0  0  0  0
    0.6676    1.1793   -0.7402 H   0  0  0  0  0  0  0  0  0  0  0  0
    2.4596   -0.8872    0.7061 H   0  0  0  0  0  0  0  0  0  0  0  0
    2.9279    0.7864    0.3654 H   0  0  0  0  0  0  0  0  0  0  0  0
    2.6890    0.3058   -2.1134 H   0  0  0  0  0  0  0  0  0  0  0  0
    2.2574   -1.3735   -1.7148 H   0  0  0  0  0  0  0  0  0  0  0  0
    3.2298   -5.2209    0.6871 H   0  0  0  0  0  0  0  0  0  0  0  0
    4.8189   -6.0485    0.6386 H   0  0  0  0  0  0  0  0  0  0  0  0
    2.8448   -5.7730   -1.7212 H   0  0  0  0  0  0  0  0  0  0  0  0
    3.1640   -7.2640   -0.7977 H   0  0  0  0  0  0  0  0  0  0  0  0
    4.4503   -6.5585   -1.8159 H   0  0  0  0  0  0  0  0  0  0  0  0
    6.6987   -2.8502   -0.2379 H   0  0  0  0  0  0  0  0  0  0  0  0
    5.3547   -2.4070   -3.7407 H   0  0  0  0  0  0  0  0  0  0  0  0
    6.1717   -3.7756   -5.6527 H   0  0  0  0  0  0  0  0  0  0  0  0
    8.0865   -5.3634   -5.3316 H   0  0  0  0  0  0  0  0  0  0  0  0
   10.4848   -7.7828   -2.0277 H   0  0  0  0  0  0  0  0  0  0  0  0
   12.5413   -7.6804   -0.6004 H   0  0  0  0  0  0  0  0  0  0  0  0
   13.5897   -5.4704   -0.0861 H   0  0  0  0  0  0  0  0  0  0  0  0
   12.5770   -3.3843   -1.0116 H   0  0  0  0  0  0  0  0  0  0  0  0
   10.5448   -3.4914   -2.4250 H   0  0  0  0  0  0  0  0  0  0  0  0
    8.3108   -4.2324   -1.1841 H   0  0  0  0  0  0  0  0  0  0  0  0
    9.5235    0.8718   -1.2919 H   0  0  0  0  0  0  0  0  0  0  0  0
    4.7357    1.1203   -1.8862 H   0  0  0  0  0  0  0  0  0  0  0  0
  1  2  1  0
  1 31  1  0
  1 32  1  0
  1 33  1  0
  2  3  1  0
  2 34  1  0
  2 35  1  0
  3  4  1  0
  3 36  1  0
  3 37  1  0
  4  5  2  0
  4 30  1  0
  5  6  1  0
  5 11  1  0
  6  7  2  0
  6  8  1  0
  8  9  1  0
  9 10  1  0
  9 38  1  0
  9 39  1  0
 10 40  1  0
 10 41  1  0
 10 42  1  0
 11 12  1  0
 11 25  1  0
 11 43  1  1
 12 13  2  0
 12 24  1  0
 13 14  1  0
 13 44  1  0
 14 15  2  0
 14 45  1  0
 15 16  1  0
 15 46  1  0
 16 17  1  0
 16 24  2  0
 17 18  1  0
 18 19  2  0
 18 23  1  0
 19 20  1  0
 19 47  1  0
 20 21  2  0
 20 48  1  0
 21 22  1  0
 21 49  1  0
 22 23  2  0
 22 50  1  0
 23 51  1  0
 24 52  1  0
 25 26  1  0
 25 29  1  0
 26 27  2  0
 27 28  1  0
 27 53  1  0
 28 29  2  0
 29 30  1  0
 30 54  1  0
M  END

