
     RDKit          3D

 27 29  0  0  0  0  0  0  0  0999 V2000
    1.3111   -0.1512   -0.6458 O   0  0  0  0  0  0  0  0  0  0  0  0
    2.3661    0.0659   -0.0683 C   0  0  0  0  0  0  0  0  0  0  0  0
    3.0417    1.4339   -0.0516 C   0  0  0  0  0  0  0  0  0  0  0  0
    2.1089    2.5897    0.1770 C   0  0  0  0  0  0  0  0  0  0  0  0
    0.7835    2.7201   -0.1989 C   0  0  0  0  0  0  0  0  0  0  0  0
    0.4179    3.9868    0.2269 N   0  0  0  0  0  0  0  0  0  0  0  0
   -0.6989    4.8106    0.2303 C   0  0  0  0  0  0  0  0  0  0  0  0
   -0.4538    6.0030    0.8278 C   0  0  0  0  0  0  0  0  0  0  0  0
    1.1983    6.1473    1.4193 S   0  0  0  0  0  0  0  0  0  0  0  0
    1.5387    4.5323    0.8240 C   0  0  0  0  0  0  0  0  0  0  0  0
    2.5694    3.7266    0.8133 N   0  0  0  0  0  0  0  0  0  0  0  0
    3.0471   -0.9241    0.5737 N   0  0  0  0  0  0  0  0  0  0  0  0
    2.5465   -2.2814    0.5852 C   0  0  0  0  0  0  0  0  0  0  0  0
    3.4637   -3.1773    1.3528 C   0  0  0  0  0  0  0  0  0  0  0  0
    3.2510   -4.5075    1.5315 N   0  0  0  0  0  0  0  0  0  0  0  0
    4.2460   -4.9511    2.2434 N   0  0  0  0  0  0  0  0  0  0  0  0
    5.0199   -3.9062    2.4742 N   0  0  0  0  0  0  0  0  0  0  0  0
    5.8778   -3.9726    3.0152 H   0  0  0  0  0  0  0  0  0  0  0  0
    4.5828   -2.7744    1.9438 N   0  0  0  0  0  0  0  0  0  0  0  0
    3.5393    1.5435   -1.0342 H   0  0  0  0  0  0  0  0  0  0  0  0
    3.8407    1.4850    0.7032 H   0  0  0  0  0  0  0  0  0  0  0  0
    0.1144    2.0311   -0.7025 H   0  0  0  0  0  0  0  0  0  0  0  0
   -1.6345    4.4761   -0.2148 H   0  0  0  0  0  0  0  0  0  0  0  0
   -1.1563    6.8233    0.9582 H   0  0  0  0  0  0  0  0  0  0  0  0
    3.9090   -0.7280    1.0698 H   0  0  0  0  0  0  0  0  0  0  0  0
    2.4303   -2.6681   -0.4429 H   0  0  0  0  0  0  0  0  0  0  0  0
    1.5352   -2.3247    1.0273 H   0  0  0  0  0  0  0  0  0  0  0  0
  1  2  2  0
  2  3  1  0
  2 12  1  0
  3  4  1  0
  3 20  1  0
  3 21  1  0
  4  5  2  0
  4 11  1  0
  5  6  1  0
  5 22  1  0
  6  7  1  0
  6 10  1  0
  7  8  2  0
  7 23  1  0
  8  9  1  0
  8 24  1  0
  9 10  1  0
 10 11  2  0
 12 13  1  0
 12 25  1  0
 13 14  1  0
 13 26  1  0
 13 27  1  0
 14 15  1  0
 14 19  2  0
 15 16  2  0
 16 17  1  0
 17 18  1  0
 17 19  1  0
M  END

