
     RDKit          3D

 43 43  0  0  0  0  0  0  0  0999 V2000
    1.2718    0.3068   -1.8997 C   0  0  0  0  0  0  0  0  0  0  0  0
    2.6662    0.3284   -1.2775 C   0  0  0  0  0  0  0  0  0  0  0  0
    3.4400   -0.5795   -1.5176 O   0  0  0  0  0  0  0  0  0  0  0  0
    2.9953    1.4239   -0.4778 N   0  0  0  0  0  0  0  0  0  0  0  0
    1.9647    2.4022   -0.1172 C   0  0  0  0  0  0  0  0  0  0  0  0
    1.1359    2.0062    1.1229 C   0  0  0  0  0  0  0  0  0  0  0  0
    0.2153    3.0402    1.5525 N   0  0  0  0  0  0  0  0  0  0  0  0
    0.6841    4.1337    2.2581 C   0  0  0  0  0  0  0  0  0  0  0  0
    1.8579    4.2341    2.5964 O   0  0  0  0  0  0  0  0  0  0  0  0
   -0.2639    5.0900    2.5408 N   0  0  0  0  0  0  0  0  0  0  0  0
    0.0459    6.2371    3.3951 C   0  0  1  0  0  0  0  0  0  0  0  0
   -0.8224    7.4284    2.9869 C   0  0  0  0  0  0  0  0  0  0  0  0
   -0.0863    5.8963    4.8846 C   0  0  0  0  0  0  0  0  0  0  0  0
    4.3064    1.6054    0.0762 C   0  0  0  0  0  0  0  0  0  0  0  0
    4.4931    2.4348    1.1993 C   0  0  0  0  0  0  0  0  0  0  0  0
    5.7722    2.6492    1.7151 C   0  0  0  0  0  0  0  0  0  0  0  0
    6.9212    2.0684    1.1642 C   0  0  0  0  0  0  0  0  0  0  0  0
    8.2907    2.3073    1.7404 C   0  0  0  0  0  0  0  0  0  0  0  0
    6.7075    1.2513    0.0417 C   0  0  0  0  0  0  0  0  0  0  0  0
    8.0861    0.4831   -0.7349 Cl  0  0  0  0  0  0  0  0  0  0  0  0
    5.4462    1.0132   -0.5013 C   0  0  0  0  0  0  0  0  0  0  0  0
    1.1903   -0.6387   -2.4484 H   0  0  0  0  0  0  0  0  0  0  0  0
    1.1379    1.1397   -2.6089 H   0  0  0  0  0  0  0  0  0  0  0  0
    0.4598    0.3603   -1.1601 H   0  0  0  0  0  0  0  0  0  0  0  0
    1.2960    2.5652   -0.9734 H   0  0  0  0  0  0  0  0  0  0  0  0
    2.4522    3.3646    0.0803 H   0  0  0  0  0  0  0  0  0  0  0  0
    1.8147    1.7839    1.9574 H   0  0  0  0  0  0  0  0  0  0  0  0
    0.5606    1.0883    0.9252 H   0  0  0  0  0  0  0  0  0  0  0  0
   -0.6766    3.1140    1.0776 H   0  0  0  0  0  0  0  0  0  0  0  0
   -1.2408    4.8213    2.4806 H   0  0  0  0  0  0  0  0  0  0  0  0
    1.1016    6.4712    3.1916 H   0  0  0  0  0  0  0  0  0  0  0  0
   -1.8939    7.2169    3.1517 H   0  0  0  0  0  0  0  0  0  0  0  0
   -0.6820    7.6738    1.9231 H   0  0  0  0  0  0  0  0  0  0  0  0
   -0.5689    8.3177    3.5841 H   0  0  0  0  0  0  0  0  0  0  0  0
   -1.1233    5.6154    5.1379 H   0  0  0  0  0  0  0  0  0  0  0  0
    0.1912    6.7589    5.5117 H   0  0  0  0  0  0  0  0  0  0  0  0
    0.5768    5.0580    5.1456 H   0  0  0  0  0  0  0  0  0  0  0  0
    3.6608    2.9358    1.6941 H   0  0  0  0  0  0  0  0  0  0  0  0
    5.8767    3.2978    2.5892 H   0  0  0  0  0  0  0  0  0  0  0  0
    8.2386    2.9728    2.6142 H   0  0  0  0  0  0  0  0  0  0  0  0
    8.9649    2.7628    0.9965 H   0  0  0  0  0  0  0  0  0  0  0  0
    8.7651    1.3620    2.0516 H   0  0  0  0  0  0  0  0  0  0  0  0
    5.3553    0.3567   -1.3591 H   0  0  0  0  0  0  0  0  0  0  0  0
  1  2  1  0
  1 22  1  0
  1 23  1  0
  1 24  1  0
  2  3  2  0
  2  4  1  0
  4  5  1  0
  4 14  1  0
  5  6  1  0
  5 25  1  0
  5 26  1  0
  6  7  1  0
  6 27  1  0
  6 28  1  0
  7  8  1  0
  7 29  1  0
  8  9  2  0
  8 10  1  0
 10 11  1  0
 10 30  1  0
 11 12  1  0
 11 13  1  0
 11 31  1  1
 12 32  1  0
 12 33  1  0
 12 34  1  0
 13 35  1  0
 13 36  1  0
 13 37  1  0
 14 15  2  0
 14 21  1  0
 15 16  1  0
 15 38  1  0
 16 17  2  0
 16 39  1  0
 17 18  1  0
 17 19  1  0
 18 40  1  0
 18 41  1  0
 18 42  1  0
 19 20  1  0
 19 21  2  0
 21 43  1  0
M  END

