
     RDKit          3D

 27 28  0  0  0  0  0  0  0  0999 V2000
    0.8976    0.0933   -0.0036 C   0  0  0  0  0  0  0  0  0  0  0  0
    2.2640    0.0101    0.3284 O   0  0  0  0  0  0  0  0  0  0  0  0
    2.9423    1.1573    0.6459 C   0  0  0  0  0  0  0  0  0  0  0  0
    2.3622    2.4292    0.7057 C   0  0  0  0  0  0  0  0  0  0  0  0
    3.1317    3.5441    1.0513 C   0  0  0  0  0  0  0  0  0  0  0  0
    4.4992    3.4222    1.3476 C   0  0  0  0  0  0  0  0  0  0  0  0
    5.2545    4.5194    1.7523 N   0  0  0  0  0  0  0  0  0  0  0  0
    5.0700    2.1364    1.2736 C   0  0  0  0  0  0  0  0  0  0  0  0
    4.3181    1.0144    0.9247 C   0  0  0  0  0  0  0  0  0  0  0  0
    4.9600   -0.3547    0.8658 C   0  0  0  0  0  0  0  0  0  0  0  0
    4.8865   -1.0877    2.1275 N   0  0  0  0  0  0  0  0  0  0  0  0
    3.9199   -1.9203    2.5820 C   0  0  0  0  0  0  0  0  0  0  0  0
    4.2040   -2.3250    3.8064 N   0  0  0  0  0  0  0  0  0  0  0  0
    5.3776   -1.6893    4.0646 C   0  0  0  0  0  0  0  0  0  0  0  0
    5.8276   -0.9269    3.0790 N   0  0  0  0  0  0  0  0  0  0  0  0
    0.5662   -0.9278   -0.2368 H   0  0  0  0  0  0  0  0  0  0  0  0
    0.7275    0.7344   -0.8879 H   0  0  0  0  0  0  0  0  0  0  0  0
    0.2924    0.4810    0.8359 H   0  0  0  0  0  0  0  0  0  0  0  0
    1.3035    2.5708    0.4871 H   0  0  0  0  0  0  0  0  0  0  0  0
    2.6543    4.5270    1.0973 H   0  0  0  0  0  0  0  0  0  0  0  0
    4.9074    5.4282    1.4677 H   0  0  0  0  0  0  0  0  0  0  0  0
    6.2581    4.4351    1.6377 H   0  0  0  0  0  0  0  0  0  0  0  0
    6.1304    2.0043    1.5073 H   0  0  0  0  0  0  0  0  0  0  0  0
    6.0269   -0.2699    0.6215 H   0  0  0  0  0  0  0  0  0  0  0  0
    4.4700   -0.9698    0.1001 H   0  0  0  0  0  0  0  0  0  0  0  0
    3.0457   -2.1814    1.9872 H   0  0  0  0  0  0  0  0  0  0  0  0
    5.9231   -1.7936    5.0028 H   0  0  0  0  0  0  0  0  0  0  0  0
  1  2  1  0
  1 16  1  0
  1 17  1  0
  1 18  1  0
  2  3  1  0
  3  4  2  0
  3  9  1  0
  4  5  1  0
  4 19  1  0
  5  6  2  0
  5 20  1  0
  6  7  1  0
  6  8  1  0
  7 21  1  0
  7 22  1  0
  8  9  2  0
  8 23  1  0
  9 10  1  0
 10 11  1  0
 10 24  1  0
 10 25  1  0
 11 12  1  0
 11 15  1  0
 12 13  2  0
 12 26  1  0
 13 14  1  0
 14 15  2  0
 14 27  1  0
M  END

