
     RDKit          3D

 66 70  0  0  0  0  0  0  0  0999 V2000
   -0.4875    0.6006   -1.1792 C   0  0  0  0  0  0  0  0  0  0  0  0
    0.6652    0.0484   -0.3305 C   0  0  1  0  0  0  0  0  0  0  0  0
    0.7277   -1.4919   -0.3299 C   0  0  0  0  0  0  0  0  0  0  0  0
    1.2292   -2.0480   -1.6683 C   0  0  0  0  0  0  0  0  0  0  0  0
    2.5483   -1.3879   -2.0725 C   0  0  0  0  0  0  0  0  0  0  0  0
    2.4445    0.0774   -2.0557 N   0  0  0  0  0  0  0  0  0  0  0  0
    2.7845    0.8618   -3.1140 C   0  0  0  0  0  0  0  0  0  0  0  0
    3.2108    2.1696   -3.1819 C   0  0  0  0  0  0  0  0  0  0  0  0
    3.7142    3.0797   -2.1372 C   0  0  0  0  0  0  0  0  0  0  0  0
    4.5552    2.6063   -1.1083 C   0  0  0  0  0  0  0  0  0  0  0  0
    5.0595    3.4703   -0.1354 C   0  0  0  0  0  0  0  0  0  0  0  0
    4.7421    4.8318   -0.1710 C   0  0  0  0  0  0  0  0  0  0  0  0
    3.9219    5.3195   -1.1930 C   0  0  0  0  0  0  0  0  0  0  0  0
    3.4155    4.4572   -2.1672 C   0  0  0  0  0  0  0  0  0  0  0  0
    3.2528    2.5564   -4.6152 C   0  0  0  0  0  0  0  0  0  0  0  0
    3.5736    3.6303   -5.0814 O   0  0  0  0  0  0  0  0  0  0  0  0
    2.8666    1.4339   -5.3839 N   0  0  0  0  0  0  0  0  0  0  0  0
    2.7429    1.2933   -6.8475 C   0  0  1  0  0  0  0  0  0  0  0  0
    1.6543    2.1904   -7.4851 C   0  0  0  0  0  0  0  0  0  0  0  0
    2.1522    3.5739   -7.9459 C   0  0  0  0  0  0  0  0  0  0  0  0
    3.3611    3.5087   -8.7689 N   0  0  0  0  0  0  0  0  0  0  0  0
    3.1555    3.0889  -10.1464 C   0  0  0  0  0  0  0  0  0  0  0  0
    2.4369    4.1279  -10.9934 C   0  0  0  0  0  0  0  0  0  0  0  0
    2.7245    5.4941  -10.8455 C   0  0  0  0  0  0  0  0  0  0  0  0
    2.1041    6.4449  -11.6587 C   0  0  0  0  0  0  0  0  0  0  0  0
    1.1844    6.0463  -12.6354 C   0  0  0  0  0  0  0  0  0  0  0  0
    0.8873    4.6896  -12.7881 C   0  0  0  0  0  0  0  0  0  0  0  0
    1.5078    3.7402  -11.9691 C   0  0  0  0  0  0  0  0  0  0  0  0
    4.4425    2.8341   -8.0554 C   0  0  0  0  0  0  0  0  0  0  0  0
    4.0848    1.4031   -7.6105 C   0  0  0  0  0  0  0  0  0  0  0  0
    2.5514    0.3798   -4.5425 C   0  0  0  0  0  0  0  0  0  0  0  0
    2.1328   -0.7040   -4.8954 O   0  0  0  0  0  0  0  0  0  0  0  0
    2.0279    0.6287   -0.7675 C   0  0  0  0  0  0  0  0  0  0  0  0
   -1.4533    0.1871   -0.8470 H   0  0  0  0  0  0  0  0  0  0  0  0
   -0.3689    0.3546   -2.2461 H   0  0  0  0  0  0  0  0  0  0  0  0
   -0.5475    1.6979   -1.0982 H   0  0  0  0  0  0  0  0  0  0  0  0
    0.5087    0.3842    0.7102 H   0  0  0  0  0  0  0  0  0  0  0  0
   -0.2612   -1.9116   -0.0807 H   0  0  0  0  0  0  0  0  0  0  0  0
    1.4149   -1.8186    0.4719 H   0  0  0  0  0  0  0  0  0  0  0  0
    0.4911   -1.8787   -2.4689 H   0  0  0  0  0  0  0  0  0  0  0  0
    1.3780   -3.1385   -1.6004 H   0  0  0  0  0  0  0  0  0  0  0  0
    2.8604   -1.7185   -3.0667 H   0  0  0  0  0  0  0  0  0  0  0  0
    3.3392   -1.6739   -1.3491 H   0  0  0  0  0  0  0  0  0  0  0  0
    4.8323    1.5498   -1.0877 H   0  0  0  0  0  0  0  0  0  0  0  0
    5.7136    3.0799    0.6488 H   0  0  0  0  0  0  0  0  0  0  0  0
    5.1383    5.5099    0.5892 H   0  0  0  0  0  0  0  0  0  0  0  0
    3.6740    6.3834   -1.2343 H   0  0  0  0  0  0  0  0  0  0  0  0
    2.7870    4.8500   -2.9668 H   0  0  0  0  0  0  0  0  0  0  0  0
    2.3994    0.2535   -6.9352 H   0  0  0  0  0  0  0  0  0  0  0  0
    0.8063    2.2976   -6.7890 H   0  0  0  0  0  0  0  0  0  0  0  0
    1.2612    1.6406   -8.3577 H   0  0  0  0  0  0  0  0  0  0  0  0
    2.3752    4.1969   -7.0678 H   0  0  0  0  0  0  0  0  0  0  0  0
    1.3585    4.0810   -8.5167 H   0  0  0  0  0  0  0  0  0  0  0  0
    2.6181    2.1202  -10.2554 H   0  0  0  0  0  0  0  0  0  0  0  0
    4.1556    2.9191  -10.5850 H   0  0  0  0  0  0  0  0  0  0  0  0
    3.4342    5.7967  -10.0720 H   0  0  0  0  0  0  0  0  0  0  0  0
    2.3388    7.5052  -11.5301 H   0  0  0  0  0  0  0  0  0  0  0  0
    0.6981    6.7912  -13.2709 H   0  0  0  0  0  0  0  0  0  0  0  0
    0.1648    4.3676  -13.5429 H   0  0  0  0  0  0  0  0  0  0  0  0
    1.2654    2.6797  -12.0895 H   0  0  0  0  0  0  0  0  0  0  0  0
    4.6936    3.4398   -7.1723 H   0  0  0  0  0  0  0  0  0  0  0  0
    5.3349    2.8074   -8.7024 H   0  0  0  0  0  0  0  0  0  0  0  0
    4.8954    0.9710   -7.0009 H   0  0  0  0  0  0  0  0  0  0  0  0
    3.9983    0.7614   -8.5049 H   0  0  0  0  0  0  0  0  0  0  0  0
    1.9660    1.7197   -0.8449 H   0  0  0  0  0  0  0  0  0  0  0  0
    2.7908    0.3996    0.0014 H   0  0  0  0  0  0  0  0  0  0  0  0
  1  2  1  0
  1 34  1  0
  1 35  1  0
  1 36  1  0
  2  3  1  0
  2 33  1  0
  2 37  1  1
  3  4  1  0
  3 38  1  0
  3 39  1  0
  4  5  1  0
  4 40  1  0
  4 41  1  0
  5  6  1  0
  5 42  1  0
  5 43  1  0
  6  7  1  0
  6 33  1  0
  7  8  2  0
  7 31  1  0
  8  9  1  0
  8 15  1  0
  9 10  2  0
  9 14  1  0
 10 11  1  0
 10 44  1  0
 11 12  2  0
 11 45  1  0
 12 13  1  0
 12 46  1  0
 13 14  2  0
 13 47  1  0
 14 48  1  0
 15 16  2  0
 15 17  1  0
 17 18  1  0
 17 31  1  0
 18 19  1  0
 18 30  1  0
 18 49  1  1
 19 20  1  0
 19 50  1  0
 19 51  1  0
 20 21  1  0
 20 52  1  0
 20 53  1  0
 21 22  1  0
 21 29  1  0
 22 23  1  0
 22 54  1  0
 22 55  1  0
 23 24  2  0
 23 28  1  0
 24 25  1  0
 24 56  1  0
 25 26  2  0
 25 57  1  0
 26 27  1  0
 26 58  1  0
 27 28  2  0
 27 59  1  0
 28 60  1  0
 29 30  1  0
 29 61  1  0
 29 62  1  0
 30 63  1  0
 30 64  1  0
 31 32  2  0
 33 65  1  0
 33 66  1  0
M  END

