
     RDKit          3D

 62 68  0  0  0  0  0  0  0  0999 V2000
    1.9096   -0.8936   -1.0782 O   0  0  0  0  0  0  0  0  0  0  0  0
    2.1127   -0.0510    0.1532 P   0  0  1  0  0  0  0  0  0  0  0  0
    3.8052   -0.2383    0.8277 C   0  0  0  0  0  0  0  0  0  0  0  0
    4.2639    0.4499    1.9622 C   0  0  0  0  0  0  0  0  0  0  0  0
    5.5677    0.2501    2.4191 C   0  0  0  0  0  0  0  0  0  0  0  0
    6.4184   -0.6361    1.7470 C   0  0  0  0  0  0  0  0  0  0  0  0
    5.9639   -1.3223    0.6177 C   0  0  0  0  0  0  0  0  0  0  0  0
    4.6587   -1.1251    0.1559 C   0  0  0  0  0  0  0  0  0  0  0  0
    1.7784    1.7670    0.0384 C   0  0  0  0  0  0  0  0  0  0  0  0
    2.4058    2.6387   -0.9597 C   0  0  0  0  0  0  0  0  0  0  0  0
    2.5246    4.0316   -0.7564 C   0  0  0  0  0  0  0  0  0  0  0  0
    3.1043    4.8494   -1.7169 C   0  0  0  0  0  0  0  0  0  0  0  0
    3.6027    4.3146   -2.9257 C   0  0  0  0  0  0  0  0  0  0  0  0
    4.2365    5.1643   -3.9387 C   0  0  0  0  0  0  0  0  0  0  0  0
    4.8194    6.3785   -3.7615 C   0  0  0  0  0  0  0  0  0  0  0  0
    5.4003    7.0092   -4.9570 C   0  0  0  0  0  0  0  0  0  0  0  0
    6.0693    8.2368   -5.0167 C   0  0  0  0  0  0  0  0  0  0  0  0
    6.5939    8.6730   -6.2408 C   0  0  0  0  0  0  0  0  0  0  0  0
    6.4569    7.8965   -7.3959 C   0  0  0  0  0  0  0  0  0  0  0  0
    5.7814    6.6662   -7.3438 C   0  0  0  0  0  0  0  0  0  0  0  0
    5.2561    6.2364   -6.1312 C   0  0  0  0  0  0  0  0  0  0  0  0
    4.3530    4.6984   -5.7273 P   0  0  1  0  0  0  0  0  0  0  0  0
    4.9782    3.3749   -6.0810 O   0  0  0  0  0  0  0  0  0  0  0  0
    2.6683    4.8578   -6.4283 C   0  0  0  0  0  0  0  0  0  0  0  0
    2.1964    3.7797   -7.1905 C   0  0  0  0  0  0  0  0  0  0  0  0
    0.9205    3.8336   -7.7607 C   0  0  0  0  0  0  0  0  0  0  0  0
    0.1158    4.9602   -7.5711 C   0  0  0  0  0  0  0  0  0  0  0  0
    0.5852    6.0378   -6.8102 C   0  0  0  0  0  0  0  0  0  0  0  0
    1.8582    5.9888   -6.2394 C   0  0  0  0  0  0  0  0  0  0  0  0
    3.4839    2.9240   -3.1303 C   0  0  0  0  0  0  0  0  0  0  0  0
    2.9026    2.1036   -2.1666 C   0  0  0  0  0  0  0  0  0  0  0  0
    0.8908    2.1129    1.0069 C   0  0  0  0  0  0  0  0  0  0  0  0
    0.4028    1.0259    1.8698 C   0  0  0  0  0  0  0  0  0  0  0  0
   -0.5262    1.1337    2.9106 C   0  0  0  0  0  0  0  0  0  0  0  0
   -0.9070   -0.0183    3.6120 C   0  0  0  0  0  0  0  0  0  0  0  0
   -0.3711   -1.2672    3.2820 C   0  0  0  0  0  0  0  0  0  0  0  0
    0.5662   -1.3812    2.2422 C   0  0  0  0  0  0  0  0  0  0  0  0
    0.9481   -0.2381    1.5506 C   0  0  0  0  0  0  0  0  0  0  0  0
    3.6039    1.1433    2.4906 H   0  0  0  0  0  0  0  0  0  0  0  0
    5.9237    0.7874    3.3019 H   0  0  0  0  0  0  0  0  0  0  0  0
    7.4393   -0.7898    2.1063 H   0  0  0  0  0  0  0  0  0  0  0  0
    6.6278   -2.0131    0.0915 H   0  0  0  0  0  0  0  0  0  0  0  0
    4.2836   -1.6503   -0.7258 H   0  0  0  0  0  0  0  0  0  0  0  0
    2.1652    4.4758    0.1748 H   0  0  0  0  0  0  0  0  0  0  0  0
    3.1647    5.9249   -1.5347 H   0  0  0  0  0  0  0  0  0  0  0  0
    4.9030    6.8705   -2.7876 H   0  0  0  0  0  0  0  0  0  0  0  0
    6.1852    8.8468   -4.1167 H   0  0  0  0  0  0  0  0  0  0  0  0
    7.1207    9.6294   -6.2913 H   0  0  0  0  0  0  0  0  0  0  0  0
    6.8791    8.2461   -8.3412 H   0  0  0  0  0  0  0  0  0  0  0  0
    5.6763    6.0549   -8.2440 H   0  0  0  0  0  0  0  0  0  0  0  0
    2.8416    2.9083   -7.3254 H   0  0  0  0  0  0  0  0  0  0  0  0
    0.5542    2.9913   -8.3533 H   0  0  0  0  0  0  0  0  0  0  0  0
   -0.8819    5.0007   -8.0160 H   0  0  0  0  0  0  0  0  0  0  0  0
   -0.0446    6.9187   -6.6615 H   0  0  0  0  0  0  0  0  0  0  0  0
    2.2196    6.8331   -5.6459 H   0  0  0  0  0  0  0  0  0  0  0  0
    3.8753    2.4861   -4.0515 H   0  0  0  0  0  0  0  0  0  0  0  0
    2.8081    1.0311   -2.3521 H   0  0  0  0  0  0  0  0  0  0  0  0
    0.5100    3.1302    1.1398 H   0  0  0  0  0  0  0  0  0  0  0  0
   -0.9537    2.1060    3.1707 H   0  0  0  0  0  0  0  0  0  0  0  0
   -1.6353    0.0607    4.4232 H   0  0  0  0  0  0  0  0  0  0  0  0
   -0.6846   -2.1576    3.8324 H   0  0  0  0  0  0  0  0  0  0  0  0
    0.9837   -2.3567    1.9791 H   0  0  0  0  0  0  0  0  0  0  0  0
  1  2  2  0
  2  3  1  1
  2  9  1  0
  2 38  1  0
  3  4  2  0
  3  8  1  0
  4  5  1  0
  4 39  1  0
  5  6  2  0
  5 40  1  0
  6  7  1  0
  6 41  1  0
  7  8  2  0
  7 42  1  0
  8 43  1  0
  9 10  1  0
  9 32  2  0
 10 11  2  0
 10 31  1  0
 11 12  1  0
 11 44  1  0
 12 13  2  0
 12 45  1  0
 13 14  1  0
 13 30  1  0
 14 15  2  0
 14 22  1  0
 15 16  1  0
 15 46  1  0
 16 17  1  0
 16 21  2  0
 17 18  2  0
 17 47  1  0
 18 19  1  0
 18 48  1  0
 19 20  2  0
 19 49  1  0
 20 21  1  0
 20 50  1  0
 21 22  1  0
 22 23  2  0
 22 24  1  6
 24 25  2  0
 24 29  1  0
 25 26  1  0
 25 51  1  0
 26 27  2  0
 26 52  1  0
 27 28  1  0
 27 53  1  0
 28 29  2  0
 28 54  1  0
 29 55  1  0
 30 31  2  0
 30 56  1  0
 31 57  1  0
 32 33  1  0
 32 58  1  0
 33 34  1  0
 33 38  2  0
 34 35  2  0
 34 59  1  0
 35 36  1  0
 35 60  1  0
 36 37  2  0
 36 61  1  0
 37 38  1  0
 37 62  1  0
M  END

