
     RDKit          3D

 46 48  0  0  0  0  0  0  0  0999 V2000
    5.1577   -1.0546    0.1496 N   0  0  0  0  0  0  0  0  0  0  0  0
    3.9780   -0.3024    0.5644 C   0  0  0  0  0  0  0  0  0  0  0  0
    4.0624    1.1594    0.1695 C   0  0  0  0  0  0  0  0  0  0  0  0
    4.6987    1.5610   -1.0130 C   0  0  0  0  0  0  0  0  0  0  0  0
    4.7396    2.8992   -1.4045 C   0  0  0  0  0  0  0  0  0  0  0  0
    4.1406    3.9063   -0.6170 C   0  0  0  0  0  0  0  0  0  0  0  0
    4.1887    5.2652   -0.9906 N   0  0  0  0  0  0  0  0  0  0  0  0
    3.1739    6.1727   -0.4700 C   0  0  0  0  0  0  0  0  0  0  0  0
    3.5036    6.9174    0.8356 C   0  0  0  0  0  0  0  0  0  0  0  0
    2.6572    7.6131    1.3717 O   0  0  0  0  0  0  0  0  0  0  0  0
    4.7760    6.7593    1.2918 N   0  0  0  0  0  0  0  0  0  0  0  0
    5.2658    7.3488    2.5200 C   0  0  1  0  0  0  0  0  0  0  0  0
    5.5959    6.3477    3.6419 C   0  0  0  0  0  0  0  0  0  0  0  0
    6.3805    7.2032    4.6451 C   0  0  0  0  0  0  0  0  0  0  0  0
    7.2125    8.1882    3.7749 C   0  0  0  0  0  0  0  0  0  0  0  0
    6.5796    8.1449    2.3596 C   0  0  0  0  0  0  0  0  0  0  0  0
    4.7744    5.6174   -2.2563 C   0  0  1  0  0  0  0  0  0  0  0  0
    5.5018    6.9317   -2.3722 C   0  0  0  0  0  0  0  0  0  0  0  0
    6.2753    5.6406   -2.4085 C   0  0  0  0  0  0  0  0  0  0  0  0
    3.5042    3.5032    0.5774 C   0  0  0  0  0  0  0  0  0  0  0  0
    3.4737    2.1598    0.9534 C   0  0  0  0  0  0  0  0  0  0  0  0
    5.0375   -2.0477    0.3461 H   0  0  0  0  0  0  0  0  0  0  0  0
    5.9779   -0.7462    0.6733 H   0  0  0  0  0  0  0  0  0  0  0  0
    3.7553   -0.3571    1.6521 H   0  0  0  0  0  0  0  0  0  0  0  0
    3.1053   -0.7604    0.0612 H   0  0  0  0  0  0  0  0  0  0  0  0
    5.1746    0.7986   -1.6338 H   0  0  0  0  0  0  0  0  0  0  0  0
    5.2421    3.1599   -2.3349 H   0  0  0  0  0  0  0  0  0  0  0  0
    2.2122    5.6599   -0.3022 H   0  0  0  0  0  0  0  0  0  0  0  0
    2.9741    6.9551   -1.2171 H   0  0  0  0  0  0  0  0  0  0  0  0
    5.3600    6.1005    0.7846 H   0  0  0  0  0  0  0  0  0  0  0  0
    4.4612    8.0171    2.8644 H   0  0  0  0  0  0  0  0  0  0  0  0
    6.2314    5.5398    3.2344 H   0  0  0  0  0  0  0  0  0  0  0  0
    4.6970    5.8763    4.0683 H   0  0  0  0  0  0  0  0  0  0  0  0
    7.0041    6.6037    5.3257 H   0  0  0  0  0  0  0  0  0  0  0  0
    5.6722    7.7655    5.2759 H   0  0  0  0  0  0  0  0  0  0  0  0
    8.2714    7.8885    3.7366 H   0  0  0  0  0  0  0  0  0  0  0  0
    7.1936    9.2035    4.1997 H   0  0  0  0  0  0  0  0  0  0  0  0
    7.2390    7.6038    1.6590 H   0  0  0  0  0  0  0  0  0  0  0  0
    6.4065    9.1420    1.9268 H   0  0  0  0  0  0  0  0  0  0  0  0
    4.2068    5.2951   -3.1438 H   0  0  0  0  0  0  0  0  0  0  0  0
    5.5801    7.5443   -1.4702 H   0  0  0  0  0  0  0  0  0  0  0  0
    5.3826    7.5016   -3.2976 H   0  0  0  0  0  0  0  0  0  0  0  0
    6.8685    5.3760   -1.5291 H   0  0  0  0  0  0  0  0  0  0  0  0
    6.7013    5.3062   -3.3586 H   0  0  0  0  0  0  0  0  0  0  0  0
    3.0431    4.2388    1.2366 H   0  0  0  0  0  0  0  0  0  0  0  0
    2.9777    1.8892    1.8910 H   0  0  0  0  0  0  0  0  0  0  0  0
  1  2  1  0
  1 22  1  0
  1 23  1  0
  2  3  1  0
  2 24  1  0
  2 25  1  0
  3  4  2  0
  3 21  1  0
  4  5  1  0
  4 26  1  0
  5  6  2  0
  5 27  1  0
  6  7  1  0
  6 20  1  0
  7  8  1  0
  7 17  1  0
  8  9  1  0
  8 28  1  0
  8 29  1  0
  9 10  2  0
  9 11  1  0
 11 12  1  0
 11 30  1  0
 12 13  1  0
 12 16  1  0
 12 31  1  1
 13 14  1  0
 13 32  1  0
 13 33  1  0
 14 15  1  0
 14 34  1  0
 14 35  1  0
 15 16  1  0
 15 36  1  0
 15 37  1  0
 16 38  1  0
 16 39  1  0
 17 18  1  0
 17 19  1  0
 17 40  1  6
 18 19  1  0
 18 41  1  0
 18 42  1  0
 19 43  1  0
 19 44  1  0
 20 21  2  0
 20 45  1  0
 21 46  1  0
M  END

