
     RDKit          3D

 54 57  0  0  0  0  0  0  0  0999 V2000
    0.7236   -0.1989    2.4011 C   0  0  0  0  0  0  0  0  0  0  0  0
    1.9788   -0.1707    1.5813 C   0  0  0  0  0  0  0  0  0  0  0  0
    3.1133    1.1210    1.8103 S   0  0  0  0  0  0  0  0  0  0  0  0
    4.1853    0.5012    0.5792 C   0  0  0  0  0  0  0  0  0  0  0  0
    5.4350    1.1544    0.2554 C   0  0  0  0  0  0  0  0  0  0  0  0
    6.3880    0.7503   -0.5373 N   0  0  0  0  0  0  0  0  0  0  0  0
    7.3137    1.7665   -0.4420 C   0  0  0  0  0  0  0  0  0  0  0  0
    8.5972    1.7769   -1.1625 C   0  0  0  0  0  0  0  0  0  0  0  0
    9.0035    0.6515   -1.8970 C   0  0  0  0  0  0  0  0  0  0  0  0
   10.2250    0.6599   -2.5740 C   0  0  0  0  0  0  0  0  0  0  0  0
   11.0483    1.7886   -2.5251 C   0  0  0  0  0  0  0  0  0  0  0  0
   10.6473    2.9125   -1.7931 C   0  0  0  0  0  0  0  0  0  0  0  0
    9.4297    2.9098   -1.1139 C   0  0  0  0  0  0  0  0  0  0  0  0
    6.9500    2.7385    0.3679 N   0  0  0  0  0  0  0  0  0  0  0  0
    5.7055    2.3384    0.8296 O   0  0  0  0  0  0  0  0  0  0  0  0
    3.6779   -0.6455    0.0135 C   0  0  0  0  0  0  0  0  0  0  0  0
    2.4356   -1.0282    0.5926 C   0  0  0  0  0  0  0  0  0  0  0  0
    1.5407   -2.4506   -0.0210 S   0  0  1  0  0  0  0  0  0  0  0  0
    0.2977   -2.5554    0.7542 O   0  0  0  0  0  0  0  0  0  0  0  0
    1.4905   -2.3460   -1.4810 O   0  0  0  0  0  0  0  0  0  0  0  0
    2.5876   -3.7249    0.3645 N   0  0  0  0  0  0  0  0  0  0  0  0
    2.5873   -4.0677    1.7868 C   0  0  0  0  0  0  0  0  0  0  0  0
    2.7052   -4.8757   -0.5844 C   0  0  1  0  0  0  0  0  0  0  0  0
    3.2349   -5.6304    0.0215 H   0  0  0  0  0  0  0  0  0  0  0  0
    1.3552   -5.4785   -0.9952 C   0  0  0  0  0  0  0  0  0  0  0  0
    3.6078   -4.5498   -1.7837 C   0  0  0  0  0  0  0  0  0  0  0  0
    5.0529   -4.2018   -1.3836 C   0  0  0  0  0  0  0  0  0  0  0  0
    5.8877   -3.7070   -2.5157 C   0  0  0  0  0  0  0  0  0  0  0  0
    6.4435   -2.4900   -2.8100 C   0  0  0  0  0  0  0  0  0  0  0  0
    7.0995   -2.6389   -4.0798 C   0  0  0  0  0  0  0  0  0  0  0  0
    6.8925   -3.9325   -4.4602 C   0  0  0  0  0  0  0  0  0  0  0  0
    6.1591   -4.5874   -3.5218 O   0  0  0  0  0  0  0  0  0  0  0  0
    0.6895    0.6509    3.0974 H   0  0  0  0  0  0  0  0  0  0  0  0
    0.6485   -1.1337    2.9760 H   0  0  0  0  0  0  0  0  0  0  0  0
   -0.1633   -0.1673    1.7514 H   0  0  0  0  0  0  0  0  0  0  0  0
    8.3607   -0.2289   -1.9278 H   0  0  0  0  0  0  0  0  0  0  0  0
   10.5351   -0.2217   -3.1404 H   0  0  0  0  0  0  0  0  0  0  0  0
   12.0034    1.7937   -3.0566 H   0  0  0  0  0  0  0  0  0  0  0  0
   11.2880    3.7969   -1.7528 H   0  0  0  0  0  0  0  0  0  0  0  0
    9.1101    3.7829   -0.5420 H   0  0  0  0  0  0  0  0  0  0  0  0
    4.1711   -1.1828   -0.7948 H   0  0  0  0  0  0  0  0  0  0  0  0
    2.6223   -3.1533    2.3970 H   0  0  0  0  0  0  0  0  0  0  0  0
    3.4968   -4.6452    2.0090 H   0  0  0  0  0  0  0  0  0  0  0  0
    1.7022   -4.6525    2.0943 H   0  0  0  0  0  0  0  0  0  0  0  0
    0.7288   -5.6907   -0.1149 H   0  0  0  0  0  0  0  0  0  0  0  0
    1.5132   -6.4252   -1.5351 H   0  0  0  0  0  0  0  0  0  0  0  0
    0.8018   -4.7949   -1.6544 H   0  0  0  0  0  0  0  0  0  0  0  0
    3.1661   -3.7240   -2.3583 H   0  0  0  0  0  0  0  0  0  0  0  0
    3.6198   -5.4283   -2.4498 H   0  0  0  0  0  0  0  0  0  0  0  0
    5.5330   -5.0887   -0.9297 H   0  0  0  0  0  0  0  0  0  0  0  0
    5.0428   -3.4219   -0.6078 H   0  0  0  0  0  0  0  0  0  0  0  0
    6.3893   -1.5931   -2.1941 H   0  0  0  0  0  0  0  0  0  0  0  0
    7.6483   -1.8796   -4.6332 H   0  0  0  0  0  0  0  0  0  0  0  0
    7.1885   -4.5142   -5.3294 H   0  0  0  0  0  0  0  0  0  0  0  0
  1  2  1  0
  1 33  1  0
  1 34  1  0
  1 35  1  0
  2  3  1  0
  2 17  2  0
  3  4  1  0
  4  5  1  0
  4 16  2  0
  5  6  2  0
  5 15  1  0
  6  7  1  0
  7  8  1  0
  7 14  2  0
  8  9  2  0
  8 13  1  0
  9 10  1  0
  9 36  1  0
 10 11  2  0
 10 37  1  0
 11 12  1  0
 11 38  1  0
 12 13  2  0
 12 39  1  0
 13 40  1  0
 14 15  1  0
 16 17  1  0
 16 41  1  0
 17 18  1  0
 18 19  2  0
 18 20  2  0
 18 21  1  6
 21 22  1  0
 21 23  1  0
 22 42  1  0
 22 43  1  0
 22 44  1  0
 23 24  1  1
 23 25  1  0
 23 26  1  0
 25 45  1  0
 25 46  1  0
 25 47  1  0
 26 27  1  0
 26 48  1  0
 26 49  1  0
 27 28  1  0
 27 50  1  0
 27 51  1  0
 28 29  2  0
 28 32  1  0
 29 30  1  0
 29 52  1  0
 30 31  2  0
 30 53  1  0
 31 32  1  0
 31 54  1  0
M  END

