
     RDKit          3D

 51 56  0  0  0  0  0  0  0  0999 V2000
    2.1071   -0.0259   -1.1177 C   0  0  0  0  0  0  0  0  0  0  0  0
    3.3742    0.0027   -0.2347 C   0  0  2  0  0  0  0  0  0  0  0  0
    4.6365    0.1207   -1.1170 C   0  0  0  0  0  0  0  0  0  0  0  0
    3.4446   -1.2232    0.6773 C   0  0  0  0  0  0  0  0  0  0  0  0
    3.5226   -2.5636    0.3231 C   0  0  0  0  0  0  0  0  0  0  0  0
    3.5783   -3.5414    1.3403 C   0  0  0  0  0  0  0  0  0  0  0  0
    3.6593   -4.9317    0.9904 C   0  0  0  0  0  0  0  0  0  0  0  0
    3.7248   -6.0560    0.7059 N   0  0  0  0  0  0  0  0  0  0  0  0
    3.5549   -3.1589    2.6977 C   0  0  0  0  0  0  0  0  0  0  0  0
    3.4766   -1.8120    3.0494 C   0  0  0  0  0  0  0  0  0  0  0  0
    3.4215   -0.8454    2.0385 C   0  0  0  0  0  0  0  0  0  0  0  0
    3.3365    0.6179    2.1123 C   0  0  0  0  0  0  0  0  0  0  0  0
    3.2853    1.4795    3.2139 C   0  0  0  0  0  0  0  0  0  0  0  0
    3.2057    2.8563    2.9928 C   0  0  0  0  0  0  0  0  0  0  0  0
    3.1773    3.3704    1.6860 C   0  0  0  0  0  0  0  0  0  0  0  0
    3.0960    4.7829    1.4768 N   0  0  0  0  0  0  0  0  0  0  0  0
    4.2698    5.5548    1.3715 C   0  0  0  0  0  0  0  0  0  0  0  0
    5.5552    5.0039    1.4701 C   0  0  0  0  0  0  0  0  0  0  0  0
    6.6949    5.8111    1.3581 C   0  0  0  0  0  0  0  0  0  0  0  0
    6.5689    7.1820    1.1461 C   0  0  0  0  0  0  0  0  0  0  0  0
    5.2905    7.7461    1.0461 C   0  0  0  0  0  0  0  0  0  0  0  0
    4.1586    6.9461    1.1568 C   0  0  0  0  0  0  0  0  0  0  0  0
    2.9361    7.5635    1.0483 O   0  0  0  0  0  0  0  0  0  0  0  0
    1.7924    6.8103    1.1586 C   0  0  0  0  0  0  0  0  0  0  0  0
    0.5762    7.4755    1.0494 C   0  0  0  0  0  0  0  0  0  0  0  0
   -0.6291    6.7690    1.1512 C   0  0  0  0  0  0  0  0  0  0  0  0
   -0.5972    5.3927    1.3634 C   0  0  0  0  0  0  0  0  0  0  0  0
    0.6275    4.7212    1.4738 C   0  0  0  0  0  0  0  0  0  0  0  0
    1.8414    5.4154    1.3734 C   0  0  0  0  0  0  0  0  0  0  0  0
    3.2287    2.5027    0.5822 C   0  0  0  0  0  0  0  0  0  0  0  0
    3.3082    1.1296    0.7971 C   0  0  0  0  0  0  0  0  0  0  0  0
    2.1359   -0.8794   -1.8136 H   0  0  0  0  0  0  0  0  0  0  0  0
    2.0315    0.8943   -1.7185 H   0  0  0  0  0  0  0  0  0  0  0  0
    1.1962   -0.1123   -0.5064 H   0  0  0  0  0  0  0  0  0  0  0  0
    4.7069   -0.7306   -1.8127 H   0  0  0  0  0  0  0  0  0  0  0  0
    5.5510    0.1402   -0.5052 H   0  0  0  0  0  0  0  0  0  0  0  0
    4.6055    1.0432   -1.7181 H   0  0  0  0  0  0  0  0  0  0  0  0
    3.5418   -2.8771   -0.7230 H   0  0  0  0  0  0  0  0  0  0  0  0
    3.5988   -3.9290    3.4700 H   0  0  0  0  0  0  0  0  0  0  0  0
    3.4589   -1.5244    4.1031 H   0  0  0  0  0  0  0  0  0  0  0  0
    3.3069    1.0897    4.2345 H   0  0  0  0  0  0  0  0  0  0  0  0
    3.1645    3.5520    3.8335 H   0  0  0  0  0  0  0  0  0  0  0  0
    5.6645    3.9321    1.6372 H   0  0  0  0  0  0  0  0  0  0  0  0
    7.6831    5.3524    1.4395 H   0  0  0  0  0  0  0  0  0  0  0  0
    7.4527    7.8173    1.0579 H   0  0  0  0  0  0  0  0  0  0  0  0
    5.1463    8.8156    0.8805 H   0  0  0  0  0  0  0  0  0  0  0  0
    0.5969    8.5545    0.8835 H   0  0  0  0  0  0  0  0  0  0  0  0
   -1.5800    7.2990    1.0643 H   0  0  0  0  0  0  0  0  0  0  0  0
   -1.5263    4.8239    1.4461 H   0  0  0  0  0  0  0  0  0  0  0  0
    0.6417    3.6439    1.6408 H   0  0  0  0  0  0  0  0  0  0  0  0
    3.2054    2.9260   -0.4248 H   0  0  0  0  0  0  0  0  0  0  0  0
  2  1  1  6
  1 32  1  0
  1 33  1  0
  1 34  1  0
  2  3  1  0
  2  4  1  0
  2 31  1  0
  3 35  1  0
  3 36  1  0
  3 37  1  0
  4  5  2  0
  4 11  1  0
  5  6  1  0
  5 38  1  0
  6  7  1  0
  6  9  2  0
  7  8  3  0
  9 10  1  0
  9 39  1  0
 10 11  2  0
 10 40  1  0
 11 12  1  0
 12 13  2  0
 12 31  1  0
 13 14  1  0
 13 41  1  0
 14 15  2  0
 14 42  1  0
 15 16  1  0
 15 30  1  0
 16 17  1  0
 16 29  1  0
 17 18  2  0
 17 22  1  0
 18 19  1  0
 18 43  1  0
 19 20  2  0
 19 44  1  0
 20 21  1  0
 20 45  1  0
 21 22  2  0
 21 46  1  0
 22 23  1  0
 23 24  1  0
 24 25  2  0
 24 29  1  0
 25 26  1  0
 25 47  1  0
 26 27  2  0
 26 48  1  0
 27 28  1  0
 27 49  1  0
 28 29  2  0
 28 50  1  0
 30 31  2  0
 30 51  1  0
M  END

