
     RDKit          3D

 35 38  0  0  0  0  0  0  0  0999 V2000
    5.6992    3.5743   -4.7657 F   0  0  0  0  0  0  0  0  0  0  0  0
    5.5854    2.6336   -3.8183 C   0  0  0  0  0  0  0  0  0  0  0  0
    5.8730    1.2984   -4.1736 C   0  0  0  0  0  0  0  0  0  0  0  0
    5.7621    0.3194   -3.2112 C   0  0  0  0  0  0  0  0  0  0  0  0
    5.3641    0.6316   -1.8806 C   0  0  0  0  0  0  0  0  0  0  0  0
    5.2435   -0.3809   -0.8882 C   0  0  0  0  0  0  0  0  0  0  0  0
    4.8479   -0.0655    0.3918 C   0  0  0  0  0  0  0  0  0  0  0  0
    4.5569    1.2792    0.7287 C   0  0  0  0  0  0  0  0  0  0  0  0
    4.6603    2.3023   -0.1972 C   0  0  0  0  0  0  0  0  0  0  0  0
    4.3084    3.7172    0.2134 C   0  0  0  0  0  0  0  0  0  0  0  0
    5.4429    4.6330    0.2321 N   0  0  0  0  0  0  0  0  0  0  0  0
    6.7148    4.3368    0.6933 C   0  0  0  0  0  0  0  0  0  0  0  0
    7.5008    5.4622    0.6770 C   0  0  0  0  0  0  0  0  0  0  0  0
    6.6820    6.5375    0.1892 C   0  0  0  0  0  0  0  0  0  0  0  0
    6.9010    7.9069   -0.0545 C   0  0  0  0  0  0  0  0  0  0  0  0
    5.8541    8.6864   -0.5356 C   0  0  0  0  0  0  0  0  0  0  0  0
    4.5824    8.1240   -0.7786 C   0  0  0  0  0  0  0  0  0  0  0  0
    4.3330    6.7729   -0.5481 C   0  0  0  0  0  0  0  0  0  0  0  0
    5.3921    5.9840   -0.0712 C   0  0  0  0  0  0  0  0  0  0  0  0
    5.0741    1.9979   -1.5387 C   0  0  0  0  0  0  0  0  0  0  0  0
    5.1996    2.9936   -2.5483 C   0  0  0  0  0  0  0  0  0  0  0  0
    6.1766    1.0750   -5.1981 H   0  0  0  0  0  0  0  0  0  0  0  0
    5.9803   -0.7214   -3.4640 H   0  0  0  0  0  0  0  0  0  0  0  0
    5.4692   -1.4151   -1.1620 H   0  0  0  0  0  0  0  0  0  0  0  0
    4.7549   -0.8451    1.1515 H   0  0  0  0  0  0  0  0  0  0  0  0
    4.2381    1.5150    1.7480 H   0  0  0  0  0  0  0  0  0  0  0  0
    3.8268    3.6919    1.2070 H   0  0  0  0  0  0  0  0  0  0  0  0
    3.5656    4.1332   -0.4841 H   0  0  0  0  0  0  0  0  0  0  0  0
    6.9626    3.3193    0.9882 H   0  0  0  0  0  0  0  0  0  0  0  0
    8.5474    5.5148    0.9701 H   0  0  0  0  0  0  0  0  0  0  0  0
    7.8824    8.3498    0.1352 H   0  0  0  0  0  0  0  0  0  0  0  0
    6.0133    9.7507   -0.7267 H   0  0  0  0  0  0  0  0  0  0  0  0
    3.7757    8.7603   -1.1514 H   0  0  0  0  0  0  0  0  0  0  0  0
    3.3404    6.3554   -0.7307 H   0  0  0  0  0  0  0  0  0  0  0  0
    5.0133    4.0473   -2.3418 H   0  0  0  0  0  0  0  0  0  0  0  0
  1  2  1  0
  2  3  2  0
  2 21  1  0
  3  4  1  0
  3 22  1  0
  4  5  2  0
  4 23  1  0
  5  6  1  0
  5 20  1  0
  6  7  2  0
  6 24  1  0
  7  8  1  0
  7 25  1  0
  8  9  2  0
  8 26  1  0
  9 10  1  0
  9 20  1  0
 10 11  1  0
 10 27  1  0
 10 28  1  0
 11 12  1  0
 11 19  1  0
 12 13  2  0
 12 29  1  0
 13 14  1  0
 13 30  1  0
 14 15  1  0
 14 19  2  0
 15 16  2  0
 15 31  1  0
 16 17  1  0
 16 32  1  0
 17 18  2  0
 17 33  1  0
 18 19  1  0
 18 34  1  0
 20 21  2  0
 21 35  1  0
M  END

