
     RDKit          3D

 35 36  0  0  0  0  0  0  0  0999 V2000
    5.2876    1.6827   -2.8159 N   0  0  0  0  0  0  0  0  0  0  0  0
    4.2253    0.8770   -2.6325 C   0  0  0  0  0  0  0  0  0  0  0  0
    3.0728    1.1657   -2.9647 O   0  0  0  0  0  0  0  0  0  0  0  0
    4.5242   -0.4269   -1.8980 C   0  0  0  0  0  0  0  0  0  0  0  0
    4.3632   -0.1883   -0.4692 N   0  0  0  0  0  0  0  0  0  0  0  0
    3.0265    0.1820   -0.0097 C   0  0  0  0  0  0  0  0  0  0  0  0
    1.9284   -0.8090   -0.4437 C   0  0  0  0  0  0  0  0  0  0  0  0
    1.5498   -1.7038    0.2713 O   0  0  0  0  0  0  0  0  0  0  0  0
    1.4577   -0.6456   -1.6841 O   0  0  0  0  0  0  0  0  0  0  0  0
    5.2003   -0.9882    0.3880 C   0  0  0  0  0  0  0  0  0  0  0  0
    6.6236   -0.4752    0.3912 C   0  0  0  0  0  0  0  0  0  0  0  0
    7.1680    0.3175   -0.5167 N   0  0  0  0  0  0  0  0  0  0  0  0
    8.4373    0.5549   -0.1202 N   0  0  0  0  0  0  0  0  0  0  0  0
    8.6978   -0.0494    0.9775 N   0  0  0  0  0  0  0  0  0  0  0  0
    7.5723   -0.7221    1.3333 N   0  0  0  0  0  0  0  0  0  0  0  0
    7.5227   -1.4591    2.5550 C   0  0  0  0  0  0  0  0  0  0  0  0
    8.1219   -0.9116    3.6968 C   0  0  0  0  0  0  0  0  0  0  0  0
    8.0851   -1.6248    4.8954 C   0  0  0  0  0  0  0  0  0  0  0  0
    7.4486   -2.8691    4.9600 C   0  0  0  0  0  0  0  0  0  0  0  0
    6.8577   -3.4088    3.8146 C   0  0  0  0  0  0  0  0  0  0  0  0
    6.8998   -2.7115    2.6044 C   0  0  0  0  0  0  0  0  0  0  0  0
    5.1296    2.6206   -3.1689 H   0  0  0  0  0  0  0  0  0  0  0  0
    6.1536    1.4709   -2.3194 H   0  0  0  0  0  0  0  0  0  0  0  0
    5.5590   -0.7327   -2.0902 H   0  0  0  0  0  0  0  0  0  0  0  0
    3.8533   -1.2135   -2.2950 H   0  0  0  0  0  0  0  0  0  0  0  0
    2.7762    1.1934   -0.3728 H   0  0  0  0  0  0  0  0  0  0  0  0
    3.0257    0.2100    1.0873 H   0  0  0  0  0  0  0  0  0  0  0  0
    1.9196    0.0818   -2.1786 H   0  0  0  0  0  0  0  0  0  0  0  0
    5.2044   -2.0655    0.1117 H   0  0  0  0  0  0  0  0  0  0  0  0
    4.8159   -0.9535    1.4187 H   0  0  0  0  0  0  0  0  0  0  0  0
    8.6132    0.0597    3.6306 H   0  0  0  0  0  0  0  0  0  0  0  0
    8.5529   -1.2010    5.7870 H   0  0  0  0  0  0  0  0  0  0  0  0
    7.4172   -3.4198    5.9028 H   0  0  0  0  0  0  0  0  0  0  0  0
    6.3691   -4.3849    3.8548 H   0  0  0  0  0  0  0  0  0  0  0  0
    6.4685   -3.1515    1.7044 H   0  0  0  0  0  0  0  0  0  0  0  0
  1  2  1  0
  1 22  1  0
  1 23  1  0
  2  3  2  0
  2  4  1  0
  4  5  1  0
  4 24  1  0
  4 25  1  0
  5  6  1  0
  5 10  1  0
  6  7  1  0
  6 26  1  0
  6 27  1  0
  7  8  2  0
  7  9  1  0
  9 28  1  0
 10 11  1  0
 10 29  1  0
 10 30  1  0
 11 12  2  0
 11 15  1  0
 12 13  1  0
 13 14  2  0
 14 15  1  0
 15 16  1  0
 16 17  2  0
 16 21  1  0
 17 18  1  0
 17 31  1  0
 18 19  2  0
 18 32  1  0
 19 20  1  0
 19 33  1  0
 20 21  2  0
 20 34  1  0
 21 35  1  0
M  END

