
     RDKit          3D

 60 64  0  0  0  0  0  0  0  0999 V2000
    1.5126   -1.4065   -0.8011 C   0  0  0  0  0  0  0  0  0  0  0  0
    2.7009   -0.9469   -0.2022 O   0  0  0  0  0  0  0  0  0  0  0  0
    2.7556    0.3281    0.2694 C   0  0  0  0  0  0  0  0  0  0  0  0
    1.7002    1.2492    0.2015 C   0  0  0  0  0  0  0  0  0  0  0  0
    1.8860    2.5344    0.7196 C   0  0  0  0  0  0  0  0  0  0  0  0
    3.0899    2.9397    1.3059 C   0  0  0  0  0  0  0  0  0  0  0  0
    4.1465    2.0046    1.3791 C   0  0  0  0  0  0  0  0  0  0  0  0
    3.9668    0.7191    0.8583 C   0  0  0  0  0  0  0  0  0  0  0  0
    5.4747    2.3517    2.0490 C   0  0  2  0  0  0  0  0  0  0  0  0
    5.5343    1.7929    3.5079 C   0  0  0  0  0  0  0  0  0  0  0  0
    5.1432    2.8528    4.5548 C   0  0  0  0  0  0  0  0  0  0  0  0
    4.1211    3.7474    4.0382 N   0  0  0  0  0  0  0  0  0  0  0  0
    3.3834    4.5014    5.0379 C   0  0  0  0  0  0  0  0  0  0  0  0
    4.1371    5.6098    5.7661 C   0  0  1  0  0  0  0  0  0  0  0  0
    4.0879    7.0414    5.2913 C   0  0  0  0  0  0  0  0  0  0  0  0
    3.3674    6.6410    6.5532 C   0  0  0  0  0  0  0  0  0  0  0  0
    4.4440    4.4740    2.7959 C   0  0  2  0  0  0  0  0  0  0  0  0
    3.2724    4.3561    1.8111 C   0  0  0  0  0  0  0  0  0  0  0  0
    5.7176    3.8640    2.1589 C   0  0  2  0  0  0  0  0  0  0  0  0
    6.1425    4.5633    0.9322 N   0  0  0  0  0  0  0  0  0  0  0  0
    5.8773    4.0486   -0.4070 C   0  0  0  0  0  0  0  0  0  0  0  0
    6.8820    5.7131    1.1345 C   0  0  0  0  0  0  0  0  0  0  0  0
    7.1321    6.1200    2.2673 O   0  0  0  0  0  0  0  0  0  0  0  0
    7.3700    6.4491   -0.0694 C   0  0  0  0  0  0  0  0  0  0  0  0
    8.1029    7.5698    0.0932 C   0  0  0  0  0  0  0  0  0  0  0  0
    8.6535    8.4023   -0.9600 C   0  0  0  0  0  0  0  0  0  0  0  0
    8.5660    8.2586   -2.3968 C   0  0  0  0  0  0  0  0  0  0  0  0
    9.2548    9.3054   -2.9278 C   0  0  0  0  0  0  0  0  0  0  0  0
    9.7654   10.0908   -1.9408 O   0  0  0  0  0  0  0  0  0  0  0  0
    9.4001    9.5423   -0.7629 C   0  0  0  0  0  0  0  0  0  0  0  0
    1.6932   -2.4481   -1.1002 H   0  0  0  0  0  0  0  0  0  0  0  0
    1.2474   -0.8191   -1.6995 H   0  0  0  0  0  0  0  0  0  0  0  0
    0.6586   -1.3806   -0.0995 H   0  0  0  0  0  0  0  0  0  0  0  0
    0.7420    0.9828   -0.2450 H   0  0  0  0  0  0  0  0  0  0  0  0
    1.0578    3.2478    0.6635 H   0  0  0  0  0  0  0  0  0  0  0  0
    4.7731   -0.0181    0.9005 H   0  0  0  0  0  0  0  0  0  0  0  0
    6.2858    1.8785    1.4724 H   0  0  0  0  0  0  0  0  0  0  0  0
    6.5550    1.4377    3.7258 H   0  0  0  0  0  0  0  0  0  0  0  0
    4.8659    0.9227    3.5814 H   0  0  0  0  0  0  0  0  0  0  0  0
    6.0552    3.3870    4.9033 H   0  0  0  0  0  0  0  0  0  0  0  0
    4.7346    2.3502    5.4468 H   0  0  0  0  0  0  0  0  0  0  0  0
    3.0056    3.7793    5.7848 H   0  0  0  0  0  0  0  0  0  0  0  0
    2.4860    4.9406    4.5646 H   0  0  0  0  0  0  0  0  0  0  0  0
    5.0866    5.2906    6.2112 H   0  0  0  0  0  0  0  0  0  0  0  0
    3.4790    7.2692    4.4106 H   0  0  0  0  0  0  0  0  0  0  0  0
    4.9953    7.6466    5.3693 H   0  0  0  0  0  0  0  0  0  0  0  0
    2.2734    6.5909    6.5237 H   0  0  0  0  0  0  0  0  0  0  0  0
    3.7695    6.9716    7.5152 H   0  0  0  0  0  0  0  0  0  0  0  0
    4.6588    5.5357    3.0014 H   0  0  0  0  0  0  0  0  0  0  0  0
    3.4435    5.0434    0.9617 H   0  0  0  0  0  0  0  0  0  0  0  0
    2.3429    4.7038    2.2908 H   0  0  0  0  0  0  0  0  0  0  0  0
    6.5442    4.0344    2.8596 H   0  0  0  0  0  0  0  0  0  0  0  0
    5.3111    3.1154   -0.3432 H   0  0  0  0  0  0  0  0  0  0  0  0
    6.8089    3.8349   -0.9568 H   0  0  0  0  0  0  0  0  0  0  0  0
    5.2737    4.7487   -1.0086 H   0  0  0  0  0  0  0  0  0  0  0  0
    7.1353    6.0878   -1.0707 H   0  0  0  0  0  0  0  0  0  0  0  0
    8.2996    7.8771    1.1259 H   0  0  0  0  0  0  0  0  0  0  0  0
    8.0552    7.4755   -2.9524 H   0  0  0  0  0  0  0  0  0  0  0  0
    9.4664    9.6208   -3.9462 H   0  0  0  0  0  0  0  0  0  0  0  0
    9.7318   10.0542    0.1374 H   0  0  0  0  0  0  0  0  0  0  0  0
  1  2  1  0
  1 31  1  0
  1 32  1  0
  1 33  1  0
  2  3  1  0
  3  4  2  0
  3  8  1  0
  4  5  1  0
  4 34  1  0
  5  6  2  0
  5 35  1  0
  6  7  1  0
  6 18  1  0
  7  8  2  0
  7  9  1  0
  8 36  1  0
  9 10  1  0
  9 19  1  0
  9 37  1  6
 10 11  1  0
 10 38  1  0
 10 39  1  0
 11 12  1  0
 11 40  1  0
 11 41  1  0
 12 13  1  0
 12 17  1  0
 13 14  1  0
 13 42  1  0
 13 43  1  0
 14 15  1  0
 14 16  1  0
 14 44  1  1
 15 16  1  0
 15 45  1  0
 15 46  1  0
 16 47  1  0
 16 48  1  0
 17 18  1  0
 17 19  1  0
 17 49  1  1
 18 50  1  0
 18 51  1  0
 19 20  1  0
 19 52  1  1
 20 21  1  0
 20 22  1  0
 21 53  1  0
 21 54  1  0
 21 55  1  0
 22 23  2  0
 22 24  1  0
 24 25  2  0
 24 56  1  0
 25 26  1  0
 25 57  1  0
 26 27  1  0
 26 30  2  0
 27 28  2  0
 27 58  1  0
 28 29  1  0
 28 59  1  0
 29 30  1  0
 30 60  1  0
M  END

