
     RDKit          3D

 67 71  0  0  0  0  0  0  0  0999 V2000
   13.8359    6.5269    0.6429 C   0  0  0  0  0  0  0  0  0  0  0  0
   13.1097    5.6505    1.4719 O   0  0  0  0  0  0  0  0  0  0  0  0
   12.6431    4.4823    0.9601 C   0  0  0  0  0  0  0  0  0  0  0  0
   12.8308    4.0691   -0.3692 C   0  0  0  0  0  0  0  0  0  0  0  0
   12.2993    2.8423   -0.7876 C   0  0  0  0  0  0  0  0  0  0  0  0
   11.5889    2.0263    0.0873 C   0  0  0  0  0  0  0  0  0  0  0  0
   11.4019    2.4427    1.4214 C   0  0  0  0  0  0  0  0  0  0  0  0
   10.6547    1.6188    2.3717 C   0  0  0  0  0  0  0  0  0  0  0  0
   10.3783    1.8659    3.6200 N   0  0  0  0  0  0  0  0  0  0  0  0
    9.6392    0.7822    4.0580 C   0  0  0  0  0  0  0  0  0  0  0  0
    9.1089    0.6888    5.4612 C   0  0  0  0  0  0  0  0  0  0  0  0
    9.7570   -0.4399    6.2713 C   0  0  0  0  0  0  0  0  0  0  0  0
    9.2088   -1.5348    6.3159 O   0  0  0  0  0  0  0  0  0  0  0  0
   10.9560   -0.2157    6.9088 N   0  0  0  0  0  0  0  0  0  0  0  0
   11.6568   -1.3806    7.4465 C   0  0  0  0  0  0  0  0  0  0  0  0
   12.6553   -1.9035    6.4087 C   0  0  0  0  0  0  0  0  0  0  0  0
   13.4295   -0.7830    5.7381 C   0  0  0  0  0  0  0  0  0  0  0  0
   14.5454   -1.0788    4.9378 C   0  0  0  0  0  0  0  0  0  0  0  0
   15.2698   -0.0916    4.2617 C   0  0  0  0  0  0  0  0  0  0  0  0
   16.3444   -0.3635    3.4643 O   0  0  0  0  0  0  0  0  0  0  0  0
   16.7697   -1.6958    3.3029 C   0  0  0  0  0  0  0  0  0  0  0  0
   14.8687    1.2659    4.3930 C   0  0  0  0  0  0  0  0  0  0  0  0
   15.4370    2.3456    3.7965 O   0  0  0  0  0  0  0  0  0  0  0  0
   16.7041    2.3312    3.1654 C   0  0  0  0  0  0  0  0  0  0  0  0
   13.7568    1.5493    5.1894 C   0  0  0  0  0  0  0  0  0  0  0  0
   13.0301    0.5563    5.8564 C   0  0  0  0  0  0  0  0  0  0  0  0
   11.8303    0.9517    6.7155 C   0  0  2  0  0  0  0  0  0  0  0  0
   12.2450    1.5624    8.0688 C   0  0  0  0  0  0  0  0  0  0  0  0
   13.5211    1.3272    8.6094 C   0  0  0  0  0  0  0  0  0  0  0  0
   13.9129    1.8402    9.8473 C   0  0  0  0  0  0  0  0  0  0  0  0
   13.0256    2.6242   10.5863 C   0  0  0  0  0  0  0  0  0  0  0  0
   11.7548    2.8892   10.0763 C   0  0  0  0  0  0  0  0  0  0  0  0
   11.3773    2.3628    8.8368 C   0  0  0  0  0  0  0  0  0  0  0  0
    9.7649    2.7662    8.2709 Cl  0  0  0  0  0  0  0  0  0  0  0  0
    9.5030   -0.1095    3.0249 C   0  0  0  0  0  0  0  0  0  0  0  0
    8.8469   -1.4324    2.8726 C   0  0  0  0  0  0  0  0  0  0  0  0
   10.1505    0.4302    1.9464 O   0  0  0  0  0  0  0  0  0  0  0  0
   11.9301    3.6660    1.8496 C   0  0  0  0  0  0  0  0  0  0  0  0
   14.1086    7.3912    1.2635 H   0  0  0  0  0  0  0  0  0  0  0  0
   13.2339    6.8797   -0.2146 H   0  0  0  0  0  0  0  0  0  0  0  0
   14.7602    6.0597    0.2561 H   0  0  0  0  0  0  0  0  0  0  0  0
   13.3813    4.6863   -1.0791 H   0  0  0  0  0  0  0  0  0  0  0  0
   12.4468    2.5254   -1.8234 H   0  0  0  0  0  0  0  0  0  0  0  0
   11.1768    1.0739   -0.2477 H   0  0  0  0  0  0  0  0  0  0  0  0
    8.0382    0.4405    5.4497 H   0  0  0  0  0  0  0  0  0  0  0  0
    9.2200    1.6671    5.9399 H   0  0  0  0  0  0  0  0  0  0  0  0
   10.9100   -2.1435    7.6929 H   0  0  0  0  0  0  0  0  0  0  0  0
   12.1715   -1.0842    8.3733 H   0  0  0  0  0  0  0  0  0  0  0  0
   12.1009   -2.4707    5.6394 H   0  0  0  0  0  0  0  0  0  0  0  0
   13.3482   -2.6209    6.8809 H   0  0  0  0  0  0  0  0  0  0  0  0
   14.8453   -2.1228    4.8385 H   0  0  0  0  0  0  0  0  0  0  0  0
   17.6384   -1.6666    2.6310 H   0  0  0  0  0  0  0  0  0  0  0  0
   15.9861   -2.3270    2.8458 H   0  0  0  0  0  0  0  0  0  0  0  0
   17.0752   -2.1517    4.2623 H   0  0  0  0  0  0  0  0  0  0  0  0
   16.9197    3.3811    2.9192 H   0  0  0  0  0  0  0  0  0  0  0  0
   16.7033    1.7343    2.2415 H   0  0  0  0  0  0  0  0  0  0  0  0
   17.4940    1.9477    3.8312 H   0  0  0  0  0  0  0  0  0  0  0  0
   13.4646    2.5988    5.2676 H   0  0  0  0  0  0  0  0  0  0  0  0
   11.2680    1.7163    6.1668 H   0  0  0  0  0  0  0  0  0  0  0  0
   14.2278    0.7298    8.0311 H   0  0  0  0  0  0  0  0  0  0  0  0
   14.9149    1.6299   10.2287 H   0  0  0  0  0  0  0  0  0  0  0  0
   13.3181    3.0370   11.5549 H   0  0  0  0  0  0  0  0  0  0  0  0
   11.0445    3.5071   10.6282 H   0  0  0  0  0  0  0  0  0  0  0  0
    8.4534   -1.7598    3.8446 H   0  0  0  0  0  0  0  0  0  0  0  0
    9.5670   -2.1922    2.5250 H   0  0  0  0  0  0  0  0  0  0  0  0
    8.0245   -1.3972    2.1374 H   0  0  0  0  0  0  0  0  0  0  0  0
   11.7892    3.9963    2.8789 H   0  0  0  0  0  0  0  0  0  0  0  0
  1  2  1  0
  1 39  1  0
  1 40  1  0
  1 41  1  0
  2  3  1  0
  3  4  2  0
  3 38  1  0
  4  5  1  0
  4 42  1  0
  5  6  2  0
  5 43  1  0
  6  7  1  0
  6 44  1  0
  7  8  1  0
  7 38  2  0
  8  9  2  0
  8 37  1  0
  9 10  1  0
 10 11  1  0
 10 35  2  0
 11 12  1  0
 11 45  1  0
 11 46  1  0
 12 13  2  0
 12 14  1  0
 14 15  1  0
 14 27  1  0
 15 16  1  0
 15 47  1  0
 15 48  1  0
 16 17  1  0
 16 49  1  0
 16 50  1  0
 17 18  2  0
 17 26  1  0
 18 19  1  0
 18 51  1  0
 19 20  1  0
 19 22  2  0
 20 21  1  0
 21 52  1  0
 21 53  1  0
 21 54  1  0
 22 23  1  0
 22 25  1  0
 23 24  1  0
 24 55  1  0
 24 56  1  0
 24 57  1  0
 25 26  2  0
 25 58  1  0
 26 27  1  0
 27 28  1  0
 27 59  1  6
 28 29  2  0
 28 33  1  0
 29 30  1  0
 29 60  1  0
 30 31  2  0
 30 61  1  0
 31 32  1  0
 31 62  1  0
 32 33  2  0
 32 63  1  0
 33 34  1  0
 35 36  1  0
 35 37  1  0
 36 64  1  0
 36 65  1  0
 36 66  1  0
 38 67  1  0
M  END

