
     RDKit          3D

 50 53  0  0  0  0  0  0  0  0999 V2000
    3.2789    0.7902    0.9605 C   0  0  0  0  0  0  0  0  0  0  0  0
    2.4787   -0.1441    0.1773 N   0  0  0  0  0  0  0  0  0  0  0  0
    1.1253   -0.2950    0.6662 C   0  0  0  0  0  0  0  0  0  0  0  0
    3.0867   -1.2269   -0.4556 C   0  0  0  0  0  0  0  0  0  0  0  0
    2.5394   -2.5217   -0.4037 C   0  0  0  0  0  0  0  0  0  0  0  0
    3.1165   -3.6210   -1.0792 C   0  0  0  0  0  0  0  0  0  0  0  0
    4.3226   -3.4229   -1.7920 C   0  0  0  0  0  0  0  0  0  0  0  0
    4.8736   -2.1299   -1.8559 C   0  0  0  0  0  0  0  0  0  0  0  0
    4.2695   -1.0672   -1.2311 C   0  0  0  0  0  0  0  0  0  0  0  0
    4.8054    0.1643   -1.3769 F   0  0  0  0  0  0  0  0  0  0  0  0
    5.0209   -4.5303   -2.4636 C   0  0  0  0  0  0  0  0  0  0  0  0
    6.0459   -4.3692   -3.1230 O   0  0  0  0  0  0  0  0  0  0  0  0
    4.4139   -5.8500   -2.2397 C   0  0  0  0  0  0  0  0  0  0  0  0
    5.0546   -6.9932   -2.7515 C   0  0  0  0  0  0  0  0  0  0  0  0
    4.5372   -8.2491   -2.5532 C   0  0  0  0  0  0  0  0  0  0  0  0
    5.1572   -9.3050   -3.1260 F   0  0  0  0  0  0  0  0  0  0  0  0
    3.3564   -8.4660   -1.7861 C   0  0  0  0  0  0  0  0  0  0  0  0
    2.8424   -9.7411   -1.5924 N   0  0  0  0  0  0  0  0  0  0  0  0
    3.6944  -10.8915   -1.2734 C   0  0  0  0  0  0  0  0  0  0  0  0
    3.6351  -11.2321    0.2244 C   0  0  0  0  0  0  0  0  0  0  0  0
    2.1910  -11.4437    0.6966 C   0  0  0  0  0  0  0  0  0  0  0  0
    1.3054  -10.2526    0.3051 C   0  0  0  0  0  0  0  0  0  0  0  0
    1.4557   -9.9512   -1.1939 C   0  0  0  0  0  0  0  0  0  0  0  0
    2.7199   -7.3134   -1.2845 C   0  0  0  0  0  0  0  0  0  0  0  0
    3.2053   -6.0082   -1.5193 C   0  0  0  0  0  0  0  0  0  0  0  0
    2.5246   -4.8868   -1.0356 N   0  0  0  0  0  0  0  0  0  0  0  0
    1.1854   -5.0369   -0.4907 C   0  0  0  0  0  0  0  0  0  0  0  0
    3.4053    0.4424    2.0067 H   0  0  0  0  0  0  0  0  0  0  0  0
    2.7796    1.7721    0.9892 H   0  0  0  0  0  0  0  0  0  0  0  0
    4.2699    0.9279    0.5195 H   0  0  0  0  0  0  0  0  0  0  0  0
    0.7119    0.7018    0.8836 H   0  0  0  0  0  0  0  0  0  0  0  0
    1.0533   -0.8939    1.5996 H   0  0  0  0  0  0  0  0  0  0  0  0
    0.4873   -0.7666   -0.0957 H   0  0  0  0  0  0  0  0  0  0  0  0
    1.6641   -2.6767    0.2189 H   0  0  0  0  0  0  0  0  0  0  0  0
    5.7845   -1.9853   -2.4394 H   0  0  0  0  0  0  0  0  0  0  0  0
    5.9643   -6.8557   -3.3387 H   0  0  0  0  0  0  0  0  0  0  0  0
    4.7234  -10.6933   -1.5852 H   0  0  0  0  0  0  0  0  0  0  0  0
    3.3415  -11.7594   -1.8625 H   0  0  0  0  0  0  0  0  0  0  0  0
    4.0978  -10.4076    0.7958 H   0  0  0  0  0  0  0  0  0  0  0  0
    4.2427  -12.1326    0.4172 H   0  0  0  0  0  0  0  0  0  0  0  0
    2.1578  -11.6114    1.7857 H   0  0  0  0  0  0  0  0  0  0  0  0
    1.7875  -12.3608    0.2279 H   0  0  0  0  0  0  0  0  0  0  0  0
    1.5972   -9.3636    0.8919 H   0  0  0  0  0  0  0  0  0  0  0  0
    0.2470  -10.4588    0.5388 H   0  0  0  0  0  0  0  0  0  0  0  0
    0.8488   -9.0890   -1.5015 H   0  0  0  0  0  0  0  0  0  0  0  0
    1.0754  -10.8200   -1.7660 H   0  0  0  0  0  0  0  0  0  0  0  0
    1.8498   -7.4527   -0.6506 H   0  0  0  0  0  0  0  0  0  0  0  0
    0.6669   -5.8590   -0.9990 H   0  0  0  0  0  0  0  0  0  0  0  0
    0.6027   -4.1268   -0.6784 H   0  0  0  0  0  0  0  0  0  0  0  0
    1.1833   -5.2381    0.5960 H   0  0  0  0  0  0  0  0  0  0  0  0
  1  2  1  0
  1 28  1  0
  1 29  1  0
  1 30  1  0
  2  3  1  0
  2  4  1  0
  3 31  1  0
  3 32  1  0
  3 33  1  0
  4  5  2  0
  4  9  1  0
  5  6  1  0
  5 34  1  0
  6  7  2  0
  6 26  1  0
  7  8  1  0
  7 11  1  0
  8  9  2  0
  8 35  1  0
  9 10  1  0
 11 12  2  0
 11 13  1  0
 13 14  1  0
 13 25  2  0
 14 15  2  0
 14 36  1  0
 15 16  1  0
 15 17  1  0
 17 18  1  0
 17 24  2  0
 18 19  1  0
 18 23  1  0
 19 20  1  0
 19 37  1  0
 19 38  1  0
 20 21  1  0
 20 39  1  0
 20 40  1  0
 21 22  1  0
 21 41  1  0
 21 42  1  0
 22 23  1  0
 22 43  1  0
 22 44  1  0
 23 45  1  0
 23 46  1  0
 24 25  1  0
 24 47  1  0
 25 26  1  0
 26 27  1  0
 27 48  1  0
 27 49  1  0
 27 50  1  0
M  END

