
     RDKit          3D

 43 43  0  0  0  0  0  0  0  0999 V2000
    1.3660   -0.3268    0.0171 C   0  0  0  0  0  0  0  0  0  0  0  0
    2.6825    0.3619   -0.3375 C   0  0  0  0  0  0  0  0  0  0  0  0
    3.4144   -0.3080   -1.4088 N   0  0  0  0  0  0  0  0  0  0  0  0
    2.9110   -0.0955   -2.7553 C   0  0  0  0  0  0  0  0  0  0  0  0
    2.9689   -1.3452   -3.6377 C   0  0  0  0  0  0  0  0  0  0  0  0
    2.3930   -1.0701   -4.9439 N   0  0  0  0  0  0  0  0  0  0  0  0
    2.3660   -2.1874   -5.8892 C   0  0  1  0  0  0  0  0  0  0  0  0
    1.3065   -3.2201   -5.4899 C   0  0  0  0  0  0  0  0  0  0  0  0
    2.0957   -1.6429   -7.2931 C   0  0  0  0  0  0  0  0  0  0  0  0
    4.8483   -0.3575   -1.2646 C   0  0  0  0  0  0  0  0  0  0  0  0
    5.3458   -1.6528   -0.6015 C   0  0  1  0  0  0  0  0  0  0  0  0
    4.7256   -1.7835    0.6175 F   0  0  0  0  0  0  0  0  0  0  0  0
    4.9399   -2.7195   -1.3572 F   0  0  0  0  0  0  0  0  0  0  0  0
    6.8483   -1.7060   -0.4114 C   0  0  0  0  0  0  0  0  0  0  0  0
    7.4320   -1.1580    0.7391 C   0  0  0  0  0  0  0  0  0  0  0  0
    8.8207   -1.1628    0.8921 C   0  0  0  0  0  0  0  0  0  0  0  0
    9.6349   -1.7148   -0.1016 C   0  0  0  0  0  0  0  0  0  0  0  0
    9.0550   -2.2659   -1.2483 C   0  0  0  0  0  0  0  0  0  0  0  0
    7.6664   -2.2625   -1.4039 C   0  0  0  0  0  0  0  0  0  0  0  0
    0.8548    0.2096    0.8333 H   0  0  0  0  0  0  0  0  0  0  0  0
    1.5558   -1.3622    0.3390 H   0  0  0  0  0  0  0  0  0  0  0  0
    0.6754   -0.3585   -0.8409 H   0  0  0  0  0  0  0  0  0  0  0  0
    3.3234    0.3627    0.5560 H   0  0  0  0  0  0  0  0  0  0  0  0
    2.4927    1.4306   -0.5875 H   0  0  0  0  0  0  0  0  0  0  0  0
    3.4458    0.7408   -3.2657 H   0  0  0  0  0  0  0  0  0  0  0  0
    1.8575    0.2153   -2.6968 H   0  0  0  0  0  0  0  0  0  0  0  0
    2.3944   -2.1377   -3.1332 H   0  0  0  0  0  0  0  0  0  0  0  0
    4.0141   -1.7248   -3.6938 H   0  0  0  0  0  0  0  0  0  0  0  0
    2.8942   -0.2907   -5.3706 H   0  0  0  0  0  0  0  0  0  0  0  0
    3.3515   -2.7107   -5.9116 H   0  0  0  0  0  0  0  0  0  0  0  0
    0.3096   -2.7507   -5.4641 H   0  0  0  0  0  0  0  0  0  0  0  0
    1.5047   -3.6499   -4.4962 H   0  0  0  0  0  0  0  0  0  0  0  0
    1.2854   -4.0534   -6.2102 H   0  0  0  0  0  0  0  0  0  0  0  0
    1.1292   -1.1136   -7.3197 H   0  0  0  0  0  0  0  0  0  0  0  0
    2.0680   -2.4553   -8.0354 H   0  0  0  0  0  0  0  0  0  0  0  0
    2.8809   -0.9330   -7.6050 H   0  0  0  0  0  0  0  0  0  0  0  0
    5.2474    0.4876   -0.6688 H   0  0  0  0  0  0  0  0  0  0  0  0
    5.3407   -0.2972   -2.2484 H   0  0  0  0  0  0  0  0  0  0  0  0
    6.7945   -0.7415    1.5216 H   0  0  0  0  0  0  0  0  0  0  0  0
    9.2684   -0.7385    1.7944 H   0  0  0  0  0  0  0  0  0  0  0  0
   10.7211   -1.7195    0.0198 H   0  0  0  0  0  0  0  0  0  0  0  0
    9.6865   -2.7064   -2.0240 H   0  0  0  0  0  0  0  0  0  0  0  0
    7.2109   -2.7056   -2.2915 H   0  0  0  0  0  0  0  0  0  0  0  0
  1  2  1  0
  1 20  1  0
  1 21  1  0
  1 22  1  0
  2  3  1  0
  2 23  1  0
  2 24  1  0
  3  4  1  0
  3 10  1  0
  4  5  1  0
  4 25  1  0
  4 26  1  0
  5  6  1  0
  5 27  1  0
  5 28  1  0
  6  7  1  0
  6 29  1  0
  7  8  1  0
  7  9  1  0
  7 30  1  6
  8 31  1  0
  8 32  1  0
  8 33  1  0
  9 34  1  0
  9 35  1  0
  9 36  1  0
 10 11  1  0
 10 37  1  0
 10 38  1  0
 11 12  1  1
 11 13  1  0
 11 14  1  0
 14 15  2  0
 14 19  1  0
 15 16  1  0
 15 39  1  0
 16 17  2  0
 16 40  1  0
 17 18  1  0
 17 41  1  0
 18 19  2  0
 18 42  1  0
 19 43  1  0
M  END

