
     RDKit          3D

 42 43  0  0  0  0  0  0  0  0999 V2000
    1.2511   -0.3882    1.9451 C   0  0  0  0  0  0  0  0  0  0  0  0
    1.3877    0.6654    0.9624 N   0  0  0  0  0  0  0  0  0  0  0  0
    0.2832    0.9768    0.0811 C   0  0  0  0  0  0  0  0  0  0  0  0
    2.5926    1.3346    0.8264 C   0  0  0  0  0  0  0  0  0  0  0  0
    2.7703    2.3446   -0.1523 C   0  0  0  0  0  0  0  0  0  0  0  0
    3.9802    3.0301   -0.2577 C   0  0  0  0  0  0  0  0  0  0  0  0
    5.0517    2.7452    0.5892 C   0  0  0  0  0  0  0  0  0  0  0  0
    4.9087    1.7273    1.5421 C   0  0  0  0  0  0  0  0  0  0  0  0
    6.0464    1.4932    2.5066 C   0  0  0  0  0  0  0  0  0  0  0  0
    6.6057    2.4426    3.0314 O   0  0  0  0  0  0  0  0  0  0  0  0
    6.3980    0.1829    2.8100 N   0  0  0  0  0  0  0  0  0  0  0  0
    6.2758   -0.9130    1.8430 C   0  0  0  0  0  0  0  0  0  0  0  0
    7.4997   -1.0770    0.9311 C   0  0  0  0  0  0  0  0  0  0  0  0
    7.3457   -2.2207   -0.0745 C   0  0  0  0  0  0  0  0  0  0  0  0
    6.1743   -2.0283   -0.9252 N   0  0  0  0  0  0  0  0  0  0  0  0
    7.3924    0.0280    3.8445 C   0  0  1  0  0  0  0  0  0  0  0  0
    7.0172    0.3230    5.2662 C   0  0  0  0  0  0  0  0  0  0  0  0
    7.2395   -1.1034    4.8313 C   0  0  0  0  0  0  0  0  0  0  0  0
    3.6963    1.0376    1.6629 C   0  0  0  0  0  0  0  0  0  0  0  0
    0.2327   -0.7956    1.9041 H   0  0  0  0  0  0  0  0  0  0  0  0
    1.4232   -0.0236    2.9749 H   0  0  0  0  0  0  0  0  0  0  0  0
    1.9549   -1.2239    1.7686 H   0  0  0  0  0  0  0  0  0  0  0  0
   -0.5846    0.3616    0.3520 H   0  0  0  0  0  0  0  0  0  0  0  0
    0.5190    0.7754   -0.9817 H   0  0  0  0  0  0  0  0  0  0  0  0
   -0.0233    2.0368    0.1554 H   0  0  0  0  0  0  0  0  0  0  0  0
    1.9584    2.6052   -0.8302 H   0  0  0  0  0  0  0  0  0  0  0  0
    4.0801    3.8115   -1.0162 H   0  0  0  0  0  0  0  0  0  0  0  0
    5.9874    3.3033    0.5318 H   0  0  0  0  0  0  0  0  0  0  0  0
    5.3928   -0.7553    1.2160 H   0  0  0  0  0  0  0  0  0  0  0  0
    6.1061   -1.8503    2.3992 H   0  0  0  0  0  0  0  0  0  0  0  0
    8.4072   -1.2546    1.5323 H   0  0  0  0  0  0  0  0  0  0  0  0
    7.6699   -0.1294    0.3866 H   0  0  0  0  0  0  0  0  0  0  0  0
    7.2104   -3.1687    0.4772 H   0  0  0  0  0  0  0  0  0  0  0  0
    8.3013   -2.3269   -0.6329 H   0  0  0  0  0  0  0  0  0  0  0  0
    6.2977   -1.2077   -1.5204 H   0  0  0  0  0  0  0  0  0  0  0  0
    6.0471   -2.8222   -1.5520 H   0  0  0  0  0  0  0  0  0  0  0  0
    8.4155    0.3005    3.5547 H   0  0  0  0  0  0  0  0  0  0  0  0
    5.9887    0.6422    5.4513 H   0  0  0  0  0  0  0  0  0  0  0  0
    7.7637    0.8128    5.8965 H   0  0  0  0  0  0  0  0  0  0  0  0
    6.3581   -1.7443    4.7382 H   0  0  0  0  0  0  0  0  0  0  0  0
    8.1436   -1.6256    5.1572 H   0  0  0  0  0  0  0  0  0  0  0  0
    3.6105    0.2738    2.4342 H   0  0  0  0  0  0  0  0  0  0  0  0
  1  2  1  0
  1 20  1  0
  1 21  1  0
  1 22  1  0
  2  3  1  0
  2  4  1  0
  3 23  1  0
  3 24  1  0
  3 25  1  0
  4  5  2  0
  4 19  1  0
  5  6  1  0
  5 26  1  0
  6  7  2  0
  6 27  1  0
  7  8  1  0
  7 28  1  0
  8  9  1  0
  8 19  2  0
  9 10  2  0
  9 11  1  0
 11 12  1  0
 11 16  1  0
 12 13  1  0
 12 29  1  0
 12 30  1  0
 13 14  1  0
 13 31  1  0
 13 32  1  0
 14 15  1  0
 14 33  1  0
 14 34  1  0
 15 35  1  0
 15 36  1  0
 16 17  1  0
 16 18  1  0
 16 37  1  6
 17 18  1  0
 17 38  1  0
 17 39  1  0
 18 40  1  0
 18 41  1  0
 19 42  1  0
M  END

