
     RDKit          3D

 53 56  0  0  0  0  0  0  0  0999 V2000
    2.3236    1.3739    0.4364 C   0  0  0  0  0  0  0  0  0  0  0  0
    3.4545    0.6341   -0.2906 C   0  0  1  0  0  0  0  0  0  0  0  0
    3.2790   -0.8976   -0.2725 C   0  0  0  0  0  0  0  0  0  0  0  0
    2.1644   -1.3792   -1.2078 C   0  0  2  0  0  0  0  0  0  0  0  0
    2.0671   -2.7902   -1.2415 O   0  0  0  0  0  0  0  0  0  0  0  0
    2.3597   -0.8054   -2.6197 C   0  0  0  0  0  0  0  0  0  0  0  0
    2.5257    0.6384   -2.5867 N   0  0  0  0  0  0  0  0  0  0  0  0
    1.8136    1.4707   -3.4243 C   0  0  0  0  0  0  0  0  0  0  0  0
    0.8665    0.9065   -4.1977 N   0  0  0  0  0  0  0  0  0  0  0  0
    0.2110    1.7376   -4.9992 C   0  0  0  0  0  0  0  0  0  0  0  0
    0.4371    3.1168   -5.0610 C   0  0  0  0  0  0  0  0  0  0  0  0
    1.4284    3.6297   -4.1840 C   0  0  0  0  0  0  0  0  0  0  0  0
    1.7753    4.9671   -4.1185 N   0  0  0  0  0  0  0  0  0  0  0  0
    2.9805    5.3793   -3.4067 C   0  0  0  0  0  0  0  0  0  0  0  0
    3.6713    6.5525   -4.1226 C   0  0  2  0  0  0  0  0  0  0  0  0
    4.9179    7.0067   -3.3600 C   0  0  0  0  0  0  0  0  0  0  0  0
    2.6798    7.7042   -4.3475 C   0  0  0  0  0  0  0  0  0  0  0  0
    1.3946    7.2340   -5.0312 C   0  0  2  0  0  0  0  0  0  0  0  0
    0.4428    8.2695   -5.1707 O   0  0  0  0  0  0  0  0  0  0  0  0
    0.8007    6.0373   -4.2770 C   0  0  0  0  0  0  0  0  0  0  0  0
    2.1016    2.7795   -3.3964 N   0  0  0  0  0  0  0  0  0  0  0  0
   -0.5117    3.9239   -6.3427 S   0  0  0  0  0  0  0  0  0  0  0  0
   -0.9493    2.2822   -7.0794 C   0  0  0  0  0  0  0  0  0  0  0  0
   -0.8693    1.2584   -5.9431 C   0  0  0  0  0  0  0  0  0  0  0  0
    3.6145    1.1147   -1.7466 C   0  0  0  0  0  0  0  0  0  0  0  0
    2.2050    1.0026    1.4672 H   0  0  0  0  0  0  0  0  0  0  0  0
    1.3575    1.2532   -0.0778 H   0  0  0  0  0  0  0  0  0  0  0  0
    2.5323    2.4544    0.4891 H   0  0  0  0  0  0  0  0  0  0  0  0
    4.4003    0.8707    0.2286 H   0  0  0  0  0  0  0  0  0  0  0  0
    3.0892   -1.2660    0.7492 H   0  0  0  0  0  0  0  0  0  0  0  0
    4.2238   -1.3689   -0.6085 H   0  0  0  0  0  0  0  0  0  0  0  0
    1.1887   -1.0327   -0.8295 H   0  0  0  0  0  0  0  0  0  0  0  0
    2.9243   -3.1420   -1.5200 H   0  0  0  0  0  0  0  0  0  0  0  0
    1.5062   -1.0538   -3.2585 H   0  0  0  0  0  0  0  0  0  0  0  0
    3.2655   -1.2771   -3.0622 H   0  0  0  0  0  0  0  0  0  0  0  0
    3.6529    4.5170   -3.3375 H   0  0  0  0  0  0  0  0  0  0  0  0
    2.7318    5.6766   -2.3651 H   0  0  0  0  0  0  0  0  0  0  0  0
    3.9851    6.1800   -5.1151 H   0  0  0  0  0  0  0  0  0  0  0  0
    4.6575    7.3730   -2.3522 H   0  0  0  0  0  0  0  0  0  0  0  0
    5.4298    7.8262   -3.8889 H   0  0  0  0  0  0  0  0  0  0  0  0
    5.6393    6.1823   -3.2397 H   0  0  0  0  0  0  0  0  0  0  0  0
    3.1393    8.5144   -4.9376 H   0  0  0  0  0  0  0  0  0  0  0  0
    2.4083    8.1414   -3.3650 H   0  0  0  0  0  0  0  0  0  0  0  0
    1.6248    6.9017   -6.0573 H   0  0  0  0  0  0  0  0  0  0  0  0
    0.2658    8.6362   -4.2932 H   0  0  0  0  0  0  0  0  0  0  0  0
   -0.0994    5.6900   -4.7974 H   0  0  0  0  0  0  0  0  0  0  0  0
    0.4677    6.3876   -3.2736 H   0  0  0  0  0  0  0  0  0  0  0  0
   -0.2197    2.0577   -7.8736 H   0  0  0  0  0  0  0  0  0  0  0  0
   -1.9479    2.3612   -7.5300 H   0  0  0  0  0  0  0  0  0  0  0  0
   -0.6567    0.2422   -6.3067 H   0  0  0  0  0  0  0  0  0  0  0  0
   -1.8241    1.2162   -5.3870 H   0  0  0  0  0  0  0  0  0  0  0  0
    3.6366    2.2085   -1.7999 H   0  0  0  0  0  0  0  0  0  0  0  0
    4.5780    0.7382   -2.1484 H   0  0  0  0  0  0  0  0  0  0  0  0
  1  2  1  0
  1 26  1  0
  1 27  1  0
  1 28  1  0
  2  3  1  0
  2 25  1  0
  2 29  1  1
  3  4  1  0
  3 30  1  0
  3 31  1  0
  4  5  1  0
  4  6  1  0
  4 32  1  1
  5 33  1  0
  6  7  1  0
  6 34  1  0
  6 35  1  0
  7  8  1  0
  7 25  1  0
  8  9  2  0
  8 21  1  0
  9 10  1  0
 10 11  2  0
 10 24  1  0
 11 12  1  0
 11 22  1  0
 12 13  1  0
 12 21  2  0
 13 14  1  0
 13 20  1  0
 14 15  1  0
 14 36  1  0
 14 37  1  0
 15 16  1  0
 15 17  1  0
 15 38  1  6
 16 39  1  0
 16 40  1  0
 16 41  1  0
 17 18  1  0
 17 42  1  0
 17 43  1  0
 18 19  1  0
 18 20  1  0
 18 44  1  6
 19 45  1  0
 20 46  1  0
 20 47  1  0
 22 23  1  0
 23 24  1  0
 23 48  1  0
 23 49  1  0
 24 50  1  0
 24 51  1  0
 25 52  1  0
 25 53  1  0
M  END

