
     RDKit          3D

 50 52  0  0  0  0  0  0  0  0999 V2000
    2.4603   -0.5405    0.6543 C   0  0  0  0  0  0  0  0  0  0  0  0
    3.4769   -1.5616    0.1128 C   0  0  1  0  0  0  0  0  0  0  0  0
    4.9019   -1.1266    0.4939 C   0  0  0  0  0  0  0  0  0  0  0  0
    3.1786   -2.9482    0.7091 C   0  0  0  0  0  0  0  0  0  0  0  0
    3.3466   -1.6786   -1.4308 C   0  0  0  0  0  0  0  0  0  0  0  0
    3.5915   -0.4589   -2.1713 N   0  0  0  0  0  0  0  0  0  0  0  0
    4.6694   -0.2304   -2.9878 C   0  0  0  0  0  0  0  0  0  0  0  0
    4.7585    0.9673   -3.7262 C   0  0  0  0  0  0  0  0  0  0  0  0
    5.9037    1.1239   -4.5319 C   0  0  0  0  0  0  0  0  0  0  0  0
    6.1091    2.2427   -5.2879 N   0  0  0  0  0  0  0  0  0  0  0  0
    7.3015    2.4318   -6.1179 C   0  0  0  0  0  0  0  0  0  0  0  0
    7.2756    3.9289   -6.4437 C   0  0  2  0  0  0  0  0  0  0  0  0
    7.7415    4.1292   -7.4236 H   0  0  0  0  0  0  0  0  0  0  0  0
    7.9766    4.7873   -5.3756 C   0  0  0  0  0  0  0  0  0  0  0  0
    7.5966    6.2665   -5.5032 C   0  0  0  0  0  0  0  0  0  0  0  0
    6.0719    6.4274   -5.4297 C   0  0  0  0  0  0  0  0  0  0  0  0
    5.3444    5.6279   -6.4138 N   0  0  0  0  0  0  0  0  0  0  0  0
    5.7515    4.2329   -6.5073 C   0  0  2  0  0  0  0  0  0  0  0  0
    5.3706    3.8521   -7.4695 H   0  0  0  0  0  0  0  0  0  0  0  0
    5.1643    3.3408   -5.3918 C   0  0  0  0  0  0  0  0  0  0  0  0
    6.8593    0.1754   -4.5943 N   0  0  0  0  0  0  0  0  0  0  0  0
    6.6602   -0.9201   -3.8554 C   0  0  0  0  0  0  0  0  0  0  0  0
    7.6108   -1.8991   -3.9455 N   0  0  0  0  0  0  0  0  0  0  0  0
    5.6191   -1.1751   -3.0493 N   0  0  0  0  0  0  0  0  0  0  0  0
    2.5222   -0.4645    1.7523 H   0  0  0  0  0  0  0  0  0  0  0  0
    1.4259   -0.8274    0.3983 H   0  0  0  0  0  0  0  0  0  0  0  0
    2.6472    0.4664    0.2462 H   0  0  0  0  0  0  0  0  0  0  0  0
    5.0113   -1.0611    1.5893 H   0  0  0  0  0  0  0  0  0  0  0  0
    5.1426   -0.1396    0.0698 H   0  0  0  0  0  0  0  0  0  0  0  0
    5.6508   -1.8394    0.1148 H   0  0  0  0  0  0  0  0  0  0  0  0
    3.2501   -2.9297    1.8088 H   0  0  0  0  0  0  0  0  0  0  0  0
    3.8926   -3.7029    0.3396 H   0  0  0  0  0  0  0  0  0  0  0  0
    2.1634   -3.2906    0.4463 H   0  0  0  0  0  0  0  0  0  0  0  0
    2.3311   -2.0487   -1.6676 H   0  0  0  0  0  0  0  0  0  0  0  0
    4.0639   -2.4238   -1.8006 H   0  0  0  0  0  0  0  0  0  0  0  0
    2.8654    0.2442   -2.1840 H   0  0  0  0  0  0  0  0  0  0  0  0
    3.9827    1.7285   -3.6594 H   0  0  0  0  0  0  0  0  0  0  0  0
    7.2514    1.8117   -7.0333 H   0  0  0  0  0  0  0  0  0  0  0  0
    8.2033    2.1167   -5.5728 H   0  0  0  0  0  0  0  0  0  0  0  0
    9.0686    4.6509   -5.4504 H   0  0  0  0  0  0  0  0  0  0  0  0
    7.6915    4.4273   -4.3704 H   0  0  0  0  0  0  0  0  0  0  0  0
    7.9611    6.6667   -6.4682 H   0  0  0  0  0  0  0  0  0  0  0  0
    8.0809    6.8628   -4.7109 H   0  0  0  0  0  0  0  0  0  0  0  0
    5.7777    7.4811   -5.5622 H   0  0  0  0  0  0  0  0  0  0  0  0
    5.7330    6.1419   -4.4167 H   0  0  0  0  0  0  0  0  0  0  0  0
    5.4158    6.0645   -7.3304 H   0  0  0  0  0  0  0  0  0  0  0  0
    4.1509    2.9914   -5.6549 H   0  0  0  0  0  0  0  0  0  0  0  0
    5.0725    3.8960   -4.4388 H   0  0  0  0  0  0  0  0  0  0  0  0
    8.4865   -1.6638   -4.3913 H   0  0  0  0  0  0  0  0  0  0  0  0
    7.5860   -2.6445   -3.2639 H   0  0  0  0  0  0  0  0  0  0  0  0
  2  1  1  1
  1 25  1  0
  1 26  1  0
  1 27  1  0
  2  3  1  0
  2  4  1  0
  2  5  1  0
  3 28  1  0
  3 29  1  0
  3 30  1  0
  4 31  1  0
  4 32  1  0
  4 33  1  0
  5  6  1  0
  5 34  1  0
  5 35  1  0
  6  7  1  0
  6 36  1  0
  7  8  2  0
  7 24  1  0
  8  9  1  0
  8 37  1  0
  9 10  1  0
  9 21  2  0
 10 11  1  0
 10 20  1  0
 11 12  1  0
 11 38  1  0
 11 39  1  0
 12 13  1  6
 12 14  1  0
 12 18  1  0
 14 15  1  0
 14 40  1  0
 14 41  1  0
 15 16  1  0
 15 42  1  0
 15 43  1  0
 16 17  1  0
 16 44  1  0
 16 45  1  0
 17 18  1  0
 17 46  1  0
 18 19  1  6
 18 20  1  0
 20 47  1  0
 20 48  1  0
 21 22  1  0
 22 23  1  0
 22 24  2  0
 23 49  1  0
 23 50  1  0
M  END

