
     RDKit          3D

 39 39  0  0  0  0  0  0  0  0999 V2000
    2.6044   -0.2866    1.1195 C   0  0  0  0  0  0  0  0  0  0  0  0
    2.3820    0.0034   -0.3710 C   0  0  1  0  0  0  0  0  0  0  0  0
    0.8832    0.0413   -0.7006 C   0  0  0  0  0  0  0  0  0  0  0  0
    3.0519    1.3149   -0.8274 C   0  0  0  0  0  0  0  0  0  0  0  0
    4.5771    1.4305   -0.6416 C   0  0  1  0  0  0  0  0  0  0  0  0
    5.3688    0.3618   -1.4233 C   0  0  0  0  0  0  0  0  0  0  0  0
    5.1383    0.3552   -2.8630 N   0  0  0  0  0  0  0  0  0  0  0  0
    5.9345    1.0212   -3.7318 C   0  0  0  0  0  0  0  0  0  0  0  0
    6.9087    1.6749   -3.3772 O   0  0  0  0  0  0  0  0  0  0  0  0
    5.6360    0.9015   -5.2233 C   0  0  0  0  0  0  0  0  0  0  0  0
    6.7093    1.2692   -6.0489 C   0  0  0  0  0  0  0  0  0  0  0  0
    6.5714    1.2133   -7.4280 C   0  0  0  0  0  0  0  0  0  0  0  0
    7.5867    1.5524   -8.2234 F   0  0  0  0  0  0  0  0  0  0  0  0
    5.3605    0.8037   -7.9838 C   0  0  0  0  0  0  0  0  0  0  0  0
    4.3321    0.4701   -7.2082 N   0  0  0  0  0  0  0  0  0  0  0  0
    4.4552    0.5117   -5.8983 C   0  0  0  0  0  0  0  0  0  0  0  0
    2.9757    0.0614   -5.0357 Cl  0  0  0  0  0  0  0  0  0  0  0  0
    5.0632    2.8485   -0.9793 C   0  0  0  0  0  0  0  0  0  0  0  0
    4.7199    3.8871    0.0805 C   0  0  0  0  0  0  0  0  0  0  0  0
    4.1992    3.6517    1.1372 O   0  0  0  0  0  0  0  0  0  0  0  0
    5.0665    5.1570   -0.2374 O   0  0  0  0  0  0  0  0  0  0  0  0
    2.0686   -1.1990    1.4277 H   0  0  0  0  0  0  0  0  0  0  0  0
    2.2361    0.5475    1.7402 H   0  0  0  0  0  0  0  0  0  0  0  0
    3.6679   -0.4331    1.3651 H   0  0  0  0  0  0  0  0  0  0  0  0
    2.8185   -0.8360   -0.9464 H   0  0  0  0  0  0  0  0  0  0  0  0
    0.3802    0.8527   -0.1474 H   0  0  0  0  0  0  0  0  0  0  0  0
    0.3880   -0.9046   -0.4280 H   0  0  0  0  0  0  0  0  0  0  0  0
    0.7092    0.2148   -1.7752 H   0  0  0  0  0  0  0  0  0  0  0  0
    2.5805    2.1474   -0.2792 H   0  0  0  0  0  0  0  0  0  0  0  0
    2.8195    1.4768   -1.8962 H   0  0  0  0  0  0  0  0  0  0  0  0
    4.8124    1.2680    0.4230 H   0  0  0  0  0  0  0  0  0  0  0  0
    5.1127   -0.6387   -1.0426 H   0  0  0  0  0  0  0  0  0  0  0  0
    6.4468    0.5085   -1.2647 H   0  0  0  0  0  0  0  0  0  0  0  0
    4.3331   -0.1417   -3.2260 H   0  0  0  0  0  0  0  0  0  0  0  0
    7.6371    1.6036   -5.5819 H   0  0  0  0  0  0  0  0  0  0  0  0
    5.2322    0.7541   -9.0701 H   0  0  0  0  0  0  0  0  0  0  0  0
    4.6480    3.1866   -1.9462 H   0  0  0  0  0  0  0  0  0  0  0  0
    6.1580    2.8592   -1.1190 H   0  0  0  0  0  0  0  0  0  0  0  0
    5.4856    5.1838   -1.1098 H   0  0  0  0  0  0  0  0  0  0  0  0
  1  2  1  0
  1 22  1  0
  1 23  1  0
  1 24  1  0
  2  3  1  0
  2  4  1  0
  2 25  1  6
  3 26  1  0
  3 27  1  0
  3 28  1  0
  4  5  1  0
  4 29  1  0
  4 30  1  0
  5  6  1  0
  5 18  1  0
  5 31  1  1
  6  7  1  0
  6 32  1  0
  6 33  1  0
  7  8  1  0
  7 34  1  0
  8  9  2  0
  8 10  1  0
 10 11  2  0
 10 16  1  0
 11 12  1  0
 11 35  1  0
 12 13  1  0
 12 14  2  0
 14 15  1  0
 14 36  1  0
 15 16  2  0
 16 17  1  0
 18 19  1  0
 18 37  1  0
 18 38  1  0
 19 20  2  0
 19 21  1  0
 21 39  1  0
M  END

