
     RDKit          3D

 32 32  0  0  0  0  0  0  0  0999 V2000
    8.3320    1.8101   -3.3214 C   0  0  0  0  0  0  0  0  0  0  0  0
    7.4351    1.1364   -2.4790 O   0  0  0  0  0  0  0  0  0  0  0  0
    7.7348   -0.2201   -2.2932 C   0  0  0  0  0  0  0  0  0  0  0  0
    6.6922   -0.8024   -1.3536 C   0  0  0  0  0  0  0  0  0  0  0  0
    6.9561   -2.1780   -1.1886 O   0  0  0  0  0  0  0  0  0  0  0  0
    6.0595   -2.8443   -0.3237 C   0  0  0  0  0  0  0  0  0  0  0  0
    6.5103   -4.2762   -0.1412 C   0  0  0  0  0  0  0  0  0  0  0  0
    7.7286   -4.2742    0.6026 O   0  0  0  0  0  0  0  0  0  0  0  0
    8.6556   -5.2370    0.3094 C   0  0  0  0  0  0  0  0  0  0  0  0
    9.6539   -4.9269   -0.6549 C   0  0  0  0  0  0  0  0  0  0  0  0
    9.6503   -3.6895   -1.2446 N   0  0  0  0  0  0  0  0  0  0  0  0
   10.6358   -5.8947   -0.9442 C   0  0  0  0  0  0  0  0  0  0  0  0
   10.6198   -7.1238   -0.2869 C   0  0  0  0  0  0  0  0  0  0  0  0
   11.8563   -8.3048   -0.6694 Cl  0  0  0  0  0  0  0  0  0  0  0  0
    9.6543   -7.4422    0.6699 C   0  0  0  0  0  0  0  0  0  0  0  0
    8.6779   -6.4797    0.9481 C   0  0  0  0  0  0  0  0  0  0  0  0
    7.3430   -6.8696    2.2528 Br  0  0  0  0  0  0  0  0  0  0  0  0
    8.0029    2.8568   -3.3946 H   0  0  0  0  0  0  0  0  0  0  0  0
    8.3512    1.3741   -4.3411 H   0  0  0  0  0  0  0  0  0  0  0  0
    9.3674    1.7926   -2.9243 H   0  0  0  0  0  0  0  0  0  0  0  0
    8.7471   -0.3549   -1.8560 H   0  0  0  0  0  0  0  0  0  0  0  0
    7.7172   -0.7773   -3.2538 H   0  0  0  0  0  0  0  0  0  0  0  0
    5.6834   -0.6410   -1.7825 H   0  0  0  0  0  0  0  0  0  0  0  0
    6.7273   -0.2693   -0.3832 H   0  0  0  0  0  0  0  0  0  0  0  0
    5.0329   -2.8331   -0.7432 H   0  0  0  0  0  0  0  0  0  0  0  0
    6.0258   -2.3423    0.6632 H   0  0  0  0  0  0  0  0  0  0  0  0
    6.6576   -4.7524   -1.1263 H   0  0  0  0  0  0  0  0  0  0  0  0
    5.7352   -4.8434    0.4041 H   0  0  0  0  0  0  0  0  0  0  0  0
    8.8285   -3.0995   -1.1318 H   0  0  0  0  0  0  0  0  0  0  0  0
   10.1949   -3.5593   -2.0862 H   0  0  0  0  0  0  0  0  0  0  0  0
   11.4145   -5.6817   -1.6784 H   0  0  0  0  0  0  0  0  0  0  0  0
    9.6601   -8.4044    1.1789 H   0  0  0  0  0  0  0  0  0  0  0  0
  1  2  1  0
  1 18  1  0
  1 19  1  0
  1 20  1  0
  2  3  1  0
  3  4  1  0
  3 21  1  0
  3 22  1  0
  4  5  1  0
  4 23  1  0
  4 24  1  0
  5  6  1  0
  6  7  1  0
  6 25  1  0
  6 26  1  0
  7  8  1  0
  7 27  1  0
  7 28  1  0
  8  9  1  0
  9 10  2  0
  9 16  1  0
 10 11  1  0
 10 12  1  0
 11 29  1  0
 11 30  1  0
 12 13  2  0
 12 31  1  0
 13 14  1  0
 13 15  1  0
 15 16  2  0
 15 32  1  0
 16 17  1  0
M  END

