
     RDKit          3D

122130  0  0  0  0  0  0  0  0999 V2000
   12.9040   -1.0093    0.3963 C   0  0  0  0  0  0  0  0  0  0  0  0
   11.8128   -1.0903   -0.6721 C   0  0  0  0  0  0  0  0  0  0  0  0
   10.4706   -1.6011   -0.1393 C   0  0  0  0  0  0  0  0  0  0  0  0
    9.3725   -1.6812   -1.2041 C   0  0  0  0  0  0  0  0  0  0  0  0
    8.0398   -2.2038   -0.6611 C   0  0  0  0  0  0  0  0  0  0  0  0
    6.8977   -2.2463   -1.6838 C   0  0  0  0  0  0  0  0  0  0  0  0
    7.1375   -3.1413   -2.8103 N   0  0  0  0  0  0  0  0  0  0  0  0
    6.9865   -4.5212   -2.7533 C   0  0  0  0  0  0  0  0  0  0  0  0
    6.6525   -5.1760   -1.7780 O   0  0  0  0  0  0  0  0  0  0  0  0
    7.3044   -5.0239   -4.1046 C   0  0  0  0  0  0  0  0  0  0  0  0
    7.2914   -6.3492   -4.5313 C   0  0  0  0  0  0  0  0  0  0  0  0
    6.9705   -7.3960   -3.7082 N   0  0  0  0  0  0  0  0  0  0  0  0
    6.7287   -7.1728   -2.7442 H   0  0  0  0  0  0  0  0  0  0  0  0
    6.9701   -8.7038   -4.1867 C   0  0  0  0  0  0  0  0  0  0  0  0
    6.6456   -9.8003   -3.3794 C   0  0  0  0  0  0  0  0  0  0  0  0
    6.6574  -11.0980   -3.9040 C   0  0  0  0  0  0  0  0  0  0  0  0
    6.3413  -12.2177   -3.1386 N   0  0  0  0  0  0  0  0  0  0  0  0
    6.0833  -12.1456   -2.1558 H   0  0  0  0  0  0  0  0  0  0  0  0
    6.3599  -13.4712   -3.6903 C   0  0  0  0  0  0  0  0  0  0  0  0
    6.7107  -13.6282   -5.0688 C   0  0  0  0  0  0  0  0  0  0  0  0
    7.0252  -12.5469   -5.8229 O   0  0  0  0  0  0  0  0  0  0  0  0
    6.9995  -11.2876   -5.2546 C   0  0  0  0  0  0  0  0  0  0  0  0
    7.3247  -10.2065   -6.0678 C   0  0  0  0  0  0  0  0  0  0  0  0
    7.3096   -8.9219   -5.5337 C   0  0  0  0  0  0  0  0  0  0  0  0
    7.6386   -7.8752   -6.3739 O   0  0  0  0  0  0  0  0  0  0  0  0
    7.6317   -6.6066   -5.8972 C   0  0  0  0  0  0  0  0  0  0  0  0
    7.9521   -5.5355   -6.7191 C   0  0  0  0  0  0  0  0  0  0  0  0
    8.3438   -5.5321   -8.1646 C   0  0  0  0  0  0  0  0  0  0  0  0
    8.4777   -6.4618   -8.9256 O   0  0  0  0  0  0  0  0  0  0  0  0
    8.5455   -4.1864   -8.4923 N   0  0  0  0  0  0  0  0  0  0  0  0
    8.9654   -3.7428   -9.8163 C   0  0  0  0  0  0  0  0  0  0  0  0
    7.8368   -3.7075  -10.8541 C   0  0  0  0  0  0  0  0  0  0  0  0
    6.7001   -2.7319  -10.5377 C   0  0  0  0  0  0  0  0  0  0  0  0
    5.6213   -2.6866  -11.6240 C   0  0  0  0  0  0  0  0  0  0  0  0
    4.4715   -1.7229  -11.3146 C   0  0  0  0  0  0  0  0  0  0  0  0
    3.3995   -1.6796  -12.4045 C   0  0  0  0  0  0  0  0  0  0  0  0
    8.3503   -3.3145   -7.4053 C   0  0  0  0  0  0  0  0  0  0  0  0
    8.4941   -2.1174   -7.4437 O   0  0  0  0  0  0  0  0  0  0  0  0
    7.9551   -4.1925   -6.2576 C   0  0  0  0  0  0  0  0  0  0  0  0
    7.6282   -3.9361   -4.9401 C   0  0  0  0  0  0  0  0  0  0  0  0
    7.5121   -2.6918   -4.1029 C   0  0  0  0  0  0  0  0  0  0  0  0
    7.6762   -1.5370   -4.3998 O   0  0  0  0  0  0  0  0  0  0  0  0
    6.7217  -14.9040   -5.6142 C   0  0  0  0  0  0  0  0  0  0  0  0
    7.0417  -15.3363   -7.0120 C   0  0  0  0  0  0  0  0  0  0  0  0
    7.3501  -14.6674   -7.9706 O   0  0  0  0  0  0  0  0  0  0  0  0
    6.9049  -16.7292   -7.0113 N   0  0  0  0  0  0  0  0  0  0  0  0
    7.1095  -17.5510   -8.1981 C   0  0  0  0  0  0  0  0  0  0  0  0
    8.5829  -17.8092   -8.5369 C   0  0  0  0  0  0  0  0  0  0  0  0
    9.3635  -18.5835   -7.4715 C   0  0  0  0  0  0  0  0  0  0  0  0
   10.8135  -18.8707   -7.8725 C   0  0  0  0  0  0  0  0  0  0  0  0
   11.6105  -19.6327   -6.8092 C   0  0  0  0  0  0  0  0  0  0  0  0
   13.0562  -19.9196   -7.2170 C   0  0  0  0  0  0  0  0  0  0  0  0
    6.5063  -17.2477   -5.7654 C   0  0  0  0  0  0  0  0  0  0  0  0
    6.3033  -18.4141   -5.5340 O   0  0  0  0  0  0  0  0  0  0  0  0
    6.3963  -16.0610   -4.8578 C   0  0  0  0  0  0  0  0  0  0  0  0
    6.0576  -15.9178   -3.5263 C   0  0  0  0  0  0  0  0  0  0  0  0
    5.6567  -16.8651   -2.4285 C   0  0  0  0  0  0  0  0  0  0  0  0
    5.5126  -18.0605   -2.4438 O   0  0  0  0  0  0  0  0  0  0  0  0
    5.4532  -16.0536   -1.2852 N   0  0  0  0  0  0  0  0  0  0  0  0
    5.0322  -16.5883    0.0050 C   0  0  0  0  0  0  0  0  0  0  0  0
    6.1554  -17.2646    0.8002 C   0  0  0  0  0  0  0  0  0  0  0  0
    7.3092  -16.3411    1.1996 C   0  0  0  0  0  0  0  0  0  0  0  0
    8.3846  -17.0426    2.0347 C   0  0  0  0  0  0  0  0  0  0  0  0
    9.5524  -16.1339    2.4311 C   0  0  0  0  0  0  0  0  0  0  0  0
   10.6207  -16.8406    3.2665 C   0  0  0  0  0  0  0  0  0  0  0  0
    5.6603  -14.7040   -1.5491 C   0  0  0  0  0  0  0  0  0  0  0  0
    5.5369  -13.7796   -0.7615 O   0  0  0  0  0  0  0  0  0  0  0  0
    6.0494  -14.6225   -2.9711 C   0  0  0  0  0  0  0  0  0  0  0  0
   13.8536   -0.6391   -0.0219 H   0  0  0  0  0  0  0  0  0  0  0  0
   13.1011   -1.9977    0.8448 H   0  0  0  0  0  0  0  0  0  0  0  0
   12.6142   -0.3294    1.2152 H   0  0  0  0  0  0  0  0  0  0  0  0
   12.1495   -1.7466   -1.4952 H   0  0  0  0  0  0  0  0  0  0  0  0
   11.6661   -0.0939   -1.1270 H   0  0  0  0  0  0  0  0  0  0  0  0
   10.1330   -0.9455    0.6854 H   0  0  0  0  0  0  0  0  0  0  0  0
   10.6140   -2.5999    0.3143 H   0  0  0  0  0  0  0  0  0  0  0  0
    9.7177   -2.3314   -2.0280 H   0  0  0  0  0  0  0  0  0  0  0  0
    9.2208   -0.6849   -1.6567 H   0  0  0  0  0  0  0  0  0  0  0  0
    7.7029   -1.5610    0.1717 H   0  0  0  0  0  0  0  0  0  0  0  0
    8.1722   -3.2120   -0.2320 H   0  0  0  0  0  0  0  0  0  0  0  0
    6.7266   -1.2496   -2.1166 H   0  0  0  0  0  0  0  0  0  0  0  0
    5.9707   -2.5767   -1.1908 H   0  0  0  0  0  0  0  0  0  0  0  0
    6.3806   -9.6419   -2.3316 H   0  0  0  0  0  0  0  0  0  0  0  0
    7.5885  -10.3645   -7.1139 H   0  0  0  0  0  0  0  0  0  0  0  0
    9.7580   -4.4265  -10.1568 H   0  0  0  0  0  0  0  0  0  0  0  0
    9.3998   -2.7414   -9.6804 H   0  0  0  0  0  0  0  0  0  0  0  0
    7.4385   -4.7287  -10.9815 H   0  0  0  0  0  0  0  0  0  0  0  0
    8.2965   -3.4372  -11.8216 H   0  0  0  0  0  0  0  0  0  0  0  0
    7.1149   -1.7195  -10.3836 H   0  0  0  0  0  0  0  0  0  0  0  0
    6.2308   -3.0092   -9.5766 H   0  0  0  0  0  0  0  0  0  0  0  0
    5.2140   -3.7036  -11.7777 H   0  0  0  0  0  0  0  0  0  0  0  0
    6.0846   -2.4028  -12.5877 H   0  0  0  0  0  0  0  0  0  0  0  0
    4.8812   -0.7084  -11.1585 H   0  0  0  0  0  0  0  0  0  0  0  0
    4.0085   -2.0082  -10.3523 H   0  0  0  0  0  0  0  0  0  0  0  0
    3.8232   -1.3599  -13.3715 H   0  0  0  0  0  0  0  0  0  0  0  0
    2.5897   -0.9777  -12.1488 H   0  0  0  0  0  0  0  0  0  0  0  0
    2.9432   -2.6720  -12.5585 H   0  0  0  0  0  0  0  0  0  0  0  0
    6.6216  -17.0391   -9.0415 H   0  0  0  0  0  0  0  0  0  0  0  0
    6.5825  -18.4979   -8.0095 H   0  0  0  0  0  0  0  0  0  0  0  0
    9.0750  -16.8434   -8.7436 H   0  0  0  0  0  0  0  0  0  0  0  0
    8.6015  -18.3701   -9.4885 H   0  0  0  0  0  0  0  0  0  0  0  0
    8.8440  -19.5331   -7.2505 H   0  0  0  0  0  0  0  0  0  0  0  0
    9.3589  -18.0157   -6.5236 H   0  0  0  0  0  0  0  0  0  0  0  0
   11.3261  -17.9170   -8.0993 H   0  0  0  0  0  0  0  0  0  0  0  0
   10.8244  -19.4463   -8.8172 H   0  0  0  0  0  0  0  0  0  0  0  0
   11.0947  -20.5834   -6.5821 H   0  0  0  0  0  0  0  0  0  0  0  0
   11.6001  -19.0559   -5.8663 H   0  0  0  0  0  0  0  0  0  0  0  0
   13.1006  -20.5283   -8.1358 H   0  0  0  0  0  0  0  0  0  0  0  0
   13.5984  -20.4674   -6.4296 H   0  0  0  0  0  0  0  0  0  0  0  0
   13.6103  -18.9865   -7.4148 H   0  0  0  0  0  0  0  0  0  0  0  0
    4.2274  -17.3141   -0.1868 H   0  0  0  0  0  0  0  0  0  0  0  0
    4.6118  -15.7413    0.5674 H   0  0  0  0  0  0  0  0  0  0  0  0
    6.5363  -18.1210    0.2184 H   0  0  0  0  0  0  0  0  0  0  0  0
    5.6947  -17.6937    1.7078 H   0  0  0  0  0  0  0  0  0  0  0  0
    6.9120  -15.4745    1.7588 H   0  0  0  0  0  0  0  0  0  0  0  0
    7.7780  -15.9205    0.2914 H   0  0  0  0  0  0  0  0  0  0  0  0
    8.7732  -17.9124    1.4727 H   0  0  0  0  0  0  0  0  0  0  0  0
    7.9224  -17.4608    2.9485 H   0  0  0  0  0  0  0  0  0  0  0  0
    9.1614  -15.2643    2.9902 H   0  0  0  0  0  0  0  0  0  0  0  0
   10.0142  -15.7179    1.5169 H   0  0  0  0  0  0  0  0  0  0  0  0
   10.1989  -17.2351    4.2063 H   0  0  0  0  0  0  0  0  0  0  0  0
   11.4440  -16.1586    3.5327 H   0  0  0  0  0  0  0  0  0  0  0  0
   11.0584  -17.6929    2.7200 H   0  0  0  0  0  0  0  0  0  0  0  0
  1  2  1  0
  1 69  1  0
  1 70  1  0
  1 71  1  0
  2  3  1  0
  2 72  1  0
  2 73  1  0
  3  4  1  0
  3 74  1  0
  3 75  1  0
  4  5  1  0
  4 76  1  0
  4 77  1  0
  5  6  1  0
  5 78  1  0
  5 79  1  0
  6  7  1  0
  6 80  1  0
  6 81  1  0
  7  8  1  0
  7 41  1  0
  8  9  2  0
  8 10  1  0
 10 11  2  0
 10 40  1  0
 11 12  1  0
 11 26  1  0
 12 13  1  0
 12 14  1  0
 14 15  2  0
 14 24  1  0
 15 16  1  0
 15 82  1  0
 16 17  1  0
 16 22  2  0
 17 18  1  0
 17 19  1  0
 19 20  2  0
 19 68  1  0
 20 21  1  0
 20 43  1  0
 21 22  1  0
 22 23  1  0
 23 24  2  0
 23 83  1  0
 24 25  1  0
 25 26  1  0
 26 27  2  0
 27 28  1  0
 27 39  1  0
 28 29  2  0
 28 30  1  0
 30 31  1  0
 30 37  1  0
 31 32  1  0
 31 84  1  0
 31 85  1  0
 32 33  1  0
 32 86  1  0
 32 87  1  0
 33 34  1  0
 33 88  1  0
 33 89  1  0
 34 35  1  0
 34 90  1  0
 34 91  1  0
 35 36  1  0
 35 92  1  0
 35 93  1  0
 36 94  1  0
 36 95  1  0
 36 96  1  0
 37 38  2  0
 37 39  1  0
 39 40  2  0
 40 41  1  0
 41 42  2  0
 43 44  1  0
 43 55  2  0
 44 45  2  0
 44 46  1  0
 46 47  1  0
 46 53  1  0
 47 48  1  0
 47 97  1  0
 47 98  1  0
 48 49  1  0
 48 99  1  0
 48100  1  0
 49 50  1  0
 49101  1  0
 49102  1  0
 50 51  1  0
 50103  1  0
 50104  1  0
 51 52  1  0
 51105  1  0
 51106  1  0
 52107  1  0
 52108  1  0
 52109  1  0
 53 54  2  0
 53 55  1  0
 55 56  1  0
 56 57  1  0
 56 68  2  0
 57 58  2  0
 57 59  1  0
 59 60  1  0
 59 66  1  0
 60 61  1  0
 60110  1  0
 60111  1  0
 61 62  1  0
 61112  1  0
 61113  1  0
 62 63  1  0
 62114  1  0
 62115  1  0
 63 64  1  0
 63116  1  0
 63117  1  0
 64 65  1  0
 64118  1  0
 64119  1  0
 65120  1  0
 65121  1  0
 65122  1  0
 66 67  2  0
 66 68  1  0
M  END

