
     RDKit          3D

 37 40  0  0  0  0  0  0  0  0999 V2000
    1.5072   -0.3961    0.5270 O   0  0  0  0  0  0  0  0  0  0  0  0
    1.0043   -1.4776    0.7813 C   0  0  0  0  0  0  0  0  0  0  0  0
   -0.2540   -1.6607    1.3456 N   0  0  0  0  0  0  0  0  0  0  0  0
   -0.5753   -3.0050    1.4721 C   0  0  0  0  0  0  0  0  0  0  0  0
   -1.7618   -3.5689    1.9322 C   0  0  0  0  0  0  0  0  0  0  0  0
   -1.8865   -4.9650    1.9161 C   0  0  0  0  0  0  0  0  0  0  0  0
   -0.8470   -5.7621    1.4297 C   0  0  0  0  0  0  0  0  0  0  0  0
    0.3464   -5.1843    0.9714 C   0  0  0  0  0  0  0  0  0  0  0  0
    0.5201   -3.7944    1.0102 C   0  0  0  0  0  0  0  0  0  0  0  0
    1.5651   -2.8517    0.5931 C   0  0  0  0  0  0  0  0  0  0  0  0
    2.8402   -2.8775    0.0814 C   0  0  0  0  0  0  0  0  0  0  0  0
    3.7575   -3.8527   -0.1040 N   0  0  0  0  0  0  0  0  0  0  0  0
    3.7496   -5.1600    0.5351 C   0  0  0  0  0  0  0  0  0  0  0  0
    3.8234   -6.2636   -0.5194 C   0  0  0  0  0  0  0  0  0  0  0  0
    4.9251   -5.9986   -1.5272 C   0  0  0  0  0  0  0  0  0  0  0  0
    5.4062   -7.0321   -2.3473 C   0  0  0  0  0  0  0  0  0  0  0  0
    6.4098   -6.8016   -3.2873 C   0  0  0  0  0  0  0  0  0  0  0  0
    6.9528   -5.5190   -3.4212 C   0  0  0  0  0  0  0  0  0  0  0  0
    6.4833   -4.4843   -2.6132 C   0  0  0  0  0  0  0  0  0  0  0  0
    5.4712   -4.7088   -1.6675 C   0  0  0  0  0  0  0  0  0  0  0  0
    5.0093   -3.5576   -0.7900 C   0  0  0  0  0  0  0  0  0  0  0  0
   -0.8636   -0.8836    1.5666 H   0  0  0  0  0  0  0  0  0  0  0  0
   -2.5798   -2.9362    2.2855 H   0  0  0  0  0  0  0  0  0  0  0  0
   -2.8100   -5.4278    2.2729 H   0  0  0  0  0  0  0  0  0  0  0  0
   -0.9632   -6.8481    1.3970 H   0  0  0  0  0  0  0  0  0  0  0  0
    1.1174   -5.8391    0.5661 H   0  0  0  0  0  0  0  0  0  0  0  0
    3.1863   -1.8826   -0.2281 H   0  0  0  0  0  0  0  0  0  0  0  0
    2.8667   -5.2533    1.1733 H   0  0  0  0  0  0  0  0  0  0  0  0
    4.6326   -5.2224    1.2006 H   0  0  0  0  0  0  0  0  0  0  0  0
    2.8530   -6.3280   -1.0446 H   0  0  0  0  0  0  0  0  0  0  0  0
    3.9816   -7.2400   -0.0321 H   0  0  0  0  0  0  0  0  0  0  0  0
    4.9825   -8.0352   -2.2407 H   0  0  0  0  0  0  0  0  0  0  0  0
    6.7700   -7.6205   -3.9150 H   0  0  0  0  0  0  0  0  0  0  0  0
    7.7383   -5.3260   -4.1559 H   0  0  0  0  0  0  0  0  0  0  0  0
    6.9056   -3.4802   -2.7183 H   0  0  0  0  0  0  0  0  0  0  0  0
    4.8750   -2.6535   -1.4008 H   0  0  0  0  0  0  0  0  0  0  0  0
    5.8021   -3.3277   -0.0468 H   0  0  0  0  0  0  0  0  0  0  0  0
  1  2  2  0
  2  3  1  0
  2 10  1  0
  3  4  1  0
  3 22  1  0
  4  5  2  0
  4  9  1  0
  5  6  1  0
  5 23  1  0
  6  7  2  0
  6 24  1  0
  7  8  1  0
  7 25  1  0
  8  9  2  0
  8 26  1  0
  9 10  1  0
 10 11  2  0
 11 12  1  0
 11 27  1  0
 12 13  1  0
 12 21  1  0
 13 14  1  0
 13 28  1  0
 13 29  1  0
 14 15  1  0
 14 30  1  0
 14 31  1  0
 15 16  2  0
 15 20  1  0
 16 17  1  0
 16 32  1  0
 17 18  2  0
 17 33  1  0
 18 19  1  0
 18 34  1  0
 19 20  2  0
 19 35  1  0
 20 21  1  0
 21 36  1  0
 21 37  1  0
M  END

