
     RDKit          3D

 27 27  0  0  0  0  0  0  0  0999 V2000
    0.8919    0.2334    0.0370 C   0  0  0  0  0  0  0  0  0  0  0  0
    2.4148    0.0376   -0.0605 C   0  0  1  0  0  0  0  0  0  0  0  0
    3.1207    0.2718    1.2069 N   0  0  0  0  0  0  0  0  0  0  0  0
    2.7819   -1.3698   -0.5829 C   0  0  0  0  0  0  0  0  0  0  0  0
    2.1540   -2.6896    0.5329 S   0  0  0  0  0  0  0  0  0  0  0  0
    3.1124   -4.1081    0.0782 C   0  0  0  0  0  0  0  0  0  0  0  0
    3.9185   -4.2120   -1.0656 C   0  0  0  0  0  0  0  0  0  0  0  0
    4.5979   -5.4131   -1.2977 C   0  0  0  0  0  0  0  0  0  0  0  0
    4.5267   -6.4822   -0.5041 N   0  0  0  0  0  0  0  0  0  0  0  0
    3.7495   -6.3799    0.5792 C   0  0  0  0  0  0  0  0  0  0  0  0
    3.0309   -5.2339    0.9177 C   0  0  0  0  0  0  0  0  0  0  0  0
    2.9568    1.0053   -1.1619 C   0  0  0  0  0  0  0  0  0  0  0  0
    4.1035    1.6383   -0.8248 N   0  0  0  0  0  0  0  0  0  0  0  0
    2.3846    1.1272   -2.2314 O   0  0  0  0  0  0  0  0  0  0  0  0
    0.4450   -0.4868    0.7396 H   0  0  0  0  0  0  0  0  0  0  0  0
    0.4228    0.1156   -0.9493 H   0  0  0  0  0  0  0  0  0  0  0  0
    0.6629    1.2505    0.3947 H   0  0  0  0  0  0  0  0  0  0  0  0
    3.0991   -0.5717    1.7821 H   0  0  0  0  0  0  0  0  0  0  0  0
    2.6520    1.0025    1.7433 H   0  0  0  0  0  0  0  0  0  0  0  0
    3.8774   -1.4565   -0.6316 H   0  0  0  0  0  0  0  0  0  0  0  0
    2.3653   -1.4965   -1.5915 H   0  0  0  0  0  0  0  0  0  0  0  0
    4.0211   -3.3936   -1.7781 H   0  0  0  0  0  0  0  0  0  0  0  0
    5.2327   -5.5043   -2.1877 H   0  0  0  0  0  0  0  0  0  0  0  0
    3.6939   -7.2623    1.2282 H   0  0  0  0  0  0  0  0  0  0  0  0
    2.4211   -5.2139    1.8242 H   0  0  0  0  0  0  0  0  0  0  0  0
    4.5056    1.4408    0.0867 H   0  0  0  0  0  0  0  0  0  0  0  0
    4.5461    2.2542   -1.4953 H   0  0  0  0  0  0  0  0  0  0  0  0
  1  2  1  0
  1 15  1  0
  1 16  1  0
  1 17  1  0
  2  3  1  0
  2  4  1  0
  2 12  1  6
  3 18  1  0
  3 19  1  0
  4  5  1  0
  4 20  1  0
  4 21  1  0
  5  6  1  0
  6  7  2  0
  6 11  1  0
  7  8  1  0
  7 22  1  0
  8  9  2  0
  8 23  1  0
  9 10  1  0
 10 11  2  0
 10 24  1  0
 11 25  1  0
 12 13  1  0
 12 14  2  0
 13 26  1  0
 13 27  1  0
M  END

