
     RDKit          3D

 60 63  0  0  0  0  0  0  0  0999 V2000
   -0.1196   -1.5430   -3.1953 C   0  0  0  0  0  0  0  0  0  0  0  0
    0.6747   -2.1245   -2.1820 O   0  0  0  0  0  0  0  0  0  0  0  0
    2.0144   -1.9069   -2.1811 C   0  0  0  0  0  0  0  0  0  0  0  0
    2.6833   -1.1815   -3.1703 C   0  0  0  0  0  0  0  0  0  0  0  0
    4.0818   -1.0429   -3.1167 C   0  0  0  0  0  0  0  0  0  0  0  0
    4.7912   -0.2556   -4.1674 C   0  0  0  0  0  0  0  0  0  0  0  0
    4.5058    1.1177   -4.3362 C   0  0  0  0  0  0  0  0  0  0  0  0
    3.5570    1.7943   -3.5015 C   0  0  0  0  0  0  0  0  0  0  0  0
    2.7889    2.3698   -2.8465 N   0  0  0  0  0  0  0  0  0  0  0  0
    5.1954    1.8401   -5.3497 C   0  0  0  0  0  0  0  0  0  0  0  0
    4.8457    3.5691   -5.5591 S   0  0  0  0  0  0  0  0  0  0  0  0
    5.9796    3.9785   -6.9551 C   0  0  0  0  0  0  0  0  0  0  0  0
    5.8044    5.4297   -7.3194 C   0  0  0  0  0  0  0  0  0  0  0  0
    4.8244    5.8294   -8.2413 C   0  0  0  0  0  0  0  0  0  0  0  0
    4.6599    7.1739   -8.5686 C   0  0  0  0  0  0  0  0  0  0  0  0
    5.4692    8.1509   -7.9782 C   0  0  0  0  0  0  0  0  0  0  0  0
    5.2440    9.8208   -8.4104 Cl  0  0  0  0  0  0  0  0  0  0  0  0
    6.4498    7.7642   -7.0493 C   0  0  0  0  0  0  0  0  0  0  0  0
    7.4821    8.9417   -6.2895 Cl  0  0  0  0  0  0  0  0  0  0  0  0
    6.6068    6.4129   -6.7262 C   0  0  0  0  0  0  0  0  0  0  0  0
    6.0901    1.2620   -6.1343 N   0  0  0  0  0  0  0  0  0  0  0  0
    6.3629   -0.0427   -5.9898 C   0  0  0  0  0  0  0  0  0  0  0  0
    5.7415   -0.8522   -5.0242 C   0  0  0  0  0  0  0  0  0  0  0  0
    6.0771   -2.3286   -4.9397 C   0  0  0  0  0  0  0  0  0  0  0  0
    6.7097   -2.8297   -6.1475 N   0  0  0  0  0  0  0  0  0  0  0  0
    7.0173   -4.2417   -6.0510 C   0  0  0  0  0  0  0  0  0  0  0  0
    7.8459   -2.0109   -6.5356 C   0  0  0  0  0  0  0  0  0  0  0  0
    7.3620   -0.6269   -6.9577 C   0  0  0  0  0  0  0  0  0  0  0  0
    4.7904   -1.6276   -2.0681 C   0  0  0  0  0  0  0  0  0  0  0  0
    4.1296   -2.3479   -1.0565 C   0  0  0  0  0  0  0  0  0  0  0  0
    4.9435   -2.8907   -0.1184 O   0  0  0  0  0  0  0  0  0  0  0  0
    4.5172   -3.1472    1.2099 C   0  0  0  0  0  0  0  0  0  0  0  0
    2.7284   -2.4986   -1.1060 C   0  0  0  0  0  0  0  0  0  0  0  0
    2.0917   -3.2746   -0.1802 O   0  0  0  0  0  0  0  0  0  0  0  0
    1.1207   -2.6607    0.6602 C   0  0  0  0  0  0  0  0  0  0  0  0
   -1.1574   -1.8285   -2.9778 H   0  0  0  0  0  0  0  0  0  0  0  0
    0.1530   -1.9238   -4.1955 H   0  0  0  0  0  0  0  0  0  0  0  0
   -0.0395   -0.4419   -3.1960 H   0  0  0  0  0  0  0  0  0  0  0  0
    2.1306   -0.7296   -3.9917 H   0  0  0  0  0  0  0  0  0  0  0  0
    5.7378    3.3131   -7.7944 H   0  0  0  0  0  0  0  0  0  0  0  0
    7.0068    3.7549   -6.6383 H   0  0  0  0  0  0  0  0  0  0  0  0
    4.1819    5.0800   -8.7100 H   0  0  0  0  0  0  0  0  0  0  0  0
    3.9013    7.4848   -9.2887 H   0  0  0  0  0  0  0  0  0  0  0  0
    7.3729    6.1362   -5.9994 H   0  0  0  0  0  0  0  0  0  0  0  0
    5.1538   -2.9007   -4.7537 H   0  0  0  0  0  0  0  0  0  0  0  0
    6.7224   -2.5065   -4.0456 H   0  0  0  0  0  0  0  0  0  0  0  0
    6.1025   -4.8135   -5.8275 H   0  0  0  0  0  0  0  0  0  0  0  0
    7.7620   -4.4776   -5.2555 H   0  0  0  0  0  0  0  0  0  0  0  0
    7.4193   -4.6074   -7.0089 H   0  0  0  0  0  0  0  0  0  0  0  0
    8.3669   -2.4961   -7.3755 H   0  0  0  0  0  0  0  0  0  0  0  0
    8.5922   -1.9214   -5.7095 H   0  0  0  0  0  0  0  0  0  0  0  0
    6.8733   -0.6922   -7.9458 H   0  0  0  0  0  0  0  0  0  0  0  0
    8.2004    0.0789   -7.0699 H   0  0  0  0  0  0  0  0  0  0  0  0
    5.8720   -1.5215   -1.9787 H   0  0  0  0  0  0  0  0  0  0  0  0
    5.4363   -3.2930    1.7957 H   0  0  0  0  0  0  0  0  0  0  0  0
    3.8906   -4.0476    1.2773 H   0  0  0  0  0  0  0  0  0  0  0  0
    3.9635   -2.2902    1.6307 H   0  0  0  0  0  0  0  0  0  0  0  0
    0.8343   -3.4148    1.4069 H   0  0  0  0  0  0  0  0  0  0  0  0
    0.2308   -2.3510    0.0938 H   0  0  0  0  0  0  0  0  0  0  0  0
    1.5421   -1.7817    1.1810 H   0  0  0  0  0  0  0  0  0  0  0  0
  1  2  1  0
  1 36  1  0
  1 37  1  0
  1 38  1  0
  2  3  1  0
  3  4  2  0
  3 33  1  0
  4  5  1  0
  4 39  1  0
  5  6  1  0
  5 29  2  0
  6  7  2  0
  6 23  1  0
  7  8  1  0
  7 10  1  0
  8  9  3  0
 10 11  1  0
 10 21  2  0
 11 12  1  0
 12 13  1  0
 12 40  1  0
 12 41  1  0
 13 14  2  0
 13 20  1  0
 14 15  1  0
 14 42  1  0
 15 16  2  0
 15 43  1  0
 16 17  1  0
 16 18  1  0
 18 19  1  0
 18 20  2  0
 20 44  1  0
 21 22  1  0
 22 23  2  0
 22 28  1  0
 23 24  1  0
 24 25  1  0
 24 45  1  0
 24 46  1  0
 25 26  1  0
 25 27  1  0
 26 47  1  0
 26 48  1  0
 26 49  1  0
 27 28  1  0
 27 50  1  0
 27 51  1  0
 28 52  1  0
 28 53  1  0
 29 30  1  0
 29 54  1  0
 30 31  1  0
 30 33  2  0
 31 32  1  0
 32 55  1  0
 32 56  1  0
 32 57  1  0
 33 34  1  0
 34 35  1  0
 35 58  1  0
 35 59  1  0
 35 60  1  0
M  END

