
     RDKit          3D

 62 67  0  0  0  0  0  0  0  0999 V2000
    0.7182    0.9920    1.6664 C   0  0  0  0  0  0  0  0  0  0  0  0
    2.1246    0.8199    1.1483 C   0  0  0  0  0  0  0  0  0  0  0  0
    3.0457   -0.0216    1.7889 C   0  0  0  0  0  0  0  0  0  0  0  0
    4.3457   -0.1790    1.3033 C   0  0  0  0  0  0  0  0  0  0  0  0
    4.7751    0.5132    0.1577 C   0  0  0  0  0  0  0  0  0  0  0  0
    6.1583    0.3493   -0.3572 C   0  0  0  0  0  0  0  0  0  0  0  0
    6.6434   -0.9341   -0.6779 C   0  0  0  0  0  0  0  0  0  0  0  0
    5.9729   -2.1927   -0.6861 C   0  0  0  0  0  0  0  0  0  0  0  0
    6.8760   -3.1341   -1.1415 C   0  0  0  0  0  0  0  0  0  0  0  0
    8.0996   -2.4544   -1.4220 C   0  0  0  0  0  0  0  0  0  0  0  0
    9.3373   -2.9949   -1.9340 C   0  0  0  0  0  0  0  0  0  0  0  0
    9.5788   -4.3197   -2.1002 C   0  0  0  0  0  0  0  0  0  0  0  0
   10.8019   -4.9282   -2.6209 C   0  0  0  0  0  0  0  0  0  0  0  0
   10.8704   -6.3331   -2.7353 C   0  0  0  0  0  0  0  0  0  0  0  0
   12.0131   -6.9648   -3.2268 C   0  0  0  0  0  0  0  0  0  0  0  0
   13.1198   -6.2051   -3.6164 C   0  0  0  0  0  0  0  0  0  0  0  0
   13.0710   -4.8088   -3.5087 C   0  0  0  0  0  0  0  0  0  0  0  0
   11.9307   -4.1774   -3.0187 C   0  0  0  0  0  0  0  0  0  0  0  0
    7.9363   -1.1326   -1.1394 N   0  0  0  0  0  0  0  0  0  0  0  0
    9.0320   -0.0157   -1.2027 B   0  0  1  0  0  0  0  0  0  0  0  0
    9.9442   -0.1817   -0.1727 F   0  0  0  0  0  0  0  0  0  0  0  0
    9.6806   -0.0545   -2.4382 F   0  0  0  0  0  0  0  0  0  0  0  0
    8.2800    1.3490   -1.0358 N   0  0  0  0  0  0  0  0  0  0  0  0
    8.8338    2.5899   -1.1202 C   0  0  0  0  0  0  0  0  0  0  0  0
   10.1767    2.8097   -1.6037 C   0  0  0  0  0  0  0  0  0  0  0  0
   10.8054    4.0119   -1.5882 C   0  0  0  0  0  0  0  0  0  0  0  0
   12.1544    4.3009   -2.0721 C   0  0  0  0  0  0  0  0  0  0  0  0
   13.0041    3.3177   -2.6267 C   0  0  0  0  0  0  0  0  0  0  0  0
   14.2811    3.6479   -3.0732 C   0  0  0  0  0  0  0  0  0  0  0  0
   14.7481    4.9658   -2.9800 C   0  0  0  0  0  0  0  0  0  0  0  0
   13.9222    5.9519   -2.4332 C   0  0  0  0  0  0  0  0  0  0  0  0
   12.6428    5.6219   -1.9852 C   0  0  0  0  0  0  0  0  0  0  0  0
    7.8758    3.5476   -0.6704 C   0  0  0  0  0  0  0  0  0  0  0  0
    6.7362    2.8557   -0.3068 C   0  0  0  0  0  0  0  0  0  0  0  0
    6.9872    1.4727   -0.5469 C   0  0  0  0  0  0  0  0  0  0  0  0
    3.8535    1.3610   -0.4869 C   0  0  0  0  0  0  0  0  0  0  0  0
    2.5551    1.5048   -0.0011 C   0  0  0  0  0  0  0  0  0  0  0  0
    0.5342    0.3706    2.5549 H   0  0  0  0  0  0  0  0  0  0  0  0
   -0.0261    0.7162    0.9008 H   0  0  0  0  0  0  0  0  0  0  0  0
    0.5199    2.0414    1.9420 H   0  0  0  0  0  0  0  0  0  0  0  0
    2.7433   -0.5629    2.6897 H   0  0  0  0  0  0  0  0  0  0  0  0
    5.0460   -0.8296    1.8314 H   0  0  0  0  0  0  0  0  0  0  0  0
    4.9340   -2.3532   -0.4088 H   0  0  0  0  0  0  0  0  0  0  0  0
    6.6934   -4.1954   -1.2927 H   0  0  0  0  0  0  0  0  0  0  0  0
   10.0954   -2.2589   -2.2035 H   0  0  0  0  0  0  0  0  0  0  0  0
    8.7972   -5.0335   -1.8192 H   0  0  0  0  0  0  0  0  0  0  0  0
   10.0078   -6.9330   -2.4316 H   0  0  0  0  0  0  0  0  0  0  0  0
   12.0403   -8.0547   -3.3059 H   0  0  0  0  0  0  0  0  0  0  0  0
   14.0173   -6.6957   -4.0013 H   0  0  0  0  0  0  0  0  0  0  0  0
   13.9331   -4.2081   -3.8098 H   0  0  0  0  0  0  0  0  0  0  0  0
   11.9151   -3.0886   -2.9407 H   0  0  0  0  0  0  0  0  0  0  0  0
   10.6777    1.9309   -2.0110 H   0  0  0  0  0  0  0  0  0  0  0  0
   10.2748    4.8746   -1.1714 H   0  0  0  0  0  0  0  0  0  0  0  0
   12.6612    2.2842   -2.7059 H   0  0  0  0  0  0  0  0  0  0  0  0
   14.9218    2.8710   -3.4981 H   0  0  0  0  0  0  0  0  0  0  0  0
   15.7512    5.2196   -3.3317 H   0  0  0  0  0  0  0  0  0  0  0  0
   14.2765    6.9830   -2.3547 H   0  0  0  0  0  0  0  0  0  0  0  0
   12.0014    6.3979   -1.5576 H   0  0  0  0  0  0  0  0  0  0  0  0
    8.0255    4.6242   -0.6360 H   0  0  0  0  0  0  0  0  0  0  0  0
    5.8111    3.2691    0.0870 H   0  0  0  0  0  0  0  0  0  0  0  0
    4.1551    1.8915   -1.3925 H   0  0  0  0  0  0  0  0  0  0  0  0
    1.8568    2.1601   -0.5301 H   0  0  0  0  0  0  0  0  0  0  0  0
  1  2  1  0
  1 38  1  0
  1 39  1  0
  1 40  1  0
  2  3  2  0
  2 37  1  0
  3  4  1  0
  3 41  1  0
  4  5  2  0
  4 42  1  0
  5  6  1  0
  5 36  1  0
  6  7  1  0
  6 35  2  0
  7  8  2  0
  7 19  1  0
  8  9  1  0
  8 43  1  0
  9 10  2  0
  9 44  1  0
 10 11  1  0
 10 19  1  0
 11 12  2  0
 11 45  1  0
 12 13  1  0
 12 46  1  0
 13 14  2  0
 13 18  1  0
 14 15  1  0
 14 47  1  0
 15 16  2  0
 15 48  1  0
 16 17  1  0
 16 49  1  0
 17 18  2  0
 17 50  1  0
 18 51  1  0
 19 20  1  0
 20 21  1  1
 20 22  1  0
 20 23  1  0
 23 24  2  0
 23 35  1  0
 24 25  1  0
 24 33  1  0
 25 26  2  0
 25 52  1  0
 26 27  1  0
 26 53  1  0
 27 28  2  0
 27 32  1  0
 28 29  1  0
 28 54  1  0
 29 30  2  0
 29 55  1  0
 30 31  1  0
 30 56  1  0
 31 32  2  0
 31 57  1  0
 32 58  1  0
 33 34  2  0
 33 59  1  0
 34 35  1  0
 34 60  1  0
 36 37  2  0
 36 61  1  0
 37 62  1  0
M  CHG  2  20  -1  23   1
M  END

