
     RDKit          3D

 54 57  0  0  0  0  0  0  0  0999 V2000
    0.8260    0.2503    0.6274 C   0  0  0  0  0  0  0  0  0  0  0  0
    2.3196    0.2228    0.4302 C   0  0  0  0  0  0  0  0  0  0  0  0
    3.0364    1.3863    0.1597 C   0  0  0  0  0  0  0  0  0  0  0  0
    4.4409    1.2552   -0.0054 C   0  0  0  0  0  0  0  0  0  0  0  0
    5.2598    2.3228   -0.3022 N   0  0  0  0  0  0  0  0  0  0  0  0
    6.7134    2.2019   -0.1827 C   0  0  0  0  0  0  0  0  0  0  0  0
    7.4182    3.0416   -1.2558 C   0  0  0  0  0  0  0  0  0  0  0  0
    6.9877    4.4339   -1.2887 N   0  0  0  0  0  0  0  0  0  0  0  0
    7.5630    5.2879   -0.2661 C   0  0  0  0  0  0  0  0  0  0  0  0
    5.5414    4.5021   -1.4185 C   0  0  0  0  0  0  0  0  0  0  0  0
    4.7698    3.6951   -0.3573 C   0  0  0  0  0  0  0  0  0  0  0  0
    5.0211    0.0541    0.1199 N   0  0  0  0  0  0  0  0  0  0  0  0
    4.2402   -1.0062    0.3768 C   0  0  0  0  0  0  0  0  0  0  0  0
    4.8544   -2.2350    0.4802 N   0  0  0  0  0  0  0  0  0  0  0  0
    4.1217   -3.4352    0.8592 C   0  0  0  0  0  0  0  0  0  0  0  0
    4.4579   -4.5878   -0.0898 C   0  0  0  0  0  0  0  0  0  0  0  0
    5.9089   -4.7793   -0.2159 N   0  0  0  0  0  0  0  0  0  0  0  0
    6.6635   -5.9593    0.7168 S   0  0  1  0  0  0  0  0  0  0  0  0
    7.9335   -5.4135    1.2194 O   0  0  0  0  0  0  0  0  0  0  0  0
    5.6618   -6.5190    1.6298 O   0  0  0  0  0  0  0  0  0  0  0  0
    7.0793   -7.2450   -0.4549 C   0  0  1  0  0  0  0  0  0  0  0  0
    8.3562   -7.1585   -1.2448 C   0  0  0  0  0  0  0  0  0  0  0  0
    8.2338   -8.1521   -0.1221 C   0  0  0  0  0  0  0  0  0  0  0  0
    6.6438   -3.5552   -0.5556 C   0  0  0  0  0  0  0  0  0  0  0  0
    6.2957   -2.4059    0.3962 C   0  0  0  0  0  0  0  0  0  0  0  0
    2.9073   -0.9753    0.5367 N   0  0  0  0  0  0  0  0  0  0  0  0
    0.4104    1.2631    0.5301 H   0  0  0  0  0  0  0  0  0  0  0  0
    0.5719   -0.1475    1.6231 H   0  0  0  0  0  0  0  0  0  0  0  0
    0.3386   -0.4084   -0.1093 H   0  0  0  0  0  0  0  0  0  0  0  0
    2.5198    2.3409    0.1026 H   0  0  0  0  0  0  0  0  0  0  0  0
    6.9782    1.1437   -0.2797 H   0  0  0  0  0  0  0  0  0  0  0  0
    7.0324    2.5269    0.8291 H   0  0  0  0  0  0  0  0  0  0  0  0
    7.2095    2.5925   -2.2439 H   0  0  0  0  0  0  0  0  0  0  0  0
    8.5086    2.9996   -1.1004 H   0  0  0  0  0  0  0  0  0  0  0  0
    8.6627    5.2476   -0.3288 H   0  0  0  0  0  0  0  0  0  0  0  0
    7.2842    5.0391    0.7817 H   0  0  0  0  0  0  0  0  0  0  0  0
    7.2605    6.3326   -0.4453 H   0  0  0  0  0  0  0  0  0  0  0  0
    5.2651    4.1060   -2.4129 H   0  0  0  0  0  0  0  0  0  0  0  0
    5.2172    5.5550   -1.3832 H   0  0  0  0  0  0  0  0  0  0  0  0
    3.7068    3.7038   -0.6267 H   0  0  0  0  0  0  0  0  0  0  0  0
    4.8579    4.1787    0.6378 H   0  0  0  0  0  0  0  0  0  0  0  0
    3.0501   -3.2063    0.8377 H   0  0  0  0  0  0  0  0  0  0  0  0
    4.3956   -3.7369    1.8891 H   0  0  0  0  0  0  0  0  0  0  0  0
    4.0612   -4.3704   -1.0975 H   0  0  0  0  0  0  0  0  0  0  0  0
    4.0026   -5.5182    0.2710 H   0  0  0  0  0  0  0  0  0  0  0  0
    6.1769   -7.6609   -0.9115 H   0  0  0  0  0  0  0  0  0  0  0  0
    8.9984   -6.2921   -1.0680 H   0  0  0  0  0  0  0  0  0  0  0  0
    8.3245   -7.5121   -2.2790 H   0  0  0  0  0  0  0  0  0  0  0  0
    8.7873   -7.9358    0.7953 H   0  0  0  0  0  0  0  0  0  0  0  0
    8.1132   -9.2137   -0.3540 H   0  0  0  0  0  0  0  0  0  0  0  0
    6.3745   -3.2777   -1.5902 H   0  0  0  0  0  0  0  0  0  0  0  0
    7.7214   -3.7567   -0.5199 H   0  0  0  0  0  0  0  0  0  0  0  0
    6.7420   -1.4675    0.0490 H   0  0  0  0  0  0  0  0  0  0  0  0
    6.7114   -2.6403    1.3957 H   0  0  0  0  0  0  0  0  0  0  0  0
  1  2  1  0
  1 27  1  0
  1 28  1  0
  1 29  1  0
  2  3  2  0
  2 26  1  0
  3  4  1  0
  3 30  1  0
  4  5  1  0
  4 12  2  0
  5  6  1  0
  5 11  1  0
  6  7  1  0
  6 31  1  0
  6 32  1  0
  7  8  1  0
  7 33  1  0
  7 34  1  0
  8  9  1  0
  8 10  1  0
  9 35  1  0
  9 36  1  0
  9 37  1  0
 10 11  1  0
 10 38  1  0
 10 39  1  0
 11 40  1  0
 11 41  1  0
 12 13  1  0
 13 14  1  0
 13 26  2  0
 14 15  1  0
 14 25  1  0
 15 16  1  0
 15 42  1  0
 15 43  1  0
 16 17  1  0
 16 44  1  0
 16 45  1  0
 18 17  1  6
 17 24  1  0
 18 19  2  0
 18 20  2  0
 18 21  1  0
 21 22  1  0
 21 23  1  0
 21 46  1  6
 22 23  1  0
 22 47  1  0
 22 48  1  0
 23 49  1  0
 23 50  1  0
 24 25  1  0
 24 51  1  0
 24 52  1  0
 25 53  1  0
 25 54  1  0
M  END

