
     RDKit          3D

 54 57  0  0  0  0  0  0  0  0999 V2000
    3.1930    1.8638    6.3977 C   0  0  0  0  0  0  0  0  0  0  0  0
    3.9724    0.7980    5.6297 C   0  0  0  0  0  0  0  0  0  0  0  0
    4.1554    1.1176    4.2252 N   0  0  0  0  0  0  0  0  0  0  0  0
    5.0107    2.2565    3.9156 C   0  0  0  0  0  0  0  0  0  0  0  0
    5.2947    2.0898    2.4234 C   0  0  0  0  0  0  0  0  0  0  0  0
    5.4746    0.5694    2.2998 C   0  0  0  0  0  0  0  0  0  0  0  0
    4.4997   -0.0141    3.3501 C   0  0  2  0  0  0  0  0  0  0  0  0
    4.9967   -0.8233    3.9200 H   0  0  0  0  0  0  0  0  0  0  0  0
    3.2101   -0.6087    2.7465 C   0  0  0  0  0  0  0  0  0  0  0  0
    3.4251   -1.8263    1.9872 N   0  0  0  0  0  0  0  0  0  0  0  0
    3.4657   -3.0384    2.5601 C   0  0  0  0  0  0  0  0  0  0  0  0
    3.2906   -3.1893    3.7965 O   0  0  0  0  0  0  0  0  0  0  0  0
    3.7145   -4.2238    1.7013 C   0  0  0  0  0  0  0  0  0  0  0  0
    3.7367   -5.4718    2.3251 C   0  0  0  0  0  0  0  0  0  0  0  0
    3.5473   -5.6148    3.6144 O   0  0  0  0  0  0  0  0  0  0  0  0
    3.9734   -6.6687    1.5428 C   0  0  0  0  0  0  0  0  0  0  0  0
    3.9906   -7.9297    2.1692 C   0  0  0  0  0  0  0  0  0  0  0  0
    4.2033   -9.0538    1.3984 C   0  0  0  0  0  0  0  0  0  0  0  0
    4.2237  -10.2667    1.9713 F   0  0  0  0  0  0  0  0  0  0  0  0
    4.3876   -8.9592    0.0159 C   0  0  0  0  0  0  0  0  0  0  0  0
    4.3788   -7.7233   -0.6273 C   0  0  0  0  0  0  0  0  0  0  0  0
    4.1779   -6.5458    0.1446 C   0  0  0  0  0  0  0  0  0  0  0  0
    4.1662   -5.2845   -0.4488 N   0  0  0  0  0  0  0  0  0  0  0  0
    3.9469   -4.1037    0.2697 C   0  0  0  0  0  0  0  0  0  0  0  0
    3.9665   -3.0215   -0.3356 O   0  0  0  0  0  0  0  0  0  0  0  0
    4.4546   -5.1231   -1.8949 C   0  0  1  0  0  0  0  0  0  0  0  0
    3.8792   -4.2411   -2.2030 H   0  0  0  0  0  0  0  0  0  0  0  0
    5.9384   -4.8090   -2.1219 C   0  0  0  0  0  0  0  0  0  0  0  0
    3.9514   -6.3454   -2.6649 C   0  0  0  0  0  0  0  0  0  0  0  0
    4.5633   -7.6354   -2.1239 C   0  0  0  0  0  0  0  0  0  0  0  0
    3.0255    1.5442    7.4385 H   0  0  0  0  0  0  0  0  0  0  0  0
    2.2140    2.0418    5.9249 H   0  0  0  0  0  0  0  0  0  0  0  0
    3.7319    2.8242    6.4314 H   0  0  0  0  0  0  0  0  0  0  0  0
    3.4265   -0.1576    5.6915 H   0  0  0  0  0  0  0  0  0  0  0  0
    4.9537    0.6238    6.1338 H   0  0  0  0  0  0  0  0  0  0  0  0
    5.9650    2.2341    4.4946 H   0  0  0  0  0  0  0  0  0  0  0  0
    4.5145    3.2126    4.1513 H   0  0  0  0  0  0  0  0  0  0  0  0
    6.1725    2.6611    2.0853 H   0  0  0  0  0  0  0  0  0  0  0  0
    4.4257    2.4318    1.8375 H   0  0  0  0  0  0  0  0  0  0  0  0
    6.5099    0.2953    2.5582 H   0  0  0  0  0  0  0  0  0  0  0  0
    5.2876    0.1837    1.2855 H   0  0  0  0  0  0  0  0  0  0  0  0
    2.7404    0.1377    2.0875 H   0  0  0  0  0  0  0  0  0  0  0  0
    2.5066   -0.8254    3.5631 H   0  0  0  0  0  0  0  0  0  0  0  0
    3.5997   -1.8217    0.9767 H   0  0  0  0  0  0  0  0  0  0  0  0
    3.4000   -4.6495    3.9651 H   0  0  0  0  0  0  0  0  0  0  0  0
    3.8327   -8.0026    3.2448 H   0  0  0  0  0  0  0  0  0  0  0  0
    4.5326   -9.8773   -0.5584 H   0  0  0  0  0  0  0  0  0  0  0  0
    6.5951   -5.6152   -1.7593 H   0  0  0  0  0  0  0  0  0  0  0  0
    6.2089   -3.8804   -1.5997 H   0  0  0  0  0  0  0  0  0  0  0  0
    6.1335   -4.6630   -3.1964 H   0  0  0  0  0  0  0  0  0  0  0  0
    4.1869   -6.2165   -3.7326 H   0  0  0  0  0  0  0  0  0  0  0  0
    2.8526   -6.3938   -2.5814 H   0  0  0  0  0  0  0  0  0  0  0  0
    5.6397   -7.6764   -2.3697 H   0  0  0  0  0  0  0  0  0  0  0  0
    4.1100   -8.5160   -2.6056 H   0  0  0  0  0  0  0  0  0  0  0  0
  1  2  1  0
  1 31  1  0
  1 32  1  0
  1 33  1  0
  2  3  1  0
  2 34  1  0
  2 35  1  0
  3  4  1  0
  3  7  1  0
  4  5  1  0
  4 36  1  0
  4 37  1  0
  5  6  1  0
  5 38  1  0
  5 39  1  0
  6  7  1  0
  6 40  1  0
  6 41  1  0
  7  8  1  1
  7  9  1  0
  9 10  1  0
  9 42  1  0
  9 43  1  0
 10 11  1  0
 10 44  1  0
 11 12  2  0
 11 13  1  0
 13 14  2  0
 13 24  1  0
 14 15  1  0
 14 16  1  0
 15 45  1  0
 16 17  2  0
 16 22  1  0
 17 18  1  0
 17 46  1  0
 18 19  1  0
 18 20  2  0
 20 21  1  0
 20 47  1  0
 21 22  2  0
 21 30  1  0
 22 23  1  0
 23 24  1  0
 23 26  1  0
 24 25  2  0
 26 27  1  6
 26 28  1  0
 26 29  1  0
 28 48  1  0
 28 49  1  0
 28 50  1  0
 29 30  1  0
 29 51  1  0
 29 52  1  0
 30 53  1  0
 30 54  1  0
M  END

