
     RDKit          3D

 38 38  0  0  0  0  0  0  0  0999 V2000
    4.4579    2.5479    0.5242 C   0  0  0  0  0  0  0  0  0  0  0  0
    5.7625    2.4182   -0.0019 O   0  0  0  0  0  0  0  0  0  0  0  0
    5.8601    2.2000   -1.3808 C   0  0  0  0  0  0  0  0  0  0  0  0
    5.9042    0.7068   -1.7479 C   0  0  1  0  0  0  0  0  0  0  0  0
    4.6131    0.1659   -1.5387 O   0  0  0  0  0  0  0  0  0  0  0  0
    4.4085   -1.1685   -1.5350 C   0  0  0  0  0  0  0  0  0  0  0  0
    5.4614   -2.0961   -1.6491 C   0  0  0  0  0  0  0  0  0  0  0  0
    5.2248   -3.4683   -1.6158 C   0  0  0  0  0  0  0  0  0  0  0  0
    3.9203   -3.9448   -1.4667 C   0  0  0  0  0  0  0  0  0  0  0  0
    3.6167   -5.6656   -1.4222 Cl  0  0  0  0  0  0  0  0  0  0  0  0
    2.8658   -3.0461   -1.3595 C   0  0  0  0  0  0  0  0  0  0  0  0
    3.0811   -1.6565   -1.3941 C   0  0  0  0  0  0  0  0  0  0  0  0
    1.8307   -0.8421   -1.2924 C   0  0  0  0  0  0  0  0  0  0  0  0
    0.7352   -1.3359   -1.1661 O   0  0  0  0  0  0  0  0  0  0  0  0
    2.0235    0.5025   -1.3427 O   0  0  0  0  0  0  0  0  0  0  0  0
    0.8743    1.3256   -1.3099 C   0  0  0  0  0  0  0  0  0  0  0  0
    0.7376    2.1423   -2.6015 C   0  0  1  0  0  0  0  0  0  0  0  0
    0.6165    1.0626   -4.0224 Cl  0  0  0  0  0  0  0  0  0  0  0  0
   -0.7655    3.1172   -2.4455 Cl  0  0  0  0  0  0  0  0  0  0  0  0
    2.1317    3.2583   -2.8172 Cl  0  0  0  0  0  0  0  0  0  0  0  0
    6.4139    0.5445   -3.1839 C   0  0  0  0  0  0  0  0  0  0  0  0
    7.5764    0.6752   -3.4778 O   0  0  0  0  0  0  0  0  0  0  0  0
    5.4317    0.2982   -4.0538 O   0  0  0  0  0  0  0  0  0  0  0  0
    5.8143    0.1549   -5.4251 C   0  0  0  0  0  0  0  0  0  0  0  0
    4.5664    2.8217    1.5839 H   0  0  0  0  0  0  0  0  0  0  0  0
    3.8755    1.6145    0.4477 H   0  0  0  0  0  0  0  0  0  0  0  0
    3.8929    3.3483    0.0088 H   0  0  0  0  0  0  0  0  0  0  0  0
    6.8107    2.6417   -1.7201 H   0  0  0  0  0  0  0  0  0  0  0  0
    5.0292    2.6721   -1.9377 H   0  0  0  0  0  0  0  0  0  0  0  0
    6.6475    0.2363   -1.0832 H   0  0  0  0  0  0  0  0  0  0  0  0
    6.4887   -1.7532   -1.7653 H   0  0  0  0  0  0  0  0  0  0  0  0
    6.0561   -4.1698   -1.7051 H   0  0  0  0  0  0  0  0  0  0  0  0
    1.8409   -3.4001   -1.2503 H   0  0  0  0  0  0  0  0  0  0  0  0
    0.9716    2.0331   -0.4733 H   0  0  0  0  0  0  0  0  0  0  0  0
   -0.0317    0.7175   -1.1856 H   0  0  0  0  0  0  0  0  0  0  0  0
    4.8881   -0.0362   -5.9797 H   0  0  0  0  0  0  0  0  0  0  0  0
    6.5149   -0.6849   -5.5456 H   0  0  0  0  0  0  0  0  0  0  0  0
    6.2997    1.0722   -5.7898 H   0  0  0  0  0  0  0  0  0  0  0  0
  1  2  1  0
  1 25  1  0
  1 26  1  0
  1 27  1  0
  2  3  1  0
  3  4  1  0
  3 28  1  0
  3 29  1  0
  4  5  1  0
  4 21  1  0
  4 30  1  1
  5  6  1  0
  6  7  2  0
  6 12  1  0
  7  8  1  0
  7 31  1  0
  8  9  2  0
  8 32  1  0
  9 10  1  0
  9 11  1  0
 11 12  2  0
 11 33  1  0
 12 13  1  0
 13 14  2  0
 13 15  1  0
 15 16  1  0
 16 17  1  0
 16 34  1  0
 16 35  1  0
 17 18  1  6
 17 19  1  0
 17 20  1  0
 21 22  2  0
 21 23  1  0
 23 24  1  0
 24 36  1  0
 24 37  1  0
 24 38  1  0
M  END

