
     RDKit          3D

 45 47  0  0  0  0  0  0  0  0999 V2000
    3.1324    2.7987    6.3149 C   0  0  0  0  0  0  0  0  0  0  0  0
    4.5201    2.5821    6.0478 O   0  0  0  0  0  0  0  0  0  0  0  0
    4.8308    1.4312    5.4279 C   0  0  0  0  0  0  0  0  0  0  0  0
    4.0199    0.5778    5.1579 O   0  0  0  0  0  0  0  0  0  0  0  0
    6.3075    1.3550    5.1024 C   0  0  0  0  0  0  0  0  0  0  0  0
    6.6594    1.5688    3.5915 C   0  0  2  0  0  0  0  0  0  0  0  0
    8.0545    1.4890    3.4524 O   0  0  0  0  0  0  0  0  0  0  0  0
    6.1167    2.9553    3.1960 C   0  0  0  0  0  0  0  0  0  0  0  0
    4.9589    3.1967    2.9687 O   0  0  0  0  0  0  0  0  0  0  0  0
    7.0913    3.8804    3.1969 O   0  0  0  0  0  0  0  0  0  0  0  0
    6.7070    5.2229    2.8754 C   0  0  0  0  0  0  0  0  0  0  0  0
    6.0011    0.4920    2.6959 C   0  0  2  0  0  0  0  0  0  0  0  0
    4.9250    0.4833    2.8954 H   0  0  0  0  0  0  0  0  0  0  0  0
    6.6237   -0.9189    2.8695 C   0  0  0  0  0  0  0  0  0  0  0  0
    7.5658   -1.1638    1.7287 C   0  0  0  0  0  0  0  0  0  0  0  0
    7.4281   -0.2913    0.7036 C   0  0  0  0  0  0  0  0  0  0  0  0
    8.1244   -0.3205   -0.4396 O   0  0  0  0  0  0  0  0  0  0  0  0
    9.0636   -1.3098   -0.6084 C   0  0  0  0  0  0  0  0  0  0  0  0
    9.7421   -1.2769   -1.8313 C   0  0  0  0  0  0  0  0  0  0  0  0
   10.7178   -2.2350   -2.1001 C   0  0  0  0  0  0  0  0  0  0  0  0
   11.4713   -2.2394   -3.4067 C   0  0  0  0  0  0  0  0  0  0  0  0
   10.9901   -3.2098   -1.1254 C   0  0  0  0  0  0  0  0  0  0  0  0
   10.3112   -3.2424    0.0964 C   0  0  0  0  0  0  0  0  0  0  0  0
   10.5873   -4.1857    1.0172 O   0  0  0  0  0  0  0  0  0  0  0  0
    9.3098   -2.2736    0.3916 C   0  0  0  0  0  0  0  0  0  0  0  0
    8.5386   -2.2496    1.6730 C   0  0  0  0  0  0  0  0  0  0  0  0
    8.6814   -3.0466    2.5912 O   0  0  0  0  0  0  0  0  0  0  0  0
    6.2044    0.9598    0.8939 S   0  0  0  0  0  0  0  0  0  0  0  0
    3.0700    3.7533    6.8515 H   0  0  0  0  0  0  0  0  0  0  0  0
    2.7204    1.9848    6.9295 H   0  0  0  0  0  0  0  0  0  0  0  0
    2.5667    2.8519    5.3727 H   0  0  0  0  0  0  0  0  0  0  0  0
    6.6766    0.3596    5.3858 H   0  0  0  0  0  0  0  0  0  0  0  0
    6.8620    2.1071    5.6798 H   0  0  0  0  0  0  0  0  0  0  0  0
    8.4057    2.3905    3.4362 H   0  0  0  0  0  0  0  0  0  0  0  0
    7.6196    5.8267    2.9432 H   0  0  0  0  0  0  0  0  0  0  0  0
    5.9498    5.5841    3.5861 H   0  0  0  0  0  0  0  0  0  0  0  0
    6.2909    5.2661    1.8585 H   0  0  0  0  0  0  0  0  0  0  0  0
    5.8293   -1.6845    2.8860 H   0  0  0  0  0  0  0  0  0  0  0  0
    7.1580   -1.0106    3.8267 H   0  0  0  0  0  0  0  0  0  0  0  0
    9.4887   -0.4959   -2.5496 H   0  0  0  0  0  0  0  0  0  0  0  0
   11.1686   -1.4024   -4.0519 H   0  0  0  0  0  0  0  0  0  0  0  0
   11.2958   -3.1762   -3.9616 H   0  0  0  0  0  0  0  0  0  0  0  0
   12.5584   -2.1642   -3.2385 H   0  0  0  0  0  0  0  0  0  0  0  0
   11.7546   -3.9697   -1.3204 H   0  0  0  0  0  0  0  0  0  0  0  0
   11.2801   -4.7651    0.6723 H   0  0  0  0  0  0  0  0  0  0  0  0
  1  2  1  0
  1 29  1  0
  1 30  1  0
  1 31  1  0
  2  3  1  0
  3  4  2  0
  3  5  1  0
  5  6  1  0
  5 32  1  0
  5 33  1  0
  6  7  1  1
  6  8  1  0
  6 12  1  0
  7 34  1  0
  8  9  2  0
  8 10  1  0
 10 11  1  0
 11 35  1  0
 11 36  1  0
 11 37  1  0
 12 13  1  1
 12 14  1  0
 12 28  1  0
 14 15  1  0
 14 38  1  0
 14 39  1  0
 15 16  2  0
 15 26  1  0
 16 17  1  0
 16 28  1  0
 17 18  1  0
 18 19  1  0
 18 25  2  0
 19 20  2  0
 19 40  1  0
 20 21  1  0
 20 22  1  0
 21 41  1  0
 21 42  1  0
 21 43  1  0
 22 23  2  0
 22 44  1  0
 23 24  1  0
 23 25  1  0
 24 45  1  0
 25 26  1  0
 26 27  2  0
M  END

