
     RDKit          3D

 27 28  0  0  0  0  0  0  0  0999 V2000
    1.1028    0.1315   -0.0413 N   0  0  0  0  0  0  0  0  0  0  0  0
    2.5444   -0.1347   -0.0985 C   0  0  1  0  0  0  0  0  0  0  0  0
    3.1149    0.2439    1.2962 C   0  0  0  0  0  0  0  0  0  0  0  0
    4.6097    0.2948    1.4576 C   0  0  0  0  0  0  0  0  0  0  0  0
    5.3466    1.4427    1.6398 C   0  0  0  0  0  0  0  0  0  0  0  0
    7.0270    1.0720    1.8086 S   0  0  0  0  0  0  0  0  0  0  0  0
    6.6245   -0.6169    1.6290 C   0  0  0  0  0  0  0  0  0  0  0  0
    5.3623   -0.8636    1.4588 N   0  0  0  0  0  0  0  0  0  0  0  0
    2.8791   -1.6016   -0.4800 C   0  0  0  0  0  0  0  0  0  0  0  0
    2.4535   -1.9196   -1.9191 C   0  0  0  0  0  0  0  0  0  0  0  0
    2.9828   -0.8565   -2.8813 C   0  0  0  0  0  0  0  0  0  0  0  0
    2.6056    0.4463   -2.4731 O   0  0  0  0  0  0  0  0  0  0  0  0
    3.1179    0.7826   -1.1973 C   0  0  0  0  0  0  0  0  0  0  0  0
    0.6214   -0.5971    0.4863 H   0  0  0  0  0  0  0  0  0  0  0  0
    0.7130    0.1285   -0.9834 H   0  0  0  0  0  0  0  0  0  0  0  0
    2.7104   -0.4785    2.0269 H   0  0  0  0  0  0  0  0  0  0  0  0
    2.6903    1.2246    1.5553 H   0  0  0  0  0  0  0  0  0  0  0  0
    4.9872    2.4688    1.6841 H   0  0  0  0  0  0  0  0  0  0  0  0
    7.4060   -1.3788    1.6658 H   0  0  0  0  0  0  0  0  0  0  0  0
    2.3844   -2.2843    0.2327 H   0  0  0  0  0  0  0  0  0  0  0  0
    3.9606   -1.7743   -0.3611 H   0  0  0  0  0  0  0  0  0  0  0  0
    1.3529   -1.9506   -1.9926 H   0  0  0  0  0  0  0  0  0  0  0  0
    2.8197   -2.9144   -2.2230 H   0  0  0  0  0  0  0  0  0  0  0  0
    2.5808   -0.9969   -3.8963 H   0  0  0  0  0  0  0  0  0  0  0  0
    4.0893   -0.9243   -2.9453 H   0  0  0  0  0  0  0  0  0  0  0  0
    2.8243    1.8258   -1.0046 H   0  0  0  0  0  0  0  0  0  0  0  0
    4.2233    0.7241   -1.2004 H   0  0  0  0  0  0  0  0  0  0  0  0
  2  1  1  1
  1 14  1  0
  1 15  1  0
  2  3  1  0
  2  9  1  0
  2 13  1  0
  3  4  1  0
  3 16  1  0
  3 17  1  0
  4  5  2  0
  4  8  1  0
  5  6  1  0
  5 18  1  0
  6  7  1  0
  7  8  2  0
  7 19  1  0
  9 10  1  0
  9 20  1  0
  9 21  1  0
 10 11  1  0
 10 22  1  0
 10 23  1  0
 11 12  1  0
 11 24  1  0
 11 25  1  0
 12 13  1  0
 13 26  1  0
 13 27  1  0
M  END

