
     RDKit          3D

 45 47  0  0  0  0  0  0  0  0999 V2000
    3.7379    0.4514    1.8859 C   0  0  0  0  0  0  0  0  0  0  0  0
    2.9355   -0.1447    0.7159 C   0  0  1  0  0  0  0  0  0  0  0  0
    3.0514    0.7314   -0.5439 C   0  0  0  0  0  0  0  0  0  0  0  0
    3.3186   -1.5926    0.4406 C   0  0  0  0  0  0  0  0  0  0  0  0
    2.3768   -2.6274    0.5854 C   0  0  0  0  0  0  0  0  0  0  0  0
    2.7073   -3.9572    0.3386 C   0  0  0  0  0  0  0  0  0  0  0  0
    4.0098   -4.3059   -0.0679 C   0  0  0  0  0  0  0  0  0  0  0  0
    4.3979   -5.6907   -0.3371 C   0  0  0  0  0  0  0  0  0  0  0  0
    3.5772   -6.6743   -0.2174 N   0  0  0  0  0  0  0  0  0  0  0  0
    3.9978   -7.9137   -0.4796 N   0  0  0  0  0  0  0  0  0  0  0  0
    3.1585   -8.9970   -0.3648 C   0  0  0  0  0  0  0  0  0  0  0  0
    3.5426  -10.2127   -0.6148 N   0  0  0  0  0  0  0  0  0  0  0  0
    2.4999  -11.0954   -0.4228 C   0  0  0  0  0  0  0  0  0  0  0  0
    1.3115  -10.5499   -0.0164 C   0  0  0  0  0  0  0  0  0  0  0  0
    1.4838   -8.8060    0.1342 S   0  0  0  0  0  0  0  0  0  0  0  0
    0.0481  -11.3126    0.2547 C   0  0  0  0  0  0  0  0  0  0  0  0
    0.3458  -12.8214    0.3984 C   0  0  1  0  0  0  0  0  0  0  0  0
    0.8590  -12.9624    1.3685 H   0  0  0  0  0  0  0  0  0  0  0  0
   -0.9454  -13.6426    0.4177 C   0  0  0  0  0  0  0  0  0  0  0  0
    1.3132  -13.2866   -0.7053 C   0  0  0  0  0  0  0  0  0  0  0  0
    2.6719  -12.5738   -0.6371 C   0  0  0  0  0  0  0  0  0  0  0  0
    4.9567   -3.2753   -0.2148 C   0  0  0  0  0  0  0  0  0  0  0  0
    4.6161   -1.9463    0.0349 C   0  0  0  0  0  0  0  0  0  0  0  0
    3.3972    1.4755    2.1110 H   0  0  0  0  0  0  0  0  0  0  0  0
    4.8137    0.5041    1.6507 H   0  0  0  0  0  0  0  0  0  0  0  0
    3.6250   -0.1540    2.7987 H   0  0  0  0  0  0  0  0  0  0  0  0
    1.8731   -0.1497    1.0155 H   0  0  0  0  0  0  0  0  0  0  0  0
    4.0947    0.7963   -0.8945 H   0  0  0  0  0  0  0  0  0  0  0  0
    2.7062    1.7581   -0.3384 H   0  0  0  0  0  0  0  0  0  0  0  0
    2.4462    0.3270   -1.3703 H   0  0  0  0  0  0  0  0  0  0  0  0
    1.3585   -2.3801    0.9002 H   0  0  0  0  0  0  0  0  0  0  0  0
    1.9625   -4.7466    0.4565 H   0  0  0  0  0  0  0  0  0  0  0  0
    5.4434   -5.8641   -0.6534 H   0  0  0  0  0  0  0  0  0  0  0  0
    4.9561   -8.1119   -0.7767 H   0  0  0  0  0  0  0  0  0  0  0  0
   -0.6794  -11.1591   -0.5666 H   0  0  0  0  0  0  0  0  0  0  0  0
   -0.4486  -10.9434    1.1691 H   0  0  0  0  0  0  0  0  0  0  0  0
   -1.4795  -13.5646   -0.5448 H   0  0  0  0  0  0  0  0  0  0  0  0
   -1.6316  -13.2962    1.2078 H   0  0  0  0  0  0  0  0  0  0  0  0
   -0.7382  -14.7097    0.5980 H   0  0  0  0  0  0  0  0  0  0  0  0
    0.8451  -13.0945   -1.6886 H   0  0  0  0  0  0  0  0  0  0  0  0
    1.4586  -14.3776   -0.6388 H   0  0  0  0  0  0  0  0  0  0  0  0
    3.2534  -12.7440   -1.5584 H   0  0  0  0  0  0  0  0  0  0  0  0
    3.2838  -12.9911    0.1847 H   0  0  0  0  0  0  0  0  0  0  0  0
    5.9753   -3.5216   -0.5296 H   0  0  0  0  0  0  0  0  0  0  0  0
    5.3787   -1.1728   -0.0897 H   0  0  0  0  0  0  0  0  0  0  0  0
  1  2  1  0
  1 24  1  0
  1 25  1  0
  1 26  1  0
  2  3  1  0
  2  4  1  0
  2 27  1  1
  3 28  1  0
  3 29  1  0
  3 30  1  0
  4  5  2  0
  4 23  1  0
  5  6  1  0
  5 31  1  0
  6  7  2  0
  6 32  1  0
  7  8  1  0
  7 22  1  0
  8  9  2  0
  8 33  1  0
  9 10  1  0
 10 11  1  0
 10 34  1  0
 11 12  2  0
 11 15  1  0
 12 13  1  0
 13 14  2  0
 13 21  1  0
 14 15  1  0
 14 16  1  0
 16 17  1  0
 16 35  1  0
 16 36  1  0
 17 18  1  1
 17 19  1  0
 17 20  1  0
 19 37  1  0
 19 38  1  0
 19 39  1  0
 20 21  1  0
 20 40  1  0
 20 41  1  0
 21 42  1  0
 21 43  1  0
 22 23  2  0
 22 44  1  0
 23 45  1  0
M  END

