
     RDKit          3D

 52 55  0  0  0  0  0  0  0  0999 V2000
   -0.2723    0.9354    1.3860 C   0  0  0  0  0  0  0  0  0  0  0  0
    1.1041    0.4062    0.9497 C   0  0  1  0  0  0  0  0  0  0  0  0
    1.0806   -0.0801   -0.5079 C   0  0  0  0  0  0  0  0  0  0  0  0
    2.1725    1.4739    1.1495 C   0  0  0  0  0  0  0  0  0  0  0  0
    3.2301    1.2793    2.0840 C   0  0  0  0  0  0  0  0  0  0  0  0
    4.1818    2.2627    2.2760 C   0  0  0  0  0  0  0  0  0  0  0  0
    5.2459    2.1085    3.3408 C   0  0  0  0  0  0  0  0  0  0  0  0
    5.2570    2.8702    4.2963 O   0  0  0  0  0  0  0  0  0  0  0  0
    6.1433    1.0743    3.2085 N   0  0  0  0  0  0  0  0  0  0  0  0
    7.1093    0.8318    4.2799 C   0  0  0  0  0  0  0  0  0  0  0  0
    7.1368   -0.6544    4.6459 C   0  0  0  0  0  0  0  0  0  0  0  0
    7.3817   -1.5312    3.4118 C   0  0  0  0  0  0  0  0  0  0  0  0
    6.3767   -1.2120    2.2941 C   0  0  2  0  0  0  0  0  0  0  0  0
    6.6403   -1.9997    1.0041 C   0  0  0  0  0  0  0  0  0  0  0  0
    6.5156   -3.4369    1.1818 N   0  0  0  0  0  0  0  0  0  0  0  0
    7.4468   -4.4112    1.0341 C   0  0  0  0  0  0  0  0  0  0  0  0
    6.9192   -5.5918    1.2947 N   0  0  0  0  0  0  0  0  0  0  0  0
    5.6332   -5.2816    1.6060 C   0  0  0  0  0  0  0  0  0  0  0  0
    5.3430   -3.9900    1.5515 N   0  0  0  0  0  0  0  0  0  0  0  0
    6.3738    0.2974    1.9979 C   0  0  0  0  0  0  0  0  0  0  0  0
    4.0744    3.4754    1.5271 C   0  0  0  0  0  0  0  0  0  0  0  0
    4.9737    4.5722    1.6510 C   0  0  0  0  0  0  0  0  0  0  0  0
    4.8170    5.6965    0.8677 C   0  0  0  0  0  0  0  0  0  0  0  0
    3.7555    5.7799   -0.0696 C   0  0  0  0  0  0  0  0  0  0  0  0
    2.8616    4.7400   -0.2041 C   0  0  0  0  0  0  0  0  0  0  0  0
    2.9908    3.5649    0.5894 C   0  0  0  0  0  0  0  0  0  0  0  0
    2.0755    2.5724    0.4286 N   0  0  0  0  0  0  0  0  0  0  0  0
   -1.0478    0.1642    1.2510 H   0  0  0  0  0  0  0  0  0  0  0  0
   -0.5472    1.8162    0.7854 H   0  0  0  0  0  0  0  0  0  0  0  0
   -0.2714    1.2358    2.4459 H   0  0  0  0  0  0  0  0  0  0  0  0
    1.3658   -0.4490    1.5964 H   0  0  0  0  0  0  0  0  0  0  0  0
    0.8685    0.7614   -1.1850 H   0  0  0  0  0  0  0  0  0  0  0  0
    0.3048   -0.8493   -0.6503 H   0  0  0  0  0  0  0  0  0  0  0  0
    2.0485   -0.5163   -0.8033 H   0  0  0  0  0  0  0  0  0  0  0  0
    3.2761    0.3480    2.6540 H   0  0  0  0  0  0  0  0  0  0  0  0
    6.8266    1.4634    5.1306 H   0  0  0  0  0  0  0  0  0  0  0  0
    8.1142    1.1557    3.9435 H   0  0  0  0  0  0  0  0  0  0  0  0
    6.1733   -0.9271    5.1096 H   0  0  0  0  0  0  0  0  0  0  0  0
    7.9179   -0.8306    5.4034 H   0  0  0  0  0  0  0  0  0  0  0  0
    7.3267   -2.5979    3.6815 H   0  0  0  0  0  0  0  0  0  0  0  0
    8.4068   -1.3522    3.0336 H   0  0  0  0  0  0  0  0  0  0  0  0
    5.3662   -1.4898    2.6401 H   0  0  0  0  0  0  0  0  0  0  0  0
    7.6579   -1.8078    0.6279 H   0  0  0  0  0  0  0  0  0  0  0  0
    5.9306   -1.6885    0.2201 H   0  0  0  0  0  0  0  0  0  0  0  0
    8.4755   -4.2070    0.7361 H   0  0  0  0  0  0  0  0  0  0  0  0
    4.8850   -6.0259    1.8793 H   0  0  0  0  0  0  0  0  0  0  0  0
    5.6128    0.5463    1.2485 H   0  0  0  0  0  0  0  0  0  0  0  0
    7.3568    0.5846    1.5696 H   0  0  0  0  0  0  0  0  0  0  0  0
    5.7733    4.5228    2.3916 H   0  0  0  0  0  0  0  0  0  0  0  0
    5.5105    6.5343    0.9746 H   0  0  0  0  0  0  0  0  0  0  0  0
    3.6456    6.6788   -0.6818 H   0  0  0  0  0  0  0  0  0  0  0  0
    2.0302    4.7786   -0.9106 H   0  0  0  0  0  0  0  0  0  0  0  0
  1  2  1  0
  1 28  1  0
  1 29  1  0
  1 30  1  0
  2  3  1  0
  2  4  1  0
  2 31  1  1
  3 32  1  0
  3 33  1  0
  3 34  1  0
  4  5  2  0
  4 27  1  0
  5  6  1  0
  5 35  1  0
  6  7  1  0
  6 21  2  0
  7  8  2  0
  7  9  1  0
  9 10  1  0
  9 20  1  0
 10 11  1  0
 10 36  1  0
 10 37  1  0
 11 12  1  0
 11 38  1  0
 11 39  1  0
 12 13  1  0
 12 40  1  0
 12 41  1  0
 13 14  1  0
 13 20  1  0
 13 42  1  1
 14 15  1  0
 14 43  1  0
 14 44  1  0
 15 16  1  0
 15 19  1  0
 16 17  2  0
 16 45  1  0
 17 18  1  0
 18 19  2  0
 18 46  1  0
 20 47  1  0
 20 48  1  0
 21 22  1  0
 21 26  1  0
 22 23  2  0
 22 49  1  0
 23 24  1  0
 23 50  1  0
 24 25  2  0
 24 51  1  0
 25 26  1  0
 25 52  1  0
 26 27  2  0
M  END

