
     RDKit          3D

 58 59  0  0  0  0  0  0  0  0999 V2000
    0.7985   -0.1269    0.9639 C   0  0  0  0  0  0  0  0  0  0  0  0
    2.2803    0.0684    0.7487 C   0  0  0  0  0  0  0  0  0  0  0  0
    2.8597    1.3396    0.7591 C   0  0  0  0  0  0  0  0  0  0  0  0
    4.2369    1.4871    0.5513 C   0  0  0  0  0  0  0  0  0  0  0  0
    5.0742    0.3929    0.3316 C   0  0  0  0  0  0  0  0  0  0  0  0
    6.5711    0.5544    0.1128 C   0  0  0  0  0  0  0  0  0  0  0  0
    7.0832    0.1776   -1.2039 N   0  0  0  0  0  0  0  0  0  0  0  0
    6.5479    0.8954   -2.3637 C   0  0  1  0  0  0  0  0  0  0  0  0
    7.0241    2.3601   -2.3991 C   0  0  0  0  0  0  0  0  0  0  0  0
    8.5389    2.4884   -2.6080 C   0  0  0  0  0  0  0  0  0  0  0  0
    9.0225    1.7421   -3.8630 C   0  0  2  0  0  0  0  0  0  0  0  0
    8.6354    2.4874   -5.1480 C   0  0  0  0  0  0  0  0  0  0  0  0
    8.0966    3.5604   -5.1857 O   0  0  0  0  0  0  0  0  0  0  0  0
    8.9732    1.8662   -6.3056 O   0  0  0  0  0  0  0  0  0  0  0  0
    8.5317    0.2752   -3.8422 C   0  0  0  0  0  0  0  0  0  0  0  0
    7.0131    0.1799   -3.6452 C   0  0  0  0  0  0  0  0  0  0  0  0
    4.4852   -0.8957    0.3229 C   0  0  0  0  0  0  0  0  0  0  0  0
    5.3532   -1.9322    0.1201 O   0  0  0  0  0  0  0  0  0  0  0  0
    4.9182   -3.2991    0.1067 C   0  0  1  0  0  0  0  0  0  0  0  0
    4.3528   -3.6674   -1.2643 C   0  0  0  0  0  0  0  0  0  0  0  0
    6.1307   -4.1538    0.4812 C   0  0  0  0  0  0  0  0  0  0  0  0
    6.7462   -3.8921    1.8680 C   0  0  1  0  0  0  0  0  0  0  0  0
    5.7780   -4.2073    3.0161 C   0  0  0  0  0  0  0  0  0  0  0  0
    8.0522   -4.6818    2.0245 C   0  0  0  0  0  0  0  0  0  0  0  0
    3.1090   -1.0476    0.5267 C   0  0  0  0  0  0  0  0  0  0  0  0
    0.2860    0.8316    1.1317 H   0  0  0  0  0  0  0  0  0  0  0  0
    0.6005   -0.7716    1.8368 H   0  0  0  0  0  0  0  0  0  0  0  0
    0.3263   -0.6123    0.0930 H   0  0  0  0  0  0  0  0  0  0  0  0
    2.2366    2.2217    0.9274 H   0  0  0  0  0  0  0  0  0  0  0  0
    4.6769    2.4889    0.5665 H   0  0  0  0  0  0  0  0  0  0  0  0
    7.1102   -0.0607    0.8523 H   0  0  0  0  0  0  0  0  0  0  0  0
    6.8454    1.5999    0.3241 H   0  0  0  0  0  0  0  0  0  0  0  0
    6.9265   -0.8217   -1.3243 H   0  0  0  0  0  0  0  0  0  0  0  0
    5.4369    0.9012   -2.3640 H   0  0  0  0  0  0  0  0  0  0  0  0
    6.7318    2.8821   -1.4738 H   0  0  0  0  0  0  0  0  0  0  0  0
    6.4984    2.8774   -3.2171 H   0  0  0  0  0  0  0  0  0  0  0  0
    9.0636    2.0655   -1.7370 H   0  0  0  0  0  0  0  0  0  0  0  0
    8.8170    3.5500   -2.6844 H   0  0  0  0  0  0  0  0  0  0  0  0
   10.1296    1.7311   -3.8657 H   0  0  0  0  0  0  0  0  0  0  0  0
    9.4009    1.0188   -6.1176 H   0  0  0  0  0  0  0  0  0  0  0  0
    9.0346   -0.2367   -3.0077 H   0  0  0  0  0  0  0  0  0  0  0  0
    8.8291   -0.2688   -4.7574 H   0  0  0  0  0  0  0  0  0  0  0  0
    6.7043   -0.8801   -3.6139 H   0  0  0  0  0  0  0  0  0  0  0  0
    6.4907    0.6260   -4.5092 H   0  0  0  0  0  0  0  0  0  0  0  0
    4.1364   -3.4295    0.8740 H   0  0  0  0  0  0  0  0  0  0  0  0
    5.1322   -3.5757   -2.0375 H   0  0  0  0  0  0  0  0  0  0  0  0
    3.5151   -3.0123   -1.5449 H   0  0  0  0  0  0  0  0  0  0  0  0
    3.9890   -4.7070   -1.2653 H   0  0  0  0  0  0  0  0  0  0  0  0
    6.9038   -3.9990   -0.2921 H   0  0  0  0  0  0  0  0  0  0  0  0
    5.8298   -5.2148    0.4089 H   0  0  0  0  0  0  0  0  0  0  0  0
    6.9923   -2.8170    1.9164 H   0  0  0  0  0  0  0  0  0  0  0  0
    5.4654   -5.2662    2.9936 H   0  0  0  0  0  0  0  0  0  0  0  0
    4.8686   -3.5870    2.9799 H   0  0  0  0  0  0  0  0  0  0  0  0
    6.2547   -4.0246    3.9926 H   0  0  0  0  0  0  0  0  0  0  0  0
    7.8681   -5.7693    1.9749 H   0  0  0  0  0  0  0  0  0  0  0  0
    8.5328   -4.4713    2.9934 H   0  0  0  0  0  0  0  0  0  0  0  0
    8.7745   -4.4306    1.2308 H   0  0  0  0  0  0  0  0  0  0  0  0
    2.6539   -2.0388    0.5159 H   0  0  0  0  0  0  0  0  0  0  0  0
  1  2  1  0
  1 26  1  0
  1 27  1  0
  1 28  1  0
  2  3  2  0
  2 25  1  0
  3  4  1  0
  3 29  1  0
  4  5  2  0
  4 30  1  0
  5  6  1  0
  5 17  1  0
  6  7  1  0
  6 31  1  0
  6 32  1  0
  7  8  1  0
  7 33  1  0
  8  9  1  0
  8 16  1  0
  8 34  1  1
  9 10  1  0
  9 35  1  0
  9 36  1  0
 10 11  1  0
 10 37  1  0
 10 38  1  0
 11 12  1  0
 11 15  1  0
 11 39  1  1
 12 13  2  0
 12 14  1  0
 14 40  1  0
 15 16  1  0
 15 41  1  0
 15 42  1  0
 16 43  1  0
 16 44  1  0
 17 18  1  0
 17 25  2  0
 18 19  1  0
 19 20  1  0
 19 21  1  0
 19 45  1  1
 20 46  1  0
 20 47  1  0
 20 48  1  0
 21 22  1  0
 21 49  1  0
 21 50  1  0
 22 23  1  0
 22 24  1  0
 22 51  1  6
 23 52  1  0
 23 53  1  0
 23 54  1  0
 24 55  1  0
 24 56  1  0
 24 57  1  0
 25 58  1  0
M  END

