
     RDKit          3D

 61 69  0  0  0  0  0  0  0  0999 V2000
   -0.7657    0.7652    0.3979 C   0  0  0  0  0  0  0  0  0  0  0  0
    0.5296    1.2377    0.1761 C   0  0  0  0  0  0  0  0  0  0  0  0
    1.5795    0.3428   -0.0953 C   0  0  0  0  0  0  0  0  0  0  0  0
    2.9821    0.7908   -0.3404 C   0  0  0  0  0  0  0  0  0  0  0  0
    3.3437    2.1651   -0.4033 C   0  0  0  0  0  0  0  0  0  0  0  0
    4.6620    2.5016   -0.6314 C   0  0  0  0  0  0  0  0  0  0  0  0
    5.6333    1.4875   -0.8021 C   0  0  0  0  0  0  0  0  0  0  0  0
    7.0195    1.7689   -1.0429 C   0  0  0  0  0  0  0  0  0  0  0  0
    7.9204    0.7566   -1.2052 C   0  0  0  0  0  0  0  0  0  0  0  0
    7.5074   -0.6183   -1.1403 C   0  0  0  0  0  0  0  0  0  0  0  0
    8.4163   -1.6904   -1.3058 C   0  0  0  0  0  0  0  0  0  0  0  0
    7.9536   -2.9900   -1.2327 C   0  0  0  0  0  0  0  0  0  0  0  0
    6.5766   -3.1994   -0.9931 C   0  0  0  0  0  0  0  0  0  0  0  0
    5.7042   -2.2220   -0.8343 N   0  0  0  0  0  0  0  0  0  0  0  0
    6.1386   -0.9472   -0.9025 C   0  0  0  0  0  0  0  0  0  0  0  0
    5.1749    0.1384   -0.7275 C   0  0  0  0  0  0  0  0  0  0  0  0
    3.8881   -0.1650   -0.5019 N   0  0  0  0  0  0  0  0  0  0  0  0
    1.2945   -1.0340   -0.1468 C   0  0  0  0  0  0  0  0  0  0  0  0
   -0.0004   -1.5071    0.0832 C   0  0  0  0  0  0  0  0  0  0  0  0
   -0.2712   -2.9028    0.0361 N   0  0  0  0  0  0  0  0  0  0  0  0
   -1.1855   -3.5225   -0.8085 C   0  0  0  0  0  0  0  0  0  0  0  0
   -1.9881   -2.9519   -1.8062 C   0  0  0  0  0  0  0  0  0  0  0  0
   -2.8198   -3.7953   -2.5395 C   0  0  0  0  0  0  0  0  0  0  0  0
   -2.8516   -5.1802   -2.2904 C   0  0  0  0  0  0  0  0  0  0  0  0
   -2.0430   -5.7443   -1.3068 C   0  0  0  0  0  0  0  0  0  0  0  0
   -1.1898   -4.9243   -0.5474 C   0  0  0  0  0  0  0  0  0  0  0  0
   -0.2253   -5.1546    0.5120 C   0  0  0  0  0  0  0  0  0  0  0  0
    0.2453   -6.2781    1.2399 C   0  0  0  0  0  0  0  0  0  0  0  0
    1.2129   -6.0437    2.2400 C   0  0  0  0  0  0  0  0  0  0  0  0
    1.7360   -4.7901    2.5655 C   0  0  0  0  0  0  0  0  0  0  0  0
    1.2795   -3.6864    1.8523 C   0  0  0  0  0  0  0  0  0  0  0  0
    0.3211   -3.8803    0.8419 C   0  0  0  0  0  0  0  0  0  0  0  0
    1.5868   -7.2025    2.8704 O   0  0  0  0  0  0  0  0  0  0  0  0
    0.8703   -8.2060    2.2930 C   0  0  0  0  0  0  0  0  0  0  0  0
    0.9581   -9.5483    2.6499 C   0  0  0  0  0  0  0  0  0  0  0  0
    0.1492  -10.4459    1.9504 C   0  0  0  0  0  0  0  0  0  0  0  0
   -0.7112   -9.9983    0.9320 C   0  0  0  0  0  0  0  0  0  0  0  0
   -0.7848   -8.6478    0.5890 C   0  0  0  0  0  0  0  0  0  0  0  0
    0.0160   -7.7178    1.2748 C   0  0  0  0  0  0  0  0  0  0  0  0
   -1.0379   -0.6028    0.3626 C   0  0  0  0  0  0  0  0  0  0  0  0
   -1.5704    1.4716    0.6160 H   0  0  0  0  0  0  0  0  0  0  0  0
    0.7112    2.3122    0.2255 H   0  0  0  0  0  0  0  0  0  0  0  0
    2.5971    2.9495   -0.2798 H   0  0  0  0  0  0  0  0  0  0  0  0
    4.9653    3.5509   -0.6847 H   0  0  0  0  0  0  0  0  0  0  0  0
    7.3406    2.8129   -1.0944 H   0  0  0  0  0  0  0  0  0  0  0  0
    8.9757    0.9760   -1.3886 H   0  0  0  0  0  0  0  0  0  0  0  0
    9.4731   -1.4766   -1.4897 H   0  0  0  0  0  0  0  0  0  0  0  0
    8.6260   -3.8421   -1.3557 H   0  0  0  0  0  0  0  0  0  0  0  0
    6.1851   -4.2226   -0.9309 H   0  0  0  0  0  0  0  0  0  0  0  0
    2.1108   -1.7211   -0.3729 H   0  0  0  0  0  0  0  0  0  0  0  0
   -1.9585   -1.8800   -2.0070 H   0  0  0  0  0  0  0  0  0  0  0  0
   -3.4544   -3.3725   -3.3226 H   0  0  0  0  0  0  0  0  0  0  0  0
   -3.5137   -5.8203   -2.8781 H   0  0  0  0  0  0  0  0  0  0  0  0
   -2.0765   -6.8189   -1.1362 H   0  0  0  0  0  0  0  0  0  0  0  0
    2.4808   -4.6924    3.3566 H   0  0  0  0  0  0  0  0  0  0  0  0
    1.6621   -2.6898    2.0734 H   0  0  0  0  0  0  0  0  0  0  0  0
    1.6344   -9.8701    3.4438 H   0  0  0  0  0  0  0  0  0  0  0  0
    0.1863  -11.5096    2.1983 H   0  0  0  0  0  0  0  0  0  0  0  0
   -1.3338  -10.7208    0.3988 H   0  0  0  0  0  0  0  0  0  0  0  0
   -1.4597   -8.3321   -0.2047 H   0  0  0  0  0  0  0  0  0  0  0  0
   -2.0445   -0.9774    0.5575 H   0  0  0  0  0  0  0  0  0  0  0  0
  1  2  2  0
  1 40  1  0
  1 41  1  0
  2  3  1  0
  2 42  1  0
  3  4  1  0
  3 18  2  0
  4  5  2  0
  4 17  1  0
  5  6  1  0
  5 43  1  0
  6  7  2  0
  6 44  1  0
  7  8  1  0
  7 16  1  0
  8  9  2  0
  8 45  1  0
  9 10  1  0
  9 46  1  0
 10 11  1  0
 10 15  2  0
 11 12  2  0
 11 47  1  0
 12 13  1  0
 12 48  1  0
 13 14  2  0
 13 49  1  0
 14 15  1  0
 15 16  1  0
 16 17  2  0
 18 19  1  0
 18 50  1  0
 19 20  1  0
 19 40  2  0
 20 21  1  0
 20 32  1  0
 21 22  2  0
 21 26  1  0
 22 23  1  0
 22 51  1  0
 23 24  2  0
 23 52  1  0
 24 25  1  0
 24 53  1  0
 25 26  2  0
 25 54  1  0
 26 27  1  0
 27 28  1  0
 27 32  2  0
 28 29  2  0
 28 39  1  0
 29 30  1  0
 29 33  1  0
 30 31  2  0
 30 55  1  0
 31 32  1  0
 31 56  1  0
 33 34  1  0
 34 35  1  0
 34 39  2  0
 35 36  2  0
 35 57  1  0
 36 37  1  0
 36 58  1  0
 37 38  2  0
 37 59  1  0
 38 39  1  0
 38 60  1  0
 40 61  1  0
M  END

