
     RDKit          3D

 30 31  0  0  0  0  0  0  0  0999 V2000
    3.0806   -1.2273    1.1832 O   0  0  0  0  0  0  0  0  0  0  0  0
    2.9924   -0.6049    0.1440 C   0  0  0  0  0  0  0  0  0  0  0  0
    2.3581    0.7772    0.0891 C   0  0  0  0  0  0  0  0  0  0  0  0
    2.0032    1.3650    1.4533 C   0  0  0  0  0  0  0  0  0  0  0  0
    3.1993    1.8638    2.2530 C   0  0  0  0  0  0  0  0  0  0  0  0
    4.0104    3.2834    1.4563 Cl  0  0  0  0  0  0  0  0  0  0  0  0
    3.4935   -1.1868   -1.1750 C   0  0  0  0  0  0  0  0  0  0  0  0
    5.0214   -1.3721   -1.2368 C   0  0  2  0  0  0  0  0  0  0  0  0
    5.7209   -2.2604   -0.1282 C   0  0  0  0  0  0  0  0  0  0  0  0
    6.5727   -1.0416    0.1835 C   0  0  0  0  0  0  0  0  0  0  0  0
    7.6046   -0.5624    0.9825 C   0  0  0  0  0  0  0  0  0  0  0  0
    7.9608    0.7847    0.7904 C   0  0  0  0  0  0  0  0  0  0  0  0
    7.3115    1.5929   -0.1565 C   0  0  0  0  0  0  0  0  0  0  0  0
    6.2774    1.0928   -0.9676 C   0  0  0  0  0  0  0  0  0  0  0  0
    5.9359   -0.2403   -0.7674 C   0  0  0  0  0  0  0  0  0  0  0  0
    1.4553    0.6822   -0.5435 H   0  0  0  0  0  0  0  0  0  0  0  0
    3.0290    1.4533   -0.4693 H   0  0  0  0  0  0  0  0  0  0  0  0
    1.5089    0.5884    2.0613 H   0  0  0  0  0  0  0  0  0  0  0  0
    1.2859    2.1917    1.3283 H   0  0  0  0  0  0  0  0  0  0  0  0
    3.9664    1.0874    2.3662 H   0  0  0  0  0  0  0  0  0  0  0  0
    2.8939    2.2102    3.2492 H   0  0  0  0  0  0  0  0  0  0  0  0
    3.1704   -0.5504   -2.0147 H   0  0  0  0  0  0  0  0  0  0  0  0
    3.0139   -2.1724   -1.3041 H   0  0  0  0  0  0  0  0  0  0  0  0
    5.2759   -1.7206   -2.2526 H   0  0  0  0  0  0  0  0  0  0  0  0
    6.2564   -3.1421   -0.5172 H   0  0  0  0  0  0  0  0  0  0  0  0
    5.0427   -2.5687    0.6807 H   0  0  0  0  0  0  0  0  0  0  0  0
    8.1178   -1.1772    1.7269 H   0  0  0  0  0  0  0  0  0  0  0  0
    8.7606    1.2199    1.3960 H   0  0  0  0  0  0  0  0  0  0  0  0
    7.6178    2.6370   -0.2610 H   0  0  0  0  0  0  0  0  0  0  0  0
    5.7860    1.7361   -1.7025 H   0  0  0  0  0  0  0  0  0  0  0  0
  1  2  2  0
  2  3  1  0
  2  7  1  0
  3  4  1  0
  3 16  1  0
  3 17  1  0
  4  5  1  0
  4 18  1  0
  4 19  1  0
  5  6  1  0
  5 20  1  0
  5 21  1  0
  7  8  1  0
  7 22  1  0
  7 23  1  0
  8  9  1  0
  8 15  1  0
  8 24  1  6
  9 10  1  0
  9 25  1  0
  9 26  1  0
 10 11  1  0
 10 15  2  0
 11 12  2  0
 11 27  1  0
 12 13  1  0
 12 28  1  0
 13 14  2  0
 13 29  1  0
 14 15  1  0
 14 30  1  0
M  END

