
     RDKit          3D

 26 26  0  0  0  0  0  0  0  0999 V2000
    3.7553   -2.1298    2.2201 C   0  0  0  0  0  0  0  0  0  0  0  0
    3.7752   -1.1696    1.0443 C   0  0  1  0  0  0  0  0  0  0  0  0
    4.3270    0.6491    1.6738 Br  0  0  0  0  0  0  0  0  0  0  0  0
    4.7040   -1.6171   -0.0779 C   0  0  0  0  0  0  0  0  0  0  0  0
    4.6200   -0.7342   -1.2279 N   0  0  0  0  0  0  0  0  0  0  0  0
    5.0373   -1.2446   -2.7595 S   0  0  1  0  0  0  0  0  0  0  0  0
    4.5092   -2.6019   -2.8990 O   0  0  0  0  0  0  0  0  0  0  0  0
    4.6743   -0.1466   -3.6506 O   0  0  0  0  0  0  0  0  0  0  0  0
    6.8363   -1.3732   -2.7947 C   0  0  0  0  0  0  0  0  0  0  0  0
    7.6006   -0.2415   -3.0966 C   0  0  0  0  0  0  0  0  0  0  0  0
    8.9892   -0.3433   -3.0971 C   0  0  0  0  0  0  0  0  0  0  0  0
    9.6151   -1.5642   -2.8062 C   0  0  0  0  0  0  0  0  0  0  0  0
   11.3492   -1.6329   -2.8198 Cl  0  0  0  0  0  0  0  0  0  0  0  0
    8.8349   -2.6996   -2.5208 C   0  0  0  0  0  0  0  0  0  0  0  0
    9.6297   -4.3799   -2.1437 Br  0  0  0  0  0  0  0  0  0  0  0  0
    7.4395   -2.6013   -2.5206 C   0  0  0  0  0  0  0  0  0  0  0  0
    3.0853   -1.7719    3.0140 H   0  0  0  0  0  0  0  0  0  0  0  0
    4.7606   -2.2611    2.6488 H   0  0  0  0  0  0  0  0  0  0  0  0
    3.3914   -3.1149    1.8810 H   0  0  0  0  0  0  0  0  0  0  0  0
    2.7686   -0.9994    0.6406 H   0  0  0  0  0  0  0  0  0  0  0  0
    4.3706   -2.6143   -0.4076 H   0  0  0  0  0  0  0  0  0  0  0  0
    5.7346   -1.7176    0.3156 H   0  0  0  0  0  0  0  0  0  0  0  0
    4.8233    0.2510   -1.0605 H   0  0  0  0  0  0  0  0  0  0  0  0
    7.1094    0.7004   -3.3470 H   0  0  0  0  0  0  0  0  0  0  0  0
    9.6107    0.5222   -3.3322 H   0  0  0  0  0  0  0  0  0  0  0  0
    6.8247   -3.4814   -2.3296 H   0  0  0  0  0  0  0  0  0  0  0  0
  1  2  1  0
  1 17  1  0
  1 18  1  0
  1 19  1  0
  2  3  1  0
  2  4  1  0
  2 20  1  6
  4  5  1  0
  4 21  1  0
  4 22  1  0
  6  5  1  1
  5 23  1  0
  6  7  2  0
  6  8  2  0
  6  9  1  0
  9 10  2  0
  9 16  1  0
 10 11  1  0
 10 24  1  0
 11 12  2  0
 11 25  1  0
 12 13  1  0
 12 14  1  0
 14 15  1  0
 14 16  2  0
 16 26  1  0
M  END

