
     RDKit          3D

 98104  0  0  0  0  0  0  0  0999 V2000
    5.3137    1.9744    4.7248 C   0  0  0  0  0  0  0  0  0  0  0  0
    6.4683    2.1141    3.7478 C   0  0  0  0  0  0  0  0  0  0  0  0
    7.0771    0.8388    3.4580 O   0  0  0  0  0  0  0  0  0  0  0  0
    6.5392    0.1025    2.4696 C   0  0  0  0  0  0  0  0  0  0  0  0
    5.5935    0.4206    1.8024 O   0  0  0  0  0  0  0  0  0  0  0  0
    7.3331   -1.1895    2.3378 C   0  0  0  0  0  0  0  0  0  0  0  0
    6.7670   -1.9690    1.3218 O   0  0  0  0  0  0  0  0  0  0  0  0
    7.3118   -3.1721    1.0185 C   0  0  0  0  0  0  0  0  0  0  0  0
    8.4330   -3.7266    1.6527 C   0  0  0  0  0  0  0  0  0  0  0  0
    8.9019   -4.9795    1.2495 C   0  0  0  0  0  0  0  0  0  0  0  0
    8.2841   -5.7143    0.2220 C   0  0  0  0  0  0  0  0  0  0  0  0
    8.8277   -7.0232   -0.1437 C   0  0  0  0  0  0  0  0  0  0  0  0
    8.3229   -7.9021   -1.0387 C   0  0  0  0  0  0  0  0  0  0  0  0
    8.9163   -9.2155   -1.3241 C   0  0  0  0  0  0  0  0  0  0  0  0
    8.0726  -10.3573   -1.3593 C   0  0  0  0  0  0  0  0  0  0  0  0
    6.6512  -10.4922   -1.1979 C   0  0  0  0  0  0  0  0  0  0  0  0
    5.6180   -9.4446   -0.9042 C   0  0  0  0  0  0  0  0  0  0  0  0
    6.3693  -11.8412   -1.3769 C   0  0  0  0  0  0  0  0  0  0  0  0
    7.5856  -12.5277   -1.6219 C   0  0  0  0  0  0  0  0  0  0  0  0
    7.8053  -13.9354   -1.8552 C   0  0  0  0  0  0  0  0  0  0  0  0
    6.8399  -14.8864   -1.7742 C   0  0  0  0  0  0  0  0  0  0  0  0
    7.0000  -16.3180   -2.0108 C   0  0  0  0  0  0  0  0  0  0  0  0
    5.8775  -17.1705   -1.8967 C   0  0  0  0  0  0  0  0  0  0  0  0
    5.9725  -18.5388   -2.1110 C   0  0  0  0  0  0  0  0  0  0  0  0
    7.2084  -19.1143   -2.4507 C   0  0  0  0  0  0  0  0  0  0  0  0
    7.2092  -20.4596   -2.6423 O   0  0  0  0  0  0  0  0  0  0  0  0
    8.4080  -21.1079   -2.9711 C   0  0  0  0  0  0  0  0  0  0  0  0
    8.2263  -22.6108   -3.1258 C   0  0  0  0  0  0  0  0  0  0  0  0
    9.1282  -23.3100   -3.5192 O   0  0  0  0  0  0  0  0  0  0  0  0
    7.0142  -23.0412   -2.7763 O   0  0  0  0  0  0  0  0  0  0  0  0
    6.7583  -24.4570   -2.8794 C   0  0  0  0  0  0  0  0  0  0  0  0
    7.1893  -25.1949   -1.6235 C   0  0  0  0  0  0  0  0  0  0  0  0
    8.3410  -18.2903   -2.5699 C   0  0  0  0  0  0  0  0  0  0  0  0
    8.2290  -16.9178   -2.3516 C   0  0  0  0  0  0  0  0  0  0  0  0
    8.5995  -11.6156   -1.6076 N   0  0  0  0  0  0  0  0  0  0  0  0
   10.1141  -11.9668   -1.5154 B   0  0  1  0  0  0  0  0  0  0  0  0
   10.3679  -12.5675   -0.2906 F   0  0  0  0  0  0  0  0  0  0  0  0
   10.4876  -12.7913   -2.5691 F   0  0  0  0  0  0  0  0  0  0  0  0
   10.9034  -10.6038   -1.6376 N   0  0  0  0  0  0  0  0  0  0  0  0
   10.2995   -9.3445   -1.5757 C   0  0  0  0  0  0  0  0  0  0  0  0
   11.2984   -8.3705   -1.9663 C   0  0  0  0  0  0  0  0  0  0  0  0
   11.3070   -6.9733   -2.1796 C   0  0  0  0  0  0  0  0  0  0  0  0
   12.4795   -6.3599   -2.6005 C   0  0  0  0  0  0  0  0  0  0  0  0
   13.6710   -7.0948   -2.8078 C   0  0  0  0  0  0  0  0  0  0  0  0
   13.6858   -8.4677   -2.6221 C   0  0  0  0  0  0  0  0  0  0  0  0
   12.4931   -9.1081   -2.2256 C   0  0  0  0  0  0  0  0  0  0  0  0
   12.2029  -10.4928   -1.9851 C   0  0  0  0  0  0  0  0  0  0  0  0
   13.1584  -11.5847   -2.1021 C   0  0  0  0  0  0  0  0  0  0  0  0
   13.9034  -11.7076   -3.2692 N   0  0  0  0  0  0  0  0  0  0  0  0
   13.6890  -11.2123   -4.1256 H   0  0  0  0  0  0  0  0  0  0  0  0
   14.7938  -12.7426   -3.1635 C   0  0  0  0  0  0  0  0  0  0  0  0
   15.6768  -13.1540   -4.2968 C   0  0  0  0  0  0  0  0  0  0  0  0
   14.6591  -13.2597   -1.8844 C   0  0  0  0  0  0  0  0  0  0  0  0
   13.6345  -12.5415   -1.2016 C   0  0  0  0  0  0  0  0  0  0  0  0
   13.2482  -12.7399    0.2338 C   0  0  0  0  0  0  0  0  0  0  0  0
    7.1576   -5.1298   -0.4046 C   0  0  0  0  0  0  0  0  0  0  0  0
    6.6794   -3.8886   -0.0172 C   0  0  0  0  0  0  0  0  0  0  0  0
    4.9217    2.9708    4.9845 H   0  0  0  0  0  0  0  0  0  0  0  0
    5.6397    1.4807    5.6535 H   0  0  0  0  0  0  0  0  0  0  0  0
    4.4934    1.3910    4.2808 H   0  0  0  0  0  0  0  0  0  0  0  0
    7.2817    2.7204    4.1717 H   0  0  0  0  0  0  0  0  0  0  0  0
    6.1343    2.5695    2.8038 H   0  0  0  0  0  0  0  0  0  0  0  0
    7.3208   -1.7059    3.3162 H   0  0  0  0  0  0  0  0  0  0  0  0
    8.3870   -0.9276    2.1250 H   0  0  0  0  0  0  0  0  0  0  0  0
    8.9475   -3.1988    2.4558 H   0  0  0  0  0  0  0  0  0  0  0  0
    9.7764   -5.4016    1.7522 H   0  0  0  0  0  0  0  0  0  0  0  0
    9.7387   -7.3110    0.3916 H   0  0  0  0  0  0  0  0  0  0  0  0
    7.3818   -7.6720   -1.5412 H   0  0  0  0  0  0  0  0  0  0  0  0
    5.8740   -8.8427   -0.0184 H   0  0  0  0  0  0  0  0  0  0  0  0
    4.6444   -9.9214   -0.7177 H   0  0  0  0  0  0  0  0  0  0  0  0
    5.4786   -8.7435   -1.7452 H   0  0  0  0  0  0  0  0  0  0  0  0
    5.3797  -12.2928   -1.3463 H   0  0  0  0  0  0  0  0  0  0  0  0
    8.8249  -14.2112   -2.1260 H   0  0  0  0  0  0  0  0  0  0  0  0
    5.8246  -14.5793   -1.5012 H   0  0  0  0  0  0  0  0  0  0  0  0
    4.9079  -16.7392   -1.6323 H   0  0  0  0  0  0  0  0  0  0  0  0
    5.1025  -19.1922   -2.0215 H   0  0  0  0  0  0  0  0  0  0  0  0
    9.1824  -20.9593   -2.1939 H   0  0  0  0  0  0  0  0  0  0  0  0
    8.8341  -20.7388   -3.9223 H   0  0  0  0  0  0  0  0  0  0  0  0
    7.2777  -24.8490   -3.7662 H   0  0  0  0  0  0  0  0  0  0  0  0
    5.6724  -24.5298   -3.0345 H   0  0  0  0  0  0  0  0  0  0  0  0
    8.2804  -25.1421   -1.4934 H   0  0  0  0  0  0  0  0  0  0  0  0
    6.9055  -26.2569   -1.6987 H   0  0  0  0  0  0  0  0  0  0  0  0
    6.7031  -24.7709   -0.7312 H   0  0  0  0  0  0  0  0  0  0  0  0
    9.3146  -18.7051   -2.8316 H   0  0  0  0  0  0  0  0  0  0  0  0
    9.1258  -16.3025   -2.4481 H   0  0  0  0  0  0  0  0  0  0  0  0
   10.4123   -6.3733   -2.0244 H   0  0  0  0  0  0  0  0  0  0  0  0
   12.4827   -5.2799   -2.7698 H   0  0  0  0  0  0  0  0  0  0  0  0
   14.5798   -6.5736   -3.1184 H   0  0  0  0  0  0  0  0  0  0  0  0
   14.5961   -9.0491   -2.7825 H   0  0  0  0  0  0  0  0  0  0  0  0
   16.2909  -12.3154   -4.6691 H   0  0  0  0  0  0  0  0  0  0  0  0
   15.0969  -13.5417   -5.1534 H   0  0  0  0  0  0  0  0  0  0  0  0
   16.3603  -13.9512   -3.9731 H   0  0  0  0  0  0  0  0  0  0  0  0
   15.2556  -14.0707   -1.4683 H   0  0  0  0  0  0  0  0  0  0  0  0
   14.1469  -12.8689    0.8590 H   0  0  0  0  0  0  0  0  0  0  0  0
   12.6165  -13.6324    0.3623 H   0  0  0  0  0  0  0  0  0  0  0  0
   12.6712  -11.8922    0.6256 H   0  0  0  0  0  0  0  0  0  0  0  0
    6.6494   -5.6565   -1.2152 H   0  0  0  0  0  0  0  0  0  0  0  0
    5.8115   -3.4361   -0.5007 H   0  0  0  0  0  0  0  0  0  0  0  0
  1  2  1  0
  1 58  1  0
  1 59  1  0
  1 60  1  0
  2  3  1  0
  2 61  1  0
  2 62  1  0
  3  4  1  0
  4  5  2  0
  4  6  1  0
  6  7  1  0
  6 63  1  0
  6 64  1  0
  7  8  1  0
  8  9  2  0
  8 57  1  0
  9 10  1  0
  9 65  1  0
 10 11  2  0
 10 66  1  0
 11 12  1  0
 11 56  1  0
 12 13  2  0
 12 67  1  0
 13 14  1  0
 13 68  1  0
 14 15  1  0
 14 40  2  0
 15 16  2  0
 15 35  1  0
 16 17  1  0
 16 18  1  0
 17 69  1  0
 17 70  1  0
 17 71  1  0
 18 19  2  0
 18 72  1  0
 19 20  1  0
 19 35  1  0
 20 21  2  0
 20 73  1  0
 21 22  1  0
 21 74  1  0
 22 23  2  0
 22 34  1  0
 23 24  1  0
 23 75  1  0
 24 25  2  0
 24 76  1  0
 25 26  1  0
 25 33  1  0
 26 27  1  0
 27 28  1  0
 27 77  1  0
 27 78  1  0
 28 29  2  0
 28 30  1  0
 30 31  1  0
 31 32  1  0
 31 79  1  0
 31 80  1  0
 32 81  1  0
 32 82  1  0
 32 83  1  0
 33 34  2  0
 33 84  1  0
 34 85  1  0
 35 36  1  0
 36 37  1  1
 36 38  1  0
 36 39  1  0
 39 40  1  0
 39 47  1  0
 40 41  1  0
 41 42  2  0
 41 46  1  0
 42 43  1  0
 42 86  1  0
 43 44  2  0
 43 87  1  0
 44 45  1  0
 44 88  1  0
 45 46  2  0
 45 89  1  0
 46 47  1  0
 47 48  2  0
 48 49  1  0
 48 54  1  0
 49 50  1  0
 49 51  2  0
 51 52  1  0
 51 53  1  0
 52 90  1  0
 52 91  1  0
 52 92  1  0
 53 54  2  0
 53 93  1  0
 54 55  1  0
 55 94  1  0
 55 95  1  0
 55 96  1  0
 56 57  2  0
 56 97  1  0
 57 98  1  0
M  CHG  2  36  -1  49   1
M  END

