
     RDKit          3D

 58 62  0  0  0  0  0  0  0  0999 V2000
   -1.1042  -12.2691    0.6278 C   0  0  0  0  0  0  0  0  0  0  0  0
   -1.2714  -12.3177    2.0335 O   0  0  0  0  0  0  0  0  0  0  0  0
   -0.4106  -11.6450    2.8324 C   0  0  0  0  0  0  0  0  0  0  0  0
   -0.5818  -11.8280    4.2166 C   0  0  0  0  0  0  0  0  0  0  0  0
    0.2606  -11.1819    5.1197 C   0  0  0  0  0  0  0  0  0  0  0  0
    1.2854  -10.3522    4.6634 C   0  0  0  0  0  0  0  0  0  0  0  0
    1.4621  -10.1585    3.2836 C   0  0  0  0  0  0  0  0  0  0  0  0
    2.5964   -9.2759    2.8596 C   0  0  0  0  0  0  0  0  0  0  0  0
    3.3623   -8.7938    3.6726 O   0  0  0  0  0  0  0  0  0  0  0  0
    2.8216   -8.9521    1.3785 C   0  0  0  0  0  0  0  0  0  0  0  0
    2.0255   -7.3451    0.9432 S   0  0  0  0  0  0  0  0  0  0  0  0
    0.7119   -7.9005   -0.0995 C   0  0  0  0  0  0  0  0  0  0  0  0
    0.5614   -9.1332   -0.5319 N   0  0  0  0  0  0  0  0  0  0  0  0
   -0.5763   -9.1810   -1.2737 N   0  0  0  0  0  0  0  0  0  0  0  0
   -1.0960   -7.9700   -1.2969 C   0  0  0  0  0  0  0  0  0  0  0  0
   -2.3183   -7.6892   -2.0326 C   0  0  0  0  0  0  0  0  0  0  0  0
   -2.9754   -8.4597   -2.9609 C   0  0  0  0  0  0  0  0  0  0  0  0
   -4.1534   -7.7348   -3.3223 C   0  0  0  0  0  0  0  0  0  0  0  0
   -4.1303   -6.5793   -2.5944 C   0  0  0  0  0  0  0  0  0  0  0  0
   -3.0228   -6.5422   -1.8063 O   0  0  0  0  0  0  0  0  0  0  0  0
   -0.3068   -7.0967   -0.5632 N   0  0  0  0  0  0  0  0  0  0  0  0
   -0.5442   -5.6530   -0.3054 C   0  0  1  0  0  0  0  0  0  0  0  0
   -1.0039   -5.4462    1.1431 C   0  0  0  0  0  0  0  0  0  0  0  0
    0.6639   -4.7805   -0.6901 C   0  0  2  0  0  0  0  0  0  0  0  0
    0.3348   -3.2470   -0.7182 C   0  0  0  0  0  0  0  0  0  0  0  0
    0.9270   -2.7783   -2.0679 C   0  0  2  0  0  0  0  0  0  0  0  0
    0.0041   -3.2731   -3.2039 C   0  0  0  0  0  0  0  0  0  0  0  0
    0.2546   -4.8148   -3.2122 C   0  0  0  0  0  0  0  0  0  0  0  0
    1.2996   -5.0111   -2.0881 C   0  0  1  0  0  0  0  0  0  0  0  0
    2.1375   -3.7219   -2.2267 C   0  0  0  0  0  0  0  0  0  0  0  0
    0.6108  -10.8034    2.3647 C   0  0  0  0  0  0  0  0  0  0  0  0
   -1.8779  -12.9238    0.2046 H   0  0  0  0  0  0  0  0  0  0  0  0
   -0.1110  -12.6467    0.3259 H   0  0  0  0  0  0  0  0  0  0  0  0
   -1.2292  -11.2525    0.2205 H   0  0  0  0  0  0  0  0  0  0  0  0
   -1.3845  -12.4872    4.5542 H   0  0  0  0  0  0  0  0  0  0  0  0
    0.1170  -11.3340    6.1926 H   0  0  0  0  0  0  0  0  0  0  0  0
    1.9627   -9.8460    5.3522 H   0  0  0  0  0  0  0  0  0  0  0  0
    2.4600   -9.7003    0.6643 H   0  0  0  0  0  0  0  0  0  0  0  0
    3.8978   -8.7851    1.2422 H   0  0  0  0  0  0  0  0  0  0  0  0
   -2.6393   -9.4266   -3.3254 H   0  0  0  0  0  0  0  0  0  0  0  0
   -4.9187   -8.0337   -4.0354 H   0  0  0  0  0  0  0  0  0  0  0  0
   -4.7924   -5.7206   -2.5259 H   0  0  0  0  0  0  0  0  0  0  0  0
   -1.3773   -5.3880   -0.9635 H   0  0  0  0  0  0  0  0  0  0  0  0
   -0.2260   -5.7481    1.8605 H   0  0  0  0  0  0  0  0  0  0  0  0
   -1.9116   -6.0341    1.3471 H   0  0  0  0  0  0  0  0  0  0  0  0
   -1.2386   -4.3860    1.3184 H   0  0  0  0  0  0  0  0  0  0  0  0
    1.4564   -4.9474    0.0564 H   0  0  0  0  0  0  0  0  0  0  0  0
    0.8010   -2.7247    0.1312 H   0  0  0  0  0  0  0  0  0  0  0  0
   -0.7480   -3.0465   -0.6633 H   0  0  0  0  0  0  0  0  0  0  0  0
    1.1402   -1.6997   -2.1049 H   0  0  0  0  0  0  0  0  0  0  0  0
    0.2894   -2.8176   -4.1653 H   0  0  0  0  0  0  0  0  0  0  0  0
   -1.0506   -3.0109   -3.0235 H   0  0  0  0  0  0  0  0  0  0  0  0
    0.6744   -5.1456   -4.1748 H   0  0  0  0  0  0  0  0  0  0  0  0
   -0.6647   -5.3979   -3.0589 H   0  0  0  0  0  0  0  0  0  0  0  0
    1.8596   -5.9542   -2.1594 H   0  0  0  0  0  0  0  0  0  0  0  0
    2.6364   -3.6317   -3.2050 H   0  0  0  0  0  0  0  0  0  0  0  0
    2.8941   -3.6069   -1.4340 H   0  0  0  0  0  0  0  0  0  0  0  0
    0.7223  -10.6294    1.2949 H   0  0  0  0  0  0  0  0  0  0  0  0
  1  2  1  0
  1 32  1  0
  1 33  1  0
  1 34  1  0
  2  3  1  0
  3  4  2  0
  3 31  1  0
  4  5  1  0
  4 35  1  0
  5  6  2  0
  5 36  1  0
  6  7  1  0
  6 37  1  0
  7  8  1  0
  7 31  2  0
  8  9  2  0
  8 10  1  0
 10 11  1  0
 10 38  1  0
 10 39  1  0
 11 12  1  0
 12 13  2  0
 12 21  1  0
 13 14  1  0
 14 15  2  0
 15 16  1  0
 15 21  1  0
 16 17  2  0
 16 20  1  0
 17 18  1  0
 17 40  1  0
 18 19  2  0
 18 41  1  0
 19 20  1  0
 19 42  1  0
 21 22  1  0
 22 23  1  0
 22 24  1  0
 22 43  1  6
 23 44  1  0
 23 45  1  0
 23 46  1  0
 24 25  1  0
 24 29  1  0
 24 47  1  1
 25 26  1  0
 25 48  1  0
 25 49  1  0
 26 27  1  0
 26 30  1  0
 26 50  1  1
 27 28  1  0
 27 51  1  0
 27 52  1  0
 28 29  1  0
 28 53  1  0
 28 54  1  0
 29 30  1  0
 29 55  1  1
 30 56  1  0
 30 57  1  0
 31 58  1  0
M  END

