
     RDKit          3D

 53 55  0  0  0  0  0  0  0  0999 V2000
    4.3424   -1.2374   -2.2133 C   0  0  0  0  0  0  0  0  0  0  0  0
    3.9059   -0.5693   -0.8999 C   0  0  0  0  0  0  0  0  0  0  0  0
    3.7610    0.9327   -1.0108 C   0  0  0  0  0  0  0  0  0  0  0  0
    2.5585    1.5216   -1.4329 C   0  0  0  0  0  0  0  0  0  0  0  0
    2.4169    2.9010   -1.5775 C   0  0  0  0  0  0  0  0  0  0  0  0
    3.5035    3.7535   -1.2987 C   0  0  0  0  0  0  0  0  0  0  0  0
    3.3934    5.1651   -1.4118 N   0  0  0  0  0  0  0  0  0  0  0  0
    4.4687    6.0529   -0.9587 C   0  0  0  0  0  0  0  0  0  0  0  0
    3.8515    7.4661   -1.0077 C   0  0  2  0  0  0  0  0  0  0  0  0
    3.2379    7.9429    0.3186 C   0  0  0  0  0  0  0  0  0  0  0  0
    3.4341    9.0717    0.7249 O   0  0  0  0  0  0  0  0  0  0  0  0
    2.4533    7.0112    0.9671 N   0  0  0  0  0  0  0  0  0  0  0  0
    1.7380    7.1392    2.1707 C   0  0  0  0  0  0  0  0  0  0  0  0
    1.7118    8.3189    2.9391 C   0  0  0  0  0  0  0  0  0  0  0  0
    0.9717    8.3539    4.1181 C   0  0  0  0  0  0  0  0  0  0  0  0
    0.2590    7.2356    4.5766 C   0  0  0  0  0  0  0  0  0  0  0  0
   -0.5123    7.3766    5.8555 C   0  0  0  0  0  0  0  0  0  0  0  0
   -0.8016    8.4663    6.3221 O   0  0  0  0  0  0  0  0  0  0  0  0
   -0.8535    6.2015    6.4892 N   0  0  0  0  0  0  0  0  0  0  0  0
   -1.6587    6.1895    7.6795 C   0  0  0  0  0  0  0  0  0  0  0  0
   -2.9893    5.4892    7.4606 C   0  0  1  0  0  0  0  0  0  0  0  0
   -2.7979    4.2188    7.0405 F   0  0  0  0  0  0  0  0  0  0  0  0
   -3.6893    5.4356    8.6036 F   0  0  0  0  0  0  0  0  0  0  0  0
   -3.7406    6.1039    6.5396 F   0  0  0  0  0  0  0  0  0  0  0  0
    0.2805    6.0679    3.7964 C   0  0  0  0  0  0  0  0  0  0  0  0
    1.0082    6.0187    2.6116 C   0  0  0  0  0  0  0  0  0  0  0  0
    2.8027    7.3342   -2.1281 C   0  0  0  0  0  0  0  0  0  0  0  0
    2.4311    5.8547   -2.1541 C   0  0  0  0  0  0  0  0  0  0  0  0
    1.4758    5.3741   -2.7217 O   0  0  0  0  0  0  0  0  0  0  0  0
    4.7156    3.1771   -0.8771 C   0  0  0  0  0  0  0  0  0  0  0  0
    4.8327    1.7927   -0.7374 C   0  0  0  0  0  0  0  0  0  0  0  0
    4.4335   -2.3288   -2.0911 H   0  0  0  0  0  0  0  0  0  0  0  0
    5.3174   -0.8510   -2.5510 H   0  0  0  0  0  0  0  0  0  0  0  0
    3.6145   -1.0457   -3.0180 H   0  0  0  0  0  0  0  0  0  0  0  0
    4.6380   -0.8079   -0.1100 H   0  0  0  0  0  0  0  0  0  0  0  0
    2.9462   -1.0045   -0.5734 H   0  0  0  0  0  0  0  0  0  0  0  0
    1.6973    0.8836   -1.6531 H   0  0  0  0  0  0  0  0  0  0  0  0
    1.4754    3.3248   -1.9174 H   0  0  0  0  0  0  0  0  0  0  0  0
    5.3445    5.9854   -1.6295 H   0  0  0  0  0  0  0  0  0  0  0  0
    4.8064    5.7735    0.0509 H   0  0  0  0  0  0  0  0  0  0  0  0
    4.6109    8.2220   -1.2409 H   0  0  0  0  0  0  0  0  0  0  0  0
    2.3711    6.1037    0.5187 H   0  0  0  0  0  0  0  0  0  0  0  0
    2.2673    9.1894    2.5994 H   0  0  0  0  0  0  0  0  0  0  0  0
    0.9329    9.2674    4.7145 H   0  0  0  0  0  0  0  0  0  0  0  0
   -0.5227    5.3180    6.1247 H   0  0  0  0  0  0  0  0  0  0  0  0
   -1.8490    7.2332    7.9657 H   0  0  0  0  0  0  0  0  0  0  0  0
   -1.1552    5.6806    8.5190 H   0  0  0  0  0  0  0  0  0  0  0  0
   -0.2998    5.1875    4.0840 H   0  0  0  0  0  0  0  0  0  0  0  0
    1.0039    5.1041    2.0115 H   0  0  0  0  0  0  0  0  0  0  0  0
    3.2327    7.5909   -3.1114 H   0  0  0  0  0  0  0  0  0  0  0  0
    1.9037    7.9533   -1.9992 H   0  0  0  0  0  0  0  0  0  0  0  0
    5.5838    3.7983   -0.6569 H   0  0  0  0  0  0  0  0  0  0  0  0
    5.7880    1.3764   -0.4044 H   0  0  0  0  0  0  0  0  0  0  0  0
  1  2  1  0
  1 32  1  0
  1 33  1  0
  1 34  1  0
  2  3  1  0
  2 35  1  0
  2 36  1  0
  3  4  2  0
  3 31  1  0
  4  5  1  0
  4 37  1  0
  5  6  2  0
  5 38  1  0
  6  7  1  0
  6 30  1  0
  7  8  1  0
  7 28  1  0
  8  9  1  0
  8 39  1  0
  8 40  1  0
  9 10  1  0
  9 27  1  0
  9 41  1  6
 10 11  2  0
 10 12  1  0
 12 13  1  0
 12 42  1  0
 13 14  2  0
 13 26  1  0
 14 15  1  0
 14 43  1  0
 15 16  2  0
 15 44  1  0
 16 17  1  0
 16 25  1  0
 17 18  2  0
 17 19  1  0
 19 20  1  0
 19 45  1  0
 20 21  1  0
 20 46  1  0
 20 47  1  0
 21 22  1  6
 21 23  1  0
 21 24  1  0
 25 26  2  0
 25 48  1  0
 26 49  1  0
 27 28  1  0
 27 50  1  0
 27 51  1  0
 28 29  2  0
 30 31  2  0
 30 52  1  0
 31 53  1  0
M  END

