
     RDKit          3D

 45 48  0  0  0  0  0  0  0  0999 V2000
    4.5390   -2.9894    4.9173 C   0  0  0  0  0  0  0  0  0  0  0  0
    4.9103   -2.1835    3.6961 C   0  0  0  0  0  0  0  0  0  0  0  0
    5.8010   -1.1042    3.7685 C   0  0  0  0  0  0  0  0  0  0  0  0
    6.1183   -0.3662    2.6255 C   0  0  0  0  0  0  0  0  0  0  0  0
    5.5802   -0.6778    1.3724 C   0  0  0  0  0  0  0  0  0  0  0  0
    5.9500    0.1121    0.1415 C   0  0  0  0  0  0  0  0  0  0  0  0
    4.6847   -1.7705    1.3002 C   0  0  0  0  0  0  0  0  0  0  0  0
    4.1017   -2.0739    0.0471 N   0  0  0  0  0  0  0  0  0  0  0  0
    3.6323   -3.2632   -0.4176 C   0  0  0  0  0  0  0  0  0  0  0  0
    2.6858   -3.4791   -1.3956 C   0  0  0  0  0  0  0  0  0  0  0  0
    1.8473   -2.5419   -2.1127 C   0  0  0  0  0  0  0  0  0  0  0  0
    1.0484   -2.7846   -3.2194 C   0  0  0  0  0  0  0  0  0  0  0  0
    0.3396   -1.6354   -3.6679 C   0  0  0  0  0  0  0  0  0  0  0  0
    0.5908   -0.5169   -2.9138 C   0  0  0  0  0  0  0  0  0  0  0  0
    1.6880   -0.8580   -1.6217 S   0  0  0  0  0  0  0  0  0  0  0  0
    2.6153   -4.9467   -1.6408 C   0  0  0  0  0  0  0  0  0  0  0  0
    1.9167   -5.5613   -2.4124 O   0  0  0  0  0  0  0  0  0  0  0  0
    3.5579   -5.5566   -0.7734 N   0  0  0  0  0  0  0  0  0  0  0  0
    3.7640   -6.9504   -0.6539 C   0  0  0  0  0  0  0  0  0  0  0  0
    4.0630   -7.7509   -1.7638 C   0  0  0  0  0  0  0  0  0  0  0  0
    4.2513   -9.1264   -1.6273 C   0  0  0  0  0  0  0  0  0  0  0  0
    4.1536   -9.6952   -0.3588 C   0  0  0  0  0  0  0  0  0  0  0  0
    4.3461  -11.0109   -0.2135 F   0  0  0  0  0  0  0  0  0  0  0  0
    3.8572   -8.9332    0.7692 C   0  0  0  0  0  0  0  0  0  0  0  0
    3.6499   -7.5683    0.6010 C   0  0  0  0  0  0  0  0  0  0  0  0
    3.3223   -6.8285    1.6641 F   0  0  0  0  0  0  0  0  0  0  0  0
    4.2546   -4.5890   -0.0394 C   0  0  0  0  0  0  0  0  0  0  0  0
    5.1896   -4.7974    0.6910 O   0  0  0  0  0  0  0  0  0  0  0  0
    4.3496   -2.4938    2.4510 C   0  0  0  0  0  0  0  0  0  0  0  0
    5.1221   -2.6803    5.7972 H   0  0  0  0  0  0  0  0  0  0  0  0
    4.7151   -4.0649    4.7529 H   0  0  0  0  0  0  0  0  0  0  0  0
    3.4704   -2.8717    5.1653 H   0  0  0  0  0  0  0  0  0  0  0  0
    6.2508   -0.8354    4.7279 H   0  0  0  0  0  0  0  0  0  0  0  0
    6.8160    0.4722    2.7043 H   0  0  0  0  0  0  0  0  0  0  0  0
    6.7105    0.8701    0.3762 H   0  0  0  0  0  0  0  0  0  0  0  0
    5.0848    0.6492   -0.2895 H   0  0  0  0  0  0  0  0  0  0  0  0
    6.3537   -0.5377   -0.6533 H   0  0  0  0  0  0  0  0  0  0  0  0
    3.9103   -1.2711   -0.5459 H   0  0  0  0  0  0  0  0  0  0  0  0
    0.9817   -3.7719   -3.6728 H   0  0  0  0  0  0  0  0  0  0  0  0
   -0.3378   -1.6384   -4.5233 H   0  0  0  0  0  0  0  0  0  0  0  0
    0.1843    0.4865   -3.0300 H   0  0  0  0  0  0  0  0  0  0  0  0
    4.1385   -7.2829   -2.7456 H   0  0  0  0  0  0  0  0  0  0  0  0
    4.4796   -9.7596   -2.4857 H   0  0  0  0  0  0  0  0  0  0  0  0
    3.7733   -9.3903    1.7555 H   0  0  0  0  0  0  0  0  0  0  0  0
    3.6368   -3.3171    2.3777 H   0  0  0  0  0  0  0  0  0  0  0  0
  1  2  1  0
  1 30  1  0
  1 31  1  0
  1 32  1  0
  2  3  2  0
  2 29  1  0
  3  4  1  0
  3 33  1  0
  4  5  2  0
  4 34  1  0
  5  6  1  0
  5  7  1  0
  6 35  1  0
  6 36  1  0
  6 37  1  0
  7  8  1  0
  7 29  2  0
  8  9  1  0
  8 38  1  0
  9 10  1  0
  9 27  2  0
 10 11  2  0
 10 16  1  0
 11 12  1  0
 11 15  1  0
 12 13  2  0
 12 39  1  0
 13 14  1  0
 13 40  1  0
 14 15  2  0
 14 41  1  0
 16 17  2  0
 16 18  1  0
 18 19  1  0
 18 27  1  0
 19 20  2  0
 19 25  1  0
 20 21  1  0
 20 42  1  0
 21 22  2  0
 21 43  1  0
 22 23  1  0
 22 24  1  0
 24 25  2  0
 24 44  1  0
 25 26  1  0
 27 28  1  0
 29 45  1  0
M  CHG  2  15   1  28  -1
M  END

