
     RDKit          3D

 51 52  0  0  0  0  0  0  0  0999 V2000
    9.5699    5.9935    7.4192 C   0  0  0  0  0  0  0  0  0  0  0  0
    9.3090    4.8115    6.5089 C   0  0  0  0  0  0  0  0  0  0  0  0
   10.1233    4.9587    5.3400 O   0  0  0  0  0  0  0  0  0  0  0  0
   10.0356    3.9731    4.4056 C   0  0  0  0  0  0  0  0  0  0  0  0
    9.0603    4.0314    3.3994 C   0  0  0  0  0  0  0  0  0  0  0  0
    8.9659    3.0531    2.4122 C   0  0  0  0  0  0  0  0  0  0  0  0
    9.8867    1.9917    2.3951 C   0  0  0  0  0  0  0  0  0  0  0  0
    9.8036    0.9664    1.4220 N   0  0  0  0  0  0  0  0  0  0  0  0
    9.7843    1.2237   -0.2556 S   0  0  1  0  0  0  0  0  0  0  0  0
    9.6973   -0.1252   -0.8121 O   0  0  0  0  0  0  0  0  0  0  0  0
    8.7877    2.2577   -0.5236 O   0  0  0  0  0  0  0  0  0  0  0  0
   11.3947    1.8941   -0.6868 C   0  0  0  0  0  0  0  0  0  0  0  0
   11.6163    3.2727   -0.6119 C   0  0  0  0  0  0  0  0  0  0  0  0
   12.8916    3.7634   -0.9076 C   0  0  0  0  0  0  0  0  0  0  0  0
   13.9131    2.8897   -1.2830 C   0  0  0  0  0  0  0  0  0  0  0  0
   13.6742    1.5105   -1.3911 C   0  0  0  0  0  0  0  0  0  0  0  0
   14.8273    0.6305   -1.8187 C   0  0  0  0  0  0  0  0  0  0  0  0
   15.9811    1.0266   -1.7370 O   0  0  0  0  0  0  0  0  0  0  0  0
   14.4867   -0.6095   -2.2800 N   0  0  0  0  0  0  0  0  0  0  0  0
   15.4689   -1.5204   -2.8680 C   0  0  1  0  0  0  0  0  0  0  0  0
   16.5030   -2.0090   -1.8517 C   0  0  0  0  0  0  0  0  0  0  0  0
   14.7036   -2.6967   -3.4723 C   0  0  0  0  0  0  0  0  0  0  0  0
   13.6693   -2.2037   -4.2901 O   0  0  0  0  0  0  0  0  0  0  0  0
   12.8662   -3.1992   -4.8739 C   0  0  0  0  0  0  0  0  0  0  0  0
   12.4037    1.0098   -1.0783 C   0  0  0  0  0  0  0  0  0  0  0  0
   10.8809    1.9266    3.3840 C   0  0  0  0  0  0  0  0  0  0  0  0
   10.9382    2.8951    4.3877 C   0  0  0  0  0  0  0  0  0  0  0  0
   12.2895    2.7744    5.7235 Br  0  0  0  0  0  0  0  0  0  0  0  0
    8.9546    5.9170    8.3292 H   0  0  0  0  0  0  0  0  0  0  0  0
    9.3252    6.9383    6.9098 H   0  0  0  0  0  0  0  0  0  0  0  0
   10.6296    6.0256    7.7145 H   0  0  0  0  0  0  0  0  0  0  0  0
    8.2438    4.7642    6.2131 H   0  0  0  0  0  0  0  0  0  0  0  0
    9.5569    3.8605    7.0148 H   0  0  0  0  0  0  0  0  0  0  0  0
    8.3616    4.8712    3.4123 H   0  0  0  0  0  0  0  0  0  0  0  0
    8.1908    3.1010    1.6484 H   0  0  0  0  0  0  0  0  0  0  0  0
   10.2999    0.1042    1.6349 H   0  0  0  0  0  0  0  0  0  0  0  0
   10.8011    3.9433   -0.3363 H   0  0  0  0  0  0  0  0  0  0  0  0
   13.0851    4.8369   -0.8472 H   0  0  0  0  0  0  0  0  0  0  0  0
   14.9179    3.2533   -1.5066 H   0  0  0  0  0  0  0  0  0  0  0  0
   13.5483   -0.7264   -2.6524 H   0  0  0  0  0  0  0  0  0  0  0  0
   15.9970   -0.9919   -3.6839 H   0  0  0  0  0  0  0  0  0  0  0  0
   16.0117   -2.5294   -1.0135 H   0  0  0  0  0  0  0  0  0  0  0  0
   17.0708   -1.1589   -1.4535 H   0  0  0  0  0  0  0  0  0  0  0  0
   17.2080   -2.7072   -2.3310 H   0  0  0  0  0  0  0  0  0  0  0  0
   14.2846   -3.3295   -2.6606 H   0  0  0  0  0  0  0  0  0  0  0  0
   15.4057   -3.3283   -4.0524 H   0  0  0  0  0  0  0  0  0  0  0  0
   12.0900   -2.6974   -5.4691 H   0  0  0  0  0  0  0  0  0  0  0  0
   12.3737   -3.8334   -4.1100 H   0  0  0  0  0  0  0  0  0  0  0  0
   13.4536   -3.8598   -5.5418 H   0  0  0  0  0  0  0  0  0  0  0  0
   12.1816   -0.0572   -1.1282 H   0  0  0  0  0  0  0  0  0  0  0  0
   11.6132    1.1169    3.3761 H   0  0  0  0  0  0  0  0  0  0  0  0
  1  2  1  0
  1 29  1  0
  1 30  1  0
  1 31  1  0
  2  3  1  0
  2 32  1  0
  2 33  1  0
  3  4  1  0
  4  5  2  0
  4 27  1  0
  5  6  1  0
  5 34  1  0
  6  7  2  0
  6 35  1  0
  7  8  1  0
  7 26  1  0
  9  8  1  1
  8 36  1  0
  9 10  2  0
  9 11  2  0
  9 12  1  0
 12 13  2  0
 12 25  1  0
 13 14  1  0
 13 37  1  0
 14 15  2  0
 14 38  1  0
 15 16  1  0
 15 39  1  0
 16 17  1  0
 16 25  2  0
 17 18  2  0
 17 19  1  0
 19 20  1  0
 19 40  1  0
 20 21  1  0
 20 22  1  0
 20 41  1  6
 21 42  1  0
 21 43  1  0
 21 44  1  0
 22 23  1  0
 22 45  1  0
 22 46  1  0
 23 24  1  0
 24 47  1  0
 24 48  1  0
 24 49  1  0
 25 50  1  0
 26 27  2  0
 26 51  1  0
 27 28  1  0
M  END

