
     RDKit          3D

 27 28  0  0  0  0  0  0  0  0999 V2000
    0.9742    0.0787    0.0638 C   0  0  0  0  0  0  0  0  0  0  0  0
    2.3689   -0.0604   -0.1708 O   0  0  0  0  0  0  0  0  0  0  0  0
    3.0196   -1.2341   -0.0336 C   0  0  0  0  0  0  0  0  0  0  0  0
    4.3912   -1.2212   -0.3390 C   0  0  0  0  0  0  0  0  0  0  0  0
    5.1763   -2.3672   -0.2276 C   0  0  0  0  0  0  0  0  0  0  0  0
    4.6175   -3.5896    0.1872 C   0  0  0  0  0  0  0  0  0  0  0  0
    5.4587   -4.8346    0.2310 C   0  0  1  0  0  0  0  0  0  0  0  0
    5.1635   -6.0922    1.5810 S   0  0  0  0  0  0  0  0  0  0  0  0
    5.4280   -7.1458    0.0738 C   0  0  0  0  0  0  0  0  0  0  0  0
    5.2044   -5.9385   -0.8448 C   0  0  2  0  0  0  0  0  0  0  0  0
    6.0611   -5.8497   -2.0982 C   0  0  0  0  0  0  0  0  0  0  0  0
    6.7712   -6.7307   -2.4973 O   0  0  0  0  0  0  0  0  0  0  0  0
    5.9809   -4.6693   -2.7544 O   0  0  0  0  0  0  0  0  0  0  0  0
    3.2499   -3.6120    0.4969 C   0  0  0  0  0  0  0  0  0  0  0  0
    2.4749   -2.4640    0.3924 C   0  0  0  0  0  0  0  0  0  0  0  0
    1.1695   -2.5544    0.7193 F   0  0  0  0  0  0  0  0  0  0  0  0
    0.7421    1.1292   -0.1566 H   0  0  0  0  0  0  0  0  0  0  0  0
    0.7110   -0.1402    1.1102 H   0  0  0  0  0  0  0  0  0  0  0  0
    0.3812   -0.5711   -0.5986 H   0  0  0  0  0  0  0  0  0  0  0  0
    4.8217   -0.2702   -0.6587 H   0  0  0  0  0  0  0  0  0  0  0  0
    6.2433   -2.3072   -0.4590 H   0  0  0  0  0  0  0  0  0  0  0  0
    6.5236   -4.5535    0.2452 H   0  0  0  0  0  0  0  0  0  0  0  0
    4.7149   -7.9743   -0.0301 H   0  0  0  0  0  0  0  0  0  0  0  0
    6.4548   -7.5340    0.0192 H   0  0  0  0  0  0  0  0  0  0  0  0
    4.1446   -5.8863   -1.1474 H   0  0  0  0  0  0  0  0  0  0  0  0
    5.3723   -4.0600   -2.3058 H   0  0  0  0  0  0  0  0  0  0  0  0
    2.7725   -4.5279    0.8526 H   0  0  0  0  0  0  0  0  0  0  0  0
  1  2  1  0
  1 17  1  0
  1 18  1  0
  1 19  1  0
  2  3  1  0
  3  4  2  0
  3 15  1  0
  4  5  1  0
  4 20  1  0
  5  6  2  0
  5 21  1  0
  6  7  1  0
  6 14  1  0
  7  8  1  0
  7 10  1  0
  7 22  1  1
  8  9  1  0
  9 10  1  0
  9 23  1  0
  9 24  1  0
 10 11  1  0
 10 25  1  6
 11 12  2  0
 11 13  1  0
 13 26  1  0
 14 15  2  0
 14 27  1  0
 15 16  1  0
M  END

