
     RDKit          3D

103108  0  0  0  0  0  0  0  0999 V2000
    0.5556    0.7784    0.5439 C   0  0  0  0  0  0  0  0  0  0  0  0
    2.0920    0.7572    0.4577 C   0  0  1  0  0  0  0  0  0  0  0  0
    2.7091    1.4964    1.6588 C   0  0  0  0  0  0  0  0  0  0  0  0
    2.7784   -1.0232    0.2687 Si  0  0  1  0  0  4  0  0  0  0  0  0
    2.3987   -1.9046    1.8520 C   0  0  0  0  0  0  0  0  0  0  0  0
    2.1029   -2.3835    2.9404 C   0  0  0  0  0  0  0  0  0  0  0  0
    1.7623   -2.9483    4.2005 C   0  0  0  0  0  0  0  0  0  0  0  0
    1.9328   -4.3533    4.4458 C   0  0  0  0  0  0  0  0  0  0  0  0
    2.4482   -5.2122    3.4563 C   0  0  0  0  0  0  0  0  0  0  0  0
    2.6204   -6.5817    3.6766 C   0  0  0  0  0  0  0  0  0  0  0  0
    3.1447   -7.4597    2.6711 C   0  0  0  0  0  0  0  0  0  0  0  0
    3.3015   -8.7987    2.9199 C   0  0  0  0  0  0  0  0  0  0  0  0
    2.9440   -9.3482    4.1916 C   0  0  0  0  0  0  0  0  0  0  0  0
    2.4393   -8.5441    5.1806 C   0  0  0  0  0  0  0  0  0  0  0  0
    2.2585   -7.1378    4.9638 C   0  0  0  0  0  0  0  0  0  0  0  0
    1.7472   -6.2903    5.9504 C   0  0  0  0  0  0  0  0  0  0  0  0
    1.5705   -4.9095    5.7353 C   0  0  0  0  0  0  0  0  0  0  0  0
    1.0441   -4.0543    6.7616 C   0  0  0  0  0  0  0  0  0  0  0  0
    0.6773   -4.5836    8.0294 C   0  0  0  0  0  0  0  0  0  0  0  0
    0.3668   -5.0590    9.1156 C   0  0  0  0  0  0  0  0  0  0  0  0
   -0.1080   -5.6313   10.8120 Si  0  0  1  0  0  4  0  0  0  0  0  0
    0.7055   -4.4103   12.0498 C   0  0  1  0  0  0  0  0  0  0  0  0
    2.2425   -4.4684   12.0034 C   0  0  0  0  0  0  0  0  0  0  0  0
    0.2076   -2.9682   11.8438 C   0  0  0  0  0  0  0  0  0  0  0  0
   -2.0192   -5.4848   10.9260 C   0  0  1  0  0  0  0  0  0  0  0  0
   -2.7825   -6.2575    9.8369 C   0  0  0  0  0  0  0  0  0  0  0  0
   -2.5834   -5.7881   12.3252 C   0  0  0  0  0  0  0  0  0  0  0  0
    0.6332   -7.3866   11.0438 C   0  0  1  0  0  0  0  0  0  0  0  0
    0.5148   -7.9307   12.4785 C   0  0  0  0  0  0  0  0  0  0  0  0
    0.1426   -8.4209   10.0166 C   0  0  0  0  0  0  0  0  0  0  0  0
    0.8881   -2.6718    6.5103 C   0  0  0  0  0  0  0  0  0  0  0  0
    0.3899   -1.8695    7.5061 N   0  0  0  0  0  0  0  0  0  0  0  0
    0.2604   -0.6051    7.2195 C   0  0  0  0  0  0  0  0  0  0  0  0
    0.6214   -0.0509    5.9261 C   0  0  0  0  0  0  0  0  0  0  0  0
    1.0979   -0.7723    4.9630 N   0  0  0  0  0  0  0  0  0  0  0  0
    1.2494   -2.1185    5.2192 C   0  0  0  0  0  0  0  0  0  0  0  0
    0.3561    1.4373    5.9145 C   0  0  0  0  0  0  0  0  0  0  0  0
   -0.1891    1.6860    7.3085 C   0  0  0  0  0  0  0  0  0  0  0  0
   -0.6150    2.8815    7.8860 C   0  0  0  0  0  0  0  0  0  0  0  0
   -1.0864    2.8683    9.2049 C   0  0  0  0  0  0  0  0  0  0  0  0
   -1.1339    1.6750    9.9432 C   0  0  0  0  0  0  0  0  0  0  0  0
   -0.7102    0.4729    9.3744 C   0  0  0  0  0  0  0  0  0  0  0  0
   -0.2385    0.4874    8.0567 C   0  0  0  0  0  0  0  0  0  0  0  0
    1.8476   -1.9637   -1.1227 C   0  0  1  0  0  0  0  0  0  0  0  0
    1.9419   -1.2863   -2.5009 C   0  0  0  0  0  0  0  0  0  0  0  0
    2.2446   -3.4471   -1.2053 C   0  0  0  0  0  0  0  0  0  0  0  0
    4.6801   -1.0617   -0.0268 C   0  0  1  0  0  0  0  0  0  0  0  0
    5.1527    0.0421   -0.9919 C   0  0  0  0  0  0  0  0  0  0  0  0
    5.5239   -1.0651    1.2598 C   0  0  0  0  0  0  0  0  0  0  0  0
    0.1828    1.8139    0.6368 H   0  0  0  0  0  0  0  0  0  0  0  0
    0.2002    0.2212    1.4267 H   0  0  0  0  0  0  0  0  0  0  0  0
    0.0760    0.3381   -0.3446 H   0  0  0  0  0  0  0  0  0  0  0  0
    2.3903    1.2917   -0.4646 H   0  0  0  0  0  0  0  0  0  0  0  0
    2.4681    0.9828    2.6042 H   0  0  0  0  0  0  0  0  0  0  0  0
    2.3153    2.5262    1.7284 H   0  0  0  0  0  0  0  0  0  0  0  0
    3.8056    1.5715    1.5889 H   0  0  0  0  0  0  0  0  0  0  0  0
    2.7219   -4.7881    2.4886 H   0  0  0  0  0  0  0  0  0  0  0  0
    3.4172   -7.0378    1.7000 H   0  0  0  0  0  0  0  0  0  0  0  0
    3.7020   -9.4576    2.1453 H   0  0  0  0  0  0  0  0  0  0  0  0
    3.0769  -10.4184    4.3690 H   0  0  0  0  0  0  0  0  0  0  0  0
    2.1654   -8.9619    6.1530 H   0  0  0  0  0  0  0  0  0  0  0  0
    1.4762   -6.7054    6.9227 H   0  0  0  0  0  0  0  0  0  0  0  0
    0.3843   -4.7412   13.0563 H   0  0  0  0  0  0  0  0  0  0  0  0
    2.6229   -4.1903   11.0064 H   0  0  0  0  0  0  0  0  0  0  0  0
    2.6336   -5.4707   12.2397 H   0  0  0  0  0  0  0  0  0  0  0  0
    2.6849   -3.7653   12.7308 H   0  0  0  0  0  0  0  0  0  0  0  0
    0.4366   -2.6109   10.8257 H   0  0  0  0  0  0  0  0  0  0  0  0
    0.6935   -2.2791   12.5568 H   0  0  0  0  0  0  0  0  0  0  0  0
   -0.8804   -2.8766   11.9915 H   0  0  0  0  0  0  0  0  0  0  0  0
   -2.1826   -4.4084   10.7286 H   0  0  0  0  0  0  0  0  0  0  0  0
   -2.7197   -7.3472    9.9886 H   0  0  0  0  0  0  0  0  0  0  0  0
   -2.3973   -6.0383    8.8288 H   0  0  0  0  0  0  0  0  0  0  0  0
   -3.8546   -5.9927    9.8487 H   0  0  0  0  0  0  0  0  0  0  0  0
   -2.4791   -6.8546   12.5846 H   0  0  0  0  0  0  0  0  0  0  0  0
   -3.6608   -5.5507   12.3737 H   0  0  0  0  0  0  0  0  0  0  0  0
   -2.0856   -5.2063   13.1179 H   0  0  0  0  0  0  0  0  0  0  0  0
    1.7084   -7.2170   10.8425 H   0  0  0  0  0  0  0  0  0  0  0  0
   -0.5328   -8.1413   12.7497 H   0  0  0  0  0  0  0  0  0  0  0  0
    0.9149   -7.2313   13.2300 H   0  0  0  0  0  0  0  0  0  0  0  0
    1.0708   -8.8788   12.5861 H   0  0  0  0  0  0  0  0  0  0  0  0
   -0.9097   -8.6988   10.1892 H   0  0  0  0  0  0  0  0  0  0  0  0
    0.7355   -9.3504   10.0812 H   0  0  0  0  0  0  0  0  0  0  0  0
    0.2189   -8.0482    8.9826 H   0  0  0  0  0  0  0  0  0  0  0  0
   -0.3612    1.7092    5.1207 H   0  0  0  0  0  0  0  0  0  0  0  0
    1.2800    2.0060    5.7100 H   0  0  0  0  0  0  0  0  0  0  0  0
   -0.5835    3.8175    7.3219 H   0  0  0  0  0  0  0  0  0  0  0  0
   -1.4223    3.8006    9.6662 H   0  0  0  0  0  0  0  0  0  0  0  0
   -1.5059    1.6904   10.9707 H   0  0  0  0  0  0  0  0  0  0  0  0
   -0.7400   -0.4641    9.9342 H   0  0  0  0  0  0  0  0  0  0  0  0
    0.7899   -1.9257   -0.8015 H   0  0  0  0  0  0  0  0  0  0  0  0
    2.9691   -1.3206   -2.9012 H   0  0  0  0  0  0  0  0  0  0  0  0
    1.6328   -0.2288   -2.4745 H   0  0  0  0  0  0  0  0  0  0  0  0
    1.2961   -1.7977   -3.2363 H   0  0  0  0  0  0  0  0  0  0  0  0
    3.2949   -3.5721   -1.5202 H   0  0  0  0  0  0  0  0  0  0  0  0
    1.6224   -3.9823   -1.9441 H   0  0  0  0  0  0  0  0  0  0  0  0
    2.1235   -3.9589   -0.2375 H   0  0  0  0  0  0  0  0  0  0  0  0
    4.8496   -2.0337   -0.5280 H   0  0  0  0  0  0  0  0  0  0  0  0
    5.0351    1.0453   -0.5494 H   0  0  0  0  0  0  0  0  0  0  0  0
    4.6030    0.0386   -1.9463 H   0  0  0  0  0  0  0  0  0  0  0  0
    6.2238   -0.0797   -1.2314 H   0  0  0  0  0  0  0  0  0  0  0  0
    5.4122   -0.1258    1.8261 H   0  0  0  0  0  0  0  0  0  0  0  0
    6.5968   -1.1746    1.0216 H   0  0  0  0  0  0  0  0  0  0  0  0
    5.2432   -1.8870    1.9355 H   0  0  0  0  0  0  0  0  0  0  0  0
  1  2  1  0
  1 50  1  0
  1 51  1  0
  1 52  1  0
  2  3  1  0
  2  4  1  0
  2 53  1  6
  3 54  1  0
  3 55  1  0
  3 56  1  0
  4  5  1  1
  4 44  1  0
  4 47  1  0
  5  6  3  0
  6  7  1  0
  7  8  2  0
  7 36  1  0
  8  9  1  0
  8 17  1  0
  9 10  2  0
  9 57  1  0
 10 11  1  0
 10 15  1  0
 11 12  2  0
 11 58  1  0
 12 13  1  0
 12 59  1  0
 13 14  2  0
 13 60  1  0
 14 15  1  0
 14 61  1  0
 15 16  2  0
 16 17  1  0
 16 62  1  0
 17 18  2  0
 18 19  1  0
 18 31  1  0
 19 20  3  0
 21 20  1  6
 21 22  1  0
 21 25  1  0
 21 28  1  0
 22 23  1  0
 22 24  1  0
 22 63  1  1
 23 64  1  0
 23 65  1  0
 23 66  1  0
 24 67  1  0
 24 68  1  0
 24 69  1  0
 25 26  1  0
 25 27  1  0
 25 70  1  6
 26 71  1  0
 26 72  1  0
 26 73  1  0
 27 74  1  0
 27 75  1  0
 27 76  1  0
 28 29  1  0
 28 30  1  0
 28 77  1  6
 29 78  1  0
 29 79  1  0
 29 80  1  0
 30 81  1  0
 30 82  1  0
 30 83  1  0
 31 32  1  0
 31 36  2  0
 32 33  2  0
 33 34  1  0
 33 43  1  0
 34 35  2  0
 34 37  1  0
 35 36  1  0
 37 38  1  0
 37 84  1  0
 37 85  1  0
 38 39  1  0
 38 43  2  0
 39 40  2  0
 39 86  1  0
 40 41  1  0
 40 87  1  0
 41 42  2  0
 41 88  1  0
 42 43  1  0
 42 89  1  0
 44 45  1  0
 44 46  1  0
 44 90  1  1
 45 91  1  0
 45 92  1  0
 45 93  1  0
 46 94  1  0
 46 95  1  0
 46 96  1  0
 47 48  1  0
 47 49  1  0
 47 97  1  6
 48 98  1  0
 48 99  1  0
 48100  1  0
 49101  1  0
 49102  1  0
 49103  1  0
M  END

