
     RDKit          3D

 38 40  0  0  0  0  0  0  0  0999 V2000
    1.3467    0.5305    0.8364 C   0  0  0  0  0  0  0  0  0  0  0  0
    2.2617    0.0404   -0.1191 O   0  0  0  0  0  0  0  0  0  0  0  0
    2.8384    0.9134   -0.9832 C   0  0  0  0  0  0  0  0  0  0  0  0
    3.7352    0.3517   -1.9077 C   0  0  0  0  0  0  0  0  0  0  0  0
    4.4107    1.1285   -2.8667 C   0  0  0  0  0  0  0  0  0  0  0  0
    5.2725    0.5871   -3.7549 O   0  0  0  0  0  0  0  0  0  0  0  0
    5.5227   -0.7978   -3.7390 C   0  0  0  0  0  0  0  0  0  0  0  0
    4.1791    2.5220   -2.9008 C   0  0  0  0  0  0  0  0  0  0  0  0
    3.2740    3.0440   -1.9567 C   0  0  0  0  0  0  0  0  0  0  0  0
    2.5965    2.2947   -1.0017 C   0  0  0  0  0  0  0  0  0  0  0  0
    3.1633    4.5240   -2.1489 C   0  0  0  0  0  0  0  0  0  0  0  0
    2.4774    5.3001   -1.5161 O   0  0  0  0  0  0  0  0  0  0  0  0
    4.0791    4.8418   -3.2889 C   0  0  0  0  0  0  0  0  0  0  0  0
    4.3029    6.1047   -3.8250 C   0  0  0  0  0  0  0  0  0  0  0  0
    5.2032    6.1938   -4.8967 C   0  0  0  0  0  0  0  0  0  0  0  0
    5.5335    7.3460   -5.5330 O   0  0  0  0  0  0  0  0  0  0  0  0
    4.9443    8.5541   -5.1049 C   0  0  0  0  0  0  0  0  0  0  0  0
    5.8300    5.0319   -5.3774 C   0  0  0  0  0  0  0  0  0  0  0  0
    5.5891    3.7625   -4.8203 C   0  0  0  0  0  0  0  0  0  0  0  0
    6.1919    2.6461   -5.2840 O   0  0  0  0  0  0  0  0  0  0  0  0
    7.0961    2.7283   -6.3593 C   0  0  0  0  0  0  0  0  0  0  0  0
    4.6855    3.6533   -3.7395 C   0  0  0  0  0  0  0  0  0  0  0  0
    1.0059   -0.3367    1.4179 H   0  0  0  0  0  0  0  0  0  0  0  0
    0.4719    1.0082    0.3600 H   0  0  0  0  0  0  0  0  0  0  0  0
    1.8178    1.2586    1.5207 H   0  0  0  0  0  0  0  0  0  0  0  0
    3.8865   -0.7248   -1.8492 H   0  0  0  0  0  0  0  0  0  0  0  0
    6.2477   -0.9908   -4.5413 H   0  0  0  0  0  0  0  0  0  0  0  0
    4.6084   -1.3867   -3.9357 H   0  0  0  0  0  0  0  0  0  0  0  0
    5.9572   -1.1296   -2.7785 H   0  0  0  0  0  0  0  0  0  0  0  0
    1.9165    2.7979   -0.3150 H   0  0  0  0  0  0  0  0  0  0  0  0
    3.7814    6.9626   -3.4016 H   0  0  0  0  0  0  0  0  0  0  0  0
    5.3489    9.3459   -5.7496 H   0  0  0  0  0  0  0  0  0  0  0  0
    5.1958    8.7841   -4.0540 H   0  0  0  0  0  0  0  0  0  0  0  0
    3.8446    8.5343   -5.2088 H   0  0  0  0  0  0  0  0  0  0  0  0
    6.5192    5.1578   -6.2108 H   0  0  0  0  0  0  0  0  0  0  0  0
    7.4470    1.7047   -6.5479 H   0  0  0  0  0  0  0  0  0  0  0  0
    7.9672    3.3654   -6.1209 H   0  0  0  0  0  0  0  0  0  0  0  0
    6.6157    3.1149   -7.2765 H   0  0  0  0  0  0  0  0  0  0  0  0
  1  2  1  0
  1 23  1  0
  1 24  1  0
  1 25  1  0
  2  3  1  0
  3  4  2  0
  3 10  1  0
  4  5  1  0
  4 26  1  0
  5  6  1  0
  5  8  2  0
  6  7  1  0
  7 27  1  0
  7 28  1  0
  7 29  1  0
  8  9  1  0
  8 22  1  0
  9 10  2  0
  9 11  1  0
 10 30  1  0
 11 12  2  0
 11 13  1  0
 13 14  1  0
 13 22  2  0
 14 15  2  0
 14 31  1  0
 15 16  1  0
 15 18  1  0
 16 17  1  0
 17 32  1  0
 17 33  1  0
 17 34  1  0
 18 19  2  0
 18 35  1  0
 19 20  1  0
 19 22  1  0
 20 21  1  0
 21 36  1  0
 21 37  1  0
 21 38  1  0
M  END

