
     RDKit          3D

 33 34  0  0  0  0  0  0  0  0999 V2000
    1.9828    1.5874   -0.4980 C   0  0  0  0  0  0  0  0  0  0  0  0
    1.8755    0.1835   -0.3904 O   0  0  0  0  0  0  0  0  0  0  0  0
    2.4838   -0.6066   -1.3070 C   0  0  0  0  0  0  0  0  0  0  0  0
    3.2582   -0.1327   -2.3744 C   0  0  0  0  0  0  0  0  0  0  0  0
    3.8399   -0.9913   -3.3176 C   0  0  0  0  0  0  0  0  0  0  0  0
    4.6529   -0.4064   -4.4479 C   0  0  0  0  0  0  0  0  0  0  0  0
    3.6309   -2.3900   -3.1970 C   0  0  0  0  0  0  0  0  0  0  0  0
    4.2120   -3.3035   -4.1722 C   0  0  0  0  0  0  0  0  0  0  0  0
    3.8453   -4.5664   -4.5034 C   0  0  0  0  0  0  0  0  0  0  0  0
    2.7859   -5.3677   -4.0781 N   0  0  0  0  0  0  0  0  0  0  0  0
    2.7552   -6.5854   -4.7138 C   0  0  0  0  0  0  0  0  0  0  0  0
    1.6425   -7.7859   -4.5236 S   0  0  0  0  0  0  0  0  0  0  0  0
    3.8554   -6.5853   -5.5532 N   0  0  0  0  0  0  0  0  0  0  0  0
    4.5808   -5.3934   -5.5102 C   0  0  0  0  0  0  0  0  0  0  0  0
    5.5711   -5.1229   -6.1496 O   0  0  0  0  0  0  0  0  0  0  0  0
    2.8747   -2.8569   -2.0976 C   0  0  0  0  0  0  0  0  0  0  0  0
    2.3037   -2.0051   -1.1598 C   0  0  0  0  0  0  0  0  0  0  0  0
    1.5426   -2.5424   -0.1649 O   0  0  0  0  0  0  0  0  0  0  0  0
    1.9748   -2.3587    1.1768 C   0  0  0  0  0  0  0  0  0  0  0  0
    1.4004    2.0081    0.3323 H   0  0  0  0  0  0  0  0  0  0  0  0
    1.5657    1.9556   -1.4518 H   0  0  0  0  0  0  0  0  0  0  0  0
    3.0301    1.9274   -0.4104 H   0  0  0  0  0  0  0  0  0  0  0  0
    3.4094    0.9406   -2.4923 H   0  0  0  0  0  0  0  0  0  0  0  0
    4.6875    0.6905   -4.3830 H   0  0  0  0  0  0  0  0  0  0  0  0
    4.2359   -0.6714   -5.4330 H   0  0  0  0  0  0  0  0  0  0  0  0
    5.6940   -0.7708   -4.4346 H   0  0  0  0  0  0  0  0  0  0  0  0
    5.0662   -2.9520   -4.7563 H   0  0  0  0  0  0  0  0  0  0  0  0
    2.0278   -5.0878   -3.4688 H   0  0  0  0  0  0  0  0  0  0  0  0
    4.0824   -7.3746   -6.1472 H   0  0  0  0  0  0  0  0  0  0  0  0
    2.7426   -3.9244   -1.9161 H   0  0  0  0  0  0  0  0  0  0  0  0
    1.2813   -2.9306    1.8088 H   0  0  0  0  0  0  0  0  0  0  0  0
    1.9488   -1.2995    1.4756 H   0  0  0  0  0  0  0  0  0  0  0  0
    2.9970   -2.7533    1.3221 H   0  0  0  0  0  0  0  0  0  0  0  0
  1  2  1  0
  1 20  1  0
  1 21  1  0
  1 22  1  0
  2  3  1  0
  3  4  2  0
  3 17  1  0
  4  5  1  0
  4 23  1  0
  5  6  1  0
  5  7  2  0
  6 24  1  0
  6 25  1  0
  6 26  1  0
  7  8  1  0
  7 16  1  0
  8  9  2  0
  8 27  1  0
  9 10  1  0
  9 14  1  0
 10 11  1  0
 10 28  1  0
 11 12  2  0
 11 13  1  0
 13 14  1  0
 13 29  1  0
 14 15  2  0
 16 17  2  0
 16 30  1  0
 17 18  1  0
 18 19  1  0
 19 31  1  0
 19 32  1  0
 19 33  1  0
M  END

