
     RDKit          3D

 45 47  0  0  0  0  0  0  0  0999 V2000
   -0.8294    0.9718   -2.9383 N   0  0  0  0  0  0  0  0  0  0  0  0
   -0.1178   -0.0125   -1.7623 S   0  0  1  0  0  0  0  0  0  0  0  0
    0.4992    0.8937   -0.7910 O   0  0  0  0  0  0  0  0  0  0  0  0
   -1.0949   -1.0340   -1.3789 O   0  0  0  0  0  0  0  0  0  0  0  0
    1.2017   -0.8395   -2.6545 C   0  0  0  0  0  0  0  0  0  0  0  0
    2.4452   -0.2132   -2.7720 C   0  0  0  0  0  0  0  0  0  0  0  0
    3.4676   -0.8649   -3.4607 C   0  0  0  0  0  0  0  0  0  0  0  0
    3.2611   -2.1304   -4.0339 C   0  0  0  0  0  0  0  0  0  0  0  0
    4.3824   -2.7885   -4.8179 C   0  0  0  0  0  0  0  0  0  0  0  0
    4.3583   -4.2342   -4.7853 N   0  0  0  0  0  0  0  0  0  0  0  0
    4.3431   -5.0050   -5.8913 C   0  0  0  0  0  0  0  0  0  0  0  0
    4.3327   -4.6119   -7.0504 O   0  0  0  0  0  0  0  0  0  0  0  0
    4.3324   -6.5131   -5.5453 C   0  0  0  0  0  0  0  0  0  0  0  0
    4.3392   -6.8970   -4.3847 O   0  0  0  0  0  0  0  0  0  0  0  0
    4.3152   -7.2571   -6.6775 N   0  0  0  0  0  0  0  0  0  0  0  0
    4.2979   -8.6518   -6.8345 C   0  0  0  0  0  0  0  0  0  0  0  0
    4.2909   -9.5036   -5.7383 C   0  0  0  0  0  0  0  0  0  0  0  0
    4.2716  -10.9015   -5.9273 C   0  0  0  0  0  0  0  0  0  0  0  0
    4.2589  -11.4435   -7.1937 C   0  0  0  0  0  0  0  0  0  0  0  0
    4.2659  -10.6057   -8.3426 C   0  0  0  0  0  0  0  0  0  0  0  0
    4.2532  -11.1447   -9.6731 C   0  0  0  0  0  0  0  0  0  0  0  0
    4.2316  -12.4800   -9.9026 O   0  0  0  0  0  0  0  0  0  0  0  0
    4.2629  -10.3065  -10.7743 C   0  0  0  0  0  0  0  0  0  0  0  0
    4.2854   -8.9097  -10.5972 C   0  0  0  0  0  0  0  0  0  0  0  0
    4.2973   -8.3494   -9.3348 C   0  0  0  0  0  0  0  0  0  0  0  0
    4.2873   -9.1767   -8.1779 C   0  0  0  0  0  0  0  0  0  0  0  0
    2.0083   -2.7436   -3.8879 C   0  0  0  0  0  0  0  0  0  0  0  0
    0.9762   -2.1060   -3.1964 C   0  0  0  0  0  0  0  0  0  0  0  0
   -0.8484    1.9361   -2.6058 H   0  0  0  0  0  0  0  0  0  0  0  0
   -1.7620    0.6305   -3.1709 H   0  0  0  0  0  0  0  0  0  0  0  0
    2.6092    0.7615   -2.3093 H   0  0  0  0  0  0  0  0  0  0  0  0
    4.4466   -0.3850   -3.5469 H   0  0  0  0  0  0  0  0  0  0  0  0
    5.3530   -2.4134   -4.4486 H   0  0  0  0  0  0  0  0  0  0  0  0
    4.3179   -2.5051   -5.8818 H   0  0  0  0  0  0  0  0  0  0  0  0
    4.3816   -4.7401   -3.9018 H   0  0  0  0  0  0  0  0  0  0  0  0
    4.3112   -6.6730   -7.5115 H   0  0  0  0  0  0  0  0  0  0  0  0
    4.3003   -9.0792   -4.7369 H   0  0  0  0  0  0  0  0  0  0  0  0
    4.2665  -11.5547   -5.0517 H   0  0  0  0  0  0  0  0  0  0  0  0
    4.2440  -12.5329   -7.2923 H   0  0  0  0  0  0  0  0  0  0  0  0
    4.2233  -12.9649   -9.0685 H   0  0  0  0  0  0  0  0  0  0  0  0
    4.2530  -10.7527  -11.7703 H   0  0  0  0  0  0  0  0  0  0  0  0
    4.2937   -8.2611  -11.4766 H   0  0  0  0  0  0  0  0  0  0  0  0
    4.3159   -7.2612   -9.2557 H   0  0  0  0  0  0  0  0  0  0  0  0
    1.8396   -3.7365   -4.3102 H   0  0  0  0  0  0  0  0  0  0  0  0
    0.0058   -2.5872   -3.0627 H   0  0  0  0  0  0  0  0  0  0  0  0
  2  1  1  6
  1 29  1  0
  1 30  1  0
  2  3  2  0
  2  4  2  0
  2  5  1  0
  5  6  2  0
  5 28  1  0
  6  7  1  0
  6 31  1  0
  7  8  2  0
  7 32  1  0
  8  9  1  0
  8 27  1  0
  9 10  1  0
  9 33  1  0
  9 34  1  0
 10 11  1  0
 10 35  1  0
 11 12  2  0
 11 13  1  0
 13 14  2  0
 13 15  1  0
 15 16  1  0
 15 36  1  0
 16 17  2  0
 16 26  1  0
 17 18  1  0
 17 37  1  0
 18 19  2  0
 18 38  1  0
 19 20  1  0
 19 39  1  0
 20 21  1  0
 20 26  2  0
 21 22  1  0
 21 23  2  0
 22 40  1  0
 23 24  1  0
 23 41  1  0
 24 25  2  0
 24 42  1  0
 25 26  1  0
 25 43  1  0
 27 28  2  0
 27 44  1  0
 28 45  1  0
M  END

