
     RDKit          3D

 48 49  0  0  0  0  0  0  0  0999 V2000
    5.3755    1.9394    2.2762 C   0  0  0  0  0  0  0  0  0  0  0  0
    4.7913    0.7268    1.5478 C   0  0  0  0  0  0  0  0  0  0  0  0
    3.2994    0.4971    1.7982 C   0  0  1  0  0  0  0  0  0  0  0  0
    2.6847   -0.6860    1.0286 C   0  0  0  0  0  0  0  0  0  0  0  0
    1.3707   -0.9563    1.7646 C   0  0  0  0  0  0  0  0  0  0  0  0
    1.6906   -0.5962    3.1476 N   0  0  0  0  0  0  0  0  0  0  0  0
    0.8025   -0.8838    4.1557 C   0  0  0  0  0  0  0  0  0  0  0  0
   -0.2723   -1.4279    3.9394 O   0  0  0  0  0  0  0  0  0  0  0  0
    1.2045   -0.5023    5.4287 N   0  0  0  0  0  0  0  0  0  0  0  0
    0.4069   -0.7979    6.5850 C   0  0  1  0  0  0  0  0  0  0  0  0
    0.8977   -1.8313    7.6344 C   0  0  0  0  0  0  0  0  0  0  0  0
    0.3583   -0.9042    8.7610 C   0  0  2  0  0  0  0  0  0  0  0  0
   -0.9774   -1.2671    9.2480 N   0  0  0  0  0  0  0  0  0  0  0  0
   -1.1073   -2.6202    9.8177 C   0  0  0  0  0  0  0  0  0  0  0  0
   -0.2085   -2.9462   11.0153 C   0  0  0  0  0  0  0  0  0  0  0  0
   -1.6106   -0.2412   10.0782 C   0  0  0  0  0  0  0  0  0  0  0  0
   -3.0809   -0.0126    9.6843 C   0  0  0  0  0  0  0  0  0  0  0  0
   -3.8509    0.6197   10.3565 O   0  0  0  0  0  0  0  0  0  0  0  0
   -3.3923   -0.5603    8.5065 O   0  0  0  0  0  0  0  0  0  0  0  0
    0.3203    0.2528    7.7182 C   0  0  0  0  0  0  0  0  0  0  0  0
    2.9248    0.1733    3.2603 C   0  0  0  0  0  0  0  0  0  0  0  0
    6.4413    2.0753    2.0338 H   0  0  0  0  0  0  0  0  0  0  0  0
    5.3004    1.8360    3.3714 H   0  0  0  0  0  0  0  0  0  0  0  0
    4.8502    2.8674    1.9951 H   0  0  0  0  0  0  0  0  0  0  0  0
    5.3467   -0.1850    1.8358 H   0  0  0  0  0  0  0  0  0  0  0  0
    4.9479    0.8442    0.4612 H   0  0  0  0  0  0  0  0  0  0  0  0
    2.7501    1.4125    1.5090 H   0  0  0  0  0  0  0  0  0  0  0  0
    3.3518   -1.5628    1.1039 H   0  0  0  0  0  0  0  0  0  0  0  0
    2.5383   -0.4703   -0.0405 H   0  0  0  0  0  0  0  0  0  0  0  0
    1.0317   -2.0009    1.7038 H   0  0  0  0  0  0  0  0  0  0  0  0
    0.5471   -0.3295    1.3749 H   0  0  0  0  0  0  0  0  0  0  0  0
    2.1651   -0.2202    5.5793 H   0  0  0  0  0  0  0  0  0  0  0  0
   -0.5862   -1.0717    6.2065 H   0  0  0  0  0  0  0  0  0  0  0  0
    1.9976   -1.8795    7.6686 H   0  0  0  0  0  0  0  0  0  0  0  0
    0.5068   -2.8558    7.5588 H   0  0  0  0  0  0  0  0  0  0  0  0
    1.0637   -0.7438    9.5992 H   0  0  0  0  0  0  0  0  0  0  0  0
   -0.9267   -3.3532    9.0165 H   0  0  0  0  0  0  0  0  0  0  0  0
   -2.1650   -2.7474   10.1015 H   0  0  0  0  0  0  0  0  0  0  0  0
    0.8588   -2.9309   10.7437 H   0  0  0  0  0  0  0  0  0  0  0  0
   -0.4387   -3.9554   11.3918 H   0  0  0  0  0  0  0  0  0  0  0  0
   -0.3555   -2.2421   11.8500 H   0  0  0  0  0  0  0  0  0  0  0  0
   -1.1019    0.7264    9.9482 H   0  0  0  0  0  0  0  0  0  0  0  0
   -1.5800   -0.4563   11.1603 H   0  0  0  0  0  0  0  0  0  0  0  0
   -2.5639   -1.0215    8.2261 H   0  0  0  0  0  0  0  0  0  0  0  0
    1.2336    0.8664    7.7739 H   0  0  0  0  0  0  0  0  0  0  0  0
   -0.5520    0.9234    7.7216 H   0  0  0  0  0  0  0  0  0  0  0  0
    3.7337   -0.4160    3.7425 H   0  0  0  0  0  0  0  0  0  0  0  0
    2.7767    1.0866    3.8623 H   0  0  0  0  0  0  0  0  0  0  0  0
  1  2  1  0
  1 22  1  0
  1 23  1  0
  1 24  1  0
  2  3  1  0
  2 25  1  0
  2 26  1  0
  3  4  1  0
  3 21  1  0
  3 27  1  6
  4  5  1  0
  4 28  1  0
  4 29  1  0
  5  6  1  0
  5 30  1  0
  5 31  1  0
  6  7  1  0
  6 21  1  0
  7  8  2  0
  7  9  1  0
  9 10  1  0
  9 32  1  0
 10 11  1  0
 10 20  1  0
 10 33  1  6
 11 12  1  0
 11 34  1  0
 11 35  1  0
 12 13  1  0
 12 20  1  0
 12 36  1  1
 13 14  1  0
 13 16  1  0
 14 15  1  0
 14 37  1  0
 14 38  1  0
 15 39  1  0
 15 40  1  0
 15 41  1  0
 16 17  1  0
 16 42  1  0
 16 43  1  0
 17 18  2  0
 17 19  1  0
 19 44  1  0
 20 45  1  0
 20 46  1  0
 21 47  1  0
 21 48  1  0
M  END

