
     RDKit          3D

 52 52  0  0  0  0  0  0  0  0999 V2000
    4.7136   -2.6308    3.4908 C   0  0  0  0  0  0  0  0  0  0  0  0
    5.0699   -1.7927    2.4247 O   0  0  0  0  0  0  0  0  0  0  0  0
    5.4790   -0.5100    2.8203 C   0  0  0  0  0  0  0  0  0  0  0  0
    5.8397    0.2727    1.5694 C   0  0  0  0  0  0  0  0  0  0  0  0
    6.2460    1.5617    1.9609 O   0  0  0  0  0  0  0  0  0  0  0  0
    6.6099    2.4007    0.8985 C   0  0  0  0  0  0  0  0  0  0  0  0
    7.0765    3.7313    1.4454 C   0  0  0  0  0  0  0  0  0  0  0  0
    8.3107    3.5359    2.1168 O   0  0  0  0  0  0  0  0  0  0  0  0
    8.9044    4.5731    2.7511 C   0  0  0  0  0  0  0  0  0  0  0  0
    8.4294    5.8873    2.7278 C   0  0  0  0  0  0  0  0  0  0  0  0
    9.1095    6.9136    3.3988 C   0  0  0  0  0  0  0  0  0  0  0  0
    8.5486    8.2889    3.3310 C   0  0  0  0  0  0  0  0  0  0  0  0
    7.5359    8.5675    2.7245 O   0  0  0  0  0  0  0  0  0  0  0  0
   10.2980    6.6329    4.1167 C   0  0  0  0  0  0  0  0  0  0  0  0
   10.9058    7.6720    4.7398 O   0  0  0  0  0  0  0  0  0  0  0  0
   12.0972    7.4514    5.4754 C   0  0  0  0  0  0  0  0  0  0  0  0
   12.5296    8.7911    6.0478 C   0  0  0  0  0  0  0  0  0  0  0  0
   13.7080    8.5734    6.7755 O   0  0  0  0  0  0  0  0  0  0  0  0
   14.2445    9.7273    7.3774 C   0  0  0  0  0  0  0  0  0  0  0  0
   15.5077    9.3289    8.1213 C   0  0  0  0  0  0  0  0  0  0  0  0
   16.0384   10.4816    8.7195 O   0  0  0  0  0  0  0  0  0  0  0  0
   17.2169   10.2560    9.4451 C   0  0  0  0  0  0  0  0  0  0  0  0
   10.7711    5.3181    4.1440 C   0  0  0  0  0  0  0  0  0  0  0  0
   10.0890    4.2919    3.4764 C   0  0  0  0  0  0  0  0  0  0  0  0
   10.6348    2.9105    3.5594 C   0  0  0  0  0  0  0  0  0  0  0  0
   11.6531    2.6314    4.1561 O   0  0  0  0  0  0  0  0  0  0  0  0
    4.4127   -3.6016    3.0704 H   0  0  0  0  0  0  0  0  0  0  0  0
    3.8647   -2.2214    4.0758 H   0  0  0  0  0  0  0  0  0  0  0  0
    5.5585   -2.7959    4.1903 H   0  0  0  0  0  0  0  0  0  0  0  0
    6.3594   -0.5521    3.4948 H   0  0  0  0  0  0  0  0  0  0  0  0
    4.6751    0.0231    3.3698 H   0  0  0  0  0  0  0  0  0  0  0  0
    4.9606    0.3136    0.8937 H   0  0  0  0  0  0  0  0  0  0  0  0
    6.6467   -0.2561    1.0229 H   0  0  0  0  0  0  0  0  0  0  0  0
    5.7509    2.5842    0.2187 H   0  0  0  0  0  0  0  0  0  0  0  0
    7.4198    1.9487    0.2896 H   0  0  0  0  0  0  0  0  0  0  0  0
    6.3194    4.1310    2.1433 H   0  0  0  0  0  0  0  0  0  0  0  0
    7.1986    4.4496    0.6139 H   0  0  0  0  0  0  0  0  0  0  0  0
    7.5234    6.1737    2.1938 H   0  0  0  0  0  0  0  0  0  0  0  0
    9.1235    9.0676    3.8810 H   0  0  0  0  0  0  0  0  0  0  0  0
   12.8937    7.0467    4.8260 H   0  0  0  0  0  0  0  0  0  0  0  0
   11.9283    6.7308    6.2952 H   0  0  0  0  0  0  0  0  0  0  0  0
   11.7226    9.1992    6.6903 H   0  0  0  0  0  0  0  0  0  0  0  0
   12.6875    9.5152    5.2223 H   0  0  0  0  0  0  0  0  0  0  0  0
   13.5249   10.1822    8.0878 H   0  0  0  0  0  0  0  0  0  0  0  0
   14.4892   10.4995    6.6202 H   0  0  0  0  0  0  0  0  0  0  0  0
   16.2259    8.8708    7.4095 H   0  0  0  0  0  0  0  0  0  0  0  0
   15.2618    8.5534    8.8767 H   0  0  0  0  0  0  0  0  0  0  0  0
   17.5423   11.2182    9.8671 H   0  0  0  0  0  0  0  0  0  0  0  0
   18.0303    9.8589    8.8039 H   0  0  0  0  0  0  0  0  0  0  0  0
   17.0617    9.5399   10.2779 H   0  0  0  0  0  0  0  0  0  0  0  0
   11.6759    5.0327    4.6808 H   0  0  0  0  0  0  0  0  0  0  0  0
   10.0381    2.1301    3.0361 H   0  0  0  0  0  0  0  0  0  0  0  0
  1  2  1  0
  1 27  1  0
  1 28  1  0
  1 29  1  0
  2  3  1  0
  3  4  1  0
  3 30  1  0
  3 31  1  0
  4  5  1  0
  4 32  1  0
  4 33  1  0
  5  6  1  0
  6  7  1  0
  6 34  1  0
  6 35  1  0
  7  8  1  0
  7 36  1  0
  7 37  1  0
  8  9  1  0
  9 10  2  0
  9 24  1  0
 10 11  1  0
 10 38  1  0
 11 12  1  0
 11 14  2  0
 12 13  2  0
 12 39  1  0
 14 15  1  0
 14 23  1  0
 15 16  1  0
 16 17  1  0
 16 40  1  0
 16 41  1  0
 17 18  1  0
 17 42  1  0
 17 43  1  0
 18 19  1  0
 19 20  1  0
 19 44  1  0
 19 45  1  0
 20 21  1  0
 20 46  1  0
 20 47  1  0
 21 22  1  0
 22 48  1  0
 22 49  1  0
 22 50  1  0
 23 24  2  0
 23 51  1  0
 24 25  1  0
 25 26  2  0
 25 52  1  0
M  END

