
     RDKit          3D

 55 58  0  0  0  0  0  0  0  0999 V2000
    0.5341    1.1968    0.2214 C   0  0  0  0  0  0  0  0  0  0  0  0
    1.8637    0.7290    0.2427 O   0  0  0  0  0  0  0  0  0  0  0  0
    2.6954    1.1363    1.2343 C   0  0  0  0  0  0  0  0  0  0  0  0
    2.3325    2.0032    2.2757 C   0  0  0  0  0  0  0  0  0  0  0  0
    3.2706    2.3585    3.2493 C   0  0  0  0  0  0  0  0  0  0  0  0
    4.5859    1.8617    3.2239 C   0  0  0  0  0  0  0  0  0  0  0  0
    5.5821    2.2793    4.2241 C   0  0  0  0  0  0  0  0  0  0  0  0
    6.6328    1.5980    4.8057 C   0  0  0  0  0  0  0  0  0  0  0  0
    6.9409    0.2676    4.8051 N   0  0  0  0  0  0  0  0  0  0  0  0
    5.8813   -0.7491    4.7945 C   0  0  0  0  0  0  0  0  0  0  0  0
    6.2624   -1.9751    3.9616 C   0  0  0  0  0  0  0  0  0  0  0  0
    7.6209   -2.5769    4.3701 C   0  0  2  0  0  0  0  0  0  0  0  0
    7.5573   -3.3566    5.6914 C   0  0  0  0  0  0  0  0  0  0  0  0
    8.6681   -1.4477    4.3887 C   0  0  0  0  0  0  0  0  0  0  0  0
    8.2484   -0.2428    5.2383 C   0  0  0  0  0  0  0  0  0  0  0  0
    7.4300    2.6019    5.6418 C   0  0  0  0  0  0  0  0  0  0  0  0
    8.4057    2.4017    6.3361 O   0  0  0  0  0  0  0  0  0  0  0  0
    6.7935    3.8149    5.5000 N   0  0  0  0  0  0  0  0  0  0  0  0
    7.2353    5.0600    6.1147 C   0  0  0  0  0  0  0  0  0  0  0  0
    8.2386    5.8330    5.2776 C   0  0  0  0  0  0  0  0  0  0  0  0
    7.7996    6.6937    4.2591 C   0  0  0  0  0  0  0  0  0  0  0  0
    8.7217    7.3947    3.4778 C   0  0  0  0  0  0  0  0  0  0  0  0
   10.0937    7.2431    3.7044 C   0  0  0  0  0  0  0  0  0  0  0  0
   10.5390    6.3844    4.7137 C   0  0  0  0  0  0  0  0  0  0  0  0
    9.6162    5.6824    5.4949 C   0  0  0  0  0  0  0  0  0  0  0  0
    5.6627    3.6945    4.6674 C   0  0  0  0  0  0  0  0  0  0  0  0
    4.9324    4.6266    4.4011 O   0  0  0  0  0  0  0  0  0  0  0  0
    4.9332    1.0015    2.1577 C   0  0  0  0  0  0  0  0  0  0  0  0
    4.0113    0.6413    1.1839 C   0  0  0  0  0  0  0  0  0  0  0  0
    0.0569    0.7444   -0.6583 H   0  0  0  0  0  0  0  0  0  0  0  0
    0.4860    2.2968    0.1279 H   0  0  0  0  0  0  0  0  0  0  0  0
   -0.0239    0.8938    1.1259 H   0  0  0  0  0  0  0  0  0  0  0  0
    1.3240    2.4123    2.3402 H   0  0  0  0  0  0  0  0  0  0  0  0
    2.9749    3.0468    4.0415 H   0  0  0  0  0  0  0  0  0  0  0  0
    4.9546   -0.3064    4.4147 H   0  0  0  0  0  0  0  0  0  0  0  0
    5.6842   -1.0491    5.8435 H   0  0  0  0  0  0  0  0  0  0  0  0
    6.3010   -1.6802    2.8998 H   0  0  0  0  0  0  0  0  0  0  0  0
    5.4611   -2.7278    4.0514 H   0  0  0  0  0  0  0  0  0  0  0  0
    7.9170   -3.2951    3.5857 H   0  0  0  0  0  0  0  0  0  0  0  0
    7.2642   -2.7257    6.5457 H   0  0  0  0  0  0  0  0  0  0  0  0
    8.5372   -3.7989    5.9339 H   0  0  0  0  0  0  0  0  0  0  0  0
    6.8270   -4.1795    5.6268 H   0  0  0  0  0  0  0  0  0  0  0  0
    8.8423   -1.1004    3.3555 H   0  0  0  0  0  0  0  0  0  0  0  0
    9.6347   -1.8227    4.7655 H   0  0  0  0  0  0  0  0  0  0  0  0
    8.9914    0.5555    5.1578 H   0  0  0  0  0  0  0  0  0  0  0  0
    8.2084   -0.5177    6.3099 H   0  0  0  0  0  0  0  0  0  0  0  0
    7.6719    4.8035    7.0903 H   0  0  0  0  0  0  0  0  0  0  0  0
    6.3315    5.6636    6.2779 H   0  0  0  0  0  0  0  0  0  0  0  0
    6.7270    6.8028    4.0774 H   0  0  0  0  0  0  0  0  0  0  0  0
    8.3676    8.0640    2.6893 H   0  0  0  0  0  0  0  0  0  0  0  0
   10.8148    7.7941    3.0948 H   0  0  0  0  0  0  0  0  0  0  0  0
   11.6100    6.2606    4.8949 H   0  0  0  0  0  0  0  0  0  0  0  0
    9.9642    5.0026    6.2772 H   0  0  0  0  0  0  0  0  0  0  0  0
    5.9562    0.6257    2.0866 H   0  0  0  0  0  0  0  0  0  0  0  0
    4.2863   -0.0178    0.3578 H   0  0  0  0  0  0  0  0  0  0  0  0
  1  2  1  0
  1 30  1  0
  1 31  1  0
  1 32  1  0
  2  3  1  0
  3  4  2  0
  3 29  1  0
  4  5  1  0
  4 33  1  0
  5  6  2  0
  5 34  1  0
  6  7  1  0
  6 28  1  0
  7  8  2  0
  7 26  1  0
  8  9  1  0
  8 16  1  0
  9 10  1  0
  9 15  1  0
 10 11  1  0
 10 35  1  0
 10 36  1  0
 11 12  1  0
 11 37  1  0
 11 38  1  0
 12 13  1  0
 12 14  1  0
 12 39  1  6
 13 40  1  0
 13 41  1  0
 13 42  1  0
 14 15  1  0
 14 43  1  0
 14 44  1  0
 15 45  1  0
 15 46  1  0
 16 17  2  0
 16 18  1  0
 18 19  1  0
 18 26  1  0
 19 20  1  0
 19 47  1  0
 19 48  1  0
 20 21  2  0
 20 25  1  0
 21 22  1  0
 21 49  1  0
 22 23  2  0
 22 50  1  0
 23 24  1  0
 23 51  1  0
 24 25  2  0
 24 52  1  0
 25 53  1  0
 26 27  2  0
 28 29  2  0
 28 54  1  0
 29 55  1  0
M  END

