
     RDKit          3D

 45 47  0  0  0  0  0  0  0  0999 V2000
    0.9340   -2.3478   -5.9978 C   0  0  0  0  0  0  0  0  0  0  0  0
    1.6322   -1.0175   -5.7917 C   0  0  0  0  0  0  0  0  0  0  0  0
    2.0555   -0.9345   -4.4379 O   0  0  0  0  0  0  0  0  0  0  0  0
    2.8558    0.1015   -4.0418 C   0  0  0  0  0  0  0  0  0  0  0  0
    3.1584    1.2132   -4.8304 C   0  0  0  0  0  0  0  0  0  0  0  0
    3.9927    2.2219   -4.3294 C   0  0  0  0  0  0  0  0  0  0  0  0
    4.5199    2.1148   -3.0447 C   0  0  0  0  0  0  0  0  0  0  0  0
    4.2213    1.0060   -2.2439 C   0  0  0  0  0  0  0  0  0  0  0  0
    3.3875   -0.0101   -2.7290 C   0  0  0  0  0  0  0  0  0  0  0  0
    3.0308   -1.1602   -2.0065 N   0  0  0  0  0  0  0  0  0  0  0  0
    3.4382   -1.5470   -0.7541 C   0  0  0  0  0  0  0  0  0  0  0  0
    4.2027   -0.9120   -0.0482 O   0  0  0  0  0  0  0  0  0  0  0  0
    2.8532   -2.8849   -0.2902 C   0  0  0  0  0  0  0  0  0  0  0  0
    1.3394   -2.8863   -0.1299 C   0  0  1  0  0  0  0  0  0  0  0  0
    0.7405   -2.8188   -1.4294 O   0  0  0  0  0  0  0  0  0  0  0  0
   -0.6256   -2.8970   -1.4552 C   0  0  0  0  0  0  0  0  0  0  0  0
   -1.3621   -2.1994   -2.4067 C   0  0  0  0  0  0  0  0  0  0  0  0
   -2.7532   -2.3472   -2.4521 C   0  0  0  0  0  0  0  0  0  0  0  0
   -3.4248   -3.1782   -1.5437 C   0  0  0  0  0  0  0  0  0  0  0  0
   -4.9262   -3.3341   -1.5791 C   0  0  0  0  0  0  0  0  0  0  0  0
   -2.6667   -3.8656   -0.5807 C   0  0  0  0  0  0  0  0  0  0  0  0
   -1.2767   -3.7366   -0.5334 C   0  0  0  0  0  0  0  0  0  0  0  0
   -0.4732   -4.4325    0.3813 N   0  0  0  0  0  0  0  0  0  0  0  0
    0.8394   -4.1224    0.6408 C   0  0  0  0  0  0  0  0  0  0  0  0
    1.5187   -4.7337    1.4387 O   0  0  0  0  0  0  0  0  0  0  0  0
    0.5982   -2.4379   -7.0425 H   0  0  0  0  0  0  0  0  0  0  0  0
    0.0540   -2.4420   -5.3437 H   0  0  0  0  0  0  0  0  0  0  0  0
    1.6151   -3.1843   -5.7786 H   0  0  0  0  0  0  0  0  0  0  0  0
    0.9537   -0.1761   -6.0274 H   0  0  0  0  0  0  0  0  0  0  0  0
    2.5096   -0.9307   -6.4590 H   0  0  0  0  0  0  0  0  0  0  0  0
    2.7470    1.3038   -5.8359 H   0  0  0  0  0  0  0  0  0  0  0  0
    4.2238    3.0875   -4.9547 H   0  0  0  0  0  0  0  0  0  0  0  0
    5.1729    2.8970   -2.6505 H   0  0  0  0  0  0  0  0  0  0  0  0
    4.6290    0.9057   -1.2407 H   0  0  0  0  0  0  0  0  0  0  0  0
    2.3536   -1.7578   -2.4726 H   0  0  0  0  0  0  0  0  0  0  0  0
    3.3024   -3.1121    0.6835 H   0  0  0  0  0  0  0  0  0  0  0  0
    3.1310   -3.6911   -0.9901 H   0  0  0  0  0  0  0  0  0  0  0  0
    1.0230   -1.9974    0.4551 H   0  0  0  0  0  0  0  0  0  0  0  0
   -0.8292   -1.5489   -3.1030 H   0  0  0  0  0  0  0  0  0  0  0  0
   -3.3249   -1.7973   -3.2039 H   0  0  0  0  0  0  0  0  0  0  0  0
   -5.3706   -2.7591   -2.4043 H   0  0  0  0  0  0  0  0  0  0  0  0
   -5.3890   -2.9850   -0.6407 H   0  0  0  0  0  0  0  0  0  0  0  0
   -5.2186   -4.3895   -1.7090 H   0  0  0  0  0  0  0  0  0  0  0  0
   -3.1645   -4.5197    0.1416 H   0  0  0  0  0  0  0  0  0  0  0  0
   -0.8698   -5.1900    0.9300 H   0  0  0  0  0  0  0  0  0  0  0  0
  1  2  1  0
  1 26  1  0
  1 27  1  0
  1 28  1  0
  2  3  1  0
  2 29  1  0
  2 30  1  0
  3  4  1  0
  4  5  2  0
  4  9  1  0
  5  6  1  0
  5 31  1  0
  6  7  2  0
  6 32  1  0
  7  8  1  0
  7 33  1  0
  8  9  2  0
  8 34  1  0
  9 10  1  0
 10 11  1  0
 10 35  1  0
 11 12  2  0
 11 13  1  0
 13 14  1  0
 13 36  1  0
 13 37  1  0
 14 15  1  0
 14 24  1  0
 14 38  1  1
 15 16  1  0
 16 17  2  0
 16 22  1  0
 17 18  1  0
 17 39  1  0
 18 19  2  0
 18 40  1  0
 19 20  1  0
 19 21  1  0
 20 41  1  0
 20 42  1  0
 20 43  1  0
 21 22  2  0
 21 44  1  0
 22 23  1  0
 23 24  1  0
 23 45  1  0
 24 25  2  0
M  END

