
     RDKit          3D

 41 44  0  0  0  0  0  0  0  0999 V2000
    1.0579   -0.2728    0.2388 C   0  0  0  0  0  0  0  0  0  0  0  0
    2.4948   -0.1887    0.0944 N   0  0  0  0  0  0  0  0  0  0  0  0
    3.1080    0.9956   -0.1562 N   0  0  0  0  0  0  0  0  0  0  0  0
    4.4014    0.7467   -0.2196 C   0  0  0  0  0  0  0  0  0  0  0  0
    4.6769   -0.6446   -0.0108 C   0  0  0  0  0  0  0  0  0  0  0  0
    5.7552   -1.5880    0.0892 C   0  0  0  0  0  0  0  0  0  0  0  0
    7.0734   -1.2798   -0.1125 N   0  0  0  0  0  0  0  0  0  0  0  0
    8.1344   -2.2124    0.2680 C   0  0  0  0  0  0  0  0  0  0  0  0
    9.2438   -2.2140   -0.7774 C   0  0  0  0  0  0  0  0  0  0  0  0
    9.7301   -0.9074   -1.0137 O   0  0  0  0  0  0  0  0  0  0  0  0
    8.7045   -0.0595   -1.4754 C   0  0  0  0  0  0  0  0  0  0  0  0
    7.5496    0.0474   -0.4748 C   0  0  0  0  0  0  0  0  0  0  0  0
    5.4629   -2.8544    0.3952 N   0  0  0  0  0  0  0  0  0  0  0  0
    4.1798   -3.2448    0.5707 C   0  0  0  0  0  0  0  0  0  0  0  0
    4.0655   -4.5854    0.8699 N   0  0  0  0  0  0  0  0  0  0  0  0
    2.9627   -5.4045    1.1240 C   0  0  0  0  0  0  0  0  0  0  0  0
    1.6248   -4.9648    1.1188 C   0  0  0  0  0  0  0  0  0  0  0  0
    0.5891   -5.8622    1.3850 C   0  0  0  0  0  0  0  0  0  0  0  0
    0.8645   -7.2031    1.6590 C   0  0  0  0  0  0  0  0  0  0  0  0
   -0.4441   -8.3193    1.9917 Cl  0  0  0  0  0  0  0  0  0  0  0  0
    2.1866   -7.6567    1.6681 C   0  0  0  0  0  0  0  0  0  0  0  0
    3.2206   -6.7633    1.4029 C   0  0  0  0  0  0  0  0  0  0  0  0
    3.0955   -2.4797    0.4808 N   0  0  0  0  0  0  0  0  0  0  0  0
    3.3913   -1.2041    0.2009 C   0  0  0  0  0  0  0  0  0  0  0  0
    0.6564    0.7382    0.1031 H   0  0  0  0  0  0  0  0  0  0  0  0
    0.7867   -0.6485    1.2376 H   0  0  0  0  0  0  0  0  0  0  0  0
    0.6268   -0.9472   -0.5173 H   0  0  0  0  0  0  0  0  0  0  0  0
    5.0815    1.5773   -0.3977 H   0  0  0  0  0  0  0  0  0  0  0  0
    7.6943   -3.2090    0.3817 H   0  0  0  0  0  0  0  0  0  0  0  0
    8.5577   -1.9049    1.2445 H   0  0  0  0  0  0  0  0  0  0  0  0
    8.8666   -2.6592   -1.7213 H   0  0  0  0  0  0  0  0  0  0  0  0
   10.0946   -2.8173   -0.4264 H   0  0  0  0  0  0  0  0  0  0  0  0
    8.3090   -0.4267   -2.4456 H   0  0  0  0  0  0  0  0  0  0  0  0
    9.1497    0.9339   -1.6388 H   0  0  0  0  0  0  0  0  0  0  0  0
    6.7425    0.6196   -0.9424 H   0  0  0  0  0  0  0  0  0  0  0  0
    7.8896    0.5967    0.4254 H   0  0  0  0  0  0  0  0  0  0  0  0
    4.9705   -5.0395    0.9043 H   0  0  0  0  0  0  0  0  0  0  0  0
    1.4129   -3.9206    0.9049 H   0  0  0  0  0  0  0  0  0  0  0  0
   -0.4457   -5.5147    1.3794 H   0  0  0  0  0  0  0  0  0  0  0  0
    2.4029   -8.7047    1.8822 H   0  0  0  0  0  0  0  0  0  0  0  0
    4.2532   -7.1250    1.4117 H   0  0  0  0  0  0  0  0  0  0  0  0
  1  2  1  0
  1 25  1  0
  1 26  1  0
  1 27  1  0
  2  3  1  0
  2 24  1  0
  3  4  2  0
  4  5  1  0
  4 28  1  0
  5  6  1  0
  5 24  2  0
  6  7  1  0
  6 13  2  0
  7  8  1  0
  7 12  1  0
  8  9  1  0
  8 29  1  0
  8 30  1  0
  9 10  1  0
  9 31  1  0
  9 32  1  0
 10 11  1  0
 11 12  1  0
 11 33  1  0
 11 34  1  0
 12 35  1  0
 12 36  1  0
 13 14  1  0
 14 15  1  0
 14 23  2  0
 15 16  1  0
 15 37  1  0
 16 17  2  0
 16 22  1  0
 17 18  1  0
 17 38  1  0
 18 19  2  0
 18 39  1  0
 19 20  1  0
 19 21  1  0
 21 22  2  0
 21 40  1  0
 22 41  1  0
 23 24  1  0
M  END

