
     RDKit          3D

 35 36  0  0  0  0  0  0  0  0999 V2000
    1.2405   -0.7390   -1.0856 C   0  0  0  0  0  0  0  0  0  0  0  0
    2.4789   -0.3168   -0.4661 N   0  0  0  0  0  0  0  0  0  0  0  0
    3.3868    0.5832   -0.9370 C   0  0  0  0  0  0  0  0  0  0  0  0
    4.4119    0.6608    0.0006 C   0  0  0  0  0  0  0  0  0  0  0  0
    5.6674    1.5051   -0.0347 C   0  0  1  0  0  0  0  0  0  0  0  0
    6.5686    1.1662   -1.2323 C   0  0  0  0  0  0  0  0  0  0  0  0
    7.8598    1.8161   -1.0812 N   0  0  0  0  0  0  0  0  0  0  0  0
    5.4338    2.9571   -0.0158 N   0  0  0  0  0  0  0  0  0  0  0  0
    4.8808    3.4770    1.2287 C   0  0  0  0  0  0  0  0  0  0  0  0
    4.6402    4.9730    1.1844 C   0  0  0  0  0  0  0  0  0  0  0  0
    3.5433    5.5316    1.8602 C   0  0  0  0  0  0  0  0  0  0  0  0
    3.3276    6.9121    1.8636 C   0  0  0  0  0  0  0  0  0  0  0  0
    4.2041    7.7604    1.1801 C   0  0  0  0  0  0  0  0  0  0  0  0
    5.2957    7.2155    0.4976 C   0  0  0  0  0  0  0  0  0  0  0  0
    5.5124    5.8346    0.5011 C   0  0  0  0  0  0  0  0  0  0  0  0
    4.0007   -0.2518    1.0070 C   0  0  0  0  0  0  0  0  0  0  0  0
    2.8395   -0.8320    0.7153 N   0  0  0  0  0  0  0  0  0  0  0  0
    1.0966   -0.1856   -2.0231 H   0  0  0  0  0  0  0  0  0  0  0  0
    0.3925   -0.5398   -0.4132 H   0  0  0  0  0  0  0  0  0  0  0  0
    1.2680   -1.8178   -1.3033 H   0  0  0  0  0  0  0  0  0  0  0  0
    3.2409    1.0824   -1.8935 H   0  0  0  0  0  0  0  0  0  0  0  0
    6.2532    1.2725    0.8708 H   0  0  0  0  0  0  0  0  0  0  0  0
    6.0159    1.4386   -2.1633 H   0  0  0  0  0  0  0  0  0  0  0  0
    6.7042    0.0722   -1.2700 H   0  0  0  0  0  0  0  0  0  0  0  0
    7.6964    2.8128   -0.9276 H   0  0  0  0  0  0  0  0  0  0  0  0
    8.4140    1.7308   -1.9329 H   0  0  0  0  0  0  0  0  0  0  0  0
    4.8175    3.2130   -0.7893 H   0  0  0  0  0  0  0  0  0  0  0  0
    5.6066    3.2496    2.0328 H   0  0  0  0  0  0  0  0  0  0  0  0
    3.9371    2.9737    1.5272 H   0  0  0  0  0  0  0  0  0  0  0  0
    2.8489    4.8724    2.3899 H   0  0  0  0  0  0  0  0  0  0  0  0
    2.4676    7.3267    2.3963 H   0  0  0  0  0  0  0  0  0  0  0  0
    4.0350    8.8402    1.1772 H   0  0  0  0  0  0  0  0  0  0  0  0
    5.9860    7.8706   -0.0410 H   0  0  0  0  0  0  0  0  0  0  0  0
    6.3640    5.4085   -0.0330 H   0  0  0  0  0  0  0  0  0  0  0  0
    4.5193   -0.4997    1.9341 H   0  0  0  0  0  0  0  0  0  0  0  0
  1  2  1  0
  1 18  1  0
  1 19  1  0
  1 20  1  0
  2  3  1  0
  2 17  1  0
  3  4  2  0
  3 21  1  0
  4  5  1  0
  4 16  1  0
  5  6  1  0
  5  8  1  0
  5 22  1  1
  6  7  1  0
  6 23  1  0
  6 24  1  0
  7 25  1  0
  7 26  1  0
  8  9  1  0
  8 27  1  0
  9 10  1  0
  9 28  1  0
  9 29  1  0
 10 11  2  0
 10 15  1  0
 11 12  1  0
 11 30  1  0
 12 13  2  0
 12 31  1  0
 13 14  1  0
 13 32  1  0
 14 15  2  0
 14 33  1  0
 15 34  1  0
 16 17  2  0
 16 35  1  0
M  END

