
     RDKit          3D

 34 34  0  0  0  0  0  0  0  0999 V2000
    3.4417   -2.5571   -4.1819 C   0  0  0  0  0  0  0  0  0  0  0  0
    3.7120   -1.0749   -4.3425 C   0  0  0  0  0  0  0  0  0  0  0  0
    3.9513   -0.6247   -5.4491 O   0  0  0  0  0  0  0  0  0  0  0  0
    3.6901   -0.1447   -3.1558 C   0  0  0  0  0  0  0  0  0  0  0  0
    3.9588    1.2076   -3.4355 C   0  0  0  0  0  0  0  0  0  0  0  0
    3.9772    2.1920   -2.4541 C   0  0  0  0  0  0  0  0  0  0  0  0
    3.7152    1.7994   -1.1440 C   0  0  0  0  0  0  0  0  0  0  0  0
    3.7235    2.7169   -0.1704 F   0  0  0  0  0  0  0  0  0  0  0  0
    3.4422    0.4790   -0.8016 C   0  0  0  0  0  0  0  0  0  0  0  0
    3.4270   -0.5053   -1.8051 C   0  0  0  0  0  0  0  0  0  0  0  0
    3.1673   -1.8025   -1.5248 O   0  0  0  0  0  0  0  0  0  0  0  0
    2.8989   -2.2058   -0.1855 C   0  0  0  0  0  0  0  0  0  0  0  0
    2.6490   -3.7057   -0.2048 C   0  0  0  0  0  0  0  0  0  0  0  0
    2.3489   -4.2169    1.2050 C   0  0  0  0  0  0  0  0  0  0  0  0
    2.3392   -3.4357    2.1472 O   0  0  0  0  0  0  0  0  0  0  0  0
    2.0981   -5.5574    1.3612 N   0  0  0  0  0  0  0  0  0  0  0  0
    2.0859   -6.5405    0.2965 C   0  0  0  0  0  0  0  0  0  0  0  0
    1.8051   -6.0686    2.6899 C   0  0  0  0  0  0  0  0  0  0  0  0
    3.5136   -3.0240   -5.1728 H   0  0  0  0  0  0  0  0  0  0  0  0
    2.4447   -2.7292   -3.7496 H   0  0  0  0  0  0  0  0  0  0  0  0
    4.1625   -3.0157   -3.4889 H   0  0  0  0  0  0  0  0  0  0  0  0
    4.1570    1.4571   -4.4794 H   0  0  0  0  0  0  0  0  0  0  0  0
    4.1867    3.2385   -2.6800 H   0  0  0  0  0  0  0  0  0  0  0  0
    3.2467    0.2475    0.2435 H   0  0  0  0  0  0  0  0  0  0  0  0
    2.0191   -1.6739    0.2117 H   0  0  0  0  0  0  0  0  0  0  0  0
    3.7510   -1.9654    0.4708 H   0  0  0  0  0  0  0  0  0  0  0  0
    3.5313   -4.2184   -0.6227 H   0  0  0  0  0  0  0  0  0  0  0  0
    1.8094   -3.9277   -0.8843 H   0  0  0  0  0  0  0  0  0  0  0  0
    2.3312   -6.0936   -0.6725 H   0  0  0  0  0  0  0  0  0  0  0  0
    1.0917   -7.0161    0.2102 H   0  0  0  0  0  0  0  0  0  0  0  0
    2.8200   -7.3422    0.4959 H   0  0  0  0  0  0  0  0  0  0  0  0
    1.8414   -5.2369    3.4023 H   0  0  0  0  0  0  0  0  0  0  0  0
    2.5432   -6.8353    2.9848 H   0  0  0  0  0  0  0  0  0  0  0  0
    0.8022   -6.5306    2.7185 H   0  0  0  0  0  0  0  0  0  0  0  0
  1  2  1  0
  1 19  1  0
  1 20  1  0
  1 21  1  0
  2  3  2  0
  2  4  1  0
  4  5  2  0
  4 10  1  0
  5  6  1  0
  5 22  1  0
  6  7  2  0
  6 23  1  0
  7  8  1  0
  7  9  1  0
  9 10  2  0
  9 24  1  0
 10 11  1  0
 11 12  1  0
 12 13  1  0
 12 25  1  0
 12 26  1  0
 13 14  1  0
 13 27  1  0
 13 28  1  0
 14 15  2  0
 14 16  1  0
 16 17  1  0
 16 18  1  0
 17 29  1  0
 17 30  1  0
 17 31  1  0
 18 32  1  0
 18 33  1  0
 18 34  1  0
M  END

