
     RDKit          3D

 36 36  0  0  0  0  0  0  0  0999 V2000
    0.4009   -2.4359   -1.3724 C   0  0  0  0  0  0  0  0  0  0  0  0
    1.7289   -2.7647   -0.6941 C   0  0  0  0  0  0  0  0  0  0  0  0
    2.6209   -1.5344   -0.5697 C   0  0  0  0  0  0  0  0  0  0  0  0
    2.1630   -0.4139   -0.7112 O   0  0  0  0  0  0  0  0  0  0  0  0
    3.9968   -1.6897   -0.3595 N   0  0  0  0  0  0  0  0  0  0  0  0
    4.8189   -0.4692   -0.4689 C   0  0  0  0  0  0  0  0  0  0  0  0
    4.8319    0.3486    0.8253 C   0  0  0  0  0  0  0  0  0  0  0  0
    5.3232   -0.4498    1.9479 N   0  0  0  0  0  0  0  0  0  0  0  0
    4.6413   -2.9002   -0.0334 C   0  0  0  0  0  0  0  0  0  0  0  0
    5.8552   -3.0903   -0.5520 N   0  0  0  0  0  0  0  0  0  0  0  0
    6.4900   -4.2122   -0.2164 C   0  0  0  0  0  0  0  0  0  0  0  0
    7.7146   -4.4430   -0.6998 O   0  0  0  0  0  0  0  0  0  0  0  0
    8.3135   -3.4578   -1.5355 C   0  0  0  0  0  0  0  0  0  0  0  0
    5.9218   -5.1813    0.6180 C   0  0  0  0  0  0  0  0  0  0  0  0
    4.6408   -4.8801    1.0876 C   0  0  0  0  0  0  0  0  0  0  0  0
    4.0471   -5.7673    1.8947 O   0  0  0  0  0  0  0  0  0  0  0  0
    2.7495   -5.4763    2.3987 C   0  0  0  0  0  0  0  0  0  0  0  0
    4.0064   -3.7454    0.7819 N   0  0  0  0  0  0  0  0  0  0  0  0
   -0.2406   -3.3301   -1.4113 H   0  0  0  0  0  0  0  0  0  0  0  0
    0.5523   -2.0766   -2.4019 H   0  0  0  0  0  0  0  0  0  0  0  0
   -0.1330   -1.6439   -0.8286 H   0  0  0  0  0  0  0  0  0  0  0  0
    2.2654   -3.5636   -1.2300 H   0  0  0  0  0  0  0  0  0  0  0  0
    1.5644   -3.1620    0.3190 H   0  0  0  0  0  0  0  0  0  0  0  0
    4.4134    0.1417   -1.2864 H   0  0  0  0  0  0  0  0  0  0  0  0
    5.8348   -0.7915   -0.7216 H   0  0  0  0  0  0  0  0  0  0  0  0
    3.8257    0.7852    0.9783 H   0  0  0  0  0  0  0  0  0  0  0  0
    5.5248    1.1934    0.6686 H   0  0  0  0  0  0  0  0  0  0  0  0
    4.6008   -1.1048    2.2506 H   0  0  0  0  0  0  0  0  0  0  0  0
    5.5087    0.1484    2.7525 H   0  0  0  0  0  0  0  0  0  0  0  0
    9.2939   -3.8629   -1.8175 H   0  0  0  0  0  0  0  0  0  0  0  0
    8.4399   -2.5048   -0.9991 H   0  0  0  0  0  0  0  0  0  0  0  0
    7.7066   -3.2738   -2.4350 H   0  0  0  0  0  0  0  0  0  0  0  0
    6.4419   -6.0982    0.8878 H   0  0  0  0  0  0  0  0  0  0  0  0
    2.4896   -6.3156    3.0566 H   0  0  0  0  0  0  0  0  0  0  0  0
    2.0118   -5.3995    1.5848 H   0  0  0  0  0  0  0  0  0  0  0  0
    2.7413   -4.5343    2.9681 H   0  0  0  0  0  0  0  0  0  0  0  0
  1  2  1  0
  1 19  1  0
  1 20  1  0
  1 21  1  0
  2  3  1  0
  2 22  1  0
  2 23  1  0
  3  4  2  0
  3  5  1  0
  5  6  1  0
  5  9  1  0
  6  7  1  0
  6 24  1  0
  6 25  1  0
  7  8  1  0
  7 26  1  0
  7 27  1  0
  8 28  1  0
  8 29  1  0
  9 10  2  0
  9 18  1  0
 10 11  1  0
 11 12  1  0
 11 14  2  0
 12 13  1  0
 13 30  1  0
 13 31  1  0
 13 32  1  0
 14 15  1  0
 14 33  1  0
 15 16  1  0
 15 18  2  0
 16 17  1  0
 17 34  1  0
 17 35  1  0
 17 36  1  0
M  END

