
     RDKit          3D

 40 42  0  0  0  0  0  0  0  0999 V2000
    0.9779   -0.6448    0.0587 S   0  0  0  0  0  0  0  0  0  0  0  0
    2.7780   -0.1520    0.0336 C   0  0  1  0  0  0  0  0  0  0  0  0
    3.2571   -0.0102   -1.4166 C   0  0  0  0  0  0  0  0  0  0  0  0
    3.7968    1.1789   -1.9245 C   0  0  0  0  0  0  0  0  0  0  0  0
    4.2203    1.2501   -3.2590 C   0  0  0  0  0  0  0  0  0  0  0  0
    4.1066    0.1526   -4.1043 C   0  0  0  0  0  0  0  0  0  0  0  0
    3.5646   -1.0530   -3.6145 C   0  0  0  0  0  0  0  0  0  0  0  0
    3.4741   -2.4016   -4.7731 S   0  0  0  0  0  0  0  0  0  0  0  0
    2.4595   -3.6813   -3.9474 C   0  0  1  0  0  0  0  0  0  0  0  0
    0.9560   -3.3933   -3.8176 C   0  0  0  0  0  0  0  0  0  0  0  0
    0.3639   -4.7839   -3.5264 C   0  0  0  0  0  0  0  0  0  0  0  0
    1.2585   -5.7869   -4.3095 C   0  0  0  0  0  0  0  0  0  0  0  0
    2.4988   -4.9806   -4.7770 C   0  0  0  0  0  0  0  0  0  0  0  0
    3.1547   -1.1189   -2.2788 C   0  0  0  0  0  0  0  0  0  0  0  0
    3.0471    1.0782    0.9308 C   0  0  0  0  0  0  0  0  0  0  0  0
    4.5255    0.9579    1.3735 C   0  0  0  0  0  0  0  0  0  0  0  0
    4.8966   -0.5385    1.1691 C   0  0  0  0  0  0  0  0  0  0  0  0
    3.5777   -1.2404    0.7975 C   0  0  0  0  0  0  0  0  0  0  0  0
    0.5282    0.3768   -0.7067 H   0  0  0  0  0  0  0  0  0  0  0  0
    3.8935    2.0632   -1.2949 H   0  0  0  0  0  0  0  0  0  0  0  0
    4.6387    2.1845   -3.6425 H   0  0  0  0  0  0  0  0  0  0  0  0
    4.4259    0.2228   -5.1473 H   0  0  0  0  0  0  0  0  0  0  0  0
    2.8942   -3.8761   -2.9527 H   0  0  0  0  0  0  0  0  0  0  0  0
    0.5884   -3.0031   -4.7818 H   0  0  0  0  0  0  0  0  0  0  0  0
    0.7161   -2.6484   -3.0446 H   0  0  0  0  0  0  0  0  0  0  0  0
   -0.6986   -4.8518   -3.8062 H   0  0  0  0  0  0  0  0  0  0  0  0
    0.4183   -4.9909   -2.4450 H   0  0  0  0  0  0  0  0  0  0  0  0
    0.7275   -6.2184   -5.1719 H   0  0  0  0  0  0  0  0  0  0  0  0
    1.5519   -6.6338   -3.6700 H   0  0  0  0  0  0  0  0  0  0  0  0
    2.4083   -4.7258   -5.8464 H   0  0  0  0  0  0  0  0  0  0  0  0
    3.4470   -5.5249   -4.6554 H   0  0  0  0  0  0  0  0  0  0  0  0
    2.7135   -2.0346   -1.8880 H   0  0  0  0  0  0  0  0  0  0  0  0
    2.3844    0.9935    1.8042 H   0  0  0  0  0  0  0  0  0  0  0  0
    2.8007    2.0336    0.4451 H   0  0  0  0  0  0  0  0  0  0  0  0
    4.6440    1.2733    2.4216 H   0  0  0  0  0  0  0  0  0  0  0  0
    5.1831    1.6063    0.7749 H   0  0  0  0  0  0  0  0  0  0  0  0
    5.3611   -0.9882    2.0599 H   0  0  0  0  0  0  0  0  0  0  0  0
    5.6194   -0.6433    0.3451 H   0  0  0  0  0  0  0  0  0  0  0  0
    3.0173   -1.5118    1.7084 H   0  0  0  0  0  0  0  0  0  0  0  0
    3.7231   -2.1602    0.2134 H   0  0  0  0  0  0  0  0  0  0  0  0
  2  1  1  6
  1 19  1  0
  2  3  1  0
  2 15  1  0
  2 18  1  0
  3  4  2  0
  3 14  1  0
  4  5  1  0
  4 20  1  0
  5  6  2  0
  5 21  1  0
  6  7  1  0
  6 22  1  0
  7  8  1  0
  7 14  2  0
  8  9  1  0
  9 10  1  0
  9 13  1  0
  9 23  1  1
 10 11  1  0
 10 24  1  0
 10 25  1  0
 11 12  1  0
 11 26  1  0
 11 27  1  0
 12 13  1  0
 12 28  1  0
 12 29  1  0
 13 30  1  0
 13 31  1  0
 14 32  1  0
 15 16  1  0
 15 33  1  0
 15 34  1  0
 16 17  1  0
 16 35  1  0
 16 36  1  0
 17 18  1  0
 17 37  1  0
 17 38  1  0
 18 39  1  0
 18 40  1  0
M  END

