
     RDKit          3D

 47 48  0  0  0  0  0  0  0  0999 V2000
    0.9076    0.3597    0.1597 C   0  0  0  0  0  0  0  0  0  0  0  0
    2.4256    0.2595   -0.0535 C   0  0  1  0  0  0  0  0  0  0  0  0
    2.8924   -1.1973   -0.2658 C   0  0  0  0  0  0  0  0  0  0  0  0
    2.5524   -1.7332   -1.6602 C   0  0  0  0  0  0  0  0  0  0  0  0
    3.0425   -0.8306   -2.7005 N   0  0  0  0  0  0  0  0  0  0  0  0
    3.8336   -1.3291   -3.7086 C   0  0  0  0  0  0  0  0  0  0  0  0
    4.1640   -2.5075   -3.7482 O   0  0  0  0  0  0  0  0  0  0  0  0
    4.2962   -0.3594   -4.7932 C   0  0  0  0  0  0  0  0  0  0  0  0
    5.1875   -1.0434   -5.8196 C   0  0  0  0  0  0  0  0  0  0  0  0
    5.5667   -0.0725   -6.7702 O   0  0  0  0  0  0  0  0  0  0  0  0
    6.4780   -0.5107   -7.7725 C   0  0  1  0  0  0  0  0  0  0  0  0
    5.7750   -1.3173   -8.8792 C   0  0  0  0  0  0  0  0  0  0  0  0
    4.8249   -0.4344   -9.6920 C   0  0  0  0  0  0  0  0  0  0  0  0
    5.5556    0.7045  -10.2378 N   0  0  0  0  0  0  0  0  0  0  0  0
    6.1323    1.5519   -9.1987 C   0  0  0  0  0  0  0  0  0  0  0  0
    7.1309    0.7409   -8.3687 C   0  0  0  0  0  0  0  0  0  0  0  0
    2.5581    0.5394   -2.5839 C   0  0  0  0  0  0  0  0  0  0  0  0
    2.9200    1.1613   -1.2177 C   0  0  2  0  0  0  0  0  0  0  0  0
    4.4196    1.4730   -1.1255 C   0  0  0  0  0  0  0  0  0  0  0  0
    0.5929   -0.2461    1.0248 H   0  0  0  0  0  0  0  0  0  0  0  0
    0.3309    0.0077   -0.7106 H   0  0  0  0  0  0  0  0  0  0  0  0
    0.6039    1.4011    0.3542 H   0  0  0  0  0  0  0  0  0  0  0  0
    2.9019    0.6304    0.8714 H   0  0  0  0  0  0  0  0  0  0  0  0
    2.4395   -1.8529    0.4971 H   0  0  0  0  0  0  0  0  0  0  0  0
    3.9838   -1.2621   -0.1234 H   0  0  0  0  0  0  0  0  0  0  0  0
    1.4574   -1.8514   -1.7731 H   0  0  0  0  0  0  0  0  0  0  0  0
    3.0087   -2.7147   -1.8360 H   0  0  0  0  0  0  0  0  0  0  0  0
    4.8458    0.4881   -4.3509 H   0  0  0  0  0  0  0  0  0  0  0  0
    3.4256    0.0800   -5.3095 H   0  0  0  0  0  0  0  0  0  0  0  0
    4.6444   -1.8890   -6.2796 H   0  0  0  0  0  0  0  0  0  0  0  0
    6.0764   -1.4780   -5.3226 H   0  0  0  0  0  0  0  0  0  0  0  0
    7.2560   -1.1414   -7.2968 H   0  0  0  0  0  0  0  0  0  0  0  0
    5.2290   -2.1713   -8.4467 H   0  0  0  0  0  0  0  0  0  0  0  0
    6.5464   -1.7319   -9.5500 H   0  0  0  0  0  0  0  0  0  0  0  0
    3.9787   -0.1286   -9.0362 H   0  0  0  0  0  0  0  0  0  0  0  0
    4.3952   -1.0148  -10.5251 H   0  0  0  0  0  0  0  0  0  0  0  0
    4.9538    1.2522  -10.8493 H   0  0  0  0  0  0  0  0  0  0  0  0
    5.3661    1.9755   -8.5122 H   0  0  0  0  0  0  0  0  0  0  0  0
    6.6471    2.4014   -9.6770 H   0  0  0  0  0  0  0  0  0  0  0  0
    7.5431    1.3558   -7.5528 H   0  0  0  0  0  0  0  0  0  0  0  0
    7.9658    0.4269   -9.0167 H   0  0  0  0  0  0  0  0  0  0  0  0
    1.4588    0.5439   -2.7138 H   0  0  0  0  0  0  0  0  0  0  0  0
    2.9703    1.1556   -3.3912 H   0  0  0  0  0  0  0  0  0  0  0  0
    2.3748    2.1203   -1.1545 H   0  0  0  0  0  0  0  0  0  0  0  0
    5.0358    0.5682   -1.2444 H   0  0  0  0  0  0  0  0  0  0  0  0
    4.6713    1.9226   -0.1517 H   0  0  0  0  0  0  0  0  0  0  0  0
    4.7245    2.1856   -1.9094 H   0  0  0  0  0  0  0  0  0  0  0  0
  1  2  1  0
  1 20  1  0
  1 21  1  0
  1 22  1  0
  2  3  1  0
  2 18  1  0
  2 23  1  1
  3  4  1  0
  3 24  1  0
  3 25  1  0
  4  5  1  0
  4 26  1  0
  4 27  1  0
  5  6  1  0
  5 17  1  0
  6  7  2  0
  6  8  1  0
  8  9  1  0
  8 28  1  0
  8 29  1  0
  9 10  1  0
  9 30  1  0
  9 31  1  0
 10 11  1  0
 11 12  1  0
 11 16  1  0
 11 32  1  1
 12 13  1  0
 12 33  1  0
 12 34  1  0
 13 14  1  0
 13 35  1  0
 13 36  1  0
 14 15  1  0
 14 37  1  0
 15 16  1  0
 15 38  1  0
 15 39  1  0
 16 40  1  0
 16 41  1  0
 17 18  1  0
 17 42  1  0
 17 43  1  0
 18 19  1  0
 18 44  1  1
 19 45  1  0
 19 46  1  0
 19 47  1  0
M  END

