
     RDKit          3D

 45 47  0  0  0  0  0  0  0  0999 V2000
    1.7601   -0.0807   -1.8465 N   0  0  0  0  0  0  0  0  0  0  0  0
    2.4257    0.0473   -0.5537 C   0  0  2  0  0  0  0  0  0  0  0  0
    1.6418    0.3207    0.1693 H   0  0  0  0  0  0  0  0  0  0  0  0
    3.5731    1.1025   -0.5114 C   0  0  0  0  0  0  0  0  0  0  0  0
    4.6949    0.4479    0.1409 N   0  0  0  0  0  0  0  0  0  0  0  0
    5.9763    1.1002   -0.0263 C   0  0  0  0  0  0  0  0  0  0  0  0
    7.0512    0.5862    0.9146 C   0  0  0  0  0  0  0  0  0  0  0  0
    8.3643    0.3858    0.4671 C   0  0  0  0  0  0  0  0  0  0  0  0
    9.3650   -0.0408    1.3467 C   0  0  0  0  0  0  0  0  0  0  0  0
    9.0619   -0.2802    2.6893 C   0  0  0  0  0  0  0  0  0  0  0  0
    7.7523   -0.0903    3.1450 C   0  0  0  0  0  0  0  0  0  0  0  0
    6.7568    0.3401    2.2653 C   0  0  0  0  0  0  0  0  0  0  0  0
    4.6176   -0.9545   -0.2406 C   0  0  0  0  0  0  0  0  0  0  0  0
    3.1254   -1.2720   -0.0660 C   0  0  2  0  0  0  0  0  0  0  0  0
    2.9589   -1.3185    1.0215 H   0  0  0  0  0  0  0  0  0  0  0  0
    2.6307   -2.5833   -0.7075 C   0  0  1  0  0  0  0  0  0  0  0  0
    3.5044   -3.8047   -0.3389 C   0  0  0  0  0  0  0  0  0  0  0  0
    3.3350   -4.2511    1.1209 C   0  0  0  0  0  0  0  0  0  0  0  0
    1.8633   -4.5349    1.4517 C   0  0  0  0  0  0  0  0  0  0  0  0
    0.9643   -3.3415    1.0997 C   0  0  0  0  0  0  0  0  0  0  0  0
    1.1578   -2.8950   -0.3570 C   0  0  0  0  0  0  0  0  0  0  0  0
    2.4417   -0.1998   -2.5975 H   0  0  0  0  0  0  0  0  0  0  0  0
    1.2455    0.7726   -2.0644 H   0  0  0  0  0  0  0  0  0  0  0  0
    3.2968    2.0328    0.0152 H   0  0  0  0  0  0  0  0  0  0  0  0
    3.8152    1.3862   -1.5636 H   0  0  0  0  0  0  0  0  0  0  0  0
    5.8255    2.1783    0.1678 H   0  0  0  0  0  0  0  0  0  0  0  0
    6.3453    1.0299   -1.0770 H   0  0  0  0  0  0  0  0  0  0  0  0
    8.6070    0.5638   -0.5850 H   0  0  0  0  0  0  0  0  0  0  0  0
   10.3834   -0.1924    0.9787 H   0  0  0  0  0  0  0  0  0  0  0  0
    9.8409   -0.6176    3.3779 H   0  0  0  0  0  0  0  0  0  0  0  0
    7.5061   -0.2789    4.1936 H   0  0  0  0  0  0  0  0  0  0  0  0
    5.7304    0.4815    2.6125 H   0  0  0  0  0  0  0  0  0  0  0  0
    5.2749   -1.5672    0.3938 H   0  0  0  0  0  0  0  0  0  0  0  0
    4.9357   -1.1184   -1.3005 H   0  0  0  0  0  0  0  0  0  0  0  0
    2.6863   -2.4541   -1.8010 H   0  0  0  0  0  0  0  0  0  0  0  0
    4.5667   -3.6114   -0.5610 H   0  0  0  0  0  0  0  0  0  0  0  0
    3.2083   -4.6426   -0.9965 H   0  0  0  0  0  0  0  0  0  0  0  0
    3.7208   -3.4702    1.8013 H   0  0  0  0  0  0  0  0  0  0  0  0
    3.9483   -5.1483    1.3119 H   0  0  0  0  0  0  0  0  0  0  0  0
    1.7521   -4.8027    2.5164 H   0  0  0  0  0  0  0  0  0  0  0  0
    1.5306   -5.4178    0.8741 H   0  0  0  0  0  0  0  0  0  0  0  0
    1.1859   -2.5039    1.7859 H   0  0  0  0  0  0  0  0  0  0  0  0
   -0.0946   -3.5990    1.2732 H   0  0  0  0  0  0  0  0  0  0  0  0
    0.5292   -2.0246   -0.5959 H   0  0  0  0  0  0  0  0  0  0  0  0
    0.8151   -3.7102   -1.0206 H   0  0  0  0  0  0  0  0  0  0  0  0
  1  2  1  0
  1 22  1  0
  1 23  1  0
  2  3  1  1
  2  4  1  0
  2 14  1  0
  4  5  1  0
  4 24  1  0
  4 25  1  0
  5  6  1  0
  5 13  1  0
  6  7  1  0
  6 26  1  0
  6 27  1  0
  7  8  2  0
  7 12  1  0
  8  9  1  0
  8 28  1  0
  9 10  2  0
  9 29  1  0
 10 11  1  0
 10 30  1  0
 11 12  2  0
 11 31  1  0
 12 32  1  0
 13 14  1  0
 13 33  1  0
 13 34  1  0
 14 15  1  1
 14 16  1  0
 16 17  1  0
 16 21  1  0
 16 35  1  6
 17 18  1  0
 17 36  1  0
 17 37  1  0
 18 19  1  0
 18 38  1  0
 18 39  1  0
 19 20  1  0
 19 40  1  0
 19 41  1  0
 20 21  1  0
 20 42  1  0
 20 43  1  0
 21 44  1  0
 21 45  1  0
M  END

