
     RDKit          3D

 41 42  0  0  0  0  0  0  0  0999 V2000
    1.5133    0.8104   -0.2381 C   0  0  0  0  0  0  0  0  0  0  0  0
    1.8923   -0.5040    0.2443 N   0  0  0  0  0  0  0  0  0  0  0  0
    3.2524   -0.9329   -0.0771 C   0  0  1  0  0  0  0  0  0  0  0  0
    4.2969   -0.1769    0.7669 C   0  0  0  0  0  0  0  0  0  0  0  0
    4.2049   -0.5346    2.2505 C   0  0  0  0  0  0  0  0  0  0  0  0
    4.2944   -1.9795    2.4340 N   0  0  0  0  0  0  0  0  0  0  0  0
    4.7810   -2.4749    3.6224 C   0  0  0  0  0  0  0  0  0  0  0  0
    4.5768   -3.7290    4.0267 N   0  0  0  0  0  0  0  0  0  0  0  0
    5.2935   -3.7686    5.1816 N   0  0  0  0  0  0  0  0  0  0  0  0
    5.3056   -4.5895    5.7766 H   0  0  0  0  0  0  0  0  0  0  0  0
    5.8610   -2.5721    5.4388 C   0  0  0  0  0  0  0  0  0  0  0  0
    6.6684   -2.2952    6.6681 C   0  0  0  0  0  0  0  0  0  0  0  0
    5.8304   -1.9704    7.9219 C   0  0  0  0  0  0  0  0  0  0  0  0
    4.7580   -3.0031    8.2519 C   0  0  0  0  0  0  0  0  0  0  0  0
    5.3160   -4.3041    8.2176 O   0  0  0  0  0  0  0  0  0  0  0  0
    4.4541   -5.3031    8.7036 C   0  0  0  0  0  0  0  0  0  0  0  0
    5.5564   -1.7251    4.4684 N   0  0  0  0  0  0  0  0  0  0  0  0
    3.3349   -2.7795    1.6865 C   0  0  0  0  0  0  0  0  0  0  0  0
    3.4015   -2.4385    0.1951 C   0  0  0  0  0  0  0  0  0  0  0  0
    0.4398    0.9765   -0.0564 H   0  0  0  0  0  0  0  0  0  0  0  0
    1.7049    0.9719   -1.3238 H   0  0  0  0  0  0  0  0  0  0  0  0
    2.0541    1.6017    0.3060 H   0  0  0  0  0  0  0  0  0  0  0  0
    1.2322   -1.1971   -0.1038 H   0  0  0  0  0  0  0  0  0  0  0  0
    3.4833   -0.7489   -1.1523 H   0  0  0  0  0  0  0  0  0  0  0  0
    4.1836    0.9124    0.6441 H   0  0  0  0  0  0  0  0  0  0  0  0
    5.3006   -0.4356    0.3896 H   0  0  0  0  0  0  0  0  0  0  0  0
    3.2499   -0.1489    2.6617 H   0  0  0  0  0  0  0  0  0  0  0  0
    5.0213   -0.0696    2.8173 H   0  0  0  0  0  0  0  0  0  0  0  0
    7.3367   -1.4504    6.4487 H   0  0  0  0  0  0  0  0  0  0  0  0
    7.2989   -3.1712    6.8853 H   0  0  0  0  0  0  0  0  0  0  0  0
    5.3312   -0.9950    7.7973 H   0  0  0  0  0  0  0  0  0  0  0  0
    6.5187   -1.8737    8.7782 H   0  0  0  0  0  0  0  0  0  0  0  0
    3.9158   -2.9367    7.5330 H   0  0  0  0  0  0  0  0  0  0  0  0
    4.3384   -2.7938    9.2567 H   0  0  0  0  0  0  0  0  0  0  0  0
    4.9808   -6.2664    8.6355 H   0  0  0  0  0  0  0  0  0  0  0  0
    3.5172   -5.3680    8.1141 H   0  0  0  0  0  0  0  0  0  0  0  0
    4.1780   -5.1265    9.7621 H   0  0  0  0  0  0  0  0  0  0  0  0
    2.3059   -2.6130    2.0661 H   0  0  0  0  0  0  0  0  0  0  0  0
    3.5700   -3.8396    1.8502 H   0  0  0  0  0  0  0  0  0  0  0  0
    2.6201   -3.0010   -0.3469 H   0  0  0  0  0  0  0  0  0  0  0  0
    4.3718   -2.7722   -0.2082 H   0  0  0  0  0  0  0  0  0  0  0  0
  1  2  1  0
  1 20  1  0
  1 21  1  0
  1 22  1  0
  2  3  1  0
  2 23  1  0
  3  4  1  0
  3 19  1  0
  3 24  1  6
  4  5  1  0
  4 25  1  0
  4 26  1  0
  5  6  1  0
  5 27  1  0
  5 28  1  0
  6  7  1  0
  6 18  1  0
  7  8  2  0
  7 17  1  0
  8  9  1  0
  9 10  1  0
  9 11  1  0
 11 12  1  0
 11 17  2  0
 12 13  1  0
 12 29  1  0
 12 30  1  0
 13 14  1  0
 13 31  1  0
 13 32  1  0
 14 15  1  0
 14 33  1  0
 14 34  1  0
 15 16  1  0
 16 35  1  0
 16 36  1  0
 16 37  1  0
 18 19  1  0
 18 38  1  0
 18 39  1  0
 19 40  1  0
 19 41  1  0
M  END

