
     RDKit          3D

 43 44  0  0  0  0  0  0  0  0999 V2000
    1.0347    0.1149   -0.5829 N   0  0  0  0  0  0  0  0  0  0  0  0
    2.3795    0.0973   -0.4067 C   0  0  0  0  0  0  0  0  0  0  0  0
    3.0039    1.2557   -0.4672 N   0  0  0  0  0  0  0  0  0  0  0  0
    4.3481    1.3582   -0.2981 C   0  0  0  0  0  0  0  0  0  0  0  0
    4.9934    2.3913   -0.3421 O   0  0  0  0  0  0  0  0  0  0  0  0
    5.0596    0.1309   -0.0376 N   0  0  0  0  0  0  0  0  0  0  0  0
    6.5088    0.2587    0.1583 C   0  0  1  0  0  0  0  0  0  0  0  0
    6.8976    0.8334   -0.6994 H   0  0  0  0  0  0  0  0  0  0  0  0
    6.9376    0.9261    1.4675 C   0  0  0  0  0  0  0  0  0  0  0  0
    8.3794    0.4279    1.5971 C   0  0  2  0  0  0  0  0  0  0  0  0
    8.7016    0.3735    2.6526 H   0  0  0  0  0  0  0  0  0  0  0  0
    9.2872    1.1884    0.8178 O   0  0  0  0  0  0  0  0  0  0  0  0
    8.3159   -0.9793    0.9626 C   0  0  1  0  0  0  0  0  0  0  0  0
    9.1669   -1.0764    0.2663 H   0  0  0  0  0  0  0  0  0  0  0  0
    8.3260   -2.1361    1.9516 C   0  0  0  0  0  0  0  0  0  0  0  0
    7.3197   -2.0278    2.9336 O   0  0  0  0  0  0  0  0  0  0  0  0
    7.0838   -1.0302    0.2158 O   0  0  0  0  0  0  0  0  0  0  0  0
    4.4205   -1.0570    0.0131 C   0  0  0  0  0  0  0  0  0  0  0  0
    3.0612   -1.1645   -0.1673 C   0  0  0  0  0  0  0  0  0  0  0  0
    2.3518   -2.4454   -0.1064 C   0  0  0  0  0  0  0  0  0  0  0  0
    2.8441   -3.6603   -0.4134 C   0  0  0  0  0  0  0  0  0  0  0  0
    2.0542   -4.9337   -0.2370 C   0  0  0  0  0  0  0  0  0  0  0  0
    2.3462   -5.6428    1.0108 N   0  0  0  0  0  0  0  0  0  0  0  0
    1.6768   -5.3487    2.1494 C   0  0  0  0  0  0  0  0  0  0  0  0
    0.7677   -4.5516    2.2554 O   0  0  0  0  0  0  0  0  0  0  0  0
    2.1349   -6.1509    3.3943 C   0  0  1  0  0  0  0  0  0  0  0  0
    3.1968   -6.9454    3.1270 F   0  0  0  0  0  0  0  0  0  0  0  0
    2.4861   -5.3191    4.3743 F   0  0  0  0  0  0  0  0  0  0  0  0
    1.1444   -6.9297    3.8313 F   0  0  0  0  0  0  0  0  0  0  0  0
    0.6088    1.0076   -0.8002 H   0  0  0  0  0  0  0  0  0  0  0  0
    0.4983   -0.7306   -0.7048 H   0  0  0  0  0  0  0  0  0  0  0  0
    6.3274    0.5349    2.2961 H   0  0  0  0  0  0  0  0  0  0  0  0
    6.8429    2.0188    1.4314 H   0  0  0  0  0  0  0  0  0  0  0  0
    9.2823    2.0982    1.1439 H   0  0  0  0  0  0  0  0  0  0  0  0
    8.2515   -3.0866    1.3867 H   0  0  0  0  0  0  0  0  0  0  0  0
    9.2933   -2.1453    2.4793 H   0  0  0  0  0  0  0  0  0  0  0  0
    6.4674   -2.0717    2.4798 H   0  0  0  0  0  0  0  0  0  0  0  0
    5.0513   -1.9233    0.2105 H   0  0  0  0  0  0  0  0  0  0  0  0
    1.3166   -2.4082    0.2565 H   0  0  0  0  0  0  0  0  0  0  0  0
    3.8696   -3.7603   -0.7892 H   0  0  0  0  0  0  0  0  0  0  0  0
    2.2480   -5.6317   -1.0665 H   0  0  0  0  0  0  0  0  0  0  0  0
    0.9781   -4.7088   -0.2274 H   0  0  0  0  0  0  0  0  0  0  0  0
    3.1266   -6.2875    1.0560 H   0  0  0  0  0  0  0  0  0  0  0  0
  1  2  1  0
  1 30  1  0
  1 31  1  0
  2  3  2  0
  2 19  1  0
  3  4  1  0
  4  5  2  0
  4  6  1  0
  6  7  1  0
  6 18  1  0
  7  8  1  6
  7  9  1  0
  7 17  1  0
  9 10  1  0
  9 32  1  0
  9 33  1  0
 10 11  1  1
 10 12  1  0
 10 13  1  0
 12 34  1  0
 13 14  1  6
 13 15  1  0
 13 17  1  0
 15 16  1  0
 15 35  1  0
 15 36  1  0
 16 37  1  0
 18 19  2  0
 18 38  1  0
 19 20  1  0
 20 21  2  0
 20 39  1  0
 21 22  1  0
 21 40  1  0
 22 23  1  0
 22 41  1  0
 22 42  1  0
 23 24  1  0
 23 43  1  0
 24 25  2  0
 24 26  1  0
 26 27  1  6
 26 28  1  0
 26 29  1  0
M  END

