
     RDKit          3D

 33 34  0  0  0  0  0  0  0  0999 V2000
    4.4496    1.8484   -4.9964 C   0  0  0  0  0  0  0  0  0  0  0  0
    4.8951    1.2814   -3.6735 C   0  0  0  0  0  0  0  0  0  0  0  0
    4.9107    2.0952   -2.5293 C   0  0  0  0  0  0  0  0  0  0  0  0
    5.3184    1.6161   -1.2695 C   0  0  0  0  0  0  0  0  0  0  0  0
    5.3404    2.4217   -0.1389 N   0  0  0  0  0  0  0  0  0  0  0  0
    4.6761    3.7026   -0.0269 C   0  0  1  0  0  0  0  0  0  0  0  0
    4.2795    3.9670    1.4342 C   0  0  0  0  0  0  0  0  0  0  0  0
    5.5394    4.8155   -0.5673 C   0  0  0  0  0  0  0  0  0  0  0  0
    6.8708    4.9079   -0.8825 C   0  0  0  0  0  0  0  0  0  0  0  0
    7.0950    6.2514   -1.3139 C   0  0  0  0  0  0  0  0  0  0  0  0
    5.8867    6.8902   -1.2334 C   0  0  0  0  0  0  0  0  0  0  0  0
    5.4815    8.2745   -1.5473 C   0  0  0  0  0  0  0  0  0  0  0  0
    6.2532    9.1079   -1.9436 O   0  0  0  0  0  0  0  0  0  0  0  0
    4.1718    8.5460   -1.3573 O   0  0  0  0  0  0  0  0  0  0  0  0
    4.9320    6.0147   -0.7778 O   0  0  0  0  0  0  0  0  0  0  0  0
    5.7305    0.2709   -1.1728 C   0  0  0  0  0  0  0  0  0  0  0  0
    5.7255   -0.5513   -2.2944 C   0  0  0  0  0  0  0  0  0  0  0  0
    5.3100   -0.0535   -3.5326 C   0  0  0  0  0  0  0  0  0  0  0  0
    5.3227   -1.2352   -5.0397 Br  0  0  0  0  0  0  0  0  0  0  0  0
    4.1693    2.9070   -4.9002 H   0  0  0  0  0  0  0  0  0  0  0  0
    3.5846    1.2943   -5.3958 H   0  0  0  0  0  0  0  0  0  0  0  0
    5.2473    1.7680   -5.7525 H   0  0  0  0  0  0  0  0  0  0  0  0
    4.6107    3.1378   -2.6433 H   0  0  0  0  0  0  0  0  0  0  0  0
    5.5269    1.9457    0.7343 H   0  0  0  0  0  0  0  0  0  0  0  0
    3.7441    3.6937   -0.6268 H   0  0  0  0  0  0  0  0  0  0  0  0
    5.1695    3.9553    2.0841 H   0  0  0  0  0  0  0  0  0  0  0  0
    3.5692    3.2017    1.7840 H   0  0  0  0  0  0  0  0  0  0  0  0
    3.8032    4.9526    1.5322 H   0  0  0  0  0  0  0  0  0  0  0  0
    7.5926    4.0979   -0.8199 H   0  0  0  0  0  0  0  0  0  0  0  0
    8.0242    6.7058   -1.6491 H   0  0  0  0  0  0  0  0  0  0  0  0
    3.7136    7.7513   -1.0418 H   0  0  0  0  0  0  0  0  0  0  0  0
    6.0540   -0.1321   -0.2088 H   0  0  0  0  0  0  0  0  0  0  0  0
    6.0436   -1.5918   -2.2078 H   0  0  0  0  0  0  0  0  0  0  0  0
  1  2  1  0
  1 20  1  0
  1 21  1  0
  1 22  1  0
  2  3  2  0
  2 18  1  0
  3  4  1  0
  3 23  1  0
  4  5  1  0
  4 16  2  0
  5  6  1  0
  5 24  1  0
  6  7  1  0
  6  8  1  0
  6 25  1  6
  7 26  1  0
  7 27  1  0
  7 28  1  0
  8  9  2  0
  8 15  1  0
  9 10  1  0
  9 29  1  0
 10 11  2  0
 10 30  1  0
 11 12  1  0
 11 15  1  0
 12 13  2  0
 12 14  1  0
 14 31  1  0
 16 17  1  0
 16 32  1  0
 17 18  2  0
 17 33  1  0
 18 19  1  0
M  END

