
     RDKit          3D

 61 67  0  0  0  0  0  0  0  0999 V2000
    0.6268    0.5617    0.3344 C   0  0  0  0  0  0  0  0  0  0  0  0
    0.9150    1.7507    1.1120 N   0  0  0  0  0  0  0  0  0  0  0  0
    0.1302    2.9520    0.9067 C   0  0  0  0  0  0  0  0  0  0  0  0
    1.9281    1.7390    2.0459 C   0  0  0  0  0  0  0  0  0  0  0  0
    2.7086    0.5749    2.2812 C   0  0  0  0  0  0  0  0  0  0  0  0
    3.7268    0.5697    3.2226 C   0  0  0  0  0  0  0  0  0  0  0  0
    4.0443    1.7108    3.9913 C   0  0  0  0  0  0  0  0  0  0  0  0
    5.1257    1.6950    4.9739 C   0  0  0  0  0  0  0  0  0  0  0  0
    6.0793    0.7289    5.1562 C   0  0  0  0  0  0  0  0  0  0  0  0
    7.0292    0.9796    6.1982 C   0  0  0  0  0  0  0  0  0  0  0  0
    8.1226    0.3072    6.6710 C   0  0  0  0  0  0  0  0  0  0  0  0
    8.6012   -1.0094    6.2425 C   0  0  0  0  0  0  0  0  0  0  0  0
    9.9883   -1.3009    6.2007 C   0  0  0  0  0  0  0  0  0  0  0  0
   10.4531   -2.5414    5.7863 C   0  0  0  0  0  0  0  0  0  0  0  0
    9.5501   -3.5515    5.4076 C   0  0  0  0  0  0  0  0  0  0  0  0
   10.0427   -4.8748    4.9702 C   0  0  0  0  0  0  0  0  0  0  0  0
   11.2095   -5.1932    4.8971 O   0  0  0  0  0  0  0  0  0  0  0  0
    8.1728   -3.2836    5.4599 C   0  0  0  0  0  0  0  0  0  0  0  0
    7.7050   -2.0392    5.8709 C   0  0  0  0  0  0  0  0  0  0  0  0
    8.8682    1.1173    7.7536 C   0  0  1  0  0  0  0  0  0  0  0  0
    9.7479    0.5927    8.1431 H   0  0  0  0  0  0  0  0  0  0  0  0
    9.2148    2.4757    7.1499 C   0  0  0  0  0  0  0  0  0  0  0  0
   10.4798    3.0495    7.0570 C   0  0  0  0  0  0  0  0  0  0  0  0
   10.6220    4.3123    6.4614 C   0  0  0  0  0  0  0  0  0  0  0  0
    9.5035    4.9854    5.9676 C   0  0  0  0  0  0  0  0  0  0  0  0
    8.2268    4.4100    6.0642 C   0  0  0  0  0  0  0  0  0  0  0  0
    8.0880    3.1601    6.6589 C   0  0  0  0  0  0  0  0  0  0  0  0
    6.7962    2.3521    6.8738 C   0  0  1  0  0  0  0  0  0  0  0  0
    5.2869    3.0607    6.1076 S   0  0  0  0  0  0  0  0  0  0  0  0
    6.7061    2.0791    8.3820 C   0  0  0  0  0  0  0  0  0  0  0  0
    5.6717    2.4069    9.2528 C   0  0  0  0  0  0  0  0  0  0  0  0
    5.7828    2.0628   10.6091 C   0  0  0  0  0  0  0  0  0  0  0  0
    6.9158    1.3967   11.0793 C   0  0  0  0  0  0  0  0  0  0  0  0
    7.9551    1.0621   10.1979 C   0  0  0  0  0  0  0  0  0  0  0  0
    7.8464    1.4028    8.8523 C   0  0  0  0  0  0  0  0  0  0  0  0
    3.2640    2.8619    3.7587 C   0  0  0  0  0  0  0  0  0  0  0  0
    2.2400    2.8857    2.8203 C   0  0  0  0  0  0  0  0  0  0  0  0
   -0.1993    0.7702   -0.3571 H   0  0  0  0  0  0  0  0  0  0  0  0
    0.3253   -0.2910    0.9705 H   0  0  0  0  0  0  0  0  0  0  0  0
    1.4951    0.2375   -0.2680 H   0  0  0  0  0  0  0  0  0  0  0  0
   -0.6258    2.7660    0.1336 H   0  0  0  0  0  0  0  0  0  0  0  0
    0.7511    3.8034    0.5720 H   0  0  0  0  0  0  0  0  0  0  0  0
   -0.3982    3.2663    1.8256 H   0  0  0  0  0  0  0  0  0  0  0  0
    2.5126   -0.3413    1.7259 H   0  0  0  0  0  0  0  0  0  0  0  0
    4.2843   -0.3569    3.3725 H   0  0  0  0  0  0  0  0  0  0  0  0
    6.1380   -0.1528    4.5197 H   0  0  0  0  0  0  0  0  0  0  0  0
   10.7084   -0.5259    6.4708 H   0  0  0  0  0  0  0  0  0  0  0  0
   11.5229   -2.7584    5.7400 H   0  0  0  0  0  0  0  0  0  0  0  0
    9.2314   -5.6010    4.6961 H   0  0  0  0  0  0  0  0  0  0  0  0
    7.4615   -4.0700    5.1881 H   0  0  0  0  0  0  0  0  0  0  0  0
    6.6307   -1.8659    5.9474 H   0  0  0  0  0  0  0  0  0  0  0  0
   11.3555    2.5205    7.4438 H   0  0  0  0  0  0  0  0  0  0  0  0
   11.6130    4.7667    6.3824 H   0  0  0  0  0  0  0  0  0  0  0  0
    9.6190    5.9665    5.4997 H   0  0  0  0  0  0  0  0  0  0  0  0
    7.3498    4.9293    5.6718 H   0  0  0  0  0  0  0  0  0  0  0  0
    4.7817    2.9181    8.8793 H   0  0  0  0  0  0  0  0  0  0  0  0
    4.9734    2.3172   11.2981 H   0  0  0  0  0  0  0  0  0  0  0  0
    6.9944    1.1308   12.1366 H   0  0  0  0  0  0  0  0  0  0  0  0
    8.8417    0.5367   10.5637 H   0  0  0  0  0  0  0  0  0  0  0  0
    3.4711    3.7762    4.3202 H   0  0  0  0  0  0  0  0  0  0  0  0
    1.6802    3.8104    2.6884 H   0  0  0  0  0  0  0  0  0  0  0  0
  1  2  1  0
  1 38  1  0
  1 39  1  0
  1 40  1  0
  2  3  1  0
  2  4  1  0
  3 41  1  0
  3 42  1  0
  3 43  1  0
  4  5  2  0
  4 37  1  0
  5  6  1  0
  5 44  1  0
  6  7  2  0
  6 45  1  0
  7  8  1  0
  7 36  1  0
  8  9  2  0
  8 29  1  0
  9 10  1  0
  9 46  1  0
 10 11  2  0
 10 28  1  0
 11 12  1  0
 11 20  1  0
 12 13  2  0
 12 19  1  0
 13 14  1  0
 13 47  1  0
 14 15  2  0
 14 48  1  0
 15 16  1  0
 15 18  1  0
 16 17  2  0
 16 49  1  0
 18 19  2  0
 18 50  1  0
 19 51  1  0
 20 21  1  1
 20 22  1  0
 20 35  1  0
 22 23  1  0
 22 27  2  0
 23 24  2  0
 23 52  1  0
 24 25  1  0
 24 53  1  0
 25 26  2  0
 25 54  1  0
 26 27  1  0
 26 55  1  0
 27 28  1  0
 28 29  1  6
 28 30  1  0
 30 31  2  0
 30 35  1  0
 31 32  1  0
 31 56  1  0
 32 33  2  0
 32 57  1  0
 33 34  1  0
 33 58  1  0
 34 35  2  0
 34 59  1  0
 36 37  2  0
 36 60  1  0
 37 61  1  0
M  END

