
     RDKit          3D

 54 57  0  0  0  0  0  0  0  0999 V2000
    3.8835    1.4672    1.3024 C   0  0  0  0  0  0  0  0  0  0  0  0
    3.7529    0.1097    1.6286 O   0  0  0  0  0  0  0  0  0  0  0  0
    2.8122   -0.6229    0.8512 C   0  0  1  0  0  0  0  0  0  0  0  0
    3.3816   -1.0088   -0.5239 C   0  0  0  0  0  0  0  0  0  0  0  0
    4.5409   -1.9989   -0.3876 C   0  0  0  0  0  0  0  0  0  0  0  0
    4.0983   -3.1839    0.3456 N   0  0  0  0  0  0  0  0  0  0  0  0
    4.9191   -4.3383    0.2402 C   0  0  0  0  0  0  0  0  0  0  0  0
    6.3165   -4.2793    0.3567 C   0  0  0  0  0  0  0  0  0  0  0  0
    7.1242   -5.4124    0.2621 C   0  0  0  0  0  0  0  0  0  0  0  0
    6.5319   -6.6686    0.0509 C   0  0  0  0  0  0  0  0  0  0  0  0
    7.2611   -7.8642   -0.0472 N   0  0  0  0  0  0  0  0  0  0  0  0
    8.6141   -8.0556    0.0401 C   0  0  0  0  0  0  0  0  0  0  0  0
    9.4492   -7.1848    0.2282 O   0  0  0  0  0  0  0  0  0  0  0  0
    9.0196   -9.4885   -0.1223 C   0  0  0  0  0  0  0  0  0  0  0  0
    8.1202  -10.4313   -0.3202 N   0  0  0  0  0  0  0  0  0  0  0  0
    8.8144  -11.6106   -0.4270 O   0  0  0  0  0  0  0  0  0  0  0  0
   10.1319  -11.3592   -0.2915 C   0  0  0  0  0  0  0  0  0  0  0  0
   10.3441  -10.0226   -0.0967 C   0  0  0  0  0  0  0  0  0  0  0  0
   11.7088   -9.4269    0.0867 C   0  0  0  0  0  0  0  0  0  0  0  0
   12.7798  -10.4491   -0.3436 C   0  0  0  0  0  0  0  0  0  0  0  0
   12.4906  -11.8679    0.1783 C   0  0  0  0  0  0  0  0  0  0  0  0
   11.1606  -12.4339   -0.3638 C   0  0  0  0  0  0  0  0  0  0  0  0
    5.1356   -6.7454   -0.0839 C   0  0  0  0  0  0  0  0  0  0  0  0
    4.3375   -5.6042   -0.0014 C   0  0  0  0  0  0  0  0  0  0  0  0
    2.8511   -5.7322   -0.2617 C   0  0  1  0  0  0  0  0  0  0  0  0
    2.4661   -5.0266   -1.3370 F   0  0  0  0  0  0  0  0  0  0  0  0
    2.4986   -7.0141   -0.4932 F   0  0  0  0  0  0  0  0  0  0  0  0
    2.0983   -5.3169    0.7779 F   0  0  0  0  0  0  0  0  0  0  0  0
    3.6306   -2.8633    1.7017 C   0  0  0  0  0  0  0  0  0  0  0  0
    2.4577   -1.8843    1.6411 C   0  0  0  0  0  0  0  0  0  0  0  0
    4.5875    1.9156    2.0193 H   0  0  0  0  0  0  0  0  0  0  0  0
    2.9161    2.0047    1.3792 H   0  0  0  0  0  0  0  0  0  0  0  0
    4.2819    1.6335    0.2821 H   0  0  0  0  0  0  0  0  0  0  0  0
    1.9007   -0.0061    0.7128 H   0  0  0  0  0  0  0  0  0  0  0  0
    3.7177   -0.1126   -1.0708 H   0  0  0  0  0  0  0  0  0  0  0  0
    2.5789   -1.4723   -1.1208 H   0  0  0  0  0  0  0  0  0  0  0  0
    5.3887   -1.4860    0.1155 H   0  0  0  0  0  0  0  0  0  0  0  0
    4.8886   -2.3131   -1.3835 H   0  0  0  0  0  0  0  0  0  0  0  0
    6.7902   -3.3121    0.5365 H   0  0  0  0  0  0  0  0  0  0  0  0
    8.2052   -5.3402    0.3593 H   0  0  0  0  0  0  0  0  0  0  0  0
    6.7241   -8.7140   -0.2059 H   0  0  0  0  0  0  0  0  0  0  0  0
   11.8479   -9.1427    1.1451 H   0  0  0  0  0  0  0  0  0  0  0  0
   11.7986   -8.4889   -0.4811 H   0  0  0  0  0  0  0  0  0  0  0  0
   13.7706  -10.1182    0.0056 H   0  0  0  0  0  0  0  0  0  0  0  0
   12.8318  -10.4767   -1.4471 H   0  0  0  0  0  0  0  0  0  0  0  0
   12.4478  -11.8462    1.2816 H   0  0  0  0  0  0  0  0  0  0  0  0
   13.3142  -12.5480   -0.0895 H   0  0  0  0  0  0  0  0  0  0  0  0
   10.8371  -13.3196    0.2073 H   0  0  0  0  0  0  0  0  0  0  0  0
   11.2761  -12.7661   -1.4119 H   0  0  0  0  0  0  0  0  0  0  0  0
    4.6645   -7.7107   -0.2771 H   0  0  0  0  0  0  0  0  0  0  0  0
    4.4502   -2.4220    2.3078 H   0  0  0  0  0  0  0  0  0  0  0  0
    3.3177   -3.7925    2.1957 H   0  0  0  0  0  0  0  0  0  0  0  0
    2.1552   -1.5967    2.6605 H   0  0  0  0  0  0  0  0  0  0  0  0
    1.6023   -2.3818    1.1565 H   0  0  0  0  0  0  0  0  0  0  0  0
  1  2  1  0
  1 31  1  0
  1 32  1  0
  1 33  1  0
  2  3  1  0
  3  4  1  0
  3 30  1  0
  3 34  1  6
  4  5  1  0
  4 35  1  0
  4 36  1  0
  5  6  1  0
  5 37  1  0
  5 38  1  0
  6  7  1  0
  6 29  1  0
  7  8  2  0
  7 24  1  0
  8  9  1  0
  8 39  1  0
  9 10  2  0
  9 40  1  0
 10 11  1  0
 10 23  1  0
 11 12  1  0
 11 41  1  0
 12 13  2  0
 12 14  1  0
 14 15  2  0
 14 18  1  0
 15 16  1  0
 16 17  1  0
 17 18  2  0
 17 22  1  0
 18 19  1  0
 19 20  1  0
 19 42  1  0
 19 43  1  0
 20 21  1  0
 20 44  1  0
 20 45  1  0
 21 22  1  0
 21 46  1  0
 21 47  1  0
 22 48  1  0
 22 49  1  0
 23 24  2  0
 23 50  1  0
 24 25  1  0
 25 26  1  6
 25 27  1  0
 25 28  1  0
 29 30  1  0
 29 51  1  0
 29 52  1  0
 30 53  1  0
 30 54  1  0
M  END

