
     RDKit          3D

 38 40  0  0  0  0  0  0  0  0999 V2000
    1.6910    1.0079   -1.3356 C   0  0  0  0  0  0  0  0  0  0  0  0
    2.3964    0.2732   -0.1885 C   0  0  0  0  0  0  0  0  0  0  0  0
    2.8502   -1.0707   -0.5039 N   0  0  0  0  0  0  0  0  0  0  0  0
    1.9086   -2.1470   -0.2923 C   0  0  0  0  0  0  0  0  0  0  0  0
    2.6324   -3.4944   -0.2903 C   0  0  1  0  0  0  0  0  0  0  0  0
    1.7026   -4.6798    0.0058 C   0  0  0  0  0  0  0  0  0  0  0  0
    0.9548   -5.1427   -1.1458 N   0  0  0  0  0  0  0  0  0  0  0  0
    1.8697   -5.5478   -2.1957 C   0  0  0  0  0  0  0  0  0  0  0  0
    3.0253   -4.5952   -2.5248 C   0  0  0  0  0  0  0  0  0  0  0  0
    3.6227   -4.7241   -3.5796 O   0  0  0  0  0  0  0  0  0  0  0  0
    3.3388   -3.6363   -1.5753 N   0  0  0  0  0  0  0  0  0  0  0  0
    4.2695   -2.5792   -1.8305 C   0  0  0  0  0  0  0  0  0  0  0  0
    5.4432   -2.8100   -2.5656 C   0  0  0  0  0  0  0  0  0  0  0  0
    6.3459   -1.7726   -2.8142 C   0  0  0  0  0  0  0  0  0  0  0  0
    7.4938   -1.9118   -3.5365 O   0  0  0  0  0  0  0  0  0  0  0  0
    7.7889   -3.1645   -4.1072 C   0  0  0  0  0  0  0  0  0  0  0  0
    6.0725   -0.4971   -2.3040 C   0  0  0  0  0  0  0  0  0  0  0  0
    4.9204   -0.2699   -1.5599 C   0  0  0  0  0  0  0  0  0  0  0  0
    3.9876   -1.2956   -1.2911 C   0  0  0  0  0  0  0  0  0  0  0  0
    1.3640    2.0092   -1.0111 H   0  0  0  0  0  0  0  0  0  0  0  0
    0.7998    0.4561   -1.6753 H   0  0  0  0  0  0  0  0  0  0  0  0
    2.3598    1.1320   -2.2012 H   0  0  0  0  0  0  0  0  0  0  0  0
    1.7105    0.1890    0.6711 H   0  0  0  0  0  0  0  0  0  0  0  0
    3.2478    0.8724    0.1741 H   0  0  0  0  0  0  0  0  0  0  0  0
    1.1014   -2.1749   -1.0582 H   0  0  0  0  0  0  0  0  0  0  0  0
    1.4163   -1.9970    0.6850 H   0  0  0  0  0  0  0  0  0  0  0  0
    3.4004   -3.4494    0.5030 H   0  0  0  0  0  0  0  0  0  0  0  0
    2.3066   -5.5257    0.3780 H   0  0  0  0  0  0  0  0  0  0  0  0
    1.0155   -4.4023    0.8217 H   0  0  0  0  0  0  0  0  0  0  0  0
    0.3179   -4.4218   -1.4816 H   0  0  0  0  0  0  0  0  0  0  0  0
    1.3346   -5.7121   -3.1422 H   0  0  0  0  0  0  0  0  0  0  0  0
    2.3262   -6.5210   -1.9328 H   0  0  0  0  0  0  0  0  0  0  0  0
    5.6036   -3.8046   -2.9669 H   0  0  0  0  0  0  0  0  0  0  0  0
    8.7290   -3.0433   -4.6631 H   0  0  0  0  0  0  0  0  0  0  0  0
    6.9993   -3.4985   -4.8045 H   0  0  0  0  0  0  0  0  0  0  0  0
    7.9296   -3.9474   -3.3386 H   0  0  0  0  0  0  0  0  0  0  0  0
    6.7752    0.3134   -2.5066 H   0  0  0  0  0  0  0  0  0  0  0  0
    4.7426    0.7365   -1.1829 H   0  0  0  0  0  0  0  0  0  0  0  0
  1  2  1  0
  1 20  1  0
  1 21  1  0
  1 22  1  0
  2  3  1  0
  2 23  1  0
  2 24  1  0
  3  4  1  0
  3 19  1  0
  4  5  1  0
  4 25  1  0
  4 26  1  0
  5  6  1  0
  5 11  1  0
  5 27  1  1
  6  7  1  0
  6 28  1  0
  6 29  1  0
  7  8  1  0
  7 30  1  0
  8  9  1  0
  8 31  1  0
  8 32  1  0
  9 10  2  0
  9 11  1  0
 11 12  1  0
 12 13  1  0
 12 19  2  0
 13 14  2  0
 13 33  1  0
 14 15  1  0
 14 17  1  0
 15 16  1  0
 16 34  1  0
 16 35  1  0
 16 36  1  0
 17 18  2  0
 17 37  1  0
 18 19  1  0
 18 38  1  0
M  END

