
     RDKit          3D

108108  0  0  0  0  0  0  0  0999 V2000
    2.6612   -1.3181   -0.7827 C   0  0  0  0  0  0  0  0  0  0  0  0
    4.0978   -1.4811   -0.2787 C   0  0  0  0  0  0  0  0  0  0  0  0
    4.7649   -0.1256    0.0161 C   0  0  0  0  0  0  0  0  0  0  0  0
    6.2852   -0.1443    0.3748 C   0  0  1  0  0  0  0  0  0  0  0  0
    6.3988   -1.1194    1.5811 C   0  0  0  0  0  0  0  0  0  0  0  0
    7.0803   -0.7261   -0.8632 C   0  0  0  0  0  0  0  0  0  0  0  0
    7.7233   -2.1184   -0.7612 C   0  0  0  0  0  0  0  0  0  0  0  0
    8.4883   -2.4875   -2.0349 C   0  0  0  0  0  0  0  0  0  0  0  0
    6.8781    1.3343    0.8387 C   0  0  1  0  0  0  0  0  0  0  0  0
    6.2913    1.6380    2.2448 C   0  0  0  0  0  0  0  0  0  0  0  0
    8.3998    1.1307    1.0491 C   0  0  0  0  0  0  0  0  0  0  0  0
    6.5508    2.6161   -0.1601 C   0  0  1  0  0  0  0  0  0  0  0  0
    6.6187    2.2017   -1.6506 C   0  0  0  0  0  0  0  0  0  0  0  0
    5.0959    3.0827    0.0989 C   0  0  0  0  0  0  0  0  0  0  0  0
    7.5140    3.9481   -0.0062 C   0  0  1  0  0  0  0  0  0  0  0  0
    7.7405    4.4045    1.4509 C   0  0  0  0  0  0  0  0  0  0  0  0
    8.8971    3.6992   -0.7223 C   0  0  0  0  0  0  0  0  0  0  0  0
   10.1747    4.4262   -0.2444 C   0  0  0  0  0  0  0  0  0  0  0  0
   10.3521    5.9110   -0.5956 C   0  0  0  0  0  0  0  0  0  0  0  0
   11.7580    6.4373   -0.2675 C   0  0  0  0  0  0  0  0  0  0  0  0
   12.0571    7.8587   -0.7684 C   0  0  0  0  0  0  0  0  0  0  0  0
   11.2425    8.9720   -0.0983 C   0  0  0  0  0  0  0  0  0  0  0  0
   11.5177   10.3619   -0.6907 C   0  0  0  0  0  0  0  0  0  0  0  0
   10.7089   11.5436   -0.0948 C   0  0  2  0  0  0  0  0  0  0  0  0
   11.1498   11.8519    1.3448 C   0  0  0  0  0  0  0  0  0  0  0  0
    9.1962   11.2673   -0.2511 C   0  0  0  0  0  0  0  0  0  0  0  0
    8.1311   12.4006   -0.1533 C   0  0  2  0  0  0  0  0  0  0  0  0
    8.5278   13.6027   -1.0297 C   0  0  0  0  0  0  0  0  0  0  0  0
    7.9137   12.8869    1.2943 C   0  0  0  0  0  0  0  0  0  0  0  0
    6.7897   11.8345   -0.7145 C   0  0  0  0  0  0  0  0  0  0  0  0
    6.2425   10.5688   -0.0439 C   0  0  0  0  0  0  0  0  0  0  0  0
    5.0317    9.9351   -0.7454 C   0  0  0  0  0  0  0  0  0  0  0  0
    4.7818    8.4878   -0.2853 C   0  0  0  0  0  0  0  0  0  0  0  0
    5.7907    7.4837   -0.8651 C   0  0  0  0  0  0  0  0  0  0  0  0
    5.8759    6.1519   -0.1076 C   0  0  0  0  0  0  0  0  0  0  0  0
    6.8997    5.2005   -0.7598 C   0  0  0  0  0  0  0  0  0  0  0  0
    2.1837   -2.2942   -0.9654 H   0  0  0  0  0  0  0  0  0  0  0  0
    2.6266   -0.7488   -1.7268 H   0  0  0  0  0  0  0  0  0  0  0  0
    2.0381   -0.7760   -0.0512 H   0  0  0  0  0  0  0  0  0  0  0  0
    4.6807   -2.0395   -1.0313 H   0  0  0  0  0  0  0  0  0  0  0  0
    4.0862   -2.1104    0.6257 H   0  0  0  0  0  0  0  0  0  0  0  0
    4.2004    0.3419    0.8399 H   0  0  0  0  0  0  0  0  0  0  0  0
    4.5982    0.5079   -0.8655 H   0  0  0  0  0  0  0  0  0  0  0  0
    6.1542   -2.1429    1.2763 H   0  0  0  0  0  0  0  0  0  0  0  0
    5.6920   -0.8564    2.3799 H   0  0  0  0  0  0  0  0  0  0  0  0
    7.4024   -1.1597    2.0232 H   0  0  0  0  0  0  0  0  0  0  0  0
    7.8871   -0.0406   -1.1428 H   0  0  0  0  0  0  0  0  0  0  0  0
    6.4163   -0.7372   -1.7433 H   0  0  0  0  0  0  0  0  0  0  0  0
    6.9595   -2.8900   -0.5693 H   0  0  0  0  0  0  0  0  0  0  0  0
    8.4143   -2.1577    0.0979 H   0  0  0  0  0  0  0  0  0  0  0  0
    7.8237   -2.4919   -2.9154 H   0  0  0  0  0  0  0  0  0  0  0  0
    8.9434   -3.4879   -1.9574 H   0  0  0  0  0  0  0  0  0  0  0  0
    9.2992   -1.7685   -2.2417 H   0  0  0  0  0  0  0  0  0  0  0  0
    6.7259    0.9741    3.0044 H   0  0  0  0  0  0  0  0  0  0  0  0
    5.2008    1.5125    2.2892 H   0  0  0  0  0  0  0  0  0  0  0  0
    6.5105    2.6584    2.5676 H   0  0  0  0  0  0  0  0  0  0  0  0
    8.5844    0.2935    1.7355 H   0  0  0  0  0  0  0  0  0  0  0  0
    8.8729    2.0057    1.5059 H   0  0  0  0  0  0  0  0  0  0  0  0
    8.9511    0.9084    0.1277 H   0  0  0  0  0  0  0  0  0  0  0  0
    5.8575    1.4562   -1.9025 H   0  0  0  0  0  0  0  0  0  0  0  0
    7.5886    1.7896   -1.9490 H   0  0  0  0  0  0  0  0  0  0  0  0
    6.4250    3.0673   -2.2992 H   0  0  0  0  0  0  0  0  0  0  0  0
    4.3979    2.2456    0.1664 H   0  0  0  0  0  0  0  0  0  0  0  0
    4.7421    3.7158   -0.7254 H   0  0  0  0  0  0  0  0  0  0  0  0
    4.9945    3.6619    1.0258 H   0  0  0  0  0  0  0  0  0  0  0  0
    8.3583    3.7176    2.0403 H   0  0  0  0  0  0  0  0  0  0  0  0
    6.7948    4.5462    1.9903 H   0  0  0  0  0  0  0  0  0  0  0  0
    8.2520    5.3790    1.4628 H   0  0  0  0  0  0  0  0  0  0  0  0
    8.7713    3.9151   -1.7966 H   0  0  0  0  0  0  0  0  0  0  0  0
    9.1364    2.6341   -0.6803 H   0  0  0  0  0  0  0  0  0  0  0  0
   11.0210    3.8856   -0.7061 H   0  0  0  0  0  0  0  0  0  0  0  0
   10.3135    4.2890    0.8417 H   0  0  0  0  0  0  0  0  0  0  0  0
    9.5994    6.5245   -0.0738 H   0  0  0  0  0  0  0  0  0  0  0  0
   10.1604    6.0508   -1.6761 H   0  0  0  0  0  0  0  0  0  0  0  0
   12.5009    5.7485   -0.7086 H   0  0  0  0  0  0  0  0  0  0  0  0
   11.9208    6.3895    0.8257 H   0  0  0  0  0  0  0  0  0  0  0  0
   11.8874    7.8955   -1.8610 H   0  0  0  0  0  0  0  0  0  0  0  0
   13.1329    8.0678   -0.6275 H   0  0  0  0  0  0  0  0  0  0  0  0
   11.4560    8.9707    0.9860 H   0  0  0  0  0  0  0  0  0  0  0  0
   10.1696    8.7397   -0.1959 H   0  0  0  0  0  0  0  0  0  0  0  0
   11.3193   10.3199   -1.7774 H   0  0  0  0  0  0  0  0  0  0  0  0
   12.5955   10.5875   -0.5926 H   0  0  0  0  0  0  0  0  0  0  0  0
   10.9697   12.4204   -0.7131 H   0  0  0  0  0  0  0  0  0  0  0  0
   10.8158   11.0736    2.0509 H   0  0  0  0  0  0  0  0  0  0  0  0
   10.7508   12.8107    1.7048 H   0  0  0  0  0  0  0  0  0  0  0  0
   12.2488   11.9121    1.4124 H   0  0  0  0  0  0  0  0  0  0  0  0
    8.9252   10.4846    0.4750 H   0  0  0  0  0  0  0  0  0  0  0  0
    9.0621   10.8066   -1.2468 H   0  0  0  0  0  0  0  0  0  0  0  0
    9.4342   14.1038   -0.6549 H   0  0  0  0  0  0  0  0  0  0  0  0
    7.7216   14.3546   -1.0486 H   0  0  0  0  0  0  0  0  0  0  0  0
    8.7194   13.2950   -2.0714 H   0  0  0  0  0  0  0  0  0  0  0  0
    8.7818   13.4432    1.6760 H   0  0  0  0  0  0  0  0  0  0  0  0
    7.7270   12.0509    1.9866 H   0  0  0  0  0  0  0  0  0  0  0  0
    7.0455   13.5651    1.3471 H   0  0  0  0  0  0  0  0  0  0  0  0
    6.9368   11.6222   -1.7896 H   0  0  0  0  0  0  0  0  0  0  0  0
    6.0267   12.6333   -0.6692 H   0  0  0  0  0  0  0  0  0  0  0  0
    5.9746   10.7775    1.0067 H   0  0  0  0  0  0  0  0  0  0  0  0
    7.0425    9.8144   -0.0013 H   0  0  0  0  0  0  0  0  0  0  0  0
    5.1904    9.9424   -1.8399 H   0  0  0  0  0  0  0  0  0  0  0  0
    4.1324   10.5504   -0.5675 H   0  0  0  0  0  0  0  0  0  0  0  0
    3.7584    8.1747   -0.5560 H   0  0  0  0  0  0  0  0  0  0  0  0
    4.8226    8.4541    0.8195 H   0  0  0  0  0  0  0  0  0  0  0  0
    6.7975    7.9377   -0.8743 H   0  0  0  0  0  0  0  0  0  0  0  0
    5.5451    7.2973   -1.9271 H   0  0  0  0  0  0  0  0  0  0  0  0
    4.8725    5.7044   -0.0544 H   0  0  0  0  0  0  0  0  0  0  0  0
    6.1607    6.3761    0.9334 H   0  0  0  0  0  0  0  0  0  0  0  0
    7.7657    5.8332   -1.0031 H   0  0  0  0  0  0  0  0  0  0  0  0
    6.5104    4.8890   -1.7419 H   0  0  0  0  0  0  0  0  0  0  0  0
  1  2  1  0
  1 37  1  0
  1 38  1  0
  1 39  1  0
  2  3  1  0
  2 40  1  0
  2 41  1  0
  4  3  1  6
  3 42  1  0
  3 43  1  0
  4  5  1  0
  4  6  1  0
  4  9  1  0
  5 44  1  0
  5 45  1  0
  5 46  1  0
  6  7  1  0
  6 47  1  0
  6 48  1  0
  7  8  1  0
  7 49  1  0
  7 50  1  0
  8 51  1  0
  8 52  1  0
  8 53  1  0
  9 10  1  1
  9 11  1  0
  9 12  1  0
 10 54  1  0
 10 55  1  0
 10 56  1  0
 11 57  1  0
 11 58  1  0
 11 59  1  0
 12 13  1  6
 12 14  1  0
 12 15  1  0
 13 60  1  0
 13 61  1  0
 13 62  1  0
 14 63  1  0
 14 64  1  0
 14 65  1  0
 15 16  1  1
 15 17  1  0
 15 36  1  0
 16 66  1  0
 16 67  1  0
 16 68  1  0
 17 18  1  0
 17 69  1  0
 17 70  1  0
 18 19  1  0
 18 71  1  0
 18 72  1  0
 19 20  1  0
 19 73  1  0
 19 74  1  0
 20 21  1  0
 20 75  1  0
 20 76  1  0
 21 22  1  0
 21 77  1  0
 21 78  1  0
 22 23  1  0
 22 79  1  0
 22 80  1  0
 23 24  1  0
 23 81  1  0
 23 82  1  0
 24 25  1  0
 24 26  1  0
 24 83  1  6
 25 84  1  0
 25 85  1  0
 25 86  1  0
 26 27  1  0
 26 87  1  0
 26 88  1  0
 27 28  1  6
 27 29  1  0
 27 30  1  0
 28 89  1  0
 28 90  1  0
 28 91  1  0
 29 92  1  0
 29 93  1  0
 29 94  1  0
 30 31  1  0
 30 95  1  0
 30 96  1  0
 31 32  1  0
 31 97  1  0
 31 98  1  0
 32 33  1  0
 32 99  1  0
 32100  1  0
 33 34  1  0
 33101  1  0
 33102  1  0
 34 35  1  0
 34103  1  0
 34104  1  0
 35 36  1  0
 35105  1  0
 35106  1  0
 36107  1  0
 36108  1  0
M  END

