
     RDKit          3D

 71 75  0  0  0  0  0  0  0  0999 V2000
    3.3254   -4.5081    5.3359 C   0  0  0  0  0  0  0  0  0  0  0  0
    2.9323   -5.1729    4.0064 C   0  0  1  0  0  0  0  0  0  0  0  0
    2.9589   -6.7082    4.1495 C   0  0  0  0  0  0  0  0  0  0  0  0
    1.5258   -4.7130    3.5786 C   0  0  0  0  0  0  0  0  0  0  0  0
    4.1633   -4.6997    2.5652 Si  0  0  0  0  0  3  0  0  0  0  0  0
    5.5950   -5.1270    3.3683 O   0  0  0  0  0  0  0  0  0  0  0  0
    6.9685   -4.9537    3.0254 C   0  0  1  0  0  0  0  0  0  0  0  0
    7.7219   -6.1578    3.6021 C   0  0  0  0  0  0  0  0  0  0  0  0
    7.1749   -4.8450    1.5096 C   0  0  0  0  0  0  0  0  0  0  0  0
    7.4087   -3.6732    3.7699 C   0  0  1  0  0  0  0  0  0  0  0  0
    7.1262   -3.8042    4.8274 H   0  0  0  0  0  0  0  0  0  0  0  0
    8.8872   -3.2579    3.6549 C   0  0  0  0  0  0  0  0  0  0  0  0
    8.7848   -1.8188    3.4648 N   0  0  0  0  0  0  0  0  0  0  0  0
    9.9107   -0.9766    3.4273 C   0  0  0  0  0  0  0  0  0  0  0  0
    9.8071    0.4223    3.2791 C   0  0  0  0  0  0  0  0  0  0  0  0
   10.9578    1.2035    3.2631 C   0  0  0  0  0  0  0  0  0  0  0  0
   12.2560    0.6701    3.3913 C   0  0  0  0  0  0  0  0  0  0  0  0
   13.4611    1.5322    3.3494 C   0  0  0  0  0  0  0  0  0  0  0  0
   13.5288    2.6570    2.4977 C   0  0  0  0  0  0  0  0  0  0  0  0
   14.6529    3.4689    2.4901 C   0  0  0  0  0  0  0  0  0  0  0  0
   15.7093    3.1227    3.3497 C   0  0  0  0  0  0  0  0  0  0  0  0
   16.8117    3.9170    3.3337 O   0  0  0  0  0  0  0  0  0  0  0  0
   17.8527    3.6677    4.2655 C   0  0  2  0  0  0  0  0  0  0  0  0
   17.4283    3.3893    5.2428 H   0  0  0  0  0  0  0  0  0  0  0  0
   18.6336    4.9768    4.3937 C   0  0  0  0  0  0  0  0  0  0  0  0
   19.6996    4.8458    5.3293 O   0  0  0  0  0  0  0  0  0  0  0  0
   20.4731    3.7608    5.1911 C   0  0  0  0  0  0  0  0  0  0  0  0
   21.6478    3.6028    5.7327 N   0  0  0  0  0  0  0  0  0  0  0  0
   22.0106    2.3429    5.3608 C   0  0  0  0  0  0  0  0  0  0  0  0
   23.2716    1.7450    5.7508 N   0  0  0  0  0  0  0  0  0  0  0  0
   23.4765    0.6053    5.3427 O   0  0  0  0  0  0  0  0  0  0  0  0
   24.0292    2.3976    6.4427 O   0  0  0  0  0  0  0  0  0  0  0  0
   21.0579    1.7214    4.5860 C   0  0  0  0  0  0  0  0  0  0  0  0
   20.0495    2.6562    4.4807 N   0  0  0  0  0  0  0  0  0  0  0  0
   18.7784    2.5474    3.7733 C   0  0  0  0  0  0  0  0  0  0  0  0
   15.6766    2.0732    4.1530 N   0  0  0  0  0  0  0  0  0  0  0  0
   14.5846    1.3002    4.1579 C   0  0  0  0  0  0  0  0  0  0  0  0
   12.3168   -0.7227    3.5368 C   0  0  0  0  0  0  0  0  0  0  0  0
   13.5129   -1.3291    3.6483 F   0  0  0  0  0  0  0  0  0  0  0  0
   11.1925   -1.5404    3.5558 C   0  0  0  0  0  0  0  0  0  0  0  0
    7.4729   -1.4422    3.1803 C   0  0  0  0  0  0  0  0  0  0  0  0
    7.0509   -0.3561    2.8950 O   0  0  0  0  0  0  0  0  0  0  0  0
    6.6826   -2.5437    3.2730 O   0  0  0  0  0  0  0  0  0  0  0  0
    2.6021   -4.7683    6.1318 H   0  0  0  0  0  0  0  0  0  0  0  0
    3.3378   -3.4066    5.2600 H   0  0  0  0  0  0  0  0  0  0  0  0
    4.3235   -4.8322    5.6682 H   0  0  0  0  0  0  0  0  0  0  0  0
    2.2101   -7.0421    4.8924 H   0  0  0  0  0  0  0  0  0  0  0  0
    3.9458   -7.0673    4.4818 H   0  0  0  0  0  0  0  0  0  0  0  0
    2.7151   -7.2216    3.2015 H   0  0  0  0  0  0  0  0  0  0  0  0
    0.7701   -5.0033    4.3314 H   0  0  0  0  0  0  0  0  0  0  0  0
    1.2183   -5.1599    2.6171 H   0  0  0  0  0  0  0  0  0  0  0  0
    1.4677   -3.6170    3.4627 H   0  0  0  0  0  0  0  0  0  0  0  0
    7.3423   -7.0806    3.1393 H   0  0  0  0  0  0  0  0  0  0  0  0
    7.5580   -6.2330    4.6879 H   0  0  0  0  0  0  0  0  0  0  0  0
    8.8042   -6.0980    3.4064 H   0  0  0  0  0  0  0  0  0  0  0  0
    6.7660   -5.7395    1.0161 H   0  0  0  0  0  0  0  0  0  0  0  0
    8.2439   -4.7841    1.2545 H   0  0  0  0  0  0  0  0  0  0  0  0
    6.6650   -3.9634    1.0963 H   0  0  0  0  0  0  0  0  0  0  0  0
    9.4016   -3.7329    2.8013 H   0  0  0  0  0  0  0  0  0  0  0  0
    9.4481   -3.5062    4.5684 H   0  0  0  0  0  0  0  0  0  0  0  0
    8.8276    0.8820    3.1791 H   0  0  0  0  0  0  0  0  0  0  0  0
   10.8439    2.2857    3.1678 H   0  0  0  0  0  0  0  0  0  0  0  0
   12.6968    2.8840    1.8270 H   0  0  0  0  0  0  0  0  0  0  0  0
   14.7376    4.3434    1.8435 H   0  0  0  0  0  0  0  0  0  0  0  0
   17.9832    5.7754    4.7720 H   0  0  0  0  0  0  0  0  0  0  0  0
   19.0242    5.2809    3.4052 H   0  0  0  0  0  0  0  0  0  0  0  0
   21.0247    0.7403    4.1236 H   0  0  0  0  0  0  0  0  0  0  0  0
   18.3254    1.5650    3.9626 H   0  0  0  0  0  0  0  0  0  0  0  0
   18.9344    2.6624    2.6870 H   0  0  0  0  0  0  0  0  0  0  0  0
   14.6025    0.4508    4.8453 H   0  0  0  0  0  0  0  0  0  0  0  0
   11.3576   -2.6112    3.6629 H   0  0  0  0  0  0  0  0  0  0  0  0
  1  2  1  0
  1 44  1  0
  1 45  1  0
  1 46  1  0
  2  3  1  0
  2  4  1  0
  2  5  1  6
  3 47  1  0
  3 48  1  0
  3 49  1  0
  4 50  1  0
  4 51  1  0
  4 52  1  0
  5  6  2  0
  7  6  1  6
  7  8  1  0
  7  9  1  0
  7 10  1  0
  8 53  1  0
  8 54  1  0
  8 55  1  0
  9 56  1  0
  9 57  1  0
  9 58  1  0
 10 11  1  1
 10 12  1  0
 10 43  1  0
 12 13  1  0
 12 59  1  0
 12 60  1  0
 13 14  1  0
 13 41  2  0
 14 15  1  0
 14 40  1  0
 15 16  2  0
 15 61  1  0
 16 17  1  0
 16 62  1  0
 17 18  2  0
 17 38  1  0
 18 19  1  0
 18 37  1  0
 19 20  2  0
 19 63  1  0
 20 21  1  0
 20 64  1  0
 21 22  2  0
 21 36  1  0
 22 23  1  0
 23 24  1  1
 23 25  1  0
 23 35  1  0
 25 26  1  0
 25 65  1  0
 25 66  1  0
 26 27  1  0
 27 28  2  0
 27 34  1  0
 28 29  1  0
 29 30  1  0
 29 33  2  0
 30 31  1  0
 30 32  2  0
 33 34  1  0
 33 67  1  0
 34 35  1  0
 35 68  1  0
 35 69  1  0
 36 37  2  0
 37 70  1  0
 38 39  1  0
 38 40  2  0
 40 71  1  0
 41 42  1  0
 41 43  1  0
M  CHG  8   5  -1   6   1  13   1  14  -1  22   1  30   1  31  -1  42  -1
M  END

