
     RDKit          3D

 45 48  0  0  0  0  0  0  0  0999 V2000
    6.5511    3.8119    0.4359 C   0  0  0  0  0  0  0  0  0  0  0  0
    6.4527    3.2485   -0.8513 O   0  0  0  0  0  0  0  0  0  0  0  0
    5.4943    2.3169   -1.0966 C   0  0  0  0  0  0  0  0  0  0  0  0
    4.5730    1.8546   -0.1474 C   0  0  0  0  0  0  0  0  0  0  0  0
    3.6274    0.8913   -0.5250 C   0  0  0  0  0  0  0  0  0  0  0  0
    3.5873    0.3865   -1.8221 C   0  0  0  0  0  0  0  0  0  0  0  0
    4.5187    0.8439   -2.7744 C   0  0  0  0  0  0  0  0  0  0  0  0
    4.4707    0.3198   -4.2015 C   0  0  0  0  0  0  0  0  0  0  0  0
    4.7608   -1.1019   -4.3567 N   0  0  0  0  0  0  0  0  0  0  0  0
    3.8085   -2.0641   -4.3000 C   0  0  0  0  0  0  0  0  0  0  0  0
    2.6074   -1.9642   -4.0803 O   0  0  0  0  0  0  0  0  0  0  0  0
    4.4874   -3.3628   -4.5819 C   0  0  0  0  0  0  0  0  0  0  0  0
    3.7370   -4.4498   -4.5799 O   0  0  0  0  0  0  0  0  0  0  0  0
    5.8047   -3.1580   -4.8441 C   0  0  0  0  0  0  0  0  0  0  0  0
    6.7644   -4.2309   -5.1874 C   0  0  0  0  0  0  0  0  0  0  0  0
    6.5235   -5.4013   -4.9249 O   0  0  0  0  0  0  0  0  0  0  0  0
    8.0240   -3.9098   -5.8899 C   0  0  0  0  0  0  0  0  0  0  0  0
    9.0708   -4.7373   -6.2213 C   0  0  0  0  0  0  0  0  0  0  0  0
   10.0202   -3.9309   -6.9154 C   0  0  0  0  0  0  0  0  0  0  0  0
    9.4825   -2.6716   -6.9609 C   0  0  0  0  0  0  0  0  0  0  0  0
    8.2791   -2.6475   -6.3489 O   0  0  0  0  0  0  0  0  0  0  0  0
    6.0845   -1.6599   -4.6971 C   0  0  2  0  0  0  0  0  0  0  0  0
    7.1476   -1.3363   -3.6685 C   0  0  0  0  0  0  0  0  0  0  0  0
    7.3051   -1.8565   -2.4057 C   0  0  0  0  0  0  0  0  0  0  0  0
    8.3905   -1.2698   -1.6891 C   0  0  0  0  0  0  0  0  0  0  0  0
    9.0490   -0.3102   -2.4162 C   0  0  0  0  0  0  0  0  0  0  0  0
    8.3516   -0.1179   -3.9853 S   0  0  0  0  0  0  0  0  0  0  0  0
    5.4591    1.8050   -2.4064 C   0  0  0  0  0  0  0  0  0  0  0  0
    7.3809    4.5310    0.4016 H   0  0  0  0  0  0  0  0  0  0  0  0
    6.7718    3.0493    1.2050 H   0  0  0  0  0  0  0  0  0  0  0  0
    5.6278    4.3468    0.7244 H   0  0  0  0  0  0  0  0  0  0  0  0
    4.5775    2.2329    0.8749 H   0  0  0  0  0  0  0  0  0  0  0  0
    2.9047    0.5390    0.2159 H   0  0  0  0  0  0  0  0  0  0  0  0
    2.8368   -0.3524   -2.1107 H   0  0  0  0  0  0  0  0  0  0  0  0
    5.1725    0.8829   -4.8343 H   0  0  0  0  0  0  0  0  0  0  0  0
    3.4575    0.4730   -4.6069 H   0  0  0  0  0  0  0  0  0  0  0  0
    2.8281   -4.1365   -4.3887 H   0  0  0  0  0  0  0  0  0  0  0  0
    9.1259   -5.7963   -5.9826 H   0  0  0  0  0  0  0  0  0  0  0  0
   10.9779   -4.2395   -7.3289 H   0  0  0  0  0  0  0  0  0  0  0  0
    9.8284   -1.7288   -7.3773 H   0  0  0  0  0  0  0  0  0  0  0  0
    6.3981   -1.2370   -5.6663 H   0  0  0  0  0  0  0  0  0  0  0  0
    6.6596   -2.6379   -2.0015 H   0  0  0  0  0  0  0  0  0  0  0  0
    8.6741   -1.5535   -0.6745 H   0  0  0  0  0  0  0  0  0  0  0  0
    9.9108    0.2873   -2.1226 H   0  0  0  0  0  0  0  0  0  0  0  0
    6.1978    2.1775   -3.1190 H   0  0  0  0  0  0  0  0  0  0  0  0
  1  2  1  0
  1 29  1  0
  1 30  1  0
  1 31  1  0
  2  3  1  0
  3  4  2  0
  3 28  1  0
  4  5  1  0
  4 32  1  0
  5  6  2  0
  5 33  1  0
  6  7  1  0
  6 34  1  0
  7  8  1  0
  7 28  2  0
  8  9  1  0
  8 35  1  0
  8 36  1  0
  9 10  1  0
  9 22  1  0
 10 11  2  0
 10 12  1  0
 12 13  1  0
 12 14  2  0
 13 37  1  0
 14 15  1  0
 14 22  1  0
 15 16  2  0
 15 17  1  0
 17 18  2  0
 17 21  1  0
 18 19  1  0
 18 38  1  0
 19 20  2  0
 19 39  1  0
 20 21  1  0
 20 40  1  0
 22 23  1  0
 22 41  1  6
 23 24  2  0
 23 27  1  0
 24 25  1  0
 24 42  1  0
 25 26  2  0
 25 43  1  0
 26 27  1  0
 26 44  1  0
 28 45  1  0
M  END

