
     RDKit          3D

 46 46  0  0  0  0  0  0  0  0999 V2000
    5.7400    5.0373    1.3041 C   0  0  0  0  0  0  0  0  0  0  0  0
    6.6171    4.2043    0.4014 C   0  0  0  0  0  0  0  0  0  0  0  0
    7.9144    3.8294    0.7830 C   0  0  0  0  0  0  0  0  0  0  0  0
    8.7433    3.0907   -0.0639 C   0  0  0  0  0  0  0  0  0  0  0  0
    8.2803    2.6758   -1.3208 C   0  0  0  0  0  0  0  0  0  0  0  0
    9.1236    1.9506   -2.2235 N   0  0  0  0  0  0  0  0  0  0  0  0
    9.3759    0.5199   -1.9889 C   0  0  1  0  0  0  0  0  0  0  0  0
    9.9414    0.2869   -0.6441 C   0  0  0  0  0  0  0  0  0  0  0  0
   10.4218    0.0534    0.3839 N   0  0  0  0  0  0  0  0  0  0  0  0
    8.1383   -0.3990   -2.1673 C   0  0  0  0  0  0  0  0  0  0  0  0
    7.5962   -0.3570   -3.5911 C   0  0  0  0  0  0  0  0  0  0  0  0
    7.7367    0.5862   -4.3324 O   0  0  0  0  0  0  0  0  0  0  0  0
    6.8852   -1.4218   -3.9819 O   0  0  0  0  0  0  0  0  0  0  0  0
   10.4902    0.0250   -2.9887 C   0  0  0  0  0  0  0  0  0  0  0  0
   10.4871   -1.1153   -3.4042 O   0  0  0  0  0  0  0  0  0  0  0  0
   11.4339    0.9678   -3.2541 N   0  0  0  0  0  0  0  0  0  0  0  0
   12.4870    0.7695   -4.2458 C   0  0  2  0  0  0  0  0  0  0  0  0
   12.4499   -0.3032   -4.5010 H   0  0  0  0  0  0  0  0  0  0  0  0
   13.8889    0.9936   -3.6356 C   0  0  0  0  0  0  0  0  0  0  0  0
   14.8584    1.2151   -4.3085 O   0  0  0  0  0  0  0  0  0  0  0  0
   13.9691    0.8761   -2.3012 O   0  0  0  0  0  0  0  0  0  0  0  0
   12.2882    1.5871   -5.5430 C   0  0  1  0  0  0  0  0  0  0  0  0
   11.0820    1.0859   -6.3447 C   0  0  0  0  0  0  0  0  0  0  0  0
   12.2131    3.0965   -5.2778 C   0  0  0  0  0  0  0  0  0  0  0  0
    6.9812    3.0411   -1.7125 C   0  0  0  0  0  0  0  0  0  0  0  0
    6.1711    3.8001   -0.8669 C   0  0  0  0  0  0  0  0  0  0  0  0
    6.1102    5.0379    2.3400 H   0  0  0  0  0  0  0  0  0  0  0  0
    4.7026    4.6664    1.3135 H   0  0  0  0  0  0  0  0  0  0  0  0
    5.7033    6.0876    0.9659 H   0  0  0  0  0  0  0  0  0  0  0  0
    8.2967    4.1359    1.7607 H   0  0  0  0  0  0  0  0  0  0  0  0
    9.7586    2.8459    0.2506 H   0  0  0  0  0  0  0  0  0  0  0  0
    8.7280    2.0006   -3.1648 H   0  0  0  0  0  0  0  0  0  0  0  0
    7.3419   -0.0587   -1.4838 H   0  0  0  0  0  0  0  0  0  0  0  0
    8.4061   -1.4283   -1.8901 H   0  0  0  0  0  0  0  0  0  0  0  0
    6.9165   -2.1250   -3.3169 H   0  0  0  0  0  0  0  0  0  0  0  0
   11.1743    1.9142   -2.9732 H   0  0  0  0  0  0  0  0  0  0  0  0
   13.0809    0.7144   -1.9407 H   0  0  0  0  0  0  0  0  0  0  0  0
   13.2032    1.3968   -6.1258 H   0  0  0  0  0  0  0  0  0  0  0  0
   10.1334    1.2225   -5.7996 H   0  0  0  0  0  0  0  0  0  0  0  0
   11.1724    0.0146   -6.5836 H   0  0  0  0  0  0  0  0  0  0  0  0
   10.9969    1.6367   -7.2946 H   0  0  0  0  0  0  0  0  0  0  0  0
   11.3082    3.3716   -4.7081 H   0  0  0  0  0  0  0  0  0  0  0  0
   12.1669    3.6496   -6.2286 H   0  0  0  0  0  0  0  0  0  0  0  0
   13.0967    3.4597   -4.7299 H   0  0  0  0  0  0  0  0  0  0  0  0
    6.6082    2.7302   -2.6926 H   0  0  0  0  0  0  0  0  0  0  0  0
    5.1663    4.0768   -1.1997 H   0  0  0  0  0  0  0  0  0  0  0  0
  1  2  1  0
  1 27  1  0
  1 28  1  0
  1 29  1  0
  2  3  2  0
  2 26  1  0
  3  4  1  0
  3 30  1  0
  4  5  2  0
  4 31  1  0
  5  6  1  0
  5 25  1  0
  6  7  1  0
  6 32  1  0
  7  8  1  1
  7 10  1  0
  7 14  1  0
  8  9  3  0
 10 11  1  0
 10 33  1  0
 10 34  1  0
 11 12  2  0
 11 13  1  0
 13 35  1  0
 14 15  2  0
 14 16  1  0
 16 17  1  0
 16 36  1  0
 17 18  1  6
 17 19  1  0
 17 22  1  0
 19 20  2  0
 19 21  1  0
 21 37  1  0
 22 23  1  0
 22 24  1  0
 22 38  1  6
 23 39  1  0
 23 40  1  0
 23 41  1  0
 24 42  1  0
 24 43  1  0
 24 44  1  0
 25 26  2  0
 25 45  1  0
 26 46  1  0
M  END

