
     RDKit          3D

 43 43  0  0  0  0  0  0  0  0999 V2000
    1.0417   -1.2037   -2.9211 C   0  0  0  0  0  0  0  0  0  0  0  0
    1.9899   -0.3814   -2.0443 C   0  0  1  0  0  0  0  0  0  0  0  0
    1.2992    0.2030   -0.8079 C   0  0  0  0  0  0  0  0  0  0  0  0
    3.1486   -1.2161   -1.6876 N   0  0  0  0  0  0  0  0  0  0  0  0
    4.6607   -0.5659   -1.4001 S   0  0  1  0  0  0  0  0  0  0  0  0
    4.5598    0.8803   -1.1705 O   0  0  0  0  0  0  0  0  0  0  0  0
    5.2887   -1.4606   -0.4252 O   0  0  0  0  0  0  0  0  0  0  0  0
    5.5133   -0.7840   -2.9715 C   0  0  0  0  0  0  0  0  0  0  0  0
    6.2279    0.2774   -3.5269 C   0  0  0  0  0  0  0  0  0  0  0  0
    6.9567    0.0570   -4.7025 C   0  0  0  0  0  0  0  0  0  0  0  0
    6.9563   -1.1994   -5.3085 C   0  0  0  0  0  0  0  0  0  0  0  0
    6.2116   -2.2559   -4.7579 C   0  0  0  0  0  0  0  0  0  0  0  0
    6.2311   -3.5925   -5.4588 C   0  0  0  0  0  0  0  0  0  0  0  0
    7.1439   -3.9217   -6.2000 O   0  0  0  0  0  0  0  0  0  0  0  0
    5.1500   -4.3871   -5.2024 N   0  0  0  0  0  0  0  0  0  0  0  0
    5.0110   -5.7486   -5.6666 C   0  0  0  0  0  0  0  0  0  0  0  0
    4.6169   -6.6514   -4.5056 C   0  0  0  0  0  0  0  0  0  0  0  0
    3.4587   -6.0838   -3.9124 O   0  0  0  0  0  0  0  0  0  0  0  0
    3.0953   -6.5849   -2.6631 C   0  0  0  0  0  0  0  0  0  0  0  0
    2.2360   -5.5475   -1.9592 C   0  0  1  0  0  0  0  0  0  0  0  0
    1.1298   -5.2494   -2.6502 F   0  0  0  0  0  0  0  0  0  0  0  0
    1.8657   -6.0036   -0.7543 F   0  0  0  0  0  0  0  0  0  0  0  0
    2.9145   -4.3960   -1.7710 F   0  0  0  0  0  0  0  0  0  0  0  0
    5.5042   -2.0461   -3.5691 C   0  0  0  0  0  0  0  0  0  0  0  0
    0.1611   -0.6078   -3.2076 H   0  0  0  0  0  0  0  0  0  0  0  0
    0.6844   -2.0993   -2.3860 H   0  0  0  0  0  0  0  0  0  0  0  0
    1.5486   -1.5415   -3.8375 H   0  0  0  0  0  0  0  0  0  0  0  0
    2.3909    0.4530   -2.6421 H   0  0  0  0  0  0  0  0  0  0  0  0
    0.8987   -0.6013   -0.1670 H   0  0  0  0  0  0  0  0  0  0  0  0
    0.4576    0.8525   -1.0975 H   0  0  0  0  0  0  0  0  0  0  0  0
    2.0119    0.7989   -0.2200 H   0  0  0  0  0  0  0  0  0  0  0  0
    2.9788   -1.9916   -1.0481 H   0  0  0  0  0  0  0  0  0  0  0  0
    6.2086    1.2530   -3.0382 H   0  0  0  0  0  0  0  0  0  0  0  0
    7.5279    0.8764   -5.1455 H   0  0  0  0  0  0  0  0  0  0  0  0
    7.5262   -1.3901   -6.2200 H   0  0  0  0  0  0  0  0  0  0  0  0
    4.3835   -4.0308   -4.6453 H   0  0  0  0  0  0  0  0  0  0  0  0
    5.9705   -6.0636   -6.1007 H   0  0  0  0  0  0  0  0  0  0  0  0
    4.2442   -5.8184   -6.4596 H   0  0  0  0  0  0  0  0  0  0  0  0
    5.4366   -6.6970   -3.7623 H   0  0  0  0  0  0  0  0  0  0  0  0
    4.4151   -7.6804   -4.8616 H   0  0  0  0  0  0  0  0  0  0  0  0
    3.9719   -6.7751   -2.0149 H   0  0  0  0  0  0  0  0  0  0  0  0
    2.5094   -7.5222   -2.7309 H   0  0  0  0  0  0  0  0  0  0  0  0
    4.9499   -2.8534   -3.0872 H   0  0  0  0  0  0  0  0  0  0  0  0
  1  2  1  0
  1 25  1  0
  1 26  1  0
  1 27  1  0
  2  3  1  0
  2  4  1  0
  2 28  1  6
  3 29  1  0
  3 30  1  0
  3 31  1  0
  5  4  1  6
  4 32  1  0
  5  6  2  0
  5  7  2  0
  5  8  1  0
  8  9  2  0
  8 24  1  0
  9 10  1  0
  9 33  1  0
 10 11  2  0
 10 34  1  0
 11 12  1  0
 11 35  1  0
 12 13  1  0
 12 24  2  0
 13 14  2  0
 13 15  1  0
 15 16  1  0
 15 36  1  0
 16 17  1  0
 16 37  1  0
 16 38  1  0
 17 18  1  0
 17 39  1  0
 17 40  1  0
 18 19  1  0
 19 20  1  0
 19 41  1  0
 19 42  1  0
 20 21  1  6
 20 22  1  0
 20 23  1  0
 24 43  1  0
M  END

