
     RDKit          3D

 33 35  0  0  0  0  0  0  0  0999 V2000
    1.4743    0.0942    1.0470 C   0  0  0  0  0  0  0  0  0  0  0  0
    2.7129   -0.0627    0.3974 O   0  0  0  0  0  0  0  0  0  0  0  0
    3.1421   -1.3070    0.0569 C   0  0  0  0  0  0  0  0  0  0  0  0
    4.3838   -1.3731   -0.5924 C   0  0  0  0  0  0  0  0  0  0  0  0
    4.8882   -2.6153   -0.9806 C   0  0  0  0  0  0  0  0  0  0  0  0
    4.1665   -3.7676   -0.7155 C   0  0  0  0  0  0  0  0  0  0  0  0
    4.6419   -4.9782   -1.0965 F   0  0  0  0  0  0  0  0  0  0  0  0
    2.9224   -3.7374   -0.0590 C   0  0  0  0  0  0  0  0  0  0  0  0
    2.2825   -4.9411    0.2046 N   0  0  0  0  0  0  0  0  0  0  0  0
    0.8795   -5.0088    0.5748 C   0  0  0  0  0  0  0  0  0  0  0  0
    0.4390   -6.4121    0.8285 C   0  0  0  0  0  0  0  0  0  0  0  0
   -0.5628   -7.1908    0.2495 C   0  0  0  0  0  0  0  0  0  0  0  0
   -0.6633   -8.4126    0.8215 N   0  0  0  0  0  0  0  0  0  0  0  0
    0.2708   -8.4316    1.7663 C   0  0  0  0  0  0  0  0  0  0  0  0
    0.6498   -9.4313    2.7009 C   0  0  0  0  0  0  0  0  0  0  0  0
    1.6126   -9.2581    3.5749 N   0  0  0  0  0  0  0  0  0  0  0  0
    2.2774   -8.0663    3.5740 C   0  0  0  0  0  0  0  0  0  0  0  0
    1.9961   -7.0358    2.7153 C   0  0  0  0  0  0  0  0  0  0  0  0
    0.9789   -7.2180    1.8074 N   0  0  0  0  0  0  0  0  0  0  0  0
    2.4110   -2.4790    0.3166 C   0  0  0  0  0  0  0  0  0  0  0  0
    1.3447    1.1713    1.2195 H   0  0  0  0  0  0  0  0  0  0  0  0
    1.4489   -0.4266    2.0220 H   0  0  0  0  0  0  0  0  0  0  0  0
    0.6332   -0.2699    0.4288 H   0  0  0  0  0  0  0  0  0  0  0  0
    4.9292   -0.4489   -0.7866 H   0  0  0  0  0  0  0  0  0  0  0  0
    5.8474   -2.7029   -1.4952 H   0  0  0  0  0  0  0  0  0  0  0  0
    2.6137   -5.7118   -0.3665 H   0  0  0  0  0  0  0  0  0  0  0  0
    0.2109   -4.5750   -0.1963 H   0  0  0  0  0  0  0  0  0  0  0  0
    0.7274   -4.4033    1.4883 H   0  0  0  0  0  0  0  0  0  0  0  0
   -1.2166   -6.8846   -0.5687 H   0  0  0  0  0  0  0  0  0  0  0  0
    0.1081  -10.3835    2.6845 H   0  0  0  0  0  0  0  0  0  0  0  0
    3.0819   -7.9490    4.3054 H   0  0  0  0  0  0  0  0  0  0  0  0
    2.5384   -6.0911    2.6818 H   0  0  0  0  0  0  0  0  0  0  0  0
    1.4446   -2.4237    0.8123 H   0  0  0  0  0  0  0  0  0  0  0  0
  1  2  1  0
  1 21  1  0
  1 22  1  0
  1 23  1  0
  2  3  1  0
  3  4  2  0
  3 20  1  0
  4  5  1  0
  4 24  1  0
  5  6  2  0
  5 25  1  0
  6  7  1  0
  6  8  1  0
  8  9  1  0
  8 20  2  0
  9 10  1  0
  9 26  1  0
 10 11  1  0
 10 27  1  0
 10 28  1  0
 11 12  2  0
 11 19  1  0
 12 13  1  0
 12 29  1  0
 13 14  2  0
 14 15  1  0
 14 19  1  0
 15 16  2  0
 15 30  1  0
 16 17  1  0
 17 18  2  0
 17 31  1  0
 18 19  1  0
 18 32  1  0
 20 33  1  0
M  END

