
     RDKit          3D

 45 46  0  0  0  0  0  0  0  0999 V2000
    2.5912   -1.3385    0.4552 C   0  0  0  0  0  0  0  0  0  0  0  0
    2.2556   -0.4847   -0.7823 C   0  0  1  0  0  0  0  0  0  0  0  0
    2.4013   -1.3441   -2.0533 C   0  0  0  0  0  0  0  0  0  0  0  0
    0.7884   -0.0191   -0.6800 C   0  0  0  0  0  0  0  0  0  0  0  0
    3.1393    0.7926   -0.8316 C   0  0  0  0  0  0  0  0  0  0  0  0
    4.6711    0.6694   -0.7911 C   0  0  1  0  0  0  0  0  0  0  0  0
    5.3743    0.1056   -2.0491 C   0  0  0  0  0  0  0  0  0  0  0  0
    6.7404    0.7858   -2.0187 C   0  0  0  0  0  0  0  0  0  0  0  0
    6.4104    2.1395   -1.5980 N   0  0  0  0  0  0  0  0  0  0  0  0
    7.5195    3.0123   -1.2959 C   0  0  0  0  0  0  0  0  0  0  0  0
    7.1618    4.4882   -1.3199 C   0  0  0  0  0  0  0  0  0  0  0  0
    7.7862    5.3949   -0.4495 C   0  0  0  0  0  0  0  0  0  0  0  0
    7.5020    6.7580   -0.5090 C   0  0  0  0  0  0  0  0  0  0  0  0
    6.5626    7.2489   -1.4282 C   0  0  0  0  0  0  0  0  0  0  0  0
    6.3011    8.7283   -1.4426 C   0  0  0  0  0  0  0  0  0  0  0  0
    7.0363    9.5345   -0.9359 O   0  0  0  0  0  0  0  0  0  0  0  0
    5.1673    9.1354   -2.0613 O   0  0  0  0  0  0  0  0  0  0  0  0
    5.9399    6.3444   -2.3047 C   0  0  0  0  0  0  0  0  0  0  0  0
    6.2361    4.9826   -2.2507 C   0  0  0  0  0  0  0  0  0  0  0  0
    5.3583    2.0528   -0.5830 C   0  0  0  0  0  0  0  0  0  0  0  0
    1.8952   -2.1890    0.5417 H   0  0  0  0  0  0  0  0  0  0  0  0
    2.5121   -0.7481    1.3834 H   0  0  0  0  0  0  0  0  0  0  0  0
    3.6100   -1.7547    0.4066 H   0  0  0  0  0  0  0  0  0  0  0  0
    1.6756   -2.1741   -2.0418 H   0  0  0  0  0  0  0  0  0  0  0  0
    3.4027   -1.7889   -2.1437 H   0  0  0  0  0  0  0  0  0  0  0  0
    2.2121   -0.7502   -2.9627 H   0  0  0  0  0  0  0  0  0  0  0  0
    0.1007   -0.8800   -0.6493 H   0  0  0  0  0  0  0  0  0  0  0  0
    0.5066    0.6037   -1.5451 H   0  0  0  0  0  0  0  0  0  0  0  0
    0.6193    0.5782    0.2311 H   0  0  0  0  0  0  0  0  0  0  0  0
    2.8420    1.4174    0.0301 H   0  0  0  0  0  0  0  0  0  0  0  0
    2.8621    1.3762   -1.7295 H   0  0  0  0  0  0  0  0  0  0  0  0
    4.9492    0.0323    0.0641 H   0  0  0  0  0  0  0  0  0  0  0  0
    4.8324    0.4073   -2.9602 H   0  0  0  0  0  0  0  0  0  0  0  0
    5.4515   -0.9911   -2.0486 H   0  0  0  0  0  0  0  0  0  0  0  0
    7.2498    0.7909   -2.9971 H   0  0  0  0  0  0  0  0  0  0  0  0
    7.4162    0.2657   -1.2987 H   0  0  0  0  0  0  0  0  0  0  0  0
    8.3023    2.8392   -2.0572 H   0  0  0  0  0  0  0  0  0  0  0  0
    7.9917    2.7725   -0.3140 H   0  0  0  0  0  0  0  0  0  0  0  0
    8.5071    5.0258    0.2858 H   0  0  0  0  0  0  0  0  0  0  0  0
    7.9943    7.4680    0.1583 H   0  0  0  0  0  0  0  0  0  0  0  0
    4.6206    8.3734   -2.2974 H   0  0  0  0  0  0  0  0  0  0  0  0
    5.2358    6.6951   -3.0663 H   0  0  0  0  0  0  0  0  0  0  0  0
    5.7520    4.2788   -2.9313 H   0  0  0  0  0  0  0  0  0  0  0  0
    4.6470    2.8901   -0.6912 H   0  0  0  0  0  0  0  0  0  0  0  0
    5.7754    2.1249    0.4452 H   0  0  0  0  0  0  0  0  0  0  0  0
  2  1  1  1
  1 21  1  0
  1 22  1  0
  1 23  1  0
  2  3  1  0
  2  4  1  0
  2  5  1  0
  3 24  1  0
  3 25  1  0
  3 26  1  0
  4 27  1  0
  4 28  1  0
  4 29  1  0
  5  6  1  0
  5 30  1  0
  5 31  1  0
  6  7  1  0
  6 20  1  0
  6 32  1  1
  7  8  1  0
  7 33  1  0
  7 34  1  0
  8  9  1  0
  8 35  1  0
  8 36  1  0
  9 10  1  0
  9 20  1  0
 10 11  1  0
 10 37  1  0
 10 38  1  0
 11 12  2  0
 11 19  1  0
 12 13  1  0
 12 39  1  0
 13 14  2  0
 13 40  1  0
 14 15  1  0
 14 18  1  0
 15 16  2  0
 15 17  1  0
 17 41  1  0
 18 19  2  0
 18 42  1  0
 19 43  1  0
 20 44  1  0
 20 45  1  0
M  END

