
     RDKit          3D

 34 35  0  0  0  0  0  0  0  0999 V2000
    1.5546   -0.2378   -0.9025 O   0  0  0  0  0  0  0  0  0  0  0  0
    2.4283   -0.0624   -0.0924 C   0  0  0  0  0  0  0  0  0  0  0  0
    2.6084   -1.0135    0.8553 O   0  0  0  0  0  0  0  0  0  0  0  0
    3.3327   -0.9271    2.0891 C   0  0  0  0  0  0  0  0  0  0  0  0
    4.7822   -0.4750    1.9709 C   0  0  0  0  0  0  0  0  0  0  0  0
    4.9652    1.0499    1.8626 C   0  0  0  0  0  0  0  0  0  0  0  0
    3.8169    1.7771    1.1501 C   0  0  0  0  0  0  0  0  0  0  0  0
    3.3454    1.1681   -0.1819 C   0  0  1  0  0  0  0  0  0  0  0  0
    2.6987    1.9068   -0.6806 H   0  0  0  0  0  0  0  0  0  0  0  0
    4.5434    0.9330   -1.1677 C   0  0  2  0  0  0  0  0  0  0  0  0
    5.2038    0.1578   -0.7452 H   0  0  0  0  0  0  0  0  0  0  0  0
    5.3506    2.0988   -1.2406 O   0  0  0  0  0  0  0  0  0  0  0  0
    4.0887    0.4901   -2.4882 C   0  0  0  0  0  0  0  0  0  0  0  0
    3.6458    0.1315   -3.5617 C   0  0  0  0  0  0  0  0  0  0  0  0
    3.0315   -0.3226   -4.7722 C   0  0  0  0  0  0  0  0  0  0  0  0
    1.6988   -0.7869   -4.7314 C   0  0  0  0  0  0  0  0  0  0  0  0
    1.0796   -1.2375   -5.8969 C   0  0  0  0  0  0  0  0  0  0  0  0
    1.7716   -1.2295   -7.1134 C   0  0  0  0  0  0  0  0  0  0  0  0
    3.0920   -0.7698   -7.1613 C   0  0  0  0  0  0  0  0  0  0  0  0
    3.7225   -0.3201   -6.0007 C   0  0  0  0  0  0  0  0  0  0  0  0
    3.2905   -1.9548    2.4771 H   0  0  0  0  0  0  0  0  0  0  0  0
    2.7704   -0.2912    2.7958 H   0  0  0  0  0  0  0  0  0  0  0  0
    5.2234   -0.9979    1.1055 H   0  0  0  0  0  0  0  0  0  0  0  0
    5.3288   -0.8519    2.8516 H   0  0  0  0  0  0  0  0  0  0  0  0
    5.9149    1.2728    1.3515 H   0  0  0  0  0  0  0  0  0  0  0  0
    5.0598    1.4798    2.8741 H   0  0  0  0  0  0  0  0  0  0  0  0
    4.1355    2.8101    0.9478 H   0  0  0  0  0  0  0  0  0  0  0  0
    2.9436    1.8575    1.8193 H   0  0  0  0  0  0  0  0  0  0  0  0
    4.9180    2.7184   -1.8452 H   0  0  0  0  0  0  0  0  0  0  0  0
    1.1721   -0.7870   -3.7745 H   0  0  0  0  0  0  0  0  0  0  0  0
    0.0483   -1.5972   -5.8562 H   0  0  0  0  0  0  0  0  0  0  0  0
    1.2818   -1.5823   -8.0247 H   0  0  0  0  0  0  0  0  0  0  0  0
    3.6352   -0.7633   -8.1098 H   0  0  0  0  0  0  0  0  0  0  0  0
    4.7542    0.0365   -6.0338 H   0  0  0  0  0  0  0  0  0  0  0  0
  1  2  2  0
  2  3  1  0
  2  8  1  0
  3  4  1  0
  4  5  1  0
  4 21  1  0
  4 22  1  0
  5  6  1  0
  5 23  1  0
  5 24  1  0
  6  7  1  0
  6 25  1  0
  6 26  1  0
  7  8  1  0
  7 27  1  0
  7 28  1  0
  8  9  1  6
  8 10  1  0
 10 11  1  1
 10 12  1  0
 10 13  1  0
 12 29  1  0
 13 14  3  0
 14 15  1  0
 15 16  2  0
 15 20  1  0
 16 17  1  0
 16 30  1  0
 17 18  2  0
 17 31  1  0
 18 19  1  0
 18 32  1  0
 19 20  2  0
 19 33  1  0
 20 34  1  0
M  END

