
     RDKit          3D

 56 58  0  0  0  0  0  0  0  0999 V2000
    1.2053   -1.3993    1.2334 C   0  0  0  0  0  0  0  0  0  0  0  0
    2.6500   -1.4249    1.7313 C   0  0  0  0  0  0  0  0  0  0  0  0
    3.2810   -0.1011    1.7540 N   0  0  0  0  0  0  0  0  0  0  0  0
    2.7384    0.8256    2.7144 C   0  0  0  0  0  0  0  0  0  0  0  0
    2.9664    0.5000    4.2019 C   0  0  0  0  0  0  0  0  0  0  0  0
    3.5805   -0.4452    4.6153 O   0  0  0  0  0  0  0  0  0  0  0  0
    2.4135    1.3867    5.0641 O   0  0  0  0  0  0  0  0  0  0  0  0
    4.7352   -0.1266    1.7075 C   0  0  1  0  0  0  0  0  0  0  0  0
    5.3941   -0.7330    0.4408 C   0  0  0  0  0  0  0  0  0  0  0  0
    6.4140    0.4342    0.4395 C   0  0  2  0  0  0  0  0  0  0  0  0
    7.7044    0.0600    0.9925 N   0  0  0  0  0  0  0  0  0  0  0  0
    8.7312    0.9892    0.9765 C   0  0  0  0  0  0  0  0  0  0  0  0
    8.6082    2.0822    0.4442 O   0  0  0  0  0  0  0  0  0  0  0  0
    9.9208    0.5977    1.5848 N   0  0  0  0  0  0  0  0  0  0  0  0
   10.2765   -0.7752    1.8954 C   0  0  0  0  0  0  0  0  0  0  0  0
   11.5963   -1.1425    1.2252 C   0  0  0  0  0  0  0  0  0  0  0  0
   12.6038   -0.1592    1.5691 N   0  0  0  0  0  0  0  0  0  0  0  0
   12.3780    1.1707    1.7815 C   0  0  0  0  0  0  0  0  0  0  0  0
   13.2906    1.9588    1.9536 O   0  0  0  0  0  0  0  0  0  0  0  0
   10.9170    1.6599    1.7777 C   0  0  2  0  0  0  0  0  0  0  0  0
   10.6345    2.5374    3.0012 C   0  0  0  0  0  0  0  0  0  0  0  0
   10.1745    1.9493    4.1869 C   0  0  0  0  0  0  0  0  0  0  0  0
    9.9147    2.7134    5.3267 C   0  0  0  0  0  0  0  0  0  0  0  0
   10.1144    4.0938    5.2840 C   0  0  0  0  0  0  0  0  0  0  0  0
   10.5661    4.6884    4.1041 C   0  0  0  0  0  0  0  0  0  0  0  0
   10.8339    3.9353    2.9501 C   0  0  0  0  0  0  0  0  0  0  0  0
   11.3081    4.6233    1.6931 C   0  0  0  0  0  0  0  0  0  0  0  0
    5.4593    1.2096    1.3947 C   0  0  0  0  0  0  0  0  0  0  0  0
    0.8195   -2.4267    1.1394 H   0  0  0  0  0  0  0  0  0  0  0  0
    1.1394   -0.9106    0.2484 H   0  0  0  0  0  0  0  0  0  0  0  0
    0.5289   -0.8679    1.9224 H   0  0  0  0  0  0  0  0  0  0  0  0
    3.2411   -2.0470    1.0414 H   0  0  0  0  0  0  0  0  0  0  0  0
    2.7038   -1.9239    2.7193 H   0  0  0  0  0  0  0  0  0  0  0  0
    1.6490    0.9318    2.5626 H   0  0  0  0  0  0  0  0  0  0  0  0
    3.1601    1.8318    2.5360 H   0  0  0  0  0  0  0  0  0  0  0  0
    1.9593    2.0945    4.5836 H   0  0  0  0  0  0  0  0  0  0  0  0
    5.1644   -0.5895    2.6187 H   0  0  0  0  0  0  0  0  0  0  0  0
    4.7185   -0.6682   -0.4247 H   0  0  0  0  0  0  0  0  0  0  0  0
    5.8044   -1.7533    0.5038 H   0  0  0  0  0  0  0  0  0  0  0  0
    6.6005    0.9264   -0.5227 H   0  0  0  0  0  0  0  0  0  0  0  0
    7.6844   -0.5970    1.7644 H   0  0  0  0  0  0  0  0  0  0  0  0
    9.4972   -1.4473    1.5158 H   0  0  0  0  0  0  0  0  0  0  0  0
   10.3658   -0.9368    2.9866 H   0  0  0  0  0  0  0  0  0  0  0  0
   11.4473   -1.2071    0.1300 H   0  0  0  0  0  0  0  0  0  0  0  0
   11.9257   -2.1350    1.5733 H   0  0  0  0  0  0  0  0  0  0  0  0
   13.5869   -0.4040    1.4925 H   0  0  0  0  0  0  0  0  0  0  0  0
   10.8532    2.2999    0.8869 H   0  0  0  0  0  0  0  0  0  0  0  0
   10.0061    0.8707    4.2236 H   0  0  0  0  0  0  0  0  0  0  0  0
    9.5584    2.2305    6.2401 H   0  0  0  0  0  0  0  0  0  0  0  0
    9.9159    4.7093    6.1654 H   0  0  0  0  0  0  0  0  0  0  0  0
   10.7143    5.7715    4.0702 H   0  0  0  0  0  0  0  0  0  0  0  0
   11.3908    5.7092    1.8460 H   0  0  0  0  0  0  0  0  0  0  0  0
   10.6014    4.4536    0.8627 H   0  0  0  0  0  0  0  0  0  0  0  0
   12.2922    4.2391    1.3850 H   0  0  0  0  0  0  0  0  0  0  0  0
    4.8085    1.8895    0.8236 H   0  0  0  0  0  0  0  0  0  0  0  0
    5.9274    1.7598    2.2241 H   0  0  0  0  0  0  0  0  0  0  0  0
  1  2  1  0
  1 29  1  0
  1 30  1  0
  1 31  1  0
  2  3  1  0
  2 32  1  0
  2 33  1  0
  3  4  1  0
  3  8  1  0
  4  5  1  0
  4 34  1  0
  4 35  1  0
  5  6  2  0
  5  7  1  0
  7 36  1  0
  8  9  1  0
  8 28  1  0
  8 37  1  1
  9 10  1  0
  9 38  1  0
  9 39  1  0
 10 11  1  0
 10 28  1  0
 10 40  1  6
 11 12  1  0
 11 41  1  0
 12 13  2  0
 12 14  1  0
 14 15  1  0
 14 20  1  0
 15 16  1  0
 15 42  1  0
 15 43  1  0
 16 17  1  0
 16 44  1  0
 16 45  1  0
 17 18  1  0
 17 46  1  0
 18 19  2  0
 18 20  1  0
 20 21  1  0
 20 47  1  6
 21 22  2  0
 21 26  1  0
 22 23  1  0
 22 48  1  0
 23 24  2  0
 23 49  1  0
 24 25  1  0
 24 50  1  0
 25 26  2  0
 25 51  1  0
 26 27  1  0
 27 52  1  0
 27 53  1  0
 27 54  1  0
 28 55  1  0
 28 56  1  0
M  END

