
     RDKit          3D

 91 95  0  0  0  0  0  0  0  0999 V2000
    3.4340   -3.4002    8.0201 C   0  0  0  0  0  0  0  0  0  0  0  0
    2.2285   -3.0594    7.3321 O   0  0  0  0  0  0  0  0  0  0  0  0
    2.0732   -1.7307    7.0223 C   0  0  0  0  0  0  0  0  0  0  0  0
    1.3301   -0.8680    7.8346 C   0  0  0  0  0  0  0  0  0  0  0  0
    0.8033   -1.3265    9.1603 C   0  0  0  0  0  0  0  0  0  0  0  0
    1.4976   -1.9473    9.9466 O   0  0  0  0  0  0  0  0  0  0  0  0
   -0.5959   -0.9439    9.5747 C   0  0  0  0  0  0  0  0  0  0  0  0
   -0.8532   -0.7708   10.9248 C   0  0  0  0  0  0  0  0  0  0  0  0
   -2.1477   -0.4304   11.3926 C   0  0  0  0  0  0  0  0  0  0  0  0
   -3.1858   -0.2914   10.5071 C   0  0  0  0  0  0  0  0  0  0  0  0
   -2.9535   -0.4895    9.1732 N   0  0  0  0  0  0  0  0  0  0  0  0
   -3.7979   -0.4553    8.0803 C   0  0  0  0  0  0  0  0  0  0  0  0
   -5.6231   -0.0575    8.2459 Br  0  0  0  0  0  0  0  0  0  0  0  0
   -3.0266   -0.7650    6.9659 C   0  0  0  0  0  0  0  0  0  0  0  0
   -3.4614   -0.8630    5.5410 C   0  0  0  0  0  0  0  0  0  0  0  0
   -1.7366   -0.9869    7.3412 N   0  0  0  0  0  0  0  0  0  0  0  0
   -1.6780   -0.8191    8.6528 C   0  0  0  0  0  0  0  0  0  0  0  0
    1.1292    0.4644    7.4219 C   0  0  0  0  0  0  0  0  0  0  0  0
    1.6832    0.9113    6.2338 C   0  0  0  0  0  0  0  0  0  0  0  0
    2.4409    0.0621    5.4059 C   0  0  0  0  0  0  0  0  0  0  0  0
    2.8629    0.6289    4.0787 C   0  0  0  0  0  0  0  0  0  0  0  0
    2.1123    1.3564    3.4466 O   0  0  0  0  0  0  0  0  0  0  0  0
    4.1109    0.2805    3.5637 N   0  0  0  0  0  0  0  0  0  0  0  0
    4.4031    0.7598    2.2099 C   0  0  0  0  0  0  0  0  0  0  0  0
    5.2350    0.0038    4.3986 C   0  0  0  0  0  0  0  0  0  0  0  0
    5.5610    0.8257    5.4786 C   0  0  0  0  0  0  0  0  0  0  0  0
    6.6715    0.5610    6.2866 C   0  0  0  0  0  0  0  0  0  0  0  0
    7.5023   -0.5294    6.0140 C   0  0  0  0  0  0  0  0  0  0  0  0
    8.7151   -0.8293    6.8613 C   0  0  0  0  0  0  0  0  0  0  0  0
    7.1892   -1.3563    4.9195 C   0  0  0  0  0  0  0  0  0  0  0  0
    6.0696   -1.1085    4.1197 C   0  0  0  0  0  0  0  0  0  0  0  0
    5.7028   -1.8828    3.0620 O   0  0  0  0  0  0  0  0  0  0  0  0
    6.4609   -3.0409    2.7382 C   0  0  0  0  0  0  0  0  0  0  0  0
    5.8522   -3.7139    1.5167 C   0  0  0  0  0  0  0  0  0  0  0  0
    4.4226   -4.2307    1.7161 C   0  0  0  0  0  0  0  0  0  0  0  0
    3.8160   -4.9268    0.4906 C   0  0  0  0  0  0  0  0  0  0  0  0
    4.4619   -6.2692    0.1414 C   0  0  0  0  0  0  0  0  0  0  0  0
    3.7882   -6.9410   -1.0595 C   0  0  0  0  0  0  0  0  0  0  0  0
    2.8501   -6.4057   -1.6316 O   0  0  0  0  0  0  0  0  0  0  0  0
    4.2791   -8.1628   -1.4629 N   0  0  0  0  0  0  0  0  0  0  0  0
    5.4162   -8.8705   -0.8845 C   0  0  0  0  0  0  0  0  0  0  0  0
    5.0376  -10.3377   -0.5993 C   0  0  0  0  0  0  0  0  0  0  0  0
    4.4720  -11.0311   -1.7460 N   0  0  0  0  0  0  0  0  0  0  0  0
    5.4348  -11.5175   -2.7165 C   0  0  0  0  0  0  0  0  0  0  0  0
    3.3496  -10.2802   -2.3004 C   0  0  0  0  0  0  0  0  0  0  0  0
    3.6922   -8.8199   -2.6313 C   0  0  0  0  0  0  0  0  0  0  0  0
    2.6098   -1.2935    5.7785 C   0  0  0  0  0  0  0  0  0  0  0  0
    3.2650   -2.2325    5.0147 N   0  0  0  0  0  0  0  0  0  0  0  0
    3.4273   -4.4933    8.1401 H   0  0  0  0  0  0  0  0  0  0  0  0
    3.4531   -2.9243    9.0112 H   0  0  0  0  0  0  0  0  0  0  0  0
    4.3233   -3.1031    7.4373 H   0  0  0  0  0  0  0  0  0  0  0  0
   -0.0270   -0.9017   11.6257 H   0  0  0  0  0  0  0  0  0  0  0  0
   -2.3333   -0.2762   12.4563 H   0  0  0  0  0  0  0  0  0  0  0  0
   -4.2071   -0.0340   10.7895 H   0  0  0  0  0  0  0  0  0  0  0  0
   -4.5280   -0.6272    5.4255 H   0  0  0  0  0  0  0  0  0  0  0  0
   -3.2797   -1.8791    5.1552 H   0  0  0  0  0  0  0  0  0  0  0  0
   -2.8733   -0.1724    4.9159 H   0  0  0  0  0  0  0  0  0  0  0  0
    0.5395    1.1417    8.0421 H   0  0  0  0  0  0  0  0  0  0  0  0
    1.5222    1.9380    5.8999 H   0  0  0  0  0  0  0  0  0  0  0  0
    3.5028    0.6673    1.5902 H   0  0  0  0  0  0  0  0  0  0  0  0
    5.2126    0.1563    1.7824 H   0  0  0  0  0  0  0  0  0  0  0  0
    4.7014    1.8227    2.2171 H   0  0  0  0  0  0  0  0  0  0  0  0
    4.9288    1.6905    5.6886 H   0  0  0  0  0  0  0  0  0  0  0  0
    6.8946    1.2201    7.1290 H   0  0  0  0  0  0  0  0  0  0  0  0
    8.8202   -0.1077    7.6843 H   0  0  0  0  0  0  0  0  0  0  0  0
    9.6413   -0.7947    6.2630 H   0  0  0  0  0  0  0  0  0  0  0  0
    8.6562   -1.8380    7.3037 H   0  0  0  0  0  0  0  0  0  0  0  0
    7.8315   -2.2121    4.7091 H   0  0  0  0  0  0  0  0  0  0  0  0
    6.4665   -3.7330    3.6019 H   0  0  0  0  0  0  0  0  0  0  0  0
    7.5087   -2.7552    2.5320 H   0  0  0  0  0  0  0  0  0  0  0  0
    6.5277   -4.5433    1.2437 H   0  0  0  0  0  0  0  0  0  0  0  0
    5.8761   -3.0047    0.6707 H   0  0  0  0  0  0  0  0  0  0  0  0
    3.7775   -3.3789    1.9857 H   0  0  0  0  0  0  0  0  0  0  0  0
    4.4013   -4.9180    2.5836 H   0  0  0  0  0  0  0  0  0  0  0  0
    3.8698   -4.2611   -0.3866 H   0  0  0  0  0  0  0  0  0  0  0  0
    2.7407   -5.0927    0.6580 H   0  0  0  0  0  0  0  0  0  0  0  0
    4.4130   -6.9462    1.0133 H   0  0  0  0  0  0  0  0  0  0  0  0
    5.5362   -6.1453   -0.0813 H   0  0  0  0  0  0  0  0  0  0  0  0
    5.7381   -8.3870    0.0454 H   0  0  0  0  0  0  0  0  0  0  0  0
    6.2747   -8.8307   -1.5844 H   0  0  0  0  0  0  0  0  0  0  0  0
    4.2900  -10.3440    0.2156 H   0  0  0  0  0  0  0  0  0  0  0  0
    5.9225  -10.8871   -0.2381 H   0  0  0  0  0  0  0  0  0  0  0  0
    6.1711  -12.1656   -2.2136 H   0  0  0  0  0  0  0  0  0  0  0  0
    6.0048  -10.7342   -3.2641 H   0  0  0  0  0  0  0  0  0  0  0  0
    4.9179  -12.1309   -3.4722 H   0  0  0  0  0  0  0  0  0  0  0  0
    2.5290  -10.2859   -1.5600 H   0  0  0  0  0  0  0  0  0  0  0  0
    2.9792  -10.7935   -3.2024 H   0  0  0  0  0  0  0  0  0  0  0  0
    2.7995   -8.2508   -2.9191 H   0  0  0  0  0  0  0  0  0  0  0  0
    4.4075   -8.7740   -3.4754 H   0  0  0  0  0  0  0  0  0  0  0  0
    3.4987   -2.0047    4.0559 H   0  0  0  0  0  0  0  0  0  0  0  0
    2.9978   -3.1924    5.2017 H   0  0  0  0  0  0  0  0  0  0  0  0
  1  2  1  0
  1 49  1  0
  1 50  1  0
  1 51  1  0
  2  3  1  0
  3  4  2  0
  3 47  1  0
  4  5  1  0
  4 18  1  0
  5  6  2  0
  5  7  1  0
  7  8  2  0
  7 17  1  0
  8  9  1  0
  8 52  1  0
  9 10  2  0
  9 53  1  0
 10 11  1  0
 10 54  1  0
 11 12  1  0
 11 17  1  0
 12 13  1  0
 12 14  2  0
 14 15  1  0
 14 16  1  0
 15 55  1  0
 15 56  1  0
 15 57  1  0
 16 17  2  0
 18 19  2  0
 18 58  1  0
 19 20  1  0
 19 59  1  0
 20 21  1  0
 20 47  2  0
 21 22  2  0
 21 23  1  0
 23 24  1  0
 23 25  1  0
 24 60  1  0
 24 61  1  0
 24 62  1  0
 25 26  2  0
 25 31  1  0
 26 27  1  0
 26 63  1  0
 27 28  2  0
 27 64  1  0
 28 29  1  0
 28 30  1  0
 29 65  1  0
 29 66  1  0
 29 67  1  0
 30 31  2  0
 30 68  1  0
 31 32  1  0
 32 33  1  0
 33 34  1  0
 33 69  1  0
 33 70  1  0
 34 35  1  0
 34 71  1  0
 34 72  1  0
 35 36  1  0
 35 73  1  0
 35 74  1  0
 36 37  1  0
 36 75  1  0
 36 76  1  0
 37 38  1  0
 37 77  1  0
 37 78  1  0
 38 39  2  0
 38 40  1  0
 40 41  1  0
 40 46  1  0
 41 42  1  0
 41 79  1  0
 41 80  1  0
 42 43  1  0
 42 81  1  0
 42 82  1  0
 43 44  1  0
 43 45  1  0
 44 83  1  0
 44 84  1  0
 44 85  1  0
 45 46  1  0
 45 86  1  0
 45 87  1  0
 46 88  1  0
 46 89  1  0
 47 48  1  0
 48 90  1  0
 48 91  1  0
M  END

