
     RDKit          3D

 36 37  0  0  0  0  0  0  0  0999 V2000
    2.0149    3.8697    1.5330 C   0  0  0  0  0  0  0  0  0  0  0  0
    3.1779    2.9210    1.7941 C   0  0  0  0  0  0  0  0  0  0  0  0
    3.2712    2.2981    2.8326 O   0  0  0  0  0  0  0  0  0  0  0  0
    4.1006    2.8632    0.7690 N   0  0  0  0  0  0  0  0  0  0  0  0
    5.2963    2.1227    0.6809 C   0  0  0  0  0  0  0  0  0  0  0  0
    6.0049    2.1961   -0.5318 C   0  0  0  0  0  0  0  0  0  0  0  0
    7.1979    1.4901   -0.6873 C   0  0  0  0  0  0  0  0  0  0  0  0
    7.6669    0.7218    0.3632 C   0  0  0  0  0  0  0  0  0  0  0  0
    8.8230    0.0229    0.2307 F   0  0  0  0  0  0  0  0  0  0  0  0
    6.9843    0.6299    1.5902 C   0  0  0  0  0  0  0  0  0  0  0  0
    7.5683   -0.1932    2.5589 N   0  0  0  0  0  0  0  0  0  0  0  0
    7.1717   -0.3629    3.8796 C   0  0  0  0  0  0  0  0  0  0  0  0
    6.2720    0.2797    4.3923 O   0  0  0  0  0  0  0  0  0  0  0  0
    7.8767   -1.3335    4.5795 N   0  0  0  0  0  0  0  0  0  0  0  0
    7.7338   -1.3642    6.0335 C   0  0  0  0  0  0  0  0  0  0  0  0
    7.6769   -2.8036    6.5285 C   0  0  0  0  0  0  0  0  0  0  0  0
    8.7940   -3.5455    6.0708 O   0  0  0  0  0  0  0  0  0  0  0  0
    8.8438   -3.5814    4.6649 C   0  0  0  0  0  0  0  0  0  0  0  0
    8.9434   -2.1767    4.0576 C   0  0  0  0  0  0  0  0  0  0  0  0
    5.7838    1.3419    1.7448 C   0  0  0  0  0  0  0  0  0  0  0  0
    2.1489    4.7725    2.1505 H   0  0  0  0  0  0  0  0  0  0  0  0
    1.0886    3.3817    1.8668 H   0  0  0  0  0  0  0  0  0  0  0  0
    1.9080    4.1750    0.4812 H   0  0  0  0  0  0  0  0  0  0  0  0
    3.8902    3.4217   -0.0486 H   0  0  0  0  0  0  0  0  0  0  0  0
    5.6249    2.8045   -1.3567 H   0  0  0  0  0  0  0  0  0  0  0  0
    7.7685    1.5270   -1.6170 H   0  0  0  0  0  0  0  0  0  0  0  0
    8.4376   -0.6140    2.2600 H   0  0  0  0  0  0  0  0  0  0  0  0
    6.8210   -0.8146    6.2955 H   0  0  0  0  0  0  0  0  0  0  0  0
    8.5959   -0.8531    6.5066 H   0  0  0  0  0  0  0  0  0  0  0  0
    6.7359   -3.2805    6.1855 H   0  0  0  0  0  0  0  0  0  0  0  0
    7.7006   -2.8328    7.6281 H   0  0  0  0  0  0  0  0  0  0  0  0
    7.9404   -4.0828    4.2588 H   0  0  0  0  0  0  0  0  0  0  0  0
    9.7266   -4.1757    4.3832 H   0  0  0  0  0  0  0  0  0  0  0  0
    8.8587   -2.2814    2.9665 H   0  0  0  0  0  0  0  0  0  0  0  0
    9.9392   -1.7466    4.2887 H   0  0  0  0  0  0  0  0  0  0  0  0
    5.2427    1.2920    2.6839 H   0  0  0  0  0  0  0  0  0  0  0  0
  1  2  1  0
  1 21  1  0
  1 22  1  0
  1 23  1  0
  2  3  2  0
  2  4  1  0
  4  5  1  0
  4 24  1  0
  5  6  2  0
  5 20  1  0
  6  7  1  0
  6 25  1  0
  7  8  2  0
  7 26  1  0
  8  9  1  0
  8 10  1  0
 10 11  1  0
 10 20  2  0
 11 12  1  0
 11 27  1  0
 12 13  2  0
 12 14  1  0
 14 15  1  0
 14 19  1  0
 15 16  1  0
 15 28  1  0
 15 29  1  0
 16 17  1  0
 16 30  1  0
 16 31  1  0
 17 18  1  0
 18 19  1  0
 18 32  1  0
 18 33  1  0
 19 34  1  0
 19 35  1  0
 20 36  1  0
M  END

