
     RDKit          3D

 40 42  0  0  0  0  0  0  0  0999 V2000
    1.5380    1.2563    0.0356 C   0  0  0  0  0  0  0  0  0  0  0  0
    2.8126    0.4824    0.2568 C   0  0  0  0  0  0  0  0  0  0  0  0
    4.0421    1.1493    0.4920 C   0  0  0  0  0  0  0  0  0  0  0  0
    4.1353    2.6540    0.5295 C   0  0  0  0  0  0  0  0  0  0  0  0
    4.0391    3.4133   -1.1609 S   0  0  0  0  0  0  0  0  0  0  0  0
    2.8840    4.7096   -0.8488 C   0  0  0  0  0  0  0  0  0  0  0  0
    2.2116    4.9200    0.2532 N   0  0  0  0  0  0  0  0  0  0  0  0
    1.4318    6.0390    0.0000 C   0  0  0  0  0  0  0  0  0  0  0  0
    0.5182    6.7113    0.8239 C   0  0  0  0  0  0  0  0  0  0  0  0
   -0.1381    7.8268    0.3032 C   0  0  0  0  0  0  0  0  0  0  0  0
    0.1028    8.2742   -1.0116 C   0  0  0  0  0  0  0  0  0  0  0  0
    1.0088    7.6192   -1.8494 C   0  0  0  0  0  0  0  0  0  0  0  0
    1.6620    6.5034   -1.3211 C   0  0  0  0  0  0  0  0  0  0  0  0
    2.6032    5.6254   -1.8390 N   0  0  0  0  0  0  0  0  0  0  0  0
    3.0202    5.6533   -2.7608 H   0  0  0  0  0  0  0  0  0  0  0  0
    5.2125    0.4081    0.7135 C   0  0  0  0  0  0  0  0  0  0  0  0
    5.1992   -0.9862    0.7081 C   0  0  0  0  0  0  0  0  0  0  0  0
    4.0038   -1.6552    0.4565 C   0  0  0  0  0  0  0  0  0  0  0  0
    2.8226   -0.9328    0.2256 C   0  0  0  0  0  0  0  0  0  0  0  0
    1.3191   -1.8874   -0.0263 S   0  0  0  0  0  0  0  0  0  0  0  0
    0.9093   -1.5328   -1.7912 C   0  0  0  0  0  0  0  0  0  0  0  0
    0.4432   -2.7403   -2.6191 C   0  0  0  0  0  0  0  0  0  0  0  0
    0.9022   -3.9551   -2.2226 N   0  0  0  0  0  0  0  0  0  0  0  0
   -0.2554   -2.5651   -3.5993 O   0  0  0  0  0  0  0  0  0  0  0  0
    1.5301    2.2144    0.5724 H   0  0  0  0  0  0  0  0  0  0  0  0
    0.6683    0.6643    0.3538 H   0  0  0  0  0  0  0  0  0  0  0  0
    1.4030    1.4971   -1.0329 H   0  0  0  0  0  0  0  0  0  0  0  0
    5.0926    2.9693    0.9656 H   0  0  0  0  0  0  0  0  0  0  0  0
    3.3245    3.1343    1.0953 H   0  0  0  0  0  0  0  0  0  0  0  0
    0.3347    6.3605    1.8414 H   0  0  0  0  0  0  0  0  0  0  0  0
   -0.8556    8.3676    0.9253 H   0  0  0  0  0  0  0  0  0  0  0  0
   -0.4304    9.1520   -1.3847 H   0  0  0  0  0  0  0  0  0  0  0  0
    1.1928    7.9681   -2.8681 H   0  0  0  0  0  0  0  0  0  0  0  0
    6.1500    0.9397    0.8991 H   0  0  0  0  0  0  0  0  0  0  0  0
    6.1181   -1.5489    0.8891 H   0  0  0  0  0  0  0  0  0  0  0  0
    3.9731   -2.7463    0.4319 H   0  0  0  0  0  0  0  0  0  0  0  0
    1.8133   -1.1299   -2.2733 H   0  0  0  0  0  0  0  0  0  0  0  0
    0.1193   -0.7739   -1.8677 H   0  0  0  0  0  0  0  0  0  0  0  0
    1.4226   -4.0566   -1.3588 H   0  0  0  0  0  0  0  0  0  0  0  0
    0.6107   -4.7727   -2.7447 H   0  0  0  0  0  0  0  0  0  0  0  0
  1  2  1  0
  1 25  1  0
  1 26  1  0
  1 27  1  0
  2  3  2  0
  2 19  1  0
  3  4  1  0
  3 16  1  0
  4  5  1  0
  4 28  1  0
  4 29  1  0
  5  6  1  0
  6  7  2  0
  6 14  1  0
  7  8  1  0
  8  9  2  0
  8 13  1  0
  9 10  1  0
  9 30  1  0
 10 11  2  0
 10 31  1  0
 11 12  1  0
 11 32  1  0
 12 13  2  0
 12 33  1  0
 13 14  1  0
 14 15  1  0
 16 17  2  0
 16 34  1  0
 17 18  1  0
 17 35  1  0
 18 19  2  0
 18 36  1  0
 19 20  1  0
 20 21  1  0
 21 22  1  0
 21 37  1  0
 21 38  1  0
 22 23  1  0
 22 24  2  0
 23 39  1  0
 23 40  1  0
M  END

