
     RDKit          3D

 61 63  0  0  0  0  0  0  0  0999 V2000
    1.5852    0.5758    0.0057 C   0  0  0  0  0  0  0  0  0  0  0  0
    2.7180   -0.3094   -0.0448 N   0  0  0  0  0  0  0  0  0  0  0  0
    2.9104   -1.2115    0.8461 C   0  0  0  0  0  0  0  0  0  0  0  0
    2.0606   -1.5706    1.9022 N   0  0  0  0  0  0  0  0  0  0  0  0
    0.6510   -1.8871    1.6822 C   0  0  0  0  0  0  0  0  0  0  0  0
    0.3791   -2.9808    0.6337 C   0  0  0  0  0  0  0  0  0  0  0  0
    1.2514   -4.2492    0.7790 C   0  0  0  0  0  0  0  0  0  0  0  0
    1.2532   -4.8415    2.1482 C   0  0  0  0  0  0  0  0  0  0  0  0
    1.9372   -4.4589    3.1904 N   0  0  0  0  0  0  0  0  0  0  0  0
    1.5348   -5.3435    4.1692 C   0  0  0  0  0  0  0  0  0  0  0  0
    2.0773   -5.3427    5.5708 C   0  0  1  0  0  0  0  0  0  0  0  0
    3.5442   -5.8083    5.5750 C   0  0  0  0  0  0  0  0  0  0  0  0
    1.9122   -3.9631    6.2262 C   0  0  0  0  0  0  0  0  0  0  0  0
    0.6512   -6.2167    3.7566 N   0  0  0  0  0  0  0  0  0  0  0  0
    0.4610   -5.8851    2.4138 O   0  0  0  0  0  0  0  0  0  0  0  0
    4.0876   -1.9548    0.8060 N   0  0  0  0  0  0  0  0  0  0  0  0
    5.2114   -1.5086    0.0009 C   0  0  1  0  0  0  0  0  0  0  0  0
    5.9255   -0.2228    0.5220 C   0  0  0  0  0  0  0  0  0  0  0  0
    7.4161   -0.5770    0.5208 C   0  0  0  0  0  0  0  0  0  0  0  0
    7.4036   -2.0086    0.8015 N   0  0  0  0  0  0  0  0  0  0  0  0
    8.6008   -2.7143    0.9737 C   0  0  0  0  0  0  0  0  0  0  0  0
    9.8613   -2.1938    0.6201 C   0  0  0  0  0  0  0  0  0  0  0  0
   11.0329   -2.9265    0.8307 C   0  0  0  0  0  0  0  0  0  0  0  0
   10.9836   -4.2035    1.3930 C   0  0  0  0  0  0  0  0  0  0  0  0
    9.7468   -4.7335    1.7738 C   0  0  0  0  0  0  0  0  0  0  0  0
    8.5843   -3.9947    1.5802 C   0  0  0  0  0  0  0  0  0  0  0  0
    7.3716   -4.5408    1.9969 O   0  0  0  0  0  0  0  0  0  0  0  0
    6.8241   -4.0162    3.1307 C   0  0  1  0  0  0  0  0  0  0  0  0
    5.4789   -3.9303    2.9480 F   0  0  0  0  0  0  0  0  0  0  0  0
    7.0122   -4.8553    4.1743 F   0  0  0  0  0  0  0  0  0  0  0  0
    6.3289   -2.5753   -0.0296 C   0  0  0  0  0  0  0  0  0  0  0  0
    1.8193    1.5016   -0.5467 H   0  0  0  0  0  0  0  0  0  0  0  0
    1.2961    0.8694    1.0349 H   0  0  0  0  0  0  0  0  0  0  0  0
    0.6812    0.1541   -0.4801 H   0  0  0  0  0  0  0  0  0  0  0  0
    2.4728   -2.2529    2.5366 H   0  0  0  0  0  0  0  0  0  0  0  0
    0.0857   -0.9867    1.4035 H   0  0  0  0  0  0  0  0  0  0  0  0
    0.2543   -2.2018    2.6597 H   0  0  0  0  0  0  0  0  0  0  0  0
    0.5619   -2.5765   -0.3755 H   0  0  0  0  0  0  0  0  0  0  0  0
   -0.6900   -3.2507    0.6789 H   0  0  0  0  0  0  0  0  0  0  0  0
    2.2941   -3.9981    0.5333 H   0  0  0  0  0  0  0  0  0  0  0  0
    0.9119   -5.0150    0.0664 H   0  0  0  0  0  0  0  0  0  0  0  0
    1.4734   -6.0775    6.1273 H   0  0  0  0  0  0  0  0  0  0  0  0
    4.1754   -5.1435    4.9666 H   0  0  0  0  0  0  0  0  0  0  0  0
    3.6379   -6.8273    5.1688 H   0  0  0  0  0  0  0  0  0  0  0  0
    3.9404   -5.8143    6.6029 H   0  0  0  0  0  0  0  0  0  0  0  0
    2.4843   -3.1981    5.6783 H   0  0  0  0  0  0  0  0  0  0  0  0
    2.2808   -3.9866    7.2636 H   0  0  0  0  0  0  0  0  0  0  0  0
    0.8567   -3.6492    6.2477 H   0  0  0  0  0  0  0  0  0  0  0  0
    4.3198   -2.4957    1.6330 H   0  0  0  0  0  0  0  0  0  0  0  0
    4.8182   -1.3264   -1.0075 H   0  0  0  0  0  0  0  0  0  0  0  0
    5.5891   -0.0204    1.5501 H   0  0  0  0  0  0  0  0  0  0  0  0
    5.6899    0.6610   -0.0853 H   0  0  0  0  0  0  0  0  0  0  0  0
    7.9982   -0.0353    1.2827 H   0  0  0  0  0  0  0  0  0  0  0  0
    7.8713   -0.3531   -0.4688 H   0  0  0  0  0  0  0  0  0  0  0  0
    9.9227   -1.2060    0.1621 H   0  0  0  0  0  0  0  0  0  0  0  0
   11.9932   -2.4938    0.5388 H   0  0  0  0  0  0  0  0  0  0  0  0
   11.8980   -4.7798    1.5487 H   0  0  0  0  0  0  0  0  0  0  0  0
    9.6627   -5.7164    2.2418 H   0  0  0  0  0  0  0  0  0  0  0  0
    7.2224   -3.0220    3.3873 H   0  0  0  0  0  0  0  0  0  0  0  0
    5.9936   -3.5497    0.3461 H   0  0  0  0  0  0  0  0  0  0  0  0
    6.6876   -2.7223   -1.0683 H   0  0  0  0  0  0  0  0  0  0  0  0
  1  2  1  0
  1 32  1  0
  1 33  1  0
  1 34  1  0
  2  3  2  0
  3  4  1  0
  3 16  1  0
  4  5  1  0
  4 35  1  0
  5  6  1  0
  5 36  1  0
  5 37  1  0
  6  7  1  0
  6 38  1  0
  6 39  1  0
  7  8  1  0
  7 40  1  0
  7 41  1  0
  8  9  2  0
  8 15  1  0
  9 10  1  0
 10 11  1  0
 10 14  2  0
 11 12  1  0
 11 13  1  0
 11 42  1  1
 12 43  1  0
 12 44  1  0
 12 45  1  0
 13 46  1  0
 13 47  1  0
 13 48  1  0
 14 15  1  0
 16 17  1  0
 16 49  1  0
 17 18  1  0
 17 31  1  0
 17 50  1  6
 18 19  1  0
 18 51  1  0
 18 52  1  0
 19 20  1  0
 19 53  1  0
 19 54  1  0
 20 21  1  0
 20 31  1  0
 21 22  2  0
 21 26  1  0
 22 23  1  0
 22 55  1  0
 23 24  2  0
 23 56  1  0
 24 25  1  0
 24 57  1  0
 25 26  2  0
 25 58  1  0
 26 27  1  0
 27 28  1  0
 28 29  1  0
 28 30  1  0
 28 59  1  1
 31 60  1  0
 31 61  1  0
M  END

