
     RDKit          3D

 30 30  0  0  0  0  0  0  0  0999 V2000
    2.4794   -0.5713    0.7530 C   0  0  0  0  0  0  0  0  0  0  0  0
    2.5624   -0.4474   -0.6587 O   0  0  0  0  0  0  0  0  0  0  0  0
    2.9189    0.8725   -1.0219 N   0  0  0  0  0  0  0  0  0  0  0  0
    1.9911    1.3253   -2.0592 C   0  0  0  0  0  0  0  0  0  0  0  0
    0.5858    1.5323   -1.5078 C   0  0  0  0  0  0  0  0  0  0  0  0
   -0.3587    2.1015   -2.5573 C   0  0  0  0  0  0  0  0  0  0  0  0
   -0.0135    2.4708   -3.6457 O   0  0  0  0  0  0  0  0  0  0  0  0
   -1.6555    2.1889   -2.1824 O   0  0  0  0  0  0  0  0  0  0  0  0
    4.3003    0.9902   -1.2875 C   0  0  0  0  0  0  0  0  0  0  0  0
    5.1770   -0.1093   -1.3110 C   0  0  0  0  0  0  0  0  0  0  0  0
    6.5438    0.0663   -1.5128 C   0  0  0  0  0  0  0  0  0  0  0  0
    7.0846    1.3420   -1.7248 C   0  0  0  0  0  0  0  0  0  0  0  0
    8.5658    1.4608   -1.9308 C   0  0  0  0  0  0  0  0  0  0  0  0
    9.3435    0.5932   -1.6322 O   0  0  0  0  0  0  0  0  0  0  0  0
    9.0091    2.6136   -2.4862 O   0  0  0  0  0  0  0  0  0  0  0  0
    6.2219    2.4514   -1.6922 C   0  0  0  0  0  0  0  0  0  0  0  0
    4.8668    2.2684   -1.4683 C   0  0  0  0  0  0  0  0  0  0  0  0
    4.0699    3.3508   -1.4082 F   0  0  0  0  0  0  0  0  0  0  0  0
    2.1768   -1.6115    0.9427 H   0  0  0  0  0  0  0  0  0  0  0  0
    1.7287    0.1172    1.1770 H   0  0  0  0  0  0  0  0  0  0  0  0
    3.4534   -0.3844    1.2380 H   0  0  0  0  0  0  0  0  0  0  0  0
    1.9703    0.5991   -2.8923 H   0  0  0  0  0  0  0  0  0  0  0  0
    2.3659    2.2734   -2.4615 H   0  0  0  0  0  0  0  0  0  0  0  0
    0.6201    2.2306   -0.6522 H   0  0  0  0  0  0  0  0  0  0  0  0
    0.1792    0.5803   -1.1263 H   0  0  0  0  0  0  0  0  0  0  0  0
   -1.7763    1.8479   -1.2848 H   0  0  0  0  0  0  0  0  0  0  0  0
    4.7591   -1.1047   -1.1678 H   0  0  0  0  0  0  0  0  0  0  0  0
    7.2198   -0.7904   -1.5211 H   0  0  0  0  0  0  0  0  0  0  0  0
    8.2684    3.1413   -2.8147 H   0  0  0  0  0  0  0  0  0  0  0  0
    6.5760    3.4810   -1.7881 H   0  0  0  0  0  0  0  0  0  0  0  0
  1  2  1  0
  1 19  1  0
  1 20  1  0
  1 21  1  0
  2  3  1  0
  3  4  1  0
  3  9  1  0
  4  5  1  0
  4 22  1  0
  4 23  1  0
  5  6  1  0
  5 24  1  0
  5 25  1  0
  6  7  2  0
  6  8  1  0
  8 26  1  0
  9 10  2  0
  9 17  1  0
 10 11  1  0
 10 27  1  0
 11 12  2  0
 11 28  1  0
 12 13  1  0
 12 16  1  0
 13 14  2  0
 13 15  1  0
 15 29  1  0
 16 17  2  0
 16 30  1  0
 17 18  1  0
M  END

