
     RDKit          3D

 44 45  0  0  0  0  0  0  0  0999 V2000
    0.7027   -0.0606    0.7450 C   0  0  0  0  0  0  0  0  0  0  0  0
    2.2003   -0.0223    0.4469 C   0  0  1  0  0  0  0  0  0  0  0  0
    2.9916    1.0291    1.2510 C   0  0  0  0  0  0  0  0  0  0  0  0
    4.4389    0.5410    1.1488 C   0  0  0  0  0  0  0  0  0  0  0  0
    4.3176   -0.9826    1.3601 C   0  0  2  0  0  0  0  0  0  0  0  0
    5.5156   -1.7714    0.8325 C   0  0  0  0  0  0  0  0  0  0  0  0
    5.4873   -3.2454    1.2424 C   0  0  0  0  0  0  0  0  0  0  0  0
    4.6110   -3.6814    1.9747 O   0  0  0  0  0  0  0  0  0  0  0  0
    6.4921   -4.0614    0.7624 N   0  0  0  0  0  0  0  0  0  0  0  0
    6.5162   -5.4681    1.1439 C   0  0  0  0  0  0  0  0  0  0  0  0
    6.5251   -6.3868   -0.0880 C   0  0  2  0  0  0  0  0  0  0  0  0
    6.6002   -7.8605    0.3152 C   0  0  0  0  0  0  0  0  0  0  0  0
    7.6726   -5.9924   -1.0336 C   0  0  0  0  0  0  0  0  0  0  0  0
    7.6483   -4.4874   -1.3698 C   0  0  2  0  0  0  0  0  0  0  0  0
    8.8183   -4.0378   -2.2455 C   0  0  0  0  0  0  0  0  0  0  0  0
    9.5061   -3.0829   -2.0037 O   0  0  0  0  0  0  0  0  0  0  0  0
    9.0435   -4.7753   -3.3556 O   0  0  0  0  0  0  0  0  0  0  0  0
    7.5987   -3.6466   -0.0829 C   0  0  0  0  0  0  0  0  0  0  0  0
    2.9474   -1.3585    0.7242 C   0  0  0  0  0  0  0  0  0  0  0  0
    0.2238    0.9107    0.5365 H   0  0  0  0  0  0  0  0  0  0  0  0
    0.5179   -0.3045    1.8053 H   0  0  0  0  0  0  0  0  0  0  0  0
    0.1887   -0.8220    0.1354 H   0  0  0  0  0  0  0  0  0  0  0  0
    2.3290    0.2263   -0.6227 H   0  0  0  0  0  0  0  0  0  0  0  0
    2.6669    1.0134    2.3077 H   0  0  0  0  0  0  0  0  0  0  0  0
    2.8421    2.0560    0.8797 H   0  0  0  0  0  0  0  0  0  0  0  0
    5.1214    1.0191    1.8705 H   0  0  0  0  0  0  0  0  0  0  0  0
    4.8329    0.7562    0.1382 H   0  0  0  0  0  0  0  0  0  0  0  0
    4.2505   -1.1736    2.4431 H   0  0  0  0  0  0  0  0  0  0  0  0
    6.4540   -1.3225    1.2058 H   0  0  0  0  0  0  0  0  0  0  0  0
    5.5611   -1.6885   -0.2682 H   0  0  0  0  0  0  0  0  0  0  0  0
    5.6366   -5.6544    1.7723 H   0  0  0  0  0  0  0  0  0  0  0  0
    7.4202   -5.6673    1.7540 H   0  0  0  0  0  0  0  0  0  0  0  0
    5.5732   -6.2162   -0.6242 H   0  0  0  0  0  0  0  0  0  0  0  0
    7.5303   -8.0756    0.8683 H   0  0  0  0  0  0  0  0  0  0  0  0
    6.5776   -8.5196   -0.5675 H   0  0  0  0  0  0  0  0  0  0  0  0
    5.7543   -8.1388    0.9634 H   0  0  0  0  0  0  0  0  0  0  0  0
    7.6113   -6.6095   -1.9488 H   0  0  0  0  0  0  0  0  0  0  0  0
    8.6398   -6.2401   -0.5580 H   0  0  0  0  0  0  0  0  0  0  0  0
    6.7255   -4.2808   -1.9465 H   0  0  0  0  0  0  0  0  0  0  0  0
    8.4174   -5.5114   -3.4092 H   0  0  0  0  0  0  0  0  0  0  0  0
    7.5281   -2.5858   -0.3375 H   0  0  0  0  0  0  0  0  0  0  0  0
    8.5556   -3.7732    0.4579 H   0  0  0  0  0  0  0  0  0  0  0  0
    2.3777   -2.0087    1.4045 H   0  0  0  0  0  0  0  0  0  0  0  0
    3.0805   -1.9349   -0.2069 H   0  0  0  0  0  0  0  0  0  0  0  0
  1  2  1  0
  1 20  1  0
  1 21  1  0
  1 22  1  0
  2  3  1  0
  2 19  1  0
  2 23  1  6
  3  4  1  0
  3 24  1  0
  3 25  1  0
  4  5  1  0
  4 26  1  0
  4 27  1  0
  5  6  1  0
  5 19  1  0
  5 28  1  1
  6  7  1  0
  6 29  1  0
  6 30  1  0
  7  8  2  0
  7  9  1  0
  9 10  1  0
  9 18  1  0
 10 11  1  0
 10 31  1  0
 10 32  1  0
 11 12  1  0
 11 13  1  0
 11 33  1  6
 12 34  1  0
 12 35  1  0
 12 36  1  0
 13 14  1  0
 13 37  1  0
 13 38  1  0
 14 15  1  0
 14 18  1  0
 14 39  1  6
 15 16  2  0
 15 17  1  0
 17 40  1  0
 18 41  1  0
 18 42  1  0
 19 43  1  0
 19 44  1  0
M  END

