
     RDKit          3D

 32 33  0  0  0  0  0  0  0  0999 V2000
    1.2418   -0.0795   -0.1576 C   0  0  0  0  0  0  0  0  0  0  0  0
    2.5024    0.3119   -0.9003 C   0  0  0  0  0  0  0  0  0  0  0  0
    3.2052   -0.8996   -1.2288 O   0  0  0  0  0  0  0  0  0  0  0  0
    4.5072   -0.8739   -1.5616 C   0  0  0  0  0  0  0  0  0  0  0  0
    5.1483    0.1088   -2.3387 C   0  0  0  0  0  0  0  0  0  0  0  0
    4.4316    1.1466   -2.7965 F   0  0  0  0  0  0  0  0  0  0  0  0
    6.4996    0.0290   -2.6594 C   0  0  0  0  0  0  0  0  0  0  0  0
    7.2502   -1.0589   -2.2152 C   0  0  0  0  0  0  0  0  0  0  0  0
    6.6638   -2.0758   -1.4459 C   0  0  0  0  0  0  0  0  0  0  0  0
    7.5154   -3.2442   -0.9585 C   0  0  1  0  0  0  0  0  0  0  0  0
    7.6574   -3.3106    0.4929 N   0  0  0  0  0  0  0  0  0  0  0  0
    6.9691   -4.1062    1.3507 C   0  0  0  0  0  0  0  0  0  0  0  0
    7.0282   -3.9347    2.9996 S   0  0  0  0  0  0  0  0  0  0  0  0
    6.2039   -5.1032    0.7611 N   0  0  0  0  0  0  0  0  0  0  0  0
    6.0673   -5.3820   -0.5812 C   0  0  0  0  0  0  0  0  0  0  0  0
    5.2787   -6.1850   -1.0137 O   0  0  0  0  0  0  0  0  0  0  0  0
    7.0720   -4.6388   -1.4905 C   0  0  2  0  0  0  0  0  0  0  0  0
    8.2393   -5.5083   -1.6890 C   0  0  0  0  0  0  0  0  0  0  0  0
    9.1742   -6.1747   -1.8428 N   0  0  0  0  0  0  0  0  0  0  0  0
    5.3078   -1.9495   -1.1335 C   0  0  0  0  0  0  0  0  0  0  0  0
    4.7144   -2.9008   -0.3991 F   0  0  0  0  0  0  0  0  0  0  0  0
    0.6619    0.8210    0.0981 H   0  0  0  0  0  0  0  0  0  0  0  0
    1.4833   -0.6179    0.7713 H   0  0  0  0  0  0  0  0  0  0  0  0
    0.6115   -0.7318   -0.7811 H   0  0  0  0  0  0  0  0  0  0  0  0
    3.1525    0.9506   -0.2765 H   0  0  0  0  0  0  0  0  0  0  0  0
    2.2671    0.8666   -1.8217 H   0  0  0  0  0  0  0  0  0  0  0  0
    6.9399    0.8223   -3.2657 H   0  0  0  0  0  0  0  0  0  0  0  0
    8.3100   -1.1228   -2.4731 H   0  0  0  0  0  0  0  0  0  0  0  0
    8.5213   -3.0606   -1.3633 H   0  0  0  0  0  0  0  0  0  0  0  0
    8.1847   -2.5743    0.9502 H   0  0  0  0  0  0  0  0  0  0  0  0
    5.6223   -5.6402    1.4003 H   0  0  0  0  0  0  0  0  0  0  0  0
    6.5704   -4.5252   -2.4627 H   0  0  0  0  0  0  0  0  0  0  0  0
  1  2  1  0
  1 22  1  0
  1 23  1  0
  1 24  1  0
  2  3  1  0
  2 25  1  0
  2 26  1  0
  3  4  1  0
  4  5  2  0
  4 20  1  0
  5  6  1  0
  5  7  1  0
  7  8  2  0
  7 27  1  0
  8  9  1  0
  8 28  1  0
  9 10  1  0
  9 20  2  0
 10 11  1  0
 10 17  1  0
 10 29  1  6
 11 12  1  0
 11 30  1  0
 12 13  2  0
 12 14  1  0
 14 15  1  0
 14 31  1  0
 15 16  2  0
 15 17  1  0
 17 18  1  0
 17 32  1  6
 18 19  3  0
 20 21  1  0
M  END

