
     RDKit          3D

 35 37  0  0  0  0  0  0  0  0999 V2000
    1.3851    0.2266    0.7736 O   0  0  0  0  0  0  0  0  0  0  0  0
    2.4599    0.1930    0.2147 C   0  0  0  0  0  0  0  0  0  0  0  0
    3.1600    1.1384   -0.4824 N   0  0  0  0  0  0  0  0  0  0  0  0
    2.8387    2.0853   -0.6370 H   0  0  0  0  0  0  0  0  0  0  0  0
    4.3826    0.7313   -0.9908 N   0  0  0  0  0  0  0  0  0  0  0  0
    4.4821   -0.5175   -0.6144 C   0  0  0  0  0  0  0  0  0  0  0  0
    5.4918   -1.5008   -0.8078 C   0  0  0  0  0  0  0  0  0  0  0  0
    5.2806   -2.7655   -0.2672 C   0  0  0  0  0  0  0  0  0  0  0  0
    6.1742   -3.7880   -0.3929 N   0  0  0  0  0  0  0  0  0  0  0  0
    7.4698   -3.6060   -1.0378 C   0  0  0  0  0  0  0  0  0  0  0  0
    8.1346   -4.9831   -0.9291 C   0  0  0  0  0  0  0  0  0  0  0  0
    7.5034   -5.5778    0.3377 C   0  0  0  0  0  0  0  0  0  0  0  0
    6.0412   -5.0898    0.2894 C   0  0  2  0  0  0  0  0  0  0  0  0
    5.0781   -6.0393   -0.4499 C   0  0  0  0  0  0  0  0  0  0  0  0
    4.7358   -7.3008    0.3543 C   0  0  0  0  0  0  0  0  0  0  0  0
    3.7536   -8.1913   -0.3903 C   0  0  0  0  0  0  0  0  0  0  0  0
    3.3056   -9.8215    0.6261 Br  0  0  0  0  0  0  0  0  0  0  0  0
    4.1305   -3.0821    0.4557 N   0  0  0  0  0  0  0  0  0  0  0  0
    3.2301   -2.1758    0.6250 C   0  0  0  0  0  0  0  0  0  0  0  0
    3.3534   -0.9152    0.1216 N   0  0  0  0  0  0  0  0  0  0  0  0
    6.3847   -1.2333   -1.3671 H   0  0  0  0  0  0  0  0  0  0  0  0
    8.0565   -2.8265   -0.5123 H   0  0  0  0  0  0  0  0  0  0  0  0
    7.3542   -3.2703   -2.0830 H   0  0  0  0  0  0  0  0  0  0  0  0
    9.2310   -4.9153   -0.8785 H   0  0  0  0  0  0  0  0  0  0  0  0
    7.8846   -5.5966   -1.8097 H   0  0  0  0  0  0  0  0  0  0  0  0
    8.0000   -5.1711    1.2339 H   0  0  0  0  0  0  0  0  0  0  0  0
    7.5846   -6.6733    0.3877 H   0  0  0  0  0  0  0  0  0  0  0  0
    5.6395   -4.9237    1.3002 H   0  0  0  0  0  0  0  0  0  0  0  0
    5.5088   -6.3150   -1.4293 H   0  0  0  0  0  0  0  0  0  0  0  0
    4.1529   -5.4787   -0.6548 H   0  0  0  0  0  0  0  0  0  0  0  0
    4.3007   -7.0133    1.3263 H   0  0  0  0  0  0  0  0  0  0  0  0
    5.6464   -7.8806    0.5790 H   0  0  0  0  0  0  0  0  0  0  0  0
    4.1580   -8.5453   -1.3480 H   0  0  0  0  0  0  0  0  0  0  0  0
    2.7961   -7.6869   -0.5755 H   0  0  0  0  0  0  0  0  0  0  0  0
    2.3105   -2.3747    1.1873 H   0  0  0  0  0  0  0  0  0  0  0  0
  1  2  2  0
  2  3  1  0
  2 20  1  0
  3  4  1  0
  3  5  1  0
  5  6  2  0
  6  7  1  0
  6 20  1  0
  7  8  2  0
  7 21  1  0
  8  9  1  0
  8 18  1  0
  9 10  1  0
  9 13  1  0
 10 11  1  0
 10 22  1  0
 10 23  1  0
 11 12  1  0
 11 24  1  0
 11 25  1  0
 12 13  1  0
 12 26  1  0
 12 27  1  0
 13 14  1  0
 13 28  1  1
 14 15  1  0
 14 29  1  0
 14 30  1  0
 15 16  1  0
 15 31  1  0
 15 32  1  0
 16 17  1  0
 16 33  1  0
 16 34  1  0
 18 19  2  0
 19 20  1  0
 19 35  1  0
M  END

