
     RDKit          3D

 47 48  0  0  0  0  0  0  0  0999 V2000
    1.3685   -0.2667   -0.0227 C   0  0  0  0  0  0  0  0  0  0  0  0
    2.8860   -0.1063   -0.1225 C   0  0  0  0  0  0  0  0  0  0  0  0
    3.3315    0.7544   -1.3191 C   0  0  1  0  0  0  0  0  0  0  0  0
    2.8021    2.1250   -1.3655 N   0  0  0  0  0  0  0  0  0  0  0  0
    2.8852    2.9812   -0.1728 C   0  0  1  0  0  0  0  0  0  0  0  0
    4.3358    3.3506    0.1771 C   0  0  0  0  0  0  0  0  0  0  0  0
    2.0492    4.2329   -0.4120 C   0  0  0  0  0  0  0  0  0  0  0  0
    1.1521    4.6904    0.5643 C   0  0  0  0  0  0  0  0  0  0  0  0
    0.4078    5.8580    0.3671 C   0  0  0  0  0  0  0  0  0  0  0  0
    0.5478    6.5860   -0.8173 C   0  0  0  0  0  0  0  0  0  0  0  0
    1.4368    6.1381   -1.8003 C   0  0  0  0  0  0  0  0  0  0  0  0
    2.1807    4.9727   -1.5991 C   0  0  0  0  0  0  0  0  0  0  0  0
    4.8703    0.7107   -1.4929 C   0  0  0  0  0  0  0  0  0  0  0  0
    5.5620    0.2074   -0.6241 O   0  0  0  0  0  0  0  0  0  0  0  0
    5.4894    1.2223   -2.7572 C   0  0  0  0  0  0  0  0  0  0  0  0
    6.8763    1.0751   -2.9025 C   0  0  0  0  0  0  0  0  0  0  0  0
    7.5148    1.4951   -4.0713 C   0  0  0  0  0  0  0  0  0  0  0  0
    6.7750    2.0613   -5.1129 C   0  0  0  0  0  0  0  0  0  0  0  0
    7.2969    2.5152   -6.2863 O   0  0  0  0  0  0  0  0  0  0  0  0
    8.6864    2.4204   -6.5086 C   0  0  0  0  0  0  0  0  0  0  0  0
    5.3668    2.2184   -4.9929 C   0  0  0  0  0  0  0  0  0  0  0  0
    4.6575    2.7406   -6.0642 N   0  0  0  0  0  0  0  0  0  0  0  0
    4.7509    1.7985   -3.8104 C   0  0  0  0  0  0  0  0  0  0  0  0
    1.0930   -0.9088    0.8286 H   0  0  0  0  0  0  0  0  0  0  0  0
    0.9511   -0.7307   -0.9331 H   0  0  0  0  0  0  0  0  0  0  0  0
    0.8556    0.6988    0.1184 H   0  0  0  0  0  0  0  0  0  0  0  0
    3.3618   -1.0946   -0.2190 H   0  0  0  0  0  0  0  0  0  0  0  0
    3.2940    0.3139    0.8108 H   0  0  0  0  0  0  0  0  0  0  0  0
    2.9359    0.2732   -2.2328 H   0  0  0  0  0  0  0  0  0  0  0  0
    1.8340    2.0983   -1.6778 H   0  0  0  0  0  0  0  0  0  0  0  0
    2.4564    2.4804    0.7198 H   0  0  0  0  0  0  0  0  0  0  0  0
    4.8335    3.8306   -0.6793 H   0  0  0  0  0  0  0  0  0  0  0  0
    4.9209    2.4665    0.4664 H   0  0  0  0  0  0  0  0  0  0  0  0
    4.3469    4.0534    1.0242 H   0  0  0  0  0  0  0  0  0  0  0  0
    1.0340    4.1232    1.4925 H   0  0  0  0  0  0  0  0  0  0  0  0
   -0.2869    6.1967    1.1404 H   0  0  0  0  0  0  0  0  0  0  0  0
   -0.0343    7.4977   -0.9752 H   0  0  0  0  0  0  0  0  0  0  0  0
    1.5522    6.7025   -2.7297 H   0  0  0  0  0  0  0  0  0  0  0  0
    2.8731    4.6225   -2.3679 H   0  0  0  0  0  0  0  0  0  0  0  0
    7.4418    0.6234   -2.0866 H   0  0  0  0  0  0  0  0  0  0  0  0
    8.5948    1.3767   -4.1651 H   0  0  0  0  0  0  0  0  0  0  0  0
    8.8752    2.8414   -7.5053 H   0  0  0  0  0  0  0  0  0  0  0  0
    9.0315    1.3713   -6.4914 H   0  0  0  0  0  0  0  0  0  0  0  0
    9.2609    2.9957   -5.7605 H   0  0  0  0  0  0  0  0  0  0  0  0
    5.2112    3.2689   -6.7287 H   0  0  0  0  0  0  0  0  0  0  0  0
    3.7602    3.1572   -5.8472 H   0  0  0  0  0  0  0  0  0  0  0  0
    3.6781    1.9544   -3.6981 H   0  0  0  0  0  0  0  0  0  0  0  0
  1  2  1  0
  1 24  1  0
  1 25  1  0
  1 26  1  0
  2  3  1  0
  2 27  1  0
  2 28  1  0
  3  4  1  0
  3 13  1  0
  3 29  1  6
  4  5  1  0
  4 30  1  0
  5  6  1  0
  5  7  1  0
  5 31  1  1
  6 32  1  0
  6 33  1  0
  6 34  1  0
  7  8  2  0
  7 12  1  0
  8  9  1  0
  8 35  1  0
  9 10  2  0
  9 36  1  0
 10 11  1  0
 10 37  1  0
 11 12  2  0
 11 38  1  0
 12 39  1  0
 13 14  2  0
 13 15  1  0
 15 16  2  0
 15 23  1  0
 16 17  1  0
 16 40  1  0
 17 18  2  0
 17 41  1  0
 18 19  1  0
 18 21  1  0
 19 20  1  0
 20 42  1  0
 20 43  1  0
 20 44  1  0
 21 22  1  0
 21 23  2  0
 22 45  1  0
 22 46  1  0
 23 47  1  0
M  END

