
     RDKit          3D

 40 42  0  0  0  0  0  0  0  0999 V2000
    2.7994    1.6057    0.9310 O   0  0  0  0  0  0  0  0  0  0  0  0
    2.4776    0.5907    0.3242 C   0  0  0  0  0  0  0  0  0  0  0  0
    3.2231    0.1639   -0.9479 C   0  0  0  0  0  0  0  0  0  0  0  0
    2.4243    0.3980   -2.1485 N   0  0  0  0  0  0  0  0  0  0  0  0
    2.1078    1.8043   -2.4137 C   0  0  0  0  0  0  0  0  0  0  0  0
    3.2617    2.5805   -3.0662 C   0  0  0  0  0  0  0  0  0  0  0  0
    3.7294    1.8847   -4.2696 N   0  0  0  0  0  0  0  0  0  0  0  0
    3.8130    2.5966   -5.4341 C   0  0  0  0  0  0  0  0  0  0  0  0
    3.5267    3.7889   -5.4935 O   0  0  0  0  0  0  0  0  0  0  0  0
    4.2686    1.9518   -6.7212 C   0  0  0  0  0  0  0  0  0  0  0  0
    4.4640    2.7367   -7.8445 C   0  0  0  0  0  0  0  0  0  0  0  0
    4.9374    1.7563   -9.1399 S   0  0  0  0  0  0  0  0  0  0  0  0
    4.8542    0.3190   -8.1431 N   0  0  0  0  0  0  0  0  0  0  0  0
    4.5024    0.6222   -6.9660 N   0  0  0  0  0  0  0  0  0  0  0  0
    4.1017    0.4911   -4.0209 C   0  0  0  0  0  0  0  0  0  0  0  0
    2.9272   -0.2483   -3.3576 C   0  0  0  0  0  0  0  0  0  0  0  0
    1.4434   -0.1936    0.7315 N   0  0  0  0  0  0  0  0  0  0  0  0
    0.6728    0.1615    1.9294 C   0  0  0  0  0  0  0  0  0  0  0  0
   -0.2302   -1.0585    2.1496 C   0  0  0  0  0  0  0  0  0  0  0  0
   -0.4396   -1.6033    0.7284 C   0  0  0  0  0  0  0  0  0  0  0  0
    0.9318   -1.3999    0.0710 C   0  0  0  0  0  0  0  0  0  0  0  0
    3.4599   -0.9119   -0.9036 H   0  0  0  0  0  0  0  0  0  0  0  0
    4.1833    0.7153   -0.9185 H   0  0  0  0  0  0  0  0  0  0  0  0
    1.8249    2.3025   -1.4749 H   0  0  0  0  0  0  0  0  0  0  0  0
    1.2333    1.8378   -3.0873 H   0  0  0  0  0  0  0  0  0  0  0  0
    4.1045    2.6804   -2.3578 H   0  0  0  0  0  0  0  0  0  0  0  0
    2.9464    3.5895   -3.3558 H   0  0  0  0  0  0  0  0  0  0  0  0
    4.3262    3.8153   -7.8843 H   0  0  0  0  0  0  0  0  0  0  0  0
    4.9846    0.4753   -3.3538 H   0  0  0  0  0  0  0  0  0  0  0  0
    4.3771   -0.0015   -4.9580 H   0  0  0  0  0  0  0  0  0  0  0  0
    3.2274   -1.2821   -3.1223 H   0  0  0  0  0  0  0  0  0  0  0  0
    2.1012   -0.3042   -4.0895 H   0  0  0  0  0  0  0  0  0  0  0  0
    0.0888    1.0822    1.7478 H   0  0  0  0  0  0  0  0  0  0  0  0
    1.3469    0.3770    2.7721 H   0  0  0  0  0  0  0  0  0  0  0  0
   -1.1694   -0.8017    2.6613 H   0  0  0  0  0  0  0  0  0  0  0  0
    0.2901   -1.8089    2.7686 H   0  0  0  0  0  0  0  0  0  0  0  0
   -1.1996   -1.0024    0.2011 H   0  0  0  0  0  0  0  0  0  0  0  0
   -0.7687   -2.6529    0.7031 H   0  0  0  0  0  0  0  0  0  0  0  0
    0.8756   -1.2483   -1.0161 H   0  0  0  0  0  0  0  0  0  0  0  0
    1.5915   -2.2682    0.2645 H   0  0  0  0  0  0  0  0  0  0  0  0
  1  2  2  0
  2  3  1  0
  2 17  1  0
  3  4  1  0
  3 22  1  0
  3 23  1  0
  4  5  1  0
  4 16  1  0
  5  6  1  0
  5 24  1  0
  5 25  1  0
  6  7  1  0
  6 26  1  0
  6 27  1  0
  7  8  1  0
  7 15  1  0
  8  9  2  0
  8 10  1  0
 10 11  2  0
 10 14  1  0
 11 12  1  0
 11 28  1  0
 12 13  1  0
 13 14  2  0
 15 16  1  0
 15 29  1  0
 15 30  1  0
 16 31  1  0
 16 32  1  0
 17 18  1  0
 17 21  1  0
 18 19  1  0
 18 33  1  0
 18 34  1  0
 19 20  1  0
 19 35  1  0
 19 36  1  0
 20 21  1  0
 20 37  1  0
 20 38  1  0
 21 39  1  0
 21 40  1  0
M  END

