
     RDKit          3D

 43 43  0  0  0  0  0  0  0  0999 V2000
    1.2785   -4.1949   -2.7979 C   0  0  0  0  0  0  0  0  0  0  0  0
    2.7442   -3.8329   -2.5540 C   0  0  0  0  0  0  0  0  0  0  0  0
    3.0331   -3.4359   -1.1037 C   0  0  0  0  0  0  0  0  0  0  0  0
    4.5032   -3.1398   -0.7920 C   0  0  0  0  0  0  0  0  0  0  0  0
    5.0678   -2.0465   -1.6006 N   0  0  0  0  0  0  0  0  0  0  0  0
    4.4681   -0.7073   -1.4655 C   0  0  0  0  0  0  0  0  0  0  0  0
    4.5901   -0.0634   -0.0830 C   0  0  0  0  0  0  0  0  0  0  0  0
    6.7695   -2.0622   -1.6848 S   0  0  1  0  0  0  0  0  0  0  0  0
    7.1692   -0.7930   -2.3045 O   0  0  0  0  0  0  0  0  0  0  0  0
    7.3307   -2.4346   -0.3774 O   0  0  0  0  0  0  0  0  0  0  0  0
    7.1193   -3.4178   -2.8230 C   0  0  0  0  0  0  0  0  0  0  0  0
    7.8088   -4.5084   -2.2846 C   0  0  0  0  0  0  0  0  0  0  0  0
    8.1729   -5.5948   -3.0894 C   0  0  0  0  0  0  0  0  0  0  0  0
    8.9658   -6.7530   -2.5109 C   0  0  0  0  0  0  0  0  0  0  0  0
    8.7206   -8.0011   -3.2217 N   0  0  0  0  0  0  0  0  0  0  0  0
    7.8164   -5.5567   -4.4428 C   0  0  0  0  0  0  0  0  0  0  0  0
    7.1324   -4.4598   -4.9717 C   0  0  0  0  0  0  0  0  0  0  0  0
    6.7688   -3.3530   -4.1895 C   0  0  0  0  0  0  0  0  0  0  0  0
    6.0533   -2.1824   -4.8123 C   0  0  0  0  0  0  0  0  0  0  0  0
    1.1010   -4.4736   -3.8488 H   0  0  0  0  0  0  0  0  0  0  0  0
    0.6108   -3.3489   -2.5622 H   0  0  0  0  0  0  0  0  0  0  0  0
    0.9632   -5.0457   -2.1707 H   0  0  0  0  0  0  0  0  0  0  0  0
    3.0391   -3.0082   -3.2245 H   0  0  0  0  0  0  0  0  0  0  0  0
    3.3900   -4.6858   -2.8302 H   0  0  0  0  0  0  0  0  0  0  0  0
    2.7256   -4.2556   -0.4298 H   0  0  0  0  0  0  0  0  0  0  0  0
    2.4014   -2.5754   -0.8196 H   0  0  0  0  0  0  0  0  0  0  0  0
    5.0954   -4.0433   -1.0058 H   0  0  0  0  0  0  0  0  0  0  0  0
    4.6252   -2.9409    0.2882 H   0  0  0  0  0  0  0  0  0  0  0  0
    3.4095   -0.8032   -1.7562 H   0  0  0  0  0  0  0  0  0  0  0  0
    4.9439   -0.0648   -2.2181 H   0  0  0  0  0  0  0  0  0  0  0  0
    4.0931   -0.6571    0.7003 H   0  0  0  0  0  0  0  0  0  0  0  0
    4.1221    0.9342   -0.0909 H   0  0  0  0  0  0  0  0  0  0  0  0
    5.6470    0.0584    0.1989 H   0  0  0  0  0  0  0  0  0  0  0  0
    8.0600   -4.4901   -1.2219 H   0  0  0  0  0  0  0  0  0  0  0  0
    8.7736   -6.7958   -1.4179 H   0  0  0  0  0  0  0  0  0  0  0  0
   10.0420   -6.5199   -2.6124 H   0  0  0  0  0  0  0  0  0  0  0  0
    7.7806   -8.3478   -3.0263 H   0  0  0  0  0  0  0  0  0  0  0  0
    9.3714   -8.7231   -2.9160 H   0  0  0  0  0  0  0  0  0  0  0  0
    8.0819   -6.4055   -5.0762 H   0  0  0  0  0  0  0  0  0  0  0  0
    6.8738   -4.4536   -6.0343 H   0  0  0  0  0  0  0  0  0  0  0  0
    5.8718   -2.3645   -5.8810 H   0  0  0  0  0  0  0  0  0  0  0  0
    6.6403   -1.2594   -4.6989 H   0  0  0  0  0  0  0  0  0  0  0  0
    5.0862   -2.0021   -4.3180 H   0  0  0  0  0  0  0  0  0  0  0  0
  1  2  1  0
  1 20  1  0
  1 21  1  0
  1 22  1  0
  2  3  1  0
  2 23  1  0
  2 24  1  0
  3  4  1  0
  3 25  1  0
  3 26  1  0
  4  5  1  0
  4 27  1  0
  4 28  1  0
  5  6  1  0
  8  5  1  1
  6  7  1  0
  6 29  1  0
  6 30  1  0
  7 31  1  0
  7 32  1  0
  7 33  1  0
  8  9  2  0
  8 10  2  0
  8 11  1  0
 11 12  2  0
 11 18  1  0
 12 13  1  0
 12 34  1  0
 13 14  1  0
 13 16  2  0
 14 15  1  0
 14 35  1  0
 14 36  1  0
 15 37  1  0
 15 38  1  0
 16 17  1  0
 16 39  1  0
 17 18  2  0
 17 40  1  0
 18 19  1  0
 19 41  1  0
 19 42  1  0
 19 43  1  0
M  END

