
     RDKit          3D

 52 55  0  0  0  0  0  0  0  0999 V2000
    1.7517   -0.1426   -0.9571 O   0  0  0  0  0  0  0  0  0  0  0  0
    2.2233    0.2589    0.0977 C   0  0  0  0  0  0  0  0  0  0  0  0
    2.1959    1.7513    0.4271 C   0  0  0  0  0  0  0  0  0  0  0  0
    1.3415    2.5882   -0.9599 S   0  0  0  0  0  0  0  0  0  0  0  0
    1.4644    4.2209   -0.3295 C   0  0  0  0  0  0  0  0  0  0  0  0
    2.0248    4.6166    0.8035 N   0  0  0  0  0  0  0  0  0  0  0  0
    1.8703    5.9597    0.8474 N   0  0  0  0  0  0  0  0  0  0  0  0
    1.2520    6.3917   -0.1908 N   0  0  0  0  0  0  0  0  0  0  0  0
    0.9770    5.3163   -0.9634 N   0  0  0  0  0  0  0  0  0  0  0  0
    0.2673    5.4426   -2.2324 C   0  0  1  0  0  0  0  0  0  0  0  0
   -1.1563    6.0118   -2.0939 C   0  0  0  0  0  0  0  0  0  0  0  0
   -1.4700    6.4691   -3.5216 C   0  0  0  0  0  0  0  0  0  0  0  0
   -0.1576    7.1342   -3.9859 C   0  0  0  0  0  0  0  0  0  0  0  0
    0.9794    6.3669   -3.2597 C   0  0  0  0  0  0  0  0  0  0  0  0
    2.7931   -0.5711    1.0246 N   0  0  0  0  0  0  0  0  0  0  0  0
    2.8875   -2.0030    0.7400 C   0  0  0  0  0  0  0  0  0  0  0  0
    2.2937   -2.8258    1.8853 C   0  0  0  0  0  0  0  0  0  0  0  0
    2.9043   -2.4162    3.2311 C   0  0  0  0  0  0  0  0  0  0  0  0
    2.8037   -0.8985    3.5066 C   0  0  1  0  0  0  0  0  0  0  0  0
    1.3337   -0.4694    3.7341 C   0  0  0  0  0  0  0  0  0  0  0  0
    1.1907    0.8878    4.3780 C   0  0  0  0  0  0  0  0  0  0  0  0
    2.1900    1.5253    5.0023 C   0  0  0  0  0  0  0  0  0  0  0  0
    3.5715    0.9438    5.1412 C   0  0  0  0  0  0  0  0  0  0  0  0
    3.6182   -0.5460    4.7709 C   0  0  0  0  0  0  0  0  0  0  0  0
    3.3988   -0.1512    2.2831 C   0  0  0  0  0  0  0  0  0  0  0  0
    3.2079    2.1699    0.5288 H   0  0  0  0  0  0  0  0  0  0  0  0
    1.6657    1.9725    1.3643 H   0  0  0  0  0  0  0  0  0  0  0  0
    0.2056    4.4198   -2.6348 H   0  0  0  0  0  0  0  0  0  0  0  0
   -1.1286    6.8734   -1.4071 H   0  0  0  0  0  0  0  0  0  0  0  0
   -1.8673    5.2755   -1.6887 H   0  0  0  0  0  0  0  0  0  0  0  0
   -2.3388    7.1425   -3.5772 H   0  0  0  0  0  0  0  0  0  0  0  0
   -1.6995    5.5921   -4.1522 H   0  0  0  0  0  0  0  0  0  0  0  0
   -0.1502    8.1916   -3.6772 H   0  0  0  0  0  0  0  0  0  0  0  0
   -0.0445    7.1216   -5.0803 H   0  0  0  0  0  0  0  0  0  0  0  0
    1.6519    7.0548   -2.7288 H   0  0  0  0  0  0  0  0  0  0  0  0
    1.5971    5.7734   -3.9503 H   0  0  0  0  0  0  0  0  0  0  0  0
    3.9550   -2.2673    0.6062 H   0  0  0  0  0  0  0  0  0  0  0  0
    2.3737   -2.1867   -0.2110 H   0  0  0  0  0  0  0  0  0  0  0  0
    2.4769   -3.8962    1.6946 H   0  0  0  0  0  0  0  0  0  0  0  0
    1.1991   -2.6928    1.9002 H   0  0  0  0  0  0  0  0  0  0  0  0
    3.9733   -2.6991    3.2378 H   0  0  0  0  0  0  0  0  0  0  0  0
    2.4325   -2.9743    4.0575 H   0  0  0  0  0  0  0  0  0  0  0  0
    0.8282   -1.2267    4.3639 H   0  0  0  0  0  0  0  0  0  0  0  0
    0.7806   -0.4803    2.7799 H   0  0  0  0  0  0  0  0  0  0  0  0
    0.2042    1.3611    4.3221 H   0  0  0  0  0  0  0  0  0  0  0  0
    2.0149    2.5189    5.4286 H   0  0  0  0  0  0  0  0  0  0  0  0
    3.9311    1.0806    6.1762 H   0  0  0  0  0  0  0  0  0  0  0  0
    4.2794    1.5277    4.5214 H   0  0  0  0  0  0  0  0  0  0  0  0
    3.2089   -1.1382    5.6080 H   0  0  0  0  0  0  0  0  0  0  0  0
    4.6646   -0.8732    4.6453 H   0  0  0  0  0  0  0  0  0  0  0  0
    4.4866   -0.3573    2.2424 H   0  0  0  0  0  0  0  0  0  0  0  0
    3.2810    0.9302    2.4093 H   0  0  0  0  0  0  0  0  0  0  0  0
  1  2  2  0
  2  3  1  0
  2 15  1  0
  3  4  1  0
  3 26  1  0
  3 27  1  0
  4  5  1  0
  5  6  2  0
  5  9  1  0
  6  7  1  0
  7  8  2  0
  8  9  1  0
  9 10  1  0
 10 11  1  0
 10 14  1  0
 10 28  1  6
 11 12  1  0
 11 29  1  0
 11 30  1  0
 12 13  1  0
 12 31  1  0
 12 32  1  0
 13 14  1  0
 13 33  1  0
 13 34  1  0
 14 35  1  0
 14 36  1  0
 15 16  1  0
 15 25  1  0
 16 17  1  0
 16 37  1  0
 16 38  1  0
 17 18  1  0
 17 39  1  0
 17 40  1  0
 19 18  1  6
 18 41  1  0
 18 42  1  0
 19 20  1  0
 19 24  1  0
 19 25  1  0
 20 21  1  0
 20 43  1  0
 20 44  1  0
 21 22  2  0
 21 45  1  0
 22 23  1  0
 22 46  1  0
 23 24  1  0
 23 47  1  0
 23 48  1  0
 24 49  1  0
 24 50  1  0
 25 51  1  0
 25 52  1  0
M  END

