
     RDKit          3D

 27 28  0  0  0  0  0  0  0  0999 V2000
    1.5930    0.7973    1.6669 C   0  0  0  0  0  0  0  0  0  0  0  0
    2.6185    0.3036    0.7012 C   0  0  0  0  0  0  0  0  0  0  0  0
    2.7669    0.4667   -0.6620 C   0  0  0  0  0  0  0  0  0  0  0  0
    3.8983   -0.1692   -1.1161 N   0  0  0  0  0  0  0  0  0  0  0  0
    4.4403   -0.7210   -0.0533 C   0  0  0  0  0  0  0  0  0  0  0  0
    5.6680   -1.5975   -0.0248 C   0  0  1  0  0  0  0  0  0  0  0  0
    6.2521   -1.3080   -0.9192 H   0  0  0  0  0  0  0  0  0  0  0  0
    6.3716   -1.3759    1.2411 N   0  0  0  0  0  0  0  0  0  0  0  0
    5.2928   -3.0727   -0.1973 C   0  0  0  0  0  0  0  0  0  0  0  0
    4.9347   -3.5408   -1.4717 C   0  0  0  0  0  0  0  0  0  0  0  0
    4.5649   -4.8729   -1.6624 C   0  0  0  0  0  0  0  0  0  0  0  0
    4.5470   -5.7607   -0.5804 C   0  0  0  0  0  0  0  0  0  0  0  0
    4.8970   -5.3021    0.6913 C   0  0  0  0  0  0  0  0  0  0  0  0
    5.2650   -3.9652    0.8830 C   0  0  0  0  0  0  0  0  0  0  0  0
    3.7048   -0.4663    1.0705 N   0  0  0  0  0  0  0  0  0  0  0  0
    3.9625   -0.7820    1.9988 H   0  0  0  0  0  0  0  0  0  0  0  0
    0.8335    1.3886    1.1360 H   0  0  0  0  0  0  0  0  0  0  0  0
    2.0323    1.4435    2.4473 H   0  0  0  0  0  0  0  0  0  0  0  0
    1.0722   -0.0303    2.1797 H   0  0  0  0  0  0  0  0  0  0  0  0
    2.1110    1.0219   -1.3325 H   0  0  0  0  0  0  0  0  0  0  0  0
    6.7074   -0.4135    1.2843 H   0  0  0  0  0  0  0  0  0  0  0  0
    7.1936   -1.9775    1.2974 H   0  0  0  0  0  0  0  0  0  0  0  0
    4.9324   -2.8444   -2.3145 H   0  0  0  0  0  0  0  0  0  0  0  0
    4.2893   -5.2216   -2.6612 H   0  0  0  0  0  0  0  0  0  0  0  0
    4.2605   -6.8050   -0.7301 H   0  0  0  0  0  0  0  0  0  0  0  0
    4.8835   -5.9870    1.5436 H   0  0  0  0  0  0  0  0  0  0  0  0
    5.5308   -3.6076    1.8798 H   0  0  0  0  0  0  0  0  0  0  0  0
  1  2  1  0
  1 17  1  0
  1 18  1  0
  1 19  1  0
  2  3  2  0
  2 15  1  0
  3  4  1  0
  3 20  1  0
  4  5  2  0
  5  6  1  0
  5 15  1  0
  6  7  1  6
  6  8  1  0
  6  9  1  0
  8 21  1  0
  8 22  1  0
  9 10  2  0
  9 14  1  0
 10 11  1  0
 10 23  1  0
 11 12  2  0
 11 24  1  0
 12 13  1  0
 12 25  1  0
 13 14  2  0
 13 26  1  0
 14 27  1  0
 15 16  1  0
M  END

