
     RDKit          3D

 32 33  0  0  0  0  0  0  0  0999 V2000
    1.8697   -0.9577   -0.3936 N   0  0  0  0  0  0  0  0  0  0  0  0
    2.5933    0.1212    0.0430 C   0  0  0  0  0  0  0  0  0  0  0  0
    2.5947    1.1857   -0.5508 O   0  0  0  0  0  0  0  0  0  0  0  0
    3.3971   -0.0903    1.3009 C   0  0  0  0  0  0  0  0  0  0  0  0
    3.8242    1.0436    2.0070 C   0  0  0  0  0  0  0  0  0  0  0  0
    4.5529    0.8912    3.1797 C   0  0  0  0  0  0  0  0  0  0  0  0
    4.8767   -0.3814    3.6834 C   0  0  0  0  0  0  0  0  0  0  0  0
    5.6010   -0.3666    5.0167 C   0  0  0  0  0  0  0  0  0  0  0  0
    5.2970   -1.3650    5.8939 N   0  0  0  0  0  0  0  0  0  0  0  0
    6.3558    0.5457    5.3122 O   0  0  0  0  0  0  0  0  0  0  0  0
    4.5124   -1.5334    2.9448 C   0  0  0  0  0  0  0  0  0  0  0  0
    4.9585   -2.9137    3.2996 C   0  0  0  0  0  0  0  0  0  0  0  0
    6.3200   -3.2087    3.4798 C   0  0  0  0  0  0  0  0  0  0  0  0
    6.7778   -4.4911    3.7780 C   0  0  0  0  0  0  0  0  0  0  0  0
    5.8536   -5.5378    3.9068 C   0  0  0  0  0  0  0  0  0  0  0  0
    6.2162   -6.8107    4.1968 O   0  0  0  0  0  0  0  0  0  0  0  0
    4.4891   -5.2795    3.7303 C   0  0  0  0  0  0  0  0  0  0  0  0
    4.0453   -3.9884    3.4235 C   0  0  0  0  0  0  0  0  0  0  0  0
    2.7211   -3.7282    3.2488 O   0  0  0  0  0  0  0  0  0  0  0  0
    3.7670   -1.3562    1.7650 C   0  0  0  0  0  0  0  0  0  0  0  0
    1.2603   -0.8030   -1.1886 H   0  0  0  0  0  0  0  0  0  0  0  0
    1.6599   -1.7336    0.2202 H   0  0  0  0  0  0  0  0  0  0  0  0
    3.5678    2.0306    1.6178 H   0  0  0  0  0  0  0  0  0  0  0  0
    4.8875    1.7607    3.7484 H   0  0  0  0  0  0  0  0  0  0  0  0
    4.7516   -2.1719    5.6235 H   0  0  0  0  0  0  0  0  0  0  0  0
    5.8024   -1.3831    6.7719 H   0  0  0  0  0  0  0  0  0  0  0  0
    7.0459   -2.3992    3.3720 H   0  0  0  0  0  0  0  0  0  0  0  0
    7.8476   -4.6803    3.9039 H   0  0  0  0  0  0  0  0  0  0  0  0
    7.1773   -6.8614    4.2843 H   0  0  0  0  0  0  0  0  0  0  0  0
    3.7800   -6.1055    3.8315 H   0  0  0  0  0  0  0  0  0  0  0  0
    2.2147   -4.5376    3.3987 H   0  0  0  0  0  0  0  0  0  0  0  0
    3.5129   -2.2441    1.1843 H   0  0  0  0  0  0  0  0  0  0  0  0
  1  2  1  0
  1 21  1  0
  1 22  1  0
  2  3  2  0
  2  4  1  0
  4  5  2  0
  4 20  1  0
  5  6  1  0
  5 23  1  0
  6  7  2  0
  6 24  1  0
  7  8  1  0
  7 11  1  0
  8  9  1  0
  8 10  2  0
  9 25  1  0
  9 26  1  0
 11 12  1  0
 11 20  2  0
 12 13  2  0
 12 18  1  0
 13 14  1  0
 13 27  1  0
 14 15  2  0
 14 28  1  0
 15 16  1  0
 15 17  1  0
 16 29  1  0
 17 18  2  0
 17 30  1  0
 18 19  1  0
 19 31  1  0
 20 32  1  0
M  END

