
     RDKit          3D

 56 57  0  0  0  0  0  0  0  0999 V2000
    4.1148   -1.5122    1.9984 C   0  0  0  0  0  0  0  0  0  0  0  0
    3.5899   -2.9301    2.2504 C   0  0  1  0  0  0  0  0  0  0  0  0
    4.2440   -3.5759    3.4768 C   0  0  0  0  0  0  0  0  0  0  0  0
    2.0660   -2.9258    2.3889 C   0  0  0  0  0  0  0  0  0  0  0  0
    3.8076   -3.7648    1.0683 O   0  0  0  0  0  0  0  0  0  0  0  0
    5.0463   -4.0247    0.5946 C   0  0  0  0  0  0  0  0  0  0  0  0
    6.0938   -3.6183    1.0631 O   0  0  0  0  0  0  0  0  0  0  0  0
    4.9641   -4.8308   -0.5032 N   0  0  0  0  0  0  0  0  0  0  0  0
    6.1431   -5.2373   -1.2389 C   0  0  0  0  0  0  0  0  0  0  0  0
    6.6483   -4.1457   -2.2000 C   0  0  0  0  0  0  0  0  0  0  0  0
    7.8414   -4.5362   -2.9272 N   0  0  0  0  0  0  0  0  0  0  0  0
    7.8498   -5.2741   -4.0788 C   0  0  0  0  0  0  0  0  0  0  0  0
    6.4338   -5.8103   -4.8021 S   0  0  0  0  0  0  0  0  0  0  0  0
    9.1179   -5.5117   -4.5466 N   0  0  0  0  0  0  0  0  0  0  0  0
    9.5749   -6.2473   -5.6679 C   0  0  0  0  0  0  0  0  0  0  0  0
    8.9019   -6.3134   -6.8936 C   0  0  0  0  0  0  0  0  0  0  0  0
    9.4482   -7.0247   -7.9644 C   0  0  0  0  0  0  0  0  0  0  0  0
   10.6822   -7.6998   -7.8630 C   0  0  0  0  0  0  0  0  0  0  0  0
   11.2233   -8.4549   -8.9189 N   0  0  0  0  0  0  0  0  0  0  0  0
   12.6363   -8.2678   -9.2539 C   0  0  0  0  0  0  0  0  0  0  0  0
   13.2111   -9.4790   -9.9901 C   0  0  0  0  0  0  0  0  0  0  0  0
   12.3787   -9.8074  -11.2324 C   0  0  0  0  0  0  0  0  0  0  0  0
   10.9052   -9.9626  -10.8483 C   0  0  0  0  0  0  0  0  0  0  0  0
   10.3875   -8.7435  -10.0768 C   0  0  0  0  0  0  0  0  0  0  0  0
   11.3537   -7.6140   -6.6226 C   0  0  0  0  0  0  0  0  0  0  0  0
   10.8106   -6.9079   -5.5555 C   0  0  0  0  0  0  0  0  0  0  0  0
    3.8494   -0.8607    2.8457 H   0  0  0  0  0  0  0  0  0  0  0  0
    3.6580   -1.0912    1.0888 H   0  0  0  0  0  0  0  0  0  0  0  0
    5.2056   -1.5118    1.8799 H   0  0  0  0  0  0  0  0  0  0  0  0
    3.9879   -3.0024    4.3814 H   0  0  0  0  0  0  0  0  0  0  0  0
    5.3359   -3.6024    3.3713 H   0  0  0  0  0  0  0  0  0  0  0  0
    3.8750   -4.6052    3.6094 H   0  0  0  0  0  0  0  0  0  0  0  0
    1.7627   -2.3226    3.2581 H   0  0  0  0  0  0  0  0  0  0  0  0
    1.6869   -3.9500    2.5248 H   0  0  0  0  0  0  0  0  0  0  0  0
    1.5965   -2.5015    1.4883 H   0  0  0  0  0  0  0  0  0  0  0  0
    4.0419   -5.0657   -0.8489 H   0  0  0  0  0  0  0  0  0  0  0  0
    5.9047   -6.1397   -1.8197 H   0  0  0  0  0  0  0  0  0  0  0  0
    6.9388   -5.4861   -0.5193 H   0  0  0  0  0  0  0  0  0  0  0  0
    6.8833   -3.2397   -1.6210 H   0  0  0  0  0  0  0  0  0  0  0  0
    5.8599   -3.9080   -2.9296 H   0  0  0  0  0  0  0  0  0  0  0  0
    8.7300   -4.2649   -2.5194 H   0  0  0  0  0  0  0  0  0  0  0  0
    9.8719   -5.2168   -3.9339 H   0  0  0  0  0  0  0  0  0  0  0  0
    7.9482   -5.8035   -7.0123 H   0  0  0  0  0  0  0  0  0  0  0  0
    8.8957   -7.0280   -8.9038 H   0  0  0  0  0  0  0  0  0  0  0  0
   13.2082   -8.0810   -8.3366 H   0  0  0  0  0  0  0  0  0  0  0  0
   12.7592   -7.3621   -9.8911 H   0  0  0  0  0  0  0  0  0  0  0  0
   13.2138  -10.3451   -9.3052 H   0  0  0  0  0  0  0  0  0  0  0  0
   14.2604   -9.2745  -10.2613 H   0  0  0  0  0  0  0  0  0  0  0  0
   12.7517  -10.7207  -11.7247 H   0  0  0  0  0  0  0  0  0  0  0  0
   12.4829   -8.9884  -11.9684 H   0  0  0  0  0  0  0  0  0  0  0  0
   10.7831  -10.8576  -10.2137 H   0  0  0  0  0  0  0  0  0  0  0  0
   10.2788  -10.1133  -11.7433 H   0  0  0  0  0  0  0  0  0  0  0  0
    9.3636   -8.9440   -9.7308 H   0  0  0  0  0  0  0  0  0  0  0  0
   10.3306   -7.8685  -10.7646 H   0  0  0  0  0  0  0  0  0  0  0  0
   12.2981   -8.1406   -6.4758 H   0  0  0  0  0  0  0  0  0  0  0  0
   11.3504   -6.8858   -4.6034 H   0  0  0  0  0  0  0  0  0  0  0  0
  1  2  1  0
  1 27  1  0
  1 28  1  0
  1 29  1  0
  2  3  1  0
  2  4  1  0
  2  5  1  6
  3 30  1  0
  3 31  1  0
  3 32  1  0
  4 33  1  0
  4 34  1  0
  4 35  1  0
  5  6  1  0
  6  7  2  0
  6  8  1  0
  8  9  1  0
  8 36  1  0
  9 10  1  0
  9 37  1  0
  9 38  1  0
 10 11  1  0
 10 39  1  0
 10 40  1  0
 11 12  1  0
 11 41  1  0
 12 13  2  0
 12 14  1  0
 14 15  1  0
 14 42  1  0
 15 16  2  0
 15 26  1  0
 16 17  1  0
 16 43  1  0
 17 18  2  0
 17 44  1  0
 18 19  1  0
 18 25  1  0
 19 20  1  0
 19 24  1  0
 20 21  1  0
 20 45  1  0
 20 46  1  0
 21 22  1  0
 21 47  1  0
 21 48  1  0
 22 23  1  0
 22 49  1  0
 22 50  1  0
 23 24  1  0
 23 51  1  0
 23 52  1  0
 24 53  1  0
 24 54  1  0
 25 26  2  0
 25 55  1  0
 26 56  1  0
M  END

