
     RDKit          3D

 39 41  0  0  0  0  0  0  0  0999 V2000
    1.3702   -0.4734    1.6010 C   0  0  0  0  0  0  0  0  0  0  0  0
    2.7725   -0.4810    0.9903 C   0  0  0  0  0  0  0  0  0  0  0  0
    2.7903   -0.9716   -0.4596 C   0  0  0  0  0  0  0  0  0  0  0  0
    4.1887   -0.9542   -1.1154 C   0  0  1  0  0  0  0  0  0  0  0  0
    5.1584   -1.8065   -0.4448 N   0  0  0  0  0  0  0  0  0  0  0  0
    5.5449   -3.0524   -0.8340 C   0  0  0  0  0  0  0  0  0  0  0  0
    6.2511   -3.7768   -0.1579 O   0  0  0  0  0  0  0  0  0  0  0  0
    5.0406   -3.5040   -2.1969 C   0  0  0  0  0  0  0  0  0  0  0  0
    4.5506   -2.4417   -3.0644 N   0  0  0  0  0  0  0  0  0  0  0  0
    4.3314   -2.7749   -4.4769 C   0  0  0  0  0  0  0  0  0  0  0  0
    3.0154   -3.4604   -4.7171 C   0  0  0  0  0  0  0  0  0  0  0  0
    1.8200   -2.8624   -5.0883 C   0  0  0  0  0  0  0  0  0  0  0  0
    0.8979   -3.8834   -5.1394 N   0  0  0  0  0  0  0  0  0  0  0  0
   -0.4393   -3.8853   -5.4542 C   0  0  0  0  0  0  0  0  0  0  0  0
   -1.1345   -5.0646   -5.4268 C   0  0  0  0  0  0  0  0  0  0  0  0
   -0.4770   -6.2812   -5.0759 C   0  0  0  0  0  0  0  0  0  0  0  0
    0.8628   -6.2805   -4.7613 C   0  0  0  0  0  0  0  0  0  0  0  0
    1.5876   -5.0626   -4.7861 C   0  0  0  0  0  0  0  0  0  0  0  0
    2.8651   -4.8029   -4.5307 N   0  0  0  0  0  0  0  0  0  0  0  0
    4.0512   -1.2582   -2.6102 C   0  0  0  0  0  0  0  0  0  0  0  0
    3.4886   -0.4487   -3.3352 O   0  0  0  0  0  0  0  0  0  0  0  0
    1.3861   -0.1112    2.6411 H   0  0  0  0  0  0  0  0  0  0  0  0
    0.9316   -1.4850    1.6072 H   0  0  0  0  0  0  0  0  0  0  0  0
    0.6888    0.1787    1.0297 H   0  0  0  0  0  0  0  0  0  0  0  0
    3.4315   -1.1170    1.6077 H   0  0  0  0  0  0  0  0  0  0  0  0
    3.1999    0.5378    1.0323 H   0  0  0  0  0  0  0  0  0  0  0  0
    2.1369   -0.3363   -1.0791 H   0  0  0  0  0  0  0  0  0  0  0  0
    2.3849   -1.9983   -0.5138 H   0  0  0  0  0  0  0  0  0  0  0  0
    4.5627    0.0833   -1.0818 H   0  0  0  0  0  0  0  0  0  0  0  0
    5.4922   -1.5295    0.4741 H   0  0  0  0  0  0  0  0  0  0  0  0
    4.2703   -4.2830   -2.0438 H   0  0  0  0  0  0  0  0  0  0  0  0
    5.8873   -4.0117   -2.6839 H   0  0  0  0  0  0  0  0  0  0  0  0
    5.1470   -3.4398   -4.7975 H   0  0  0  0  0  0  0  0  0  0  0  0
    4.3805   -1.8391   -5.0464 H   0  0  0  0  0  0  0  0  0  0  0  0
    1.5659   -1.8251   -5.2866 H   0  0  0  0  0  0  0  0  0  0  0  0
   -0.8811   -2.9222   -5.7140 H   0  0  0  0  0  0  0  0  0  0  0  0
   -2.1963   -5.0591   -5.6774 H   0  0  0  0  0  0  0  0  0  0  0  0
   -1.0448   -7.2138   -5.0596 H   0  0  0  0  0  0  0  0  0  0  0  0
    1.4014   -7.1890   -4.4889 H   0  0  0  0  0  0  0  0  0  0  0  0
  1  2  1  0
  1 22  1  0
  1 23  1  0
  1 24  1  0
  2  3  1  0
  2 25  1  0
  2 26  1  0
  3  4  1  0
  3 27  1  0
  3 28  1  0
  4  5  1  0
  4 20  1  0
  4 29  1  6
  5  6  1  0
  5 30  1  0
  6  7  2  0
  6  8  1  0
  8  9  1  0
  8 31  1  0
  8 32  1  0
  9 10  1  0
  9 20  1  0
 10 11  1  0
 10 33  1  0
 10 34  1  0
 11 12  2  0
 11 19  1  0
 12 13  1  0
 12 35  1  0
 13 14  1  0
 13 18  1  0
 14 15  2  0
 14 36  1  0
 15 16  1  0
 15 37  1  0
 16 17  2  0
 16 38  1  0
 17 18  1  0
 17 39  1  0
 18 19  2  0
 20 21  2  0
M  END

