
     RDKit          3D

 67 69  0  0  0  0  0  0  0  0999 V2000
    1.4107   -1.0523   -0.5907 C   0  0  0  0  0  0  0  0  0  0  0  0
    2.6968   -0.6994   -0.6786 C   0  0  0  0  0  0  0  0  0  0  0  0
    3.8902   -1.6568   -0.6765 C   0  0  0  0  0  0  0  0  0  0  0  0
    5.1509   -0.7686   -0.4962 C   0  0  0  0  0  0  0  0  0  0  0  0
    4.5702    0.5445    0.0523 C   0  0  1  0  0  0  0  0  0  0  0  0
    5.3850    1.8424    0.1128 C   0  0  2  0  0  0  0  0  0  0  0  0
    5.4213    2.2211   -0.9213 H   0  0  0  0  0  0  0  0  0  0  0  0
    6.8762    1.7023    0.4868 C   0  0  0  0  0  0  0  0  0  0  0  0
    7.6826    1.1565   -0.6068 N   0  0  0  0  0  0  0  0  0  0  0  0
    8.0171    2.1399   -1.6197 C   0  0  0  0  0  0  0  0  0  0  0  0
    8.8622    0.4531   -0.1415 C   0  0  0  0  0  0  0  0  0  0  0  0
    4.5803    2.9884    0.8270 C   0  0  2  0  0  0  0  0  0  0  0  0
    4.4356    3.1930    2.4099 C   0  0  1  0  0  0  0  0  0  0  0  0
    4.2229    4.6532    2.5490 O   0  0  0  0  0  0  0  0  0  0  0  0
    5.1334    5.5853    2.2249 C   0  0  0  0  0  0  0  0  0  0  0  0
    4.6411    6.9634    2.5895 C   0  0  0  0  0  0  0  0  0  0  0  0
    6.2166    5.3607    1.7263 O   0  0  0  0  0  0  0  0  0  0  0  0
    3.1268    2.6844    3.0759 C   0  0  0  0  0  0  0  0  0  0  0  0
    3.0680    1.2027    3.4627 C   0  0  0  0  0  0  0  0  0  0  0  0
    4.2619    0.7791    4.3219 C   0  0  2  0  0  0  0  0  0  0  0  0
    4.2846   -0.3213    4.3872 H   0  0  0  0  0  0  0  0  0  0  0  0
    4.1487    1.2099    5.6721 O   0  0  0  0  0  0  0  0  0  0  0  0
    5.5609    1.2378    3.6458 C   0  0  0  0  0  0  0  0  0  0  0  0
    5.6422    2.7486    3.3079 C   0  0  2  0  0  0  0  0  0  0  0  0
    6.5733    2.9058    2.7454 H   0  0  0  0  0  0  0  0  0  0  0  0
    5.8184    3.5635    4.6180 C   0  0  0  0  0  0  0  0  0  0  0  0
    6.4035    4.8385    4.4757 O   0  0  0  0  0  0  0  0  0  0  0  0
    3.2160    3.1328    0.0945 C   0  0  0  0  0  0  0  0  0  0  0  0
    2.4048    1.8342   -0.1049 C   0  0  0  0  0  0  0  0  0  0  0  0
    3.2453    0.7219   -0.7544 C   0  0  2  0  0  0  0  0  0  0  0  0
    3.4759    1.0411   -2.2547 C   0  0  0  0  0  0  0  0  0  0  0  0
    1.1088   -2.1026   -0.5274 H   0  0  0  0  0  0  0  0  0  0  0  0
    0.6080   -0.3093   -0.5837 H   0  0  0  0  0  0  0  0  0  0  0  0
    3.9321   -2.2493   -1.6055 H   0  0  0  0  0  0  0  0  0  0  0  0
    3.7873   -2.3837    0.1460 H   0  0  0  0  0  0  0  0  0  0  0  0
    5.6767   -0.6001   -1.4462 H   0  0  0  0  0  0  0  0  0  0  0  0
    5.8864   -1.2224    0.1849 H   0  0  0  0  0  0  0  0  0  0  0  0
    4.2459    0.3120    1.0813 H   0  0  0  0  0  0  0  0  0  0  0  0
    7.0028    1.0313    1.3470 H   0  0  0  0  0  0  0  0  0  0  0  0
    7.2650    2.6961    0.7980 H   0  0  0  0  0  0  0  0  0  0  0  0
    7.1111    2.6272   -2.0103 H   0  0  0  0  0  0  0  0  0  0  0  0
    8.5196    1.6524   -2.4704 H   0  0  0  0  0  0  0  0  0  0  0  0
    8.6904    2.9436   -1.2399 H   0  0  0  0  0  0  0  0  0  0  0  0
    8.5789   -0.3593    0.5464 H   0  0  0  0  0  0  0  0  0  0  0  0
    9.5907    1.1097    0.3900 H   0  0  0  0  0  0  0  0  0  0  0  0
    9.3916   -0.0011   -0.9947 H   0  0  0  0  0  0  0  0  0  0  0  0
    5.1613    3.8741    0.5545 H   0  0  0  0  0  0  0  0  0  0  0  0
    3.5540    7.0538    2.4627 H   0  0  0  0  0  0  0  0  0  0  0  0
    5.1727    7.7151    1.9924 H   0  0  0  0  0  0  0  0  0  0  0  0
    4.8812    7.1193    3.6534 H   0  0  0  0  0  0  0  0  0  0  0  0
    2.2626    2.9553    2.4567 H   0  0  0  0  0  0  0  0  0  0  0  0
    3.0095    3.2929    3.9876 H   0  0  0  0  0  0  0  0  0  0  0  0
    3.0325    0.5653    2.5672 H   0  0  0  0  0  0  0  0  0  0  0  0
    2.1346    1.0050    4.0150 H   0  0  0  0  0  0  0  0  0  0  0  0
    3.8425    2.1247    5.6897 H   0  0  0  0  0  0  0  0  0  0  0  0
    5.6646    0.6471    2.7250 H   0  0  0  0  0  0  0  0  0  0  0  0
    6.4166    0.9661    4.2845 H   0  0  0  0  0  0  0  0  0  0  0  0
    6.4193    2.9435    5.3096 H   0  0  0  0  0  0  0  0  0  0  0  0
    4.8529    3.7386    5.1201 H   0  0  0  0  0  0  0  0  0  0  0  0
    7.0460    4.8161    3.7529 H   0  0  0  0  0  0  0  0  0  0  0  0
    3.4300    3.5615   -0.8985 H   0  0  0  0  0  0  0  0  0  0  0  0
    2.5954    3.8890    0.5992 H   0  0  0  0  0  0  0  0  0  0  0  0
    1.5187    2.0603   -0.7232 H   0  0  0  0  0  0  0  0  0  0  0  0
    2.0160    1.4672    0.8564 H   0  0  0  0  0  0  0  0  0  0  0  0
    2.5029    1.0679   -2.7690 H   0  0  0  0  0  0  0  0  0  0  0  0
    3.9645    2.0139   -2.4154 H   0  0  0  0  0  0  0  0  0  0  0  0
    4.0891    0.2787   -2.7564 H   0  0  0  0  0  0  0  0  0  0  0  0
  1  2  2  0
  1 32  1  0
  1 33  1  0
  2  3  1  0
  2 30  1  0
  3  4  1  0
  3 34  1  0
  3 35  1  0
  4  5  1  0
  4 36  1  0
  4 37  1  0
  5  6  1  0
  5 30  1  0
  5 38  1  1
  6  7  1  6
  6  8  1  0
  6 12  1  0
  8  9  1  0
  8 39  1  0
  8 40  1  0
  9 10  1  0
  9 11  1  0
 10 41  1  0
 10 42  1  0
 10 43  1  0
 11 44  1  0
 11 45  1  0
 11 46  1  0
 12 13  1  0
 12 28  1  0
 12 47  1  6
 13 14  1  6
 13 18  1  0
 13 24  1  0
 14 15  1  0
 15 16  1  0
 15 17  2  0
 16 48  1  0
 16 49  1  0
 16 50  1  0
 18 19  1  0
 18 51  1  0
 18 52  1  0
 19 20  1  0
 19 53  1  0
 19 54  1  0
 20 21  1  1
 20 22  1  0
 20 23  1  0
 22 55  1  0
 23 24  1  0
 23 56  1  0
 23 57  1  0
 24 25  1  6
 24 26  1  0
 26 27  1  0
 26 58  1  0
 26 59  1  0
 27 60  1  0
 28 29  1  0
 28 61  1  0
 28 62  1  0
 29 30  1  0
 29 63  1  0
 29 64  1  0
 30 31  1  6
 31 65  1  0
 31 66  1  0
 31 67  1  0
M  END

