
     RDKit          3D

 48 52  0  0  0  0  0  0  0  0999 V2000
    0.9180   -0.6094    0.2733 C   0  0  0  0  0  0  0  0  0  0  0  0
    2.4072   -0.3455    0.2676 C   0  0  0  0  0  0  0  0  0  0  0  0
    3.1085   -0.2441    1.3478 N   0  0  0  0  0  0  0  0  0  0  0  0
    2.5179   -0.3946    2.5450 N   0  0  0  0  0  0  0  0  0  0  0  0
    3.2548   -0.2734    3.7094 C   0  0  0  0  0  0  0  0  0  0  0  0
    4.4347    0.0101    3.7497 O   0  0  0  0  0  0  0  0  0  0  0  0
    2.4170   -0.5427    4.9150 C   0  0  0  0  0  0  0  0  0  0  0  0
    1.1481   -1.0237    4.7776 N   0  0  0  0  0  0  0  0  0  0  0  0
    0.5996   -1.1691    5.9260 N   0  0  0  0  0  0  0  0  0  0  0  0
    1.5062   -0.7781    6.8672 N   0  0  0  0  0  0  0  0  0  0  0  0
    1.1312   -0.9711    8.2063 C   0  0  0  0  0  0  0  0  0  0  0  0
    1.9544   -1.3078    9.1579 N   0  0  0  0  0  0  0  0  0  0  0  0
    1.2055   -1.4101   10.2696 O   0  0  0  0  0  0  0  0  0  0  0  0
   -0.1308   -1.1759   10.0181 N   0  0  0  0  0  0  0  0  0  0  0  0
   -0.2089   -0.8992    8.7376 C   0  0  0  0  0  0  0  0  0  0  0  0
   -1.3448   -0.5560    8.0699 N   0  0  0  0  0  0  0  0  0  0  0  0
    2.6780   -0.3450    6.2798 C   0  0  0  0  0  0  0  0  0  0  0  0
    3.8103    0.2419    6.9785 C   0  0  0  0  0  0  0  0  0  0  0  0
    5.1463    0.1534    6.6283 C   0  0  0  0  0  0  0  0  0  0  0  0
    5.9942    0.9173    7.4736 C   0  0  0  0  0  0  0  0  0  0  0  0
    5.3005    1.5988    8.4443 C   0  0  0  0  0  0  0  0  0  0  0  0
    3.6065    1.3090    8.3553 S   0  0  0  0  0  0  0  0  0  0  0  0
    3.1503   -0.2030   -1.0102 C   0  0  0  0  0  0  0  0  0  0  0  0
    4.5302    0.1797   -0.9777 C   0  0  0  0  0  0  0  0  0  0  0  0
    5.2543    0.3144   -2.1360 C   0  0  0  0  0  0  0  0  0  0  0  0
    4.6660    0.0722   -3.4123 C   0  0  0  0  0  0  0  0  0  0  0  0
    5.3884    0.2015   -4.6286 C   0  0  0  0  0  0  0  0  0  0  0  0
    4.7796   -0.0473   -5.8429 C   0  0  0  0  0  0  0  0  0  0  0  0
    3.4178   -0.4372   -5.8923 C   0  0  0  0  0  0  0  0  0  0  0  0
    2.6899   -0.5702   -4.7274 C   0  0  0  0  0  0  0  0  0  0  0  0
    3.2881   -0.3199   -3.4604 C   0  0  0  0  0  0  0  0  0  0  0  0
    2.5622   -0.4464   -2.2435 C   0  0  0  0  0  0  0  0  0  0  0  0
    0.4197   -0.0486    1.0807 H   0  0  0  0  0  0  0  0  0  0  0  0
    0.6973   -1.6806    0.4271 H   0  0  0  0  0  0  0  0  0  0  0  0
    0.4420   -0.3038   -0.6655 H   0  0  0  0  0  0  0  0  0  0  0  0
    1.5408   -0.6756    2.6432 H   0  0  0  0  0  0  0  0  0  0  0  0
   -2.2169   -0.7171    8.5613 H   0  0  0  0  0  0  0  0  0  0  0  0
   -1.3388   -0.7731    7.0773 H   0  0  0  0  0  0  0  0  0  0  0  0
    5.4860   -0.4217    5.7700 H   0  0  0  0  0  0  0  0  0  0  0  0
    7.0780    0.9653    7.3622 H   0  0  0  0  0  0  0  0  0  0  0  0
    5.6938    2.2588    9.2168 H   0  0  0  0  0  0  0  0  0  0  0  0
    4.9870    0.3608   -0.0043 H   0  0  0  0  0  0  0  0  0  0  0  0
    6.3056    0.6126   -2.0905 H   0  0  0  0  0  0  0  0  0  0  0  0
    6.4392    0.5017   -4.5878 H   0  0  0  0  0  0  0  0  0  0  0  0
    5.3468    0.0552   -6.7715 H   0  0  0  0  0  0  0  0  0  0  0  0
    2.9456   -0.6323   -6.8585 H   0  0  0  0  0  0  0  0  0  0  0  0
    1.6389   -0.8708   -4.7644 H   0  0  0  0  0  0  0  0  0  0  0  0
    1.5177   -0.7561   -2.3141 H   0  0  0  0  0  0  0  0  0  0  0  0
  1  2  1  0
  1 33  1  0
  1 34  1  0
  1 35  1  0
  2  3  2  0
  2 23  1  0
  3  4  1  0
  4  5  1  0
  4 36  1  0
  5  6  2  0
  5  7  1  0
  7  8  1  0
  7 17  2  0
  8  9  2  0
  9 10  1  0
 10 11  1  0
 10 17  1  0
 11 12  2  0
 11 15  1  0
 12 13  1  0
 13 14  1  0
 14 15  2  0
 15 16  1  0
 16 37  1  0
 16 38  1  0
 17 18  1  0
 18 19  2  0
 18 22  1  0
 19 20  1  0
 19 39  1  0
 20 21  2  0
 20 40  1  0
 21 22  1  0
 21 41  1  0
 23 24  2  0
 23 32  1  0
 24 25  1  0
 24 42  1  0
 25 26  2  0
 25 43  1  0
 26 27  1  0
 26 31  1  0
 27 28  2  0
 27 44  1  0
 28 29  1  0
 28 45  1  0
 29 30  2  0
 29 46  1  0
 30 31  1  0
 30 47  1  0
 31 32  2  0
 32 48  1  0
M  END

