
     RDKit          3D

 59 61  0  0  0  0  0  0  0  0999 V2000
   10.0105   -2.8672   -9.1626 C   0  0  0  0  0  0  0  0  0  0  0  0
    9.6600   -4.2307   -9.0994 O   0  0  0  0  0  0  0  0  0  0  0  0
    9.0454   -4.7084   -7.9860 C   0  0  0  0  0  0  0  0  0  0  0  0
    8.7184   -3.9352   -6.8627 C   0  0  0  0  0  0  0  0  0  0  0  0
    8.0793   -4.5055   -5.7505 C   0  0  0  0  0  0  0  0  0  0  0  0
    7.7745   -5.8652   -5.7775 C   0  0  0  0  0  0  0  0  0  0  0  0
    8.0976   -6.6433   -6.9032 C   0  0  0  0  0  0  0  0  0  0  0  0
    8.7281   -6.0803   -8.0012 C   0  0  0  0  0  0  0  0  0  0  0  0
    7.6573   -8.0639   -6.6816 C   0  0  1  0  0  0  0  0  0  0  0  0
    8.7770   -9.1226   -6.7799 C   0  0  0  0  0  0  0  0  0  0  0  0
    8.2873  -10.5723   -6.7513 C   0  0  0  0  0  0  0  0  0  0  0  0
    9.4191  -11.4856   -6.8485 N   0  0  0  0  0  0  0  0  0  0  0  0
    7.0101   -8.0100   -5.2949 C   0  0  0  0  0  0  0  0  0  0  0  0
    6.4715   -8.9386   -4.7372 O   0  0  0  0  0  0  0  0  0  0  0  0
    7.1394   -6.6910   -4.7887 N   0  0  0  0  0  0  0  0  0  0  0  0
    6.7261   -6.2069   -3.5188 C   0  0  0  0  0  0  0  0  0  0  0  0
    6.8251   -5.0211   -3.2795 O   0  0  0  0  0  0  0  0  0  0  0  0
    6.0975   -7.1693   -2.5158 C   0  0  2  0  0  0  0  0  0  0  0  0
    6.4195   -8.1975   -2.7197 H   0  0  0  0  0  0  0  0  0  0  0  0
    4.5714   -7.0902   -2.8034 C   0  0  0  0  0  0  0  0  0  0  0  0
    3.7072   -7.8737   -1.8107 C   0  0  2  0  0  0  0  0  0  0  0  0
    3.9924   -8.9409   -1.8812 H   0  0  0  0  0  0  0  0  0  0  0  0
    2.2190   -7.7551   -2.1485 C   0  0  0  0  0  0  0  0  0  0  0  0
    4.0276   -7.3960   -0.3918 C   0  0  0  0  0  0  0  0  0  0  0  0
    5.5167   -7.5401   -0.0775 C   0  0  0  0  0  0  0  0  0  0  0  0
    6.4592   -6.7970   -1.0515 C   0  0  1  0  0  0  0  0  0  0  0  0
    6.2921   -5.7109   -0.9422 H   0  0  0  0  0  0  0  0  0  0  0  0
    7.9409   -7.1028   -0.6638 C   0  0  2  0  0  0  0  0  0  0  0  0
    8.3038   -6.4830    0.6969 C   0  0  0  0  0  0  0  0  0  0  0  0
    9.0048   -6.6845   -1.6898 C   0  0  0  0  0  0  0  0  0  0  0  0
   10.4887   -2.7115  -10.1391 H   0  0  0  0  0  0  0  0  0  0  0  0
   10.7247   -2.5878   -8.3667 H   0  0  0  0  0  0  0  0  0  0  0  0
    9.1250   -2.2099   -9.0898 H   0  0  0  0  0  0  0  0  0  0  0  0
    8.9533   -2.8713   -6.8324 H   0  0  0  0  0  0  0  0  0  0  0  0
    7.8252   -3.8970   -4.8880 H   0  0  0  0  0  0  0  0  0  0  0  0
    8.9867   -6.6673   -8.8849 H   0  0  0  0  0  0  0  0  0  0  0  0
    6.8542   -8.3411   -7.3902 H   0  0  0  0  0  0  0  0  0  0  0  0
    9.5133   -8.9730   -5.9731 H   0  0  0  0  0  0  0  0  0  0  0  0
    9.3199   -8.9433   -7.7250 H   0  0  0  0  0  0  0  0  0  0  0  0
    7.5213  -10.7018   -7.5498 H   0  0  0  0  0  0  0  0  0  0  0  0
    7.7652  -10.7582   -5.8008 H   0  0  0  0  0  0  0  0  0  0  0  0
    9.8265  -11.4569   -7.7843 H   0  0  0  0  0  0  0  0  0  0  0  0
    9.1179  -12.4477   -6.6981 H   0  0  0  0  0  0  0  0  0  0  0  0
    4.3852   -7.4540   -3.8270 H   0  0  0  0  0  0  0  0  0  0  0  0
    4.2652   -6.0286   -2.7778 H   0  0  0  0  0  0  0  0  0  0  0  0
    2.0050   -8.1241   -3.1648 H   0  0  0  0  0  0  0  0  0  0  0  0
    1.8837   -6.7049   -2.0973 H   0  0  0  0  0  0  0  0  0  0  0  0
    1.6021   -8.3358   -1.4432 H   0  0  0  0  0  0  0  0  0  0  0  0
    3.4343   -7.9630    0.3465 H   0  0  0  0  0  0  0  0  0  0  0  0
    3.7219   -6.3376   -0.2904 H   0  0  0  0  0  0  0  0  0  0  0  0
    5.7773   -8.6153   -0.0909 H   0  0  0  0  0  0  0  0  0  0  0  0
    5.7045   -7.1953    0.9502 H   0  0  0  0  0  0  0  0  0  0  0  0
    8.0134   -8.2030   -0.5611 H   0  0  0  0  0  0  0  0  0  0  0  0
    8.2378   -5.3823    0.6522 H   0  0  0  0  0  0  0  0  0  0  0  0
    9.3375   -6.7406    0.9784 H   0  0  0  0  0  0  0  0  0  0  0  0
    7.6508   -6.8247    1.5129 H   0  0  0  0  0  0  0  0  0  0  0  0
    8.9896   -5.5999   -1.8745 H   0  0  0  0  0  0  0  0  0  0  0  0
    8.8876   -7.1949   -2.6574 H   0  0  0  0  0  0  0  0  0  0  0  0
   10.0071   -6.9497   -1.3158 H   0  0  0  0  0  0  0  0  0  0  0  0
  1  2  1  0
  1 31  1  0
  1 32  1  0
  1 33  1  0
  2  3  1  0
  3  4  2  0
  3  8  1  0
  4  5  1  0
  4 34  1  0
  5  6  2  0
  5 35  1  0
  6  7  1  0
  6 15  1  0
  7  8  2  0
  7  9  1  0
  8 36  1  0
  9 10  1  0
  9 13  1  0
  9 37  1  6
 10 11  1  0
 10 38  1  0
 10 39  1  0
 11 12  1  0
 11 40  1  0
 11 41  1  0
 12 42  1  0
 12 43  1  0
 13 14  2  0
 13 15  1  0
 15 16  1  0
 16 17  2  0
 16 18  1  0
 18 19  1  6
 18 20  1  0
 18 26  1  0
 20 21  1  0
 20 44  1  0
 20 45  1  0
 21 22  1  1
 21 23  1  0
 21 24  1  0
 23 46  1  0
 23 47  1  0
 23 48  1  0
 24 25  1  0
 24 49  1  0
 24 50  1  0
 25 26  1  0
 25 51  1  0
 25 52  1  0
 26 27  1  6
 26 28  1  0
 28 29  1  0
 28 30  1  0
 28 53  1  1
 29 54  1  0
 29 55  1  0
 29 56  1  0
 30 57  1  0
 30 58  1  0
 30 59  1  0
M  END

