
     RDKit          3D

 55 58  0  0  0  0  0  0  0  0999 V2000
    7.6673   -1.3398    0.9194 N   0  0  0  0  0  0  0  0  0  0  0  0
    8.7835   -1.2515    1.2232 C   0  0  0  0  0  0  0  0  0  0  0  0
   10.1824   -1.1092    1.6028 C   0  0  1  0  0  0  0  0  0  0  0  0
   10.5724    0.2101    2.0045 N   0  0  0  0  0  0  0  0  0  0  0  0
   10.4407    0.7567    3.2586 C   0  0  0  0  0  0  0  0  0  0  0  0
   10.6579    1.9180    3.5173 O   0  0  0  0  0  0  0  0  0  0  0  0
   10.0625   -0.1765    4.1617 O   0  0  0  0  0  0  0  0  0  0  0  0
   10.1118    0.2087    5.5368 C   0  0  1  0  0  0  0  0  0  0  0  0
    9.6774    1.2142    5.6282 H   0  0  0  0  0  0  0  0  0  0  0  0
    9.2525   -0.8037    6.3163 C   0  0  0  0  0  0  0  0  0  0  0  0
    9.1872   -0.3972    7.7691 C   0  0  0  0  0  0  0  0  0  0  0  0
    8.4039    0.6971    8.1698 C   0  0  0  0  0  0  0  0  0  0  0  0
    8.5243    1.2286    9.4530 C   0  0  0  0  0  0  0  0  0  0  0  0
    9.4274    0.6813   10.3727 C   0  0  0  0  0  0  0  0  0  0  0  0
   10.1361   -0.4750   10.0053 C   0  0  0  0  0  0  0  0  0  0  0  0
   11.2269   -1.2196   11.1472 Cl  0  0  0  0  0  0  0  0  0  0  0  0
   10.0208   -1.0030    8.7175 C   0  0  0  0  0  0  0  0  0  0  0  0
    9.6496    1.2799   11.5820 O   0  0  0  0  0  0  0  0  0  0  0  0
   10.4105    2.5002   11.5098 C   0  0  0  0  0  0  0  0  0  0  0  0
   11.7651    2.2669   10.8991 C   0  0  0  0  0  0  0  0  0  0  0  0
   12.1071    2.6486    9.6628 C   0  0  0  0  0  0  0  0  0  0  0  0
   13.4167    2.2991    9.0227 C   0  0  0  0  0  0  0  0  0  0  0  0
   13.1563    1.4824    7.8709 O   0  0  0  0  0  0  0  0  0  0  0  0
   14.1533    0.7155    7.3478 C   0  0  0  0  0  0  0  0  0  0  0  0
   15.5040    0.9101    7.6805 C   0  0  0  0  0  0  0  0  0  0  0  0
   16.5004    0.0917    7.1469 C   0  0  0  0  0  0  0  0  0  0  0  0
   16.1504   -0.9407    6.2765 C   0  0  0  0  0  0  0  0  0  0  0  0
   17.5017   -2.0756    5.5541 Br  0  0  0  0  0  0  0  0  0  0  0  0
   14.8159   -1.1432    5.9352 C   0  0  0  0  0  0  0  0  0  0  0  0
   13.8016   -0.3179    6.4420 C   0  0  0  0  0  0  0  0  0  0  0  0
   12.4055   -0.6641    5.9640 C   0  0  0  0  0  0  0  0  0  0  0  0
   12.1663   -1.7735    5.5019 O   0  0  0  0  0  0  0  0  0  0  0  0
   11.4744    0.3325    6.0068 N   0  0  0  0  0  0  0  0  0  0  0  0
   10.8679   -2.3079    2.2392 C   0  0  0  0  0  0  0  0  0  0  0  0
   11.2102   -1.9387    0.8348 C   0  0  0  0  0  0  0  0  0  0  0  0
   10.7321    0.9001    1.2772 H   0  0  0  0  0  0  0  0  0  0  0  0
    9.6882   -1.8038    6.1918 H   0  0  0  0  0  0  0  0  0  0  0  0
    8.2529   -0.8054    5.8543 H   0  0  0  0  0  0  0  0  0  0  0  0
    7.7137    1.1610    7.4592 H   0  0  0  0  0  0  0  0  0  0  0  0
    7.9356    2.0985    9.7544 H   0  0  0  0  0  0  0  0  0  0  0  0
   10.6284   -1.8680    8.4447 H   0  0  0  0  0  0  0  0  0  0  0  0
   10.4908    2.8414   12.5524 H   0  0  0  0  0  0  0  0  0  0  0  0
    9.8550    3.2652   10.9375 H   0  0  0  0  0  0  0  0  0  0  0  0
   12.4582    1.6566   11.4898 H   0  0  0  0  0  0  0  0  0  0  0  0
   11.4017    3.2236    9.0501 H   0  0  0  0  0  0  0  0  0  0  0  0
   14.0485    1.7444    9.7355 H   0  0  0  0  0  0  0  0  0  0  0  0
   13.9652    3.2063    8.7061 H   0  0  0  0  0  0  0  0  0  0  0  0
   15.7957    1.7111    8.3589 H   0  0  0  0  0  0  0  0  0  0  0  0
   17.5450    0.2612    7.4136 H   0  0  0  0  0  0  0  0  0  0  0  0
   14.5176   -1.9546    5.2710 H   0  0  0  0  0  0  0  0  0  0  0  0
   11.7551    1.2225    6.4025 H   0  0  0  0  0  0  0  0  0  0  0  0
   10.2390   -3.1852    2.4075 H   0  0  0  0  0  0  0  0  0  0  0  0
   11.5608   -2.0876    3.0542 H   0  0  0  0  0  0  0  0  0  0  0  0
   10.8395   -2.5578    0.0143 H   0  0  0  0  0  0  0  0  0  0  0  0
   12.1627   -1.4366    0.6464 H   0  0  0  0  0  0  0  0  0  0  0  0
  1  2  3  0
  3  2  1  6
  3  4  1  0
  3 34  1  0
  3 35  1  0
  4  5  1  0
  4 36  1  0
  5  6  2  0
  5  7  1  0
  7  8  1  0
  8  9  1  6
  8 10  1  0
  8 33  1  0
 10 11  1  0
 10 37  1  0
 10 38  1  0
 11 12  2  0
 11 17  1  0
 12 13  1  0
 12 39  1  0
 13 14  2  0
 13 40  1  0
 14 15  1  0
 14 18  1  0
 15 16  1  0
 15 17  2  0
 17 41  1  0
 18 19  1  0
 19 20  1  0
 19 42  1  0
 19 43  1  0
 20 21  2  0
 20 44  1  0
 21 22  1  0
 21 45  1  0
 22 23  1  0
 22 46  1  0
 22 47  1  0
 23 24  1  0
 24 25  2  0
 24 30  1  0
 25 26  1  0
 25 48  1  0
 26 27  2  0
 26 49  1  0
 27 28  1  0
 27 29  1  0
 29 30  2  0
 29 50  1  0
 30 31  1  0
 31 32  2  0
 31 33  1  0
 33 51  1  0
 34 35  1  0
 34 52  1  0
 34 53  1  0
 35 54  1  0
 35 55  1  0
M  END

