
     RDKit          3D

 47 48  0  0  0  0  0  0  0  0999 V2000
    2.9979    3.0430    2.3093 C   0  0  0  0  0  0  0  0  0  0  0  0
    2.4009    3.7933    1.1085 C   0  0  0  0  0  0  0  0  0  0  0  0
    2.6735    3.1155   -0.2199 C   0  0  0  0  0  0  0  0  0  0  0  0
    1.7448    2.2749   -0.5973 N   0  0  0  0  0  0  0  0  0  0  0  0
    1.9363    1.6046   -1.7225 N   0  0  0  0  0  0  0  0  0  0  0  0
    1.2022    0.9472   -1.9814 H   0  0  0  0  0  0  0  0  0  0  0  0
    3.0194    1.6573   -2.5828 C   0  0  0  0  0  0  0  0  0  0  0  0
    3.0269    0.9014   -3.5583 O   0  0  0  0  0  0  0  0  0  0  0  0
    4.0397    2.6438   -2.1971 C   0  0  0  0  0  0  0  0  0  0  0  0
    5.2383    2.8619   -3.1093 C   0  0  0  0  0  0  0  0  0  0  0  0
    6.0342    3.7837   -2.9362 O   0  0  0  0  0  0  0  0  0  0  0  0
    5.3709    1.9795   -4.1279 N   0  0  0  0  0  0  0  0  0  0  0  0
    6.4547    2.0947   -5.0836 C   0  0  0  0  0  0  0  0  0  0  0  0
    7.7727    1.4558   -4.5932 C   0  0  0  0  0  0  0  0  0  0  0  0
    8.8964    1.6122   -5.5913 C   0  0  0  0  0  0  0  0  0  0  0  0
    9.6450    2.7997   -5.6481 C   0  0  0  0  0  0  0  0  0  0  0  0
   10.6625    2.9646   -6.5897 C   0  0  0  0  0  0  0  0  0  0  0  0
   10.9598    1.9518   -7.5130 C   0  0  0  0  0  0  0  0  0  0  0  0
   12.0394    2.1402   -8.5621 C   0  0  0  0  0  0  0  0  0  0  0  0
   12.6609    0.9398   -8.9673 O   0  0  0  0  0  0  0  0  0  0  0  0
   10.2166    0.7644   -7.4600 C   0  0  0  0  0  0  0  0  0  0  0  0
    9.2028    0.5993   -6.5132 C   0  0  0  0  0  0  0  0  0  0  0  0
    3.8786    3.3425   -1.0065 C   0  0  0  0  0  0  0  0  0  0  0  0
    4.8674    4.3670   -0.4898 C   0  0  0  0  0  0  0  0  0  0  0  0
    4.5888    5.7851   -1.0185 C   0  0  0  0  0  0  0  0  0  0  0  0
    2.7487    3.5563    3.2515 H   0  0  0  0  0  0  0  0  0  0  0  0
    4.0955    2.9683    2.2484 H   0  0  0  0  0  0  0  0  0  0  0  0
    2.5960    2.0193    2.3631 H   0  0  0  0  0  0  0  0  0  0  0  0
    2.7595    4.8329    1.0940 H   0  0  0  0  0  0  0  0  0  0  0  0
    1.3076    3.8362    1.2220 H   0  0  0  0  0  0  0  0  0  0  0  0
    4.6274    1.2836   -4.2389 H   0  0  0  0  0  0  0  0  0  0  0  0
    6.6325    3.1616   -5.2893 H   0  0  0  0  0  0  0  0  0  0  0  0
    6.1353    1.6190   -6.0239 H   0  0  0  0  0  0  0  0  0  0  0  0
    7.5949    0.3884   -4.3830 H   0  0  0  0  0  0  0  0  0  0  0  0
    8.0437    1.9374   -3.6407 H   0  0  0  0  0  0  0  0  0  0  0  0
    9.4340    3.6011   -4.9337 H   0  0  0  0  0  0  0  0  0  0  0  0
   11.2402    3.8943   -6.6020 H   0  0  0  0  0  0  0  0  0  0  0  0
   12.7757    2.8867   -8.2002 H   0  0  0  0  0  0  0  0  0  0  0  0
   11.5946    2.5663   -9.4788 H   0  0  0  0  0  0  0  0  0  0  0  0
   13.0315    0.5186   -8.1795 H   0  0  0  0  0  0  0  0  0  0  0  0
   10.4482   -0.0356   -8.1672 H   0  0  0  0  0  0  0  0  0  0  0  0
    8.6404   -0.3392   -6.4866 H   0  0  0  0  0  0  0  0  0  0  0  0
    5.8797    4.0827   -0.7940 H   0  0  0  0  0  0  0  0  0  0  0  0
    4.8299    4.3720    0.6086 H   0  0  0  0  0  0  0  0  0  0  0  0
    4.7220    5.8108   -2.1083 H   0  0  0  0  0  0  0  0  0  0  0  0
    5.2985    6.4994   -0.5725 H   0  0  0  0  0  0  0  0  0  0  0  0
    3.5689    6.1264   -0.7773 H   0  0  0  0  0  0  0  0  0  0  0  0
  1  2  1  0
  1 26  1  0
  1 27  1  0
  1 28  1  0
  2  3  1  0
  2 29  1  0
  2 30  1  0
  3  4  2  0
  3 23  1  0
  4  5  1  0
  5  6  1  0
  5  7  1  0
  7  8  2  0
  7  9  1  0
  9 10  1  0
  9 23  2  0
 10 11  2  0
 10 12  1  0
 12 13  1  0
 12 31  1  0
 13 14  1  0
 13 32  1  0
 13 33  1  0
 14 15  1  0
 14 34  1  0
 14 35  1  0
 15 16  2  0
 15 22  1  0
 16 17  1  0
 16 36  1  0
 17 18  2  0
 17 37  1  0
 18 19  1  0
 18 21  1  0
 19 20  1  0
 19 38  1  0
 19 39  1  0
 20 40  1  0
 21 22  2  0
 21 41  1  0
 22 42  1  0
 23 24  1  0
 24 25  1  0
 24 43  1  0
 24 44  1  0
 25 45  1  0
 25 46  1  0
 25 47  1  0
M  END

