
     RDKit          3D

 44 46  0  0  0  0  0  0  0  0999 V2000
    1.9325    0.6141   -0.2161 O   0  0  0  0  0  0  0  0  0  0  0  0
    2.0773   -0.4081   -0.8332 C   0  0  0  0  0  0  0  0  0  0  0  0
    1.5747   -0.5251   -2.0854 O   0  0  0  0  0  0  0  0  0  0  0  0
    2.7989   -1.6073   -0.2861 C   0  0  0  0  0  0  0  0  0  0  0  0
    2.9945   -1.6810    1.1023 C   0  0  0  0  0  0  0  0  0  0  0  0
    3.6623   -2.7641    1.6683 C   0  0  0  0  0  0  0  0  0  0  0  0
    4.1705   -3.7963    0.8620 C   0  0  0  0  0  0  0  0  0  0  0  0
    4.9415   -4.9526    1.4704 C   0  0  0  0  0  0  0  0  0  0  0  0
    4.4560   -5.3080    2.7925 N   0  0  0  0  0  0  0  0  0  0  0  0
    5.2436   -6.2700    3.5284 C   0  0  1  0  0  0  0  0  0  0  0  0
    6.2942   -5.9242    3.5236 H   0  0  0  0  0  0  0  0  0  0  0  0
    4.7988   -6.4479    4.9879 C   0  0  0  0  0  0  0  0  0  0  0  0
    5.5782   -7.6853    5.4600 C   0  0  0  0  0  0  0  0  0  0  0  0
    5.7568   -8.5748    4.1945 C   0  0  0  0  0  0  0  0  0  0  0  0
    5.2629   -7.7323    2.9988 C   0  0  1  0  0  0  0  0  0  0  0  0
    5.8940   -7.8415    2.1016 H   0  0  0  0  0  0  0  0  0  0  0  0
    3.9061   -8.0338    2.6489 O   0  0  0  0  0  0  0  0  0  0  0  0
    3.5972   -9.1318    1.9208 C   0  0  0  0  0  0  0  0  0  0  0  0
    4.5425  -10.0588    1.4515 C   0  0  0  0  0  0  0  0  0  0  0  0
    4.0914  -11.1422    0.6964 C   0  0  0  0  0  0  0  0  0  0  0  0
    4.9987  -12.0216    0.2524 F   0  0  0  0  0  0  0  0  0  0  0  0
    2.7521  -11.3515    0.3891 C   0  0  0  0  0  0  0  0  0  0  0  0
    1.8441  -10.4099    0.8778 C   0  0  0  0  0  0  0  0  0  0  0  0
    0.5446  -10.5757    0.6039 F   0  0  0  0  0  0  0  0  0  0  0  0
    2.2316   -9.3116    1.6330 C   0  0  0  0  0  0  0  0  0  0  0  0
    3.9864   -3.7145   -0.5257 C   0  0  0  0  0  0  0  0  0  0  0  0
    3.3131   -2.6326   -1.0953 C   0  0  0  0  0  0  0  0  0  0  0  0
    1.6445   -1.4397   -2.3921 H   0  0  0  0  0  0  0  0  0  0  0  0
    2.6091   -0.8694    1.7227 H   0  0  0  0  0  0  0  0  0  0  0  0
    3.7973   -2.8323    2.7494 H   0  0  0  0  0  0  0  0  0  0  0  0
    6.0011   -4.6490    1.5741 H   0  0  0  0  0  0  0  0  0  0  0  0
    4.9418   -5.7958    0.7464 H   0  0  0  0  0  0  0  0  0  0  0  0
    3.4910   -5.6328    2.7349 H   0  0  0  0  0  0  0  0  0  0  0  0
    3.7128   -6.6412    5.0065 H   0  0  0  0  0  0  0  0  0  0  0  0
    4.9864   -5.5480    5.5913 H   0  0  0  0  0  0  0  0  0  0  0  0
    5.0685   -8.2186    6.2758 H   0  0  0  0  0  0  0  0  0  0  0  0
    6.5636   -7.3816    5.8487 H   0  0  0  0  0  0  0  0  0  0  0  0
    5.1793   -9.5085    4.2577 H   0  0  0  0  0  0  0  0  0  0  0  0
    6.8094   -8.8661    4.0534 H   0  0  0  0  0  0  0  0  0  0  0  0
    5.6079   -9.9748    1.6559 H   0  0  0  0  0  0  0  0  0  0  0  0
    2.4265  -12.2078   -0.2005 H   0  0  0  0  0  0  0  0  0  0  0  0
    1.4930   -8.5972    1.9959 H   0  0  0  0  0  0  0  0  0  0  0  0
    4.3787   -4.5052   -1.1716 H   0  0  0  0  0  0  0  0  0  0  0  0
    3.2187   -2.5902   -2.1848 H   0  0  0  0  0  0  0  0  0  0  0  0
  1  2  2  0
  2  3  1  0
  2  4  1  0
  3 28  1  0
  4  5  2  0
  4 27  1  0
  5  6  1  0
  5 29  1  0
  6  7  2  0
  6 30  1  0
  7  8  1  0
  7 26  1  0
  8  9  1  0
  8 31  1  0
  8 32  1  0
  9 10  1  0
  9 33  1  0
 10 11  1  1
 10 12  1  0
 10 15  1  0
 12 13  1  0
 12 34  1  0
 12 35  1  0
 13 14  1  0
 13 36  1  0
 13 37  1  0
 14 15  1  0
 14 38  1  0
 14 39  1  0
 15 16  1  6
 15 17  1  0
 17 18  1  0
 18 19  2  0
 18 25  1  0
 19 20  1  0
 19 40  1  0
 20 21  1  0
 20 22  2  0
 22 23  1  0
 22 41  1  0
 23 24  1  0
 23 25  2  0
 25 42  1  0
 26 27  2  0
 26 43  1  0
 27 44  1  0
M  END

