
     RDKit          3D

 51 57  0  0  0  0  0  0  0  0999 V2000
    1.0387   -0.7085    0.2448 Br  0  0  0  0  0  0  0  0  0  0  0  0
    2.9251   -0.4919    0.1883 C   0  0  0  0  0  0  0  0  0  0  0  0
    3.7155   -1.6198    0.1925 C   0  0  0  0  0  0  0  0  0  0  0  0
    5.1361   -1.5165    0.1516 C   0  0  0  0  0  0  0  0  0  0  0  0
    5.8892   -2.6301    0.1559 N   0  0  0  0  0  0  0  0  0  0  0  0
    7.2152   -2.4834    0.1174 C   0  0  0  0  0  0  0  0  0  0  0  0
    8.0534   -3.6432    0.1194 C   0  0  0  0  0  0  0  0  0  0  0  0
    9.4149   -3.5013    0.0834 C   0  0  0  0  0  0  0  0  0  0  0  0
   10.0635   -2.2182    0.0440 C   0  0  0  0  0  0  0  0  0  0  0  0
   11.4834   -2.1541    0.0027 C   0  0  0  0  0  0  0  0  0  0  0  0
   12.0844   -0.8896   -0.0747 C   0  0  0  0  0  0  0  0  0  0  0  0
   11.3035    0.2749   -0.0880 C   0  0  0  0  0  0  0  0  0  0  0  0
    9.9161    0.2104   -0.0319 C   0  0  0  0  0  0  0  0  0  0  0  0
    9.2736   -1.0407    0.0300 C   0  0  0  0  0  0  0  0  0  0  0  0
    7.8169   -1.1602    0.0724 C   0  0  0  0  0  0  0  0  0  0  0  0
    7.0727   -0.0656    0.0669 N   0  0  0  0  0  0  0  0  0  0  0  0
    5.7332   -0.2099    0.1060 C   0  0  0  0  0  0  0  0  0  0  0  0
    4.8947    0.9390    0.1022 C   0  0  0  0  0  0  0  0  0  0  0  0
    3.5235    0.8111    0.1422 C   0  0  0  0  0  0  0  0  0  0  0  0
    2.4642    2.3879    0.1344 Br  0  0  0  0  0  0  0  0  0  0  0  0
   12.2386   -3.4144    0.0167 C   0  0  0  0  0  0  0  0  0  0  0  0
   13.7290   -3.3667   -0.0898 C   0  0  0  0  0  0  0  0  0  0  0  0
   14.3767   -3.7871   -1.2632 C   0  0  0  0  0  0  0  0  0  0  0  0
   15.7690   -3.7300   -1.3700 C   0  0  0  0  0  0  0  0  0  0  0  0
   16.5368   -3.2458   -0.3072 C   0  0  0  0  0  0  0  0  0  0  0  0
   15.9035   -2.8147    0.8629 C   0  0  0  0  0  0  0  0  0  0  0  0
   14.5114   -2.8716    0.9693 C   0  0  0  0  0  0  0  0  0  0  0  0
   11.5524   -4.5950    0.0703 C   0  0  0  0  0  0  0  0  0  0  0  0
   12.0884   -5.9768    0.0975 C   0  0  0  0  0  0  0  0  0  0  0  0
   13.2632   -6.3158    0.7944 C   0  0  0  0  0  0  0  0  0  0  0  0
   13.7216   -7.6339    0.8131 C   0  0  0  0  0  0  0  0  0  0  0  0
   13.0199   -8.6374    0.1385 C   0  0  0  0  0  0  0  0  0  0  0  0
   11.8450   -8.3148   -0.5472 C   0  0  0  0  0  0  0  0  0  0  0  0
   11.3783   -7.0003   -0.5617 C   0  0  0  0  0  0  0  0  0  0  0  0
   10.1816   -4.6244    0.0868 O   0  0  0  0  0  0  0  0  0  0  0  0
    3.2776   -2.6177    0.2273 H   0  0  0  0  0  0  0  0  0  0  0  0
    7.5903   -4.6289    0.1526 H   0  0  0  0  0  0  0  0  0  0  0  0
   13.1704   -0.8105   -0.1272 H   0  0  0  0  0  0  0  0  0  0  0  0
   11.7982    1.2477   -0.1463 H   0  0  0  0  0  0  0  0  0  0  0  0
    9.2998    1.1099   -0.0418 H   0  0  0  0  0  0  0  0  0  0  0  0
    5.3693    1.9200    0.0670 H   0  0  0  0  0  0  0  0  0  0  0  0
   13.7802   -4.1652   -2.0966 H   0  0  0  0  0  0  0  0  0  0  0  0
   16.2555   -4.0644   -2.2899 H   0  0  0  0  0  0  0  0  0  0  0  0
   17.6257   -3.2016   -0.3907 H   0  0  0  0  0  0  0  0  0  0  0  0
   16.4963   -2.4342    1.6988 H   0  0  0  0  0  0  0  0  0  0  0  0
   14.0219   -2.5379    1.8881 H   0  0  0  0  0  0  0  0  0  0  0  0
   13.8134   -5.5499    1.3396 H   0  0  0  0  0  0  0  0  0  0  0  0
   14.6318   -7.8783    1.3663 H   0  0  0  0  0  0  0  0  0  0  0  0
   13.3831   -9.6681    0.1539 H   0  0  0  0  0  0  0  0  0  0  0  0
   11.2852   -9.0924   -1.0729 H   0  0  0  0  0  0  0  0  0  0  0  0
   10.4556   -6.7560   -1.0897 H   0  0  0  0  0  0  0  0  0  0  0  0
  1  2  1  0
  2  3  2  0
  2 19  1  0
  3  4  1  0
  3 36  1  0
  4  5  2  0
  4 17  1  0
  5  6  1  0
  6  7  2  0
  6 15  1  0
  7  8  1  0
  7 37  1  0
  8  9  2  0
  8 35  1  0
  9 10  1  0
  9 14  1  0
 10 11  2  0
 10 21  1  0
 11 12  1  0
 11 38  1  0
 12 13  2  0
 12 39  1  0
 13 14  1  0
 13 40  1  0
 14 15  2  0
 15 16  1  0
 16 17  2  0
 17 18  1  0
 18 19  2  0
 18 41  1  0
 19 20  1  0
 21 22  1  0
 21 28  2  0
 22 23  2  0
 22 27  1  0
 23 24  1  0
 23 42  1  0
 24 25  2  0
 24 43  1  0
 25 26  1  0
 25 44  1  0
 26 27  2  0
 26 45  1  0
 27 46  1  0
 28 29  1  0
 28 35  1  0
 29 30  2  0
 29 34  1  0
 30 31  1  0
 30 47  1  0
 31 32  2  0
 31 48  1  0
 32 33  1  0
 32 49  1  0
 33 34  2  0
 33 50  1  0
 34 51  1  0
M  END

