
     RDKit          3D

 35 36  0  0  0  0  0  0  0  0999 V2000
    2.5535   -1.3158    0.6606 C   0  0  0  0  0  0  0  0  0  0  0  0
    2.5387    0.0583    0.1692 N   0  0  0  0  0  0  0  0  0  0  0  0
    2.7918    1.3108    1.2714 S   0  0  1  0  0  0  0  0  0  0  0  0
    2.1539    2.4799    0.6600 O   0  0  0  0  0  0  0  0  0  0  0  0
    2.4526    0.8670    2.6272 O   0  0  0  0  0  0  0  0  0  0  0  0
    4.5764    1.5348    1.2156 C   0  0  0  0  0  0  0  0  0  0  0  0
    5.3663    0.9891    2.2304 C   0  0  0  0  0  0  0  0  0  0  0  0
    6.7463    1.1770    2.1464 C   0  0  0  0  0  0  0  0  0  0  0  0
    7.3216    1.8947    1.0891 C   0  0  0  0  0  0  0  0  0  0  0  0
    9.1077    1.8087    0.9605 S   0  0  0  0  0  0  0  0  0  0  0  0
    9.7007    3.4736    1.2137 C   0  0  0  0  0  0  0  0  0  0  0  0
    9.0434    4.5205    0.8107 N   0  0  0  0  0  0  0  0  0  0  0  0
    9.6094    5.7632    1.0247 C   0  0  0  0  0  0  0  0  0  0  0  0
    8.7708    6.9267    0.5813 C   0  0  0  0  0  0  0  0  0  0  0  0
   10.8482    5.9167    1.5887 C   0  0  0  0  0  0  0  0  0  0  0  0
   11.6251    4.7692    2.0194 C   0  0  0  0  0  0  0  0  0  0  0  0
   12.7254    4.7535    2.5326 O   0  0  0  0  0  0  0  0  0  0  0  0
   10.9250    3.5483    1.7967 N   0  0  0  0  0  0  0  0  0  0  0  0
   11.3854    2.7072    2.1392 H   0  0  0  0  0  0  0  0  0  0  0  0
    6.5086    2.4827    0.0782 C   0  0  0  0  0  0  0  0  0  0  0  0
    7.0557    3.1984   -0.9577 N   0  0  0  0  0  0  0  0  0  0  0  0
    5.1152    2.2768    0.1704 C   0  0  0  0  0  0  0  0  0  0  0  0
    2.3776   -1.9866   -0.1933 H   0  0  0  0  0  0  0  0  0  0  0  0
    1.8008   -1.5145    1.4423 H   0  0  0  0  0  0  0  0  0  0  0  0
    3.5478   -1.5540    1.0679 H   0  0  0  0  0  0  0  0  0  0  0  0
    1.7280    0.3158   -0.3939 H   0  0  0  0  0  0  0  0  0  0  0  0
    4.9085    0.4506    3.0601 H   0  0  0  0  0  0  0  0  0  0  0  0
    7.4010    0.7534    2.9110 H   0  0  0  0  0  0  0  0  0  0  0  0
    8.5554    6.8496   -0.4974 H   0  0  0  0  0  0  0  0  0  0  0  0
    9.2654    7.8873    0.7768 H   0  0  0  0  0  0  0  0  0  0  0  0
    7.7994    6.9090    1.1019 H   0  0  0  0  0  0  0  0  0  0  0  0
   11.2926    6.8999    1.7444 H   0  0  0  0  0  0  0  0  0  0  0  0
    7.8533    3.7780   -0.6857 H   0  0  0  0  0  0  0  0  0  0  0  0
    6.3889    3.6818   -1.5493 H   0  0  0  0  0  0  0  0  0  0  0  0
    4.4504    2.7186   -0.5748 H   0  0  0  0  0  0  0  0  0  0  0  0
  1  2  1  0
  1 23  1  0
  1 24  1  0
  1 25  1  0
  3  2  1  6
  2 26  1  0
  3  4  2  0
  3  5  2  0
  3  6  1  0
  6  7  2  0
  6 22  1  0
  7  8  1  0
  7 27  1  0
  8  9  2  0
  8 28  1  0
  9 10  1  0
  9 20  1  0
 10 11  2  0
 11 12  1  0
 11 18  1  0
 12 13  2  0
 13 14  1  0
 13 15  1  0
 14 29  1  0
 14 30  1  0
 14 31  1  0
 15 16  2  0
 15 32  1  0
 16 17  1  0
 16 18  1  0
 18 19  1  0
 20 21  1  0
 20 22  2  0
 21 33  1  0
 21 34  1  0
 22 35  1  0
M  CHG  2  10   1  17  -1
M  END

