
     RDKit          3D

 46 47  0  0  0  0  0  0  0  0999 V2000
    2.1826    0.3351   -2.5247 C   0  0  0  0  0  0  0  0  0  0  0  0
    3.0819    0.2826   -1.3163 C   0  0  0  0  0  0  0  0  0  0  0  0
    3.7671    1.3859   -1.0304 N   0  0  0  0  0  0  0  0  0  0  0  0
    4.5790    1.3276    0.0271 C   0  0  0  0  0  0  0  0  0  0  0  0
    4.7758    0.2091    0.8777 C   0  0  0  0  0  0  0  0  0  0  0  0
    5.7349    0.6671    1.8320 C   0  0  0  0  0  0  0  0  0  0  0  0
    6.0767    1.9200    1.5865 N   0  0  0  0  0  0  0  0  0  0  0  0
    5.3846    2.3260    0.5004 N   0  0  0  0  0  0  0  0  0  0  0  0
    5.5428    3.6773   -0.0451 C   0  0  1  0  0  0  0  0  0  0  0  0
    5.1014    4.7265    0.9788 C   0  0  0  0  0  0  0  0  0  0  0  0
    6.9762    3.8954   -0.5372 C   0  0  0  0  0  0  0  0  0  0  0  0
    4.0339   -0.9445    0.5789 C   0  0  0  0  0  0  0  0  0  0  0  0
    3.1800   -0.9116   -0.5208 C   0  0  0  0  0  0  0  0  0  0  0  0
    2.4724   -2.1694   -0.9682 C   0  0  0  0  0  0  0  0  0  0  0  0
    2.7109   -2.6443   -2.0723 O   0  0  0  0  0  0  0  0  0  0  0  0
    1.5873   -2.7655   -0.1001 N   0  0  0  0  0  0  0  0  0  0  0  0
    1.2241   -2.2380    1.2110 C   0  0  0  0  0  0  0  0  0  0  0  0
    1.0936   -4.1033   -0.4298 C   0  0  0  0  0  0  0  0  0  0  0  0
   -0.3141   -4.1635   -1.0792 C   0  0  1  0  0  0  0  0  0  0  0  0
   -0.3406   -3.5080   -2.4630 C   0  0  0  0  0  0  0  0  0  0  0  0
   -0.7445   -5.6296   -1.1602 C   0  0  0  0  0  0  0  0  0  0  0  0
   -1.2746   -3.5225   -0.2271 O   0  0  0  0  0  0  0  0  0  0  0  0
    2.2051    1.3466   -2.9493 H   0  0  0  0  0  0  0  0  0  0  0  0
    1.1423    0.0779   -2.2643 H   0  0  0  0  0  0  0  0  0  0  0  0
    2.5089   -0.3967   -3.2782 H   0  0  0  0  0  0  0  0  0  0  0  0
    6.1777    0.1341    2.6735 H   0  0  0  0  0  0  0  0  0  0  0  0
    4.8560    3.6955   -0.9054 H   0  0  0  0  0  0  0  0  0  0  0  0
    5.7359    4.6809    1.8770 H   0  0  0  0  0  0  0  0  0  0  0  0
    4.0566    4.5636    1.2852 H   0  0  0  0  0  0  0  0  0  0  0  0
    5.1796    5.7362    0.5467 H   0  0  0  0  0  0  0  0  0  0  0  0
    7.6880    3.8162    0.2986 H   0  0  0  0  0  0  0  0  0  0  0  0
    7.0759    4.8952   -0.9876 H   0  0  0  0  0  0  0  0  0  0  0  0
    7.2502    3.1472   -1.2968 H   0  0  0  0  0  0  0  0  0  0  0  0
    4.1318   -1.8515    1.1811 H   0  0  0  0  0  0  0  0  0  0  0  0
    1.8490   -2.6621    2.0192 H   0  0  0  0  0  0  0  0  0  0  0  0
    0.1790   -2.5009    1.4198 H   0  0  0  0  0  0  0  0  0  0  0  0
    1.3268   -1.1463    1.2345 H   0  0  0  0  0  0  0  0  0  0  0  0
    1.0604   -4.6860    0.5056 H   0  0  0  0  0  0  0  0  0  0  0  0
    1.8204   -4.5723   -1.1070 H   0  0  0  0  0  0  0  0  0  0  0  0
    0.3830   -3.9739   -3.1465 H   0  0  0  0  0  0  0  0  0  0  0  0
   -0.0735   -2.4409   -2.3974 H   0  0  0  0  0  0  0  0  0  0  0  0
   -1.3509   -3.5894   -2.8938 H   0  0  0  0  0  0  0  0  0  0  0  0
   -0.0363   -6.2201   -1.7616 H   0  0  0  0  0  0  0  0  0  0  0  0
   -1.7424   -5.7035   -1.6171 H   0  0  0  0  0  0  0  0  0  0  0  0
   -0.8005   -6.0687   -0.1520 H   0  0  0  0  0  0  0  0  0  0  0  0
   -1.2658   -2.5782   -0.4300 H   0  0  0  0  0  0  0  0  0  0  0  0
  1  2  1  0
  1 23  1  0
  1 24  1  0
  1 25  1  0
  2  3  2  0
  2 13  1  0
  3  4  1  0
  4  5  2  0
  4  8  1  0
  5  6  1  0
  5 12  1  0
  6  7  2  0
  6 26  1  0
  7  8  1  0
  8  9  1  0
  9 10  1  0
  9 11  1  0
  9 27  1  6
 10 28  1  0
 10 29  1  0
 10 30  1  0
 11 31  1  0
 11 32  1  0
 11 33  1  0
 12 13  2  0
 12 34  1  0
 13 14  1  0
 14 15  2  0
 14 16  1  0
 16 17  1  0
 16 18  1  0
 17 35  1  0
 17 36  1  0
 17 37  1  0
 18 19  1  0
 18 38  1  0
 18 39  1  0
 19 20  1  0
 19 21  1  0
 19 22  1  1
 20 40  1  0
 20 41  1  0
 20 42  1  0
 21 43  1  0
 21 44  1  0
 21 45  1  0
 22 46  1  0
M  END

