
     RDKit          3D

 55 57  0  0  0  0  0  0  0  0999 V2000
    1.2854    0.0604   -0.8206 C   0  0  0  0  0  0  0  0  0  0  0  0
    2.7980    0.2658   -0.7370 C   0  0  0  0  0  0  0  0  0  0  0  0
    3.1765    1.5697   -0.0150 C   0  0  0  0  0  0  0  0  0  0  0  0
    4.6038    1.8174    0.1101 N   0  0  0  0  0  0  0  0  0  0  0  0
    5.2734    1.2201    1.2591 C   0  0  0  0  0  0  0  0  0  0  0  0
    6.5513    1.9703    1.6187 C   0  0  0  0  0  0  0  0  0  0  0  0
    7.4867    1.9995    0.4122 C   0  0  0  0  0  0  0  0  0  0  0  0
    6.7638    2.4840   -0.8278 C   0  0  0  0  0  0  0  0  0  0  0  0
    7.4759    3.0626   -1.8771 C   0  0  0  0  0  0  0  0  0  0  0  0
    6.8629    3.5144   -3.0583 C   0  0  0  0  0  0  0  0  0  0  0  0
    7.6593    4.1083   -4.1254 C   0  0  0  0  0  0  0  0  0  0  0  0
    7.1413    4.5236   -5.2253 N   0  0  0  0  0  0  0  0  0  0  0  0
    7.9581    5.0520   -6.1511 N   0  0  0  0  0  0  0  0  0  0  0  0
    7.4973    5.6109   -7.3330 C   0  0  0  0  0  0  0  0  0  0  0  0
    5.8924    5.8338   -7.6760 S   0  0  0  0  0  0  0  0  0  0  0  0
    8.5687    5.9110   -8.1535 N   0  0  0  0  0  0  0  0  0  0  0  0
    8.6375    6.6449   -9.3568 C   0  0  0  0  0  0  0  0  0  0  0  0
    7.7627    7.7016   -9.6434 C   0  0  0  0  0  0  0  0  0  0  0  0
    7.8790    8.4412  -10.8283 C   0  0  0  0  0  0  0  0  0  0  0  0
    6.9027    9.5557  -11.1190 C   0  0  0  0  0  0  0  0  0  0  0  0
    8.9046    8.1140  -11.7242 C   0  0  0  0  0  0  0  0  0  0  0  0
    9.7854    7.0694  -11.4359 C   0  0  0  0  0  0  0  0  0  0  0  0
    9.6747    6.3132  -10.2645 C   0  0  0  0  0  0  0  0  0  0  0  0
   10.6304    5.1785   -9.9842 C   0  0  0  0  0  0  0  0  0  0  0  0
    5.4661    3.3705   -3.1607 C   0  0  0  0  0  0  0  0  0  0  0  0
    4.7316    2.8041   -2.1308 C   0  0  0  0  0  0  0  0  0  0  0  0
    5.3481    2.3505   -0.9339 C   0  0  0  0  0  0  0  0  0  0  0  0
    1.0353   -0.8797   -1.3365 H   0  0  0  0  0  0  0  0  0  0  0  0
    0.7976    0.8808   -1.3734 H   0  0  0  0  0  0  0  0  0  0  0  0
    0.8267    0.0211    0.1820 H   0  0  0  0  0  0  0  0  0  0  0  0
    3.2346    0.2735   -1.7500 H   0  0  0  0  0  0  0  0  0  0  0  0
    3.2638   -0.5850   -0.2096 H   0  0  0  0  0  0  0  0  0  0  0  0
    2.7550    1.5519    1.0047 H   0  0  0  0  0  0  0  0  0  0  0  0
    2.6970    2.4261   -0.5168 H   0  0  0  0  0  0  0  0  0  0  0  0
    5.5145    0.1517    1.0747 H   0  0  0  0  0  0  0  0  0  0  0  0
    4.5703    1.2386    2.1074 H   0  0  0  0  0  0  0  0  0  0  0  0
    7.0329    1.4841    2.4820 H   0  0  0  0  0  0  0  0  0  0  0  0
    6.2932    2.9992    1.9227 H   0  0  0  0  0  0  0  0  0  0  0  0
    7.8851    0.9819    0.2388 H   0  0  0  0  0  0  0  0  0  0  0  0
    8.3622    2.6386    0.6109 H   0  0  0  0  0  0  0  0  0  0  0  0
    8.5612    3.1658   -1.7687 H   0  0  0  0  0  0  0  0  0  0  0  0
    8.7509    4.1880   -3.9439 H   0  0  0  0  0  0  0  0  0  0  0  0
    8.9541    5.1409   -5.9276 H   0  0  0  0  0  0  0  0  0  0  0  0
    9.4270    5.4192   -7.9291 H   0  0  0  0  0  0  0  0  0  0  0  0
    6.9718    7.9364   -8.9331 H   0  0  0  0  0  0  0  0  0  0  0  0
    6.8103   10.2438  -10.2630 H   0  0  0  0  0  0  0  0  0  0  0  0
    5.8935    9.1562  -11.3178 H   0  0  0  0  0  0  0  0  0  0  0  0
    7.2089   10.1439  -11.9969 H   0  0  0  0  0  0  0  0  0  0  0  0
    9.0172    8.6771  -12.6546 H   0  0  0  0  0  0  0  0  0  0  0  0
   10.5814    6.8256  -12.1454 H   0  0  0  0  0  0  0  0  0  0  0  0
   11.3234    5.0340  -10.8251 H   0  0  0  0  0  0  0  0  0  0  0  0
   10.1014    4.2232   -9.8224 H   0  0  0  0  0  0  0  0  0  0  0  0
   11.2551    5.3623   -9.0889 H   0  0  0  0  0  0  0  0  0  0  0  0
    4.9674    3.7133   -4.0697 H   0  0  0  0  0  0  0  0  0  0  0  0
    3.6544    2.7089   -2.2602 H   0  0  0  0  0  0  0  0  0  0  0  0
  1  2  1  0
  1 28  1  0
  1 29  1  0
  1 30  1  0
  2  3  1  0
  2 31  1  0
  2 32  1  0
  3  4  1  0
  3 33  1  0
  3 34  1  0
  4  5  1  0
  4 27  1  0
  5  6  1  0
  5 35  1  0
  5 36  1  0
  6  7  1  0
  6 37  1  0
  6 38  1  0
  7  8  1  0
  7 39  1  0
  7 40  1  0
  8  9  1  0
  8 27  2  0
  9 10  2  0
  9 41  1  0
 10 11  1  0
 10 25  1  0
 11 12  2  0
 11 42  1  0
 12 13  1  0
 13 14  1  0
 13 43  1  0
 14 15  2  0
 14 16  1  0
 16 17  1  0
 16 44  1  0
 17 18  2  0
 17 23  1  0
 18 19  1  0
 18 45  1  0
 19 20  1  0
 19 21  2  0
 20 46  1  0
 20 47  1  0
 20 48  1  0
 21 22  1  0
 21 49  1  0
 22 23  2  0
 22 50  1  0
 23 24  1  0
 24 51  1  0
 24 52  1  0
 24 53  1  0
 25 26  2  0
 25 54  1  0
 26 27  1  0
 26 55  1  0
M  END

