
     RDKit          3D

 47 50  0  0  0  0  0  0  0  0999 V2000
    5.8603    3.0089   -1.1515 C   0  0  0  0  0  0  0  0  0  0  0  0
    4.9415    3.5083   -0.2076 O   0  0  0  0  0  0  0  0  0  0  0  0
    3.7818    2.7195   -0.0618 C   0  0  0  0  0  0  0  0  0  0  0  0
    3.9933    1.3628    0.6401 C   0  0  0  0  0  0  0  0  0  0  0  0
    3.6456    0.3343    0.0756 O   0  0  0  0  0  0  0  0  0  0  0  0
    4.5570    1.3700    1.8890 N   0  0  0  0  0  0  0  0  0  0  0  0
    4.7612    0.1013    2.5882 C   0  0  0  0  0  0  0  0  0  0  0  0
    6.2229   -0.0470    3.0233 C   0  0  0  0  0  0  0  0  0  0  0  0
    6.7471    1.1625    3.8244 C   0  0  2  0  0  0  0  0  0  0  0  0
    6.3280    1.1360    5.2294 N   0  0  0  0  0  0  0  0  0  0  0  0
    7.1390    0.9693    6.3103 C   0  0  0  0  0  0  0  0  0  0  0  0
    6.3328    0.9859    7.4460 C   0  0  0  0  0  0  0  0  0  0  0  0
    6.7429    0.8666    8.8461 C   0  0  0  0  0  0  0  0  0  0  0  0
    7.9054    1.3549    9.4065 C   0  0  0  0  0  0  0  0  0  0  0  0
    7.9508    1.0437   10.7522 N   0  0  0  0  0  0  0  0  0  0  0  0
    8.6926    1.3072   11.3860 H   0  0  0  0  0  0  0  0  0  0  0  0
    6.8151    0.3522   11.1004 C   0  0  0  0  0  0  0  0  0  0  0  0
    6.4193   -0.1710   12.3406 C   0  0  0  0  0  0  0  0  0  0  0  0
    5.2070   -0.8436   12.3669 C   0  0  0  0  0  0  0  0  0  0  0  0
    4.7817   -1.3622   13.5326 F   0  0  0  0  0  0  0  0  0  0  0  0
    4.4000   -1.0153   11.2277 C   0  0  0  0  0  0  0  0  0  0  0  0
    4.8065   -0.4901   10.0057 C   0  0  0  0  0  0  0  0  0  0  0  0
    6.0228    0.2145    9.9230 C   0  0  0  0  0  0  0  0  0  0  0  0
    5.0266    1.1663    6.9129 C   0  0  0  0  0  0  0  0  0  0  0  0
    5.0390    1.2541    5.5858 N   0  0  0  0  0  0  0  0  0  0  0  0
    6.3775    2.4834    3.1211 C   0  0  0  0  0  0  0  0  0  0  0  0
    4.9122    2.5554    2.6689 C   0  0  0  0  0  0  0  0  0  0  0  0
    6.7052    3.7117   -1.1927 H   0  0  0  0  0  0  0  0  0  0  0  0
    5.4086    2.9359   -2.1602 H   0  0  0  0  0  0  0  0  0  0  0  0
    6.2446    2.0073   -0.8783 H   0  0  0  0  0  0  0  0  0  0  0  0
    3.3337    2.4724   -1.0403 H   0  0  0  0  0  0  0  0  0  0  0  0
    3.0570    3.3249    0.5071 H   0  0  0  0  0  0  0  0  0  0  0  0
    4.4712   -0.7028    1.9010 H   0  0  0  0  0  0  0  0  0  0  0  0
    4.1030    0.0640    3.4717 H   0  0  0  0  0  0  0  0  0  0  0  0
    6.8532   -0.1474    2.1232 H   0  0  0  0  0  0  0  0  0  0  0  0
    6.3513   -0.9673    3.6152 H   0  0  0  0  0  0  0  0  0  0  0  0
    7.8443    1.0949    3.8731 H   0  0  0  0  0  0  0  0  0  0  0  0
    8.2132    0.8326    6.2028 H   0  0  0  0  0  0  0  0  0  0  0  0
    8.7053    1.9286    8.9422 H   0  0  0  0  0  0  0  0  0  0  0  0
    7.0146   -0.0710   13.2497 H   0  0  0  0  0  0  0  0  0  0  0  0
    3.4638   -1.5670   11.3302 H   0  0  0  0  0  0  0  0  0  0  0  0
    4.1867   -0.6338    9.1184 H   0  0  0  0  0  0  0  0  0  0  0  0
    4.0852    1.2557    7.4542 H   0  0  0  0  0  0  0  0  0  0  0  0
    7.0193    2.5767    2.2288 H   0  0  0  0  0  0  0  0  0  0  0  0
    6.6090    3.3342    3.7815 H   0  0  0  0  0  0  0  0  0  0  0  0
    4.7770    3.4567    2.0635 H   0  0  0  0  0  0  0  0  0  0  0  0
    4.2581    2.6133    3.5543 H   0  0  0  0  0  0  0  0  0  0  0  0
  1  2  1  0
  1 28  1  0
  1 29  1  0
  1 30  1  0
  2  3  1  0
  3  4  1  0
  3 31  1  0
  3 32  1  0
  4  5  2  0
  4  6  1  0
  6  7  1  0
  6 27  1  0
  7  8  1  0
  7 33  1  0
  7 34  1  0
  8  9  1  0
  8 35  1  0
  8 36  1  0
  9 10  1  0
  9 26  1  0
  9 37  1  1
 10 11  1  0
 10 25  1  0
 11 12  2  0
 11 38  1  0
 12 13  1  0
 12 24  1  0
 13 14  2  0
 13 23  1  0
 14 15  1  0
 14 39  1  0
 15 16  1  0
 15 17  1  0
 17 18  1  0
 17 23  2  0
 18 19  2  0
 18 40  1  0
 19 20  1  0
 19 21  1  0
 21 22  2  0
 21 41  1  0
 22 23  1  0
 22 42  1  0
 24 25  2  0
 24 43  1  0
 26 27  1  0
 26 44  1  0
 26 45  1  0
 27 46  1  0
 27 47  1  0
M  END

