
     RDKit          3D

 63 66  0  0  0  0  0  0  0  0999 V2000
    2.7208    1.7165   -3.1610 C   0  0  0  0  0  0  0  0  0  0  0  0
    2.4189    2.4432   -1.8376 C   0  0  1  0  0  0  0  0  0  0  0  0
    3.1904    3.7731   -1.8113 C   0  0  0  0  0  0  0  0  0  0  0  0
    0.9028    2.7714   -1.7665 C   0  0  0  0  0  0  0  0  0  0  0  0
    0.0476    1.5902   -1.8547 N   0  0  0  0  0  0  0  0  0  0  0  0
    2.7326    1.5566   -0.5978 C   0  0  0  0  0  0  0  0  0  0  0  0
    4.0828    0.9872   -0.4806 N   0  0  0  0  0  0  0  0  0  0  0  0
    4.2884   -0.3505   -1.0194 C   0  0  0  0  0  0  0  0  0  0  0  0
    3.6690   -1.4900   -0.2189 C   0  0  0  0  0  0  0  0  0  0  0  0
    3.5574   -2.7602   -0.8044 C   0  0  0  0  0  0  0  0  0  0  0  0
    3.0316   -3.8532   -0.1167 C   0  0  0  0  0  0  0  0  0  0  0  0
    2.5820   -3.6899    1.2073 C   0  0  0  0  0  0  0  0  0  0  0  0
    2.0233   -4.7284    1.9748 N   0  0  0  0  0  0  0  0  0  0  0  0
    1.8537   -6.0573    1.6454 C   0  0  0  0  0  0  0  0  0  0  0  0
    2.2338   -6.5440    0.5924 O   0  0  0  0  0  0  0  0  0  0  0  0
    1.1739   -6.8925    2.6976 C   0  0  0  0  0  0  0  0  0  0  0  0
    1.3718   -8.2789    2.6274 C   0  0  0  0  0  0  0  0  0  0  0  0
    0.7855   -9.1610    3.5502 C   0  0  0  0  0  0  0  0  0  0  0  0
   -0.0140   -8.6010    4.5325 C   0  0  0  0  0  0  0  0  0  0  0  0
   -0.2321   -7.2216    4.6032 C   0  0  0  0  0  0  0  0  0  0  0  0
    0.3400   -6.3428    3.7045 C   0  0  0  0  0  0  0  0  0  0  0  0
   -1.0681   -6.9481    5.6484 O   0  0  0  0  0  0  0  0  0  0  0  0
   -1.4052   -8.2003    6.2406 C   0  0  0  0  0  0  0  0  0  0  0  0
   -0.7002   -9.2199    5.5332 O   0  0  0  0  0  0  0  0  0  0  0  0
    2.6809   -2.4195    1.8003 C   0  0  0  0  0  0  0  0  0  0  0  0
    3.2172   -1.3399    1.0985 C   0  0  0  0  0  0  0  0  0  0  0  0
    5.0331    1.7156    0.2037 C   0  0  0  0  0  0  0  0  0  0  0  0
    4.7921    2.8393    0.6270 O   0  0  0  0  0  0  0  0  0  0  0  0
    6.4240    1.1523    0.4124 C   0  0  0  0  0  0  0  0  0  0  0  0
    7.4966    2.0137    0.1231 C   0  0  0  0  0  0  0  0  0  0  0  0
    8.8129    1.6178    0.3611 C   0  0  0  0  0  0  0  0  0  0  0  0
    9.0781    0.3650    0.9246 C   0  0  0  0  0  0  0  0  0  0  0  0
    8.0178   -0.4858    1.2460 C   0  0  0  0  0  0  0  0  0  0  0  0
    6.6988   -0.0988    0.9877 C   0  0  0  0  0  0  0  0  0  0  0  0
    2.4127    2.3376   -4.0193 H   0  0  0  0  0  0  0  0  0  0  0  0
    2.1917    0.7529   -3.2326 H   0  0  0  0  0  0  0  0  0  0  0  0
    3.7993    1.5244   -3.2738 H   0  0  0  0  0  0  0  0  0  0  0  0
    2.8837    4.4095   -2.6590 H   0  0  0  0  0  0  0  0  0  0  0  0
    4.2749    3.6110   -1.8882 H   0  0  0  0  0  0  0  0  0  0  0  0
    3.0142    4.3253   -0.8766 H   0  0  0  0  0  0  0  0  0  0  0  0
    0.6866    3.5335   -2.5454 H   0  0  0  0  0  0  0  0  0  0  0  0
    0.7048    3.2621   -0.7983 H   0  0  0  0  0  0  0  0  0  0  0  0
   -0.0807    1.3010   -2.8237 H   0  0  0  0  0  0  0  0  0  0  0  0
   -0.8826    1.7902   -1.4911 H   0  0  0  0  0  0  0  0  0  0  0  0
    2.0136    0.7250   -0.5980 H   0  0  0  0  0  0  0  0  0  0  0  0
    2.5529    2.1591    0.3041 H   0  0  0  0  0  0  0  0  0  0  0  0
    5.3687   -0.5229   -1.1299 H   0  0  0  0  0  0  0  0  0  0  0  0
    3.8781   -0.3875   -2.0398 H   0  0  0  0  0  0  0  0  0  0  0  0
    3.8951   -2.9076   -1.8352 H   0  0  0  0  0  0  0  0  0  0  0  0
    2.9630   -4.8319   -0.5850 H   0  0  0  0  0  0  0  0  0  0  0  0
    1.7796   -4.4685    2.9221 H   0  0  0  0  0  0  0  0  0  0  0  0
    2.0005   -8.6609    1.8219 H   0  0  0  0  0  0  0  0  0  0  0  0
    0.9455  -10.2388    3.4977 H   0  0  0  0  0  0  0  0  0  0  0  0
    0.1099   -5.2780    3.7681 H   0  0  0  0  0  0  0  0  0  0  0  0
   -2.4936   -8.3739    6.1551 H   0  0  0  0  0  0  0  0  0  0  0  0
   -1.0999   -8.2059    7.3020 H   0  0  0  0  0  0  0  0  0  0  0  0
    2.3292   -2.2715    2.8262 H   0  0  0  0  0  0  0  0  0  0  0  0
    3.2758   -0.3645    1.5864 H   0  0  0  0  0  0  0  0  0  0  0  0
    7.2810    3.0044   -0.2820 H   0  0  0  0  0  0  0  0  0  0  0  0
    9.6360    2.2944    0.1167 H   0  0  0  0  0  0  0  0  0  0  0  0
   10.1084    0.0571    1.1207 H   0  0  0  0  0  0  0  0  0  0  0  0
    8.2141   -1.4588    1.7039 H   0  0  0  0  0  0  0  0  0  0  0  0
    5.8849   -0.7738    1.2573 H   0  0  0  0  0  0  0  0  0  0  0  0
  2  1  1  6
  1 35  1  0
  1 36  1  0
  1 37  1  0
  2  3  1  0
  2  4  1  0
  2  6  1  0
  3 38  1  0
  3 39  1  0
  3 40  1  0
  4  5  1  0
  4 41  1  0
  4 42  1  0
  5 43  1  0
  5 44  1  0
  6  7  1  0
  6 45  1  0
  6 46  1  0
  7  8  1  0
  7 27  1  0
  8  9  1  0
  8 47  1  0
  8 48  1  0
  9 10  2  0
  9 26  1  0
 10 11  1  0
 10 49  1  0
 11 12  2  0
 11 50  1  0
 12 13  1  0
 12 25  1  0
 13 14  1  0
 13 51  1  0
 14 15  2  0
 14 16  1  0
 16 17  2  0
 16 21  1  0
 17 18  1  0
 17 52  1  0
 18 19  2  0
 18 53  1  0
 19 20  1  0
 19 24  1  0
 20 21  2  0
 20 22  1  0
 21 54  1  0
 22 23  1  0
 23 24  1  0
 23 55  1  0
 23 56  1  0
 25 26  2  0
 25 57  1  0
 26 58  1  0
 27 28  2  0
 27 29  1  0
 29 30  2  0
 29 34  1  0
 30 31  1  0
 30 59  1  0
 31 32  2  0
 31 60  1  0
 32 33  1  0
 32 61  1  0
 33 34  2  0
 33 62  1  0
 34 63  1  0
M  END

