
     RDKit          3D

101105  0  0  0  0  0  0  0  0999 V2000
    2.6490   -1.4166   -4.0159 C   0  0  0  0  0  0  0  0  0  0  0  0
    3.2121   -0.4091   -3.2227 O   0  0  0  0  0  0  0  0  0  0  0  0
    2.2674    0.4301   -2.6064 C   0  0  0  0  0  0  0  0  0  0  0  0
    2.9962    1.5349   -1.8372 C   0  0  0  0  0  0  0  0  0  0  0  0
    3.7706    2.4670   -2.7225 C   0  0  0  0  0  0  0  0  0  0  0  0
    3.3629    3.6674   -3.2435 C   0  0  0  0  0  0  0  0  0  0  0  0
    4.4086    4.0871   -4.1540 C   0  0  0  0  0  0  0  0  0  0  0  0
    5.3955    3.1451   -4.2608 N   0  0  0  0  0  0  0  0  0  0  0  0
    5.0896    2.2327   -3.3201 C   0  0  0  0  0  0  0  0  0  0  0  0
    6.0972    1.3588   -2.7560 C   0  0  0  0  0  0  0  0  0  0  0  0
    6.4224    1.4026   -1.4235 C   0  0  0  0  0  0  0  0  0  0  0  0
    6.0800    2.4510   -0.4952 C   0  0  0  0  0  0  0  0  0  0  0  0
    5.7387    3.7339   -0.8611 N   0  0  0  0  0  0  0  0  0  0  0  0
    5.6917    4.0711   -1.8154 H   0  0  0  0  0  0  0  0  0  0  0  0
    5.5362    4.5295    0.2335 C   0  0  0  0  0  0  0  0  0  0  0  0
    5.7715    3.7188    1.3714 C   0  0  0  0  0  0  0  0  0  0  0  0
    6.1193    2.4363    0.9339 C   0  0  0  0  0  0  0  0  0  0  0  0
    6.4389    1.2416    1.7906 C   0  0  0  0  0  0  0  0  0  0  0  0
    7.4431    1.5012    2.9108 C   0  0  0  0  0  0  0  0  0  0  0  0
    6.8621    2.3371    3.8850 O   0  0  0  0  0  0  0  0  0  0  0  0
    7.7256    2.6604    4.9421 C   0  0  0  0  0  0  0  0  0  0  0  0
    5.1842    5.9112    0.1371 C   0  0  0  0  0  0  0  0  0  0  0  0
    4.9743    6.5299   -1.0362 N   0  0  0  0  0  0  0  0  0  0  0  0
    4.7736    7.8600   -0.7635 C   0  0  0  0  0  0  0  0  0  0  0  0
    4.7437    8.8448   -1.7797 C   0  0  0  0  0  0  0  0  0  0  0  0
    4.8085   10.1655   -1.3085 O   0  0  0  0  0  0  0  0  0  0  0  0
    3.8282   11.0551   -1.6149 C   0  0  0  0  0  0  0  0  0  0  0  0
    2.8176   10.7847   -2.2022 O   0  0  0  0  0  0  0  0  0  0  0  0
    4.1488   12.4513   -1.0802 C   0  0  0  0  0  0  0  0  0  0  0  0
    5.5390   12.7774   -0.9258 N   0  0  0  0  0  0  0  0  0  0  0  0
    6.1627   12.7254    0.2945 C   0  0  0  0  0  0  0  0  0  0  0  0
    5.5830   12.5300    1.3457 O   0  0  0  0  0  0  0  0  0  0  0  0
    7.4803   12.9377    0.1375 O   0  0  0  0  0  0  0  0  0  0  0  0
    8.4189   12.8917    1.2668 C   0  0  1  0  0  0  0  0  0  0  0  0
    8.4314   11.4866    1.8771 C   0  0  0  0  0  0  0  0  0  0  0  0
    9.7601   13.2033    0.5994 C   0  0  0  0  0  0  0  0  0  0  0  0
    8.0620   13.9699    2.2948 C   0  0  0  0  0  0  0  0  0  0  0  0
    4.8800    8.7362   -3.1792 C   0  0  0  0  0  0  0  0  0  0  0  0
    4.7764    7.6205   -4.0153 C   0  0  0  0  0  0  0  0  0  0  0  0
    4.2937    6.4038   -3.6162 N   0  0  0  0  0  0  0  0  0  0  0  0
    4.3045    6.2018   -2.5894 H   0  0  0  0  0  0  0  0  0  0  0  0
    4.6225    5.4373   -4.5279 C   0  0  0  0  0  0  0  0  0  0  0  0
    5.2590    6.0904   -5.6305 C   0  0  0  0  0  0  0  0  0  0  0  0
    5.3055    7.4479   -5.3578 C   0  0  0  0  0  0  0  0  0  0  0  0
    5.7912    8.5425   -6.2598 C   0  0  0  0  0  0  0  0  0  0  0  0
    4.6540    9.3177   -6.9308 C   0  0  0  0  0  0  0  0  0  0  0  0
    5.2175   10.3266   -7.7308 O   0  0  0  0  0  0  0  0  0  0  0  0
    4.2721   11.0976   -8.4220 C   0  0  0  0  0  0  0  0  0  0  0  0
    4.7853    8.0750    0.6950 C   0  0  0  0  0  0  0  0  0  0  0  0
    4.5156    9.3530    1.4376 C   0  0  0  0  0  0  0  0  0  0  0  0
    4.4643    9.2440    2.9538 C   0  0  0  0  0  0  0  0  0  0  0  0
    5.7435    8.9263    3.4600 O   0  0  0  0  0  0  0  0  0  0  0  0
    5.7949    8.8702    4.8594 C   0  0  0  0  0  0  0  0  0  0  0  0
    5.0644    6.8449    1.2363 C   0  0  0  0  0  0  0  0  0  0  0  0
    3.4710   -2.0063   -4.4480 H   0  0  0  0  0  0  0  0  0  0  0  0
    2.0399   -1.0024   -4.8455 H   0  0  0  0  0  0  0  0  0  0  0  0
    1.9992   -2.0978   -3.4277 H   0  0  0  0  0  0  0  0  0  0  0  0
    1.6301   -0.1527   -1.9061 H   0  0  0  0  0  0  0  0  0  0  0  0
    1.5914    0.8788   -3.3645 H   0  0  0  0  0  0  0  0  0  0  0  0
    3.6604    1.0500   -1.1055 H   0  0  0  0  0  0  0  0  0  0  0  0
    2.2432    2.1037   -1.2676 H   0  0  0  0  0  0  0  0  0  0  0  0
    2.4325    4.2009   -3.0491 H   0  0  0  0  0  0  0  0  0  0  0  0
    6.6735    0.7065   -3.4214 H   0  0  0  0  0  0  0  0  0  0  0  0
    7.0870    0.6285   -1.0261 H   0  0  0  0  0  0  0  0  0  0  0  0
    5.6944    4.0354    2.4075 H   0  0  0  0  0  0  0  0  0  0  0  0
    6.8325    0.4258    1.1642 H   0  0  0  0  0  0  0  0  0  0  0  0
    5.5168    0.8485    2.2557 H   0  0  0  0  0  0  0  0  0  0  0  0
    8.3647    1.9644    2.4999 H   0  0  0  0  0  0  0  0  0  0  0  0
    7.7414    0.5346    3.3696 H   0  0  0  0  0  0  0  0  0  0  0  0
    7.1740    3.3015    5.6452 H   0  0  0  0  0  0  0  0  0  0  0  0
    8.6236    3.2095    4.5931 H   0  0  0  0  0  0  0  0  0  0  0  0
    8.0701    1.7570    5.4859 H   0  0  0  0  0  0  0  0  0  0  0  0
    3.6813   12.5293   -0.0854 H   0  0  0  0  0  0  0  0  0  0  0  0
    3.6323   13.1638   -1.7420 H   0  0  0  0  0  0  0  0  0  0  0  0
    6.1348   12.8460   -1.7419 H   0  0  0  0  0  0  0  0  0  0  0  0
    8.6427   10.7339    1.1016 H   0  0  0  0  0  0  0  0  0  0  0  0
    7.4764   11.2340    2.3554 H   0  0  0  0  0  0  0  0  0  0  0  0
    9.2269   11.4229    2.6362 H   0  0  0  0  0  0  0  0  0  0  0  0
    9.9939   12.4519   -0.1700 H   0  0  0  0  0  0  0  0  0  0  0  0
   10.5674   13.1995    1.3472 H   0  0  0  0  0  0  0  0  0  0  0  0
    9.7336   14.1932    0.1191 H   0  0  0  0  0  0  0  0  0  0  0  0
    7.0945   13.7606    2.7675 H   0  0  0  0  0  0  0  0  0  0  0  0
    8.0160   14.9595    1.8133 H   0  0  0  0  0  0  0  0  0  0  0  0
    8.8384   14.0068    3.0749 H   0  0  0  0  0  0  0  0  0  0  0  0
    5.1693    9.6661   -3.6739 H   0  0  0  0  0  0  0  0  0  0  0  0
    5.6017    5.5906   -6.5347 H   0  0  0  0  0  0  0  0  0  0  0  0
    6.4343    8.1215   -7.0479 H   0  0  0  0  0  0  0  0  0  0  0  0
    6.4099    9.2646   -5.7013 H   0  0  0  0  0  0  0  0  0  0  0  0
    3.9797    9.7530   -6.1630 H   0  0  0  0  0  0  0  0  0  0  0  0
    4.0349    8.6264   -7.5405 H   0  0  0  0  0  0  0  0  0  0  0  0
    4.8164   11.8509   -9.0105 H   0  0  0  0  0  0  0  0  0  0  0  0
    3.5777   11.6220   -7.7337 H   0  0  0  0  0  0  0  0  0  0  0  0
    3.6604   10.4843   -9.1151 H   0  0  0  0  0  0  0  0  0  0  0  0
    3.5464    9.7657    1.1062 H   0  0  0  0  0  0  0  0  0  0  0  0
    5.2569   10.1218    1.1793 H   0  0  0  0  0  0  0  0  0  0  0  0
    3.7256    8.4772    3.2710 H   0  0  0  0  0  0  0  0  0  0  0  0
    4.1258   10.2161    3.3659 H   0  0  0  0  0  0  0  0  0  0  0  0
    6.8273    8.6266    5.1514 H   0  0  0  0  0  0  0  0  0  0  0  0
    5.1198    8.0914    5.2708 H   0  0  0  0  0  0  0  0  0  0  0  0
    5.5157    9.8377    5.3248 H   0  0  0  0  0  0  0  0  0  0  0  0
    5.2058    6.6195    2.2902 H   0  0  0  0  0  0  0  0  0  0  0  0
  1  2  1  0
  1 55  1  0
  1 56  1  0
  1 57  1  0
  2  3  1  0
  3  4  1  0
  3 58  1  0
  3 59  1  0
  4  5  1  0
  4 60  1  0
  4 61  1  0
  5  6  2  0
  5  9  1  0
  6  7  1  0
  6 62  1  0
  7  8  2  0
  7 42  1  0
  8  9  1  0
  9 10  2  0
 10 11  1  0
 10 63  1  0
 11 12  2  0
 11 64  1  0
 12 13  1  0
 12 17  1  0
 13 14  1  0
 13 15  1  0
 15 16  1  0
 15 22  2  0
 16 17  2  0
 16 65  1  0
 17 18  1  0
 18 19  1  0
 18 66  1  0
 18 67  1  0
 19 20  1  0
 19 68  1  0
 19 69  1  0
 20 21  1  0
 21 70  1  0
 21 71  1  0
 21 72  1  0
 22 23  1  0
 22 54  1  0
 23 24  2  0
 24 25  1  0
 24 49  1  0
 25 26  1  0
 25 38  2  0
 26 27  1  0
 27 28  2  0
 27 29  1  0
 29 30  1  0
 29 73  1  0
 29 74  1  0
 30 31  1  0
 30 75  1  0
 31 32  2  0
 31 33  1  0
 34 33  1  6
 34 35  1  0
 34 36  1  0
 34 37  1  0
 35 76  1  0
 35 77  1  0
 35 78  1  0
 36 79  1  0
 36 80  1  0
 36 81  1  0
 37 82  1  0
 37 83  1  0
 37 84  1  0
 38 39  1  0
 38 85  1  0
 39 40  1  0
 39 44  2  0
 40 41  1  0
 40 42  1  0
 42 43  2  0
 43 44  1  0
 43 86  1  0
 44 45  1  0
 45 46  1  0
 45 87  1  0
 45 88  1  0
 46 47  1  0
 46 89  1  0
 46 90  1  0
 47 48  1  0
 48 91  1  0
 48 92  1  0
 48 93  1  0
 49 50  1  0
 49 54  2  0
 50 51  1  0
 50 94  1  0
 50 95  1  0
 51 52  1  0
 51 96  1  0
 51 97  1  0
 52 53  1  0
 53 98  1  0
 53 99  1  0
 53100  1  0
 54101  1  0
M  END

