
     RDKit          3D

 33 35  0  0  0  0  0  0  0  0999 V2000
    0.9642    0.1446   -0.0111 C   0  0  0  0  0  0  0  0  0  0  0  0
    2.4628    0.1017   -0.1835 C   0  0  0  0  0  0  0  0  0  0  0  0
    3.1438    1.0418   -0.9686 C   0  0  0  0  0  0  0  0  0  0  0  0
    4.5318    0.9958   -1.1051 C   0  0  0  0  0  0  0  0  0  0  0  0
    5.3098    0.0172   -0.4659 C   0  0  0  0  0  0  0  0  0  0  0  0
    6.8172   -0.0311   -0.6589 C   0  0  0  0  0  0  0  0  0  0  0  0
    7.4467    1.3511   -0.7969 C   0  0  0  0  0  0  0  0  0  0  0  0
    7.6345    1.8295   -1.9034 O   0  0  0  0  0  0  0  0  0  0  0  0
    7.8181    2.1153    0.4181 C   0  0  0  0  0  0  0  0  0  0  0  0
    8.4065    3.3514    0.3181 C   0  0  0  0  0  0  0  0  0  0  0  0
    8.6882    3.8947    1.5175 O   0  0  0  0  0  0  0  0  0  0  0  0
    8.2745    2.9970    2.4664 C   0  0  0  0  0  0  0  0  0  0  0  0
    8.3816    3.1741    3.8423 C   0  0  0  0  0  0  0  0  0  0  0  0
    7.8968    2.1386    4.6416 C   0  0  0  0  0  0  0  0  0  0  0  0
    7.3312    0.9848    4.0651 C   0  0  0  0  0  0  0  0  0  0  0  0
    7.2329    0.8283    2.6825 C   0  0  0  0  0  0  0  0  0  0  0  0
    7.7173    1.8555    1.8510 C   0  0  0  0  0  0  0  0  0  0  0  0
    4.6109   -0.9283    0.3070 C   0  0  0  0  0  0  0  0  0  0  0  0
    5.4727   -2.2336    1.1182 Cl  0  0  0  0  0  0  0  0  0  0  0  0
    3.2230   -0.8914    0.4503 C   0  0  0  0  0  0  0  0  0  0  0  0
    0.5055    0.9000   -0.6656 H   0  0  0  0  0  0  0  0  0  0  0  0
    0.6896    0.3914    1.0286 H   0  0  0  0  0  0  0  0  0  0  0  0
    0.5047   -0.8300   -0.2429 H   0  0  0  0  0  0  0  0  0  0  0  0
    2.5810    1.8234   -1.4857 H   0  0  0  0  0  0  0  0  0  0  0  0
    5.0330    1.7329   -1.7365 H   0  0  0  0  0  0  0  0  0  0  0  0
    7.0452   -0.5646   -1.5962 H   0  0  0  0  0  0  0  0  0  0  0  0
    7.2844   -0.5920    0.1611 H   0  0  0  0  0  0  0  0  0  0  0  0
    8.6725    3.9325   -0.5615 H   0  0  0  0  0  0  0  0  0  0  0  0
    8.8230    4.0799    4.2612 H   0  0  0  0  0  0  0  0  0  0  0  0
    7.9559    2.2251    5.7291 H   0  0  0  0  0  0  0  0  0  0  0  0
    6.9575    0.1916    4.7170 H   0  0  0  0  0  0  0  0  0  0  0  0
    6.7837   -0.0768    2.2744 H   0  0  0  0  0  0  0  0  0  0  0  0
    2.7366   -1.6526    1.0640 H   0  0  0  0  0  0  0  0  0  0  0  0
  1  2  1  0
  1 21  1  0
  1 22  1  0
  1 23  1  0
  2  3  2  0
  2 20  1  0
  3  4  1  0
  3 24  1  0
  4  5  2  0
  4 25  1  0
  5  6  1  0
  5 18  1  0
  6  7  1  0
  6 26  1  0
  6 27  1  0
  7  8  2  0
  7  9  1  0
  9 10  2  0
  9 17  1  0
 10 11  1  0
 10 28  1  0
 11 12  1  0
 12 13  1  0
 12 17  2  0
 13 14  2  0
 13 29  1  0
 14 15  1  0
 14 30  1  0
 15 16  2  0
 15 31  1  0
 16 17  1  0
 16 32  1  0
 18 19  1  0
 18 20  2  0
 20 33  1  0
M  END

