
     RDKit          3D

 83 90  0  0  0  0  0  0  0  0999 V2000
    9.4994    5.3917   -1.1823 C   0  0  0  0  0  0  0  0  0  0  0  0
    8.8176    4.0576   -1.0048 C   0  0  0  0  0  0  0  0  0  0  0  0
    7.7307    3.8985   -0.1397 C   0  0  0  0  0  0  0  0  0  0  0  0
    7.0764    2.6684    0.0178 C   0  0  0  0  0  0  0  0  0  0  0  0
    5.9128    2.6162    0.9875 C   0  0  0  0  0  0  0  0  0  0  0  0
    7.5279    1.5232   -0.6951 C   0  0  0  0  0  0  0  0  0  0  0  0
    6.7585    0.1353   -0.6333 B   0  0  0  0  0  0  0  0  0  0  0  0
    5.1771    0.1230   -0.7957 C   0  0  0  0  0  0  0  0  0  0  0  0
    4.5146    0.8699   -1.8095 C   0  0  0  0  0  0  0  0  0  0  0  0
    5.2651    1.6326   -2.8831 C   0  0  0  0  0  0  0  0  0  0  0  0
    3.1141    0.9045   -1.8572 C   0  0  0  0  0  0  0  0  0  0  0  0
    2.3204    0.2417   -0.9156 C   0  0  0  0  0  0  0  0  0  0  0  0
    0.8137    0.2863   -0.9800 C   0  0  0  0  0  0  0  0  0  0  0  0
    2.9757   -0.4839    0.0855 C   0  0  0  0  0  0  0  0  0  0  0  0
    4.3720   -0.5670    0.1559 C   0  0  0  0  0  0  0  0  0  0  0  0
    4.9635   -1.3978    1.2764 C   0  0  0  0  0  0  0  0  0  0  0  0
    7.4975   -1.1320   -0.4311 N   0  0  0  0  0  0  0  0  0  0  0  0
    8.4934   -1.2640    0.5816 C   0  0  0  0  0  0  0  0  0  0  0  0
    8.7796   -0.1836    1.4515 C   0  0  0  0  0  0  0  0  0  0  0  0
    9.7524   -0.2668    2.4392 C   0  0  0  0  0  0  0  0  0  0  0  0
   10.4684   -1.4530    2.6240 C   0  0  0  0  0  0  0  0  0  0  0  0
   10.1547   -2.5415    1.8217 C   0  0  0  0  0  0  0  0  0  0  0  0
    9.1726   -2.4798    0.8165 C   0  0  0  0  0  0  0  0  0  0  0  0
    8.8538   -3.7695    0.0638 C   0  0  2  0  0  0  0  0  0  0  0  0
    8.4653   -4.9000    1.0359 C   0  0  0  0  0  0  0  0  0  0  0  0
    7.3892   -4.9524    1.9173 C   0  0  0  0  0  0  0  0  0  0  0  0
    7.2188   -6.0908    2.7164 C   0  0  0  0  0  0  0  0  0  0  0  0
    8.1185   -7.1621    2.6317 C   0  0  0  0  0  0  0  0  0  0  0  0
    9.2019   -7.1124    1.7487 C   0  0  0  0  0  0  0  0  0  0  0  0
    9.3727   -5.9757    0.9502 C   0  0  0  0  0  0  0  0  0  0  0  0
   10.4005   -5.6454   -0.0492 C   0  0  0  0  0  0  0  0  0  0  0  0
   11.5127   -6.3681   -0.4962 C   0  0  0  0  0  0  0  0  0  0  0  0
   12.3385   -5.8024   -1.4729 C   0  0  0  0  0  0  0  0  0  0  0  0
   12.0574   -4.5326   -1.9959 C   0  0  0  0  0  0  0  0  0  0  0  0
   10.9441   -3.8087   -1.5492 C   0  0  0  0  0  0  0  0  0  0  0  0
   10.1205   -4.3689   -0.5769 C   0  0  0  0  0  0  0  0  0  0  0  0
    7.7756   -3.5398   -0.9917 C   0  0  0  0  0  0  0  0  0  0  0  0
    7.4020   -4.6304   -1.7973 C   0  0  0  0  0  0  0  0  0  0  0  0
    6.5128   -4.5018   -2.8562 C   0  0  0  0  0  0  0  0  0  0  0  0
    6.0121   -3.2305   -3.1523 C   0  0  0  0  0  0  0  0  0  0  0  0
    6.3673   -2.1416   -2.3670 C   0  0  0  0  0  0  0  0  0  0  0  0
    7.2035   -2.2723   -1.2316 C   0  0  0  0  0  0  0  0  0  0  0  0
    8.6513    1.6747   -1.5592 C   0  0  0  0  0  0  0  0  0  0  0  0
    9.2341    0.5219   -2.3516 C   0  0  0  0  0  0  0  0  0  0  0  0
    9.2577    2.9283   -1.7055 C   0  0  0  0  0  0  0  0  0  0  0  0
    9.0728    6.1577   -0.5179 H   0  0  0  0  0  0  0  0  0  0  0  0
    9.4021    5.7546   -2.2197 H   0  0  0  0  0  0  0  0  0  0  0  0
   10.5792    5.3214   -0.9694 H   0  0  0  0  0  0  0  0  0  0  0  0
    7.3774    4.7613    0.4336 H   0  0  0  0  0  0  0  0  0  0  0  0
    5.9168    3.4979    1.6457 H   0  0  0  0  0  0  0  0  0  0  0  0
    5.9375    1.7228    1.6297 H   0  0  0  0  0  0  0  0  0  0  0  0
    4.9449    2.5953    0.4626 H   0  0  0  0  0  0  0  0  0  0  0  0
    6.1213    1.0705   -3.2859 H   0  0  0  0  0  0  0  0  0  0  0  0
    5.6718    2.5815   -2.4996 H   0  0  0  0  0  0  0  0  0  0  0  0
    4.5995    1.8714   -3.7260 H   0  0  0  0  0  0  0  0  0  0  0  0
    2.6272    1.4709   -2.6572 H   0  0  0  0  0  0  0  0  0  0  0  0
    0.4600    1.0188   -1.7207 H   0  0  0  0  0  0  0  0  0  0  0  0
    0.3772    0.5515   -0.0032 H   0  0  0  0  0  0  0  0  0  0  0  0
    0.3982   -0.6976   -1.2589 H   0  0  0  0  0  0  0  0  0  0  0  0
    2.3790   -1.0083    0.8388 H   0  0  0  0  0  0  0  0  0  0  0  0
    4.1935   -1.6462    2.0215 H   0  0  0  0  0  0  0  0  0  0  0  0
    5.7837   -0.8886    1.8043 H   0  0  0  0  0  0  0  0  0  0  0  0
    5.3719   -2.3474    0.8945 H   0  0  0  0  0  0  0  0  0  0  0  0
    8.2336    0.7477    1.3518 H   0  0  0  0  0  0  0  0  0  0  0  0
    9.9404    0.6029    3.0739 H   0  0  0  0  0  0  0  0  0  0  0  0
   11.2378   -1.5340    3.3950 H   0  0  0  0  0  0  0  0  0  0  0  0
   10.6753   -3.4890    1.9754 H   0  0  0  0  0  0  0  0  0  0  0  0
    6.6873   -4.1182    1.9884 H   0  0  0  0  0  0  0  0  0  0  0  0
    6.3776   -6.1433    3.4122 H   0  0  0  0  0  0  0  0  0  0  0  0
    7.9724   -8.0433    3.2617 H   0  0  0  0  0  0  0  0  0  0  0  0
    9.9020   -7.9496    1.6865 H   0  0  0  0  0  0  0  0  0  0  0  0
   11.7359   -7.3585   -0.0911 H   0  0  0  0  0  0  0  0  0  0  0  0
   13.2108   -6.3549   -1.8317 H   0  0  0  0  0  0  0  0  0  0  0  0
   12.7122   -4.1039   -2.7589 H   0  0  0  0  0  0  0  0  0  0  0  0
   10.7266   -2.8194   -1.9597 H   0  0  0  0  0  0  0  0  0  0  0  0
    7.8437   -5.6057   -1.5824 H   0  0  0  0  0  0  0  0  0  0  0  0
    6.2409   -5.3697   -3.4611 H   0  0  0  0  0  0  0  0  0  0  0  0
    5.3514   -3.0766   -4.0091 H   0  0  0  0  0  0  0  0  0  0  0  0
    5.9850   -1.1652   -2.6450 H   0  0  0  0  0  0  0  0  0  0  0  0
    8.4705   -0.0658   -2.8826 H   0  0  0  0  0  0  0  0  0  0  0  0
    9.7757   -0.1799   -1.6969 H   0  0  0  0  0  0  0  0  0  0  0  0
    9.9484    0.8911   -3.1021 H   0  0  0  0  0  0  0  0  0  0  0  0
   10.1088    3.0247   -2.3872 H   0  0  0  0  0  0  0  0  0  0  0  0
  1  2  1  0
  1 46  1  0
  1 47  1  0
  1 48  1  0
  2  3  2  0
  2 45  1  0
  3  4  1  0
  3 49  1  0
  4  5  1  0
  4  6  2  0
  5 50  1  0
  5 51  1  0
  5 52  1  0
  6  7  1  0
  6 43  1  0
  7  8  1  0
  7 17  1  0
  8  9  2  0
  8 15  1  0
  9 10  1  0
  9 11  1  0
 10 53  1  0
 10 54  1  0
 10 55  1  0
 11 12  2  0
 11 56  1  0
 12 13  1  0
 12 14  1  0
 13 57  1  0
 13 58  1  0
 13 59  1  0
 14 15  2  0
 14 60  1  0
 15 16  1  0
 16 61  1  0
 16 62  1  0
 16 63  1  0
 17 18  1  0
 17 42  1  0
 18 19  2  0
 18 23  1  0
 19 20  1  0
 19 64  1  0
 20 21  2  0
 20 65  1  0
 21 22  1  0
 21 66  1  0
 22 23  2  0
 22 67  1  0
 24 23  1  1
 24 25  1  0
 24 36  1  0
 24 37  1  0
 25 26  2  0
 25 30  1  0
 26 27  1  0
 26 68  1  0
 27 28  2  0
 27 69  1  0
 28 29  1  0
 28 70  1  0
 29 30  2  0
 29 71  1  0
 30 31  1  0
 31 32  2  0
 31 36  1  0
 32 33  1  0
 32 72  1  0
 33 34  2  0
 33 73  1  0
 34 35  1  0
 34 74  1  0
 35 36  2  0
 35 75  1  0
 37 38  1  0
 37 42  2  0
 38 39  2  0
 38 76  1  0
 39 40  1  0
 39 77  1  0
 40 41  2  0
 40 78  1  0
 41 42  1  0
 41 79  1  0
 43 44  1  0
 43 45  2  0
 44 80  1  0
 44 81  1  0
 44 82  1  0
 45 83  1  0
M  END

