
     RDKit          3D

 46 47  0  0  0  0  0  0  0  0999 V2000
    4.5027    3.4801    3.1214 C   0  0  0  0  0  0  0  0  0  0  0  0
    5.1566    2.8545    1.8888 C   0  0  0  0  0  0  0  0  0  0  0  0
    4.1767    2.0063    1.0761 C   0  0  0  0  0  0  0  0  0  0  0  0
    4.7825    1.3728   -0.1936 C   0  0  1  0  0  0  0  0  0  0  0  0
    5.2280    2.1768   -0.8046 H   0  0  0  0  0  0  0  0  0  0  0  0
    6.2353    0.2686    0.0773 S   0  0  0  0  0  0  0  0  0  0  0  0
    5.5655   -1.0283    1.0705 C   0  0  0  0  0  0  0  0  0  0  0  0
    4.8952   -0.9021    2.1912 N   0  0  0  0  0  0  0  0  0  0  0  0
    4.5943   -2.1550    2.6458 N   0  0  0  0  0  0  0  0  0  0  0  0
    5.1148   -3.0276    1.8150 C   0  0  0  0  0  0  0  0  0  0  0  0
    5.0208   -4.5091    1.9484 C   0  0  0  0  0  0  0  0  0  0  0  0
    5.7490   -2.3692    0.7805 N   0  0  0  0  0  0  0  0  0  0  0  0
    6.4143   -2.9613   -0.3411 C   0  0  0  0  0  0  0  0  0  0  0  0
    7.6427   -3.6075   -0.1538 C   0  0  0  0  0  0  0  0  0  0  0  0
    8.2674   -4.2062   -1.2484 C   0  0  0  0  0  0  0  0  0  0  0  0
    7.6765   -4.1501   -2.5143 C   0  0  0  0  0  0  0  0  0  0  0  0
    6.4521   -3.4941   -2.7128 C   0  0  0  0  0  0  0  0  0  0  0  0
    5.8188   -3.4070   -4.0804 C   0  0  0  0  0  0  0  0  0  0  0  0
    5.8231   -2.9018   -1.6063 C   0  0  0  0  0  0  0  0  0  0  0  0
    3.7099    0.7118   -1.0596 C   0  0  0  0  0  0  0  0  0  0  0  0
    3.5849   -0.4687   -1.2775 O   0  0  0  0  0  0  0  0  0  0  0  0
    2.8818    1.6504   -1.5493 O   0  0  0  0  0  0  0  0  0  0  0  0
    1.7673    1.2170   -2.3558 C   0  0  0  0  0  0  0  0  0  0  0  0
    2.1485    1.1116   -3.8224 C   0  0  0  0  0  0  0  0  0  0  0  0
    5.2234    4.0874    3.6919 H   0  0  0  0  0  0  0  0  0  0  0  0
    4.1120    2.7027    3.7980 H   0  0  0  0  0  0  0  0  0  0  0  0
    3.6595    4.1358    2.8452 H   0  0  0  0  0  0  0  0  0  0  0  0
    6.0045    2.2232    2.1997 H   0  0  0  0  0  0  0  0  0  0  0  0
    5.5805    3.6484    1.2457 H   0  0  0  0  0  0  0  0  0  0  0  0
    3.3303    2.6324    0.7457 H   0  0  0  0  0  0  0  0  0  0  0  0
    3.7731    1.2024    1.7104 H   0  0  0  0  0  0  0  0  0  0  0  0
    4.4026   -4.7315    2.8277 H   0  0  0  0  0  0  0  0  0  0  0  0
    6.0091   -4.9768    2.0839 H   0  0  0  0  0  0  0  0  0  0  0  0
    4.5581   -4.9671    1.0595 H   0  0  0  0  0  0  0  0  0  0  0  0
    8.0996   -3.6314    0.8378 H   0  0  0  0  0  0  0  0  0  0  0  0
    9.2245   -4.7164   -1.1152 H   0  0  0  0  0  0  0  0  0  0  0  0
    8.1771   -4.6219   -3.3644 H   0  0  0  0  0  0  0  0  0  0  0  0
    6.3340   -4.0513   -4.8079 H   0  0  0  0  0  0  0  0  0  0  0  0
    5.8522   -2.3734   -4.4653 H   0  0  0  0  0  0  0  0  0  0  0  0
    4.7582   -3.7037   -4.0511 H   0  0  0  0  0  0  0  0  0  0  0  0
    4.8750   -2.3718   -1.7158 H   0  0  0  0  0  0  0  0  0  0  0  0
    0.9949    1.9833   -2.1974 H   0  0  0  0  0  0  0  0  0  0  0  0
    1.4036    0.2536   -1.9699 H   0  0  0  0  0  0  0  0  0  0  0  0
    2.5518    2.0661   -4.1947 H   0  0  0  0  0  0  0  0  0  0  0  0
    1.2602    0.8563   -4.4222 H   0  0  0  0  0  0  0  0  0  0  0  0
    2.9017    0.3246   -3.9766 H   0  0  0  0  0  0  0  0  0  0  0  0
  1  2  1  0
  1 25  1  0
  1 26  1  0
  1 27  1  0
  2  3  1  0
  2 28  1  0
  2 29  1  0
  3  4  1  0
  3 30  1  0
  3 31  1  0
  4  5  1  6
  4  6  1  0
  4 20  1  0
  6  7  1  0
  7  8  2  0
  7 12  1  0
  8  9  1  0
  9 10  2  0
 10 11  1  0
 10 12  1  0
 11 32  1  0
 11 33  1  0
 11 34  1  0
 12 13  1  0
 13 14  2  0
 13 19  1  0
 14 15  1  0
 14 35  1  0
 15 16  2  0
 15 36  1  0
 16 17  1  0
 16 37  1  0
 17 18  1  0
 17 19  2  0
 18 38  1  0
 18 39  1  0
 18 40  1  0
 19 41  1  0
 20 21  2  0
 20 22  1  0
 22 23  1  0
 23 24  1  0
 23 42  1  0
 23 43  1  0
 24 44  1  0
 24 45  1  0
 24 46  1  0
M  END

