
     RDKit          3D

 51 54  0  0  0  0  0  0  0  0999 V2000
    0.6721   -2.0772   -0.8408 C   0  0  0  0  0  0  0  0  0  0  0  0
    2.0666   -1.8839   -1.0662 O   0  0  0  0  0  0  0  0  0  0  0  0
    2.8991   -2.4573   -0.1717 C   0  0  0  0  0  0  0  0  0  0  0  0
    2.5127   -3.1064    0.7747 O   0  0  0  0  0  0  0  0  0  0  0  0
    4.3127   -2.1802   -0.5166 C   0  0  0  0  0  0  0  0  0  0  0  0
    5.2964   -2.6356    0.2940 C   0  0  0  0  0  0  0  0  0  0  0  0
    6.7408   -2.4859    0.2215 C   0  0  0  0  0  0  0  0  0  0  0  0
    7.4936   -2.7295    1.3823 C   0  0  0  0  0  0  0  0  0  0  0  0
    8.8056   -2.5648    1.4794 N   0  0  0  0  0  0  0  0  0  0  0  0
    9.4409   -2.1427    0.3731 C   0  0  0  0  0  0  0  0  0  0  0  0
   10.9069   -1.9259    0.4688 C   0  0  0  0  0  0  0  0  0  0  0  0
   11.5487   -1.9971    1.7188 C   0  0  0  0  0  0  0  0  0  0  0  0
   12.9244   -1.7893    1.8190 C   0  0  0  0  0  0  0  0  0  0  0  0
   13.6804   -1.5161    0.6738 C   0  0  0  0  0  0  0  0  0  0  0  0
   13.0522   -1.4538   -0.5750 C   0  0  0  0  0  0  0  0  0  0  0  0
   11.6757   -1.6561   -0.6777 C   0  0  0  0  0  0  0  0  0  0  0  0
    8.8475   -1.9212   -0.8060 N   0  0  0  0  0  0  0  0  0  0  0  0
    7.5306   -2.1032   -0.9135 C   0  0  0  0  0  0  0  0  0  0  0  0
    6.9439   -1.9460   -2.1397 N   0  0  0  0  0  0  0  0  0  0  0  0
    7.5067   -1.5264   -3.3410 C   0  0  0  0  0  0  0  0  0  0  0  0
    8.7318   -0.8434   -3.6037 C   0  0  0  0  0  0  0  0  0  0  0  0
    8.7349   -0.6226   -4.9649 C   0  0  0  0  0  0  0  0  0  0  0  0
    9.7578    0.0170   -5.8207 C   0  0  1  0  0  0  0  0  0  0  0  0
   11.1055    0.3837   -5.2522 C   0  0  0  0  0  0  0  0  0  0  0  0
   11.0027   -0.7554   -6.2270 C   0  0  0  0  0  0  0  0  0  0  0  0
    7.5453   -1.1657   -5.4417 N   0  0  0  0  0  0  0  0  0  0  0  0
    7.0643   -1.2045   -6.7745 C   0  0  0  0  0  0  0  0  0  0  0  0
    5.7354   -1.8962   -6.9560 C   0  0  0  0  0  0  0  0  0  0  0  0
    7.6995   -0.7089   -7.6755 O   0  0  0  0  0  0  0  0  0  0  0  0
    6.7992   -1.7125   -4.4402 N   0  0  0  0  0  0  0  0  0  0  0  0
    0.1538   -1.5484   -1.6504 H   0  0  0  0  0  0  0  0  0  0  0  0
    0.3716   -1.6677    0.1359 H   0  0  0  0  0  0  0  0  0  0  0  0
    0.4159   -3.1478   -0.8590 H   0  0  0  0  0  0  0  0  0  0  0  0
    4.4718   -1.5588   -1.3988 H   0  0  0  0  0  0  0  0  0  0  0  0
    4.9407   -3.1793    1.1783 H   0  0  0  0  0  0  0  0  0  0  0  0
    6.9700   -3.0652    2.2868 H   0  0  0  0  0  0  0  0  0  0  0  0
   10.9461   -2.2162    2.6009 H   0  0  0  0  0  0  0  0  0  0  0  0
   13.4113   -1.8419    2.7962 H   0  0  0  0  0  0  0  0  0  0  0  0
   14.7588   -1.3558    0.7535 H   0  0  0  0  0  0  0  0  0  0  0  0
   13.6403   -1.2504   -1.4736 H   0  0  0  0  0  0  0  0  0  0  0  0
   11.1804   -1.6242   -1.6485 H   0  0  0  0  0  0  0  0  0  0  0  0
    5.9955   -2.2910   -2.2390 H   0  0  0  0  0  0  0  0  0  0  0  0
    9.4810   -0.5492   -2.8803 H   0  0  0  0  0  0  0  0  0  0  0  0
    9.3509    0.6662   -6.5975 H   0  0  0  0  0  0  0  0  0  0  0  0
   11.3144    0.1460   -4.2061 H   0  0  0  0  0  0  0  0  0  0  0  0
   11.5485    1.3241   -5.5908 H   0  0  0  0  0  0  0  0  0  0  0  0
   11.1130   -1.7713   -5.8378 H   0  0  0  0  0  0  0  0  0  0  0  0
   11.3646   -0.6171   -7.2492 H   0  0  0  0  0  0  0  0  0  0  0  0
    4.9581   -1.4096   -6.3492 H   0  0  0  0  0  0  0  0  0  0  0  0
    5.7912   -2.9396   -6.6131 H   0  0  0  0  0  0  0  0  0  0  0  0
    5.4763   -1.8542   -8.0207 H   0  0  0  0  0  0  0  0  0  0  0  0
  1  2  1  0
  1 31  1  0
  1 32  1  0
  1 33  1  0
  2  3  1  0
  3  4  2  0
  3  5  1  0
  5  6  2  0
  5 34  1  0
  6  7  1  0
  6 35  1  0
  7  8  2  0
  7 18  1  0
  8  9  1  0
  8 36  1  0
  9 10  2  0
 10 11  1  0
 10 17  1  0
 11 12  2  0
 11 16  1  0
 12 13  1  0
 12 37  1  0
 13 14  2  0
 13 38  1  0
 14 15  1  0
 14 39  1  0
 15 16  2  0
 15 40  1  0
 16 41  1  0
 17 18  2  0
 18 19  1  0
 19 20  1  0
 19 42  1  0
 20 21  1  0
 20 30  2  0
 21 22  2  0
 21 43  1  0
 22 23  1  0
 22 26  1  0
 23 24  1  0
 23 25  1  0
 23 44  1  6
 24 25  1  0
 24 45  1  0
 24 46  1  0
 25 47  1  0
 25 48  1  0
 26 27  1  0
 26 30  1  0
 27 28  1  0
 27 29  2  0
 28 49  1  0
 28 50  1  0
 28 51  1  0
M  END

