
     RDKit          3D

 45 48  0  0  0  0  0  0  0  0999 V2000
    1.0788   -0.1893    0.1281 C   0  0  0  0  0  0  0  0  0  0  0  0
    2.5587    0.0028    0.0932 C   0  0  0  0  0  0  0  0  0  0  0  0
    3.1413    1.0907   -0.4557 N   0  0  0  0  0  0  0  0  0  0  0  0
    4.5229    0.9750   -0.3195 C   0  0  0  0  0  0  0  0  0  0  0  0
    5.3981    1.9850   -0.7760 C   0  0  0  0  0  0  0  0  0  0  0  0
    6.8602    1.8211   -0.6421 C   0  0  0  0  0  0  0  0  0  0  0  0
    7.5150    0.6561   -1.0882 C   0  0  0  0  0  0  0  0  0  0  0  0
    8.8912    0.4977   -0.9739 C   0  0  0  0  0  0  0  0  0  0  0  0
    9.6998    1.5018   -0.3805 C   0  0  0  0  0  0  0  0  0  0  0  0
   11.0635    1.3475   -0.2528 N   0  0  0  0  0  0  0  0  0  0  0  0
   11.7067    0.1391   -0.7293 C   0  0  0  0  0  0  0  0  0  0  0  0
   11.8641    2.4055    0.3310 C   0  0  0  0  0  0  0  0  0  0  0  0
    9.0389    2.6724    0.0753 C   0  0  0  0  0  0  0  0  0  0  0  0
    7.6641    2.8228   -0.0628 C   0  0  0  0  0  0  0  0  0  0  0  0
    4.8620    3.1532   -1.3608 C   0  0  0  0  0  0  0  0  0  0  0  0
    5.5076    4.2689   -1.9596 C   0  0  0  0  0  0  0  0  0  0  0  0
    4.5087    5.1261   -2.4079 C   0  0  0  0  0  0  0  0  0  0  0  0
    3.2649    4.5242   -2.0977 C   0  0  0  0  0  0  0  0  0  0  0  0
    1.8939    5.0354   -2.3931 C   0  0  0  0  0  0  0  0  0  0  0  0
    3.4871    3.3463   -1.4754 N   0  0  0  0  0  0  0  0  0  0  0  0
    2.3875    2.3217   -1.0504 B   0  0  1  0  0  0  0  0  0  0  0  0
    1.6419    1.9368   -2.1620 F   0  0  0  0  0  0  0  0  0  0  0  0
    1.5573    2.8836   -0.0834 F   0  0  0  0  0  0  0  0  0  0  0  0
    4.7904   -0.2430    0.3621 C   0  0  0  0  0  0  0  0  0  0  0  0
    3.5642   -0.8510    0.6080 C   0  0  0  0  0  0  0  0  0  0  0  0
    0.6569   -0.1378   -0.8878 H   0  0  0  0  0  0  0  0  0  0  0  0
    0.5977    0.6149    0.7071 H   0  0  0  0  0  0  0  0  0  0  0  0
    0.8246   -1.1589    0.5773 H   0  0  0  0  0  0  0  0  0  0  0  0
    6.9328   -0.1323   -1.5696 H   0  0  0  0  0  0  0  0  0  0  0  0
    9.3408   -0.4158   -1.3607 H   0  0  0  0  0  0  0  0  0  0  0  0
   11.3160   -0.7648   -0.2274 H   0  0  0  0  0  0  0  0  0  0  0  0
   12.7834    0.1943   -0.5249 H   0  0  0  0  0  0  0  0  0  0  0  0
   11.5779   -0.0029   -1.8186 H   0  0  0  0  0  0  0  0  0  0  0  0
   11.7926    3.3486   -0.2417 H   0  0  0  0  0  0  0  0  0  0  0  0
   12.9182    2.1006    0.3428 H   0  0  0  0  0  0  0  0  0  0  0  0
   11.5674    2.6254    1.3730 H   0  0  0  0  0  0  0  0  0  0  0  0
    9.6018    3.4730    0.5533 H   0  0  0  0  0  0  0  0  0  0  0  0
    7.1929    3.7301    0.3206 H   0  0  0  0  0  0  0  0  0  0  0  0
    6.5823    4.3998   -2.0558 H   0  0  0  0  0  0  0  0  0  0  0  0
    4.6330    6.0804   -2.9164 H   0  0  0  0  0  0  0  0  0  0  0  0
    1.9430    6.0299   -2.8568 H   0  0  0  0  0  0  0  0  0  0  0  0
    1.2944    5.0929   -1.4712 H   0  0  0  0  0  0  0  0  0  0  0  0
    1.3618    4.3471   -3.0690 H   0  0  0  0  0  0  0  0  0  0  0  0
    5.7753   -0.6050    0.6457 H   0  0  0  0  0  0  0  0  0  0  0  0
    3.3836   -1.7990    1.1114 H   0  0  0  0  0  0  0  0  0  0  0  0
  1  2  1  0
  1 26  1  0
  1 27  1  0
  1 28  1  0
  2  3  1  0
  2 25  2  0
  3  4  1  0
  3 21  1  0
  4  5  1  0
  4 24  2  0
  5  6  1  0
  5 15  2  0
  6  7  2  0
  6 14  1  0
  7  8  1  0
  7 29  1  0
  8  9  2  0
  8 30  1  0
  9 10  1  0
  9 13  1  0
 10 11  1  0
 10 12  1  0
 11 31  1  0
 11 32  1  0
 11 33  1  0
 12 34  1  0
 12 35  1  0
 12 36  1  0
 13 14  2  0
 13 37  1  0
 14 38  1  0
 15 16  1  0
 15 20  1  0
 16 17  2  0
 16 39  1  0
 17 18  1  0
 17 40  1  0
 18 19  1  0
 18 20  2  0
 19 41  1  0
 19 42  1  0
 19 43  1  0
 20 21  1  0
 21 22  1  6
 21 23  1  0
 24 25  1  0
 24 44  1  0
 25 45  1  0
M  CHG  2  20   1  21  -1
M  END

