
     RDKit          3D

 24 25  0  0  0  0  0  0  0  0999 V2000
    0.8663   -0.1485    0.0205 N   0  0  0  0  0  0  0  0  0  0  0  0
    2.3316   -0.1308    0.0811 C   0  0  1  0  0  0  0  0  0  0  0  0
    2.8967    0.4813    1.3416 C   0  0  0  0  0  0  0  0  0  0  0  0
    3.7535    0.0796    2.3284 C   0  0  0  0  0  0  0  0  0  0  0  0
    3.8594    1.1680    3.2601 C   0  0  0  0  0  0  0  0  0  0  0  0
    3.0529    2.1488    2.7599 C   0  0  0  0  0  0  0  0  0  0  0  0
    2.6776    3.7202    3.3259 Cl  0  0  0  0  0  0  0  0  0  0  0  0
    2.4665    1.7570    1.6059 O   0  0  0  0  0  0  0  0  0  0  0  0
    2.9118   -1.5154   -0.1636 C   0  0  0  0  0  0  0  0  0  0  0  0
    3.8528   -1.7381   -1.1790 C   0  0  0  0  0  0  0  0  0  0  0  0
    4.3798   -3.0039   -1.4113 C   0  0  0  0  0  0  0  0  0  0  0  0
    5.2742   -3.1982   -2.3843 F   0  0  0  0  0  0  0  0  0  0  0  0
    3.9724   -4.0877   -0.6278 C   0  0  0  0  0  0  0  0  0  0  0  0
    4.4807   -5.2975   -0.8618 F   0  0  0  0  0  0  0  0  0  0  0  0
    3.0416   -3.9015    0.3888 C   0  0  0  0  0  0  0  0  0  0  0  0
    2.5334   -2.6225    0.6042 C   0  0  0  0  0  0  0  0  0  0  0  0
    1.6402   -2.4610    1.5982 F   0  0  0  0  0  0  0  0  0  0  0  0
    0.5180    0.8077    0.0937 H   0  0  0  0  0  0  0  0  0  0  0  0
    0.4945   -0.6530    0.8255 H   0  0  0  0  0  0  0  0  0  0  0  0
    2.6641    0.5039   -0.7588 H   0  0  0  0  0  0  0  0  0  0  0  0
    4.2587   -0.8812    2.3886 H   0  0  0  0  0  0  0  0  0  0  0  0
    4.4486    1.2178    4.1720 H   0  0  0  0  0  0  0  0  0  0  0  0
    4.1888   -0.9164   -1.8151 H   0  0  0  0  0  0  0  0  0  0  0  0
    2.7178   -4.7416    1.0043 H   0  0  0  0  0  0  0  0  0  0  0  0
  1  2  1  0
  1 18  1  0
  1 19  1  0
  2  3  1  0
  2  9  1  0
  2 20  1  6
  3  4  2  0
  3  8  1  0
  4  5  1  0
  4 21  1  0
  5  6  2  0
  5 22  1  0
  6  7  1  0
  6  8  1  0
  9 10  2  0
  9 16  1  0
 10 11  1  0
 10 23  1  0
 11 12  1  0
 11 13  2  0
 13 14  1  0
 13 15  1  0
 15 16  2  0
 15 24  1  0
 16 17  1  0
M  END

