
     RDKit          3D

 33 33  0  0  0  0  0  0  0  0999 V2000
    1.1070   -0.1109   -0.5572 C   0  0  0  0  0  0  0  0  0  0  0  0
    2.5618    0.1597   -0.1718 C   0  0  0  0  0  0  0  0  0  0  0  0
    3.2210    1.2632   -1.0052 C   0  0  0  0  0  0  0  0  0  0  0  0
    4.6764    1.5361   -0.6164 C   0  0  0  0  0  0  0  0  0  0  0  0
    5.3290    2.6330   -1.4545 C   0  0  0  0  0  0  0  0  0  0  0  0
    6.7541    2.9575   -1.0533 C   0  0  0  0  0  0  0  0  0  0  0  0
    7.2844    2.5295   -0.0592 O   0  0  0  0  0  0  0  0  0  0  0  0
    7.5326    3.8726   -2.0466 C   0  0  1  0  0  0  0  0  0  0  0  0
    8.5205    4.6966   -1.3411 C   0  0  0  0  0  0  0  0  0  0  0  0
    9.2975    5.3618   -0.7978 N   0  0  0  0  0  0  0  0  0  0  0  0
    8.1731    2.9996   -3.1308 C   0  0  0  0  0  0  0  0  0  0  0  0
    7.7665    3.1139   -4.4668 C   0  0  0  0  0  0  0  0  0  0  0  0
    8.3380    2.3016   -5.4513 C   0  0  0  0  0  0  0  0  0  0  0  0
    9.3206    1.3701   -5.1066 C   0  0  0  0  0  0  0  0  0  0  0  0
    9.7294    1.2525   -3.7737 C   0  0  0  0  0  0  0  0  0  0  0  0
    9.1585    2.0607   -2.7887 C   0  0  0  0  0  0  0  0  0  0  0  0
    0.6667   -0.9088    0.0616 H   0  0  0  0  0  0  0  0  0  0  0  0
    1.0222   -0.4232   -1.6117 H   0  0  0  0  0  0  0  0  0  0  0  0
    0.4835    0.7902   -0.4301 H   0  0  0  0  0  0  0  0  0  0  0  0
    3.1506   -0.7700   -0.2729 H   0  0  0  0  0  0  0  0  0  0  0  0
    2.6170    0.4332    0.8975 H   0  0  0  0  0  0  0  0  0  0  0  0
    2.6325    2.1949   -0.9057 H   0  0  0  0  0  0  0  0  0  0  0  0
    3.1692    0.9905   -2.0762 H   0  0  0  0  0  0  0  0  0  0  0  0
    5.2705    0.6110   -0.7121 H   0  0  0  0  0  0  0  0  0  0  0  0
    4.7386    1.8159    0.4483 H   0  0  0  0  0  0  0  0  0  0  0  0
    4.7568    3.5789   -1.3802 H   0  0  0  0  0  0  0  0  0  0  0  0
    5.3219    2.3810   -2.5307 H   0  0  0  0  0  0  0  0  0  0  0  0
    6.8153    4.5549   -2.5300 H   0  0  0  0  0  0  0  0  0  0  0  0
    7.0044    3.8479   -4.7435 H   0  0  0  0  0  0  0  0  0  0  0  0
    8.0163    2.4023   -6.4909 H   0  0  0  0  0  0  0  0  0  0  0  0
    9.7700    0.7373   -5.8759 H   0  0  0  0  0  0  0  0  0  0  0  0
   10.4988    0.5270   -3.4984 H   0  0  0  0  0  0  0  0  0  0  0  0
    9.4755    1.9663   -1.7472 H   0  0  0  0  0  0  0  0  0  0  0  0
  1  2  1  0
  1 17  1  0
  1 18  1  0
  1 19  1  0
  2  3  1  0
  2 20  1  0
  2 21  1  0
  3  4  1  0
  3 22  1  0
  3 23  1  0
  4  5  1  0
  4 24  1  0
  4 25  1  0
  5  6  1  0
  5 26  1  0
  5 27  1  0
  6  7  2  0
  6  8  1  0
  8  9  1  0
  8 11  1  0
  8 28  1  6
  9 10  3  0
 11 12  2  0
 11 16  1  0
 12 13  1  0
 12 29  1  0
 13 14  2  0
 13 30  1  0
 14 15  1  0
 14 31  1  0
 15 16  2  0
 15 32  1  0
 16 33  1  0
M  END

