
     RDKit          3D

 37 39  0  0  0  0  0  0  0  0999 V2000
    4.6405    1.5458   -3.6972 O   0  0  0  0  0  0  0  0  0  0  0  0
    4.9293    0.5702   -3.0494 C   0  0  0  0  0  0  0  0  0  0  0  0
    5.1460   -0.6164   -3.5984 O   0  0  0  0  0  0  0  0  0  0  0  0
    5.1090    0.6261   -1.5063 C   0  0  1  0  0  0  0  0  0  0  0  0
    6.1221    0.2463   -1.2860 H   0  0  0  0  0  0  0  0  0  0  0  0
    4.8788    2.0332   -0.9472 C   0  0  0  0  0  0  0  0  0  0  0  0
    4.1445    1.8335    0.3841 C   0  0  1  0  0  0  0  0  0  0  0  0
    4.8695    1.5994    1.1817 H   0  0  0  0  0  0  0  0  0  0  0  0
    3.4155    2.9371    0.8466 O   0  0  0  0  0  0  0  0  0  0  0  0
    3.2941    0.5720    0.1220 C   0  0  0  0  0  0  0  0  0  0  0  0
    4.1270   -0.2180   -0.7765 N   0  0  0  0  0  0  0  0  0  0  0  0
    4.2556   -1.5804   -0.7871 C   0  0  0  0  0  0  0  0  0  0  0  0
    5.1199   -2.1377   -1.4855 O   0  0  0  0  0  0  0  0  0  0  0  0
    3.4022   -2.3062   -0.0047 N   0  0  0  0  0  0  0  0  0  0  0  0
    3.4139   -3.7665   -0.0026 C   0  0  1  0  0  0  0  0  0  0  0  0
    4.1249   -4.4072    1.2212 C   0  0  0  0  0  0  0  0  0  0  0  0
    3.0982   -4.8249    2.1400 O   0  0  0  0  0  0  0  0  0  0  0  0
    1.9302   -4.8811    1.4512 C   0  0  0  0  0  0  0  0  0  0  0  0
    0.7389   -5.4184    1.9407 C   0  0  0  0  0  0  0  0  0  0  0  0
   -0.3761   -5.3893    1.0948 C   0  0  0  0  0  0  0  0  0  0  0  0
   -0.3048   -4.8411   -0.1942 C   0  0  0  0  0  0  0  0  0  0  0  0
    0.8989   -4.2982   -0.6638 C   0  0  0  0  0  0  0  0  0  0  0  0
    2.0178   -4.3289    0.1666 C   0  0  0  0  0  0  0  0  0  0  0  0
    5.2908   -1.3007   -2.8864 H   0  0  0  0  0  0  0  0  0  0  0  0
    4.2379    2.5887   -1.6520 H   0  0  0  0  0  0  0  0  0  0  0  0
    5.8129    2.6012   -0.8394 H   0  0  0  0  0  0  0  0  0  0  0  0
    2.8982    3.2942    0.1109 H   0  0  0  0  0  0  0  0  0  0  0  0
    2.3301    0.8579   -0.3423 H   0  0  0  0  0  0  0  0  0  0  0  0
    3.0768    0.0353    1.0576 H   0  0  0  0  0  0  0  0  0  0  0  0
    2.6576   -1.8450    0.5021 H   0  0  0  0  0  0  0  0  0  0  0  0
    3.9120   -4.0718   -0.9326 H   0  0  0  0  0  0  0  0  0  0  0  0
    4.7978   -3.7084    1.7364 H   0  0  0  0  0  0  0  0  0  0  0  0
    4.6971   -5.2985    0.9121 H   0  0  0  0  0  0  0  0  0  0  0  0
    0.6918   -5.8452    2.9440 H   0  0  0  0  0  0  0  0  0  0  0  0
   -1.3218   -5.8086    1.4482 H   0  0  0  0  0  0  0  0  0  0  0  0
   -1.1905   -4.8380   -0.8333 H   0  0  0  0  0  0  0  0  0  0  0  0
    0.9593   -3.8606   -1.6640 H   0  0  0  0  0  0  0  0  0  0  0  0
  1  2  2  0
  2  3  1  0
  2  4  1  0
  3 24  1  0
  4  5  1  6
  4  6  1  0
  4 11  1  0
  6  7  1  0
  6 25  1  0
  6 26  1  0
  7  8  1  1
  7  9  1  0
  7 10  1  0
  9 27  1  0
 10 11  1  0
 10 28  1  0
 10 29  1  0
 11 12  1  0
 12 13  2  0
 12 14  1  0
 14 15  1  0
 14 30  1  0
 15 16  1  0
 15 23  1  0
 15 31  1  6
 16 17  1  0
 16 32  1  0
 16 33  1  0
 17 18  1  0
 18 19  1  0
 18 23  2  0
 19 20  2  0
 19 34  1  0
 20 21  1  0
 20 35  1  0
 21 22  2  0
 21 36  1  0
 22 23  1  0
 22 37  1  0
M  END

