
     RDKit          3D

 24 25  0  0  0  0  0  0  0  0999 V2000
    1.1649    0.0057    0.2358 O   0  0  0  0  0  0  0  0  0  0  0  0
    2.3799    0.0377    0.1648 C   0  0  0  0  0  0  0  0  0  0  0  0
    3.1317    1.2518    0.6183 C   0  0  0  0  0  0  0  0  0  0  0  0
    2.4756    2.1458    1.4820 C   0  0  0  0  0  0  0  0  0  0  0  0
    3.1017    3.3169    1.8923 C   0  0  0  0  0  0  0  0  0  0  0  0
    4.3869    3.6311    1.4287 C   0  0  0  0  0  0  0  0  0  0  0  0
    5.1407    5.1035    1.9518 Cl  0  0  0  0  0  0  0  0  0  0  0  0
    5.0424    2.7536    0.5465 C   0  0  0  0  0  0  0  0  0  0  0  0
    6.6283    3.1170   -0.0689 Cl  0  0  0  0  0  0  0  0  0  0  0  0
    4.4146    1.5699    0.1525 C   0  0  0  0  0  0  0  0  0  0  0  0
    3.1018   -1.1444   -0.4349 C   0  0  0  0  0  0  0  0  0  0  0  0
    2.4670   -1.8198   -1.4911 C   0  0  0  0  0  0  0  0  0  0  0  0
    3.0371   -2.9471   -2.0650 C   0  0  0  0  0  0  0  0  0  0  0  0
    2.4210   -3.5500   -3.0814 F   0  0  0  0  0  0  0  0  0  0  0  0
    4.2497   -3.4584   -1.5790 C   0  0  0  0  0  0  0  0  0  0  0  0
    5.0045   -5.0002   -2.3700 Br  0  0  0  0  0  0  0  0  0  0  0  0
    4.8799   -2.8247   -0.5073 C   0  0  0  0  0  0  0  0  0  0  0  0
    4.3024   -1.6841    0.0472 C   0  0  0  0  0  0  0  0  0  0  0  0
    4.9187   -1.1241    1.0976 F   0  0  0  0  0  0  0  0  0  0  0  0
    1.4676    1.9026    1.8215 H   0  0  0  0  0  0  0  0  0  0  0  0
    2.6052    4.0098    2.5735 H   0  0  0  0  0  0  0  0  0  0  0  0
    4.9427    0.9137   -0.5391 H   0  0  0  0  0  0  0  0  0  0  0  0
    1.5089   -1.4541   -1.8640 H   0  0  0  0  0  0  0  0  0  0  0  0
    5.8104   -3.2106   -0.0899 H   0  0  0  0  0  0  0  0  0  0  0  0
  1  2  2  0
  2  3  1  0
  2 11  1  0
  3  4  2  0
  3 10  1  0
  4  5  1  0
  4 20  1  0
  5  6  2  0
  5 21  1  0
  6  7  1  0
  6  8  1  0
  8  9  1  0
  8 10  2  0
 10 22  1  0
 11 12  2  0
 11 18  1  0
 12 13  1  0
 12 23  1  0
 13 14  1  0
 13 15  2  0
 15 16  1  0
 15 17  1  0
 17 18  2  0
 17 24  1  0
 18 19  1  0
M  END

