
     RDKit          3D

 45 47  0  0  0  0  0  0  0  0999 V2000
    1.0865    0.3990    0.4583 C   0  0  0  0  0  0  0  0  0  0  0  0
    2.6256    0.2381    0.4615 C   0  0  1  0  0  0  0  0  0  0  0  0
    3.1584    0.7985   -0.8677 C   0  0  0  0  0  0  0  0  0  0  0  0
    3.0708    1.1356    1.6612 C   0  0  0  0  0  0  0  0  0  0  0  0
    2.9565    0.5565    2.8826 N   0  0  0  0  0  0  0  0  0  0  0  0
    3.4037    2.2949    1.4957 O   0  0  0  0  0  0  0  0  0  0  0  0
    3.0531   -1.1810    0.6782 N   0  0  0  0  0  0  0  0  0  0  0  0
    2.1271   -2.2461    0.3619 C   0  0  0  0  0  0  0  0  0  0  0  0
    1.5497   -2.9898    1.5698 C   0  0  1  0  0  0  0  0  0  0  0  0
    1.0757   -2.1373    2.5032 F   0  0  0  0  0  0  0  0  0  0  0  0
    0.5309   -3.7698    1.1773 F   0  0  0  0  0  0  0  0  0  0  0  0
    2.4412   -3.7807    2.1942 F   0  0  0  0  0  0  0  0  0  0  0  0
    4.4258   -1.5012    0.7917 C   0  0  0  0  0  0  0  0  0  0  0  0
    5.4340   -0.5140    0.9579 C   0  0  0  0  0  0  0  0  0  0  0  0
    6.7261   -0.7979    1.0897 N   0  0  0  0  0  0  0  0  0  0  0  0
    7.1342   -2.0635    1.0683 C   0  0  0  0  0  0  0  0  0  0  0  0
    6.2468   -3.1397    0.8985 C   0  0  0  0  0  0  0  0  0  0  0  0
    6.7055   -4.5379    0.9062 C   0  0  0  0  0  0  0  0  0  0  0  0
    6.0067   -5.6164    1.4266 C   0  0  0  0  0  0  0  0  0  0  0  0
    6.7256   -6.7758    1.2739 N   0  0  0  0  0  0  0  0  0  0  0  0
    6.4546   -7.7000    1.5847 H   0  0  0  0  0  0  0  0  0  0  0  0
    7.9176   -6.4881    0.6474 C   0  0  0  0  0  0  0  0  0  0  0  0
    8.8543   -7.3726    0.3296 N   0  0  0  0  0  0  0  0  0  0  0  0
    9.9232   -6.8807   -0.2917 C   0  0  0  0  0  0  0  0  0  0  0  0
   10.0546   -5.5139   -0.6051 C   0  0  0  0  0  0  0  0  0  0  0  0
   11.1638   -5.1128   -1.2458 F   0  0  0  0  0  0  0  0  0  0  0  0
    9.0764   -4.5871   -0.2739 C   0  0  0  0  0  0  0  0  0  0  0  0
    7.9451   -5.0822    0.3981 C   0  0  0  0  0  0  0  0  0  0  0  0
    4.8853   -2.8317    0.7550 C   0  0  0  0  0  0  0  0  0  0  0  0
    0.8652    1.4754    0.4811 H   0  0  0  0  0  0  0  0  0  0  0  0
    0.6127   -0.0643    1.3334 H   0  0  0  0  0  0  0  0  0  0  0  0
    0.6288   -0.0007   -0.4591 H   0  0  0  0  0  0  0  0  0  0  0  0
    2.8906    1.8590   -0.9601 H   0  0  0  0  0  0  0  0  0  0  0  0
    2.7115    0.2411   -1.7059 H   0  0  0  0  0  0  0  0  0  0  0  0
    4.2497    0.7248   -0.9511 H   0  0  0  0  0  0  0  0  0  0  0  0
    2.7280   -0.4235    2.9837 H   0  0  0  0  0  0  0  0  0  0  0  0
    3.2198    1.0989    3.6966 H   0  0  0  0  0  0  0  0  0  0  0  0
    2.5695   -3.0041   -0.3039 H   0  0  0  0  0  0  0  0  0  0  0  0
    1.2572   -1.8526   -0.1724 H   0  0  0  0  0  0  0  0  0  0  0  0
    5.1930    0.5491    0.9793 H   0  0  0  0  0  0  0  0  0  0  0  0
    8.2040   -2.2403    1.2204 H   0  0  0  0  0  0  0  0  0  0  0  0
    5.0400   -5.6207    1.9271 H   0  0  0  0  0  0  0  0  0  0  0  0
   10.7269   -7.5696   -0.5723 H   0  0  0  0  0  0  0  0  0  0  0  0
    9.2050   -3.5366   -0.5394 H   0  0  0  0  0  0  0  0  0  0  0  0
    4.1974   -3.6624    0.6249 H   0  0  0  0  0  0  0  0  0  0  0  0
  1  2  1  0
  1 30  1  0
  1 31  1  0
  1 32  1  0
  2  3  1  0
  2  4  1  1
  2  7  1  0
  3 33  1  0
  3 34  1  0
  3 35  1  0
  4  5  1  0
  4  6  2  0
  5 36  1  0
  5 37  1  0
  7  8  1  0
  7 13  1  0
  8  9  1  0
  8 38  1  0
  8 39  1  0
  9 10  1  1
  9 11  1  0
  9 12  1  0
 13 14  2  0
 13 29  1  0
 14 15  1  0
 14 40  1  0
 15 16  2  0
 16 17  1  0
 16 41  1  0
 17 18  1  0
 17 29  2  0
 18 19  2  0
 18 28  1  0
 19 20  1  0
 19 42  1  0
 20 21  1  0
 20 22  1  0
 22 23  1  0
 22 28  2  0
 23 24  2  0
 24 25  1  0
 24 43  1  0
 25 26  1  0
 25 27  2  0
 27 28  1  0
 27 44  1  0
 29 45  1  0
M  END

