
     RDKit          3D

 46 46  0  0  0  0  0  0  0  0999 V2000
    1.1517    0.4564   -0.3471 C   0  0  0  0  0  0  0  0  0  0  0  0
    2.5339    0.2304   -0.3607 O   0  0  0  0  0  0  0  0  0  0  0  0
    2.9336   -0.8076   -1.2215 C   0  0  0  0  0  0  0  0  0  0  0  0
    4.4465   -0.9540   -1.1478 C   0  0  0  0  0  0  0  0  0  0  0  0
    4.9752   -2.0829   -2.0342 C   0  0  0  0  0  0  0  0  0  0  0  0
    6.4327   -2.2189   -1.9706 N   0  0  0  0  0  0  0  0  0  0  0  0
    6.8728   -2.9179   -0.7649 C   0  0  0  0  0  0  0  0  0  0  0  0
    8.2486   -2.4969   -0.2544 C   0  0  0  0  0  0  0  0  0  0  0  0
    8.5359   -3.2762    0.8787 O   0  0  0  0  0  0  0  0  0  0  0  0
    9.7681   -2.9829    1.4785 C   0  0  0  0  0  0  0  0  0  0  0  0
    7.0377   -2.8006   -3.1714 C   0  0  0  0  0  0  0  0  0  0  0  0
    6.6554   -2.1511   -4.4931 C   0  0  0  0  0  0  0  0  0  0  0  0
    6.1133   -2.9787   -5.4831 C   0  0  0  0  0  0  0  0  0  0  0  0
    5.6759   -2.5005   -6.7269 C   0  0  0  0  0  0  0  0  0  0  0  0
    5.1115   -3.4309   -7.7273 C   0  0  0  0  0  0  0  0  0  0  0  0
    4.9908   -4.6268   -7.5753 O   0  0  0  0  0  0  0  0  0  0  0  0
    5.7671   -1.1263   -6.9923 C   0  0  0  0  0  0  0  0  0  0  0  0
    6.3084   -0.2766   -6.0380 C   0  0  0  0  0  0  0  0  0  0  0  0
    6.7699   -0.7650   -4.7994 C   0  0  0  0  0  0  0  0  0  0  0  0
    7.2497    0.1952   -3.9737 O   0  0  0  0  0  0  0  0  0  0  0  0
    8.4119   -0.0094   -3.1859 C   0  0  0  0  0  0  0  0  0  0  0  0
    0.9503    1.2802    0.3537 H   0  0  0  0  0  0  0  0  0  0  0  0
    0.5851   -0.4370   -0.0112 H   0  0  0  0  0  0  0  0  0  0  0  0
    0.7649    0.7434   -1.3470 H   0  0  0  0  0  0  0  0  0  0  0  0
    2.6164   -0.5918   -2.2654 H   0  0  0  0  0  0  0  0  0  0  0  0
    2.4382   -1.7616   -0.9351 H   0  0  0  0  0  0  0  0  0  0  0  0
    4.7203   -1.1176   -0.0921 H   0  0  0  0  0  0  0  0  0  0  0  0
    4.9190   -0.0074   -1.4556 H   0  0  0  0  0  0  0  0  0  0  0  0
    4.6962   -1.8666   -3.0757 H   0  0  0  0  0  0  0  0  0  0  0  0
    4.4703   -3.0417   -1.7764 H   0  0  0  0  0  0  0  0  0  0  0  0
    6.8781   -4.0210   -0.9076 H   0  0  0  0  0  0  0  0  0  0  0  0
    6.1596   -2.7181    0.0475 H   0  0  0  0  0  0  0  0  0  0  0  0
    8.2383   -1.4158   -0.0015 H   0  0  0  0  0  0  0  0  0  0  0  0
    9.0310   -2.6394   -1.0299 H   0  0  0  0  0  0  0  0  0  0  0  0
    9.8875   -3.6473    2.3469 H   0  0  0  0  0  0  0  0  0  0  0  0
    9.8215   -1.9318    1.8293 H   0  0  0  0  0  0  0  0  0  0  0  0
   10.6191   -3.1522    0.7867 H   0  0  0  0  0  0  0  0  0  0  0  0
    6.7858   -3.8802   -3.2591 H   0  0  0  0  0  0  0  0  0  0  0  0
    8.1318   -2.7678   -3.0425 H   0  0  0  0  0  0  0  0  0  0  0  0
    5.9999   -4.0487   -5.2899 H   0  0  0  0  0  0  0  0  0  0  0  0
    4.7852   -2.9381   -8.6816 H   0  0  0  0  0  0  0  0  0  0  0  0
    5.4225   -0.7288   -7.9518 H   0  0  0  0  0  0  0  0  0  0  0  0
    6.4069    0.7956   -6.2172 H   0  0  0  0  0  0  0  0  0  0  0  0
    8.7931    0.9908   -2.9356 H   0  0  0  0  0  0  0  0  0  0  0  0
    9.1886   -0.5512   -3.7523 H   0  0  0  0  0  0  0  0  0  0  0  0
    8.1687   -0.5472   -2.2597 H   0  0  0  0  0  0  0  0  0  0  0  0
  1  2  1  0
  1 22  1  0
  1 23  1  0
  1 24  1  0
  2  3  1  0
  3  4  1  0
  3 25  1  0
  3 26  1  0
  4  5  1  0
  4 27  1  0
  4 28  1  0
  5  6  1  0
  5 29  1  0
  5 30  1  0
  6  7  1  0
  6 11  1  0
  7  8  1  0
  7 31  1  0
  7 32  1  0
  8  9  1  0
  8 33  1  0
  8 34  1  0
  9 10  1  0
 10 35  1  0
 10 36  1  0
 10 37  1  0
 11 12  1  0
 11 38  1  0
 11 39  1  0
 12 13  2  0
 12 19  1  0
 13 14  1  0
 13 40  1  0
 14 15  1  0
 14 17  2  0
 15 16  2  0
 15 41  1  0
 17 18  1  0
 17 42  1  0
 18 19  2  0
 18 43  1  0
 19 20  1  0
 20 21  1  0
 21 44  1  0
 21 45  1  0
 21 46  1  0
M  END

