
     RDKit          3D

 60 62  0  0  0  0  0  0  0  0999 V2000
    8.3190   -2.2838   -3.9303 N   0  0  0  0  0  0  0  0  0  0  0  0
    8.4866   -3.4019   -3.1179 C   0  0  0  0  0  0  0  0  0  0  0  0
    9.5465   -4.2080   -3.5051 N   0  0  0  0  0  0  0  0  0  0  0  0
    7.6977   -3.5995   -2.1269 N   0  0  0  0  0  0  0  0  0  0  0  0
    7.9685   -4.6803   -1.2114 C   0  0  0  0  0  0  0  0  0  0  0  0
    7.0785   -4.5264    0.0232 C   0  0  0  0  0  0  0  0  0  0  0  0
    7.2679   -5.6350    1.0402 C   0  0  0  0  0  0  0  0  0  0  0  0
    8.0615   -6.5621    0.8208 O   0  0  0  0  0  0  0  0  0  0  0  0
    6.5686   -5.6009    2.2132 N   0  0  0  0  0  0  0  0  0  0  0  0
    5.5337   -4.6222    2.5524 C   0  0  0  0  0  0  0  0  0  0  0  0
    4.1189   -5.2069    2.7415 C   0  0  0  0  0  0  0  0  0  0  0  0
    3.9063   -5.9273    3.9781 N   0  0  0  0  0  0  0  0  0  0  0  0
    3.4662   -5.2778    5.0904 C   0  0  0  0  0  0  0  0  0  0  0  0
    3.1921   -4.0945    5.1516 O   0  0  0  0  0  0  0  0  0  0  0  0
    3.3694   -6.1386    6.1347 O   0  0  0  0  0  0  0  0  0  0  0  0
    2.8790   -5.6022    7.3666 C   0  0  0  0  0  0  0  0  0  0  0  0
    1.3424   -5.5619    7.4146 C   0  0  2  0  0  0  0  0  0  0  0  0
    0.8273   -4.9452    8.7049 C   0  0  0  0  0  0  0  0  0  0  0  0
    1.0874   -3.6873    9.2456 C   0  0  0  0  0  0  0  0  0  0  0  0
    0.4931   -3.3348   10.4655 C   0  0  0  0  0  0  0  0  0  0  0  0
   -0.3516   -4.2326   11.1314 C   0  0  0  0  0  0  0  0  0  0  0  0
   -0.6186   -5.4951   10.5912 C   0  0  0  0  0  0  0  0  0  0  0  0
   -0.0252   -5.8505    9.3751 C   0  0  0  0  0  0  0  0  0  0  0  0
   -0.1234   -7.0795    8.5737 C   0  0  0  0  0  0  0  0  0  0  0  0
   -0.8399   -8.2608    8.7936 C   0  0  0  0  0  0  0  0  0  0  0  0
   -0.7534   -9.2891    7.8496 C   0  0  0  0  0  0  0  0  0  0  0  0
    0.0369   -9.1389    6.7023 C   0  0  0  0  0  0  0  0  0  0  0  0
    0.7542   -7.9557    6.4777 C   0  0  0  0  0  0  0  0  0  0  0  0
    0.6721   -6.9268    7.4151 C   0  0  0  0  0  0  0  0  0  0  0  0
    6.9081   -6.6195    3.2141 C   0  0  0  0  0  0  0  0  0  0  0  0
    6.2918   -7.9938    2.8916 C   0  0  0  0  0  0  0  0  0  0  0  0
    5.3406   -8.4387    3.4958 O   0  0  0  0  0  0  0  0  0  0  0  0
    6.8642   -8.6448    1.8903 O   0  0  0  0  0  0  0  0  0  0  0  0
    8.4250   -2.4587   -4.9263 H   0  0  0  0  0  0  0  0  0  0  0  0
    7.4565   -1.7937   -3.7126 H   0  0  0  0  0  0  0  0  0  0  0  0
   10.3268   -3.7409   -3.9549 H   0  0  0  0  0  0  0  0  0  0  0  0
    9.8267   -4.9320   -2.8546 H   0  0  0  0  0  0  0  0  0  0  0  0
    9.0282   -4.7172   -0.8791 H   0  0  0  0  0  0  0  0  0  0  0  0
    7.7692   -5.6716   -1.6648 H   0  0  0  0  0  0  0  0  0  0  0  0
    6.0264   -4.4932   -0.3067 H   0  0  0  0  0  0  0  0  0  0  0  0
    7.2724   -3.5454    0.4889 H   0  0  0  0  0  0  0  0  0  0  0  0
    5.4922   -3.8733    1.7536 H   0  0  0  0  0  0  0  0  0  0  0  0
    5.8207   -4.0905    3.4761 H   0  0  0  0  0  0  0  0  0  0  0  0
    3.8758   -5.8659    1.8921 H   0  0  0  0  0  0  0  0  0  0  0  0
    3.4147   -4.3618    2.7274 H   0  0  0  0  0  0  0  0  0  0  0  0
    4.1762   -6.9115    4.0480 H   0  0  0  0  0  0  0  0  0  0  0  0
    3.2813   -4.5886    7.5043 H   0  0  0  0  0  0  0  0  0  0  0  0
    3.2705   -6.2640    8.1516 H   0  0  0  0  0  0  0  0  0  0  0  0
    1.0098   -4.9592    6.5503 H   0  0  0  0  0  0  0  0  0  0  0  0
    1.7374   -2.9776    8.7264 H   0  0  0  0  0  0  0  0  0  0  0  0
    0.6878   -2.3504   10.8988 H   0  0  0  0  0  0  0  0  0  0  0  0
   -0.8084   -3.9423   12.0811 H   0  0  0  0  0  0  0  0  0  0  0  0
   -1.2817   -6.1892   11.1140 H   0  0  0  0  0  0  0  0  0  0  0  0
   -1.4585   -8.3821    9.6866 H   0  0  0  0  0  0  0  0  0  0  0  0
   -1.3073  -10.2181    8.0077 H   0  0  0  0  0  0  0  0  0  0  0  0
    0.0956   -9.9522    5.9745 H   0  0  0  0  0  0  0  0  0  0  0  0
    1.3714   -7.8458    5.5841 H   0  0  0  0  0  0  0  0  0  0  0  0
    6.5348   -6.2941    4.1909 H   0  0  0  0  0  0  0  0  0  0  0  0
    8.0043   -6.7200    3.2585 H   0  0  0  0  0  0  0  0  0  0  0  0
    7.5147   -8.0360    1.4455 H   0  0  0  0  0  0  0  0  0  0  0  0
  1  2  1  0
  1 34  1  0
  1 35  1  0
  2  3  1  0
  2  4  2  0
  3 36  1  0
  3 37  1  0
  4  5  1  0
  5  6  1  0
  5 38  1  0
  5 39  1  0
  6  7  1  0
  6 40  1  0
  6 41  1  0
  7  8  2  0
  7  9  1  0
  9 10  1  0
  9 30  1  0
 10 11  1  0
 10 42  1  0
 10 43  1  0
 11 12  1  0
 11 44  1  0
 11 45  1  0
 12 13  1  0
 12 46  1  0
 13 14  2  0
 13 15  1  0
 15 16  1  0
 16 17  1  0
 16 47  1  0
 16 48  1  0
 17 18  1  0
 17 29  1  0
 17 49  1  6
 18 19  2  0
 18 23  1  0
 19 20  1  0
 19 50  1  0
 20 21  2  0
 20 51  1  0
 21 22  1  0
 21 52  1  0
 22 23  2  0
 22 53  1  0
 23 24  1  0
 24 25  2  0
 24 29  1  0
 25 26  1  0
 25 54  1  0
 26 27  2  0
 26 55  1  0
 27 28  1  0
 27 56  1  0
 28 29  2  0
 28 57  1  0
 30 31  1  0
 30 58  1  0
 30 59  1  0
 31 32  2  0
 31 33  1  0
 33 60  1  0
M  END

