
     RDKit          3D

 86 95  0  0  0  0  0  0  0  0999 V2000
    4.8470    1.2072    5.2459 C   0  0  0  0  0  0  0  0  0  0  0  0
    4.0209    0.6904    4.0480 C   0  0  2  0  0  0  0  0  0  0  0  0
    2.5299    0.5877    4.4363 C   0  0  0  0  0  0  0  0  0  0  0  0
    4.5573   -0.6488    3.5372 C   0  0  0  0  0  0  0  0  0  0  0  0
    4.6443   -1.8673    4.2062 C   0  0  0  0  0  0  0  0  0  0  0  0
    5.1769   -2.9796    3.5380 C   0  0  0  0  0  0  0  0  0  0  0  0
    5.6160   -2.8694    2.2124 C   0  0  0  0  0  0  0  0  0  0  0  0
    5.5306   -1.6490    1.5338 C   0  0  0  0  0  0  0  0  0  0  0  0
    5.0002   -0.5388    2.2005 C   0  0  0  0  0  0  0  0  0  0  0  0
    4.7877    0.8433    1.7538 C   0  0  0  0  0  0  0  0  0  0  0  0
    5.0473    1.4732    0.5317 C   0  0  0  0  0  0  0  0  0  0  0  0
    4.7455    2.8271    0.3792 C   0  0  0  0  0  0  0  0  0  0  0  0
    4.1668    3.5627    1.4327 C   0  0  0  0  0  0  0  0  0  0  0  0
    3.8566    4.9399    1.2621 N   0  0  0  0  0  0  0  0  0  0  0  0
    4.1811    5.8649    2.2873 C   0  0  0  0  0  0  0  0  0  0  0  0
    5.4047    5.7776    2.9761 C   0  0  0  0  0  0  0  0  0  0  0  0
    5.7155    6.6797    3.9911 C   0  0  0  0  0  0  0  0  0  0  0  0
    4.8331    7.7144    4.3562 C   0  0  0  0  0  0  0  0  0  0  0  0
    5.1730    8.6788    5.4349 C   0  0  0  0  0  0  0  0  0  0  0  0
    6.4973    9.1192    5.6262 C   0  0  0  0  0  0  0  0  0  0  0  0
    6.8171   10.0247    6.6397 C   0  0  0  0  0  0  0  0  0  0  0  0
    5.8201   10.5151    7.4884 C   0  0  0  0  0  0  0  0  0  0  0  0
    4.5001   10.0891    7.3123 C   0  0  0  0  0  0  0  0  0  0  0  0
    4.1814    9.1826    6.2993 C   0  0  0  0  0  0  0  0  0  0  0  0
    3.6147    7.7958    3.6552 C   0  0  0  0  0  0  0  0  0  0  0  0
    3.2880    6.8901    2.6484 C   0  0  0  0  0  0  0  0  0  0  0  0
    3.2247    5.3823    0.0741 C   0  0  0  0  0  0  0  0  0  0  0  0
    2.2175    4.6134   -0.5382 C   0  0  0  0  0  0  0  0  0  0  0  0
    1.6072    5.0483   -1.7116 C   0  0  0  0  0  0  0  0  0  0  0  0
    1.9575    6.2695   -2.3196 C   0  0  0  0  0  0  0  0  0  0  0  0
    1.2621    6.7300   -3.5465 C   0  0  0  0  0  0  0  0  0  0  0  0
   -0.0876    6.4877   -3.7647 C   0  0  0  0  0  0  0  0  0  0  0  0
   -0.7827    6.9032   -4.9389 C   0  0  0  0  0  0  0  0  0  0  0  0
   -2.1696    6.6312   -5.1009 C   0  0  0  0  0  0  0  0  0  0  0  0
   -2.8483    7.0320   -6.2339 C   0  0  0  0  0  0  0  0  0  0  0  0
   -2.1636    7.7276   -7.2578 C   0  0  0  0  0  0  0  0  0  0  0  0
   -0.8163    8.0114   -7.1324 C   0  0  0  0  0  0  0  0  0  0  0  0
   -0.0908    7.6129   -5.9799 C   0  0  0  0  0  0  0  0  0  0  0  0
    1.3006    7.8692   -5.7709 C   0  0  0  0  0  0  0  0  0  0  0  0
    1.9164    7.4363   -4.5928 C   0  0  0  0  0  0  0  0  0  0  0  0
    3.2477    7.7530   -4.5756 O   0  0  0  0  0  0  0  0  0  0  0  0
    3.5144    8.4007   -5.7479 C   0  0  0  0  0  0  0  0  0  0  0  0
    4.7603    8.8922   -6.1237 C   0  0  0  0  0  0  0  0  0  0  0  0
    4.8384    9.5267   -7.3654 C   0  0  0  0  0  0  0  0  0  0  0  0
    3.7024    9.6550   -8.1860 C   0  0  0  0  0  0  0  0  0  0  0  0
    2.4615    9.1548   -7.7901 C   0  0  0  0  0  0  0  0  0  0  0  0
    2.3527    8.5112   -6.5441 C   0  0  0  0  0  0  0  0  0  0  0  0
    2.9685    7.0307   -1.7006 C   0  0  0  0  0  0  0  0  0  0  0  0
    3.5915    6.5979   -0.5329 C   0  0  0  0  0  0  0  0  0  0  0  0
    3.9003    2.9213    2.6600 C   0  0  0  0  0  0  0  0  0  0  0  0
    4.2178    1.5772    2.8162 C   0  0  0  0  0  0  0  0  0  0  0  0
    4.7503    0.5281    6.1083 H   0  0  0  0  0  0  0  0  0  0  0  0
    4.4981    2.2038    5.5610 H   0  0  0  0  0  0  0  0  0  0  0  0
    5.9143    1.2832    4.9887 H   0  0  0  0  0  0  0  0  0  0  0  0
    2.3939   -0.1064    5.2811 H   0  0  0  0  0  0  0  0  0  0  0  0
    1.9241    0.2231    3.5929 H   0  0  0  0  0  0  0  0  0  0  0  0
    2.1366    1.5705    4.7425 H   0  0  0  0  0  0  0  0  0  0  0  0
    4.3041   -1.9650    5.2411 H   0  0  0  0  0  0  0  0  0  0  0  0
    5.2498   -3.9396    4.0555 H   0  0  0  0  0  0  0  0  0  0  0  0
    6.0285   -3.7447    1.7039 H   0  0  0  0  0  0  0  0  0  0  0  0
    5.8738   -1.5690    0.4990 H   0  0  0  0  0  0  0  0  0  0  0  0
    5.4959    0.9224   -0.2990 H   0  0  0  0  0  0  0  0  0  0  0  0
    4.9585    3.3302   -0.5658 H   0  0  0  0  0  0  0  0  0  0  0  0
    6.1126    4.9887    2.7155 H   0  0  0  0  0  0  0  0  0  0  0  0
    6.6648    6.5689    4.5202 H   0  0  0  0  0  0  0  0  0  0  0  0
    7.2839    8.7661    4.9553 H   0  0  0  0  0  0  0  0  0  0  0  0
    7.8517   10.3565    6.7612 H   0  0  0  0  0  0  0  0  0  0  0  0
    6.0700   11.2244    8.2814 H   0  0  0  0  0  0  0  0  0  0  0  0
    3.7125   10.4585    7.9743 H   0  0  0  0  0  0  0  0  0  0  0  0
    3.1495    8.8403    6.1917 H   0  0  0  0  0  0  0  0  0  0  0  0
    2.9076    8.5936    3.8939 H   0  0  0  0  0  0  0  0  0  0  0  0
    2.3330    6.9801    2.1275 H   0  0  0  0  0  0  0  0  0  0  0  0
    1.9189    3.6630   -0.0925 H   0  0  0  0  0  0  0  0  0  0  0  0
    0.8448    4.4161   -2.1723 H   0  0  0  0  0  0  0  0  0  0  0  0
   -0.6622    5.9720   -2.9919 H   0  0  0  0  0  0  0  0  0  0  0  0
   -2.6938    6.0934   -4.3060 H   0  0  0  0  0  0  0  0  0  0  0  0
   -3.9135    6.8136   -6.3425 H   0  0  0  0  0  0  0  0  0  0  0  0
   -2.7040    8.0438   -8.1536 H   0  0  0  0  0  0  0  0  0  0  0  0
   -0.3045    8.5501   -7.9298 H   0  0  0  0  0  0  0  0  0  0  0  0
    5.6279    8.7798   -5.4713 H   0  0  0  0  0  0  0  0  0  0  0  0
    5.7965    9.9285   -7.7039 H   0  0  0  0  0  0  0  0  0  0  0  0
    3.7946   10.1563   -9.1524 H   0  0  0  0  0  0  0  0  0  0  0  0
    1.5982    9.2684   -8.4467 H   0  0  0  0  0  0  0  0  0  0  0  0
    3.2785    7.9778   -2.1425 H   0  0  0  0  0  0  0  0  0  0  0  0
    4.3750    7.2092   -0.0817 H   0  0  0  0  0  0  0  0  0  0  0  0
    3.4461    3.4921    3.4729 H   0  0  0  0  0  0  0  0  0  0  0  0
  2  1  1  1
  1 52  1  0
  1 53  1  0
  1 54  1  0
  2  3  1  0
  2  4  1  0
  2 51  1  0
  3 55  1  0
  3 56  1  0
  3 57  1  0
  4  5  2  0
  4  9  1  0
  5  6  1  0
  5 58  1  0
  6  7  2  0
  6 59  1  0
  7  8  1  0
  7 60  1  0
  8  9  2  0
  8 61  1  0
  9 10  1  0
 10 11  2  0
 10 51  1  0
 11 12  1  0
 11 62  1  0
 12 13  2  0
 12 63  1  0
 13 14  1  0
 13 50  1  0
 14 15  1  0
 14 27  1  0
 15 16  2  0
 15 26  1  0
 16 17  1  0
 16 64  1  0
 17 18  2  0
 17 65  1  0
 18 19  1  0
 18 25  1  0
 19 20  2  0
 19 24  1  0
 20 21  1  0
 20 66  1  0
 21 22  2  0
 21 67  1  0
 22 23  1  0
 22 68  1  0
 23 24  2  0
 23 69  1  0
 24 70  1  0
 25 26  2  0
 25 71  1  0
 26 72  1  0
 27 28  2  0
 27 49  1  0
 28 29  1  0
 28 73  1  0
 29 30  2  0
 29 74  1  0
 30 31  1  0
 30 48  1  0
 31 32  2  0
 31 40  1  0
 32 33  1  0
 32 75  1  0
 33 34  2  0
 33 38  1  0
 34 35  1  0
 34 76  1  0
 35 36  2  0
 35 77  1  0
 36 37  1  0
 36 78  1  0
 37 38  2  0
 37 79  1  0
 38 39  1  0
 39 40  2  0
 39 47  1  0
 40 41  1  0
 41 42  1  0
 42 43  1  0
 42 47  2  0
 43 44  2  0
 43 80  1  0
 44 45  1  0
 44 81  1  0
 45 46  2  0
 45 82  1  0
 46 47  1  0
 46 83  1  0
 48 49  2  0
 48 84  1  0
 49 85  1  0
 50 51  2  0
 50 86  1  0
M  END

