
     RDKit          3D

 37 38  0  0  0  0  0  0  0  0999 V2000
    0.8597    0.3466   -0.2716 C   0  0  0  0  0  0  0  0  0  0  0  0
    2.3755    0.1658   -0.1735 C   0  0  0  0  0  0  0  0  0  0  0  0
    3.1316    0.8341   -1.3260 C   0  0  0  0  0  0  0  0  0  0  0  0
    4.6635    0.7932   -1.2076 C   0  0  1  0  0  0  0  0  0  0  0  0
    5.2817   -0.6183   -1.1164 C   0  0  0  0  0  0  0  0  0  0  0  0
    5.0087   -1.5369   -2.3085 C   0  0  0  0  0  0  0  0  0  0  0  0
    5.2316    1.5716   -2.3143 N   0  0  0  0  0  0  0  0  0  0  0  0
    6.4357    2.1898   -2.2231 C   0  0  0  0  0  0  0  0  0  0  0  0
    7.1747    2.2561   -1.1317 N   0  0  0  0  0  0  0  0  0  0  0  0
    8.2744    3.0034   -1.4818 C   0  0  0  0  0  0  0  0  0  0  0  0
    9.3854    3.3921   -0.7165 C   0  0  0  0  0  0  0  0  0  0  0  0
   10.3790    4.1575   -1.3220 C   0  0  0  0  0  0  0  0  0  0  0  0
   10.2628    4.5276   -2.6728 C   0  0  0  0  0  0  0  0  0  0  0  0
   11.3253    5.3350   -3.2824 N   0  0  0  0  0  0  0  0  0  0  0  0
   12.2768    5.6542   -2.5837 O   0  0  0  0  0  0  0  0  0  0  0  0
   11.2000    5.6450   -4.4609 O   0  0  0  0  0  0  0  0  0  0  0  0
    9.1719    4.1597   -3.4732 C   0  0  0  0  0  0  0  0  0  0  0  0
    8.1960    3.3990   -2.8502 C   0  0  0  0  0  0  0  0  0  0  0  0
    6.9989    2.8528   -3.2983 N   0  0  0  0  0  0  0  0  0  0  0  0
    6.5969    2.9662   -4.2196 H   0  0  0  0  0  0  0  0  0  0  0  0
    0.3411   -0.1455    0.5661 H   0  0  0  0  0  0  0  0  0  0  0  0
    0.4634   -0.0844   -1.2065 H   0  0  0  0  0  0  0  0  0  0  0  0
    0.5803    1.4133   -0.2561 H   0  0  0  0  0  0  0  0  0  0  0  0
    2.6113   -0.9117   -0.1428 H   0  0  0  0  0  0  0  0  0  0  0  0
    2.7363    0.5818    0.7844 H   0  0  0  0  0  0  0  0  0  0  0  0
    2.8306    1.8943   -1.3903 H   0  0  0  0  0  0  0  0  0  0  0  0
    2.8185    0.3717   -2.2818 H   0  0  0  0  0  0  0  0  0  0  0  0
    4.9572    1.3306   -0.2925 H   0  0  0  0  0  0  0  0  0  0  0  0
    4.9237   -1.0946   -0.1882 H   0  0  0  0  0  0  0  0  0  0  0  0
    6.3677   -0.4860   -0.9839 H   0  0  0  0  0  0  0  0  0  0  0  0
    3.9378   -1.7733   -2.4203 H   0  0  0  0  0  0  0  0  0  0  0  0
    5.5426   -2.4932   -2.1952 H   0  0  0  0  0  0  0  0  0  0  0  0
    5.3526   -1.0872   -3.2551 H   0  0  0  0  0  0  0  0  0  0  0  0
    4.8277    1.4465   -3.2342 H   0  0  0  0  0  0  0  0  0  0  0  0
    9.4589    3.0960    0.3313 H   0  0  0  0  0  0  0  0  0  0  0  0
   11.2599    4.4849   -0.7711 H   0  0  0  0  0  0  0  0  0  0  0  0
    9.1329    4.4737   -4.5154 H   0  0  0  0  0  0  0  0  0  0  0  0
  1  2  1  0
  1 21  1  0
  1 22  1  0
  1 23  1  0
  2  3  1  0
  2 24  1  0
  2 25  1  0
  3  4  1  0
  3 26  1  0
  3 27  1  0
  4  5  1  0
  4  7  1  0
  4 28  1  1
  5  6  1  0
  5 29  1  0
  5 30  1  0
  6 31  1  0
  6 32  1  0
  6 33  1  0
  7  8  1  0
  7 34  1  0
  8  9  2  0
  8 19  1  0
  9 10  1  0
 10 11  2  0
 10 18  1  0
 11 12  1  0
 11 35  1  0
 12 13  2  0
 12 36  1  0
 13 14  1  0
 13 17  1  0
 14 15  2  0
 14 16  1  0
 17 18  2  0
 17 37  1  0
 18 19  1  0
 19 20  1  0
M  CHG  2  14   1  16  -1
M  END

