
     RDKit          3D

 39 40  0  0  0  0  0  0  0  0999 V2000
    5.4716    1.0766    2.3416 C   0  0  0  0  0  0  0  0  0  0  0  0
    4.9777    0.2980    1.1272 C   0  0  0  0  0  0  0  0  0  0  0  0
    5.1586    1.0723   -0.0933 N   0  0  0  0  0  0  0  0  0  0  0  0
    4.8457    0.3900   -1.3451 C   0  0  1  0  0  0  0  0  0  0  0  0
    3.3528    0.0276   -1.4420 C   0  0  0  0  0  0  0  0  0  0  0  0
    5.2540    1.2836   -2.4805 C   0  0  0  0  0  0  0  0  0  0  0  0
    5.4182    2.6386   -2.5948 C   0  0  0  0  0  0  0  0  0  0  0  0
    5.7760    2.8860   -3.9560 C   0  0  0  0  0  0  0  0  0  0  0  0
    5.8046    1.6647   -4.5909 C   0  0  0  0  0  0  0  0  0  0  0  0
    6.1364    1.2854   -5.9670 C   0  0  0  0  0  0  0  0  0  0  0  0
    6.9208    2.1920   -6.7101 C   0  0  0  0  0  0  0  0  0  0  0  0
    7.2685    1.9425   -8.0339 C   0  0  0  0  0  0  0  0  0  0  0  0
    8.1051    2.9220   -8.8163 C   0  0  1  0  0  0  0  0  0  0  0  0
    8.4611    3.9926   -8.0856 F   0  0  0  0  0  0  0  0  0  0  0  0
    9.2388    2.3529   -9.2704 F   0  0  0  0  0  0  0  0  0  0  0  0
    7.4461    3.3794   -9.8992 F   0  0  0  0  0  0  0  0  0  0  0  0
    6.8459    0.7584   -8.6503 C   0  0  0  0  0  0  0  0  0  0  0  0
    6.0757   -0.1445   -7.9237 C   0  0  0  0  0  0  0  0  0  0  0  0
    5.7000    0.0852   -6.5891 C   0  0  0  0  0  0  0  0  0  0  0  0
    4.8403   -0.9411   -5.8922 C   0  0  0  0  0  0  0  0  0  0  0  0
    5.4822    0.6916   -3.6824 O   0  0  0  0  0  0  0  0  0  0  0  0
    5.3002    0.5103    3.2700 H   0  0  0  0  0  0  0  0  0  0  0  0
    4.9505    2.0435    2.4196 H   0  0  0  0  0  0  0  0  0  0  0  0
    6.5541    1.2808    2.2730 H   0  0  0  0  0  0  0  0  0  0  0  0
    3.9054    0.0755    1.2551 H   0  0  0  0  0  0  0  0  0  0  0  0
    5.4920   -0.6904    1.0836 H   0  0  0  0  0  0  0  0  0  0  0  0
    6.1217    1.4054   -0.1373 H   0  0  0  0  0  0  0  0  0  0  0  0
    5.4193   -0.5599   -1.4618 H   0  0  0  0  0  0  0  0  0  0  0  0
    2.7370    0.9260   -1.2820 H   0  0  0  0  0  0  0  0  0  0  0  0
    3.0723   -0.7314   -0.6960 H   0  0  0  0  0  0  0  0  0  0  0  0
    3.1273   -0.3851   -2.4366 H   0  0  0  0  0  0  0  0  0  0  0  0
    5.2825    3.3628   -1.7958 H   0  0  0  0  0  0  0  0  0  0  0  0
    5.9707    3.8532   -4.4134 H   0  0  0  0  0  0  0  0  0  0  0  0
    7.2794    3.1036   -6.2327 H   0  0  0  0  0  0  0  0  0  0  0  0
    7.1168    0.5451   -9.6864 H   0  0  0  0  0  0  0  0  0  0  0  0
    5.7403   -1.0657   -8.4074 H   0  0  0  0  0  0  0  0  0  0  0  0
    4.5017   -1.7067   -6.6050 H   0  0  0  0  0  0  0  0  0  0  0  0
    3.9530   -0.4813   -5.4307 H   0  0  0  0  0  0  0  0  0  0  0  0
    5.3859   -1.4439   -5.0792 H   0  0  0  0  0  0  0  0  0  0  0  0
  1  2  1  0
  1 22  1  0
  1 23  1  0
  1 24  1  0
  2  3  1  0
  2 25  1  0
  2 26  1  0
  3  4  1  0
  3 27  1  0
  4  5  1  0
  4  6  1  0
  4 28  1  6
  5 29  1  0
  5 30  1  0
  5 31  1  0
  6  7  2  0
  6 21  1  0
  7  8  1  0
  7 32  1  0
  8  9  2  0
  8 33  1  0
  9 10  1  0
  9 21  1  0
 10 11  2  0
 10 19  1  0
 11 12  1  0
 11 34  1  0
 12 13  1  0
 12 17  2  0
 13 14  1  1
 13 15  1  0
 13 16  1  0
 17 18  1  0
 17 35  1  0
 18 19  2  0
 18 36  1  0
 19 20  1  0
 20 37  1  0
 20 38  1  0
 20 39  1  0
M  END

