
     RDKit          3D

 40 43  0  0  0  0  0  0  0  0999 V2000
    3.4897    0.9547   -3.4905 C   0  0  0  0  0  0  0  0  0  0  0  0
    2.9554    0.4388   -2.1725 C   0  0  2  0  0  0  0  0  0  0  0  0
    2.5216   -0.5667   -2.2329 H   0  0  0  0  0  0  0  0  0  0  0  0
    2.3015    1.3882   -1.2019 C   0  0  0  0  0  0  0  0  0  0  0  0
    3.6252    0.7415   -0.8362 C   0  0  1  0  0  0  0  0  0  0  0  0
    3.5381   -0.3332    0.2438 C   0  0  0  0  0  0  0  0  0  0  0  0
    4.8877    1.5763   -0.7967 C   0  0  0  0  0  0  0  0  0  0  0  0
    4.8092    2.9544   -0.5311 C   0  0  0  0  0  0  0  0  0  0  0  0
    5.9408    3.7705   -0.4718 C   0  0  0  0  0  0  0  0  0  0  0  0
    7.2040    3.2146   -0.6721 C   0  0  0  0  0  0  0  0  0  0  0  0
    7.3115    1.8439   -0.9103 C   0  0  0  0  0  0  0  0  0  0  0  0
    6.1794    1.0127   -0.9728 C   0  0  0  0  0  0  0  0  0  0  0  0
    6.4246   -0.4456   -1.2430 C   0  0  0  0  0  0  0  0  0  0  0  0
    6.0088   -0.9316   -2.3968 N   0  0  0  0  0  0  0  0  0  0  0  0
    6.2665   -2.2231   -2.7140 C   0  0  0  0  0  0  0  0  0  0  0  0
    6.9632   -3.0830   -1.8965 C   0  0  0  0  0  0  0  0  0  0  0  0
    7.4224   -2.6144   -0.6372 C   0  0  0  0  0  0  0  0  0  0  0  0
    8.1304   -3.4403    0.2799 C   0  0  0  0  0  0  0  0  0  0  0  0
    8.5296   -2.9472    1.5037 C   0  0  0  0  0  0  0  0  0  0  0  0
    8.2325   -1.6093    1.8657 C   0  0  0  0  0  0  0  0  0  0  0  0
    7.5545   -0.7820    0.9937 C   0  0  0  0  0  0  0  0  0  0  0  0
    7.1402   -1.2540   -0.2844 C   0  0  0  0  0  0  0  0  0  0  0  0
    3.8625    1.9867   -3.3982 H   0  0  0  0  0  0  0  0  0  0  0  0
    2.6946    0.9549   -4.2552 H   0  0  0  0  0  0  0  0  0  0  0  0
    4.3260    0.3313   -3.8386 H   0  0  0  0  0  0  0  0  0  0  0  0
    1.4159    1.0674   -0.6450 H   0  0  0  0  0  0  0  0  0  0  0  0
    2.2822    2.4432   -1.4881 H   0  0  0  0  0  0  0  0  0  0  0  0
    2.5928   -0.8920    0.1593 H   0  0  0  0  0  0  0  0  0  0  0  0
    3.5705    0.1206    1.2487 H   0  0  0  0  0  0  0  0  0  0  0  0
    4.3581   -1.0632    0.1785 H   0  0  0  0  0  0  0  0  0  0  0  0
    3.8276    3.3993   -0.3590 H   0  0  0  0  0  0  0  0  0  0  0  0
    5.8311    4.8385   -0.2662 H   0  0  0  0  0  0  0  0  0  0  0  0
    8.1010    3.8381   -0.6399 H   0  0  0  0  0  0  0  0  0  0  0  0
    8.2986    1.3995   -1.0626 H   0  0  0  0  0  0  0  0  0  0  0  0
    5.8896   -2.5595   -3.6862 H   0  0  0  0  0  0  0  0  0  0  0  0
    7.1577   -4.1138   -2.2033 H   0  0  0  0  0  0  0  0  0  0  0  0
    8.3466   -4.4744   -0.0014 H   0  0  0  0  0  0  0  0  0  0  0  0
    9.0710   -3.5894    2.2032 H   0  0  0  0  0  0  0  0  0  0  0  0
    8.5410   -1.2332    2.8443 H   0  0  0  0  0  0  0  0  0  0  0  0
    7.3246    0.2441    1.2826 H   0  0  0  0  0  0  0  0  0  0  0  0
  1  2  1  0
  1 23  1  0
  1 24  1  0
  1 25  1  0
  2  3  1  6
  2  4  1  0
  2  5  1  0
  4  5  1  0
  4 26  1  0
  4 27  1  0
  5  6  1  1
  5  7  1  0
  6 28  1  0
  6 29  1  0
  6 30  1  0
  7  8  2  0
  7 12  1  0
  8  9  1  0
  8 31  1  0
  9 10  2  0
  9 32  1  0
 10 11  1  0
 10 33  1  0
 11 12  2  0
 11 34  1  0
 12 13  1  0
 13 14  2  0
 13 22  1  0
 14 15  1  0
 15 16  2  0
 15 35  1  0
 16 17  1  0
 16 36  1  0
 17 18  1  0
 17 22  2  0
 18 19  2  0
 18 37  1  0
 19 20  1  0
 19 38  1  0
 20 21  2  0
 20 39  1  0
 21 22  1  0
 21 40  1  0
M  END

