
     RDKit          3D

 30 30  0  0  0  0  0  0  0  0999 V2000
    3.1574    0.2429    1.4249 C   0  0  0  0  0  0  0  0  0  0  0  0
    2.3543    0.0031    0.1325 C   0  0  1  0  0  0  0  0  0  0  0  0
    0.9099    0.1981    0.2604 N   0  0  0  0  0  0  0  0  0  0  0  0
    2.8518    0.9096   -0.9720 C   0  0  0  0  0  0  0  0  0  0  0  0
    2.7477    2.2062   -0.9397 N   0  0  0  0  0  0  0  0  0  0  0  0
    3.2679    2.8003   -2.0680 C   0  0  0  0  0  0  0  0  0  0  0  0
    3.2096    4.3098   -2.1779 C   0  0  0  0  0  0  0  0  0  0  0  0
    3.7305    5.0312   -1.0245 N   0  0  0  0  0  0  0  0  0  0  0  0
    5.1580    4.8727   -0.7966 C   0  0  0  0  0  0  0  0  0  0  0  0
    5.6075    5.7673    0.3589 C   0  0  0  0  0  0  0  0  0  0  0  0
    7.0941    5.7189    0.6208 C   0  0  1  0  0  0  0  0  0  0  0  0
    7.8066    6.0951   -0.4597 F   0  0  0  0  0  0  0  0  0  0  0  0
    7.4400    6.5368    1.6309 F   0  0  0  0  0  0  0  0  0  0  0  0
    7.5071    4.4794    0.9531 F   0  0  0  0  0  0  0  0  0  0  0  0
    3.7982    1.9246   -2.9818 C   0  0  0  0  0  0  0  0  0  0  0  0
    3.6171    0.2966   -2.4196 S   0  0  0  0  0  0  0  0  0  0  0  0
    2.7899   -0.4163    2.2285 H   0  0  0  0  0  0  0  0  0  0  0  0
    3.0473    1.2891    1.7507 H   0  0  0  0  0  0  0  0  0  0  0  0
    4.2310    0.0392    1.2811 H   0  0  0  0  0  0  0  0  0  0  0  0
    2.5227   -1.0394   -0.1894 H   0  0  0  0  0  0  0  0  0  0  0  0
    0.7244    1.1861    0.4421 H   0  0  0  0  0  0  0  0  0  0  0  0
    0.5585   -0.3213    1.0656 H   0  0  0  0  0  0  0  0  0  0  0  0
    2.1554    4.6089   -2.3132 H   0  0  0  0  0  0  0  0  0  0  0  0
    3.7482    4.6352   -3.0827 H   0  0  0  0  0  0  0  0  0  0  0  0
    3.2148    4.7240   -0.1985 H   0  0  0  0  0  0  0  0  0  0  0  0
    5.6916    5.1803   -1.7121 H   0  0  0  0  0  0  0  0  0  0  0  0
    5.4690    3.8270   -0.5905 H   0  0  0  0  0  0  0  0  0  0  0  0
    5.1070    5.4753    1.2967 H   0  0  0  0  0  0  0  0  0  0  0  0
    5.3326    6.8125    0.1521 H   0  0  0  0  0  0  0  0  0  0  0  0
    4.2732    2.1494   -3.9352 H   0  0  0  0  0  0  0  0  0  0  0  0
  1  2  1  0
  1 17  1  0
  1 18  1  0
  1 19  1  0
  2  3  1  0
  2  4  1  0
  2 20  1  6
  3 21  1  0
  3 22  1  0
  4  5  2  0
  4 16  1  0
  5  6  1  0
  6  7  1  0
  6 15  2  0
  7  8  1  0
  7 23  1  0
  7 24  1  0
  8  9  1  0
  8 25  1  0
  9 10  1  0
  9 26  1  0
  9 27  1  0
 10 11  1  0
 10 28  1  0
 10 29  1  0
 11 12  1  6
 11 13  1  0
 11 14  1  0
 15 16  1  0
 15 30  1  0
M  END

