
     RDKit          3D

 37 37  0  0  0  0  0  0  0  0999 V2000
    6.8175    2.0876   -5.5627 C   0  0  0  0  0  0  0  0  0  0  0  0
    5.8499    1.9213   -4.4214 C   0  0  0  0  0  0  0  0  0  0  0  0
    6.2079    2.3112   -3.1194 C   0  0  0  0  0  0  0  0  0  0  0  0
    5.3209    2.1599   -2.0548 C   0  0  0  0  0  0  0  0  0  0  0  0
    5.8375    2.6446   -0.4042 S   0  0  1  0  0  0  0  0  0  0  0  0
    5.3440    1.6466    0.5475 O   0  0  0  0  0  0  0  0  0  0  0  0
    7.2580    3.0014   -0.4810 O   0  0  0  0  0  0  0  0  0  0  0  0
    4.9026    4.0189   -0.1031 N   0  0  0  0  0  0  0  0  0  0  0  0
    5.4395    5.3380   -0.4500 C   0  0  0  0  0  0  0  0  0  0  0  0
    4.3179    6.3998   -0.4732 C   0  0  1  0  0  0  0  0  0  0  0  0
    3.3108    6.1359   -1.4984 N   0  0  0  0  0  0  0  0  0  0  0  0
    3.6232    6.6118    0.8980 C   0  0  1  0  0  0  0  0  0  0  0  0
    4.6148    6.7785    2.0581 C   0  0  0  0  0  0  0  0  0  0  0  0
    2.6584    7.8026    0.8346 C   0  0  0  0  0  0  0  0  0  0  0  0
    4.0544    1.5981   -2.2367 C   0  0  0  0  0  0  0  0  0  0  0  0
    3.6765    1.2068   -3.5187 C   0  0  0  0  0  0  0  0  0  0  0  0
    4.5648    1.3725   -4.5890 C   0  0  0  0  0  0  0  0  0  0  0  0
    3.9845    0.8161   -6.3203 Br  0  0  0  0  0  0  0  0  0  0  0  0
    7.7622    2.5280   -5.2147 H   0  0  0  0  0  0  0  0  0  0  0  0
    6.3989    2.7361   -6.3494 H   0  0  0  0  0  0  0  0  0  0  0  0
    7.0400    1.1194   -6.0395 H   0  0  0  0  0  0  0  0  0  0  0  0
    7.1981    2.7287   -2.9263 H   0  0  0  0  0  0  0  0  0  0  0  0
    4.5488    3.9285    0.8500 H   0  0  0  0  0  0  0  0  0  0  0  0
    5.8650    5.2679   -1.4633 H   0  0  0  0  0  0  0  0  0  0  0  0
    6.2682    5.6344    0.2156 H   0  0  0  0  0  0  0  0  0  0  0  0
    4.8138    7.3539   -0.7329 H   0  0  0  0  0  0  0  0  0  0  0  0
    2.9912    5.1691   -1.4119 H   0  0  0  0  0  0  0  0  0  0  0  0
    3.7189    6.2163   -2.4295 H   0  0  0  0  0  0  0  0  0  0  0  0
    3.0155    5.7061    1.0934 H   0  0  0  0  0  0  0  0  0  0  0  0
    5.3060    7.6188    1.8726 H   0  0  0  0  0  0  0  0  0  0  0  0
    5.2264    5.8803    2.2391 H   0  0  0  0  0  0  0  0  0  0  0  0
    4.0780    6.9974    2.9947 H   0  0  0  0  0  0  0  0  0  0  0  0
    3.2150    8.7476    0.7077 H   0  0  0  0  0  0  0  0  0  0  0  0
    2.0704    7.8852    1.7627 H   0  0  0  0  0  0  0  0  0  0  0  0
    1.9712    7.6982   -0.0155 H   0  0  0  0  0  0  0  0  0  0  0  0
    3.3823    1.4602   -1.3880 H   0  0  0  0  0  0  0  0  0  0  0  0
    2.6944    0.7648   -3.6941 H   0  0  0  0  0  0  0  0  0  0  0  0
  1  2  1  0
  1 19  1  0
  1 20  1  0
  1 21  1  0
  2  3  2  0
  2 17  1  0
  3  4  1  0
  3 22  1  0
  4  5  1  0
  4 15  2  0
  5  6  2  0
  5  7  2  0
  5  8  1  1
  8  9  1  0
  8 23  1  0
  9 10  1  0
  9 24  1  0
  9 25  1  0
 10 11  1  0
 10 12  1  0
 10 26  1  6
 11 27  1  0
 11 28  1  0
 12 13  1  0
 12 14  1  0
 12 29  1  1
 13 30  1  0
 13 31  1  0
 13 32  1  0
 14 33  1  0
 14 34  1  0
 14 35  1  0
 15 16  1  0
 15 36  1  0
 16 17  2  0
 16 37  1  0
 17 18  1  0
M  END

