
     RDKit          3D

 47 48  0  0  0  0  0  0  0  0999 V2000
    1.9077    0.9076   -1.4065 C   0  0  0  0  0  0  0  0  0  0  0  0
    3.0195    0.5762   -0.4424 C   0  0  0  0  0  0  0  0  0  0  0  0
    3.8611    1.5714    0.0751 C   0  0  0  0  0  0  0  0  0  0  0  0
    4.9038    1.2495    0.9456 C   0  0  0  0  0  0  0  0  0  0  0  0
    5.1289   -0.0818    1.3003 C   0  0  0  0  0  0  0  0  0  0  0  0
    4.3117   -1.1085    0.8062 C   0  0  0  0  0  0  0  0  0  0  0  0
    4.5619   -2.5540    1.1570 C   0  0  0  0  0  0  0  0  0  0  0  0
    3.2531   -0.7573   -0.0540 C   0  0  0  0  0  0  0  0  0  0  0  0
    2.4678   -1.7584   -0.5884 O   0  0  0  0  0  0  0  0  0  0  0  0
    1.2932   -2.1021    0.1425 C   0  0  0  0  0  0  0  0  0  0  0  0
    0.6063   -3.2281   -0.6141 C   0  0  0  0  0  0  0  0  0  0  0  0
   -0.6793   -3.6671    0.0807 C   0  0  0  0  0  0  0  0  0  0  0  0
   -1.0554   -3.1115    1.1035 O   0  0  0  0  0  0  0  0  0  0  0  0
   -1.3881   -4.7023   -0.4848 N   0  0  0  0  0  0  0  0  0  0  0  0
   -2.6025   -5.1835    0.1709 C   0  0  0  0  0  0  0  0  0  0  0  0
   -3.7759   -5.1944   -0.8109 C   0  0  0  0  0  0  0  0  0  0  0  0
   -3.4377   -5.9118   -2.0490 N   0  0  0  0  0  0  0  0  0  0  0  0
   -3.8282   -7.5547   -2.1590 S   0  0  1  0  0  0  0  0  0  0  0  0
   -5.2236   -7.5740   -3.2931 C   0  0  0  0  0  0  0  0  0  0  0  0
   -2.7181   -8.2426   -2.8268 O   0  0  0  0  0  0  0  0  0  0  0  0
   -4.3269   -7.9993   -0.8542 O   0  0  0  0  0  0  0  0  0  0  0  0
   -2.1993   -5.4491   -2.6823 C   0  0  0  0  0  0  0  0  0  0  0  0
   -1.0273   -5.4361   -1.6914 C   0  0  0  0  0  0  0  0  0  0  0  0
    2.0084    1.9346   -1.7867 H   0  0  0  0  0  0  0  0  0  0  0  0
    0.9148    0.8281   -0.9312 H   0  0  0  0  0  0  0  0  0  0  0  0
    1.9069    0.2147   -2.2621 H   0  0  0  0  0  0  0  0  0  0  0  0
    3.6964    2.6122   -0.2182 H   0  0  0  0  0  0  0  0  0  0  0  0
    5.5517    2.0373    1.3382 H   0  0  0  0  0  0  0  0  0  0  0  0
    5.9575   -0.3364    1.9673 H   0  0  0  0  0  0  0  0  0  0  0  0
    5.5335   -2.6760    1.6576 H   0  0  0  0  0  0  0  0  0  0  0  0
    4.5489   -3.1876    0.2566 H   0  0  0  0  0  0  0  0  0  0  0  0
    3.7885   -2.9517    1.8362 H   0  0  0  0  0  0  0  0  0  0  0  0
    0.6182   -1.2352    0.2386 H   0  0  0  0  0  0  0  0  0  0  0  0
    1.5446   -2.4236    1.1673 H   0  0  0  0  0  0  0  0  0  0  0  0
    1.3030   -4.0780   -0.7095 H   0  0  0  0  0  0  0  0  0  0  0  0
    0.3945   -2.8911   -1.6432 H   0  0  0  0  0  0  0  0  0  0  0  0
   -2.8036   -4.5264    1.0263 H   0  0  0  0  0  0  0  0  0  0  0  0
   -2.4425   -6.2116    0.5441 H   0  0  0  0  0  0  0  0  0  0  0  0
   -4.0467   -4.1606   -1.0885 H   0  0  0  0  0  0  0  0  0  0  0  0
   -4.6501   -5.6674   -0.3462 H   0  0  0  0  0  0  0  0  0  0  0  0
   -4.9011   -7.1634   -4.2582 H   0  0  0  0  0  0  0  0  0  0  0  0
   -6.0397   -6.9821   -2.8597 H   0  0  0  0  0  0  0  0  0  0  0  0
   -5.5234   -8.6257   -3.4001 H   0  0  0  0  0  0  0  0  0  0  0  0
   -2.3779   -4.4269   -3.0608 H   0  0  0  0  0  0  0  0  0  0  0  0
   -1.9616   -6.0987   -3.5340 H   0  0  0  0  0  0  0  0  0  0  0  0
   -0.1472   -4.9885   -2.1678 H   0  0  0  0  0  0  0  0  0  0  0  0
   -0.7754   -6.4824   -1.4357 H   0  0  0  0  0  0  0  0  0  0  0  0
  1  2  1  0
  1 24  1  0
  1 25  1  0
  1 26  1  0
  2  3  2  0
  2  8  1  0
  3  4  1  0
  3 27  1  0
  4  5  2  0
  4 28  1  0
  5  6  1  0
  5 29  1  0
  6  7  1  0
  6  8  2  0
  7 30  1  0
  7 31  1  0
  7 32  1  0
  8  9  1  0
  9 10  1  0
 10 11  1  0
 10 33  1  0
 10 34  1  0
 11 12  1  0
 11 35  1  0
 11 36  1  0
 12 13  2  0
 12 14  1  0
 14 15  1  0
 14 23  1  0
 15 16  1  0
 15 37  1  0
 15 38  1  0
 16 17  1  0
 16 39  1  0
 16 40  1  0
 17 18  1  0
 17 22  1  0
 18 19  1  6
 18 20  2  0
 18 21  2  0
 19 41  1  0
 19 42  1  0
 19 43  1  0
 22 23  1  0
 22 44  1  0
 22 45  1  0
 23 46  1  0
 23 47  1  0
M  END

