
     RDKit          3D

 58 61  0  0  0  0  0  0  0  0999 V2000
    1.3357    1.2146    1.4215 N   0  0  0  0  0  0  0  0  0  0  0  0
    2.3847    1.1356    0.5796 C   0  0  0  0  0  0  0  0  0  0  0  0
    2.5221    0.0501   -0.1993 N   0  0  0  0  0  0  0  0  0  0  0  0
    3.5621   -0.0182   -1.0230 C   0  0  0  0  0  0  0  0  0  0  0  0
    3.6597   -1.4755   -1.9896 Cl  0  0  0  0  0  0  0  0  0  0  0  0
    4.5361    0.8599   -1.2133 N   0  0  0  0  0  0  0  0  0  0  0  0
    4.3915    1.9407   -0.4360 C   0  0  0  0  0  0  0  0  0  0  0  0
    3.3570    2.1625    0.4839 C   0  0  0  0  0  0  0  0  0  0  0  0
    3.5062    3.3744    1.1190 N   0  0  0  0  0  0  0  0  0  0  0  0
    4.5970    3.8798    0.6029 C   0  0  0  0  0  0  0  0  0  0  0  0
    5.2018    3.0565   -0.3399 N   0  0  0  0  0  0  0  0  0  0  0  0
    6.3495    3.4212   -1.1873 C   0  0  1  0  0  0  0  0  0  0  0  0
    7.0251    4.5013   -0.5911 O   0  0  0  0  0  0  0  0  0  0  0  0
    8.2593    4.0896    0.0136 C   0  0  2  0  0  0  0  0  0  0  0  0
    9.4003    4.7832   -0.7275 C   0  0  0  0  0  0  0  0  0  0  0  0
   10.6205    4.4078   -0.0827 O   0  0  0  0  0  0  0  0  0  0  0  0
   11.8248    4.6962   -0.7385 C   0  0  1  0  0  0  0  0  0  0  0  0
   12.9655    4.3758    0.2573 C   0  0  0  0  0  0  0  0  0  0  0  0
   12.9054    5.2753    1.3155 O   0  0  0  0  0  0  0  0  0  0  0  0
   13.9601    5.1745    2.2444 C   0  0  0  0  0  0  0  0  0  0  0  0
   13.8261    6.2446    3.3043 C   0  0  0  0  0  0  0  0  0  0  0  0
   14.5844    6.1518    4.4812 C   0  0  0  0  0  0  0  0  0  0  0  0
   14.5028    7.1456    5.4588 C   0  0  0  0  0  0  0  0  0  0  0  0
   13.6546    8.2425    5.2728 C   0  0  0  0  0  0  0  0  0  0  0  0
   12.8930    8.3357    4.1051 C   0  0  0  0  0  0  0  0  0  0  0  0
   12.9766    7.3439    3.1220 C   0  0  0  0  0  0  0  0  0  0  0  0
   12.0578    3.7659   -1.9627 C   0  0  0  0  0  0  0  0  0  0  0  0
   12.9328    4.0153   -2.7711 O   0  0  0  0  0  0  0  0  0  0  0  0
   11.3312    2.6732   -2.0521 O   0  0  0  0  0  0  0  0  0  0  0  0
   11.9539    6.2136   -1.1187 C   0  0  0  0  0  0  0  0  0  0  0  0
   11.2611    7.0487   -0.6045 O   0  0  0  0  0  0  0  0  0  0  0  0
   12.9197    6.4939   -1.9845 O   0  0  0  0  0  0  0  0  0  0  0  0
    8.2369    2.5426   -0.0739 C   0  0  2  0  0  0  0  0  0  0  0  0
    9.5002    1.9100   -0.2043 O   0  0  0  0  0  0  0  0  0  0  0  0
    7.3694    2.2817   -1.3159 C   0  0  2  0  0  0  0  0  0  0  0  0
    8.0809    2.5039   -2.5129 O   0  0  0  0  0  0  0  0  0  0  0  0
    0.6587    0.4634    1.4416 H   0  0  0  0  0  0  0  0  0  0  0  0
    1.2142    2.0349    1.9994 H   0  0  0  0  0  0  0  0  0  0  0  0
    5.0351    4.8450    0.8506 H   0  0  0  0  0  0  0  0  0  0  0  0
    5.9872    3.7233   -2.1824 H   0  0  0  0  0  0  0  0  0  0  0  0
    8.2665    4.4284    1.0633 H   0  0  0  0  0  0  0  0  0  0  0  0
    9.2555    5.8707   -0.6714 H   0  0  0  0  0  0  0  0  0  0  0  0
    9.3904    4.4735   -1.7857 H   0  0  0  0  0  0  0  0  0  0  0  0
   13.9315    4.4348   -0.2811 H   0  0  0  0  0  0  0  0  0  0  0  0
   12.8366    3.3273    0.6025 H   0  0  0  0  0  0  0  0  0  0  0  0
   14.9354    5.2793    1.7217 H   0  0  0  0  0  0  0  0  0  0  0  0
   13.9654    4.1706    2.7188 H   0  0  0  0  0  0  0  0  0  0  0  0
   15.2455    5.2931    4.6364 H   0  0  0  0  0  0  0  0  0  0  0  0
   15.0994    7.0612    6.3709 H   0  0  0  0  0  0  0  0  0  0  0  0
   13.5870    9.0200    6.0381 H   0  0  0  0  0  0  0  0  0  0  0  0
   12.2260    9.1885    3.9535 H   0  0  0  0  0  0  0  0  0  0  0  0
   12.3803    7.4133    2.2108 H   0  0  0  0  0  0  0  0  0  0  0  0
   10.6588    2.5594   -1.3302 H   0  0  0  0  0  0  0  0  0  0  0  0
   13.2202    5.6539   -2.4186 H   0  0  0  0  0  0  0  0  0  0  0  0
    7.7116    2.1374    0.8080 H   0  0  0  0  0  0  0  0  0  0  0  0
   10.0076    2.0873    0.6014 H   0  0  0  0  0  0  0  0  0  0  0  0
    6.8790    1.2967   -1.3071 H   0  0  0  0  0  0  0  0  0  0  0  0
    8.6676    1.7532   -2.6744 H   0  0  0  0  0  0  0  0  0  0  0  0
  1  2  1  0
  1 37  1  0
  1 38  1  0
  2  3  2  0
  2  8  1  0
  3  4  1  0
  4  5  1  0
  4  6  2  0
  6  7  1  0
  7  8  2  0
  7 11  1  0
  8  9  1  0
  9 10  2  0
 10 11  1  0
 10 39  1  0
 11 12  1  0
 12 13  1  0
 12 35  1  0
 12 40  1  6
 13 14  1  0
 14 15  1  0
 14 33  1  0
 14 41  1  1
 15 16  1  0
 15 42  1  0
 15 43  1  0
 17 16  1  1
 17 18  1  0
 17 27  1  0
 17 30  1  0
 18 19  1  0
 18 44  1  0
 18 45  1  0
 19 20  1  0
 20 21  1  0
 20 46  1  0
 20 47  1  0
 21 22  2  0
 21 26  1  0
 22 23  1  0
 22 48  1  0
 23 24  2  0
 23 49  1  0
 24 25  1  0
 24 50  1  0
 25 26  2  0
 25 51  1  0
 26 52  1  0
 27 28  2  0
 27 29  1  0
 29 53  1  0
 30 31  2  0
 30 32  1  0
 32 54  1  0
 33 34  1  0
 33 35  1  0
 33 55  1  1
 34 56  1  0
 35 36  1  0
 35 57  1  6
 36 58  1  0
M  END

