
     RDKit          3D

 68 72  0  0  0  0  0  0  0  0999 V2000
    0.9124   -1.2594   -0.5085 C   0  0  0  0  0  0  0  0  0  0  0  0
    2.2137   -0.7135   -0.3920 O   0  0  0  0  0  0  0  0  0  0  0  0
    2.8948   -1.3652    0.6162 N   0  0  0  0  0  0  0  0  0  0  0  0
    4.0645   -0.9046    0.8880 C   0  0  0  0  0  0  0  0  0  0  0  0
    4.7880    0.2295    0.2588 C   0  0  0  0  0  0  0  0  0  0  0  0
    4.5682    0.6216   -1.0762 C   0  0  0  0  0  0  0  0  0  0  0  0
    5.3101    1.6521   -1.6605 C   0  0  0  0  0  0  0  0  0  0  0  0
    5.1703    2.0493   -2.9463 O   0  0  0  0  0  0  0  0  0  0  0  0
    4.2285    1.4016   -3.7765 C   0  0  0  0  0  0  0  0  0  0  0  0
    6.2913    2.3423   -0.8960 C   0  0  0  0  0  0  0  0  0  0  0  0
    7.0611    3.3198   -1.4447 O   0  0  0  0  0  0  0  0  0  0  0  0
    6.4314    4.5502   -1.8100 C   0  0  0  0  0  0  0  0  0  0  0  0
    7.5047    5.4551   -2.4072 C   0  0  0  0  0  0  0  0  0  0  0  0
    6.9549    6.7591   -2.7498 N   0  0  0  0  0  0  0  0  0  0  0  0
    7.0117    7.7589   -1.6848 C   0  0  0  0  0  0  0  0  0  0  0  0
    8.3795    8.4559   -1.5687 C   0  0  0  0  0  0  0  0  0  0  0  0
    8.8026    9.0505   -2.9194 C   0  0  0  0  0  0  0  0  0  0  0  0
    8.7332    7.9902   -4.0275 C   0  0  0  0  0  0  0  0  0  0  0  0
    7.3492    7.3179   -4.0391 C   0  0  0  0  0  0  0  0  0  0  0  0
    6.5057    1.9551    0.4189 C   0  0  0  0  0  0  0  0  0  0  0  0
    5.7792    0.9078    1.0086 C   0  0  0  0  0  0  0  0  0  0  0  0
    6.0671    0.5698    2.4327 C   0  0  0  0  0  0  0  0  0  0  0  0
    6.9170    1.1568    3.0764 O   0  0  0  0  0  0  0  0  0  0  0  0
    5.2260   -0.5329    3.0527 C   0  0  0  0  0  0  0  0  0  0  0  0
    4.8163   -1.6021    2.0236 C   0  0  1  0  0  0  0  0  0  0  0  0
    4.0945   -2.7978    2.6152 C   0  0  0  0  0  0  0  0  0  0  0  0
    3.2637   -2.6819    3.7468 C   0  0  0  0  0  0  0  0  0  0  0  0
    2.6290   -3.8150    4.2217 C   0  0  0  0  0  0  0  0  0  0  0  0
    2.8043   -5.0523    3.6130 C   0  0  0  0  0  0  0  0  0  0  0  0
    3.6156   -5.2176    2.5025 C   0  0  0  0  0  0  0  0  0  0  0  0
    4.2582   -4.0631    2.0047 C   0  0  0  0  0  0  0  0  0  0  0  0
    5.0677   -4.0935    0.9074 O   0  0  0  0  0  0  0  0  0  0  0  0
    5.3138   -5.3156    0.2551 C   0  0  0  0  0  0  0  0  0  0  0  0
    2.1039   -6.0043    4.3024 O   0  0  0  0  0  0  0  0  0  0  0  0
    1.3002   -5.2830    5.2360 C   0  0  0  0  0  0  0  0  0  0  0  0
    1.8146   -3.9619    5.3209 O   0  0  0  0  0  0  0  0  0  0  0  0
    0.4234   -0.7101   -1.3256 H   0  0  0  0  0  0  0  0  0  0  0  0
    0.3380   -1.1236    0.4233 H   0  0  0  0  0  0  0  0  0  0  0  0
    0.9494   -2.3348   -0.7518 H   0  0  0  0  0  0  0  0  0  0  0  0
    3.8161    0.0956   -1.6540 H   0  0  0  0  0  0  0  0  0  0  0  0
    4.2937    1.8893   -4.7580 H   0  0  0  0  0  0  0  0  0  0  0  0
    3.2003    1.5065   -3.3881 H   0  0  0  0  0  0  0  0  0  0  0  0
    4.4584    0.3279   -3.8914 H   0  0  0  0  0  0  0  0  0  0  0  0
    5.9832    5.0152   -0.9120 H   0  0  0  0  0  0  0  0  0  0  0  0
    5.6303    4.3829   -2.5462 H   0  0  0  0  0  0  0  0  0  0  0  0
    7.8915    4.9656   -3.3151 H   0  0  0  0  0  0  0  0  0  0  0  0
    8.3573    5.5024   -1.6994 H   0  0  0  0  0  0  0  0  0  0  0  0
    6.7353    7.2851   -0.7293 H   0  0  0  0  0  0  0  0  0  0  0  0
    6.2365    8.5227   -1.8865 H   0  0  0  0  0  0  0  0  0  0  0  0
    9.1379    7.7254   -1.2339 H   0  0  0  0  0  0  0  0  0  0  0  0
    8.3364    9.2385   -0.7918 H   0  0  0  0  0  0  0  0  0  0  0  0
    9.8146    9.4843   -2.8548 H   0  0  0  0  0  0  0  0  0  0  0  0
    8.1227    9.8850   -3.1764 H   0  0  0  0  0  0  0  0  0  0  0  0
    9.5122    7.2242   -3.8589 H   0  0  0  0  0  0  0  0  0  0  0  0
    8.9423    8.4401   -5.0136 H   0  0  0  0  0  0  0  0  0  0  0  0
    7.3038    6.5237   -4.8014 H   0  0  0  0  0  0  0  0  0  0  0  0
    6.5927    8.0727   -4.3292 H   0  0  0  0  0  0  0  0  0  0  0  0
    7.2604    2.4717    1.0139 H   0  0  0  0  0  0  0  0  0  0  0  0
    4.3299   -0.0487    3.4817 H   0  0  0  0  0  0  0  0  0  0  0  0
    5.7939   -0.9652    3.8890 H   0  0  0  0  0  0  0  0  0  0  0  0
    5.7449   -1.9851    1.5681 H   0  0  0  0  0  0  0  0  0  0  0  0
    3.1159   -1.7235    4.2442 H   0  0  0  0  0  0  0  0  0  0  0  0
    3.7368   -6.1997    2.0500 H   0  0  0  0  0  0  0  0  0  0  0  0
    5.9951   -5.0951   -0.5780 H   0  0  0  0  0  0  0  0  0  0  0  0
    4.3869   -5.7599   -0.1514 H   0  0  0  0  0  0  0  0  0  0  0  0
    5.7956   -6.0524    0.9236 H   0  0  0  0  0  0  0  0  0  0  0  0
    1.3528   -5.7701    6.2227 H   0  0  0  0  0  0  0  0  0  0  0  0
    0.2511   -5.2575    4.8745 H   0  0  0  0  0  0  0  0  0  0  0  0
  1  2  1  0
  1 37  1  0
  1 38  1  0
  1 39  1  0
  2  3  1  0
  3  4  2  0
  4  5  1  0
  4 25  1  0
  5  6  1  0
  5 21  2  0
  6  7  2  0
  6 40  1  0
  7  8  1  0
  7 10  1  0
  8  9  1  0
  9 41  1  0
  9 42  1  0
  9 43  1  0
 10 11  1  0
 10 20  2  0
 11 12  1  0
 12 13  1  0
 12 44  1  0
 12 45  1  0
 13 14  1  0
 13 46  1  0
 13 47  1  0
 14 15  1  0
 14 19  1  0
 15 16  1  0
 15 48  1  0
 15 49  1  0
 16 17  1  0
 16 50  1  0
 16 51  1  0
 17 18  1  0
 17 52  1  0
 17 53  1  0
 18 19  1  0
 18 54  1  0
 18 55  1  0
 19 56  1  0
 19 57  1  0
 20 21  1  0
 20 58  1  0
 21 22  1  0
 22 23  2  0
 22 24  1  0
 24 25  1  0
 24 59  1  0
 24 60  1  0
 25 26  1  0
 25 61  1  6
 26 27  2  0
 26 31  1  0
 27 28  1  0
 27 62  1  0
 28 29  2  0
 28 36  1  0
 29 30  1  0
 29 34  1  0
 30 31  2  0
 30 63  1  0
 31 32  1  0
 32 33  1  0
 33 64  1  0
 33 65  1  0
 33 66  1  0
 34 35  1  0
 35 36  1  0
 35 67  1  0
 35 68  1  0
M  END

