
     RDKit          3D

 34 36  0  0  0  0  0  0  0  0999 V2000
    1.5067    0.4643    1.2744 O   0  0  0  0  0  0  0  0  0  0  0  0
    2.3672    0.1675    0.4726 C   0  0  0  0  0  0  0  0  0  0  0  0
    2.8617   -1.2508    0.2323 C   0  0  0  0  0  0  0  0  0  0  0  0
    3.3004   -1.4902   -1.2166 C   0  0  0  0  0  0  0  0  0  0  0  0
    4.2495   -0.4108   -1.6824 C   0  0  0  0  0  0  0  0  0  0  0  0
    5.2757   -0.6297   -2.6022 C   0  0  0  0  0  0  0  0  0  0  0  0
    6.1093    0.3945   -3.0791 C   0  0  0  0  0  0  0  0  0  0  0  0
    7.2099    0.1020   -4.0981 C   0  0  1  0  0  0  0  0  0  0  0  0
    7.2730    1.0645   -5.1337 O   0  0  0  0  0  0  0  0  0  0  0  0
    8.5779   -0.1510   -3.4611 C   0  0  0  0  0  0  0  0  0  0  0  0
    9.2845   -1.3207   -3.7715 C   0  0  0  0  0  0  0  0  0  0  0  0
   10.5544   -1.5698   -3.2411 C   0  0  0  0  0  0  0  0  0  0  0  0
   11.1325   -0.6285   -2.3870 C   0  0  0  0  0  0  0  0  0  0  0  0
   13.0632   -0.9884   -1.5696 I   0  0  0  0  0  0  0  0  0  0  0  0
   10.4516    0.5497   -2.0636 C   0  0  0  0  0  0  0  0  0  0  0  0
    9.1819    0.7785   -2.5985 C   0  0  0  0  0  0  0  0  0  0  0  0
    5.8527    1.6721   -2.5774 C   0  0  0  0  0  0  0  0  0  0  0  0
    6.6278    2.7116   -2.9823 F   0  0  0  0  0  0  0  0  0  0  0  0
    4.8500    1.9484   -1.6566 C   0  0  0  0  0  0  0  0  0  0  0  0
    4.0412    0.8993   -1.2010 C   0  0  0  0  0  0  0  0  0  0  0  0
    3.0156    1.1343   -0.2791 N   0  0  0  0  0  0  0  0  0  0  0  0
    2.0622   -1.9344    0.5486 H   0  0  0  0  0  0  0  0  0  0  0  0
    3.7144   -1.4098    0.9179 H   0  0  0  0  0  0  0  0  0  0  0  0
    2.4067   -1.4925   -1.8694 H   0  0  0  0  0  0  0  0  0  0  0  0
    3.7618   -2.4838   -1.3210 H   0  0  0  0  0  0  0  0  0  0  0  0
    5.4307   -1.6451   -2.9799 H   0  0  0  0  0  0  0  0  0  0  0  0
    6.9207   -0.8319   -4.6040 H   0  0  0  0  0  0  0  0  0  0  0  0
    7.4963    1.9191   -4.7408 H   0  0  0  0  0  0  0  0  0  0  0  0
    8.8395   -2.0578   -4.4463 H   0  0  0  0  0  0  0  0  0  0  0  0
   11.0835   -2.4893   -3.4972 H   0  0  0  0  0  0  0  0  0  0  0  0
   10.9023    1.2860   -1.3959 H   0  0  0  0  0  0  0  0  0  0  0  0
    8.6619    1.7020   -2.3359 H   0  0  0  0  0  0  0  0  0  0  0  0
    4.7185    2.9722   -1.3013 H   0  0  0  0  0  0  0  0  0  0  0  0
    2.7581    2.0917   -0.0575 H   0  0  0  0  0  0  0  0  0  0  0  0
  1  2  2  0
  2  3  1  0
  2 21  1  0
  3  4  1  0
  3 22  1  0
  3 23  1  0
  4  5  1  0
  4 24  1  0
  4 25  1  0
  5  6  1  0
  5 20  2  0
  6  7  2  0
  6 26  1  0
  7  8  1  0
  7 17  1  0
  8  9  1  0
  8 10  1  0
  8 27  1  6
  9 28  1  0
 10 11  2  0
 10 16  1  0
 11 12  1  0
 11 29  1  0
 12 13  2  0
 12 30  1  0
 13 14  1  0
 13 15  1  0
 15 16  2  0
 15 31  1  0
 16 32  1  0
 17 18  1  0
 17 19  2  0
 19 20  1  0
 19 33  1  0
 20 21  1  0
 21 34  1  0
M  END

