
     RDKit          3D

 42 44  0  0  0  0  0  0  0  0999 V2000
    1.0083    0.5054    0.5514 C   0  0  0  0  0  0  0  0  0  0  0  0
    2.4755    0.3383    0.2450 C   0  0  0  0  0  0  0  0  0  0  0  0
    3.3142    1.4473    0.0449 C   0  0  0  0  0  0  0  0  0  0  0  0
    4.6666    1.2836   -0.2453 C   0  0  0  0  0  0  0  0  0  0  0  0
    5.2295    0.0007   -0.3474 C   0  0  0  0  0  0  0  0  0  0  0  0
    6.6927   -0.1090   -0.6578 C   0  0  0  0  0  0  0  0  0  0  0  0
    7.3807    0.8866   -0.7888 O   0  0  0  0  0  0  0  0  0  0  0  0
    7.3011   -1.4990   -0.8090 C   0  0  0  0  0  0  0  0  0  0  0  0
    8.7796   -1.4517   -1.1682 C   0  0  0  0  0  0  0  0  0  0  0  0
    9.4385   -2.8282   -1.1290 C   0  0  0  0  0  0  0  0  0  0  0  0
    8.9254   -3.7951   -0.5999 O   0  0  0  0  0  0  0  0  0  0  0  0
   10.6829   -2.8533   -1.7317 N   0  0  0  0  0  0  0  0  0  0  0  0
   11.6074   -3.9065   -1.8111 C   0  0  0  0  0  0  0  0  0  0  0  0
   11.3508   -5.2007   -1.3194 C   0  0  0  0  0  0  0  0  0  0  0  0
   12.3371   -6.1808   -1.4433 C   0  0  0  0  0  0  0  0  0  0  0  0
   13.5686   -5.9193   -2.0443 C   0  0  0  0  0  0  0  0  0  0  0  0
   13.8099   -4.6290   -2.5324 C   0  0  0  0  0  0  0  0  0  0  0  0
   15.0525   -4.3132   -3.1566 N   0  0  0  0  0  0  0  0  0  0  0  0
   16.1772   -5.0538   -3.3279 C   0  0  0  0  0  0  0  0  0  0  0  0
   17.0653   -4.3264   -3.9648 N   0  0  0  0  0  0  0  0  0  0  0  0
   16.4814   -3.1252   -4.1760 N   0  0  0  0  0  0  0  0  0  0  0  0
   15.2887   -3.1027   -3.7020 N   0  0  0  0  0  0  0  0  0  0  0  0
   12.8440   -3.6286   -2.4187 C   0  0  0  0  0  0  0  0  0  0  0  0
    4.3953   -1.1144   -0.1469 C   0  0  0  0  0  0  0  0  0  0  0  0
    3.0436   -0.9441    0.1449 C   0  0  0  0  0  0  0  0  0  0  0  0
    0.7411    1.5631    0.6913 H   0  0  0  0  0  0  0  0  0  0  0  0
    0.7253   -0.0427    1.4653 H   0  0  0  0  0  0  0  0  0  0  0  0
    0.3854    0.1055   -0.2670 H   0  0  0  0  0  0  0  0  0  0  0  0
    2.8973    2.4560    0.1204 H   0  0  0  0  0  0  0  0  0  0  0  0
    5.3194    2.1454   -0.3984 H   0  0  0  0  0  0  0  0  0  0  0  0
    6.7329   -2.0679   -1.5642 H   0  0  0  0  0  0  0  0  0  0  0  0
    7.1610   -2.0654    0.1270 H   0  0  0  0  0  0  0  0  0  0  0  0
    9.3141   -0.7913   -0.4643 H   0  0  0  0  0  0  0  0  0  0  0  0
    8.9235   -0.9906   -2.1598 H   0  0  0  0  0  0  0  0  0  0  0  0
   10.9962   -1.9800   -2.1405 H   0  0  0  0  0  0  0  0  0  0  0  0
   10.3928   -5.4181   -0.8553 H   0  0  0  0  0  0  0  0  0  0  0  0
   12.1369   -7.1842   -1.0591 H   0  0  0  0  0  0  0  0  0  0  0  0
   14.3137   -6.7102   -2.1324 H   0  0  0  0  0  0  0  0  0  0  0  0
   16.3054   -6.0795   -2.9926 H   0  0  0  0  0  0  0  0  0  0  0  0
   13.0692   -2.6352   -2.8086 H   0  0  0  0  0  0  0  0  0  0  0  0
    4.7980   -2.1273   -0.2123 H   0  0  0  0  0  0  0  0  0  0  0  0
    2.4136   -1.8250    0.3007 H   0  0  0  0  0  0  0  0  0  0  0  0
  1  2  1  0
  1 26  1  0
  1 27  1  0
  1 28  1  0
  2  3  2  0
  2 25  1  0
  3  4  1  0
  3 29  1  0
  4  5  2  0
  4 30  1  0
  5  6  1  0
  5 24  1  0
  6  7  2  0
  6  8  1  0
  8  9  1  0
  8 31  1  0
  8 32  1  0
  9 10  1  0
  9 33  1  0
  9 34  1  0
 10 11  2  0
 10 12  1  0
 12 13  1  0
 12 35  1  0
 13 14  2  0
 13 23  1  0
 14 15  1  0
 14 36  1  0
 15 16  2  0
 15 37  1  0
 16 17  1  0
 16 38  1  0
 17 18  1  0
 17 23  2  0
 18 19  1  0
 18 22  1  0
 19 20  2  0
 19 39  1  0
 20 21  1  0
 21 22  2  0
 23 40  1  0
 24 25  2  0
 24 41  1  0
 25 42  1  0
M  END

