
     RDKit          3D

 53 57  0  0  0  0  0  0  0  0999 V2000
    3.8485    1.3682    5.5576 C   0  0  0  0  0  0  0  0  0  0  0  0
    4.3798    0.1467    5.1318 C   0  0  0  0  0  0  0  0  0  0  0  0
    4.4501   -0.1522    3.7698 C   0  0  0  0  0  0  0  0  0  0  0  0
    3.9866    0.7672    2.8131 C   0  0  0  0  0  0  0  0  0  0  0  0
    4.0506    0.4559    1.3578 C   0  0  0  0  0  0  0  0  0  0  0  0
    4.5696   -0.7520    1.0120 N   0  0  0  0  0  0  0  0  0  0  0  0
    4.6391   -1.0896   -0.2625 C   0  0  0  0  0  0  0  0  0  0  0  0
    5.2371   -2.2991   -0.5846 N   0  0  0  0  0  0  0  0  0  0  0  0
    5.4588   -3.2661    0.4928 C   0  0  0  0  0  0  0  0  0  0  0  0
    5.5246   -4.6879   -0.0751 C   0  0  0  0  0  0  0  0  0  0  0  0
    6.5781   -4.8572   -1.1870 C   0  0  2  0  0  0  0  0  0  0  0  0
    8.0379   -4.8994   -0.6637 C   0  0  0  0  0  0  0  0  0  0  0  0
    8.3418   -6.0819    0.2278 C   0  0  0  0  0  0  0  0  0  0  0  0
    8.4835   -7.3753   -0.2991 C   0  0  0  0  0  0  0  0  0  0  0  0
    8.7497   -8.4436    0.5608 C   0  0  0  0  0  0  0  0  0  0  0  0
    8.8828   -8.3133    1.8839 N   0  0  0  0  0  0  0  0  0  0  0  0
    8.7530   -7.0859    2.3909 C   0  0  0  0  0  0  0  0  0  0  0  0
    8.4863   -5.9519    1.6161 C   0  0  0  0  0  0  0  0  0  0  0  0
    6.3749   -3.7463   -2.2369 C   0  0  0  0  0  0  0  0  0  0  0  0
    6.2893   -2.3544   -1.6085 C   0  0  0  0  0  0  0  0  0  0  0  0
    4.0597   -0.2330   -1.2773 C   0  0  0  0  0  0  0  0  0  0  0  0
    3.8432   -0.5854   -2.6338 C   0  0  0  0  0  0  0  0  0  0  0  0
    3.2887    0.3227   -3.5172 C   0  0  0  0  0  0  0  0  0  0  0  0
    2.9246    1.6165   -3.0733 C   0  0  0  0  0  0  0  0  0  0  0  0
    3.0717    1.9667   -1.7468 C   0  0  0  0  0  0  0  0  0  0  0  0
    3.6087    1.0406   -0.8098 C   0  0  0  0  0  0  0  0  0  0  0  0
    3.6328    1.3735    0.5076 N   0  0  0  0  0  0  0  0  0  0  0  0
    3.4550    1.9939    3.2503 C   0  0  0  0  0  0  0  0  0  0  0  0
    3.3871    2.2907    4.6113 C   0  0  0  0  0  0  0  0  0  0  0  0
    3.7943    1.6018    6.6243 H   0  0  0  0  0  0  0  0  0  0  0  0
    4.7435   -0.5773    5.8659 H   0  0  0  0  0  0  0  0  0  0  0  0
    4.8674   -1.0993    3.4267 H   0  0  0  0  0  0  0  0  0  0  0  0
    4.6345   -3.1786    1.2110 H   0  0  0  0  0  0  0  0  0  0  0  0
    6.3811   -3.0156    1.0547 H   0  0  0  0  0  0  0  0  0  0  0  0
    4.5334   -4.9368   -0.4904 H   0  0  0  0  0  0  0  0  0  0  0  0
    5.7096   -5.3969    0.7477 H   0  0  0  0  0  0  0  0  0  0  0  0
    6.3941   -5.8264   -1.6819 H   0  0  0  0  0  0  0  0  0  0  0  0
    8.2821   -3.9704   -0.1250 H   0  0  0  0  0  0  0  0  0  0  0  0
    8.7089   -4.9350   -1.5391 H   0  0  0  0  0  0  0  0  0  0  0  0
    8.3959   -7.5529   -1.3748 H   0  0  0  0  0  0  0  0  0  0  0  0
    8.8647   -9.4563    0.1553 H   0  0  0  0  0  0  0  0  0  0  0  0
    8.8686   -6.9898    3.4775 H   0  0  0  0  0  0  0  0  0  0  0  0
    8.3986   -4.9732    2.0958 H   0  0  0  0  0  0  0  0  0  0  0  0
    5.4374   -3.9413   -2.7853 H   0  0  0  0  0  0  0  0  0  0  0  0
    7.1909   -3.7602   -2.9790 H   0  0  0  0  0  0  0  0  0  0  0  0
    6.1068   -1.5955   -2.3769 H   0  0  0  0  0  0  0  0  0  0  0  0
    7.2600   -2.0903   -1.1393 H   0  0  0  0  0  0  0  0  0  0  0  0
    4.0830   -1.5929   -2.9757 H   0  0  0  0  0  0  0  0  0  0  0  0
    3.1184    0.0370   -4.5580 H   0  0  0  0  0  0  0  0  0  0  0  0
    2.4983    2.3309   -3.7826 H   0  0  0  0  0  0  0  0  0  0  0  0
    2.7590    2.9416   -1.3682 H   0  0  0  0  0  0  0  0  0  0  0  0
    3.0991    2.7011    2.5001 H   0  0  0  0  0  0  0  0  0  0  0  0
    2.9709    3.2474    4.9381 H   0  0  0  0  0  0  0  0  0  0  0  0
  1  2  2  0
  1 29  1  0
  1 30  1  0
  2  3  1  0
  2 31  1  0
  3  4  2  0
  3 32  1  0
  4  5  1  0
  4 28  1  0
  5  6  2  0
  5 27  1  0
  6  7  1  0
  7  8  1  0
  7 21  2  0
  8  9  1  0
  8 20  1  0
  9 10  1  0
  9 33  1  0
  9 34  1  0
 10 11  1  0
 10 35  1  0
 10 36  1  0
 11 12  1  0
 11 19  1  0
 11 37  1  6
 12 13  1  0
 12 38  1  0
 12 39  1  0
 13 14  2  0
 13 18  1  0
 14 15  1  0
 14 40  1  0
 15 16  2  0
 15 41  1  0
 16 17  1  0
 17 18  2  0
 17 42  1  0
 18 43  1  0
 19 20  1  0
 19 44  1  0
 19 45  1  0
 20 46  1  0
 20 47  1  0
 21 22  1  0
 21 26  1  0
 22 23  2  0
 22 48  1  0
 23 24  1  0
 23 49  1  0
 24 25  2  0
 24 50  1  0
 25 26  1  0
 25 51  1  0
 26 27  2  0
 28 29  2  0
 28 52  1  0
 29 53  1  0
M  END

