
     RDKit          3D

 36 37  0  0  0  0  0  0  0  0999 V2000
    2.6367   -1.5706    0.0617 N   0  0  0  0  0  0  0  0  0  0  0  0
    2.9024   -0.2150   -0.1243 C   0  0  0  0  0  0  0  0  0  0  0  0
    3.3307    0.5567    1.0981 C   0  0  0  0  0  0  0  0  0  0  0  0
    2.1430    1.2368    1.8287 C   0  0  1  0  0  0  0  0  0  0  0  0
    1.1538    0.2314    2.1804 N   0  0  0  0  0  0  0  0  0  0  0  0
   -0.1495    0.5279    2.5105 C   0  0  0  0  0  0  0  0  0  0  0  0
   -0.5947    1.8493    2.7390 C   0  0  0  0  0  0  0  0  0  0  0  0
   -1.9221    2.1005    3.0855 C   0  0  0  0  0  0  0  0  0  0  0  0
   -2.4662    3.9079    3.3820 Br  0  0  0  0  0  0  0  0  0  0  0  0
   -2.8595    1.0764    3.2203 C   0  0  0  0  0  0  0  0  0  0  0  0
   -2.4326   -0.2362    2.9975 C   0  0  0  0  0  0  0  0  0  0  0  0
   -1.1125   -0.5056    2.6533 C   0  0  0  0  0  0  0  0  0  0  0  0
   -0.6214   -2.1719    2.3844 Cl  0  0  0  0  0  0  0  0  0  0  0  0
    2.6682    2.0212    3.0304 C   0  0  0  0  0  0  0  0  0  0  0  0
    3.1129    3.3408    2.8599 C   0  0  0  0  0  0  0  0  0  0  0  0
    3.6536    4.0560    3.9319 C   0  0  0  0  0  0  0  0  0  0  0  0
    3.7536    3.4595    5.1927 C   0  0  0  0  0  0  0  0  0  0  0  0
    3.3084    2.1463    5.3723 C   0  0  0  0  0  0  0  0  0  0  0  0
    2.7698    1.4322    4.2982 C   0  0  0  0  0  0  0  0  0  0  0  0
    2.6611    0.2981   -1.2762 N   0  0  0  0  0  0  0  0  0  0  0  0
    2.8151    1.6925   -1.2650 O   0  0  0  0  0  0  0  0  0  0  0  0
    3.3422   -2.0769    0.5913 H   0  0  0  0  0  0  0  0  0  0  0  0
    2.3766   -2.0540   -0.7956 H   0  0  0  0  0  0  0  0  0  0  0  0
    4.0348    1.3434    0.7993 H   0  0  0  0  0  0  0  0  0  0  0  0
    3.8469   -0.1146    1.8039 H   0  0  0  0  0  0  0  0  0  0  0  0
    1.7107    1.9594    1.1123 H   0  0  0  0  0  0  0  0  0  0  0  0
    1.2967   -0.6977    1.7911 H   0  0  0  0  0  0  0  0  0  0  0  0
    0.1037    2.6795    2.6571 H   0  0  0  0  0  0  0  0  0  0  0  0
   -3.8931    1.2894    3.4928 H   0  0  0  0  0  0  0  0  0  0  0  0
   -3.1341   -1.0673    3.0916 H   0  0  0  0  0  0  0  0  0  0  0  0
    3.0309    3.8145    1.8765 H   0  0  0  0  0  0  0  0  0  0  0  0
    3.9915    5.0850    3.7837 H   0  0  0  0  0  0  0  0  0  0  0  0
    4.1704    4.0191    6.0340 H   0  0  0  0  0  0  0  0  0  0  0  0
    3.3757    1.6758    6.3569 H   0  0  0  0  0  0  0  0  0  0  0  0
    2.4080    0.4109    4.4393 H   0  0  0  0  0  0  0  0  0  0  0  0
    2.6133    1.9316   -2.1781 H   0  0  0  0  0  0  0  0  0  0  0  0
  1  2  1  0
  1 22  1  0
  1 23  1  0
  2  3  1  0
  2 20  2  0
  3  4  1  0
  3 24  1  0
  3 25  1  0
  4  5  1  0
  4 14  1  0
  4 26  1  6
  5  6  1  0
  5 27  1  0
  6  7  2  0
  6 12  1  0
  7  8  1  0
  7 28  1  0
  8  9  1  0
  8 10  2  0
 10 11  1  0
 10 29  1  0
 11 12  2  0
 11 30  1  0
 12 13  1  0
 14 15  2  0
 14 19  1  0
 15 16  1  0
 15 31  1  0
 16 17  2  0
 16 32  1  0
 17 18  1  0
 17 33  1  0
 18 19  2  0
 18 34  1  0
 19 35  1  0
 20 21  1  0
 21 36  1  0
M  END

