
     RDKit          3D

 27 27  0  0  0  0  0  0  0  0999 V2000
    1.1008    0.0925   -0.5282 C   0  0  0  0  0  0  0  0  0  0  0  0
    2.2869   -0.0904    0.2137 O   0  0  0  0  0  0  0  0  0  0  0  0
    2.9433    0.9925    0.6833 C   0  0  0  0  0  0  0  0  0  0  0  0
    2.5498    2.3154    0.4986 C   0  0  0  0  0  0  0  0  0  0  0  0
    3.3044    3.4005    1.0090 C   0  0  0  0  0  0  0  0  0  0  0  0
    2.7996    4.7521    0.7574 C   0  0  0  0  0  0  0  0  0  0  0  0
    3.4392    5.9458    0.7007 C   0  0  0  0  0  0  0  0  0  0  0  0
    4.9279    6.1601    0.8265 C   0  0  0  0  0  0  0  0  0  0  0  0
    2.5450    7.1367    0.4565 C   0  0  0  0  0  0  0  0  0  0  0  0
    1.3698    7.0647    0.2006 O   0  0  0  0  0  0  0  0  0  0  0  0
    3.1342    8.3542    0.5478 O   0  0  0  0  0  0  0  0  0  0  0  0
    4.4576    3.1136    1.7567 C   0  0  0  0  0  0  0  0  0  0  0  0
    4.8409    1.7851    1.9517 C   0  0  0  0  0  0  0  0  0  0  0  0
    6.4054    1.3881    2.9851 Br  0  0  0  0  0  0  0  0  0  0  0  0
    4.1224    0.7040    1.4262 C   0  0  0  0  0  0  0  0  0  0  0  0
    4.4633   -0.5836    1.5880 O   0  0  0  0  0  0  0  0  0  0  0  0
    0.7494   -0.9104   -0.8038 H   0  0  0  0  0  0  0  0  0  0  0  0
    1.2795    0.6765   -1.4490 H   0  0  0  0  0  0  0  0  0  0  0  0
    0.3183    0.5962    0.0673 H   0  0  0  0  0  0  0  0  0  0  0  0
    1.6421    2.5363   -0.0625 H   0  0  0  0  0  0  0  0  0  0  0  0
    1.7250    4.8132    0.5542 H   0  0  0  0  0  0  0  0  0  0  0  0
    5.4869    5.2478    0.5782 H   0  0  0  0  0  0  0  0  0  0  0  0
    5.2343    6.4631    1.8450 H   0  0  0  0  0  0  0  0  0  0  0  0
    5.2786    6.9394    0.1282 H   0  0  0  0  0  0  0  0  0  0  0  0
    4.0641    8.2688    0.7966 H   0  0  0  0  0  0  0  0  0  0  0  0
    5.0388    3.9030    2.2275 H   0  0  0  0  0  0  0  0  0  0  0  0
    5.2744   -0.6255    2.1221 H   0  0  0  0  0  0  0  0  0  0  0  0
  1  2  1  0
  1 17  1  0
  1 18  1  0
  1 19  1  0
  2  3  1  0
  3  4  2  0
  3 15  1  0
  4  5  1  0
  4 20  1  0
  5  6  1  0
  5 12  2  0
  6  7  2  0
  6 21  1  0
  7  8  1  0
  7  9  1  0
  8 22  1  0
  8 23  1  0
  8 24  1  0
  9 10  2  0
  9 11  1  0
 11 25  1  0
 12 13  1  0
 12 26  1  0
 13 14  1  0
 13 15  2  0
 15 16  1  0
 16 27  1  0
M  END

