
     RDKit          3D

174182  0  0  0  0  0  0  0  0999 V2000
    8.8516   -6.2019    4.4756 C   0  0  0  0  0  0  0  0  0  0  0  0
    9.9013   -5.3909    3.7118 C   0  0  0  0  0  0  0  0  0  0  0  0
    9.4016   -4.0446    3.1632 C   0  0  0  0  0  0  0  0  0  0  0  0
    8.2356   -4.1078    2.1613 C   0  0  0  0  0  0  0  0  0  0  0  0
    8.4737   -4.8917    0.8513 C   0  0  1  0  0  0  0  0  0  0  0  0
    7.1280   -5.1380    0.1385 C   0  0  0  0  0  0  0  0  0  0  0  0
    7.1653   -5.9860   -1.1350 C   0  0  0  0  0  0  0  0  0  0  0  0
    9.4986   -4.1662   -0.0258 C   0  0  0  0  0  0  0  0  0  0  0  0
   10.0767   -5.0831   -0.9462 O   0  0  0  0  0  0  0  0  0  0  0  0
   11.0299   -4.6613   -1.8139 C   0  0  0  0  0  0  0  0  0  0  0  0
   11.4887   -3.3423   -1.8972 C   0  0  0  0  0  0  0  0  0  0  0  0
   12.4605   -2.9811   -2.8429 C   0  0  0  0  0  0  0  0  0  0  0  0
   12.8406   -1.6638   -2.9217 O   0  0  0  0  0  0  0  0  0  0  0  0
   13.8255   -1.2290   -1.9790 C   0  0  0  0  0  0  0  0  0  0  0  0
   13.9703    0.2944   -1.9982 C   0  0  1  0  0  0  0  0  0  0  0  0
   14.6287    0.8397   -3.2883 C   0  0  0  0  0  0  0  0  0  0  0  0
   13.7684    0.8739   -4.5561 C   0  0  0  0  0  0  0  0  0  0  0  0
   12.6561    1.0250   -1.6542 C   0  0  0  0  0  0  0  0  0  0  0  0
   12.0944    0.7993   -0.2418 C   0  0  0  0  0  0  0  0  0  0  0  0
   12.9623    1.3281    0.9065 C   0  0  0  0  0  0  0  0  0  0  0  0
   12.3132    1.1599    2.2815 C   0  0  0  0  0  0  0  0  0  0  0  0
   12.9973   -3.9289   -3.7401 C   0  0  0  0  0  0  0  0  0  0  0  0
   13.9386   -3.5238   -4.7934 C   0  0  0  0  0  0  0  0  0  0  0  0
   14.3970   -4.3486   -5.7600 C   0  0  0  0  0  0  0  0  0  0  0  0
   15.3170   -4.1041   -6.8733 C   0  0  0  0  0  0  0  0  0  0  0  0
   15.8993   -2.8518   -7.2104 C   0  0  0  0  0  0  0  0  0  0  0  0
   16.7985   -2.7052   -8.2719 C   0  0  0  0  0  0  0  0  0  0  0  0
   17.1197   -3.8472   -9.0075 C   0  0  0  0  0  0  0  0  0  0  0  0
   18.0136   -3.9458  -10.0503 O   0  0  0  0  0  0  0  0  0  0  0  0
   18.0460   -5.2716  -10.4119 C   0  0  0  0  0  0  0  0  0  0  0  0
   18.8604   -5.8694  -11.3760 C   0  0  0  0  0  0  0  0  0  0  0  0
   18.7848   -7.2607  -11.5183 C   0  0  0  0  0  0  0  0  0  0  0  0
   17.9048   -8.0512  -10.7341 C   0  0  0  0  0  0  0  0  0  0  0  0
   17.8387   -9.5150  -10.6723 C   0  0  0  0  0  0  0  0  0  0  0  0
   18.6521  -10.5159  -11.0772 C   0  0  0  0  0  0  0  0  0  0  0  0
   18.4436  -11.8667  -10.4924 C   0  0  0  0  0  0  0  0  0  0  0  0
   18.1237  -11.9117   -9.1240 C   0  0  0  0  0  0  0  0  0  0  0  0
   17.7814  -13.0819   -8.4334 C   0  0  0  0  0  0  0  0  0  0  0  0
   17.4220  -12.9150   -7.0008 C   0  0  0  0  0  0  0  0  0  0  0  0
   18.1805  -12.1695   -6.1691 C   0  0  0  0  0  0  0  0  0  0  0  0
   17.8460  -11.5883   -4.8557 C   0  0  0  0  0  0  0  0  0  0  0  0
   18.8996  -11.3523   -3.9355 C   0  0  0  0  0  0  0  0  0  0  0  0
   18.7144  -10.6314   -2.7584 C   0  0  0  0  0  0  0  0  0  0  0  0
   17.4416  -10.1198   -2.5283 C   0  0  0  0  0  0  0  0  0  0  0  0
   17.1039   -9.2902   -1.4962 O   0  0  0  0  0  0  0  0  0  0  0  0
   15.7968   -8.9375   -1.6951 C   0  0  0  0  0  0  0  0  0  0  0  0
   15.0777   -8.0481   -0.9045 C   0  0  0  0  0  0  0  0  0  0  0  0
   13.7593   -7.7925   -1.2771 C   0  0  0  0  0  0  0  0  0  0  0  0
   13.1568   -8.4194   -2.3964 C   0  0  0  0  0  0  0  0  0  0  0  0
   11.7174   -8.1965   -2.6751 C   0  0  0  0  0  0  0  0  0  0  0  0
   11.0356   -7.0328   -2.6803 C   0  0  0  0  0  0  0  0  0  0  0  0
   11.5743   -5.6531   -2.6724 C   0  0  0  0  0  0  0  0  0  0  0  0
   12.5357   -5.2561   -3.6011 C   0  0  0  0  0  0  0  0  0  0  0  0
   13.9120   -9.3217   -3.1675 C   0  0  0  0  0  0  0  0  0  0  0  0
   15.2518   -9.5692   -2.8335 C   0  0  0  0  0  0  0  0  0  0  0  0
   16.3519  -10.3458   -3.3980 C   0  0  0  0  0  0  0  0  0  0  0  0
   16.5584  -11.0982   -4.5634 C   0  0  0  0  0  0  0  0  0  0  0  0
   17.7788  -14.2980   -9.1555 C   0  0  0  0  0  0  0  0  0  0  0  0
   17.3928  -15.6115   -8.4778 C   0  0  1  0  0  0  0  0  0  0  0  0
   15.8752  -15.8749   -8.4644 C   0  0  0  0  0  0  0  0  0  0  0  0
   15.2315  -16.1082   -9.8329 C   0  0  0  0  0  0  0  0  0  0  0  0
   13.7350  -16.4255   -9.7426 C   0  0  0  0  0  0  0  0  0  0  0  0
   13.0803  -16.6724  -11.1024 C   0  0  0  0  0  0  0  0  0  0  0  0
   18.0092  -16.7395   -9.0723 O   0  0  0  0  0  0  0  0  0  0  0  0
   19.3710  -16.9322   -8.7425 C   0  0  0  0  0  0  0  0  0  0  0  0
   19.8674  -18.2235   -9.3791 C   0  0  0  0  0  0  0  0  0  0  0  0
   19.8301  -18.2198  -10.9077 C   0  0  0  0  0  0  0  0  0  0  0  0
   18.1587  -14.2733  -10.5055 C   0  0  0  0  0  0  0  0  0  0  0  0
   18.4930  -13.0937  -11.1901 C   0  0  0  0  0  0  0  0  0  0  0  0
   18.9088  -13.1602  -12.6567 C   0  0  1  0  0  0  0  0  0  0  0  0
   20.4254  -13.3580  -12.8032 C   0  0  0  0  0  0  0  0  0  0  0  0
   20.9205  -13.3139  -14.2505 C   0  0  0  0  0  0  0  0  0  0  0  0
   22.4283  -13.5450  -14.3887 C   0  0  0  0  0  0  0  0  0  0  0  0
   22.9207  -13.5034  -15.8361 C   0  0  0  0  0  0  0  0  0  0  0  0
   18.2783  -14.2193  -13.3551 O   0  0  0  0  0  0  0  0  0  0  0  0
   16.9290  -13.9954  -13.7096 C   0  0  0  0  0  0  0  0  0  0  0  0
   16.4156  -15.1955  -14.4922 C   0  0  0  0  0  0  0  0  0  0  0  0
   14.9646  -15.0330  -14.9450 C   0  0  0  0  0  0  0  0  0  0  0  0
   17.0653   -7.4031   -9.8107 C   0  0  0  0  0  0  0  0  0  0  0  0
   17.1520   -6.0281   -9.6331 C   0  0  0  0  0  0  0  0  0  0  0  0
   16.5482   -5.0966   -8.7095 C   0  0  0  0  0  0  0  0  0  0  0  0
   15.6496   -5.2240   -7.6545 C   0  0  0  0  0  0  0  0  0  0  0  0
    9.2920   -7.1150    4.9068 H   0  0  0  0  0  0  0  0  0  0  0  0
    8.0182   -6.5183    3.8277 H   0  0  0  0  0  0  0  0  0  0  0  0
    8.4203   -5.6172    5.3061 H   0  0  0  0  0  0  0  0  0  0  0  0
   10.3120   -6.0038    2.8897 H   0  0  0  0  0  0  0  0  0  0  0  0
   10.7562   -5.1899    4.3809 H   0  0  0  0  0  0  0  0  0  0  0  0
   10.2567   -3.5089    2.7148 H   0  0  0  0  0  0  0  0  0  0  0  0
    9.0802   -3.4152    4.0127 H   0  0  0  0  0  0  0  0  0  0  0  0
    7.9341   -3.0748    1.9061 H   0  0  0  0  0  0  0  0  0  0  0  0
    7.3569   -4.5461    2.6633 H   0  0  0  0  0  0  0  0  0  0  0  0
    8.9157   -5.8732    1.0987 H   0  0  0  0  0  0  0  0  0  0  0  0
    6.6674   -4.1573   -0.0857 H   0  0  0  0  0  0  0  0  0  0  0  0
    6.4513   -5.6215    0.8649 H   0  0  0  0  0  0  0  0  0  0  0  0
    7.7316   -5.4997   -1.9425 H   0  0  0  0  0  0  0  0  0  0  0  0
    6.1433   -6.1680   -1.5049 H   0  0  0  0  0  0  0  0  0  0  0  0
    7.6348   -6.9660   -0.9505 H   0  0  0  0  0  0  0  0  0  0  0  0
   10.3023   -3.7312    0.5937 H   0  0  0  0  0  0  0  0  0  0  0  0
    9.0149   -3.3323   -0.5709 H   0  0  0  0  0  0  0  0  0  0  0  0
   11.0885   -2.5584   -1.2560 H   0  0  0  0  0  0  0  0  0  0  0  0
   14.7962   -1.7050   -2.2168 H   0  0  0  0  0  0  0  0  0  0  0  0
   13.5372   -1.5729   -0.9691 H   0  0  0  0  0  0  0  0  0  0  0  0
   14.6969    0.4984   -1.1903 H   0  0  0  0  0  0  0  0  0  0  0  0
   15.5419    0.2487   -3.4833 H   0  0  0  0  0  0  0  0  0  0  0  0
   14.9814    1.8647   -3.0745 H   0  0  0  0  0  0  0  0  0  0  0  0
   13.3892   -0.1232   -4.8212 H   0  0  0  0  0  0  0  0  0  0  0  0
   14.3549    1.2588   -5.4064 H   0  0  0  0  0  0  0  0  0  0  0  0
   12.8955    1.5355   -4.4397 H   0  0  0  0  0  0  0  0  0  0  0  0
   11.8894    0.7298   -2.3879 H   0  0  0  0  0  0  0  0  0  0  0  0
   12.8173    2.1089   -1.7975 H   0  0  0  0  0  0  0  0  0  0  0  0
   11.8937   -0.2757   -0.0789 H   0  0  0  0  0  0  0  0  0  0  0  0
   11.1055    1.2892   -0.1862 H   0  0  0  0  0  0  0  0  0  0  0  0
   13.1802    2.3975    0.7297 H   0  0  0  0  0  0  0  0  0  0  0  0
   13.9426    0.8195    0.9064 H   0  0  0  0  0  0  0  0  0  0  0  0
   11.3498    1.6942    2.3384 H   0  0  0  0  0  0  0  0  0  0  0  0
   12.9576    1.5499    3.0854 H   0  0  0  0  0  0  0  0  0  0  0  0
   12.1126    0.0979    2.5031 H   0  0  0  0  0  0  0  0  0  0  0  0
   14.2432   -2.4747   -4.7745 H   0  0  0  0  0  0  0  0  0  0  0  0
   14.0491   -5.3853   -5.7376 H   0  0  0  0  0  0  0  0  0  0  0  0
   15.6417   -1.9689   -6.6207 H   0  0  0  0  0  0  0  0  0  0  0  0
   17.2418   -1.7364   -8.5092 H   0  0  0  0  0  0  0  0  0  0  0  0
   19.5490   -5.2754  -11.9796 H   0  0  0  0  0  0  0  0  0  0  0  0
   19.4355   -7.7490  -12.2481 H   0  0  0  0  0  0  0  0  0  0  0  0
   16.9965   -9.8421  -10.0545 H   0  0  0  0  0  0  0  0  0  0  0  0
   19.5071  -10.3342  -11.7377 H   0  0  0  0  0  0  0  0  0  0  0  0
   18.1229  -10.9768   -8.5647 H   0  0  0  0  0  0  0  0  0  0  0  0
   16.4647  -13.3204   -6.6506 H   0  0  0  0  0  0  0  0  0  0  0  0
   19.1720  -11.8787   -6.5385 H   0  0  0  0  0  0  0  0  0  0  0  0
   19.8970  -11.7295   -4.1755 H   0  0  0  0  0  0  0  0  0  0  0  0
   19.5336  -10.4347   -2.0649 H   0  0  0  0  0  0  0  0  0  0  0  0
   15.5329   -7.5764   -0.0320 H   0  0  0  0  0  0  0  0  0  0  0  0
   13.1562   -7.1098   -0.6758 H   0  0  0  0  0  0  0  0  0  0  0  0
   11.1330   -9.1097   -2.8431 H   0  0  0  0  0  0  0  0  0  0  0  0
    9.9441   -7.0993   -2.7570 H   0  0  0  0  0  0  0  0  0  0  0  0
   12.9184   -6.0255   -4.2716 H   0  0  0  0  0  0  0  0  0  0  0  0
   13.4546   -9.8163   -4.0286 H   0  0  0  0  0  0  0  0  0  0  0  0
   15.7502  -11.2342   -5.2856 H   0  0  0  0  0  0  0  0  0  0  0  0
   17.7175  -15.5425   -7.4202 H   0  0  0  0  0  0  0  0  0  0  0  0
   15.3787  -15.0290   -7.9580 H   0  0  0  0  0  0  0  0  0  0  0  0
   15.7082  -16.7622   -7.8290 H   0  0  0  0  0  0  0  0  0  0  0  0
   15.7553  -16.9384  -10.3359 H   0  0  0  0  0  0  0  0  0  0  0  0
   15.3774  -15.2190  -10.4715 H   0  0  0  0  0  0  0  0  0  0  0  0
   13.2154  -15.5955   -9.2289 H   0  0  0  0  0  0  0  0  0  0  0  0
   13.5894  -17.3120   -9.0985 H   0  0  0  0  0  0  0  0  0  0  0  0
   13.1728  -15.7900  -11.7579 H   0  0  0  0  0  0  0  0  0  0  0  0
   12.0070  -16.9001  -11.0017 H   0  0  0  0  0  0  0  0  0  0  0  0
   13.5533  -17.5203  -11.6256 H   0  0  0  0  0  0  0  0  0  0  0  0
   19.4851  -16.9842   -7.6400 H   0  0  0  0  0  0  0  0  0  0  0  0
   19.9817  -16.0742   -9.0897 H   0  0  0  0  0  0  0  0  0  0  0  0
   19.2589  -19.0585   -8.9899 H   0  0  0  0  0  0  0  0  0  0  0  0
   20.8989  -18.3964   -9.0246 H   0  0  0  0  0  0  0  0  0  0  0  0
   18.8024  -18.0810  -11.2756 H   0  0  0  0  0  0  0  0  0  0  0  0
   20.2126  -19.1678  -11.3184 H   0  0  0  0  0  0  0  0  0  0  0  0
   20.4453  -17.4032  -11.3217 H   0  0  0  0  0  0  0  0  0  0  0  0
   18.1837  -15.2145  -11.0573 H   0  0  0  0  0  0  0  0  0  0  0  0
   18.6343  -12.1999  -13.1387 H   0  0  0  0  0  0  0  0  0  0  0  0
   20.6856  -14.3275  -12.3431 H   0  0  0  0  0  0  0  0  0  0  0  0
   20.9362  -12.5858  -12.2023 H   0  0  0  0  0  0  0  0  0  0  0  0
   20.6585  -12.3358  -14.6969 H   0  0  0  0  0  0  0  0  0  0  0  0
   20.3722  -14.0717  -14.8340 H   0  0  0  0  0  0  0  0  0  0  0  0
   22.6870  -14.5212  -13.9395 H   0  0  0  0  0  0  0  0  0  0  0  0
   22.9720  -12.7891  -13.7922 H   0  0  0  0  0  0  0  0  0  0  0  0
   22.4209  -14.2714  -16.4500 H   0  0  0  0  0  0  0  0  0  0  0  0
   24.0064  -13.6795  -15.9012 H   0  0  0  0  0  0  0  0  0  0  0  0
   22.7139  -12.5253  -16.3024 H   0  0  0  0  0  0  0  0  0  0  0  0
   16.8468  -13.0735  -14.3234 H   0  0  0  0  0  0  0  0  0  0  0  0
   16.3072  -13.8329  -12.8061 H   0  0  0  0  0  0  0  0  0  0  0  0
   16.5210  -16.0948  -13.8617 H   0  0  0  0  0  0  0  0  0  0  0  0
   17.0747  -15.3502  -15.3636 H   0  0  0  0  0  0  0  0  0  0  0  0
   14.2841  -14.9091  -14.0860 H   0  0  0  0  0  0  0  0  0  0  0  0
   14.6234  -15.9137  -15.5110 H   0  0  0  0  0  0  0  0  0  0  0  0
   14.8393  -14.1519  -15.5966 H   0  0  0  0  0  0  0  0  0  0  0  0
   16.3838   -7.9922   -9.1930 H   0  0  0  0  0  0  0  0  0  0  0  0
   15.2170   -6.1985   -7.4157 H   0  0  0  0  0  0  0  0  0  0  0  0
  1  2  1  0
  1 83  1  0
  1 84  1  0
  1 85  1  0
  2  3  1  0
  2 86  1  0
  2 87  1  0
  3  4  1  0
  3 88  1  0
  3 89  1  0
  4  5  1  0
  4 90  1  0
  4 91  1  0
  5  6  1  0
  5  8  1  0
  5 92  1  1
  6  7  1  0
  6 93  1  0
  6 94  1  0
  7 95  1  0
  7 96  1  0
  7 97  1  0
  8  9  1  0
  8 98  1  0
  8 99  1  0
  9 10  1  0
 10 11  2  0
 10 52  1  0
 11 12  1  0
 11100  1  0
 12 13  1  0
 12 22  2  0
 13 14  1  0
 14 15  1  0
 14101  1  0
 14102  1  0
 15 16  1  0
 15 18  1  0
 15103  1  1
 16 17  1  0
 16104  1  0
 16105  1  0
 17106  1  0
 17107  1  0
 17108  1  0
 18 19  1  0
 18109  1  0
 18110  1  0
 19 20  1  0
 19111  1  0
 19112  1  0
 20 21  1  0
 20113  1  0
 20114  1  0
 21115  1  0
 21116  1  0
 21117  1  0
 22 23  1  0
 22 53  1  0
 23 24  2  0
 23118  1  0
 24 25  1  0
 24119  1  0
 25 26  2  0
 25 82  1  0
 26 27  1  0
 26120  1  0
 27 28  2  0
 27121  1  0
 28 29  1  0
 28 81  1  0
 29 30  1  0
 30 31  1  0
 30 80  2  0
 31 32  2  0
 31122  1  0
 32 33  1  0
 32123  1  0
 33 34  1  0
 33 79  2  0
 34 35  2  0
 34124  1  0
 35 36  1  0
 35125  1  0
 36 37  1  0
 36 69  2  0
 37 38  2  0
 37126  1  0
 38 39  1  0
 38 58  1  0
 39 40  2  0
 39127  1  0
 40 41  1  0
 40128  1  0
 41 42  1  0
 41 57  2  0
 42 43  2  0
 42129  1  0
 43 44  1  0
 43130  1  0
 44 45  1  0
 44 56  2  0
 45 46  1  0
 46 47  2  0
 46 55  1  0
 47 48  1  0
 47131  1  0
 48 49  2  0
 48132  1  0
 49 50  1  0
 49 54  1  0
 50 51  2  0
 50133  1  0
 51 52  1  0
 51134  1  0
 52 53  2  0
 53135  1  0
 54 55  2  0
 54136  1  0
 55 56  1  0
 56 57  1  0
 57137  1  0
 58 59  1  0
 58 68  2  0
 59 60  1  0
 59 64  1  0
 59138  1  1
 60 61  1  0
 60139  1  0
 60140  1  0
 61 62  1  0
 61141  1  0
 61142  1  0
 62 63  1  0
 62143  1  0
 62144  1  0
 63145  1  0
 63146  1  0
 63147  1  0
 64 65  1  0
 65 66  1  0
 65148  1  0
 65149  1  0
 66 67  1  0
 66150  1  0
 66151  1  0
 67152  1  0
 67153  1  0
 67154  1  0
 68 69  1  0
 68155  1  0
 69 70  1  0
 70 71  1  0
 70 75  1  0
 70156  1  6
 71 72  1  0
 71157  1  0
 71158  1  0
 72 73  1  0
 72159  1  0
 72160  1  0
 73 74  1  0
 73161  1  0
 73162  1  0
 74163  1  0
 74164  1  0
 74165  1  0
 75 76  1  0
 76 77  1  0
 76166  1  0
 76167  1  0
 77 78  1  0
 77168  1  0
 77169  1  0
 78170  1  0
 78171  1  0
 78172  1  0
 79 80  1  0
 79173  1  0
 80 81  1  0
 81 82  2  0
 82174  1  0
M  END

