
     RDKit          3D

 25 26  0  0  0  0  0  0  0  0999 V2000
    0.8017    0.2603   -0.5202 O   0  0  0  0  0  0  0  0  0  0  0  0
    2.0098    0.1665   -0.3736 C   0  0  0  0  0  0  0  0  0  0  0  0
    2.7309   -1.1087   -0.4712 C   0  0  0  0  0  0  0  0  0  0  0  0
    1.6866   -2.4725   -0.8125 Cl  0  0  0  0  0  0  0  0  0  0  0  0
    4.0952   -1.2252   -0.3022 C   0  0  0  0  0  0  0  0  0  0  0  0
    4.9028   -2.3028   -0.3780 N   0  0  0  0  0  0  0  0  0  0  0  0
    4.6019   -3.7103   -0.5552 C   0  0  0  0  0  0  0  0  0  0  0  0
    5.8168   -4.4752   -1.0481 C   0  0  0  0  0  0  0  0  0  0  0  0
    7.3191   -4.4334    0.2307 Br  0  0  0  0  0  0  0  0  0  0  0  0
    4.9150    0.0235    0.0249 C   0  0  0  0  0  0  0  0  0  0  0  0
    6.1079   -0.0936    0.2084 O   0  0  0  0  0  0  0  0  0  0  0  0
    4.2117    1.3397    0.1105 C   0  0  0  0  0  0  0  0  0  0  0  0
    4.9639    2.4129    0.3742 N   0  0  0  0  0  0  0  0  0  0  0  0
    4.3546    3.5922    0.4569 C   0  0  0  0  0  0  0  0  0  0  0  0
    2.9714    3.7608    0.2837 C   0  0  0  0  0  0  0  0  0  0  0  0
    2.1928    2.6397    0.0102 C   0  0  0  0  0  0  0  0  0  0  0  0
    2.8239    1.3939   -0.0811 C   0  0  0  0  0  0  0  0  0  0  0  0
    5.8629   -2.0746   -0.1057 H   0  0  0  0  0  0  0  0  0  0  0  0
    3.8095   -3.8313   -1.3062 H   0  0  0  0  0  0  0  0  0  0  0  0
    4.2285   -4.1630    0.3816 H   0  0  0  0  0  0  0  0  0  0  0  0
    6.2106   -4.0589   -1.9843 H   0  0  0  0  0  0  0  0  0  0  0  0
    5.5716   -5.5345   -1.1892 H   0  0  0  0  0  0  0  0  0  0  0  0
    4.9919    4.4577    0.6728 H   0  0  0  0  0  0  0  0  0  0  0  0
    2.5246    4.7544    0.3640 H   0  0  0  0  0  0  0  0  0  0  0  0
    1.1120    2.6925   -0.1353 H   0  0  0  0  0  0  0  0  0  0  0  0
  1  2  2  0
  2  3  1  0
  2 17  1  0
  3  4  1  0
  3  5  2  0
  5  6  1  0
  5 10  1  0
  6  7  1  0
  6 18  1  0
  7  8  1  0
  7 19  1  0
  7 20  1  0
  8  9  1  0
  8 21  1  0
  8 22  1  0
 10 11  2  0
 10 12  1  0
 12 13  1  0
 12 17  2  0
 13 14  2  0
 14 15  1  0
 14 23  1  0
 15 16  2  0
 15 24  1  0
 16 17  1  0
 16 25  1  0
M  END

