
     RDKit          3D

 34 34  0  0  0  0  0  0  0  0999 V2000
    1.6595    1.4923   -1.0806 C   0  0  0  0  0  0  0  0  0  0  0  0
    2.8954    0.9491   -0.3697 C   0  0  0  0  0  0  0  0  0  0  0  0
    3.1081   -0.4636   -0.6495 N   0  0  0  0  0  0  0  0  0  0  0  0
    4.3234   -0.9987   -0.9259 C   0  0  0  0  0  0  0  0  0  0  0  0
    5.4246   -0.3051   -1.0410 N   0  0  0  0  0  0  0  0  0  0  0  0
    6.4911   -1.1092   -1.3519 C   0  0  0  0  0  0  0  0  0  0  0  0
    7.7109   -0.5577   -1.5265 N   0  0  0  0  0  0  0  0  0  0  0  0
    6.2239   -2.4782   -1.4736 C   0  0  0  0  0  0  0  0  0  0  0  0
    7.2324   -3.4901   -1.7342 C   0  0  0  0  0  0  0  0  0  0  0  0
    8.4232   -3.1830   -1.9020 O   0  0  0  0  0  0  0  0  0  0  0  0
    6.8310   -4.8036   -1.7949 N   0  0  0  0  0  0  0  0  0  0  0  0
    7.7728   -5.8857   -2.0081 C   0  0  0  0  0  0  0  0  0  0  0  0
    8.4192   -6.4477   -0.7252 C   0  0  1  0  0  0  0  0  0  0  0  0
    7.3745   -6.9963    0.2521 C   0  0  0  0  0  0  0  0  0  0  0  0
    9.4656   -7.5072   -1.0859 C   0  0  0  0  0  0  0  0  0  0  0  0
    4.4894   -2.7372   -1.1888 S   0  0  0  0  0  0  0  0  0  0  0  0
    1.5161    2.5573   -0.8392 H   0  0  0  0  0  0  0  0  0  0  0  0
    0.7453    0.9588   -0.7688 H   0  0  0  0  0  0  0  0  0  0  0  0
    1.7551    1.3943   -2.1732 H   0  0  0  0  0  0  0  0  0  0  0  0
    2.8097    1.1144    0.7216 H   0  0  0  0  0  0  0  0  0  0  0  0
    3.8030    1.4734   -0.6980 H   0  0  0  0  0  0  0  0  0  0  0  0
    2.3360   -1.1012   -0.4991 H   0  0  0  0  0  0  0  0  0  0  0  0
    7.8460    0.4179   -1.3042 H   0  0  0  0  0  0  0  0  0  0  0  0
    8.4794   -1.2070   -1.6883 H   0  0  0  0  0  0  0  0  0  0  0  0
    5.8628   -5.0315   -1.6109 H   0  0  0  0  0  0  0  0  0  0  0  0
    8.5654   -5.5028   -2.6679 H   0  0  0  0  0  0  0  0  0  0  0  0
    7.2522   -6.6983   -2.5463 H   0  0  0  0  0  0  0  0  0  0  0  0
    8.9376   -5.6006   -0.2421 H   0  0  0  0  0  0  0  0  0  0  0  0
    6.8299   -7.8520   -0.1861 H   0  0  0  0  0  0  0  0  0  0  0  0
    6.6349   -6.2265    0.5246 H   0  0  0  0  0  0  0  0  0  0  0  0
    7.8444   -7.3473    1.1851 H   0  0  0  0  0  0  0  0  0  0  0  0
    9.0004   -8.3708   -1.5935 H   0  0  0  0  0  0  0  0  0  0  0  0
    9.9748   -7.8889   -0.1863 H   0  0  0  0  0  0  0  0  0  0  0  0
   10.2368   -7.0999   -1.7597 H   0  0  0  0  0  0  0  0  0  0  0  0
  1  2  1  0
  1 17  1  0
  1 18  1  0
  1 19  1  0
  2  3  1  0
  2 20  1  0
  2 21  1  0
  3  4  1  0
  3 22  1  0
  4  5  2  0
  4 16  1  0
  5  6  1  0
  6  7  1  0
  6  8  2  0
  7 23  1  0
  7 24  1  0
  8  9  1  0
  8 16  1  0
  9 10  2  0
  9 11  1  0
 11 12  1  0
 11 25  1  0
 12 13  1  0
 12 26  1  0
 12 27  1  0
 13 14  1  0
 13 15  1  0
 13 28  1  1
 14 29  1  0
 14 30  1  0
 14 31  1  0
 15 32  1  0
 15 33  1  0
 15 34  1  0
M  END

