
     RDKit          3D

 41 42  0  0  0  0  0  0  0  0999 V2000
    0.8802    0.4000    0.4062 C   0  0  0  0  0  0  0  0  0  0  0  0
    2.3720    0.3762    0.0334 C   0  0  1  0  0  0  0  0  0  0  0  0
    2.9192   -1.0601   -0.1123 C   0  0  0  0  0  0  0  0  0  0  0  0
    2.5766   -1.6752   -1.4712 C   0  0  2  0  0  0  0  0  0  0  0  0
    3.1635   -2.9822   -1.5881 O   0  0  0  0  0  0  0  0  0  0  0  0
    2.4536   -4.0460   -1.1661 C   0  0  0  0  0  0  0  0  0  0  0  0
    1.3475   -3.9652   -0.6794 O   0  0  0  0  0  0  0  0  0  0  0  0
    3.1942   -5.3272   -1.3727 C   0  0  0  0  0  0  0  0  0  0  0  0
    4.4654   -5.3624   -1.9695 C   0  0  0  0  0  0  0  0  0  0  0  0
    5.1169   -6.5848   -2.1440 C   0  0  0  0  0  0  0  0  0  0  0  0
    4.5065   -7.7723   -1.7254 C   0  0  0  0  0  0  0  0  0  0  0  0
    3.2398   -7.7393   -1.1308 C   0  0  0  0  0  0  0  0  0  0  0  0
    2.5844   -6.5204   -0.9551 C   0  0  0  0  0  0  0  0  0  0  0  0
    3.1108   -0.8317   -2.6402 C   0  0  2  0  0  0  0  0  0  0  0  0
    4.5273   -0.8424   -2.6786 O   0  0  0  0  0  0  0  0  0  0  0  0
    2.5145    0.6104   -2.6062 C   0  0  2  0  0  0  0  0  0  0  0  0
    1.0190    0.5701   -2.9832 C   0  0  0  0  0  0  0  0  0  0  0  0
    3.2325    1.4784   -3.6561 C   0  0  0  0  0  0  0  0  0  0  0  0
    2.7586    1.2272   -1.2009 C   0  0  0  0  0  0  0  0  0  0  0  0
    0.7299   -0.0496    1.4007 H   0  0  0  0  0  0  0  0  0  0  0  0
    0.2446   -0.1586   -0.2957 H   0  0  0  0  0  0  0  0  0  0  0  0
    0.5000    1.4335    0.4468 H   0  0  0  0  0  0  0  0  0  0  0  0
    2.9000    0.8318    0.8894 H   0  0  0  0  0  0  0  0  0  0  0  0
    2.5264   -1.7080    0.6864 H   0  0  0  0  0  0  0  0  0  0  0  0
    4.0184   -1.0603    0.0029 H   0  0  0  0  0  0  0  0  0  0  0  0
    1.4878   -1.7887   -1.5576 H   0  0  0  0  0  0  0  0  0  0  0  0
    4.9275   -4.4283   -2.2920 H   0  0  0  0  0  0  0  0  0  0  0  0
    6.1052   -6.6125   -2.6099 H   0  0  0  0  0  0  0  0  0  0  0  0
    5.0196   -8.7277   -1.8639 H   0  0  0  0  0  0  0  0  0  0  0  0
    2.7638   -8.6673   -0.8042 H   0  0  0  0  0  0  0  0  0  0  0  0
    1.5955   -6.4678   -0.4953 H   0  0  0  0  0  0  0  0  0  0  0  0
    2.8044   -1.3175   -3.5815 H   0  0  0  0  0  0  0  0  0  0  0  0
    4.8682   -0.5200   -1.8345 H   0  0  0  0  0  0  0  0  0  0  0  0
    0.8956    0.2097   -4.0175 H   0  0  0  0  0  0  0  0  0  0  0  0
    0.5824    1.5805   -2.9315 H   0  0  0  0  0  0  0  0  0  0  0  0
    0.4151   -0.0798   -2.3370 H   0  0  0  0  0  0  0  0  0  0  0  0
    3.0807    1.0747   -4.6705 H   0  0  0  0  0  0  0  0  0  0  0  0
    4.3155    1.5167   -3.4761 H   0  0  0  0  0  0  0  0  0  0  0  0
    2.8373    2.5072   -3.6401 H   0  0  0  0  0  0  0  0  0  0  0  0
    2.2627    2.2114   -1.1462 H   0  0  0  0  0  0  0  0  0  0  0  0
    3.8399    1.4437   -1.1240 H   0  0  0  0  0  0  0  0  0  0  0  0
  1  2  1  0
  1 20  1  0
  1 21  1  0
  1 22  1  0
  2  3  1  0
  2 19  1  0
  2 23  1  1
  3  4  1  0
  3 24  1  0
  3 25  1  0
  4  5  1  0
  4 14  1  0
  4 26  1  6
  5  6  1  0
  6  7  2  0
  6  8  1  0
  8  9  2  0
  8 13  1  0
  9 10  1  0
  9 27  1  0
 10 11  2  0
 10 28  1  0
 11 12  1  0
 11 29  1  0
 12 13  2  0
 12 30  1  0
 13 31  1  0
 14 15  1  0
 14 16  1  0
 14 32  1  6
 15 33  1  0
 16 17  1  6
 16 18  1  0
 16 19  1  0
 17 34  1  0
 17 35  1  0
 17 36  1  0
 18 37  1  0
 18 38  1  0
 18 39  1  0
 19 40  1  0
 19 41  1  0
M  END

