
     RDKit          3D

 44 45  0  0  0  0  0  0  0  0999 V2000
   -2.6373    5.5914   -0.7251 C   0  0  0  0  0  0  0  0  0  0  0  0
   -1.5426    6.5943   -0.3261 C   0  0  0  0  0  0  0  0  0  0  0  0
   -0.1817    6.2394   -0.8826 C   0  0  0  0  0  0  0  0  0  0  0  0
    0.2367    6.7176   -2.1343 C   0  0  0  0  0  0  0  0  0  0  0  0
    1.4743    6.3603   -2.6721 C   0  0  0  0  0  0  0  0  0  0  0  0
    2.3371    5.5041   -1.9647 C   0  0  0  0  0  0  0  0  0  0  0  0
    3.6795    5.0488   -2.4659 C   0  0  0  0  0  0  0  0  0  0  0  0
    4.3902    4.3553   -1.7617 O   0  0  0  0  0  0  0  0  0  0  0  0
    4.1515    5.3352   -3.9137 C   0  0  1  0  0  0  0  0  0  0  0  0
    3.3492    4.4110   -4.8482 C   0  0  0  0  0  0  0  0  0  0  0  0
    4.1014    6.7610   -4.2729 N   0  0  0  0  0  0  0  0  0  0  0  0
    4.8738    7.5475   -3.3091 C   0  0  0  0  0  0  0  0  0  0  0  0
    4.7805    9.0737   -3.4280 C   0  0  0  0  0  0  0  0  0  0  0  0
    5.5356    9.6827   -4.6178 C   0  0  0  0  0  0  0  0  0  0  0  0
    4.8055    9.6183   -5.9710 C   0  0  0  0  0  0  0  0  0  0  0  0
    3.9182    8.3810   -6.1912 C   0  0  0  0  0  0  0  0  0  0  0  0
    4.4477    7.0338   -5.6716 C   0  0  0  0  0  0  0  0  0  0  0  0
    1.9245    5.0286   -0.7056 C   0  0  0  0  0  0  0  0  0  0  0  0
    0.6886    5.3887   -0.1773 C   0  0  0  0  0  0  0  0  0  0  0  0
   -3.6119    5.8817   -0.3007 H   0  0  0  0  0  0  0  0  0  0  0  0
   -2.3984    4.5779   -0.3650 H   0  0  0  0  0  0  0  0  0  0  0  0
   -2.7461    5.5365   -1.8201 H   0  0  0  0  0  0  0  0  0  0  0  0
   -1.4838    6.6485    0.7740 H   0  0  0  0  0  0  0  0  0  0  0  0
   -1.8281    7.6012   -0.6739 H   0  0  0  0  0  0  0  0  0  0  0  0
   -0.4169    7.3914   -2.6966 H   0  0  0  0  0  0  0  0  0  0  0  0
    1.7979    6.7671   -3.6299 H   0  0  0  0  0  0  0  0  0  0  0  0
    5.2015    4.9696   -3.9038 H   0  0  0  0  0  0  0  0  0  0  0  0
    2.3240    4.7778   -5.0069 H   0  0  0  0  0  0  0  0  0  0  0  0
    3.2895    3.4060   -4.4034 H   0  0  0  0  0  0  0  0  0  0  0  0
    3.8352    4.2945   -5.8274 H   0  0  0  0  0  0  0  0  0  0  0  0
    5.9520    7.2609   -3.3457 H   0  0  0  0  0  0  0  0  0  0  0  0
    4.5258    7.2723   -2.3014 H   0  0  0  0  0  0  0  0  0  0  0  0
    5.2168    9.4778   -2.4989 H   0  0  0  0  0  0  0  0  0  0  0  0
    3.7218    9.3864   -3.4272 H   0  0  0  0  0  0  0  0  0  0  0  0
    6.5110    9.1704   -4.6959 H   0  0  0  0  0  0  0  0  0  0  0  0
    5.7768   10.7364   -4.3983 H   0  0  0  0  0  0  0  0  0  0  0  0
    5.5575    9.6808   -6.7767 H   0  0  0  0  0  0  0  0  0  0  0  0
    4.1717   10.5139   -6.0919 H   0  0  0  0  0  0  0  0  0  0  0  0
    3.7304    8.2842   -7.2741 H   0  0  0  0  0  0  0  0  0  0  0  0
    2.9295    8.5353   -5.7289 H   0  0  0  0  0  0  0  0  0  0  0  0
    5.5463    6.9518   -5.8452 H   0  0  0  0  0  0  0  0  0  0  0  0
    3.9885    6.2502   -6.2851 H   0  0  0  0  0  0  0  0  0  0  0  0
    2.6018    4.3705   -0.1580 H   0  0  0  0  0  0  0  0  0  0  0  0
    0.3896    5.0084    0.8042 H   0  0  0  0  0  0  0  0  0  0  0  0
  1  2  1  0
  1 20  1  0
  1 21  1  0
  1 22  1  0
  2  3  1  0
  2 23  1  0
  2 24  1  0
  3  4  2  0
  3 19  1  0
  4  5  1  0
  4 25  1  0
  5  6  2  0
  5 26  1  0
  6  7  1  0
  6 18  1  0
  7  8  2  0
  7  9  1  0
  9 10  1  0
  9 11  1  0
  9 27  1  1
 10 28  1  0
 10 29  1  0
 10 30  1  0
 11 12  1  0
 11 17  1  0
 12 13  1  0
 12 31  1  0
 12 32  1  0
 13 14  1  0
 13 33  1  0
 13 34  1  0
 14 15  1  0
 14 35  1  0
 14 36  1  0
 15 16  1  0
 15 37  1  0
 15 38  1  0
 16 17  1  0
 16 39  1  0
 16 40  1  0
 17 41  1  0
 17 42  1  0
 18 19  2  0
 18 43  1  0
 19 44  1  0
M  END

