
     RDKit          3D

 49 52  0  0  0  0  0  0  0  0999 V2000
    1.3744    0.4579    1.0847 O   0  0  0  0  0  0  0  0  0  0  0  0
    2.5278    0.5166    0.6804 C   0  0  0  0  0  0  0  0  0  0  0  0
    3.4068    1.7129    0.8911 C   0  0  1  0  0  0  0  0  0  0  0  0
    2.7312    3.0728    0.8698 C   0  0  0  0  0  0  0  0  0  0  0  0
    3.1947    2.5042    2.1691 C   0  0  0  0  0  0  0  0  0  0  0  0
    3.0888   -0.5313    0.0126 N   0  0  0  0  0  0  0  0  0  0  0  0
    4.3268   -0.7542   -0.7296 C   0  0  0  0  0  0  0  0  0  0  0  0
    3.7723   -2.1575   -1.1437 C   0  0  2  0  0  0  0  0  0  0  0  0
    3.7017   -2.4617   -2.5949 C   0  0  0  0  0  0  0  0  0  0  0  0
    4.1206   -3.5199   -3.2218 N   0  0  0  0  0  0  0  0  0  0  0  0
    3.7849   -3.2492   -4.5317 C   0  0  0  0  0  0  0  0  0  0  0  0
    4.0696   -4.1908   -5.6560 C   0  0  0  0  0  0  0  0  0  0  0  0
    3.5867   -3.7046   -7.0157 C   0  0  0  0  0  0  0  0  0  0  0  0
    3.9363   -4.6788   -7.9682 O   0  0  0  0  0  0  0  0  0  0  0  0
    3.5441   -4.3694   -9.2867 C   0  0  0  0  0  0  0  0  0  0  0  0
    3.9894   -5.4979  -10.2209 C   0  0  1  0  0  0  0  0  0  0  0  0
    3.3768   -6.8642   -9.8478 C   0  0  0  0  0  0  0  0  0  0  0  0
    1.9235   -6.9871  -10.3077 C   0  0  0  0  0  0  0  0  0  0  0  0
    1.7844   -6.7264  -11.6923 O   0  0  0  0  0  0  0  0  0  0  0  0
    2.2013   -5.4228  -12.0421 C   0  0  0  0  0  0  0  0  0  0  0  0
    3.6753   -5.1848  -11.6985 C   0  0  0  0  0  0  0  0  0  0  0  0
    3.1959   -2.0917   -4.7000 N   0  0  0  0  0  0  0  0  0  0  0  0
    3.1366   -1.5615   -3.4146 O   0  0  0  0  0  0  0  0  0  0  0  0
    2.4410   -1.7617   -0.4195 C   0  0  0  0  0  0  0  0  0  0  0  0
    4.4266    1.6545    0.5019 H   0  0  0  0  0  0  0  0  0  0  0  0
    1.6558    3.0656    0.6741 H   0  0  0  0  0  0  0  0  0  0  0  0
    3.2873    3.9019    0.4239 H   0  0  0  0  0  0  0  0  0  0  0  0
    2.4308    2.1139    2.8466 H   0  0  0  0  0  0  0  0  0  0  0  0
    4.0808    2.9289    2.6487 H   0  0  0  0  0  0  0  0  0  0  0  0
    5.2424   -0.7842   -0.1156 H   0  0  0  0  0  0  0  0  0  0  0  0
    4.4792   -0.0628   -1.5759 H   0  0  0  0  0  0  0  0  0  0  0  0
    4.2964   -2.9890   -0.6580 H   0  0  0  0  0  0  0  0  0  0  0  0
    3.6090   -5.1654   -5.4229 H   0  0  0  0  0  0  0  0  0  0  0  0
    5.1563   -4.3763   -5.6947 H   0  0  0  0  0  0  0  0  0  0  0  0
    4.0473   -2.7262   -7.2596 H   0  0  0  0  0  0  0  0  0  0  0  0
    2.4907   -3.5380   -6.9982 H   0  0  0  0  0  0  0  0  0  0  0  0
    4.0118   -3.4165   -9.6126 H   0  0  0  0  0  0  0  0  0  0  0  0
    2.4467   -4.2112   -9.3286 H   0  0  0  0  0  0  0  0  0  0  0  0
    5.0841   -5.5681  -10.1006 H   0  0  0  0  0  0  0  0  0  0  0  0
    3.4487   -7.0245   -8.7608 H   0  0  0  0  0  0  0  0  0  0  0  0
    3.9620   -7.6610  -10.3377 H   0  0  0  0  0  0  0  0  0  0  0  0
    1.2704   -6.3013   -9.7265 H   0  0  0  0  0  0  0  0  0  0  0  0
    1.5476   -8.0086  -10.1425 H   0  0  0  0  0  0  0  0  0  0  0  0
    1.5570   -4.6695  -11.5396 H   0  0  0  0  0  0  0  0  0  0  0  0
    2.0349   -5.3190  -13.1257 H   0  0  0  0  0  0  0  0  0  0  0  0
    3.9562   -4.1476  -11.9528 H   0  0  0  0  0  0  0  0  0  0  0  0
    4.2859   -5.8460  -12.3361 H   0  0  0  0  0  0  0  0  0  0  0  0
    2.1343   -2.4314    0.3998 H   0  0  0  0  0  0  0  0  0  0  0  0
    1.5798   -1.5962   -1.0880 H   0  0  0  0  0  0  0  0  0  0  0  0
  1  2  2  0
  2  3  1  0
  2  6  1  0
  3  4  1  0
  3  5  1  0
  3 25  1  6
  4  5  1  0
  4 26  1  0
  4 27  1  0
  5 28  1  0
  5 29  1  0
  6  7  1  0
  6 24  1  0
  7  8  1  0
  7 30  1  0
  7 31  1  0
  8  9  1  0
  8 24  1  0
  8 32  1  1
  9 10  2  0
  9 23  1  0
 10 11  1  0
 11 12  1  0
 11 22  2  0
 12 13  1  0
 12 33  1  0
 12 34  1  0
 13 14  1  0
 13 35  1  0
 13 36  1  0
 14 15  1  0
 15 16  1  0
 15 37  1  0
 15 38  1  0
 16 17  1  0
 16 21  1  0
 16 39  1  6
 17 18  1  0
 17 40  1  0
 17 41  1  0
 18 19  1  0
 18 42  1  0
 18 43  1  0
 19 20  1  0
 20 21  1  0
 20 44  1  0
 20 45  1  0
 21 46  1  0
 21 47  1  0
 22 23  1  0
 24 48  1  0
 24 49  1  0
M  END

