
     RDKit          3D

 38 39  0  0  0  0  0  0  0  0999 V2000
    4.6616    2.5822   -0.8000 C   0  0  0  0  0  0  0  0  0  0  0  0
    4.2668    1.2704   -0.1639 C   0  0  0  0  0  0  0  0  0  0  0  0
    3.2808    1.2071    0.8299 C   0  0  0  0  0  0  0  0  0  0  0  0
    2.9187   -0.0206    1.3951 C   0  0  0  0  0  0  0  0  0  0  0  0
    3.5391   -1.2005    0.9828 C   0  0  0  0  0  0  0  0  0  0  0  0
    4.5405   -1.1646   -0.0035 C   0  0  0  0  0  0  0  0  0  0  0  0
    5.2611   -2.4458   -0.4276 C   0  0  1  0  0  0  0  0  0  0  0  0
    6.4249   -2.7958    0.5490 C   0  0  1  0  0  0  0  0  0  0  0  0
    7.5182   -1.7150    0.5466 C   0  0  0  0  0  0  0  0  0  0  0  0
    5.9243   -3.1197    1.8843 N   0  0  0  0  0  0  0  0  0  0  0  0
    4.2927   -3.5378   -0.6034 N   0  0  0  0  0  0  0  0  0  0  0  0
    3.3964   -3.3008   -1.7174 C   0  0  0  0  0  0  0  0  0  0  0  0
    4.8007   -4.8792   -0.4500 C   0  0  1  0  0  0  0  0  0  0  0  0
    4.2380   -6.0659   -1.1790 C   0  0  0  0  0  0  0  0  0  0  0  0
    5.6415   -5.6015   -1.4954 C   0  0  0  0  0  0  0  0  0  0  0  0
    4.8818    0.0719   -0.5655 C   0  0  0  0  0  0  0  0  0  0  0  0
    4.0839    3.4225   -0.3874 H   0  0  0  0  0  0  0  0  0  0  0  0
    4.4974    2.5648   -1.8906 H   0  0  0  0  0  0  0  0  0  0  0  0
    5.7313    2.8001   -0.6415 H   0  0  0  0  0  0  0  0  0  0  0  0
    2.7844    2.1251    1.1575 H   0  0  0  0  0  0  0  0  0  0  0  0
    2.1390   -0.0552    2.1611 H   0  0  0  0  0  0  0  0  0  0  0  0
    3.2455   -2.1672    1.3966 H   0  0  0  0  0  0  0  0  0  0  0  0
    5.7670   -2.2281   -1.3964 H   0  0  0  0  0  0  0  0  0  0  0  0
    6.8855   -3.7137    0.1508 H   0  0  0  0  0  0  0  0  0  0  0  0
    7.1478   -0.7598    0.9511 H   0  0  0  0  0  0  0  0  0  0  0  0
    7.9119   -1.5255   -0.4660 H   0  0  0  0  0  0  0  0  0  0  0  0
    8.3634   -2.0415    1.1746 H   0  0  0  0  0  0  0  0  0  0  0  0
    5.5129   -2.2919    2.3182 H   0  0  0  0  0  0  0  0  0  0  0  0
    6.6987   -3.4039    2.4848 H   0  0  0  0  0  0  0  0  0  0  0  0
    3.0039   -2.2755   -1.6616 H   0  0  0  0  0  0  0  0  0  0  0  0
    2.5344   -3.9815   -1.6753 H   0  0  0  0  0  0  0  0  0  0  0  0
    3.8758   -3.4099   -2.7183 H   0  0  0  0  0  0  0  0  0  0  0  0
    5.0845   -5.0712    0.5885 H   0  0  0  0  0  0  0  0  0  0  0  0
    3.4793   -5.9218   -1.9511 H   0  0  0  0  0  0  0  0  0  0  0  0
    4.1051   -6.9877   -0.6052 H   0  0  0  0  0  0  0  0  0  0  0  0
    5.7900   -5.1115   -2.4628 H   0  0  0  0  0  0  0  0  0  0  0  0
    6.4930   -6.2029   -1.1623 H   0  0  0  0  0  0  0  0  0  0  0  0
    5.6461    0.1055   -1.3491 H   0  0  0  0  0  0  0  0  0  0  0  0
  1  2  1  0
  1 17  1  0
  1 18  1  0
  1 19  1  0
  2  3  2  0
  2 16  1  0
  3  4  1  0
  3 20  1  0
  4  5  2  0
  4 21  1  0
  5  6  1  0
  5 22  1  0
  6  7  1  0
  6 16  2  0
  7  8  1  0
  7 11  1  0
  7 23  1  6
  8  9  1  0
  8 10  1  0
  8 24  1  6
  9 25  1  0
  9 26  1  0
  9 27  1  0
 10 28  1  0
 10 29  1  0
 11 12  1  0
 11 13  1  0
 12 30  1  0
 12 31  1  0
 12 32  1  0
 13 14  1  0
 13 15  1  0
 13 33  1  1
 14 15  1  0
 14 34  1  0
 14 35  1  0
 15 36  1  0
 15 37  1  0
 16 38  1  0
M  END

