
     RDKit          3D

 46 47  0  0  0  0  0  0  0  0999 V2000
    7.7161   -3.3079   -4.6965 C   0  0  0  0  0  0  0  0  0  0  0  0
    6.8195   -4.0369   -3.7402 C   0  0  0  0  0  0  0  0  0  0  0  0
    6.3155   -3.5326   -2.6046 C   0  0  0  0  0  0  0  0  0  0  0  0
    5.4334   -4.2802   -1.6441 C   0  0  0  0  0  0  0  0  0  0  0  0
    4.0540   -3.6339   -1.4496 C   0  0  1  0  0  0  0  0  0  0  0  0
    3.3945   -3.4753   -2.7511 N   0  0  0  0  0  0  0  0  0  0  0  0
    2.3436   -2.6580   -2.9716 C   0  0  0  0  0  0  0  0  0  0  0  0
    1.7319   -2.1040   -2.0509 O   0  0  0  0  0  0  0  0  0  0  0  0
    1.9389   -2.4465   -4.4200 C   0  0  1  0  0  0  0  0  0  0  0  0
    0.4912   -2.8446   -4.7364 C   0  0  0  0  0  0  0  0  0  0  0  0
    0.0792   -1.8938   -5.8576 C   0  0  0  0  0  0  0  0  0  0  0  0
   -0.8995   -1.9872   -6.5663 O   0  0  0  0  0  0  0  0  0  0  0  0
    1.0067   -0.8722   -5.8957 N   0  0  0  0  0  0  0  0  0  0  0  0
    0.7627    0.3417   -6.6453 C   0  0  0  0  0  0  0  0  0  0  0  0
    1.9875   -0.9387   -4.8177 C   0  0  2  0  0  0  0  0  0  0  0  0
    3.3764   -0.4580   -5.1979 C   0  0  0  0  0  0  0  0  0  0  0  0
    4.0617    0.4432   -4.3725 C   0  0  0  0  0  0  0  0  0  0  0  0
    5.3613    0.8508   -4.6913 C   0  0  0  0  0  0  0  0  0  0  0  0
    5.9969    0.3639   -5.8344 C   0  0  0  0  0  0  0  0  0  0  0  0
    5.3087   -0.5353   -6.6564 C   0  0  0  0  0  0  0  0  0  0  0  0
    6.0987   -1.1772   -8.0806 Cl  0  0  0  0  0  0  0  0  0  0  0  0
    4.0087   -0.9415   -6.3542 C   0  0  0  0  0  0  0  0  0  0  0  0
    3.1963   -4.4521   -0.4444 C   0  0  0  0  0  0  0  0  0  0  0  0
    3.6114   -5.4514    0.0830 O   0  0  0  0  0  0  0  0  0  0  0  0
    1.9941   -3.9496   -0.1829 O   0  0  0  0  0  0  0  0  0  0  0  0
    8.6779   -3.8365   -4.8162 H   0  0  0  0  0  0  0  0  0  0  0  0
    7.9283   -2.2834   -4.3546 H   0  0  0  0  0  0  0  0  0  0  0  0
    7.2690   -3.2426   -5.7037 H   0  0  0  0  0  0  0  0  0  0  0  0
    6.5831   -5.0796   -3.9964 H   0  0  0  0  0  0  0  0  0  0  0  0
    6.5547   -2.4937   -2.3375 H   0  0  0  0  0  0  0  0  0  0  0  0
    5.8998   -4.3372   -0.6477 H   0  0  0  0  0  0  0  0  0  0  0  0
    5.2938   -5.3247   -1.9663 H   0  0  0  0  0  0  0  0  0  0  0  0
    4.1671   -2.6234   -1.0124 H   0  0  0  0  0  0  0  0  0  0  0  0
    3.9012   -3.8344   -3.5543 H   0  0  0  0  0  0  0  0  0  0  0  0
    2.6212   -2.9970   -5.0857 H   0  0  0  0  0  0  0  0  0  0  0  0
   -0.1663   -2.6514   -3.8721 H   0  0  0  0  0  0  0  0  0  0  0  0
    0.3615   -3.8934   -5.0363 H   0  0  0  0  0  0  0  0  0  0  0  0
   -0.0881    0.1513   -7.3133 H   0  0  0  0  0  0  0  0  0  0  0  0
    1.6408    0.6276   -7.2449 H   0  0  0  0  0  0  0  0  0  0  0  0
    0.5100    1.1839   -5.9753 H   0  0  0  0  0  0  0  0  0  0  0  0
    1.6430   -0.3420   -3.9514 H   0  0  0  0  0  0  0  0  0  0  0  0
    3.5736    0.8297   -3.4741 H   0  0  0  0  0  0  0  0  0  0  0  0
    5.8857    1.5573   -4.0432 H   0  0  0  0  0  0  0  0  0  0  0  0
    7.0108    0.6726   -6.0938 H   0  0  0  0  0  0  0  0  0  0  0  0
    3.4903   -1.6329   -7.0219 H   0  0  0  0  0  0  0  0  0  0  0  0
    1.8194   -3.1383   -0.7296 H   0  0  0  0  0  0  0  0  0  0  0  0
  1  2  1  0
  1 26  1  0
  1 27  1  0
  1 28  1  0
  2  3  2  0
  2 29  1  0
  3  4  1  0
  3 30  1  0
  4  5  1  0
  4 31  1  0
  4 32  1  0
  5  6  1  0
  5 23  1  0
  5 33  1  1
  6  7  1  0
  6 34  1  0
  7  8  2  0
  7  9  1  0
  9 10  1  0
  9 15  1  0
  9 35  1  6
 10 11  1  0
 10 36  1  0
 10 37  1  0
 11 12  2  0
 11 13  1  0
 13 14  1  0
 13 15  1  0
 14 38  1  0
 14 39  1  0
 14 40  1  0
 15 16  1  0
 15 41  1  1
 16 17  2  0
 16 22  1  0
 17 18  1  0
 17 42  1  0
 18 19  2  0
 18 43  1  0
 19 20  1  0
 19 44  1  0
 20 21  1  0
 20 22  2  0
 22 45  1  0
 23 24  2  0
 23 25  1  0
 25 46  1  0
M  END

