
     RDKit          3D

 35 35  0  0  0  0  0  0  0  0999 V2000
   10.2248    7.4269    2.4762 O   0  0  0  0  0  0  0  0  0  0  0  0
   11.5768    6.9826    2.6839 O   0  0  0  0  0  0  0  0  0  0  0  0
   11.9489    6.7554    3.9924 B   0  0  0  0  0  0  0  0  0  0  0  0
   13.2694    6.4481    4.1383 O   0  0  0  0  0  0  0  0  0  0  0  0
   11.0740    6.8199    5.3121 C   0  0  0  0  0  0  0  0  0  0  0  0
    9.5739    6.5836    5.2553 C   0  0  0  0  0  0  0  0  0  0  0  0
    9.2997    5.3368    4.6160 O   0  0  0  0  0  0  0  0  0  0  0  0
    7.9255    5.0022    4.5747 C   0  0  0  0  0  0  0  0  0  0  0  0
    7.6696    3.9485    3.5033 C   0  0  2  0  0  0  0  0  0  0  0  0
    6.5712    3.7743    3.4839 H   0  0  0  0  0  0  0  0  0  0  0  0
    8.3401    2.7643    3.8813 O   0  0  0  0  0  0  0  0  0  0  0  0
    8.0714    1.6484    3.0356 C   0  0  2  0  0  0  0  0  0  0  0  0
    8.6236    0.5176    3.5880 O   0  0  0  0  0  0  0  0  0  0  0  0
    8.5905    1.9636    1.6179 C   0  0  1  0  0  0  0  0  0  0  0  0
    9.6715    2.1711    1.7211 H   0  0  0  0  0  0  0  0  0  0  0  0
    8.4803    0.8693    0.7454 O   0  0  0  0  0  0  0  0  0  0  0  0
    7.9137    3.2390    1.0820 C   0  0  2  0  0  0  0  0  0  0  0  0
    8.3780    3.6112   -0.1879 O   0  0  0  0  0  0  0  0  0  0  0  0
    8.0749    4.3926    2.0864 C   0  0  2  0  0  0  0  0  0  0  0  0
    7.4198    5.2252    1.7689 H   0  0  0  0  0  0  0  0  0  0  0  0
    9.4361    4.8244    2.0162 O   0  0  0  0  0  0  0  0  0  0  0  0
    9.8513    6.6216    2.0487 H   0  0  0  0  0  0  0  0  0  0  0  0
   13.7502    6.4805    3.2992 H   0  0  0  0  0  0  0  0  0  0  0  0
   11.2400    7.8239    5.7474 H   0  0  0  0  0  0  0  0  0  0  0  0
   11.5363    6.1176    6.0267 H   0  0  0  0  0  0  0  0  0  0  0  0
    9.0696    7.3935    4.6999 H   0  0  0  0  0  0  0  0  0  0  0  0
    9.1507    6.5560    6.2783 H   0  0  0  0  0  0  0  0  0  0  0  0
    7.3158    5.8970    4.3408 H   0  0  0  0  0  0  0  0  0  0  0  0
    7.5945    4.6089    5.5544 H   0  0  0  0  0  0  0  0  0  0  0  0
    6.9734    1.4773    3.0059 H   0  0  0  0  0  0  0  0  0  0  0  0
    9.5770    0.5206    3.4208 H   0  0  0  0  0  0  0  0  0  0  0  0
    7.5686    0.8052    0.4303 H   0  0  0  0  0  0  0  0  0  0  0  0
    6.8325    3.0286    0.9666 H   0  0  0  0  0  0  0  0  0  0  0  0
    9.2770    3.9520   -0.0606 H   0  0  0  0  0  0  0  0  0  0  0  0
    9.7669    4.8687    2.9386 H   0  0  0  0  0  0  0  0  0  0  0  0
  1  2  1  0
  1 22  1  0
  2  3  1  0
  3  4  1  0
  3  5  1  0
  4 23  1  0
  5  6  1  0
  5 24  1  0
  5 25  1  0
  6  7  1  0
  6 26  1  0
  6 27  1  0
  7  8  1  0
  8  9  1  0
  8 28  1  0
  8 29  1  0
  9 10  1  6
  9 11  1  0
  9 19  1  0
 11 12  1  0
 12 13  1  0
 12 14  1  0
 12 30  1  6
 13 31  1  0
 14 15  1  1
 14 16  1  0
 14 17  1  0
 16 32  1  0
 17 18  1  0
 17 19  1  0
 17 33  1  6
 18 34  1  0
 19 20  1  6
 19 21  1  0
 21 35  1  0
M  END

