
     RDKit          3D

 37 39  0  0  0  0  0  0  0  0999 V2000
    3.2355    3.6894   -2.1674 O   0  0  0  0  0  0  0  0  0  0  0  0
    2.0547    3.8300   -1.9409 C   0  0  0  0  0  0  0  0  0  0  0  0
    1.4753    3.6220   -0.5337 C   0  0  0  0  0  0  0  0  0  0  0  0
    2.7083    3.1370    0.7139 S   0  0  0  0  0  0  0  0  0  0  0  0
    3.4120    4.7143    0.9736 C   0  0  0  0  0  0  0  0  0  0  0  0
    3.0313    5.8704    0.5246 N   0  0  0  0  0  0  0  0  0  0  0  0
    3.9226    6.7957    1.0510 N   0  0  0  0  0  0  0  0  0  0  0  0
    4.7704    6.1365    1.7687 C   0  0  0  0  0  0  0  0  0  0  0  0
    5.9215    6.6596    2.5631 C   0  0  0  0  0  0  0  0  0  0  0  0
    5.7528    6.4888    3.9907 N   0  0  0  0  0  0  0  0  0  0  0  0
    6.5738    5.6687    4.7221 C   0  0  0  0  0  0  0  0  0  0  0  0
    7.5158    5.0543    4.2477 O   0  0  0  0  0  0  0  0  0  0  0  0
    6.2432    5.5831    6.1611 C   0  0  0  0  0  0  0  0  0  0  0  0
    6.8447    4.8840    7.1743 C   0  0  0  0  0  0  0  0  0  0  0  0
    6.0986    5.1761    8.3584 C   0  0  0  0  0  0  0  0  0  0  0  0
    5.0998    6.0299    7.9768 C   0  0  0  0  0  0  0  0  0  0  0  0
    5.1765    6.2843    6.6487 O   0  0  0  0  0  0  0  0  0  0  0  0
    4.5043    4.7951    1.7681 O   0  0  0  0  0  0  0  0  0  0  0  0
    1.0912    4.2067   -3.0271 C   0  0  0  0  0  0  0  0  0  0  0  0
   -0.2864    4.3891   -2.8160 C   0  0  0  0  0  0  0  0  0  0  0  0
   -1.1316    4.7356   -3.8706 C   0  0  0  0  0  0  0  0  0  0  0  0
   -0.5952    4.9025   -5.1511 C   0  0  0  0  0  0  0  0  0  0  0  0
   -1.6459    5.3350   -6.4735 Cl  0  0  0  0  0  0  0  0  0  0  0  0
    0.7749    4.7278   -5.3850 C   0  0  0  0  0  0  0  0  0  0  0  0
    1.6062    4.3823   -4.3243 C   0  0  0  0  0  0  0  0  0  0  0  0
    0.7335    2.8079   -0.5449 H   0  0  0  0  0  0  0  0  0  0  0  0
    0.9699    4.5382   -0.1955 H   0  0  0  0  0  0  0  0  0  0  0  0
    6.0365    7.7210    2.2938 H   0  0  0  0  0  0  0  0  0  0  0  0
    6.8442    6.1236    2.2937 H   0  0  0  0  0  0  0  0  0  0  0  0
    4.9860    6.9571    4.4603 H   0  0  0  0  0  0  0  0  0  0  0  0
    7.7158    4.2432    7.0637 H   0  0  0  0  0  0  0  0  0  0  0  0
    6.2786    4.8015    9.3638 H   0  0  0  0  0  0  0  0  0  0  0  0
    4.2923    6.5210    8.5139 H   0  0  0  0  0  0  0  0  0  0  0  0
   -0.7218    4.2685   -1.8225 H   0  0  0  0  0  0  0  0  0  0  0  0
   -2.2007    4.8790   -3.7070 H   0  0  0  0  0  0  0  0  0  0  0  0
    1.1747    4.8646   -6.3910 H   0  0  0  0  0  0  0  0  0  0  0  0
    2.6779    4.2415   -4.4769 H   0  0  0  0  0  0  0  0  0  0  0  0
  1  2  2  0
  2  3  1  0
  2 19  1  0
  3  4  1  0
  3 26  1  0
  3 27  1  0
  4  5  1  0
  5  6  2  0
  5 18  1  0
  6  7  1  0
  7  8  2  0
  8  9  1  0
  8 18  1  0
  9 10  1  0
  9 28  1  0
  9 29  1  0
 10 11  1  0
 10 30  1  0
 11 12  2  0
 11 13  1  0
 13 14  2  0
 13 17  1  0
 14 15  1  0
 14 31  1  0
 15 16  2  0
 15 32  1  0
 16 17  1  0
 16 33  1  0
 19 20  2  0
 19 25  1  0
 20 21  1  0
 20 34  1  0
 21 22  2  0
 21 35  1  0
 22 23  1  0
 22 24  1  0
 24 25  2  0
 24 36  1  0
 25 37  1  0
M  END

