
     RDKit          3D

 44 45  0  0  0  0  0  0  0  0999 V2000
    0.5758   -1.1748   -4.7699 C   0  0  0  0  0  0  0  0  0  0  0  0
    2.0908   -1.0992   -4.9578 C   0  0  0  0  0  0  0  0  0  0  0  0
    2.7957   -0.2871   -3.8720 C   0  0  0  0  0  0  0  0  0  0  0  0
    4.2364   -0.2745   -4.0606 N   0  0  0  0  0  0  0  0  0  0  0  0
    4.9775    0.4699   -3.0589 C   0  0  0  0  0  0  0  0  0  0  0  0
    6.4749    0.3935   -3.2694 C   0  0  0  0  0  0  0  0  0  0  0  0
    7.3197    1.4690   -2.9662 C   0  0  0  0  0  0  0  0  0  0  0  0
    8.6966    1.3387   -3.1397 C   0  0  0  0  0  0  0  0  0  0  0  0
    9.2047    0.1240   -3.6222 C   0  0  0  0  0  0  0  0  0  0  0  0
   10.6886   -0.0774   -3.8936 C   0  0  0  0  0  0  0  0  0  0  0  0
   11.5596    0.7084   -3.0320 N   0  0  0  0  0  0  0  0  0  0  0  0
   11.6522    0.2028   -1.6624 C   0  0  0  0  0  0  0  0  0  0  0  0
   12.5557   -1.0249   -1.4834 C   0  0  0  0  0  0  0  0  0  0  0  0
   14.2817   -0.6907   -2.0102 S   0  0  0  0  0  0  0  0  0  0  0  0
   13.8821   -0.0155   -3.6693 C   0  0  0  0  0  0  0  0  0  0  0  0
   12.8397    1.1241   -3.6277 C   0  0  2  0  0  0  0  0  0  0  0  0
   13.3890    2.3954   -2.9712 C   0  0  0  0  0  0  0  0  0  0  0  0
    8.4061   -0.9089   -3.9174 N   0  0  0  0  0  0  0  0  0  0  0  0
    7.0893   -0.7742   -3.7496 C   0  0  0  0  0  0  0  0  0  0  0  0
    0.1014   -1.7625   -5.5714 H   0  0  0  0  0  0  0  0  0  0  0  0
    0.1162   -0.1722   -4.7773 H   0  0  0  0  0  0  0  0  0  0  0  0
    0.3136   -1.6510   -3.8103 H   0  0  0  0  0  0  0  0  0  0  0  0
    2.3181   -0.6533   -5.9443 H   0  0  0  0  0  0  0  0  0  0  0  0
    2.5287   -2.1116   -4.9731 H   0  0  0  0  0  0  0  0  0  0  0  0
    2.5841   -0.7365   -2.8839 H   0  0  0  0  0  0  0  0  0  0  0  0
    2.3562    0.7382   -3.8352 H   0  0  0  0  0  0  0  0  0  0  0  0
    4.4677    0.0733   -4.9916 H   0  0  0  0  0  0  0  0  0  0  0  0
    4.7298    0.0365   -2.0706 H   0  0  0  0  0  0  0  0  0  0  0  0
    4.6786    1.5417   -2.9904 H   0  0  0  0  0  0  0  0  0  0  0  0
    6.8976    2.4095   -2.5972 H   0  0  0  0  0  0  0  0  0  0  0  0
    9.3859    2.1532   -2.9114 H   0  0  0  0  0  0  0  0  0  0  0  0
   10.8784    0.2275   -4.9381 H   0  0  0  0  0  0  0  0  0  0  0  0
   10.8685   -1.1712   -3.8681 H   0  0  0  0  0  0  0  0  0  0  0  0
   10.6327   -0.0456   -1.3220 H   0  0  0  0  0  0  0  0  0  0  0  0
   12.0146    1.0087   -1.0034 H   0  0  0  0  0  0  0  0  0  0  0  0
   12.1681   -1.8954   -2.0382 H   0  0  0  0  0  0  0  0  0  0  0  0
   12.6124   -1.3098   -0.4215 H   0  0  0  0  0  0  0  0  0  0  0  0
   13.5248   -0.8374   -4.3117 H   0  0  0  0  0  0  0  0  0  0  0  0
   14.8369    0.3385   -4.0881 H   0  0  0  0  0  0  0  0  0  0  0  0
   12.6115    1.3744   -4.6786 H   0  0  0  0  0  0  0  0  0  0  0  0
   13.7540    2.2065   -1.9511 H   0  0  0  0  0  0  0  0  0  0  0  0
   12.6074    3.1687   -2.9307 H   0  0  0  0  0  0  0  0  0  0  0  0
   14.2374    2.7876   -3.5545 H   0  0  0  0  0  0  0  0  0  0  0  0
    6.4639   -1.6350   -4.0094 H   0  0  0  0  0  0  0  0  0  0  0  0
  1  2  1  0
  1 20  1  0
  1 21  1  0
  1 22  1  0
  2  3  1  0
  2 23  1  0
  2 24  1  0
  3  4  1  0
  3 25  1  0
  3 26  1  0
  4  5  1  0
  4 27  1  0
  5  6  1  0
  5 28  1  0
  5 29  1  0
  6  7  2  0
  6 19  1  0
  7  8  1  0
  7 30  1  0
  8  9  2  0
  8 31  1  0
  9 10  1  0
  9 18  1  0
 10 11  1  0
 10 32  1  0
 10 33  1  0
 11 12  1  0
 11 16  1  0
 12 13  1  0
 12 34  1  0
 12 35  1  0
 13 14  1  0
 13 36  1  0
 13 37  1  0
 14 15  1  0
 15 16  1  0
 15 38  1  0
 15 39  1  0
 16 17  1  0
 16 40  1  6
 17 41  1  0
 17 42  1  0
 17 43  1  0
 18 19  2  0
 19 44  1  0
M  END

