
     RDKit          3D

 69 71  0  0  0  0  0  0  0  0999 V2000
    2.0962    0.6573   -2.6236 C   0  0  0  0  0  0  0  0  0  0  0  0
    2.0178   -0.0546   -1.2710 C   0  0  0  0  0  0  0  0  0  0  0  0
    2.8046    0.6565   -0.1512 C   0  0  1  0  0  0  0  0  0  0  0  0
    2.4660    2.1608   -0.0314 C   0  0  0  0  0  0  0  0  0  0  0  0
    3.2968    2.9860   -0.3854 O   0  0  0  0  0  0  0  0  0  0  0  0
    1.2341    2.5513    0.4454 N   0  0  0  0  0  0  0  0  0  0  0  0
    0.9426    3.9740    0.5664 C   0  0  0  0  0  0  0  0  0  0  0  0
   -0.4103    4.3191   -0.0611 C   0  0  0  0  0  0  0  0  0  0  0  0
   -1.4637    3.4607    0.4607 N   0  0  0  0  0  0  0  0  0  0  0  0
   -2.7635    3.8918    0.6465 C   0  0  0  0  0  0  0  0  0  0  0  0
   -3.1667    5.2403    0.4379 C   0  0  0  0  0  0  0  0  0  0  0  0
   -4.4779    5.5932    0.7040 C   0  0  0  0  0  0  0  0  0  0  0  0
   -5.3957    4.6360    1.1733 C   0  0  0  0  0  0  0  0  0  0  0  0
   -6.8093    5.0657    1.4314 C   0  0  0  0  0  0  0  0  0  0  0  0
   -7.2411    6.1204    0.9873 O   0  0  0  0  0  0  0  0  0  0  0  0
   -7.5681    4.2161    2.1941 N   0  0  0  0  0  0  0  0  0  0  0  0
   -8.9604    4.4686    2.5131 C   0  0  0  0  0  0  0  0  0  0  0  0
   -9.8824    3.3173    2.0987 C   0  0  0  0  0  0  0  0  0  0  0  0
  -11.3420    3.5754    2.4479 C   0  0  0  0  0  0  0  0  0  0  0  0
  -11.7753    4.7238    1.7596 O   0  0  0  0  0  0  0  0  0  0  0  0
  -13.1439    5.0798    1.9162 C   0  0  1  0  0  0  0  0  0  0  0  0
  -13.4006    5.7714    3.2574 C   0  0  0  0  0  0  0  0  0  0  0  0
  -13.5036    5.9659    0.7297 C   0  0  0  0  0  0  0  0  0  0  0  0
   -4.9094    3.3291    1.2965 C   0  0  0  0  0  0  0  0  0  0  0  0
   -3.6552    2.9679    1.0458 N   0  0  0  0  0  0  0  0  0  0  0  0
   -1.1659    2.0339    0.3829 C   0  0  0  0  0  0  0  0  0  0  0  0
    0.1876    1.7138    1.0164 C   0  0  0  0  0  0  0  0  0  0  0  0
    2.8430   -0.0551    1.2018 C   0  0  0  0  0  0  0  0  0  0  0  0
    3.5465    0.5474    2.2613 C   0  0  0  0  0  0  0  0  0  0  0  0
    3.6420   -0.0711    3.5087 C   0  0  0  0  0  0  0  0  0  0  0  0
    3.0386   -1.3147    3.7259 C   0  0  0  0  0  0  0  0  0  0  0  0
    2.3434   -1.9280    2.6825 C   0  0  0  0  0  0  0  0  0  0  0  0
    2.2464   -1.3040    1.4329 C   0  0  0  0  0  0  0  0  0  0  0  0
    1.5841    0.0712   -3.4027 H   0  0  0  0  0  0  0  0  0  0  0  0
    3.1413    0.8022   -2.9407 H   0  0  0  0  0  0  0  0  0  0  0  0
    1.6248    1.6522   -2.5918 H   0  0  0  0  0  0  0  0  0  0  0  0
    2.4314   -1.0715   -1.3769 H   0  0  0  0  0  0  0  0  0  0  0  0
    0.9603   -0.1900   -0.9882 H   0  0  0  0  0  0  0  0  0  0  0  0
    3.8490    0.7093   -0.4979 H   0  0  0  0  0  0  0  0  0  0  0  0
    1.7515    4.5286    0.0759 H   0  0  0  0  0  0  0  0  0  0  0  0
    0.9254    4.2550    1.6369 H   0  0  0  0  0  0  0  0  0  0  0  0
   -0.3406    4.2249   -1.1644 H   0  0  0  0  0  0  0  0  0  0  0  0
   -0.6303    5.3687    0.1679 H   0  0  0  0  0  0  0  0  0  0  0  0
   -2.4762    5.9933    0.0619 H   0  0  0  0  0  0  0  0  0  0  0  0
   -4.8312    6.6144    0.5455 H   0  0  0  0  0  0  0  0  0  0  0  0
   -7.1127    3.4282    2.6370 H   0  0  0  0  0  0  0  0  0  0  0  0
   -9.2467    5.3881    1.9873 H   0  0  0  0  0  0  0  0  0  0  0  0
   -9.0742    4.6635    3.5970 H   0  0  0  0  0  0  0  0  0  0  0  0
   -9.5693    2.3799    2.5938 H   0  0  0  0  0  0  0  0  0  0  0  0
   -9.7929    3.1543    1.0118 H   0  0  0  0  0  0  0  0  0  0  0  0
  -11.4477    3.6982    3.5464 H   0  0  0  0  0  0  0  0  0  0  0  0
  -11.9596    2.6971    2.1652 H   0  0  0  0  0  0  0  0  0  0  0  0
  -13.7571    4.1544    1.8704 H   0  0  0  0  0  0  0  0  0  0  0  0
  -12.7997    6.6921    3.3312 H   0  0  0  0  0  0  0  0  0  0  0  0
  -13.1422    5.1238    4.1096 H   0  0  0  0  0  0  0  0  0  0  0  0
  -14.4639    6.0415    3.3583 H   0  0  0  0  0  0  0  0  0  0  0  0
  -12.8877    6.8793    0.7375 H   0  0  0  0  0  0  0  0  0  0  0  0
  -14.5642    6.2596    0.7642 H   0  0  0  0  0  0  0  0  0  0  0  0
  -13.3141    5.4361   -0.2158 H   0  0  0  0  0  0  0  0  0  0  0  0
   -5.5784    2.5093    1.5890 H   0  0  0  0  0  0  0  0  0  0  0  0
   -1.1538    1.7109   -0.6788 H   0  0  0  0  0  0  0  0  0  0  0  0
   -1.9697    1.4902    0.8913 H   0  0  0  0  0  0  0  0  0  0  0  0
    0.4173    0.6543    0.8760 H   0  0  0  0  0  0  0  0  0  0  0  0
    0.1321    1.8928    2.1071 H   0  0  0  0  0  0  0  0  0  0  0  0
    4.0327    1.5136    2.0986 H   0  0  0  0  0  0  0  0  0  0  0  0
    4.1950    0.4183    4.3148 H   0  0  0  0  0  0  0  0  0  0  0  0
    3.1136   -1.8020    4.7013 H   0  0  0  0  0  0  0  0  0  0  0  0
    1.8708   -2.9018    2.8366 H   0  0  0  0  0  0  0  0  0  0  0  0
    1.6968   -1.8081    0.6360 H   0  0  0  0  0  0  0  0  0  0  0  0
  1  2  1  0
  1 34  1  0
  1 35  1  0
  1 36  1  0
  2  3  1  0
  2 37  1  0
  2 38  1  0
  3  4  1  0
  3 28  1  0
  3 39  1  6
  4  5  2  0
  4  6  1  0
  6  7  1  0
  6 27  1  0
  7  8  1  0
  7 40  1  0
  7 41  1  0
  8  9  1  0
  8 42  1  0
  8 43  1  0
  9 10  1  0
  9 26  1  0
 10 11  2  0
 10 25  1  0
 11 12  1  0
 11 44  1  0
 12 13  2  0
 12 45  1  0
 13 14  1  0
 13 24  1  0
 14 15  2  0
 14 16  1  0
 16 17  1  0
 16 46  1  0
 17 18  1  0
 17 47  1  0
 17 48  1  0
 18 19  1  0
 18 49  1  0
 18 50  1  0
 19 20  1  0
 19 51  1  0
 19 52  1  0
 20 21  1  0
 21 22  1  0
 21 23  1  0
 21 53  1  1
 22 54  1  0
 22 55  1  0
 22 56  1  0
 23 57  1  0
 23 58  1  0
 23 59  1  0
 24 25  2  0
 24 60  1  0
 26 27  1  0
 26 61  1  0
 26 62  1  0
 27 63  1  0
 27 64  1  0
 28 29  2  0
 28 33  1  0
 29 30  1  0
 29 65  1  0
 30 31  2  0
 30 66  1  0
 31 32  1  0
 31 67  1  0
 32 33  2  0
 32 68  1  0
 33 69  1  0
M  END

