
     RDKit          3D

 23 24  0  0  0  0  0  0  0  0999 V2000
    0.9360   -0.0610    0.1822 C   0  0  0  0  0  0  0  0  0  0  0  0
    2.4303   -0.0375   -0.0269 C   0  0  0  0  0  0  0  0  0  0  0  0
    3.1439    1.1627   -0.1383 C   0  0  0  0  0  0  0  0  0  0  0  0
    4.5251    1.1835   -0.3382 C   0  0  0  0  0  0  0  0  0  0  0  0
    5.2538   -0.0128   -0.4344 C   0  0  0  0  0  0  0  0  0  0  0  0
    6.6591   -0.0017   -0.6369 N   0  0  0  0  0  0  0  0  0  0  0  0
    7.4573    1.1249   -0.7585 C   0  0  0  0  0  0  0  0  0  0  0  0
    8.7625    0.7291   -0.9455 C   0  0  0  0  0  0  0  0  0  0  0  0
    8.7743   -0.6983   -0.9440 C   0  0  0  0  0  0  0  0  0  0  0  0
    7.4758   -1.1152   -0.7563 C   0  0  0  0  0  0  0  0  0  0  0  0
    4.5471   -1.2240   -0.3241 C   0  0  0  0  0  0  0  0  0  0  0  0
    3.1683   -1.2275   -0.1247 C   0  0  0  0  0  0  0  0  0  0  0  0
    0.5319    0.9535    0.3163 H   0  0  0  0  0  0  0  0  0  0  0  0
    0.6622   -0.6534    1.0714 H   0  0  0  0  0  0  0  0  0  0  0  0
    0.4163   -0.5166   -0.6784 H   0  0  0  0  0  0  0  0  0  0  0  0
    2.6097    2.1149   -0.0675 H   0  0  0  0  0  0  0  0  0  0  0  0
    5.0272    2.1470   -0.4182 H   0  0  0  0  0  0  0  0  0  0  0  0
    7.0418    2.1249   -0.6993 H   0  0  0  0  0  0  0  0  0  0  0  0
    9.6153    1.3945   -1.0694 H   0  0  0  0  0  0  0  0  0  0  0  0
    9.6379   -1.3498   -1.0669 H   0  0  0  0  0  0  0  0  0  0  0  0
    7.0770   -2.1219   -0.6961 H   0  0  0  0  0  0  0  0  0  0  0  0
    5.0686   -2.1780   -0.3922 H   0  0  0  0  0  0  0  0  0  0  0  0
    2.6531   -2.1895   -0.0427 H   0  0  0  0  0  0  0  0  0  0  0  0
  1  2  1  0
  1 13  1  0
  1 14  1  0
  1 15  1  0
  2  3  2  0
  2 12  1  0
  3  4  1  0
  3 16  1  0
  4  5  2  0
  4 17  1  0
  5  6  1  0
  5 11  1  0
  6  7  1  0
  6 10  1  0
  7  8  2  0
  7 18  1  0
  8  9  1  0
  8 19  1  0
  9 10  2  0
  9 20  1  0
 10 21  1  0
 11 12  2  0
 11 22  1  0
 12 23  1  0
M  END

