
     RDKit          3D

 60 62  0  0  0  0  0  0  0  0999 V2000
    1.5939    0.0577   -6.7591 C   0  0  0  0  0  0  0  0  0  0  0  0
    2.6239   -0.1721   -5.6522 C   0  0  0  0  0  0  0  0  0  0  0  0
    3.8243    0.7778   -5.7237 C   0  0  0  0  0  0  0  0  0  0  0  0
    4.8590    0.5426   -4.6177 C   0  0  0  0  0  0  0  0  0  0  0  0
    6.1180    1.4308   -4.7018 C   0  0  1  0  0  0  0  0  0  0  0  0
    5.8526    2.9297   -4.4412 C   0  0  0  0  0  0  0  0  0  0  0  0
    5.5885    3.2528   -2.9599 C   0  0  0  0  0  0  0  0  0  0  0  0
    6.6795    2.7392   -1.9955 C   0  0  2  0  0  0  0  0  0  0  0  0
    7.9700    3.5644   -1.9535 C   0  0  0  0  0  0  0  0  0  0  0  0
    8.1892    4.7192   -2.7196 C   0  0  0  0  0  0  0  0  0  0  0  0
    9.3720    5.4576   -2.6092 C   0  0  0  0  0  0  0  0  0  0  0  0
   10.3944    5.0773   -1.7262 C   0  0  0  0  0  0  0  0  0  0  0  0
   11.6329    5.9025   -1.6007 C   0  0  0  0  0  0  0  0  0  0  0  0
   11.4904    7.2700   -1.2916 C   0  0  0  0  0  0  0  0  0  0  0  0
   12.5915    8.1118   -1.1573 C   0  0  0  0  0  0  0  0  0  0  0  0
   13.8864    7.6110   -1.3478 C   0  0  0  0  0  0  0  0  0  0  0  0
   15.0991    8.5179   -1.2546 C   0  0  0  0  0  0  0  0  0  0  0  0
   16.2902    7.8528   -0.8950 O   0  0  0  0  0  0  0  0  0  0  0  0
   14.0317    6.2579   -1.6672 C   0  0  0  0  0  0  0  0  0  0  0  0
   12.9371    5.3861   -1.7963 C   0  0  0  0  0  0  0  0  0  0  0  0
   13.2162    3.9431   -2.1778 C   0  0  0  0  0  0  0  0  0  0  0  0
   13.8282    3.1013   -1.0477 C   0  0  0  0  0  0  0  0  0  0  0  0
   10.1705    3.9311   -0.9416 C   0  0  0  0  0  0  0  0  0  0  0  0
    8.9900    3.1989   -1.0547 C   0  0  0  0  0  0  0  0  0  0  0  0
    6.9341    1.2361   -2.2780 C   0  0  0  0  0  0  0  0  0  0  0  0
    7.2383    0.9528   -3.7546 C   0  0  0  0  0  0  0  0  0  0  0  0
    0.7469   -0.6422   -6.6772 H   0  0  0  0  0  0  0  0  0  0  0  0
    2.0418   -0.0780   -7.7580 H   0  0  0  0  0  0  0  0  0  0  0  0
    1.1842    1.0812   -6.7200 H   0  0  0  0  0  0  0  0  0  0  0  0
    2.9843   -1.2163   -5.6947 H   0  0  0  0  0  0  0  0  0  0  0  0
    2.1355   -0.0657   -4.6662 H   0  0  0  0  0  0  0  0  0  0  0  0
    3.4568    1.8190   -5.6850 H   0  0  0  0  0  0  0  0  0  0  0  0
    4.3145    0.6702   -6.7096 H   0  0  0  0  0  0  0  0  0  0  0  0
    5.1816   -0.5140   -4.6608 H   0  0  0  0  0  0  0  0  0  0  0  0
    4.3657    0.6584   -3.6362 H   0  0  0  0  0  0  0  0  0  0  0  0
    6.4973    1.3372   -5.7360 H   0  0  0  0  0  0  0  0  0  0  0  0
    5.0054    3.2862   -5.0500 H   0  0  0  0  0  0  0  0  0  0  0  0
    6.7317    3.4940   -4.7929 H   0  0  0  0  0  0  0  0  0  0  0  0
    4.6346    2.7883   -2.6567 H   0  0  0  0  0  0  0  0  0  0  0  0
    5.4382    4.3370   -2.8298 H   0  0  0  0  0  0  0  0  0  0  0  0
    6.2623    2.8042   -0.9738 H   0  0  0  0  0  0  0  0  0  0  0  0
    7.4302    5.0670   -3.4211 H   0  0  0  0  0  0  0  0  0  0  0  0
    9.5084    6.3440   -3.2342 H   0  0  0  0  0  0  0  0  0  0  0  0
   10.4856    7.6687   -1.1303 H   0  0  0  0  0  0  0  0  0  0  0  0
   12.4427    9.1643   -0.8973 H   0  0  0  0  0  0  0  0  0  0  0  0
   14.8726    9.3612   -0.5706 H   0  0  0  0  0  0  0  0  0  0  0  0
   15.2992    8.9694   -2.2425 H   0  0  0  0  0  0  0  0  0  0  0  0
   16.1414    7.4202   -0.0429 H   0  0  0  0  0  0  0  0  0  0  0  0
   15.0425    5.8736   -1.8306 H   0  0  0  0  0  0  0  0  0  0  0  0
   13.9167    3.9428   -3.0309 H   0  0  0  0  0  0  0  0  0  0  0  0
   12.2954    3.4617   -2.5373 H   0  0  0  0  0  0  0  0  0  0  0  0
   14.7785    3.5332   -0.6949 H   0  0  0  0  0  0  0  0  0  0  0  0
   14.0341    2.0743   -1.3904 H   0  0  0  0  0  0  0  0  0  0  0  0
   13.1549    3.0372   -0.1782 H   0  0  0  0  0  0  0  0  0  0  0  0
   10.9227    3.6227   -0.2121 H   0  0  0  0  0  0  0  0  0  0  0  0
    8.8516    2.3277   -0.4083 H   0  0  0  0  0  0  0  0  0  0  0  0
    6.0378    0.6712   -1.9689 H   0  0  0  0  0  0  0  0  0  0  0  0
    7.7560    0.8604   -1.6487 H   0  0  0  0  0  0  0  0  0  0  0  0
    7.4176   -0.1267   -3.8978 H   0  0  0  0  0  0  0  0  0  0  0  0
    8.1790    1.4617   -4.0299 H   0  0  0  0  0  0  0  0  0  0  0  0
  1  2  1  0
  1 27  1  0
  1 28  1  0
  1 29  1  0
  2  3  1  0
  2 30  1  0
  2 31  1  0
  3  4  1  0
  3 32  1  0
  3 33  1  0
  4  5  1  0
  4 34  1  0
  4 35  1  0
  5  6  1  0
  5 26  1  0
  5 36  1  6
  6  7  1  0
  6 37  1  0
  6 38  1  0
  7  8  1  0
  7 39  1  0
  7 40  1  0
  8  9  1  0
  8 25  1  0
  8 41  1  1
  9 10  2  0
  9 24  1  0
 10 11  1  0
 10 42  1  0
 11 12  2  0
 11 43  1  0
 12 13  1  0
 12 23  1  0
 13 14  2  0
 13 20  1  0
 14 15  1  0
 14 44  1  0
 15 16  2  0
 15 45  1  0
 16 17  1  0
 16 19  1  0
 17 18  1  0
 17 46  1  0
 17 47  1  0
 18 48  1  0
 19 20  2  0
 19 49  1  0
 20 21  1  0
 21 22  1  0
 21 50  1  0
 21 51  1  0
 22 52  1  0
 22 53  1  0
 22 54  1  0
 23 24  2  0
 23 55  1  0
 24 56  1  0
 25 26  1  0
 25 57  1  0
 25 58  1  0
 26 59  1  0
 26 60  1  0
M  END

