
     RDKit          3D

 40 41  0  0  0  0  0  0  0  0999 V2000
    1.9972    0.5868    2.4129 C   0  0  0  0  0  0  0  0  0  0  0  0
    3.1334    0.4483    1.4263 C   0  0  0  0  0  0  0  0  0  0  0  0
    3.7978    1.5743    0.9261 C   0  0  0  0  0  0  0  0  0  0  0  0
    4.8484    1.4112    0.0130 C   0  0  0  0  0  0  0  0  0  0  0  0
    5.2441    0.1472   -0.4060 C   0  0  0  0  0  0  0  0  0  0  0  0
    4.5888   -1.0081    0.0847 C   0  0  0  0  0  0  0  0  0  0  0  0
    5.0006   -2.2500   -0.3503 N   0  0  0  0  0  0  0  0  0  0  0  0
    4.5488   -3.5139    0.1616 C   0  0  1  0  0  0  0  0  0  0  0  0
    4.3796   -3.4447    1.2552 H   0  0  0  0  0  0  0  0  0  0  0  0
    3.2459   -4.0070   -0.5066 C   0  0  0  0  0  0  0  0  0  0  0  0
    5.6880   -4.5307   -0.0683 C   0  0  0  0  0  0  0  0  0  0  0  0
    6.6182   -4.3057   -0.8106 O   0  0  0  0  0  0  0  0  0  0  0  0
    5.5154   -5.7082    0.6325 N   0  0  0  0  0  0  0  0  0  0  0  0
    6.3890   -6.7264    0.4915 N   0  0  0  0  0  0  0  0  0  0  0  0
    6.2215   -7.8193    1.1535 C   0  0  0  0  0  0  0  0  0  0  0  0
    5.1968   -8.2135    2.0988 C   0  0  0  0  0  0  0  0  0  0  0  0
    5.0291   -9.3843    2.8025 C   0  0  0  0  0  0  0  0  0  0  0  0
    3.8480   -9.2261    3.5881 C   0  0  0  0  0  0  0  0  0  0  0  0
    3.3583   -7.9733    3.3245 C   0  0  0  0  0  0  0  0  0  0  0  0
    2.1794   -7.2095    3.8097 C   0  0  0  0  0  0  0  0  0  0  0  0
    4.1727   -7.3531    2.4206 O   0  0  0  0  0  0  0  0  0  0  0  0
    3.5317   -0.8298    1.0010 C   0  0  0  0  0  0  0  0  0  0  0  0
    1.7842    1.6422    2.6384 H   0  0  0  0  0  0  0  0  0  0  0  0
    2.2285    0.0805    3.3656 H   0  0  0  0  0  0  0  0  0  0  0  0
    1.0699    0.1321    2.0251 H   0  0  0  0  0  0  0  0  0  0  0  0
    3.4965    2.5750    1.2460 H   0  0  0  0  0  0  0  0  0  0  0  0
    5.3692    2.2902   -0.3771 H   0  0  0  0  0  0  0  0  0  0  0  0
    6.0669    0.0325   -1.1172 H   0  0  0  0  0  0  0  0  0  0  0  0
    5.8522   -2.3146   -0.9011 H   0  0  0  0  0  0  0  0  0  0  0  0
    2.4539   -3.2524   -0.3926 H   0  0  0  0  0  0  0  0  0  0  0  0
    2.8878   -4.9515   -0.0663 H   0  0  0  0  0  0  0  0  0  0  0  0
    3.4135   -4.1645   -1.5830 H   0  0  0  0  0  0  0  0  0  0  0  0
    4.7216   -5.7973    1.2669 H   0  0  0  0  0  0  0  0  0  0  0  0
    6.9824   -8.5874    0.9734 H   0  0  0  0  0  0  0  0  0  0  0  0
    5.6821  -10.2533    2.7564 H   0  0  0  0  0  0  0  0  0  0  0  0
    3.4082   -9.9509    4.2698 H   0  0  0  0  0  0  0  0  0  0  0  0
    1.6088   -7.8153    4.5265 H   0  0  0  0  0  0  0  0  0  0  0  0
    1.5079   -6.9344    2.9787 H   0  0  0  0  0  0  0  0  0  0  0  0
    2.4839   -6.2757    4.3120 H   0  0  0  0  0  0  0  0  0  0  0  0
    2.9985   -1.6982    1.3942 H   0  0  0  0  0  0  0  0  0  0  0  0
  1  2  1  0
  1 23  1  0
  1 24  1  0
  1 25  1  0
  2  3  2  0
  2 22  1  0
  3  4  1  0
  3 26  1  0
  4  5  2  0
  4 27  1  0
  5  6  1  0
  5 28  1  0
  6  7  1  0
  6 22  2  0
  7  8  1  0
  7 29  1  0
  8  9  1  1
  8 10  1  0
  8 11  1  0
 10 30  1  0
 10 31  1  0
 10 32  1  0
 11 12  2  0
 11 13  1  0
 13 14  1  0
 13 33  1  0
 14 15  2  0
 15 16  1  0
 15 34  1  0
 16 17  2  0
 16 21  1  0
 17 18  1  0
 17 35  1  0
 18 19  2  0
 18 36  1  0
 19 20  1  0
 19 21  1  0
 20 37  1  0
 20 38  1  0
 20 39  1  0
 22 40  1  0
M  END

