
     RDKit          3D

 60 64  0  0  0  0  0  0  0  0999 V2000
    6.3018   -2.4559   -0.6267 C   0  0  0  0  0  0  0  0  0  0  0  0
    5.4670   -1.2403   -0.9334 C   0  0  0  0  0  0  0  0  0  0  0  0
    5.9590    0.0637   -0.8215 C   0  0  0  0  0  0  0  0  0  0  0  0
    5.1673    1.1919   -1.1100 C   0  0  0  0  0  0  0  0  0  0  0  0
    5.7327    2.5475   -0.9776 C   0  0  0  0  0  0  0  0  0  0  0  0
    5.0829    3.8025   -1.1120 C   0  0  0  0  0  0  0  0  0  0  0  0
    6.0626    4.7590   -0.8732 C   0  0  0  0  0  0  0  0  0  0  0  0
    5.9459    6.2294   -0.8642 C   0  0  0  0  0  0  0  0  0  0  0  0
    6.4958    7.0191    0.1645 C   0  0  0  0  0  0  0  0  0  0  0  0
    6.3394    8.4070    0.1589 C   0  0  0  0  0  0  0  0  0  0  0  0
    5.6243    9.0324   -0.8665 C   0  0  0  0  0  0  0  0  0  0  0  0
    5.0624    8.2592   -1.8873 C   0  0  0  0  0  0  0  0  0  0  0  0
    5.2229    6.8726   -1.8878 C   0  0  0  0  0  0  0  0  0  0  0  0
    7.2186    4.0531   -0.6313 N   0  0  0  0  0  0  0  0  0  0  0  0
    8.5495    4.5597   -0.3303 C   0  0  0  0  0  0  0  0  0  0  0  0
    9.7092    3.6901   -0.8543 C   0  0  0  0  0  0  0  0  0  0  0  0
   10.5084    3.2427   -0.0494 O   0  0  0  0  0  0  0  0  0  0  0  0
    9.8390    3.5120   -2.2055 N   0  0  0  0  0  0  0  0  0  0  0  0
   10.9353    2.6959   -2.7219 C   0  0  0  0  0  0  0  0  0  0  0  0
   10.4022    1.5795   -3.6147 C   0  0  0  0  0  0  0  0  0  0  0  0
    9.5313    2.1139   -4.6604 N   0  0  0  0  0  0  0  0  0  0  0  0
    9.5045    1.5186   -5.9134 C   0  0  0  0  0  0  0  0  0  0  0  0
    8.4625    1.7465   -6.8515 C   0  0  0  0  0  0  0  0  0  0  0  0
    8.5461    1.1468   -8.1026 C   0  0  0  0  0  0  0  0  0  0  0  0
    9.6346    0.3244   -8.4148 C   0  0  0  0  0  0  0  0  0  0  0  0
   10.5933    0.1412   -7.4184 C   0  0  0  0  0  0  0  0  0  0  0  0
   10.5342    0.7106   -6.2162 N   0  0  0  0  0  0  0  0  0  0  0  0
    8.4447    2.9379   -4.1598 C   0  0  0  0  0  0  0  0  0  0  0  0
    8.9840    4.0512   -3.2498 C   0  0  0  0  0  0  0  0  0  0  0  0
    7.0249    2.7279   -0.6875 N   0  0  0  0  0  0  0  0  0  0  0  0
    3.8395    0.9925   -1.5210 C   0  0  0  0  0  0  0  0  0  0  0  0
    3.3200   -0.2979   -1.6402 C   0  0  0  0  0  0  0  0  0  0  0  0
    4.1356   -1.3847   -1.3475 C   0  0  0  0  0  0  0  0  0  0  0  0
    3.6319   -2.6278   -1.4635 F   0  0  0  0  0  0  0  0  0  0  0  0
    7.3157   -2.1686   -0.3148 H   0  0  0  0  0  0  0  0  0  0  0  0
    6.3843   -3.1166   -1.5053 H   0  0  0  0  0  0  0  0  0  0  0  0
    5.8502   -3.0582    0.1787 H   0  0  0  0  0  0  0  0  0  0  0  0
    6.9893    0.2218   -0.4966 H   0  0  0  0  0  0  0  0  0  0  0  0
    4.0336    4.0028   -1.3105 H   0  0  0  0  0  0  0  0  0  0  0  0
    7.0250    6.5426    0.9921 H   0  0  0  0  0  0  0  0  0  0  0  0
    6.7698    9.0018    0.9685 H   0  0  0  0  0  0  0  0  0  0  0  0
    5.5018   10.1182   -0.8679 H   0  0  0  0  0  0  0  0  0  0  0  0
    4.5005    8.7394   -2.6924 H   0  0  0  0  0  0  0  0  0  0  0  0
    4.7942    6.2735   -2.6946 H   0  0  0  0  0  0  0  0  0  0  0  0
    8.7075    4.5970    0.7573 H   0  0  0  0  0  0  0  0  0  0  0  0
    8.6280    5.5827   -0.7259 H   0  0  0  0  0  0  0  0  0  0  0  0
   11.4819    2.2863   -1.8641 H   0  0  0  0  0  0  0  0  0  0  0  0
   11.6227    3.3392   -3.3024 H   0  0  0  0  0  0  0  0  0  0  0  0
    9.8412    0.8540   -2.9915 H   0  0  0  0  0  0  0  0  0  0  0  0
   11.2261    1.0450   -4.1001 H   0  0  0  0  0  0  0  0  0  0  0  0
    7.5984    2.3638   -6.6105 H   0  0  0  0  0  0  0  0  0  0  0  0
    7.7497    1.3149   -8.8330 H   0  0  0  0  0  0  0  0  0  0  0  0
    9.7293   -0.1651   -9.3856 H   0  0  0  0  0  0  0  0  0  0  0  0
   11.4606   -0.5061   -7.5999 H   0  0  0  0  0  0  0  0  0  0  0  0
    7.7109    2.3311   -3.5926 H   0  0  0  0  0  0  0  0  0  0  0  0
    7.9160    3.4162   -4.9936 H   0  0  0  0  0  0  0  0  0  0  0  0
    8.1416    4.6051   -2.8218 H   0  0  0  0  0  0  0  0  0  0  0  0
    9.5726    4.7566   -3.8674 H   0  0  0  0  0  0  0  0  0  0  0  0
    3.1999    1.8456   -1.7558 H   0  0  0  0  0  0  0  0  0  0  0  0
    2.2908   -0.4748   -1.9586 H   0  0  0  0  0  0  0  0  0  0  0  0
  1  2  1  0
  1 35  1  0
  1 36  1  0
  1 37  1  0
  2  3  2  0
  2 33  1  0
  3  4  1  0
  3 38  1  0
  4  5  1  0
  4 31  2  0
  5  6  1  0
  5 30  2  0
  6  7  2  0
  6 39  1  0
  7  8  1  0
  7 14  1  0
  8  9  2  0
  8 13  1  0
  9 10  1  0
  9 40  1  0
 10 11  2  0
 10 41  1  0
 11 12  1  0
 11 42  1  0
 12 13  2  0
 12 43  1  0
 13 44  1  0
 14 15  1  0
 14 30  1  0
 15 16  1  0
 15 45  1  0
 15 46  1  0
 16 17  2  0
 16 18  1  0
 18 19  1  0
 18 29  1  0
 19 20  1  0
 19 47  1  0
 19 48  1  0
 20 21  1  0
 20 49  1  0
 20 50  1  0
 21 22  1  0
 21 28  1  0
 22 23  2  0
 22 27  1  0
 23 24  1  0
 23 51  1  0
 24 25  2  0
 24 52  1  0
 25 26  1  0
 25 53  1  0
 26 27  2  0
 26 54  1  0
 28 29  1  0
 28 55  1  0
 28 56  1  0
 29 57  1  0
 29 58  1  0
 31 32  1  0
 31 59  1  0
 32 33  2  0
 32 60  1  0
 33 34  1  0
M  END

