
     RDKit          3D

 41 42  0  0  0  0  0  0  0  0999 V2000
    0.9623   -0.1163    0.0279 C   0  0  0  0  0  0  0  0  0  0  0  0
    2.4522   -0.2035   -0.2013 C   0  0  0  0  0  0  0  0  0  0  0  0
    3.1895    0.8811   -0.6820 C   0  0  0  0  0  0  0  0  0  0  0  0
    4.5703    0.7859   -0.9002 C   0  0  0  0  0  0  0  0  0  0  0  0
    5.2447   -0.4103   -0.6291 C   0  0  0  0  0  0  0  0  0  0  0  0
    6.5884   -0.5950   -0.7878 O   0  0  0  0  0  0  0  0  0  0  0  0
    7.4174    0.4465   -1.2942 C   0  0  0  0  0  0  0  0  0  0  0  0
    7.3771    0.5537   -2.7914 C   0  0  0  0  0  0  0  0  0  0  0  0
    8.4703    0.4490   -3.5660 C   0  0  0  0  0  0  0  0  0  0  0  0
    8.5527    0.5592   -5.0314 C   0  0  0  0  0  0  0  0  0  0  0  0
    9.8066    0.4121   -5.6555 C   0  0  0  0  0  0  0  0  0  0  0  0
    9.9412    0.5031   -7.0425 C   0  0  0  0  0  0  0  0  0  0  0  0
    8.8198    0.7441   -7.8399 C   0  0  0  0  0  0  0  0  0  0  0  0
    7.5648    0.8934   -7.2364 C   0  0  0  0  0  0  0  0  0  0  0  0
    7.4322    0.8035   -5.8520 C   0  0  0  0  0  0  0  0  0  0  0  0
    4.5258   -1.5332   -0.1495 C   0  0  0  0  0  0  0  0  0  0  0  0
    5.2440   -2.8282    0.1596 C   0  0  0  0  0  0  0  0  0  0  0  0
    5.9051   -2.8559    1.5481 C   0  0  0  0  0  0  0  0  0  0  0  0
    4.9073   -2.7733    2.6113 N   0  0  0  0  0  0  0  0  0  0  0  0
    3.1501   -1.3983    0.0545 C   0  0  0  0  0  0  0  0  0  0  0  0
    0.5810    0.8951   -0.1782 H   0  0  0  0  0  0  0  0  0  0  0  0
    0.6970   -0.3689    1.0684 H   0  0  0  0  0  0  0  0  0  0  0  0
    0.4116   -0.8188   -0.6208 H   0  0  0  0  0  0  0  0  0  0  0  0
    2.6847    1.8267   -0.9002 H   0  0  0  0  0  0  0  0  0  0  0  0
    5.1035    1.6560   -1.2842 H   0  0  0  0  0  0  0  0  0  0  0  0
    8.4358    0.1959   -0.9614 H   0  0  0  0  0  0  0  0  0  0  0  0
    7.1443    1.4066   -0.8172 H   0  0  0  0  0  0  0  0  0  0  0  0
    6.3928    0.7277   -3.2385 H   0  0  0  0  0  0  0  0  0  0  0  0
    9.4308    0.2612   -3.0692 H   0  0  0  0  0  0  0  0  0  0  0  0
   10.6888    0.2220   -5.0376 H   0  0  0  0  0  0  0  0  0  0  0  0
   10.9261    0.3846   -7.5015 H   0  0  0  0  0  0  0  0  0  0  0  0
    8.9201    0.8160   -8.9258 H   0  0  0  0  0  0  0  0  0  0  0  0
    6.6818    1.0821   -7.8526 H   0  0  0  0  0  0  0  0  0  0  0  0
    6.4440    0.9239   -5.4029 H   0  0  0  0  0  0  0  0  0  0  0  0
    6.0229   -3.0027   -0.5986 H   0  0  0  0  0  0  0  0  0  0  0  0
    4.5250   -3.6609    0.1067 H   0  0  0  0  0  0  0  0  0  0  0  0
    6.6803   -2.0616    1.5833 H   0  0  0  0  0  0  0  0  0  0  0  0
    6.4383   -3.8168    1.6542 H   0  0  0  0  0  0  0  0  0  0  0  0
    4.4569   -1.8569    2.5934 H   0  0  0  0  0  0  0  0  0  0  0  0
    5.3571   -2.8479    3.5239 H   0  0  0  0  0  0  0  0  0  0  0  0
    2.6006   -2.2676    0.4292 H   0  0  0  0  0  0  0  0  0  0  0  0
  1  2  1  0
  1 21  1  0
  1 22  1  0
  1 23  1  0
  2  3  2  0
  2 20  1  0
  3  4  1  0
  3 24  1  0
  4  5  2  0
  4 25  1  0
  5  6  1  0
  5 16  1  0
  6  7  1  0
  7  8  1  0
  7 26  1  0
  7 27  1  0
  8  9  2  0
  8 28  1  0
  9 10  1  0
  9 29  1  0
 10 11  2  0
 10 15  1  0
 11 12  1  0
 11 30  1  0
 12 13  2  0
 12 31  1  0
 13 14  1  0
 13 32  1  0
 14 15  2  0
 14 33  1  0
 15 34  1  0
 16 17  1  0
 16 20  2  0
 17 18  1  0
 17 35  1  0
 17 36  1  0
 18 19  1  0
 18 37  1  0
 18 38  1  0
 19 39  1  0
 19 40  1  0
 20 41  1  0
M  END

