
     RDKit          3D

 47 48  0  0  0  0  0  0  0  0999 V2000
    1.1462   -0.9822    2.1935 C   0  0  0  0  0  0  0  0  0  0  0  0
    2.4218   -1.0355    2.8743 N   0  0  0  0  0  0  0  0  0  0  0  0
    3.4788   -0.3247    2.4199 C   0  0  0  0  0  0  0  0  0  0  0  0
    3.4761    0.4034    1.4444 O   0  0  0  0  0  0  0  0  0  0  0  0
    4.6729   -0.4735    3.1803 N   0  0  0  0  0  0  0  0  0  0  0  0
    4.9069   -1.2143    4.3040 C   0  0  0  0  0  0  0  0  0  0  0  0
    4.0743   -1.9135    4.8653 O   0  0  0  0  0  0  0  0  0  0  0  0
    6.3752   -1.1847    4.7872 C   0  0  1  0  0  0  0  0  0  0  0  0
    7.0472   -2.4199    4.1676 C   0  0  0  0  0  0  0  0  0  0  0  0
    7.0068    0.0913    4.4514 N   0  0  0  0  0  0  0  0  0  0  0  0
    6.4808    1.1991    5.2408 C   0  0  0  0  0  0  0  0  0  0  0  0
    8.4626    0.1630    4.2729 C   0  0  0  0  0  0  0  0  0  0  0  0
    9.3165    0.3055    5.5277 C   0  0  0  0  0  0  0  0  0  0  0  0
    9.3484   -0.7081    6.5335 C   0  0  0  0  0  0  0  0  0  0  0  0
   10.1259   -0.5773    7.6621 C   0  0  0  0  0  0  0  0  0  0  0  0
   10.9353    0.5781    7.8702 C   0  0  0  0  0  0  0  0  0  0  0  0
   11.7476    0.7421    9.0171 C   0  0  0  0  0  0  0  0  0  0  0  0
   12.5236    1.8803    9.1862 C   0  0  0  0  0  0  0  0  0  0  0  0
   13.2701    1.9478   10.3186 O   0  0  0  0  0  0  0  0  0  0  0  0
   14.0830    3.0743   10.5578 C   0  0  0  0  0  0  0  0  0  0  0  0
   12.5053    2.9001    8.1941 C   0  0  0  0  0  0  0  0  0  0  0  0
   11.7180    2.7560    7.0687 C   0  0  0  0  0  0  0  0  0  0  0  0
   10.9138    1.6044    6.8671 C   0  0  0  0  0  0  0  0  0  0  0  0
   10.0925    1.4336    5.7174 C   0  0  0  0  0  0  0  0  0  0  0  0
    0.4106   -1.5576    2.7720 H   0  0  0  0  0  0  0  0  0  0  0  0
    1.2052   -1.4070    1.1768 H   0  0  0  0  0  0  0  0  0  0  0  0
    0.7874    0.0553    2.0951 H   0  0  0  0  0  0  0  0  0  0  0  0
    2.5683   -1.6048    3.7087 H   0  0  0  0  0  0  0  0  0  0  0  0
    5.4624    0.0838    2.8549 H   0  0  0  0  0  0  0  0  0  0  0  0
    6.3039   -1.3439    5.8828 H   0  0  0  0  0  0  0  0  0  0  0  0
    7.1355   -2.3187    3.0745 H   0  0  0  0  0  0  0  0  0  0  0  0
    6.4281   -3.3021    4.3836 H   0  0  0  0  0  0  0  0  0  0  0  0
    8.0479   -2.6046    4.5823 H   0  0  0  0  0  0  0  0  0  0  0  0
    5.3840    1.2413    5.1596 H   0  0  0  0  0  0  0  0  0  0  0  0
    6.8786    2.1517    4.8577 H   0  0  0  0  0  0  0  0  0  0  0  0
    6.7405    1.1322    6.3165 H   0  0  0  0  0  0  0  0  0  0  0  0
    8.6667    1.0347    3.6283 H   0  0  0  0  0  0  0  0  0  0  0  0
    8.7867   -0.7158    3.6977 H   0  0  0  0  0  0  0  0  0  0  0  0
    8.7469   -1.6110    6.4104 H   0  0  0  0  0  0  0  0  0  0  0  0
   10.1337   -1.3682    8.4171 H   0  0  0  0  0  0  0  0  0  0  0  0
   11.7756   -0.0291    9.7898 H   0  0  0  0  0  0  0  0  0  0  0  0
   14.5813    2.8995   11.5210 H   0  0  0  0  0  0  0  0  0  0  0  0
   13.4916    4.0051   10.6287 H   0  0  0  0  0  0  0  0  0  0  0  0
   14.8551    3.2020    9.7775 H   0  0  0  0  0  0  0  0  0  0  0  0
   13.1095    3.7997    8.3125 H   0  0  0  0  0  0  0  0  0  0  0  0
   11.7109    3.5455    6.3119 H   0  0  0  0  0  0  0  0  0  0  0  0
   10.0861    2.2280    4.9639 H   0  0  0  0  0  0  0  0  0  0  0  0
  1  2  1  0
  1 25  1  0
  1 26  1  0
  1 27  1  0
  2  3  1  0
  2 28  1  0
  3  4  2  0
  3  5  1  0
  5  6  1  0
  5 29  1  0
  6  7  2  0
  6  8  1  0
  8  9  1  0
  8 10  1  0
  8 30  1  1
  9 31  1  0
  9 32  1  0
  9 33  1  0
 10 11  1  0
 10 12  1  0
 11 34  1  0
 11 35  1  0
 11 36  1  0
 12 13  1  0
 12 37  1  0
 12 38  1  0
 13 14  2  0
 13 24  1  0
 14 15  1  0
 14 39  1  0
 15 16  2  0
 15 40  1  0
 16 17  1  0
 16 23  1  0
 17 18  2  0
 17 41  1  0
 18 19  1  0
 18 21  1  0
 19 20  1  0
 20 42  1  0
 20 43  1  0
 20 44  1  0
 21 22  2  0
 21 45  1  0
 22 23  1  0
 22 46  1  0
 23 24  2  0
 24 47  1  0
M  END

