
     RDKit          3D

 32 34  0  0  0  0  0  0  0  0999 V2000
    2.9130    0.9340    0.5510 O   0  0  0  0  0  0  0  0  0  0  0  0
    2.3611   -0.0717    0.1465 C   0  0  0  0  0  0  0  0  0  0  0  0
    1.0121   -0.2906    0.1417 N   0  0  0  0  0  0  0  0  0  0  0  0
    0.0375    0.5758    0.6530 C   0  0  0  0  0  0  0  0  0  0  0  0
   -0.0153    1.9459    0.3461 C   0  0  0  0  0  0  0  0  0  0  0  0
    0.8659    2.4511   -0.5168 F   0  0  0  0  0  0  0  0  0  0  0  0
   -0.9876    2.7820    0.8912 C   0  0  0  0  0  0  0  0  0  0  0  0
   -1.9599    2.2461    1.7381 C   0  0  0  0  0  0  0  0  0  0  0  0
   -1.9627    0.8807    2.0393 C   0  0  0  0  0  0  0  0  0  0  0  0
   -0.9667    0.0769    1.4991 C   0  0  0  0  0  0  0  0  0  0  0  0
   -0.9458   -1.2364    1.7724 F   0  0  0  0  0  0  0  0  0  0  0  0
    3.1048   -1.3114   -0.4244 C   0  0  0  0  0  0  0  0  0  0  0  0
    2.4382   -2.3021   -0.7058 O   0  0  0  0  0  0  0  0  0  0  0  0
    4.5441   -1.2490   -0.5932 C   0  0  0  0  0  0  0  0  0  0  0  0
    5.3990   -0.1853   -0.3101 C   0  0  0  0  0  0  0  0  0  0  0  0
    6.6760   -0.5352   -0.6212 N   0  0  0  0  0  0  0  0  0  0  0  0
    7.4821    0.0661   -0.5053 H   0  0  0  0  0  0  0  0  0  0  0  0
    6.7105   -1.8326   -1.1151 C   0  0  0  0  0  0  0  0  0  0  0  0
    7.7972   -2.5956   -1.5546 C   0  0  0  0  0  0  0  0  0  0  0  0
    7.5122   -3.8843   -2.0010 C   0  0  0  0  0  0  0  0  0  0  0  0
    8.8256   -4.8959   -2.5656 Cl  0  0  0  0  0  0  0  0  0  0  0  0
    6.1998   -4.3996   -2.0126 C   0  0  0  0  0  0  0  0  0  0  0  0
    5.1307   -3.6246   -1.5710 C   0  0  0  0  0  0  0  0  0  0  0  0
    5.3781   -2.3193   -1.1126 C   0  0  0  0  0  0  0  0  0  0  0  0
    0.7532   -1.2506   -0.0866 H   0  0  0  0  0  0  0  0  0  0  0  0
   -0.9749    3.8397    0.6232 H   0  0  0  0  0  0  0  0  0  0  0  0
   -2.7290    2.8960    2.1607 H   0  0  0  0  0  0  0  0  0  0  0  0
   -2.7135    0.4304    2.6904 H   0  0  0  0  0  0  0  0  0  0  0  0
    5.1442    0.7888    0.0977 H   0  0  0  0  0  0  0  0  0  0  0  0
    8.8199   -2.2160   -1.5539 H   0  0  0  0  0  0  0  0  0  0  0  0
    6.0356   -5.4161   -2.3733 H   0  0  0  0  0  0  0  0  0  0  0  0
    4.1125   -4.0138   -1.5759 H   0  0  0  0  0  0  0  0  0  0  0  0
  1  2  2  0
  2  3  1  0
  2 12  1  0
  3  4  1  0
  3 25  1  0
  4  5  2  0
  4 10  1  0
  5  6  1  0
  5  7  1  0
  7  8  2  0
  7 26  1  0
  8  9  1  0
  8 27  1  0
  9 10  2  0
  9 28  1  0
 10 11  1  0
 12 13  2  0
 12 14  1  0
 14 15  2  0
 14 24  1  0
 15 16  1  0
 15 29  1  0
 16 17  1  0
 16 18  1  0
 18 19  1  0
 18 24  2  0
 19 20  2  0
 19 30  1  0
 20 21  1  0
 20 22  1  0
 22 23  2  0
 22 31  1  0
 23 24  1  0
 23 32  1  0
M  END

