
     RDKit          3D

 25 26  0  0  0  0  0  0  0  0999 V2000
    2.9390    1.5765    0.1401 O   0  0  0  0  0  0  0  0  0  0  0  0
    2.4496    0.4633    0.0546 N   0  0  0  0  0  0  0  0  0  0  0  0
    1.6403   -0.0128    0.8321 O   0  0  0  0  0  0  0  0  0  0  0  0
    2.8736   -0.3800   -1.0862 C   0  0  0  0  0  0  0  0  0  0  0  0
    3.7958    0.1371   -1.9932 C   0  0  0  0  0  0  0  0  0  0  0  0
    4.1898   -0.6640   -3.0643 C   0  0  0  0  0  0  0  0  0  0  0  0
    5.3344   -0.0598   -4.2207 Cl  0  0  0  0  0  0  0  0  0  0  0  0
    3.6636   -1.9612   -3.2351 C   0  0  0  0  0  0  0  0  0  0  0  0
    3.9872   -2.6987   -4.3226 O   0  0  0  0  0  0  0  0  0  0  0  0
    5.0582   -3.5768   -4.3134 C   0  0  0  0  0  0  0  0  0  0  0  0
    5.2789   -4.2798   -5.5017 C   0  0  0  0  0  0  0  0  0  0  0  0
    6.3387   -5.1838   -5.5739 C   0  0  0  0  0  0  0  0  0  0  0  0
    7.1751   -5.3881   -4.4701 C   0  0  0  0  0  0  0  0  0  0  0  0
    6.9411   -4.6779   -3.2907 C   0  0  0  0  0  0  0  0  0  0  0  0
    5.8823   -3.7673   -3.2019 C   0  0  0  0  0  0  0  0  0  0  0  0
    2.7355   -2.4438   -2.2893 C   0  0  0  0  0  0  0  0  0  0  0  0
    2.0821   -4.0394   -2.4880 Cl  0  0  0  0  0  0  0  0  0  0  0  0
    2.3303   -1.6565   -1.2122 C   0  0  0  0  0  0  0  0  0  0  0  0
    4.1932    1.1415   -1.8592 H   0  0  0  0  0  0  0  0  0  0  0  0
    4.6143   -4.1048   -6.3496 H   0  0  0  0  0  0  0  0  0  0  0  0
    6.5117   -5.7336   -6.5024 H   0  0  0  0  0  0  0  0  0  0  0  0
    8.0039   -6.0969   -4.5305 H   0  0  0  0  0  0  0  0  0  0  0  0
    7.5873   -4.8288   -2.4223 H   0  0  0  0  0  0  0  0  0  0  0  0
    5.7065   -3.2162   -2.2766 H   0  0  0  0  0  0  0  0  0  0  0  0
    1.6094   -2.0206   -0.4825 H   0  0  0  0  0  0  0  0  0  0  0  0
  1  2  2  0
  2  3  1  0
  2  4  1  0
  4  5  2  0
  4 18  1  0
  5  6  1  0
  5 19  1  0
  6  7  1  0
  6  8  2  0
  8  9  1  0
  8 16  1  0
  9 10  1  0
 10 11  2  0
 10 15  1  0
 11 12  1  0
 11 20  1  0
 12 13  2  0
 12 21  1  0
 13 14  1  0
 13 22  1  0
 14 15  2  0
 14 23  1  0
 15 24  1  0
 16 17  1  0
 16 18  2  0
 18 25  1  0
M  CHG  2   2   1   3  -1
M  END

