
     RDKit          3D

 66 69  0  0  0  0  0  0  0  0999 V2000
   -1.3311    7.4498    2.9410 C   0  0  0  0  0  0  0  0  0  0  0  0
    0.1595    7.4136    3.3211 C   0  0  1  0  0  0  0  0  0  0  0  0
    0.4624    6.2489    4.2797 C   0  0  0  0  0  0  0  0  0  0  0  0
    1.0604    7.3922    2.0936 C   0  0  0  0  0  0  0  0  0  0  0  0
    1.9463    8.4447    1.8237 C   0  0  0  0  0  0  0  0  0  0  0  0
    2.7825    8.4511    0.7063 C   0  0  0  0  0  0  0  0  0  0  0  0
    2.7566    7.3756   -0.2006 C   0  0  0  0  0  0  0  0  0  0  0  0
    3.6243    7.3245   -1.3333 N   0  0  0  0  0  0  0  0  0  0  0  0
    4.2966    8.4203   -1.8610 C   0  0  0  0  0  0  0  0  0  0  0  0
    4.1798    9.5724   -1.5012 O   0  0  0  0  0  0  0  0  0  0  0  0
    5.2217    8.0109   -3.0076 C   0  0  0  0  0  0  0  0  0  0  0  0
    5.4848    6.2192   -2.8612 S   0  0  0  0  0  0  0  0  0  0  0  0
    3.8217    6.0612   -2.0399 C   0  0  2  0  0  0  0  0  0  0  0  0
    3.9287    5.2458   -1.3108 H   0  0  0  0  0  0  0  0  0  0  0  0
    2.7339    5.7135   -3.0448 C   0  0  0  0  0  0  0  0  0  0  0  0
    2.6190    4.3897   -3.4981 C   0  0  0  0  0  0  0  0  0  0  0  0
    1.6519    4.0645   -4.4482 C   0  0  0  0  0  0  0  0  0  0  0  0
    0.7803    5.0283   -4.9627 C   0  0  0  0  0  0  0  0  0  0  0  0
    0.8822    6.3538   -4.5064 C   0  0  0  0  0  0  0  0  0  0  0  0
    0.0498    7.3949   -4.9516 N   0  0  0  0  0  0  0  0  0  0  0  0
   -0.9855    7.3507   -5.8635 C   0  0  0  0  0  0  0  0  0  0  0  0
   -1.3634    6.3246   -6.4052 O   0  0  0  0  0  0  0  0  0  0  0  0
   -1.6470    8.6740   -6.1417 C   0  0  0  0  0  0  0  0  0  0  0  0
   -1.0547    9.9227   -5.9101 C   0  0  0  0  0  0  0  0  0  0  0  0
   -1.7329   11.1069   -6.2139 C   0  0  0  0  0  0  0  0  0  0  0  0
   -3.0254   11.0917   -6.7614 C   0  0  0  0  0  0  0  0  0  0  0  0
   -3.8049   12.3752   -7.1032 C   0  0  1  0  0  0  0  0  0  0  0  0
   -3.0083   13.6486   -6.7665 C   0  0  0  0  0  0  0  0  0  0  0  0
   -4.1268   12.3905   -8.6159 C   0  0  0  0  0  0  0  0  0  0  0  0
   -5.1238   12.4015   -6.2956 C   0  0  0  0  0  0  0  0  0  0  0  0
   -3.6035    9.8290   -7.0029 C   0  0  0  0  0  0  0  0  0  0  0  0
   -2.9311    8.6472   -6.7092 C   0  0  0  0  0  0  0  0  0  0  0  0
    1.8619    6.6810   -3.5481 C   0  0  0  0  0  0  0  0  0  0  0  0
    1.8678    6.3139    0.0547 C   0  0  0  0  0  0  0  0  0  0  0  0
    1.0436    6.3281    1.1802 C   0  0  0  0  0  0  0  0  0  0  0  0
   -1.9627    7.5308    3.8410 H   0  0  0  0  0  0  0  0  0  0  0  0
   -1.6320    6.5337    2.4062 H   0  0  0  0  0  0  0  0  0  0  0  0
   -1.5570    8.3068    2.2875 H   0  0  0  0  0  0  0  0  0  0  0  0
    0.3834    8.3502    3.8611 H   0  0  0  0  0  0  0  0  0  0  0  0
    0.2461    5.2749    3.8103 H   0  0  0  0  0  0  0  0  0  0  0  0
   -0.1543    6.3215    5.1906 H   0  0  0  0  0  0  0  0  0  0  0  0
    1.5208    6.2452    4.5837 H   0  0  0  0  0  0  0  0  0  0  0  0
    1.9921    9.2946    2.5113 H   0  0  0  0  0  0  0  0  0  0  0  0
    3.4459    9.2929    0.5302 H   0  0  0  0  0  0  0  0  0  0  0  0
    6.1697    8.5558   -2.9076 H   0  0  0  0  0  0  0  0  0  0  0  0
    4.7596    8.2932   -3.9687 H   0  0  0  0  0  0  0  0  0  0  0  0
    3.2941    3.6195   -3.1153 H   0  0  0  0  0  0  0  0  0  0  0  0
    1.5655    3.0333   -4.8002 H   0  0  0  0  0  0  0  0  0  0  0  0
    0.0208    4.7730   -5.6970 H   0  0  0  0  0  0  0  0  0  0  0  0
    0.1982    8.2841   -4.4908 H   0  0  0  0  0  0  0  0  0  0  0  0
   -0.0367    9.9988   -5.5176 H   0  0  0  0  0  0  0  0  0  0  0  0
   -1.2264   12.0526   -6.0220 H   0  0  0  0  0  0  0  0  0  0  0  0
   -2.0666   13.7078   -7.3343 H   0  0  0  0  0  0  0  0  0  0  0  0
   -2.7672   13.7121   -5.6938 H   0  0  0  0  0  0  0  0  0  0  0  0
   -3.6039   14.5385   -7.0235 H   0  0  0  0  0  0  0  0  0  0  0  0
   -3.2037   12.3747   -9.2169 H   0  0  0  0  0  0  0  0  0  0  0  0
   -4.6887   13.3017   -8.8786 H   0  0  0  0  0  0  0  0  0  0  0  0
   -4.7368   11.5252   -8.9162 H   0  0  0  0  0  0  0  0  0  0  0  0
   -4.9246   12.3943   -5.2122 H   0  0  0  0  0  0  0  0  0  0  0  0
   -5.7645   11.5365   -6.5244 H   0  0  0  0  0  0  0  0  0  0  0  0
   -5.6981   13.3128   -6.5301 H   0  0  0  0  0  0  0  0  0  0  0  0
   -4.6048    9.7636   -7.4346 H   0  0  0  0  0  0  0  0  0  0  0  0
   -3.3859    7.6762   -6.9138 H   0  0  0  0  0  0  0  0  0  0  0  0
    1.9216    7.7085   -3.1797 H   0  0  0  0  0  0  0  0  0  0  0  0
    1.7945    5.4708   -0.6313 H   0  0  0  0  0  0  0  0  0  0  0  0
    0.3686    5.4822    1.3360 H   0  0  0  0  0  0  0  0  0  0  0  0
  1  2  1  0
  1 36  1  0
  1 37  1  0
  1 38  1  0
  2  3  1  0
  2  4  1  0
  2 39  1  1
  3 40  1  0
  3 41  1  0
  3 42  1  0
  4  5  2  0
  4 35  1  0
  5  6  1  0
  5 43  1  0
  6  7  2  0
  6 44  1  0
  7  8  1  0
  7 34  1  0
  8  9  1  0
  8 13  1  0
  9 10  2  0
  9 11  1  0
 11 12  1  0
 11 45  1  0
 11 46  1  0
 12 13  1  0
 13 14  1  1
 13 15  1  0
 15 16  2  0
 15 33  1  0
 16 17  1  0
 16 47  1  0
 17 18  2  0
 17 48  1  0
 18 19  1  0
 18 49  1  0
 19 20  1  0
 19 33  2  0
 20 21  1  0
 20 50  1  0
 21 22  2  0
 21 23  1  0
 23 24  2  0
 23 32  1  0
 24 25  1  0
 24 51  1  0
 25 26  2  0
 25 52  1  0
 26 27  1  0
 26 31  1  0
 27 28  1  1
 27 29  1  0
 27 30  1  0
 28 53  1  0
 28 54  1  0
 28 55  1  0
 29 56  1  0
 29 57  1  0
 29 58  1  0
 30 59  1  0
 30 60  1  0
 30 61  1  0
 31 32  2  0
 31 62  1  0
 32 63  1  0
 33 64  1  0
 34 35  2  0
 34 65  1  0
 35 66  1  0
M  END

