
     RDKit          3D

 33 34  0  0  0  0  0  0  0  0999 V2000
    3.9094   -0.3605   -0.8418 C   0  0  0  0  0  0  0  0  0  0  0  0
    2.5820   -0.0607   -0.1417 C   0  0  0  0  0  0  0  0  0  0  0  0
    2.6767    0.9640    0.8847 N   0  0  0  0  0  0  0  0  0  0  0  0
    2.4392    2.3276    0.7056 C   0  0  0  0  0  0  0  0  0  0  0  0
    2.7078    2.9282    1.9093 C   0  0  0  0  0  0  0  0  0  0  0  0
    2.6065    4.3724    2.2824 C   0  0  0  0  0  0  0  0  0  0  0  0
    3.1127    1.9770    2.8256 N   0  0  0  0  0  0  0  0  0  0  0  0
    3.0891    0.8264    2.1903 C   0  0  0  0  0  0  0  0  0  0  0  0
    3.4214   -0.4195    2.6929 N   0  0  0  0  0  0  0  0  0  0  0  0
    3.8102   -0.7766    3.9881 C   0  0  0  0  0  0  0  0  0  0  0  0
    3.9499    0.1746    5.0160 C   0  0  0  0  0  0  0  0  0  0  0  0
    4.3426   -0.2487    6.2846 C   0  0  0  0  0  0  0  0  0  0  0  0
    4.5286    1.0544    7.6719 Br  0  0  0  0  0  0  0  0  0  0  0  0
    4.6027   -1.5885    6.5704 C   0  0  0  0  0  0  0  0  0  0  0  0
    4.4593   -2.5187    5.5374 C   0  0  0  0  0  0  0  0  0  0  0  0
    4.0688   -2.1497    4.2471 C   0  0  0  0  0  0  0  0  0  0  0  0
    3.9264   -3.1836    3.1578 C   0  0  0  0  0  0  0  0  0  0  0  0
    3.7727   -1.1369   -1.6112 H   0  0  0  0  0  0  0  0  0  0  0  0
    4.6687   -0.7156   -0.1271 H   0  0  0  0  0  0  0  0  0  0  0  0
    4.3053    0.5434   -1.3293 H   0  0  0  0  0  0  0  0  0  0  0  0
    2.1626   -0.9771    0.3099 H   0  0  0  0  0  0  0  0  0  0  0  0
    1.8316    0.2766   -0.8730 H   0  0  0  0  0  0  0  0  0  0  0  0
    2.0972    2.7234   -0.2474 H   0  0  0  0  0  0  0  0  0  0  0  0
    2.2734    4.9836    1.4306 H   0  0  0  0  0  0  0  0  0  0  0  0
    3.5801    4.7591    2.6268 H   0  0  0  0  0  0  0  0  0  0  0  0
    1.8941    4.5161    3.1117 H   0  0  0  0  0  0  0  0  0  0  0  0
    3.3404   -1.1867    2.0420 H   0  0  0  0  0  0  0  0  0  0  0  0
    3.7481    1.2211    4.7967 H   0  0  0  0  0  0  0  0  0  0  0  0
    4.9089   -1.9004    7.5694 H   0  0  0  0  0  0  0  0  0  0  0  0
    4.6594   -3.5742    5.7434 H   0  0  0  0  0  0  0  0  0  0  0  0
    4.1617   -4.1888    3.5347 H   0  0  0  0  0  0  0  0  0  0  0  0
    4.6064   -2.9894    2.3077 H   0  0  0  0  0  0  0  0  0  0  0  0
    2.8981   -3.2229    2.7525 H   0  0  0  0  0  0  0  0  0  0  0  0
  1  2  1  0
  1 18  1  0
  1 19  1  0
  1 20  1  0
  2  3  1  0
  2 21  1  0
  2 22  1  0
  3  4  1  0
  3  8  1  0
  4  5  2  0
  4 23  1  0
  5  6  1  0
  5  7  1  0
  6 24  1  0
  6 25  1  0
  6 26  1  0
  7  8  2  0
  8  9  1  0
  9 10  1  0
  9 27  1  0
 10 11  2  0
 10 16  1  0
 11 12  1  0
 11 28  1  0
 12 13  1  0
 12 14  2  0
 14 15  1  0
 14 29  1  0
 15 16  2  0
 15 30  1  0
 16 17  1  0
 17 31  1  0
 17 32  1  0
 17 33  1  0
M  END

