
     RDKit          3D

 68 70  0  0  0  0  0  0  0  0999 V2000
    1.0395    2.0917   -1.2483 C   0  0  0  0  0  0  0  0  0  0  0  0
    2.3719    1.5715   -1.0704 N   0  0  0  0  0  0  0  0  0  0  0  0
    3.0304    1.7379    0.0222 C   0  0  0  0  0  0  0  0  0  0  0  0
    4.4097    1.6023    0.0273 N   0  0  0  0  0  0  0  0  0  0  0  0
    5.1817    1.3773   -1.1840 C   0  0  0  0  0  0  0  0  0  0  0  0
    5.4802   -0.0833   -1.4806 C   0  0  0  0  0  0  0  0  0  0  0  0
    6.7795   -0.5910   -1.3550 C   0  0  0  0  0  0  0  0  0  0  0  0
    7.0434   -1.9423   -1.6098 C   0  0  0  0  0  0  0  0  0  0  0  0
    6.0122   -2.7973   -1.9972 C   0  0  0  0  0  0  0  0  0  0  0  0
    4.7021   -2.3070   -2.1327 C   0  0  0  0  0  0  0  0  0  0  0  0
    3.5889   -3.2233   -2.6125 C   0  0  0  0  0  0  0  0  0  0  0  0
    3.6527   -4.5315   -2.0809 O   0  0  0  0  0  0  0  0  0  0  0  0
    3.2295   -4.6711   -0.7246 C   0  0  1  0  0  0  0  0  0  0  0  0
    1.7010   -4.8310   -0.6387 C   0  0  0  0  0  0  0  0  0  0  0  0
    1.2612   -6.1638   -1.2490 C   0  0  0  0  0  0  0  0  0  0  0  0
    1.9272   -7.2583   -0.6483 O   0  0  0  0  0  0  0  0  0  0  0  0
    3.3328   -7.1896   -0.8048 C   0  0  0  0  0  0  0  0  0  0  0  0
    3.9052   -5.9254   -0.1607 C   0  0  0  0  0  0  0  0  0  0  0  0
    4.4479   -0.9571   -1.8676 C   0  0  0  0  0  0  0  0  0  0  0  0
    2.5035    2.0858    1.2737 N   0  0  0  0  0  0  0  0  0  0  0  0
    1.2231    1.5671    1.7211 C   0  0  0  0  0  0  0  0  0  0  0  0
    3.2561    2.8847    2.2310 C   0  0  0  0  0  0  0  0  0  0  0  0
    3.9793    2.0991    3.3029 C   0  0  0  0  0  0  0  0  0  0  0  0
    4.1071    0.7217    3.4225 C   0  0  0  0  0  0  0  0  0  0  0  0
    4.8621    0.4850    4.5305 N   0  0  0  0  0  0  0  0  0  0  0  0
    5.2615   -0.7921    5.0818 C   0  0  0  0  0  0  0  0  0  0  0  0
    5.2321    1.6193    5.1386 N   0  0  0  0  0  0  0  0  0  0  0  0
    4.7116    2.6112    4.4163 C   0  0  0  0  0  0  0  0  0  0  0  0
    4.8876    4.0572    4.8232 C   0  0  1  0  0  0  0  0  0  0  0  0
    3.7288    4.5166    5.7298 C   0  0  0  0  0  0  0  0  0  0  0  0
    6.2461    4.3066    5.4914 C   0  0  0  0  0  0  0  0  0  0  0  0
    0.9183    2.4280   -2.2927 H   0  0  0  0  0  0  0  0  0  0  0  0
    0.7992    2.9540   -0.5958 H   0  0  0  0  0  0  0  0  0  0  0  0
    0.2533    1.3292   -1.0836 H   0  0  0  0  0  0  0  0  0  0  0  0
    4.8318    1.2887    0.8950 H   0  0  0  0  0  0  0  0  0  0  0  0
    6.1335    1.9297   -1.1033 H   0  0  0  0  0  0  0  0  0  0  0  0
    4.5995    1.8144   -2.0070 H   0  0  0  0  0  0  0  0  0  0  0  0
    7.5946    0.0755   -1.0562 H   0  0  0  0  0  0  0  0  0  0  0  0
    8.0622   -2.3265   -1.5083 H   0  0  0  0  0  0  0  0  0  0  0  0
    6.2107   -3.8529   -2.1980 H   0  0  0  0  0  0  0  0  0  0  0  0
    3.6618   -3.3496   -3.7065 H   0  0  0  0  0  0  0  0  0  0  0  0
    2.6094   -2.7487   -2.4134 H   0  0  0  0  0  0  0  0  0  0  0  0
    3.5509   -3.7845   -0.1467 H   0  0  0  0  0  0  0  0  0  0  0  0
    1.1922   -3.9942   -1.1461 H   0  0  0  0  0  0  0  0  0  0  0  0
    1.3984   -4.7969    0.4221 H   0  0  0  0  0  0  0  0  0  0  0  0
    1.4544   -6.1497   -2.3408 H   0  0  0  0  0  0  0  0  0  0  0  0
    0.1833   -6.3297   -1.0981 H   0  0  0  0  0  0  0  0  0  0  0  0
    3.6024   -7.2113   -1.8796 H   0  0  0  0  0  0  0  0  0  0  0  0
    3.7463   -8.0942   -0.3326 H   0  0  0  0  0  0  0  0  0  0  0  0
    4.9930   -5.8664   -0.3255 H   0  0  0  0  0  0  0  0  0  0  0  0
    3.7294   -5.9645    0.9277 H   0  0  0  0  0  0  0  0  0  0  0  0
    3.4362   -0.5498   -1.9571 H   0  0  0  0  0  0  0  0  0  0  0  0
    0.9105    0.7324    1.0812 H   0  0  0  0  0  0  0  0  0  0  0  0
    0.4200    2.3270    1.7130 H   0  0  0  0  0  0  0  0  0  0  0  0
    1.3106    1.1832    2.7521 H   0  0  0  0  0  0  0  0  0  0  0  0
    2.5569    3.5969    2.7084 H   0  0  0  0  0  0  0  0  0  0  0  0
    3.9768    3.5013    1.6714 H   0  0  0  0  0  0  0  0  0  0  0  0
    3.7208   -0.0898    2.8086 H   0  0  0  0  0  0  0  0  0  0  0  0
    4.9386   -1.5948    4.4054 H   0  0  0  0  0  0  0  0  0  0  0  0
    4.8045   -0.9485    6.0716 H   0  0  0  0  0  0  0  0  0  0  0  0
    6.3556   -0.8307    5.1912 H   0  0  0  0  0  0  0  0  0  0  0  0
    4.8444    4.6614    3.8990 H   0  0  0  0  0  0  0  0  0  0  0  0
    3.7281    3.9436    6.6711 H   0  0  0  0  0  0  0  0  0  0  0  0
    2.7497    4.3666    5.2472 H   0  0  0  0  0  0  0  0  0  0  0  0
    3.8232    5.5863    5.9791 H   0  0  0  0  0  0  0  0  0  0  0  0
    6.3452    3.7020    6.4055 H   0  0  0  0  0  0  0  0  0  0  0  0
    6.3568    5.3687    5.7630 H   0  0  0  0  0  0  0  0  0  0  0  0
    7.0776    4.0331    4.8235 H   0  0  0  0  0  0  0  0  0  0  0  0
  1  2  1  0
  1 32  1  0
  1 33  1  0
  1 34  1  0
  2  3  2  0
  3  4  1  0
  3 20  1  0
  4  5  1  0
  4 35  1  0
  5  6  1  0
  5 36  1  0
  5 37  1  0
  6  7  2  0
  6 19  1  0
  7  8  1  0
  7 38  1  0
  8  9  2  0
  8 39  1  0
  9 10  1  0
  9 40  1  0
 10 11  1  0
 10 19  2  0
 11 12  1  0
 11 41  1  0
 11 42  1  0
 12 13  1  0
 13 14  1  0
 13 18  1  0
 13 43  1  1
 14 15  1  0
 14 44  1  0
 14 45  1  0
 15 16  1  0
 15 46  1  0
 15 47  1  0
 16 17  1  0
 17 18  1  0
 17 48  1  0
 17 49  1  0
 18 50  1  0
 18 51  1  0
 19 52  1  0
 20 21  1  0
 20 22  1  0
 21 53  1  0
 21 54  1  0
 21 55  1  0
 22 23  1  0
 22 56  1  0
 22 57  1  0
 23 24  2  0
 23 28  1  0
 24 25  1  0
 24 58  1  0
 25 26  1  0
 25 27  1  0
 26 59  1  0
 26 60  1  0
 26 61  1  0
 27 28  2  0
 28 29  1  0
 29 30  1  0
 29 31  1  0
 29 62  1  6
 30 63  1  0
 30 64  1  0
 30 65  1  0
 31 66  1  0
 31 67  1  0
 31 68  1  0
M  END

