
     RDKit          3D

 63 67  0  0  0  0  0  0  0  0999 V2000
    1.5790   -3.0621   -0.3653 C   0  0  0  0  0  0  0  0  0  0  0  0
    2.8987   -2.5984   -0.6421 O   0  0  0  0  0  0  0  0  0  0  0  0
    3.1507   -1.3081   -0.3422 C   0  0  0  0  0  0  0  0  0  0  0  0
    2.3186   -0.5700    0.1341 O   0  0  0  0  0  0  0  0  0  0  0  0
    4.5528   -0.9088   -0.6618 C   0  0  0  0  0  0  0  0  0  0  0  0
    5.4871   -1.7999   -1.2153 C   0  0  0  0  0  0  0  0  0  0  0  0
    6.7840   -1.3722   -1.4947 C   0  0  0  0  0  0  0  0  0  0  0  0
    7.1783   -0.0509   -1.2293 C   0  0  0  0  0  0  0  0  0  0  0  0
    8.6083    0.3980   -1.4814 C   0  0  0  0  0  0  0  0  0  0  0  0
    9.1885   -0.1734   -2.6884 N   0  0  0  0  0  0  0  0  0  0  0  0
    8.6488    0.3464   -3.9430 C   0  0  0  0  0  0  0  0  0  0  0  0
    9.2419    1.7042   -4.3601 C   0  0  0  0  0  0  0  0  0  0  0  0
   10.7963    1.6886   -4.4044 C   0  0  1  0  0  0  0  0  0  0  0  0
   11.3176    1.1062   -3.0710 C   0  0  0  0  0  0  0  0  0  0  0  0
   10.6447   -0.2340   -2.7249 C   0  0  0  0  0  0  0  0  0  0  0  0
   11.3167    0.8825   -5.6377 C   0  0  0  0  0  0  0  0  0  0  0  0
   11.7318    1.8822   -6.6308 N   0  0  0  0  0  0  0  0  0  0  0  0
   12.1081    1.6083   -7.9405 C   0  0  0  0  0  0  0  0  0  0  0  0
   12.4477    2.4825   -8.7208 O   0  0  0  0  0  0  0  0  0  0  0  0
   12.0579    0.2617   -8.2660 N   0  0  0  0  0  0  0  0  0  0  0  0
   12.3399   -0.3469   -9.5049 C   0  0  0  0  0  0  0  0  0  0  0  0
   12.7127    0.3620  -10.6615 C   0  0  0  0  0  0  0  0  0  0  0  0
   12.9677   -0.3367  -11.8445 C   0  0  0  0  0  0  0  0  0  0  0  0
   12.8618   -1.7286  -11.9067 C   0  0  0  0  0  0  0  0  0  0  0  0
   12.4917   -2.4317  -10.7563 C   0  0  0  0  0  0  0  0  0  0  0  0
   12.2330   -1.7498   -9.5684 C   0  0  0  0  0  0  0  0  0  0  0  0
   11.8205    3.1532   -6.0200 C   0  0  0  0  0  0  0  0  0  0  0  0
   12.3071    4.3580   -6.5419 C   0  0  0  0  0  0  0  0  0  0  0  0
   12.3051    5.4885   -5.7157 C   0  0  0  0  0  0  0  0  0  0  0  0
   11.8242    5.4023   -4.4118 C   0  0  0  0  0  0  0  0  0  0  0  0
   11.8334    6.4977   -3.6320 F   0  0  0  0  0  0  0  0  0  0  0  0
   11.3279    4.2072   -3.8880 C   0  0  0  0  0  0  0  0  0  0  0  0
   11.3310    3.0804   -4.7057 C   0  0  0  0  0  0  0  0  0  0  0  0
    6.2373    0.8352   -0.6832 C   0  0  0  0  0  0  0  0  0  0  0  0
    4.9392    0.4133   -0.3980 C   0  0  0  0  0  0  0  0  0  0  0  0
    1.5548   -4.1166   -0.6670 H   0  0  0  0  0  0  0  0  0  0  0  0
    0.8331   -2.4853   -0.9332 H   0  0  0  0  0  0  0  0  0  0  0  0
    1.3461   -2.9663    0.7063 H   0  0  0  0  0  0  0  0  0  0  0  0
    5.1875   -2.8280   -1.4231 H   0  0  0  0  0  0  0  0  0  0  0  0
    7.5116   -2.0576   -1.9345 H   0  0  0  0  0  0  0  0  0  0  0  0
    9.2272    0.0602   -0.6309 H   0  0  0  0  0  0  0  0  0  0  0  0
    8.6378    1.5087   -1.4472 H   0  0  0  0  0  0  0  0  0  0  0  0
    7.5538    0.4216   -3.8602 H   0  0  0  0  0  0  0  0  0  0  0  0
    8.8430   -0.4021   -4.7338 H   0  0  0  0  0  0  0  0  0  0  0  0
    8.9257    2.4845   -3.6480 H   0  0  0  0  0  0  0  0  0  0  0  0
    8.8439    2.0072   -5.3431 H   0  0  0  0  0  0  0  0  0  0  0  0
   11.1170    1.8322   -2.2650 H   0  0  0  0  0  0  0  0  0  0  0  0
   12.4133    0.9864   -3.1143 H   0  0  0  0  0  0  0  0  0  0  0  0
   11.0130   -0.6041   -1.7547 H   0  0  0  0  0  0  0  0  0  0  0  0
   10.9363   -0.9940   -3.4746 H   0  0  0  0  0  0  0  0  0  0  0  0
   10.5346    0.2286   -6.0542 H   0  0  0  0  0  0  0  0  0  0  0  0
   12.1761    0.2452   -5.3537 H   0  0  0  0  0  0  0  0  0  0  0  0
   11.8148   -0.3886   -7.5313 H   0  0  0  0  0  0  0  0  0  0  0  0
   12.7996    1.4445  -10.6176 H   0  0  0  0  0  0  0  0  0  0  0  0
   13.2565    0.2275  -12.7354 H   0  0  0  0  0  0  0  0  0  0  0  0
   13.0651   -2.2601  -12.8392 H   0  0  0  0  0  0  0  0  0  0  0  0
   12.4021   -3.5208  -10.7800 H   0  0  0  0  0  0  0  0  0  0  0  0
   11.9428   -2.3107   -8.6740 H   0  0  0  0  0  0  0  0  0  0  0  0
   12.6736    4.4041   -7.5641 H   0  0  0  0  0  0  0  0  0  0  0  0
   12.6795    6.4473   -6.0799 H   0  0  0  0  0  0  0  0  0  0  0  0
   10.9532    4.1878   -2.8626 H   0  0  0  0  0  0  0  0  0  0  0  0
    6.5255    1.8708   -0.4798 H   0  0  0  0  0  0  0  0  0  0  0  0
    4.2025    1.0982    0.0261 H   0  0  0  0  0  0  0  0  0  0  0  0
  1  2  1  0
  1 36  1  0
  1 37  1  0
  1 38  1  0
  2  3  1  0
  3  4  2  0
  3  5  1  0
  5  6  2  0
  5 35  1  0
  6  7  1  0
  6 39  1  0
  7  8  2  0
  7 40  1  0
  8  9  1  0
  8 34  1  0
  9 10  1  0
  9 41  1  0
  9 42  1  0
 10 11  1  0
 10 15  1  0
 11 12  1  0
 11 43  1  0
 11 44  1  0
 13 12  1  1
 12 45  1  0
 12 46  1  0
 13 14  1  0
 13 16  1  0
 13 33  1  0
 14 15  1  0
 14 47  1  0
 14 48  1  0
 15 49  1  0
 15 50  1  0
 16 17  1  0
 16 51  1  0
 16 52  1  0
 17 18  1  0
 17 27  1  0
 18 19  2  0
 18 20  1  0
 20 21  1  0
 20 53  1  0
 21 22  2  0
 21 26  1  0
 22 23  1  0
 22 54  1  0
 23 24  2  0
 23 55  1  0
 24 25  1  0
 24 56  1  0
 25 26  2  0
 25 57  1  0
 26 58  1  0
 27 28  1  0
 27 33  2  0
 28 29  2  0
 28 59  1  0
 29 30  1  0
 29 60  1  0
 30 31  1  0
 30 32  2  0
 32 33  1  0
 32 61  1  0
 34 35  2  0
 34 62  1  0
 35 63  1  0
M  END

