
     RDKit          3D

 44 46  0  0  0  0  0  0  0  0999 V2000
    0.9584    0.1358    0.4002 C   0  0  0  0  0  0  0  0  0  0  0  0
    2.4787    0.2868    0.2335 C   0  0  1  0  0  0  0  0  0  0  0  0
    2.7485   -0.1400   -0.7442 H   0  0  0  0  0  0  0  0  0  0  0  0
    2.8832    1.6971    0.1854 N   0  0  0  0  0  0  0  0  0  0  0  0
    2.8035    2.4419   -0.9488 C   0  0  0  0  0  0  0  0  0  0  0  0
    2.3579    1.9633   -2.0101 O   0  0  0  0  0  0  0  0  0  0  0  0
    3.2518    3.8322   -0.9115 C   0  0  0  0  0  0  0  0  0  0  0  0
    3.1760    4.6012   -2.0355 C   0  0  0  0  0  0  0  0  0  0  0  0
    2.7347    4.2556   -3.2223 O   0  0  0  0  0  0  0  0  0  0  0  0
    3.6909    5.9862   -1.7420 C   0  0  0  0  0  0  0  0  0  0  0  0
    3.7756    6.9337   -2.4938 O   0  0  0  0  0  0  0  0  0  0  0  0
    4.0525    5.9466   -0.4103 N   0  0  0  0  0  0  0  0  0  0  0  0
    4.6068    7.0788    0.2879 C   0  0  0  0  0  0  0  0  0  0  0  0
    3.8274    4.6563    0.2133 C   0  0  0  0  0  0  0  0  0  0  0  0
    3.2768   -0.4261    1.3146 C   0  0  0  0  0  0  0  0  0  0  0  0
    4.1669   -1.4595    0.9906 C   0  0  0  0  0  0  0  0  0  0  0  0
    4.9052   -2.0979    1.9903 C   0  0  0  0  0  0  0  0  0  0  0  0
    4.7751   -1.7038    3.3229 C   0  0  0  0  0  0  0  0  0  0  0  0
    3.8977   -0.6621    3.6716 C   0  0  0  0  0  0  0  0  0  0  0  0
    3.7486   -0.2564    5.0955 C   0  0  0  0  0  0  0  0  0  0  0  0
    3.5278   -1.2292    6.0881 C   0  0  0  0  0  0  0  0  0  0  0  0
    3.3912   -0.8560    7.4248 C   0  0  0  0  0  0  0  0  0  0  0  0
    3.4613    0.4111    7.8405 N   0  0  0  0  0  0  0  0  0  0  0  0
    3.6766    1.3509    6.9247 C   0  0  0  0  0  0  0  0  0  0  0  0
    3.8252    1.0713    5.5590 C   0  0  0  0  0  0  0  0  0  0  0  0
    4.1544    2.4254    4.4935 Cl  0  0  0  0  0  0  0  0  0  0  0  0
    3.1472   -0.0463    2.6576 C   0  0  0  0  0  0  0  0  0  0  0  0
    0.4446    0.6369   -0.4330 H   0  0  0  0  0  0  0  0  0  0  0  0
    0.6095    0.5796    1.3461 H   0  0  0  0  0  0  0  0  0  0  0  0
    0.6759   -0.9285    0.3947 H   0  0  0  0  0  0  0  0  0  0  0  0
    3.2707    2.1120    1.0246 H   0  0  0  0  0  0  0  0  0  0  0  0
    2.4667    3.2986   -3.1180 H   0  0  0  0  0  0  0  0  0  0  0  0
    4.6641    7.9136   -0.4244 H   0  0  0  0  0  0  0  0  0  0  0  0
    5.6213    6.8645    0.6688 H   0  0  0  0  0  0  0  0  0  0  0  0
    3.9729    7.3802    1.1408 H   0  0  0  0  0  0  0  0  0  0  0  0
    3.1341    4.7489    1.0739 H   0  0  0  0  0  0  0  0  0  0  0  0
    4.7757    4.2376    0.6075 H   0  0  0  0  0  0  0  0  0  0  0  0
    4.2846   -1.7632   -0.0530 H   0  0  0  0  0  0  0  0  0  0  0  0
    5.5973   -2.9016    1.7272 H   0  0  0  0  0  0  0  0  0  0  0  0
    5.3721   -2.1914    4.0971 H   0  0  0  0  0  0  0  0  0  0  0  0
    3.4440   -2.2799    5.8020 H   0  0  0  0  0  0  0  0  0  0  0  0
    3.2122   -1.6173    8.1925 H   0  0  0  0  0  0  0  0  0  0  0  0
    3.7451    2.3892    7.2669 H   0  0  0  0  0  0  0  0  0  0  0  0
    2.4434    0.7428    2.9309 H   0  0  0  0  0  0  0  0  0  0  0  0
  1  2  1  0
  1 28  1  0
  1 29  1  0
  1 30  1  0
  2  3  1  6
  2  4  1  0
  2 15  1  0
  4  5  1  0
  4 31  1  0
  5  6  2  0
  5  7  1  0
  7  8  2  0
  7 14  1  0
  8  9  1  0
  8 10  1  0
  9 32  1  0
 10 11  2  0
 10 12  1  0
 12 13  1  0
 12 14  1  0
 13 33  1  0
 13 34  1  0
 13 35  1  0
 14 36  1  0
 14 37  1  0
 15 16  2  0
 15 27  1  0
 16 17  1  0
 16 38  1  0
 17 18  2  0
 17 39  1  0
 18 19  1  0
 18 40  1  0
 19 20  1  0
 19 27  2  0
 20 21  2  0
 20 25  1  0
 21 22  1  0
 21 41  1  0
 22 23  2  0
 22 42  1  0
 23 24  1  0
 24 25  2  0
 24 43  1  0
 25 26  1  0
 27 44  1  0
M  END

