
     RDKit          3D

 36 36  0  0  0  0  0  0  0  0999 V2000
    0.9701   -0.2992   -0.1932 C   0  0  0  0  0  0  0  0  0  0  0  0
    2.4469    0.0938    0.0198 C   0  0  1  0  0  0  0  0  0  0  0  0
    2.9818    0.7707   -1.2565 C   0  0  0  0  0  0  0  0  0  0  0  0
    2.5066    1.0804    1.2033 C   0  0  0  0  0  0  0  0  0  0  0  0
    3.2685   -1.2056    0.3470 C   0  0  1  0  0  0  0  0  0  0  0  0
    3.0064   -2.3560   -0.5255 N   0  0  0  0  0  0  0  0  0  0  0  0
    4.8039   -0.9773    0.4532 C   0  0  0  0  0  0  0  0  0  0  0  0
    5.2958    0.0483    0.8939 O   0  0  0  0  0  0  0  0  0  0  0  0
    5.5251   -2.0703    0.0488 N   0  0  0  0  0  0  0  0  0  0  0  0
    6.9087   -2.2701    0.0523 C   0  0  0  0  0  0  0  0  0  0  0  0
    7.8225   -1.2933    0.4943 C   0  0  0  0  0  0  0  0  0  0  0  0
    9.1868   -1.5789    0.4614 C   0  0  0  0  0  0  0  0  0  0  0  0
   10.3165   -0.3636    1.0107 Cl  0  0  0  0  0  0  0  0  0  0  0  0
    9.6813   -2.8033    0.0039 C   0  0  0  0  0  0  0  0  0  0  0  0
    8.7638   -3.7625   -0.4308 C   0  0  0  0  0  0  0  0  0  0  0  0
    9.2364   -5.1047   -0.9361 C   0  0  1  0  0  0  0  0  0  0  0  0
   10.5727   -5.2204   -0.9047 F   0  0  0  0  0  0  0  0  0  0  0  0
    8.7269   -6.1130   -0.2027 F   0  0  0  0  0  0  0  0  0  0  0  0
    8.8433   -5.3169   -2.2071 F   0  0  0  0  0  0  0  0  0  0  0  0
    7.3914   -3.5065   -0.4098 C   0  0  0  0  0  0  0  0  0  0  0  0
    0.3576    0.6052   -0.3335 H   0  0  0  0  0  0  0  0  0  0  0  0
    0.5654   -0.8373    0.6811 H   0  0  0  0  0  0  0  0  0  0  0  0
    0.8225   -0.9331   -1.0814 H   0  0  0  0  0  0  0  0  0  0  0  0
    2.3529    1.6344   -1.5252 H   0  0  0  0  0  0  0  0  0  0  0  0
    2.9709    0.0869   -2.1235 H   0  0  0  0  0  0  0  0  0  0  0  0
    4.0105    1.1329   -1.1164 H   0  0  0  0  0  0  0  0  0  0  0  0
    1.8892    1.9675    0.9864 H   0  0  0  0  0  0  0  0  0  0  0  0
    3.5342    1.4031    1.4054 H   0  0  0  0  0  0  0  0  0  0  0  0
    2.1058    0.6161    2.1205 H   0  0  0  0  0  0  0  0  0  0  0  0
    2.9748   -1.5150    1.3670 H   0  0  0  0  0  0  0  0  0  0  0  0
    2.9373   -2.0690   -1.5027 H   0  0  0  0  0  0  0  0  0  0  0  0
    2.1289   -2.8125   -0.2878 H   0  0  0  0  0  0  0  0  0  0  0  0
    4.9203   -2.8201   -0.2956 H   0  0  0  0  0  0  0  0  0  0  0  0
    7.4563   -0.3355    0.8543 H   0  0  0  0  0  0  0  0  0  0  0  0
   10.7521   -2.9999   -0.0113 H   0  0  0  0  0  0  0  0  0  0  0  0
    6.6895   -4.2700   -0.7529 H   0  0  0  0  0  0  0  0  0  0  0  0
  2  1  1  6
  1 21  1  0
  1 22  1  0
  1 23  1  0
  2  3  1  0
  2  4  1  0
  2  5  1  0
  3 24  1  0
  3 25  1  0
  3 26  1  0
  4 27  1  0
  4 28  1  0
  4 29  1  0
  5  6  1  0
  5  7  1  0
  5 30  1  1
  6 31  1  0
  6 32  1  0
  7  8  2  0
  7  9  1  0
  9 10  1  0
  9 33  1  0
 10 11  2  0
 10 20  1  0
 11 12  1  0
 11 34  1  0
 12 13  1  0
 12 14  2  0
 14 15  1  0
 14 35  1  0
 15 16  1  0
 15 20  2  0
 16 17  1  6
 16 18  1  0
 16 19  1  0
 20 36  1  0
M  END

