
     RDKit          3D

 66 69  0  0  0  0  0  0  0  0999 V2000
    4.9727    0.6503    0.4508 C   0  0  0  0  0  0  0  0  0  0  0  0
    4.2576    0.6089    1.7143 N   0  0  0  0  0  0  0  0  0  0  0  0
    5.0826    0.0460    2.7682 C   0  0  0  0  0  0  0  0  0  0  0  0
    2.9191    0.0293    1.5598 C   0  0  2  0  0  0  0  0  0  0  0  0
    2.9576   -0.9007    0.9501 H   0  0  0  0  0  0  0  0  0  0  0  0
    1.9470    1.0669    0.9608 C   0  0  0  0  0  0  0  0  0  0  0  0
    1.6256    1.9601    2.1650 C   0  0  0  0  0  0  0  0  0  0  0  0
    1.7082    1.0446    3.3247 N   0  0  0  0  0  0  0  0  0  0  0  0
    0.8580    1.1492    4.4276 C   0  0  0  0  0  0  0  0  0  0  0  0
    0.2506   -0.0072    4.9693 C   0  0  0  0  0  0  0  0  0  0  0  0
   -0.6633    0.0296    6.0363 C   0  0  0  0  0  0  0  0  0  0  0  0
   -1.2991   -1.1165    6.5321 N   0  0  0  0  0  0  0  0  0  0  0  0
   -1.2378   -1.3780    7.9713 C   0  0  0  0  0  0  0  0  0  0  0  0
   -2.3416   -2.3397    8.4062 C   0  0  0  0  0  0  0  0  0  0  0  0
   -2.2701   -3.5701    7.6297 N   0  0  0  0  0  0  0  0  0  0  0  0
   -2.8249   -4.7433    8.1481 C   0  0  0  0  0  0  0  0  0  0  0  0
   -3.7844   -4.7219    9.1817 C   0  0  0  0  0  0  0  0  0  0  0  0
   -4.3168   -5.8995    9.7057 C   0  0  0  0  0  0  0  0  0  0  0  0
   -3.9229   -7.1477    9.2132 C   0  0  0  0  0  0  0  0  0  0  0  0
   -2.9676   -7.2017    8.2022 C   0  0  0  0  0  0  0  0  0  0  0  0
   -2.4040   -6.0237    7.6769 C   0  0  0  0  0  0  0  0  0  0  0  0
   -1.3438   -6.1455    6.7196 C   0  0  0  0  0  0  0  0  0  0  0  0
   -0.4776   -6.2595    5.9528 N   0  0  0  0  0  0  0  0  0  0  0  0
   -2.3522   -3.2998    6.1925 C   0  0  0  0  0  0  0  0  0  0  0  0
   -1.2487   -2.3430    5.7497 C   0  0  0  0  0  0  0  0  0  0  0  0
   -0.9694    1.3087    6.5576 C   0  0  0  0  0  0  0  0  0  0  0  0
   -1.8821    1.4214    7.5499 F   0  0  0  0  0  0  0  0  0  0  0  0
   -0.3509    2.4483    6.0952 C   0  0  0  0  0  0  0  0  0  0  0  0
    0.5951    2.4044    5.0508 C   0  0  0  0  0  0  0  0  0  0  0  0
    1.3473    3.6090    4.7096 C   0  0  0  0  0  0  0  0  0  0  0  0
    0.9824    4.7888    5.0781 N   0  0  0  0  0  0  0  0  0  0  0  0
    1.7932    5.8262    4.7891 N   0  0  0  0  0  0  0  0  0  0  0  0
    1.4702    7.1233    5.1116 C   0  0  0  0  0  0  0  0  0  0  0  0
    0.2846    7.2772    5.7340 N   0  0  0  0  0  0  0  0  0  0  0  0
    2.5171    8.3687    4.7301 S   0  0  0  0  0  0  0  0  0  0  0  0
    2.1872   -0.2605    2.8752 C   0  0  0  0  0  0  0  0  0  0  0  0
    5.9086    1.2195    0.5638 H   0  0  0  0  0  0  0  0  0  0  0  0
    4.3754    1.1510   -0.3250 H   0  0  0  0  0  0  0  0  0  0  0  0
    5.2360   -0.3628    0.0659 H   0  0  0  0  0  0  0  0  0  0  0  0
    6.0637    0.5452    2.7588 H   0  0  0  0  0  0  0  0  0  0  0  0
    5.2676   -1.0480    2.6600 H   0  0  0  0  0  0  0  0  0  0  0  0
    4.6420    0.2258    3.7591 H   0  0  0  0  0  0  0  0  0  0  0  0
    1.0421    0.5535    0.5972 H   0  0  0  0  0  0  0  0  0  0  0  0
    2.3681    1.6356    0.1207 H   0  0  0  0  0  0  0  0  0  0  0  0
    0.6290    2.4265    2.1010 H   0  0  0  0  0  0  0  0  0  0  0  0
    2.3753    2.7638    2.2310 H   0  0  0  0  0  0  0  0  0  0  0  0
    0.4909   -0.9741    4.5374 H   0  0  0  0  0  0  0  0  0  0  0  0
   -1.3480   -0.4386    8.5234 H   0  0  0  0  0  0  0  0  0  0  0  0
   -0.2551   -1.8211    8.2380 H   0  0  0  0  0  0  0  0  0  0  0  0
   -3.3244   -1.8357    8.2901 H   0  0  0  0  0  0  0  0  0  0  0  0
   -2.2014   -2.5735    9.4714 H   0  0  0  0  0  0  0  0  0  0  0  0
   -4.1380   -3.7650    9.5657 H   0  0  0  0  0  0  0  0  0  0  0  0
   -5.0652   -5.8375   10.5001 H   0  0  0  0  0  0  0  0  0  0  0  0
   -4.3482   -8.0677    9.6190 H   0  0  0  0  0  0  0  0  0  0  0  0
   -2.6217   -8.1630    7.8167 H   0  0  0  0  0  0  0  0  0  0  0  0
   -3.3376   -2.8474    5.9534 H   0  0  0  0  0  0  0  0  0  0  0  0
   -2.2624   -4.2306    5.6217 H   0  0  0  0  0  0  0  0  0  0  0  0
   -1.4055   -2.1000    4.6886 H   0  0  0  0  0  0  0  0  0  0  0  0
   -0.2699   -2.8590    5.8412 H   0  0  0  0  0  0  0  0  0  0  0  0
   -0.5830    3.4023    6.5697 H   0  0  0  0  0  0  0  0  0  0  0  0
    2.2927    3.4703    4.1636 H   0  0  0  0  0  0  0  0  0  0  0  0
    2.6877    5.6989    4.3123 H   0  0  0  0  0  0  0  0  0  0  0  0
   -0.3002    6.4684    5.9153 H   0  0  0  0  0  0  0  0  0  0  0  0
   -0.0022    8.2114    5.9884 H   0  0  0  0  0  0  0  0  0  0  0  0
    1.3562   -0.9558    2.6390 H   0  0  0  0  0  0  0  0  0  0  0  0
    2.8004   -0.7504    3.6450 H   0  0  0  0  0  0  0  0  0  0  0  0
  1  2  1  0
  1 37  1  0
  1 38  1  0
  1 39  1  0
  2  3  1  0
  2  4  1  0
  3 40  1  0
  3 41  1  0
  3 42  1  0
  4  5  1  6
  4  6  1  0
  4 36  1  0
  6  7  1  0
  6 43  1  0
  6 44  1  0
  7  8  1  0
  7 45  1  0
  7 46  1  0
  8  9  1  0
  8 36  1  0
  9 10  2  0
  9 29  1  0
 10 11  1  0
 10 47  1  0
 11 12  1  0
 11 26  2  0
 12 13  1  0
 12 25  1  0
 13 14  1  0
 13 48  1  0
 13 49  1  0
 14 15  1  0
 14 50  1  0
 14 51  1  0
 15 16  1  0
 15 24  1  0
 16 17  2  0
 16 21  1  0
 17 18  1  0
 17 52  1  0
 18 19  2  0
 18 53  1  0
 19 20  1  0
 19 54  1  0
 20 21  2  0
 20 55  1  0
 21 22  1  0
 22 23  3  0
 24 25  1  0
 24 56  1  0
 24 57  1  0
 25 58  1  0
 25 59  1  0
 26 27  1  0
 26 28  1  0
 28 29  2  0
 28 60  1  0
 29 30  1  0
 30 31  2  0
 30 61  1  0
 31 32  1  0
 32 33  1  0
 32 62  1  0
 33 34  1  0
 33 35  2  0
 34 63  1  0
 34 64  1  0
 36 65  1  0
 36 66  1  0
M  END

