
     RDKit          3D

 29 30  0  0  0  0  0  0  0  0999 V2000
    1.1183   -0.2801    2.4085 C   0  0  0  0  0  0  0  0  0  0  0  0
    2.5344   -0.3456    2.2361 O   0  0  0  0  0  0  0  0  0  0  0  0
    3.0701    0.5310    1.3650 C   0  0  0  0  0  0  0  0  0  0  0  0
    2.3936    1.3318    0.7600 O   0  0  0  0  0  0  0  0  0  0  0  0
    4.5564    0.3704    1.2643 C   0  0  0  0  0  0  0  0  0  0  0  0
    5.2013   -0.6196    2.0260 C   0  0  0  0  0  0  0  0  0  0  0  0
    6.5767   -0.7930    1.9513 C   0  0  0  0  0  0  0  0  0  0  0  0
    7.3213    0.0457    1.0931 C   0  0  0  0  0  0  0  0  0  0  0  0
    8.7989   -0.0246    0.9099 C   0  0  0  0  0  0  0  0  0  0  0  0
    9.4122    0.8852    0.0203 C   0  0  0  0  0  0  0  0  0  0  0  0
   10.7858    0.8817   -0.2039 C   0  0  0  0  0  0  0  0  0  0  0  0
   11.6017   -0.0413    0.4605 C   0  0  0  0  0  0  0  0  0  0  0  0
   11.0305   -0.9549    1.3460 C   0  0  0  0  0  0  0  0  0  0  0  0
    9.6542   -0.9353    1.5567 C   0  0  0  0  0  0  0  0  0  0  0  0
    9.1629   -1.8435    2.4239 F   0  0  0  0  0  0  0  0  0  0  0  0
    6.6995    0.9858    0.3736 N   0  0  0  0  0  0  0  0  0  0  0  0
    5.3840    1.1686    0.4306 C   0  0  0  0  0  0  0  0  0  0  0  0
    4.8806    2.2918   -0.4646 C   0  0  0  0  0  0  0  0  0  0  0  0
    5.6312    2.9372   -1.1546 O   0  0  0  0  0  0  0  0  0  0  0  0
    0.8652   -1.0558    3.1414 H   0  0  0  0  0  0  0  0  0  0  0  0
    0.6002   -0.4682    1.4562 H   0  0  0  0  0  0  0  0  0  0  0  0
    0.8159    0.7109    2.7789 H   0  0  0  0  0  0  0  0  0  0  0  0
    4.6068   -1.2558    2.6814 H   0  0  0  0  0  0  0  0  0  0  0  0
    7.0629   -1.5619    2.5454 H   0  0  0  0  0  0  0  0  0  0  0  0
    8.7567    1.5949   -0.4866 H   0  0  0  0  0  0  0  0  0  0  0  0
   11.2228    1.6015   -0.8996 H   0  0  0  0  0  0  0  0  0  0  0  0
   12.6812   -0.0523    0.2915 H   0  0  0  0  0  0  0  0  0  0  0  0
   11.6287   -1.6920    1.8850 H   0  0  0  0  0  0  0  0  0  0  0  0
    3.7890    2.4775   -0.4418 H   0  0  0  0  0  0  0  0  0  0  0  0
  1  2  1  0
  1 20  1  0
  1 21  1  0
  1 22  1  0
  2  3  1  0
  3  4  2  0
  3  5  1  0
  5  6  2  0
  5 17  1  0
  6  7  1  0
  6 23  1  0
  7  8  2  0
  7 24  1  0
  8  9  1  0
  8 16  1  0
  9 10  2  0
  9 14  1  0
 10 11  1  0
 10 25  1  0
 11 12  2  0
 11 26  1  0
 12 13  1  0
 12 27  1  0
 13 14  2  0
 13 28  1  0
 14 15  1  0
 16 17  2  0
 17 18  1  0
 18 19  2  0
 18 29  1  0
M  END

