
     RDKit          3D

 52 55  0  0  0  0  0  0  0  0999 V2000
    1.1263    0.0971    0.9147 C   0  0  0  0  0  0  0  0  0  0  0  0
    2.6267    0.1014    0.6926 C   0  0  0  0  0  0  0  0  0  0  0  0
    2.9258    1.0933   -0.2758 O   0  0  0  0  0  0  0  0  0  0  0  0
    4.2121    1.3071   -0.6485 C   0  0  0  0  0  0  0  0  0  0  0  0
    4.4262    2.3226   -1.5975 C   0  0  0  0  0  0  0  0  0  0  0  0
    5.7049    2.6171   -2.0517 C   0  0  0  0  0  0  0  0  0  0  0  0
    6.8176    1.9067   -1.5609 C   0  0  0  0  0  0  0  0  0  0  0  0
    8.1286    2.2140   -2.0112 N   0  0  0  0  0  0  0  0  0  0  0  0
    8.5793    3.5012   -2.2446 C   0  0  0  0  0  0  0  0  0  0  0  0
    7.9537    4.5330   -2.1492 O   0  0  0  0  0  0  0  0  0  0  0  0
   10.0445    3.3587   -2.6342 C   0  0  0  0  0  0  0  0  0  0  0  0
   10.7885    4.3110   -2.9093 O   0  0  0  0  0  0  0  0  0  0  0  0
   10.3827    1.9675   -2.6146 C   0  0  0  0  0  0  0  0  0  0  0  0
   11.6949    1.5981   -2.9214 C   0  0  0  0  0  0  0  0  0  0  0  0
   12.5393    2.5604   -3.2444 O   0  0  0  0  0  0  0  0  0  0  0  0
   12.2886    0.2517   -2.9484 C   0  0  0  0  0  0  0  0  0  0  0  0
   13.5279    0.0705   -3.6071 C   0  0  0  0  0  0  0  0  0  0  0  0
   14.1403   -1.1700   -3.6559 C   0  0  0  0  0  0  0  0  0  0  0  0
   13.5432   -2.2835   -3.0322 C   0  0  0  0  0  0  0  0  0  0  0  0
   14.2123   -3.4505   -3.1300 O   0  0  0  0  0  0  0  0  0  0  0  0
   13.6798   -4.6164   -2.5353 C   0  0  0  0  0  0  0  0  0  0  0  0
   12.3213   -2.1194   -2.3584 C   0  0  0  0  0  0  0  0  0  0  0  0
   11.7090   -0.8666   -2.3262 C   0  0  0  0  0  0  0  0  0  0  0  0
    9.1393    1.1602   -2.2843 C   0  0  2  0  0  0  0  0  0  0  0  0
    8.6806    0.2074   -3.3666 C   0  0  0  0  0  0  0  0  0  0  0  0
    8.1168   -1.0379   -3.2163 C   0  0  0  0  0  0  0  0  0  0  0  0
    7.7348   -1.6380   -4.4543 C   0  0  0  0  0  0  0  0  0  0  0  0
    8.0099   -0.8340   -5.5308 C   0  0  0  0  0  0  0  0  0  0  0  0
    8.7441    0.6554   -5.0504 S   0  0  0  0  0  0  0  0  0  0  0  0
    6.6025    0.9026   -0.6094 C   0  0  0  0  0  0  0  0  0  0  0  0
    5.3153    0.5944   -0.1564 C   0  0  0  0  0  0  0  0  0  0  0  0
    0.8535   -0.6635    1.6626 H   0  0  0  0  0  0  0  0  0  0  0  0
    0.5955   -0.1288   -0.0228 H   0  0  0  0  0  0  0  0  0  0  0  0
    0.7844    1.0794    1.2749 H   0  0  0  0  0  0  0  0  0  0  0  0
    2.9730   -0.8891    0.3398 H   0  0  0  0  0  0  0  0  0  0  0  0
    3.1617    0.3204    1.6364 H   0  0  0  0  0  0  0  0  0  0  0  0
    3.5600    2.8722   -1.9711 H   0  0  0  0  0  0  0  0  0  0  0  0
    5.8532    3.4138   -2.7787 H   0  0  0  0  0  0  0  0  0  0  0  0
   12.0382    3.4484   -3.1949 H   0  0  0  0  0  0  0  0  0  0  0  0
   13.9988    0.9292   -4.0857 H   0  0  0  0  0  0  0  0  0  0  0  0
   15.0912   -1.3142   -4.1722 H   0  0  0  0  0  0  0  0  0  0  0  0
   14.3881   -5.4268   -2.7514 H   0  0  0  0  0  0  0  0  0  0  0  0
   12.6945   -4.8776   -2.9600 H   0  0  0  0  0  0  0  0  0  0  0  0
   13.5816   -4.5081   -1.4407 H   0  0  0  0  0  0  0  0  0  0  0  0
   11.8394   -2.9575   -1.8558 H   0  0  0  0  0  0  0  0  0  0  0  0
   10.7709   -0.7731   -1.7842 H   0  0  0  0  0  0  0  0  0  0  0  0
    9.2764    0.5673   -1.3639 H   0  0  0  0  0  0  0  0  0  0  0  0
    7.9701   -1.5096   -2.2430 H   0  0  0  0  0  0  0  0  0  0  0  0
    7.2750   -2.6238   -4.5401 H   0  0  0  0  0  0  0  0  0  0  0  0
    7.8303   -1.0361   -6.5860 H   0  0  0  0  0  0  0  0  0  0  0  0
    7.4467    0.3500   -0.1931 H   0  0  0  0  0  0  0  0  0  0  0  0
    5.1919   -0.1949    0.5849 H   0  0  0  0  0  0  0  0  0  0  0  0
  1  2  1  0
  1 32  1  0
  1 33  1  0
  1 34  1  0
  2  3  1  0
  2 35  1  0
  2 36  1  0
  3  4  1  0
  4  5  2  0
  4 31  1  0
  5  6  1  0
  5 37  1  0
  6  7  2  0
  6 38  1  0
  7  8  1  0
  7 30  1  0
  8  9  1  0
  8 24  1  0
  9 10  2  0
  9 11  1  0
 11 12  2  0
 11 13  1  0
 13 14  2  0
 13 24  1  0
 14 15  1  0
 14 16  1  0
 15 39  1  0
 16 17  2  0
 16 23  1  0
 17 18  1  0
 17 40  1  0
 18 19  2  0
 18 41  1  0
 19 20  1  0
 19 22  1  0
 20 21  1  0
 21 42  1  0
 21 43  1  0
 21 44  1  0
 22 23  2  0
 22 45  1  0
 23 46  1  0
 24 25  1  0
 24 47  1  1
 25 26  2  0
 25 29  1  0
 26 27  1  0
 26 48  1  0
 27 28  2  0
 27 49  1  0
 28 29  1  0
 28 50  1  0
 30 31  2  0
 30 51  1  0
 31 52  1  0
M  END

