
     RDKit          3D

 44 45  0  0  0  0  0  0  0  0999 V2000
    1.2714    2.0098    2.5672 C   0  0  0  0  0  0  0  0  0  0  0  0
    2.7733    1.7280    2.5328 C   0  0  0  0  0  0  0  0  0  0  0  0
    3.1197    0.2571    2.7613 C   0  0  0  0  0  0  0  0  0  0  0  0
    4.5502    0.0242    2.6743 N   0  0  0  0  0  0  0  0  0  0  0  0
    4.9488   -1.3621    2.8677 C   0  0  0  0  0  0  0  0  0  0  0  0
    6.4339   -1.5408    2.7695 C   0  0  0  0  0  0  0  0  0  0  0  0
    7.3917   -1.5596    3.7696 C   0  0  0  0  0  0  0  0  0  0  0  0
    8.5725   -1.7132    3.1145 N   0  0  0  0  0  0  0  0  0  0  0  0
    9.9185   -1.8241    3.6960 C   0  0  1  0  0  0  0  0  0  0  0  0
   10.5016   -3.2441    3.5615 C   0  0  0  0  0  0  0  0  0  0  0  0
   11.0085   -3.5585    2.1495 C   0  0  0  0  0  0  0  0  0  0  0  0
   12.0062   -2.4984    1.6575 C   0  0  0  0  0  0  0  0  0  0  0  0
   11.3957   -1.0949    1.7301 C   0  0  2  0  0  0  0  0  0  0  0  0
   12.6204    0.2062    1.2990 S   0  0  1  0  0  0  0  0  0  0  0  0
   12.9028    0.0260   -0.4762 C   0  0  0  0  0  0  0  0  0  0  0  0
   11.9703    1.5113    1.5016 O   0  0  0  0  0  0  0  0  0  0  0  0
   13.8842   -0.1060    1.9899 O   0  0  0  0  0  0  0  0  0  0  0  0
   10.8815   -0.7604    3.1385 C   0  0  0  0  0  0  0  0  0  0  0  0
    8.3565   -1.7899    1.7887 N   0  0  0  0  0  0  0  0  0  0  0  0
    7.0808   -1.6843    1.5782 N   0  0  0  0  0  0  0  0  0  0  0  0
    1.0600    3.0784    2.4048 H   0  0  0  0  0  0  0  0  0  0  0  0
    0.8282    1.7277    3.5371 H   0  0  0  0  0  0  0  0  0  0  0  0
    0.7391    1.4440    1.7843 H   0  0  0  0  0  0  0  0  0  0  0  0
    3.2808    2.3401    3.3019 H   0  0  0  0  0  0  0  0  0  0  0  0
    3.2026    2.0379    1.5652 H   0  0  0  0  0  0  0  0  0  0  0  0
    2.6256   -0.3585    1.9867 H   0  0  0  0  0  0  0  0  0  0  0  0
    2.6825   -0.0783    3.7332 H   0  0  0  0  0  0  0  0  0  0  0  0
    5.0471    0.6240    3.3327 H   0  0  0  0  0  0  0  0  0  0  0  0
    4.4804   -1.9688    2.0746 H   0  0  0  0  0  0  0  0  0  0  0  0
    4.5989   -1.7880    3.8368 H   0  0  0  0  0  0  0  0  0  0  0  0
    7.3268   -1.4835    4.8519 H   0  0  0  0  0  0  0  0  0  0  0  0
    9.7676   -1.6088    4.7642 H   0  0  0  0  0  0  0  0  0  0  0  0
    9.7490   -3.9818    3.8829 H   0  0  0  0  0  0  0  0  0  0  0  0
   11.3411   -3.3147    4.2753 H   0  0  0  0  0  0  0  0  0  0  0  0
   10.1555   -3.6123    1.4556 H   0  0  0  0  0  0  0  0  0  0  0  0
   11.4925   -4.5487    2.1454 H   0  0  0  0  0  0  0  0  0  0  0  0
   12.3157   -2.7334    0.6262 H   0  0  0  0  0  0  0  0  0  0  0  0
   12.9194   -2.5130    2.2760 H   0  0  0  0  0  0  0  0  0  0  0  0
   10.5777   -0.9766    1.0037 H   0  0  0  0  0  0  0  0  0  0  0  0
   11.9547    0.1711   -1.0101 H   0  0  0  0  0  0  0  0  0  0  0  0
   13.3504   -0.9526   -0.6901 H   0  0  0  0  0  0  0  0  0  0  0  0
   13.6087    0.8307   -0.7238 H   0  0  0  0  0  0  0  0  0  0  0  0
   10.4048    0.2297    3.1423 H   0  0  0  0  0  0  0  0  0  0  0  0
   11.7461   -0.7067    3.8215 H   0  0  0  0  0  0  0  0  0  0  0  0
  1  2  1  0
  1 21  1  0
  1 22  1  0
  1 23  1  0
  2  3  1  0
  2 24  1  0
  2 25  1  0
  3  4  1  0
  3 26  1  0
  3 27  1  0
  4  5  1  0
  4 28  1  0
  5  6  1  0
  5 29  1  0
  5 30  1  0
  6  7  2  0
  6 20  1  0
  7  8  1  0
  7 31  1  0
  8  9  1  0
  8 19  1  0
  9 10  1  0
  9 18  1  0
  9 32  1  1
 10 11  1  0
 10 33  1  0
 10 34  1  0
 11 12  1  0
 11 35  1  0
 11 36  1  0
 12 13  1  0
 12 37  1  0
 12 38  1  0
 13 14  1  0
 13 18  1  0
 13 39  1  6
 14 15  1  6
 14 16  2  0
 14 17  2  0
 15 40  1  0
 15 41  1  0
 15 42  1  0
 18 43  1  0
 18 44  1  0
 19 20  2  0
M  END

