
     RDKit          3D

 37 39  0  0  0  0  0  0  0  0999 V2000
    1.0720    0.0526   -0.2049 O   0  0  0  0  0  0  0  0  0  0  0  0
    2.2622    0.0146    0.0369 C   0  0  0  0  0  0  0  0  0  0  0  0
    3.0168   -1.3051    0.1588 C   0  0  0  0  0  0  0  0  0  0  0  0
    4.2229   -1.2237    1.0982 C   0  0  0  0  0  0  0  0  0  0  0  0
    5.1672   -0.0889    0.6869 C   0  0  0  0  0  0  0  0  0  0  0  0
    4.4200    1.2034    0.4988 C   0  0  0  0  0  0  0  0  0  0  0  0
    5.1016    2.3671    0.6118 N   0  0  0  0  0  0  0  0  0  0  0  0
    6.0930    2.3553    0.8446 H   0  0  0  0  0  0  0  0  0  0  0  0
    4.5847    3.6729    0.4472 C   0  0  0  0  0  0  0  0  0  0  0  0
    5.3446    4.6202    0.5861 O   0  0  0  0  0  0  0  0  0  0  0  0
    3.1605    3.7120    0.1310 C   0  0  0  0  0  0  0  0  0  0  0  0
    2.3856    4.9901   -0.0712 C   0  0  0  0  0  0  0  0  0  0  0  0
    1.1783    4.9328   -0.2488 O   0  0  0  0  0  0  0  0  0  0  0  0
    3.1195    6.1610   -0.0519 N   0  0  0  0  0  0  0  0  0  0  0  0
    2.6290    7.4576   -0.2110 C   0  0  0  0  0  0  0  0  0  0  0  0
    1.2386    7.7272   -0.2495 C   0  0  0  0  0  0  0  0  0  0  0  0
    0.7478    9.0200   -0.3910 C   0  0  0  0  0  0  0  0  0  0  0  0
    1.6107   10.1157   -0.5076 C   0  0  0  0  0  0  0  0  0  0  0  0
    2.9783    9.8882   -0.4841 C   0  0  0  0  0  0  0  0  0  0  0  0
    3.4894    8.5902   -0.3401 C   0  0  0  0  0  0  0  0  0  0  0  0
    4.9570    8.4904   -0.3461 N   0  0  0  0  0  0  0  0  0  0  0  0
    5.4694    7.3997   -0.1148 O   0  0  0  0  0  0  0  0  0  0  0  0
    5.6030    9.4986   -0.5807 O   0  0  0  0  0  0  0  0  0  0  0  0
    2.4618    2.5328    0.0247 C   0  0  0  0  0  0  0  0  0  0  0  0
    3.0675    1.2548    0.1945 C   0  0  0  0  0  0  0  0  0  0  0  0
    3.3495   -1.5785   -0.8609 H   0  0  0  0  0  0  0  0  0  0  0  0
    2.2960   -2.0754    0.4691 H   0  0  0  0  0  0  0  0  0  0  0  0
    4.7708   -2.1784    1.1069 H   0  0  0  0  0  0  0  0  0  0  0  0
    3.8755   -1.0485    2.1308 H   0  0  0  0  0  0  0  0  0  0  0  0
    5.6675   -0.3404   -0.2679 H   0  0  0  0  0  0  0  0  0  0  0  0
    5.9719    0.0491    1.4285 H   0  0  0  0  0  0  0  0  0  0  0  0
    4.1358    6.0753    0.0878 H   0  0  0  0  0  0  0  0  0  0  0  0
    0.5575    6.8859   -0.1704 H   0  0  0  0  0  0  0  0  0  0  0  0
   -0.3347    9.1704   -0.4091 H   0  0  0  0  0  0  0  0  0  0  0  0
    1.2225   11.1302   -0.6170 H   0  0  0  0  0  0  0  0  0  0  0  0
    3.6959   10.7014   -0.5790 H   0  0  0  0  0  0  0  0  0  0  0  0
    1.3945    2.5755   -0.2041 H   0  0  0  0  0  0  0  0  0  0  0  0
  1  2  2  0
  2  3  1  0
  2 25  1  0
  3  4  1  0
  3 26  1  0
  3 27  1  0
  4  5  1  0
  4 28  1  0
  4 29  1  0
  5  6  1  0
  5 30  1  0
  5 31  1  0
  6  7  1  0
  6 25  2  0
  7  8  1  0
  7  9  1  0
  9 10  2  0
  9 11  1  0
 11 12  1  0
 11 24  2  0
 12 13  2  0
 12 14  1  0
 14 15  1  0
 14 32  1  0
 15 16  2  0
 15 20  1  0
 16 17  1  0
 16 33  1  0
 17 18  2  0
 17 34  1  0
 18 19  1  0
 18 35  1  0
 19 20  2  0
 19 36  1  0
 20 21  1  0
 21 22  2  0
 21 23  1  0
 24 25  1  0
 24 37  1  0
M  CHG  2  21   1  23  -1
M  END

