
     RDKit          3D

 64 67  0  0  0  0  0  0  0  0999 V2000
   -0.0576    0.4753    0.4515 C   0  0  0  0  0  0  0  0  0  0  0  0
    1.0928   -0.9285    0.5505 S   0  0  0  0  0  0  0  0  0  0  0  0
    2.5429   -0.2257   -0.1761 C   0  0  0  0  0  0  0  0  0  0  0  0
    2.5145    1.0382   -0.6009 N   0  0  0  0  0  0  0  0  0  0  0  0
    3.6008    1.5203   -1.2124 C   0  0  0  0  0  0  0  0  0  0  0  0
    3.5722    2.9607   -1.6455 C   0  0  0  0  0  0  0  0  0  0  0  0
    4.7141    0.8209   -1.4536 N   0  0  0  0  0  0  0  0  0  0  0  0
    4.7618   -0.4348   -1.0080 C   0  0  0  0  0  0  0  0  0  0  0  0
    6.2143   -1.4097   -1.3163 S   0  0  0  0  0  0  0  0  0  0  0  0
    7.2279   -0.2374   -2.2665 C   0  0  0  0  0  0  0  0  0  0  0  0
    3.6898   -1.0338   -0.3247 C   0  0  0  0  0  0  0  0  0  0  0  0
    3.7354   -2.3671    0.1333 N   0  0  0  0  0  0  0  0  0  0  0  0
    3.8197   -2.6535    1.5021 C   0  0  0  0  0  0  0  0  0  0  0  0
    3.8707   -1.7712    2.3415 O   0  0  0  0  0  0  0  0  0  0  0  0
    3.8149   -4.0007    1.8133 N   0  0  0  0  0  0  0  0  0  0  0  0
    3.9193   -4.3742    3.2269 C   0  0  0  0  0  0  0  0  0  0  0  0
    2.5905   -4.7054    3.8839 C   0  0  0  0  0  0  0  0  0  0  0  0
    2.3280   -5.9948    4.3671 C   0  0  0  0  0  0  0  0  0  0  0  0
    1.1035   -6.2991    4.9732 C   0  0  0  0  0  0  0  0  0  0  0  0
    0.1245   -5.3117    5.1001 C   0  0  0  0  0  0  0  0  0  0  0  0
    0.3772   -4.0201    4.6217 C   0  0  0  0  0  0  0  0  0  0  0  0
    1.5996   -3.7166    4.0198 C   0  0  0  0  0  0  0  0  0  0  0  0
    3.4864   -5.0326    0.8396 C   0  0  0  0  0  0  0  0  0  0  0  0
    4.6132   -5.4039   -0.1188 C   0  0  0  0  0  0  0  0  0  0  0  0
    4.3131   -5.8532   -1.4118 C   0  0  0  0  0  0  0  0  0  0  0  0
    5.3457   -6.2271   -2.2799 C   0  0  0  0  0  0  0  0  0  0  0  0
    6.6762   -6.1466   -1.8765 C   0  0  0  0  0  0  0  0  0  0  0  0
    6.9789   -5.6902   -0.5849 C   0  0  0  0  0  0  0  0  0  0  0  0
    8.3078   -5.6666   -0.2554 O   0  0  0  0  0  0  0  0  0  0  0  0
    8.7800   -5.0390    0.8782 C   0  0  0  0  0  0  0  0  0  0  0  0
    9.5345   -5.8025    1.7748 C   0  0  0  0  0  0  0  0  0  0  0  0
   10.1109   -5.1987    2.8947 C   0  0  0  0  0  0  0  0  0  0  0  0
    9.9137   -3.8357    3.1049 C   0  0  0  0  0  0  0  0  0  0  0  0
   10.4612   -3.2529    4.1818 F   0  0  0  0  0  0  0  0  0  0  0  0
    9.1622   -3.0635    2.2206 C   0  0  0  0  0  0  0  0  0  0  0  0
    8.5964   -3.6672    1.0957 C   0  0  0  0  0  0  0  0  0  0  0  0
    5.9523   -5.3246    0.2925 C   0  0  0  0  0  0  0  0  0  0  0  0
   -1.0007    0.1106    0.8824 H   0  0  0  0  0  0  0  0  0  0  0  0
   -0.2117    0.7852   -0.5902 H   0  0  0  0  0  0  0  0  0  0  0  0
    0.3186    1.3273    1.0319 H   0  0  0  0  0  0  0  0  0  0  0  0
    2.5564    3.2524   -1.9458 H   0  0  0  0  0  0  0  0  0  0  0  0
    4.2817    3.1320   -2.4657 H   0  0  0  0  0  0  0  0  0  0  0  0
    3.8657    3.6084   -0.8012 H   0  0  0  0  0  0  0  0  0  0  0  0
    8.1629   -0.7702   -2.4891 H   0  0  0  0  0  0  0  0  0  0  0  0
    7.4334    0.6633   -1.6744 H   0  0  0  0  0  0  0  0  0  0  0  0
    6.7225    0.0475   -3.1981 H   0  0  0  0  0  0  0  0  0  0  0  0
    4.0615   -3.0658   -0.5302 H   0  0  0  0  0  0  0  0  0  0  0  0
    4.3870   -3.5230    3.7392 H   0  0  0  0  0  0  0  0  0  0  0  0
    4.5979   -5.2383    3.3138 H   0  0  0  0  0  0  0  0  0  0  0  0
    3.0936   -6.7717    4.2749 H   0  0  0  0  0  0  0  0  0  0  0  0
    0.9164   -7.3099    5.3453 H   0  0  0  0  0  0  0  0  0  0  0  0
   -0.8333   -5.5450    5.5727 H   0  0  0  0  0  0  0  0  0  0  0  0
   -0.3835   -3.2416    4.7243 H   0  0  0  0  0  0  0  0  0  0  0  0
    1.8005   -2.7067    3.6534 H   0  0  0  0  0  0  0  0  0  0  0  0
    2.5964   -4.7386    0.2584 H   0  0  0  0  0  0  0  0  0  0  0  0
    3.1842   -5.9282    1.4065 H   0  0  0  0  0  0  0  0  0  0  0  0
    3.2723   -5.9094   -1.7425 H   0  0  0  0  0  0  0  0  0  0  0  0
    5.1092   -6.5756   -3.2885 H   0  0  0  0  0  0  0  0  0  0  0  0
    7.4964   -6.4250   -2.5409 H   0  0  0  0  0  0  0  0  0  0  0  0
    9.6700   -6.8676    1.5780 H   0  0  0  0  0  0  0  0  0  0  0  0
   10.7080   -5.7713    3.6071 H   0  0  0  0  0  0  0  0  0  0  0  0
    9.0293   -1.9977    2.4160 H   0  0  0  0  0  0  0  0  0  0  0  0
    8.0097   -3.0713    0.3938 H   0  0  0  0  0  0  0  0  0  0  0  0
    6.1888   -4.9614    1.2925 H   0  0  0  0  0  0  0  0  0  0  0  0
  1  2  1  0
  1 38  1  0
  1 39  1  0
  1 40  1  0
  2  3  1  0
  3  4  2  0
  3 11  1  0
  4  5  1  0
  5  6  1  0
  5  7  2  0
  6 41  1  0
  6 42  1  0
  6 43  1  0
  7  8  1  0
  8  9  1  0
  8 11  2  0
  9 10  1  0
 10 44  1  0
 10 45  1  0
 10 46  1  0
 11 12  1  0
 12 13  1  0
 12 47  1  0
 13 14  2  0
 13 15  1  0
 15 16  1  0
 15 23  1  0
 16 17  1  0
 16 48  1  0
 16 49  1  0
 17 18  2  0
 17 22  1  0
 18 19  1  0
 18 50  1  0
 19 20  2  0
 19 51  1  0
 20 21  1  0
 20 52  1  0
 21 22  2  0
 21 53  1  0
 22 54  1  0
 23 24  1  0
 23 55  1  0
 23 56  1  0
 24 25  2  0
 24 37  1  0
 25 26  1  0
 25 57  1  0
 26 27  2  0
 26 58  1  0
 27 28  1  0
 27 59  1  0
 28 29  1  0
 28 37  2  0
 29 30  1  0
 30 31  2  0
 30 36  1  0
 31 32  1  0
 31 60  1  0
 32 33  2  0
 32 61  1  0
 33 34  1  0
 33 35  1  0
 35 36  2  0
 35 62  1  0
 36 63  1  0
 37 64  1  0
M  END

