
     RDKit          3D

 30 33  0  0  0  0  0  0  0  0999 V2000
    0.9648   -0.0043   -0.0245 N   0  0  0  0  0  0  0  0  0  0  0  0
    2.3434    0.0583   -0.0374 C   0  0  0  0  0  0  0  0  0  0  0  0
    3.0041    1.2844   -0.0133 C   0  0  0  0  0  0  0  0  0  0  0  0
    4.4042    1.3585   -0.0080 C   0  0  0  0  0  0  0  0  0  0  0  0
    5.2174    0.2276   -0.0376 C   0  0  0  0  0  0  0  0  0  0  0  0
    4.5696   -1.0499   -0.0472 C   0  0  0  0  0  0  0  0  0  0  0  0
    5.3299   -2.2588   -0.0667 C   0  0  0  0  0  0  0  0  0  0  0  0
    4.6982   -3.4967   -0.0515 C   0  0  0  0  0  0  0  0  0  0  0  0
    3.2978   -3.5871   -0.0037 C   0  0  0  0  0  0  0  0  0  0  0  0
    2.5364   -2.4307    0.0107 C   0  0  0  0  0  0  0  0  0  0  0  0
    3.1359   -1.1470   -0.0291 C   0  0  0  0  0  0  0  0  0  0  0  0
    6.8197   -2.2280   -0.0977 C   0  0  0  0  0  0  0  0  0  0  0  0
    7.4785   -3.2606   -0.1271 O   0  0  0  0  0  0  0  0  0  0  0  0
    7.4607   -0.8882   -0.0888 C   0  0  0  0  0  0  0  0  0  0  0  0
    8.8660   -0.8320   -0.1107 C   0  0  0  0  0  0  0  0  0  0  0  0
    9.5296    0.3874   -0.1001 C   0  0  0  0  0  0  0  0  0  0  0  0
    8.7775    1.5721   -0.0669 C   0  0  0  0  0  0  0  0  0  0  0  0
    7.3877    1.5284   -0.0454 C   0  0  0  0  0  0  0  0  0  0  0  0
    6.6885    0.3007   -0.0565 C   0  0  0  0  0  0  0  0  0  0  0  0
    0.4735    0.8646   -0.1971 H   0  0  0  0  0  0  0  0  0  0  0  0
    0.5211   -0.8066   -0.4536 H   0  0  0  0  0  0  0  0  0  0  0  0
    2.4194    2.2083   -0.0109 H   0  0  0  0  0  0  0  0  0  0  0  0
    4.8529    2.3526    0.0053 H   0  0  0  0  0  0  0  0  0  0  0  0
    5.3284   -4.3883   -0.0668 H   0  0  0  0  0  0  0  0  0  0  0  0
    2.8110   -4.5644    0.0310 H   0  0  0  0  0  0  0  0  0  0  0  0
    1.4499   -2.5192    0.0785 H   0  0  0  0  0  0  0  0  0  0  0  0
    9.4061   -1.7804   -0.1353 H   0  0  0  0  0  0  0  0  0  0  0  0
   10.6214    0.4264   -0.1169 H   0  0  0  0  0  0  0  0  0  0  0  0
    9.2840    2.5410   -0.0576 H   0  0  0  0  0  0  0  0  0  0  0  0
    6.8391    2.4706   -0.0198 H   0  0  0  0  0  0  0  0  0  0  0  0
  1  2  1  0
  1 20  1  0
  1 21  1  0
  2  3  2  0
  2 11  1  0
  3  4  1  0
  3 22  1  0
  4  5  2  0
  4 23  1  0
  5  6  1  0
  5 19  1  0
  6  7  1  0
  6 11  2  0
  7  8  2  0
  7 12  1  0
  8  9  1  0
  8 24  1  0
  9 10  2  0
  9 25  1  0
 10 11  1  0
 10 26  1  0
 12 13  2  0
 12 14  1  0
 14 15  1  0
 14 19  2  0
 15 16  2  0
 15 27  1  0
 16 17  1  0
 16 28  1  0
 17 18  2  0
 17 29  1  0
 18 19  1  0
 18 30  1  0
M  END

