
     RDKit          3D

 48 51  0  0  0  0  0  0  0  0999 V2000
   15.7481    4.9405   -7.1695 C   0  0  0  0  0  0  0  0  0  0  0  0
   15.3495    4.0770   -6.4108 C   0  0  0  0  0  0  0  0  0  0  0  0
   14.8548    3.0937   -5.5095 C   0  0  0  0  0  0  0  0  0  0  0  0
   15.4033    1.8086   -5.4117 C   0  0  0  0  0  0  0  0  0  0  0  0
   14.9555    0.8766   -4.5761 N   0  0  0  0  0  0  0  0  0  0  0  0
   13.9169    1.2245   -3.7976 C   0  0  0  0  0  0  0  0  0  0  0  0
   13.4163    0.2098   -2.8733 C   0  0  0  0  0  0  0  0  0  0  0  0
   13.8770   -1.0781   -2.6924 C   0  0  0  0  0  0  0  0  0  0  0  0
   13.1540   -1.7956   -1.7018 C   0  0  0  0  0  0  0  0  0  0  0  0
   12.1421   -1.0548   -1.1314 C   0  0  0  0  0  0  0  0  0  0  0  0
   11.1951   -1.4967   -0.0420 C   0  0  2  0  0  0  0  0  0  0  0  0
   11.3855   -0.8649    0.8525 H   0  0  0  0  0  0  0  0  0  0  0  0
   11.5058   -2.8491    0.2523 O   0  0  0  0  0  0  0  0  0  0  0  0
    9.7147   -1.3263   -0.4327 C   0  0  0  0  0  0  0  0  0  0  0  0
    8.7348   -1.7465    0.6660 C   0  0  0  0  0  0  0  0  0  0  0  0
    7.2686   -1.5570    0.2745 C   0  0  0  0  0  0  0  0  0  0  0  0
   12.0706    0.5446   -1.8124 S   0  0  0  0  0  0  0  0  0  0  0  0
   13.3051    2.4176   -3.7964 N   0  0  0  0  0  0  0  0  0  0  0  0
   13.7483    3.3593   -4.6320 C   0  0  0  0  0  0  0  0  0  0  0  0
   13.1557    4.5821   -4.6607 N   0  0  0  0  0  0  0  0  0  0  0  0
   12.0816    5.0684   -3.9149 C   0  0  0  0  0  0  0  0  0  0  0  0
   11.2863    4.4459   -2.9178 C   0  0  0  0  0  0  0  0  0  0  0  0
   10.3765    5.4300   -2.5447 C   0  0  0  0  0  0  0  0  0  0  0  0
    9.2721    5.4378   -1.5614 C   0  0  1  0  0  0  0  0  0  0  0  0
    8.3991    4.2114   -1.3700 C   0  0  0  0  0  0  0  0  0  0  0  0
    9.3626    4.6133   -0.2928 C   0  0  0  0  0  0  0  0  0  0  0  0
   10.6739    6.5179   -3.3046 N   0  0  0  0  0  0  0  0  0  0  0  0
   10.2081    7.4164   -3.2924 H   0  0  0  0  0  0  0  0  0  0  0  0
   11.7063    6.3255   -4.1457 N   0  0  0  0  0  0  0  0  0  0  0  0
   16.1103    5.6929   -7.8446 H   0  0  0  0  0  0  0  0  0  0  0  0
   16.2501    1.5408   -6.0538 H   0  0  0  0  0  0  0  0  0  0  0  0
   14.7139   -1.4703   -3.2699 H   0  0  0  0  0  0  0  0  0  0  0  0
   13.3565   -2.8224   -1.4008 H   0  0  0  0  0  0  0  0  0  0  0  0
   11.1269   -3.0662    1.1120 H   0  0  0  0  0  0  0  0  0  0  0  0
    9.5348   -1.9175   -1.3471 H   0  0  0  0  0  0  0  0  0  0  0  0
    9.5380   -0.2694   -0.6997 H   0  0  0  0  0  0  0  0  0  0  0  0
    8.9480   -1.1723    1.5873 H   0  0  0  0  0  0  0  0  0  0  0  0
    8.9072   -2.8088    0.9155 H   0  0  0  0  0  0  0  0  0  0  0  0
    7.0483   -0.5005    0.0479 H   0  0  0  0  0  0  0  0  0  0  0  0
    6.5906   -1.8734    1.0830 H   0  0  0  0  0  0  0  0  0  0  0  0
    7.0164   -2.1460   -0.6227 H   0  0  0  0  0  0  0  0  0  0  0  0
   13.5415    5.2556   -5.3167 H   0  0  0  0  0  0  0  0  0  0  0  0
   11.3815    3.4341   -2.5448 H   0  0  0  0  0  0  0  0  0  0  0  0
    8.7671    6.4055   -1.4722 H   0  0  0  0  0  0  0  0  0  0  0  0
    8.6387    3.3356   -1.9794 H   0  0  0  0  0  0  0  0  0  0  0  0
    7.3297    4.3695   -1.2034 H   0  0  0  0  0  0  0  0  0  0  0  0
   10.2670    4.0138   -0.1563 H   0  0  0  0  0  0  0  0  0  0  0  0
    8.9674    5.0521    0.6278 H   0  0  0  0  0  0  0  0  0  0  0  0
  1  2  3  0
  1 30  1  0
  2  3  1  0
  3  4  2  0
  3 19  1  0
  4  5  1  0
  4 31  1  0
  5  6  2  0
  6  7  1  0
  6 18  1  0
  7  8  2  0
  7 17  1  0
  8  9  1  0
  8 32  1  0
  9 10  2  0
  9 33  1  0
 10 11  1  0
 10 17  1  0
 11 12  1  1
 11 13  1  0
 11 14  1  0
 13 34  1  0
 14 15  1  0
 14 35  1  0
 14 36  1  0
 15 16  1  0
 15 37  1  0
 15 38  1  0
 16 39  1  0
 16 40  1  0
 16 41  1  0
 18 19  2  0
 19 20  1  0
 20 21  1  0
 20 42  1  0
 21 22  1  0
 21 29  2  0
 22 23  2  0
 22 43  1  0
 23 24  1  0
 23 27  1  0
 24 25  1  0
 24 26  1  0
 24 44  1  1
 25 26  1  0
 25 45  1  0
 25 46  1  0
 26 47  1  0
 26 48  1  0
 27 28  1  0
 27 29  1  0
M  END

