
     RDKit          3D

 63 65  0  0  0  0  0  0  0  0999 V2000
    4.4554   -3.2974   -0.2529 C   0  0  0  0  0  0  0  0  0  0  0  0
    4.4982   -1.7672   -0.1983 C   0  0  0  0  0  0  0  0  0  0  0  0
    4.9221   -1.1976    1.1762 C   0  0  1  0  0  0  0  0  0  0  0  0
    6.4390   -1.3756    1.4045 C   0  0  0  0  0  0  0  0  0  0  0  0
    6.9522   -1.0108    2.8004 C   0  0  0  0  0  0  0  0  0  0  0  0
    4.4373    0.2615    1.4429 C   0  0  1  0  0  0  0  0  0  0  0  0
    5.2297    1.3448    0.6870 C   0  0  0  0  0  0  0  0  0  0  0  0
    4.9900    1.3438   -0.7411 N   0  0  0  0  0  0  0  0  0  0  0  0
    6.0203    1.2314   -1.6455 C   0  0  0  0  0  0  0  0  0  0  0  0
    7.2055    1.2616   -1.3289 O   0  0  0  0  0  0  0  0  0  0  0  0
    5.6202    1.0654   -2.9515 N   0  0  0  0  0  0  0  0  0  0  0  0
    6.6011    1.0868   -4.0087 C   0  0  0  0  0  0  0  0  0  0  0  0
    5.9078    1.3894   -5.3025 C   0  0  0  0  0  0  0  0  0  0  0  0
    4.6235    1.6163   -5.4198 N   0  0  0  0  0  0  0  0  0  0  0  0
    4.3575    1.8651   -6.7382 N   0  0  0  0  0  0  0  0  0  0  0  0
    5.4866    1.7780   -7.4005 C   0  0  0  0  0  0  0  0  0  0  0  0
    6.5175    1.4721   -6.5298 N   0  0  0  0  0  0  0  0  0  0  0  0
    7.9507    1.3204   -6.7896 C   0  0  0  0  0  0  0  0  0  0  0  0
    8.2596    0.7907   -8.1913 C   0  0  0  0  0  0  0  0  0  0  0  0
    8.1545    1.8218   -9.3282 C   0  0  0  0  0  0  0  0  0  0  0  0
    6.9090    2.7253   -9.2879 C   0  0  0  0  0  0  0  0  0  0  0  0
    5.6190    1.9985   -8.8781 C   0  0  0  0  0  0  0  0  0  0  0  0
    2.9992    0.4190    1.1860 N   0  0  0  0  0  0  0  0  0  0  0  0
    2.1194   -0.5161    1.8889 C   0  0  0  0  0  0  0  0  0  0  0  0
    0.7047    0.0316    1.6416 C   0  0  0  0  0  0  0  0  0  0  0  0
    0.9188    1.5463    1.3909 C   0  0  0  0  0  0  0  0  0  0  0  0
    2.4416    1.7393    1.4931 C   0  0  0  0  0  0  0  0  0  0  0  0
    4.1323   -3.6489   -1.2462 H   0  0  0  0  0  0  0  0  0  0  0  0
    3.7474   -3.7067    0.4882 H   0  0  0  0  0  0  0  0  0  0  0  0
    5.4389   -3.7520   -0.0520 H   0  0  0  0  0  0  0  0  0  0  0  0
    3.5024   -1.3737   -0.4553 H   0  0  0  0  0  0  0  0  0  0  0  0
    5.1782   -1.3942   -0.9815 H   0  0  0  0  0  0  0  0  0  0  0  0
    4.4225   -1.8162    1.9447 H   0  0  0  0  0  0  0  0  0  0  0  0
    6.9966   -0.8093    0.6388 H   0  0  0  0  0  0  0  0  0  0  0  0
    6.6795   -2.4355    1.2179 H   0  0  0  0  0  0  0  0  0  0  0  0
    6.8731    0.0672    3.0129 H   0  0  0  0  0  0  0  0  0  0  0  0
    8.0147   -1.2819    2.9085 H   0  0  0  0  0  0  0  0  0  0  0  0
    6.3927   -1.5440    3.5883 H   0  0  0  0  0  0  0  0  0  0  0  0
    4.6303    0.4603    2.5234 H   0  0  0  0  0  0  0  0  0  0  0  0
    6.3079    1.2075    0.8339 H   0  0  0  0  0  0  0  0  0  0  0  0
    4.9878    2.3317    1.1197 H   0  0  0  0  0  0  0  0  0  0  0  0
    4.0464    1.1170   -1.0354 H   0  0  0  0  0  0  0  0  0  0  0  0
    4.6662    1.2603   -3.2474 H   0  0  0  0  0  0  0  0  0  0  0  0
    7.1356    0.1183   -4.0817 H   0  0  0  0  0  0  0  0  0  0  0  0
    7.3847    1.8372   -3.7936 H   0  0  0  0  0  0  0  0  0  0  0  0
    8.3390    0.6159   -6.0394 H   0  0  0  0  0  0  0  0  0  0  0  0
    8.4622    2.2843   -6.6158 H   0  0  0  0  0  0  0  0  0  0  0  0
    7.5968   -0.0694   -8.3852 H   0  0  0  0  0  0  0  0  0  0  0  0
    9.2829    0.3816   -8.1781 H   0  0  0  0  0  0  0  0  0  0  0  0
    8.1771    1.2704  -10.2838 H   0  0  0  0  0  0  0  0  0  0  0  0
    9.0550    2.4598   -9.3285 H   0  0  0  0  0  0  0  0  0  0  0  0
    6.7706    3.1797  -10.2821 H   0  0  0  0  0  0  0  0  0  0  0  0
    7.0738    3.5697   -8.5965 H   0  0  0  0  0  0  0  0  0  0  0  0
    5.5414    1.0353   -9.4160 H   0  0  0  0  0  0  0  0  0  0  0  0
    4.7313    2.5782   -9.1691 H   0  0  0  0  0  0  0  0  0  0  0  0
    2.3443   -0.5287    2.9813 H   0  0  0  0  0  0  0  0  0  0  0  0
    2.2402   -1.5448    1.5213 H   0  0  0  0  0  0  0  0  0  0  0  0
    0.0399   -0.1715    2.4945 H   0  0  0  0  0  0  0  0  0  0  0  0
    0.2565   -0.4483    0.7587 H   0  0  0  0  0  0  0  0  0  0  0  0
    0.3865    2.1787    2.1170 H   0  0  0  0  0  0  0  0  0  0  0  0
    0.5593    1.8297    0.3903 H   0  0  0  0  0  0  0  0  0  0  0  0
    2.7221    2.0622    2.5231 H   0  0  0  0  0  0  0  0  0  0  0  0
    2.8115    2.5101    0.8012 H   0  0  0  0  0  0  0  0  0  0  0  0
  1  2  1  0
  1 28  1  0
  1 29  1  0
  1 30  1  0
  2  3  1  0
  2 31  1  0
  2 32  1  0
  3  4  1  0
  3  6  1  0
  3 33  1  1
  4  5  1  0
  4 34  1  0
  4 35  1  0
  5 36  1  0
  5 37  1  0
  5 38  1  0
  6  7  1  0
  6 23  1  0
  6 39  1  1
  7  8  1  0
  7 40  1  0
  7 41  1  0
  8  9  1  0
  8 42  1  0
  9 10  2  0
  9 11  1  0
 11 12  1  0
 11 43  1  0
 12 13  1  0
 12 44  1  0
 12 45  1  0
 13 14  2  0
 13 17  1  0
 14 15  1  0
 15 16  2  0
 16 17  1  0
 16 22  1  0
 17 18  1  0
 18 19  1  0
 18 46  1  0
 18 47  1  0
 19 20  1  0
 19 48  1  0
 19 49  1  0
 20 21  1  0
 20 50  1  0
 20 51  1  0
 21 22  1  0
 21 52  1  0
 21 53  1  0
 22 54  1  0
 22 55  1  0
 23 24  1  0
 23 27  1  0
 24 25  1  0
 24 56  1  0
 24 57  1  0
 25 26  1  0
 25 58  1  0
 25 59  1  0
 26 27  1  0
 26 60  1  0
 26 61  1  0
 27 62  1  0
 27 63  1  0
M  END

