
     RDKit          3D

 45 49  0  0  0  0  0  0  0  0999 V2000
    1.9598   -0.8737    1.4168 O   0  0  0  0  0  0  0  0  0  0  0  0
    2.7339   -0.4176    0.5827 C   0  0  0  0  0  0  0  0  0  0  0  0
    3.2048   -1.3449   -0.5250 C   0  0  0  0  0  0  0  0  0  0  0  0
    3.2044   -2.7396   -0.2264 C   0  0  0  0  0  0  0  0  0  0  0  0
    3.5387   -3.6288   -1.2191 C   0  0  0  0  0  0  0  0  0  0  0  0
    3.8512   -3.1471   -2.5197 C   0  0  0  0  0  0  0  0  0  0  0  0
    4.1956   -3.9922   -3.6090 C   0  0  0  0  0  0  0  0  0  0  0  0
    4.4787   -3.4552   -4.8481 C   0  0  0  0  0  0  0  0  0  0  0  0
    4.4282   -2.0516   -5.0509 C   0  0  0  0  0  0  0  0  0  0  0  0
    4.0978   -1.2055   -4.0133 C   0  0  0  0  0  0  0  0  0  0  0  0
    3.8042   -1.7281   -2.7227 C   0  0  0  0  0  0  0  0  0  0  0  0
    3.4895   -0.8648   -1.7182 N   0  0  0  0  0  0  0  0  0  0  0  0
    3.1483    0.8909    0.6074 N   0  0  0  0  0  0  0  0  0  0  0  0
    2.5431    1.7854    1.5880 C   0  0  0  0  0  0  0  0  0  0  0  0
    3.5899    2.3401    2.6035 C   0  0  1  0  0  0  0  0  0  0  0  0
    5.0095    1.9650    2.1617 C   0  0  0  0  0  0  0  0  0  0  0  0
    5.1212    2.4162    0.7057 C   0  0  1  0  0  0  0  0  0  0  0  0
    4.2244    1.4839   -0.1812 C   0  0  0  0  0  0  0  0  0  0  0  0
    4.7874    3.8940    0.5494 C   0  0  0  0  0  0  0  0  0  0  0  0
    5.2548    4.5965   -0.5390 C   0  0  0  0  0  0  0  0  0  0  0  0
    4.9068    5.9632   -0.7023 C   0  0  0  0  0  0  0  0  0  0  0  0
    4.1227    6.5972    0.2207 C   0  0  0  0  0  0  0  0  0  0  0  0
    3.6348    5.9094    1.3972 C   0  0  0  0  0  0  0  0  0  0  0  0
    2.9655    6.4079    2.2928 O   0  0  0  0  0  0  0  0  0  0  0  0
    3.9955    4.5256    1.4802 N   0  0  0  0  0  0  0  0  0  0  0  0
    3.5031    3.8570    2.6997 C   0  0  0  0  0  0  0  0  0  0  0  0
    2.9257   -3.0611    0.7769 H   0  0  0  0  0  0  0  0  0  0  0  0
    3.5592   -4.7050   -1.0252 H   0  0  0  0  0  0  0  0  0  0  0  0
    4.2302   -5.0735   -3.4497 H   0  0  0  0  0  0  0  0  0  0  0  0
    4.7417   -4.1112   -5.6816 H   0  0  0  0  0  0  0  0  0  0  0  0
    4.6527   -1.6427   -6.0393 H   0  0  0  0  0  0  0  0  0  0  0  0
    4.0493   -0.1228   -4.1458 H   0  0  0  0  0  0  0  0  0  0  0  0
    1.7564    1.2225    2.1014 H   0  0  0  0  0  0  0  0  0  0  0  0
    2.0640    2.6206    1.0457 H   0  0  0  0  0  0  0  0  0  0  0  0
    3.3820    1.9300    3.6036 H   0  0  0  0  0  0  0  0  0  0  0  0
    5.1844    0.8815    2.2386 H   0  0  0  0  0  0  0  0  0  0  0  0
    5.7571    2.4652    2.7980 H   0  0  0  0  0  0  0  0  0  0  0  0
    6.1511    2.3013    0.3378 H   0  0  0  0  0  0  0  0  0  0  0  0
    4.8453    0.6840   -0.5935 H   0  0  0  0  0  0  0  0  0  0  0  0
    3.8204    2.0468   -1.0397 H   0  0  0  0  0  0  0  0  0  0  0  0
    5.8889    4.0889   -1.2667 H   0  0  0  0  0  0  0  0  0  0  0  0
    5.2767    6.5106   -1.5741 H   0  0  0  0  0  0  0  0  0  0  0  0
    3.8413    7.6473    0.1327 H   0  0  0  0  0  0  0  0  0  0  0  0
    2.4740    4.2070    2.8635 H   0  0  0  0  0  0  0  0  0  0  0  0
    4.0846    4.2325    3.5588 H   0  0  0  0  0  0  0  0  0  0  0  0
  1  2  2  0
  2  3  1  0
  2 13  1  0
  3  4  2  0
  3 12  1  0
  4  5  1  0
  4 27  1  0
  5  6  2  0
  5 28  1  0
  6  7  1  0
  6 11  1  0
  7  8  2  0
  7 29  1  0
  8  9  1  0
  8 30  1  0
  9 10  2  0
  9 31  1  0
 10 11  1  0
 10 32  1  0
 11 12  2  0
 13 14  1  0
 13 18  1  0
 14 15  1  0
 14 33  1  0
 14 34  1  0
 15 16  1  0
 15 26  1  0
 15 35  1  1
 16 17  1  0
 16 36  1  0
 16 37  1  0
 17 18  1  0
 17 19  1  0
 17 38  1  6
 18 39  1  0
 18 40  1  0
 19 20  2  0
 19 25  1  0
 20 21  1  0
 20 41  1  0
 21 22  2  0
 21 42  1  0
 22 23  1  0
 22 43  1  0
 23 24  2  0
 23 25  1  0
 25 26  1  0
 26 44  1  0
 26 45  1  0
M  END

