
     RDKit          3D

 33 33  0  0  0  0  0  0  0  0999 V2000
    2.3060   -0.1915    0.7456 C   0  0  0  0  0  0  0  0  0  0  0  0
    3.7460   -0.4415    1.1993 C   0  0  0  0  0  0  0  0  0  0  0  0
    4.4023   -1.6004    0.4487 C   0  0  0  0  0  0  0  0  0  0  0  0
    6.1233   -1.8383    1.0426 S   0  0  0  0  0  0  0  0  0  0  0  0
    6.6263   -3.2974    0.0847 C   0  0  0  0  0  0  0  0  0  0  0  0
    6.8326   -3.1008   -1.4158 C   0  0  0  0  0  0  0  0  0  0  0  0
    6.3884   -2.1589   -2.0296 O   0  0  0  0  0  0  0  0  0  0  0  0
    7.6518   -4.1913   -2.1143 C   0  0  0  0  0  0  0  0  0  0  0  0
    9.1429   -3.9496   -1.9480 C   0  0  0  0  0  0  0  0  0  0  0  0
    9.7320   -2.7940   -2.4895 C   0  0  0  0  0  0  0  0  0  0  0  0
   11.0987   -2.5683   -2.3316 C   0  0  0  0  0  0  0  0  0  0  0  0
   11.8924   -3.4849   -1.6331 C   0  0  0  0  0  0  0  0  0  0  0  0
   11.3294   -4.6425   -1.0798 C   0  0  0  0  0  0  0  0  0  0  0  0
   12.1683   -5.6425   -0.3206 C   0  0  0  0  0  0  0  0  0  0  0  0
    9.9499   -4.8547   -1.2477 C   0  0  0  0  0  0  0  0  0  0  0  0
    1.8571    0.6517    1.2942 H   0  0  0  0  0  0  0  0  0  0  0  0
    1.6703   -1.0763    0.9167 H   0  0  0  0  0  0  0  0  0  0  0  0
    2.2603    0.0472   -0.3299 H   0  0  0  0  0  0  0  0  0  0  0  0
    3.7671   -0.6491    2.2835 H   0  0  0  0  0  0  0  0  0  0  0  0
    4.3478    0.4715    1.0482 H   0  0  0  0  0  0  0  0  0  0  0  0
    4.4356   -1.4003   -0.6319 H   0  0  0  0  0  0  0  0  0  0  0  0
    3.8377   -2.5347    0.6144 H   0  0  0  0  0  0  0  0  0  0  0  0
    5.8977   -4.1197    0.2171 H   0  0  0  0  0  0  0  0  0  0  0  0
    7.5677   -3.6548    0.5330 H   0  0  0  0  0  0  0  0  0  0  0  0
    7.3733   -4.1638   -3.1789 H   0  0  0  0  0  0  0  0  0  0  0  0
    7.3869   -5.1802   -1.7081 H   0  0  0  0  0  0  0  0  0  0  0  0
    9.1116   -2.0742   -3.0296 H   0  0  0  0  0  0  0  0  0  0  0  0
   11.5533   -1.6694   -2.7561 H   0  0  0  0  0  0  0  0  0  0  0  0
   12.9636   -3.2978   -1.5170 H   0  0  0  0  0  0  0  0  0  0  0  0
   13.2301   -5.3557   -0.3120 H   0  0  0  0  0  0  0  0  0  0  0  0
   12.0944   -6.6487   -0.7658 H   0  0  0  0  0  0  0  0  0  0  0  0
   11.8362   -5.7303    0.7277 H   0  0  0  0  0  0  0  0  0  0  0  0
    9.4971   -5.7586   -0.8268 H   0  0  0  0  0  0  0  0  0  0  0  0
  1  2  1  0
  1 16  1  0
  1 17  1  0
  1 18  1  0
  2  3  1  0
  2 19  1  0
  2 20  1  0
  3  4  1  0
  3 21  1  0
  3 22  1  0
  4  5  1  0
  5  6  1  0
  5 23  1  0
  5 24  1  0
  6  7  2  0
  6  8  1  0
  8  9  1  0
  8 25  1  0
  8 26  1  0
  9 10  2  0
  9 15  1  0
 10 11  1  0
 10 27  1  0
 11 12  2  0
 11 28  1  0
 12 13  1  0
 12 29  1  0
 13 14  1  0
 13 15  2  0
 14 30  1  0
 14 31  1  0
 14 32  1  0
 15 33  1  0
M  END

