
     RDKit          3D

 45 46  0  0  0  0  0  0  0  0999 V2000
    3.1631    0.4390    0.7624 C   0  0  0  0  0  0  0  0  0  0  0  0
    2.1926    0.0423   -0.3685 C   0  0  1  0  0  0  0  0  0  0  0  0
    0.8278    0.7201   -0.1668 C   0  0  0  0  0  0  0  0  0  0  0  0
    2.7691    0.4112   -1.7250 C   0  0  0  0  0  0  0  0  0  0  0  0
    2.5597    1.6251   -2.2017 N   0  0  0  0  0  0  0  0  0  0  0  0
    3.2251    1.7171   -3.3876 C   0  0  0  0  0  0  0  0  0  0  0  0
    3.2391    2.9718   -4.2179 C   0  0  0  0  0  0  0  0  0  0  0  0
    4.5045    3.8028   -4.0638 C   0  0  0  0  0  0  0  0  0  0  0  0
    5.2963    4.1362   -5.1725 C   0  0  0  0  0  0  0  0  0  0  0  0
    6.4602    4.9005   -5.0241 C   0  0  0  0  0  0  0  0  0  0  0  0
    6.8488    5.3447   -3.7587 C   0  0  0  0  0  0  0  0  0  0  0  0
    6.0667    5.0182   -2.6440 C   0  0  0  0  0  0  0  0  0  0  0  0
    4.9091    4.2533   -2.7950 C   0  0  0  0  0  0  0  0  0  0  0  0
    3.8763    0.5333   -3.6489 C   0  0  0  0  0  0  0  0  0  0  0  0
    4.7374    0.1994   -4.7182 N   0  0  0  0  0  0  0  0  0  0  0  0
    3.5859   -0.3286   -2.5737 N   0  0  0  0  0  0  0  0  0  0  0  0
    4.1442   -1.7248   -2.4886 C   0  0  1  0  0  0  0  0  0  0  0  0
    5.6796   -1.6313   -2.3748 C   0  0  0  0  0  0  0  0  0  0  0  0
    3.6280   -2.5203   -1.2799 C   0  0  0  0  0  0  0  0  0  0  0  0
    3.7285   -2.5097   -3.7510 C   0  0  0  0  0  0  0  0  0  0  0  0
    2.7561    0.1548    1.7469 H   0  0  0  0  0  0  0  0  0  0  0  0
    3.3236    1.5287    0.7585 H   0  0  0  0  0  0  0  0  0  0  0  0
    4.1487   -0.0408    0.6518 H   0  0  0  0  0  0  0  0  0  0  0  0
    2.0244   -1.0372   -0.3128 H   0  0  0  0  0  0  0  0  0  0  0  0
    0.9214    1.8126   -0.2342 H   0  0  0  0  0  0  0  0  0  0  0  0
    0.4164    0.4568    0.8213 H   0  0  0  0  0  0  0  0  0  0  0  0
    0.1071    0.4029   -0.9363 H   0  0  0  0  0  0  0  0  0  0  0  0
    2.3663    3.5722   -3.9141 H   0  0  0  0  0  0  0  0  0  0  0  0
    3.1025    2.7251   -5.2840 H   0  0  0  0  0  0  0  0  0  0  0  0
    4.9937    3.8005   -6.1695 H   0  0  0  0  0  0  0  0  0  0  0  0
    7.0622    5.1499   -5.9023 H   0  0  0  0  0  0  0  0  0  0  0  0
    7.7559    5.9428   -3.6392 H   0  0  0  0  0  0  0  0  0  0  0  0
    6.3631    5.3630   -1.6495 H   0  0  0  0  0  0  0  0  0  0  0  0
    4.3036    3.9919   -1.9229 H   0  0  0  0  0  0  0  0  0  0  0  0
    5.4057    0.9498   -4.8908 H   0  0  0  0  0  0  0  0  0  0  0  0
    4.2333    0.0311   -5.5898 H   0  0  0  0  0  0  0  0  0  0  0  0
    5.9643   -1.0820   -1.4635 H   0  0  0  0  0  0  0  0  0  0  0  0
    6.1078   -1.1215   -3.2459 H   0  0  0  0  0  0  0  0  0  0  0  0
    6.1119   -2.6425   -2.3129 H   0  0  0  0  0  0  0  0  0  0  0  0
    3.8952   -2.0615   -0.3198 H   0  0  0  0  0  0  0  0  0  0  0  0
    4.1063   -3.5105   -1.3108 H   0  0  0  0  0  0  0  0  0  0  0  0
    2.5418   -2.6825   -1.3176 H   0  0  0  0  0  0  0  0  0  0  0  0
    4.1717   -2.0826   -4.6569 H   0  0  0  0  0  0  0  0  0  0  0  0
    2.6320   -2.5176   -3.8551 H   0  0  0  0  0  0  0  0  0  0  0  0
    4.0694   -3.5533   -3.6653 H   0  0  0  0  0  0  0  0  0  0  0  0
  1  2  1  0
  1 21  1  0
  1 22  1  0
  1 23  1  0
  2  3  1  0
  2  4  1  0
  2 24  1  6
  3 25  1  0
  3 26  1  0
  3 27  1  0
  4  5  2  0
  4 16  1  0
  5  6  1  0
  6  7  1  0
  6 14  2  0
  7  8  1  0
  7 28  1  0
  7 29  1  0
  8  9  2  0
  8 13  1  0
  9 10  1  0
  9 30  1  0
 10 11  2  0
 10 31  1  0
 11 12  1  0
 11 32  1  0
 12 13  2  0
 12 33  1  0
 13 34  1  0
 14 15  1  0
 14 16  1  0
 15 35  1  0
 15 36  1  0
 16 17  1  0
 17 18  1  1
 17 19  1  0
 17 20  1  0
 18 37  1  0
 18 38  1  0
 18 39  1  0
 19 40  1  0
 19 41  1  0
 19 42  1  0
 20 43  1  0
 20 44  1  0
 20 45  1  0
M  END

