
     RDKit          3D

 45 47  0  0  0  0  0  0  0  0999 V2000
    2.2100   -0.3987    2.0736 C   0  0  0  0  0  0  0  0  0  0  0  0
    2.8657    0.1780    0.8362 C   0  0  0  0  0  0  0  0  0  0  0  0
    3.0356    1.5705    0.7662 C   0  0  0  0  0  0  0  0  0  0  0  0
    3.6606    2.1854   -0.3198 C   0  0  0  0  0  0  0  0  0  0  0  0
    4.1356    1.4000   -1.3700 C   0  0  0  0  0  0  0  0  0  0  0  0
    3.9750    0.0145   -1.3148 C   0  0  0  0  0  0  0  0  0  0  0  0
    3.3450   -0.6195   -0.2314 C   0  0  0  0  0  0  0  0  0  0  0  0
    3.1809   -2.1379   -0.3108 C   0  0  1  0  0  0  0  0  0  0  0  0
    3.6924   -2.8419    0.8656 N   0  0  0  0  0  0  0  0  0  0  0  0
    4.5239   -3.9251    0.7352 C   0  0  0  0  0  0  0  0  0  0  0  0
    5.0021   -4.2600   -0.3530 O   0  0  0  0  0  0  0  0  0  0  0  0
    4.8088   -4.6012    1.8961 N   0  0  0  0  0  0  0  0  0  0  0  0
    5.5867   -5.8320    1.8872 C   0  0  0  0  0  0  0  0  0  0  0  0
    4.7654   -7.1076    1.7317 C   0  0  1  0  0  0  0  0  0  0  0  0
    3.9047   -7.1705    0.4707 C   0  0  0  0  0  0  0  0  0  0  0  0
    4.6216   -6.9904   -0.7200 O   0  0  0  0  0  0  0  0  0  0  0  0
    5.3923   -8.3801    2.2371 C   0  0  0  0  0  0  0  0  0  0  0  0
    4.2240   -7.7725    2.9763 C   0  0  0  0  0  0  0  0  0  0  0  0
    1.7605   -2.5652   -0.6779 C   0  0  1  0  0  0  0  0  0  0  0  0
    1.3707   -2.6839   -2.1291 C   0  0  0  0  0  0  0  0  0  0  0  0
    1.5352   -3.9263   -1.2905 C   0  0  0  0  0  0  0  0  0  0  0  0
    1.6375    0.3733    2.6083 H   0  0  0  0  0  0  0  0  0  0  0  0
    2.9630   -0.7818    2.7857 H   0  0  0  0  0  0  0  0  0  0  0  0
    1.5136   -1.2204    1.8482 H   0  0  0  0  0  0  0  0  0  0  0  0
    2.6639    2.1872    1.5899 H   0  0  0  0  0  0  0  0  0  0  0  0
    3.7746    3.2722   -0.3420 H   0  0  0  0  0  0  0  0  0  0  0  0
    4.6314    1.8595   -2.2287 H   0  0  0  0  0  0  0  0  0  0  0  0
    4.3531   -0.6002   -2.1362 H   0  0  0  0  0  0  0  0  0  0  0  0
    3.8344   -2.4882   -1.1203 H   0  0  0  0  0  0  0  0  0  0  0  0
    3.2561   -2.6682    1.7609 H   0  0  0  0  0  0  0  0  0  0  0  0
    4.2626   -4.3978    2.7248 H   0  0  0  0  0  0  0  0  0  0  0  0
    6.1789   -5.8789    2.8156 H   0  0  0  0  0  0  0  0  0  0  0  0
    6.2952   -5.7564    1.0502 H   0  0  0  0  0  0  0  0  0  0  0  0
    3.0795   -6.4327    0.5680 H   0  0  0  0  0  0  0  0  0  0  0  0
    3.4239   -8.1630    0.4247 H   0  0  0  0  0  0  0  0  0  0  0  0
    4.8665   -6.0449   -0.7735 H   0  0  0  0  0  0  0  0  0  0  0  0
    6.3816   -8.3241    2.7027 H   0  0  0  0  0  0  0  0  0  0  0  0
    5.2255   -9.2936    1.6590 H   0  0  0  0  0  0  0  0  0  0  0  0
    4.4161   -7.3028    3.9469 H   0  0  0  0  0  0  0  0  0  0  0  0
    3.2533   -8.2749    2.9131 H   0  0  0  0  0  0  0  0  0  0  0  0
    0.9757   -2.2015   -0.0054 H   0  0  0  0  0  0  0  0  0  0  0  0
    2.1357   -2.4711   -2.8818 H   0  0  0  0  0  0  0  0  0  0  0  0
    0.3630   -2.3759   -2.4213 H   0  0  0  0  0  0  0  0  0  0  0  0
    2.4127   -4.5552   -1.4667 H   0  0  0  0  0  0  0  0  0  0  0  0
    0.6367   -4.4790   -1.0013 H   0  0  0  0  0  0  0  0  0  0  0  0
  1  2  1  0
  1 22  1  0
  1 23  1  0
  1 24  1  0
  2  3  2  0
  2  7  1  0
  3  4  1  0
  3 25  1  0
  4  5  2  0
  4 26  1  0
  5  6  1  0
  5 27  1  0
  6  7  2  0
  6 28  1  0
  7  8  1  0
  8  9  1  0
  8 19  1  0
  8 29  1  6
  9 10  1  0
  9 30  1  0
 10 11  2  0
 10 12  1  0
 12 13  1  0
 12 31  1  0
 14 13  1  1
 13 32  1  0
 13 33  1  0
 14 15  1  0
 14 17  1  0
 14 18  1  0
 15 16  1  0
 15 34  1  0
 15 35  1  0
 16 36  1  0
 17 18  1  0
 17 37  1  0
 17 38  1  0
 18 39  1  0
 18 40  1  0
 19 20  1  0
 19 21  1  0
 19 41  1  1
 20 21  1  0
 20 42  1  0
 20 43  1  0
 21 44  1  0
 21 45  1  0
M  END

