
     RDKit          3D

 43 43  0  0  0  0  0  0  0  0999 V2000
    1.7739    2.3489    0.6893 C   0  0  0  0  0  0  0  0  0  0  0  0
    3.0616    1.5507    0.5044 C   0  0  0  0  0  0  0  0  0  0  0  0
    4.1772    2.1141    1.2572 N   0  0  0  0  0  0  0  0  0  0  0  0
    4.5935    3.3590    0.9658 N   0  0  0  0  0  0  0  0  0  0  0  0
    5.6279    3.6125    1.7640 C   0  0  0  0  0  0  0  0  0  0  0  0
    6.3565    4.9173    1.7230 C   0  0  0  0  0  0  0  0  0  0  0  0
    5.8722    2.4828    2.5849 C   0  0  0  0  0  0  0  0  0  0  0  0
    7.2219    2.2964    3.8929 Br  0  0  0  0  0  0  0  0  0  0  0  0
    4.9218    1.5291    2.2380 C   0  0  0  0  0  0  0  0  0  0  0  0
    4.7081    0.1510    2.7656 C   0  0  0  0  0  0  0  0  0  0  0  0
    5.1294   -0.9694    1.8098 C   0  0  0  0  0  0  0  0  0  0  0  0
    5.5623   -0.7151    0.7086 O   0  0  0  0  0  0  0  0  0  0  0  0
    4.9385   -2.4549    2.2353 C   0  0  1  0  0  0  0  0  0  0  0  0
    6.2213   -3.2302    1.8361 C   0  0  0  0  0  0  0  0  0  0  0  0
    7.4819   -2.8812    2.6310 C   0  0  0  0  0  0  0  0  0  0  0  0
    4.5975   -2.6132    3.7391 C   0  0  0  0  0  0  0  0  0  0  0  0
    4.4180   -4.0509    4.2391 C   0  0  0  0  0  0  0  0  0  0  0  0
    3.7743   -2.9630    1.3393 C   0  0  0  0  0  0  0  0  0  0  0  0
    2.5383   -2.2073    1.5507 N   0  0  0  0  0  0  0  0  0  0  0  0
    0.9712    1.9211    0.0679 H   0  0  0  0  0  0  0  0  0  0  0  0
    1.9259    3.3966    0.3928 H   0  0  0  0  0  0  0  0  0  0  0  0
    1.4424    2.3328    1.7400 H   0  0  0  0  0  0  0  0  0  0  0  0
    3.3543    1.5287   -0.5577 H   0  0  0  0  0  0  0  0  0  0  0  0
    2.9282    0.5081    0.8248 H   0  0  0  0  0  0  0  0  0  0  0  0
    5.9030    5.5684    0.9631 H   0  0  0  0  0  0  0  0  0  0  0  0
    7.4212    4.7749    1.4751 H   0  0  0  0  0  0  0  0  0  0  0  0
    6.3174    5.4317    2.6973 H   0  0  0  0  0  0  0  0  0  0  0  0
    3.6506   -0.0269    3.0212 H   0  0  0  0  0  0  0  0  0  0  0  0
    5.2681    0.0468    3.7076 H   0  0  0  0  0  0  0  0  0  0  0  0
    6.4036   -3.0239    0.7705 H   0  0  0  0  0  0  0  0  0  0  0  0
    6.0208   -4.3121    1.9140 H   0  0  0  0  0  0  0  0  0  0  0  0
    7.7127   -1.8047    2.5763 H   0  0  0  0  0  0  0  0  0  0  0  0
    8.3526   -3.4198    2.2248 H   0  0  0  0  0  0  0  0  0  0  0  0
    7.4004   -3.1531    3.6955 H   0  0  0  0  0  0  0  0  0  0  0  0
    3.6774   -2.0489    3.9604 H   0  0  0  0  0  0  0  0  0  0  0  0
    5.3842   -2.1302    4.3407 H   0  0  0  0  0  0  0  0  0  0  0  0
    3.6111   -4.5827    3.7093 H   0  0  0  0  0  0  0  0  0  0  0  0
    4.1584   -4.0520    5.3096 H   0  0  0  0  0  0  0  0  0  0  0  0
    5.3349   -4.6495    4.1259 H   0  0  0  0  0  0  0  0  0  0  0  0
    3.6612   -4.0558    1.4855 H   0  0  0  0  0  0  0  0  0  0  0  0
    4.0850   -2.8153    0.2943 H   0  0  0  0  0  0  0  0  0  0  0  0
    2.0404   -2.5344    2.3786 H   0  0  0  0  0  0  0  0  0  0  0  0
    1.9012   -2.3410    0.7666 H   0  0  0  0  0  0  0  0  0  0  0  0
  1  2  1  0
  1 20  1  0
  1 21  1  0
  1 22  1  0
  2  3  1  0
  2 23  1  0
  2 24  1  0
  3  4  1  0
  3  9  1  0
  4  5  2  0
  5  6  1  0
  5  7  1  0
  6 25  1  0
  6 26  1  0
  6 27  1  0
  7  8  1  0
  7  9  2  0
  9 10  1  0
 10 11  1  0
 10 28  1  0
 10 29  1  0
 11 12  2  0
 13 11  1  1
 13 14  1  0
 13 16  1  0
 13 18  1  0
 14 15  1  0
 14 30  1  0
 14 31  1  0
 15 32  1  0
 15 33  1  0
 15 34  1  0
 16 17  1  0
 16 35  1  0
 16 36  1  0
 17 37  1  0
 17 38  1  0
 17 39  1  0
 18 19  1  0
 18 40  1  0
 18 41  1  0
 19 42  1  0
 19 43  1  0
M  END

