
     RDKit          3D

 36 38  0  0  0  0  0  0  0  0999 V2000
    1.2215    0.2354    0.4386 C   0  0  0  0  0  0  0  0  0  0  0  0
    2.4193    0.1143   -0.2947 O   0  0  0  0  0  0  0  0  0  0  0  0
    3.0638    1.2296   -0.6957 C   0  0  0  0  0  0  0  0  0  0  0  0
    2.6362    2.5318   -0.4394 C   0  0  0  0  0  0  0  0  0  0  0  0
    3.3879    3.6264   -0.9062 C   0  0  0  0  0  0  0  0  0  0  0  0
    2.7704    5.3952   -0.5352 Br  0  0  0  0  0  0  0  0  0  0  0  0
    4.5536    3.4369   -1.6211 C   0  0  0  0  0  0  0  0  0  0  0  0
    5.0042    2.1202   -1.8913 C   0  0  0  0  0  0  0  0  0  0  0  0
    6.2322    1.9406   -2.6444 C   0  0  0  0  0  0  0  0  0  0  0  0
    6.6918    0.7685   -2.9210 N   0  0  0  0  0  0  0  0  0  0  0  0
    7.8375    0.6543   -3.6253 N   0  0  0  0  0  0  0  0  0  0  0  0
    8.3562   -0.5666   -3.9371 C   0  0  0  0  0  0  0  0  0  0  0  0
    7.7926   -1.6760   -3.5830 N   0  0  0  0  0  0  0  0  0  0  0  0
    8.7059   -2.9999   -4.1368 S   0  0  1  0  0  0  0  0  0  0  0  0
    9.2771   -3.7099   -2.9982 O   0  0  0  0  0  0  0  0  0  0  0  0
    7.9506   -3.7241   -5.1526 O   0  0  0  0  0  0  0  0  0  0  0  0
    9.9738   -1.9722   -4.9244 C   0  0  0  0  0  0  0  0  0  0  0  0
   11.1109   -2.3517   -5.6226 C   0  0  0  0  0  0  0  0  0  0  0  0
   11.9282   -1.3334   -6.1328 C   0  0  0  0  0  0  0  0  0  0  0  0
   11.5980    0.0142   -5.9380 C   0  0  0  0  0  0  0  0  0  0  0  0
   10.4453    0.3763   -5.2300 C   0  0  0  0  0  0  0  0  0  0  0  0
    9.6282   -0.6364   -4.7200 C   0  0  0  0  0  0  0  0  0  0  0  0
    4.2647    1.0015   -1.4319 C   0  0  0  0  0  0  0  0  0  0  0  0
    4.6231   -0.2607   -1.6459 O   0  0  0  0  0  0  0  0  0  0  0  0
    0.8832   -0.7869    0.6524 H   0  0  0  0  0  0  0  0  0  0  0  0
    0.4384    0.7596   -0.1389 H   0  0  0  0  0  0  0  0  0  0  0  0
    1.3775    0.7690    1.3938 H   0  0  0  0  0  0  0  0  0  0  0  0
    1.7212    2.7142    0.1213 H   0  0  0  0  0  0  0  0  0  0  0  0
    5.1318    4.2899   -1.9803 H   0  0  0  0  0  0  0  0  0  0  0  0
    6.7618    2.8528   -2.9753 H   0  0  0  0  0  0  0  0  0  0  0  0
    8.3240    1.4963   -3.9301 H   0  0  0  0  0  0  0  0  0  0  0  0
   11.3587   -3.4052   -5.7685 H   0  0  0  0  0  0  0  0  0  0  0  0
   12.8325   -1.5929   -6.6884 H   0  0  0  0  0  0  0  0  0  0  0  0
   12.2474    0.7935   -6.3432 H   0  0  0  0  0  0  0  0  0  0  0  0
   10.2107    1.4354   -5.0923 H   0  0  0  0  0  0  0  0  0  0  0  0
    5.4645   -0.2798   -2.1626 H   0  0  0  0  0  0  0  0  0  0  0  0
  1  2  1  0
  1 25  1  0
  1 26  1  0
  1 27  1  0
  2  3  1  0
  3  4  2  0
  3 23  1  0
  4  5  1  0
  4 28  1  0
  5  6  1  0
  5  7  2  0
  7  8  1  0
  7 29  1  0
  8  9  1  0
  8 23  2  0
  9 10  2  0
  9 30  1  0
 10 11  1  0
 11 12  1  0
 11 31  1  0
 12 13  2  0
 12 22  1  0
 14 13  1  1
 14 15  2  0
 14 16  2  0
 14 17  1  0
 17 18  1  0
 17 22  2  0
 18 19  2  0
 18 32  1  0
 19 20  1  0
 19 33  1  0
 20 21  2  0
 20 34  1  0
 21 22  1  0
 21 35  1  0
 23 24  1  0
 24 36  1  0
M  END

