
     RDKit          3D

 49 50  0  0  0  0  0  0  0  0999 V2000
    3.2154    1.7176   -1.8064 C   0  0  0  0  0  0  0  0  0  0  0  0
    3.4015    1.4108   -0.5202 C   0  0  0  0  0  0  0  0  0  0  0  0
    4.7445    1.2515    0.1414 C   0  0  0  0  0  0  0  0  0  0  0  0
    4.8580   -0.0435    0.8168 N   0  0  0  0  0  0  0  0  0  0  0  0
    4.9318   -1.2285   -0.0271 C   0  0  0  0  0  0  0  0  0  0  0  0
    5.6688   -0.0972    2.2986 S   0  0  1  0  0  0  0  0  0  0  0  0
    5.3069    1.1335    3.0053 O   0  0  0  0  0  0  0  0  0  0  0  0
    5.3989   -1.4229    2.8589 O   0  0  0  0  0  0  0  0  0  0  0  0
    7.4242   -0.0199    1.9396 C   0  0  0  0  0  0  0  0  0  0  0  0
    8.0653    1.2188    1.8267 C   0  0  0  0  0  0  0  0  0  0  0  0
    9.4227    1.2900    1.5184 C   0  0  0  0  0  0  0  0  0  0  0  0
   10.1615    0.1045    1.3260 C   0  0  0  0  0  0  0  0  0  0  0  0
   11.5261    0.0760    1.0184 N   0  0  0  0  0  0  0  0  0  0  0  0
   12.3840    1.1551    0.8032 C   0  0  0  0  0  0  0  0  0  0  0  0
   12.0073    2.3164    0.8357 O   0  0  0  0  0  0  0  0  0  0  0  0
   13.6990    0.8081    0.5554 N   0  0  0  0  0  0  0  0  0  0  0  0
   14.6407    1.8815    0.2325 C   0  0  0  0  0  0  0  0  0  0  0  0
   14.8809    2.0673   -1.2704 C   0  0  0  0  0  0  0  0  0  0  0  0
   15.2855    0.8044   -2.0499 C   0  0  0  0  0  0  0  0  0  0  0  0
   14.1782   -0.2620   -2.1553 C   0  0  0  0  0  0  0  0  0  0  0  0
   14.0142   -1.2112   -0.9522 C   0  0  0  0  0  0  0  0  0  0  0  0
   14.2056   -0.5523    0.4292 C   0  0  0  0  0  0  0  0  0  0  0  0
    9.5048   -1.1375    1.4608 C   0  0  0  0  0  0  0  0  0  0  0  0
    8.1500   -1.2041    1.7670 C   0  0  0  0  0  0  0  0  0  0  0  0
    2.2136    1.8526   -2.2235 H   0  0  0  0  0  0  0  0  0  0  0  0
    4.0598    1.8571   -2.4903 H   0  0  0  0  0  0  0  0  0  0  0  0
    2.5404    1.2687    0.1441 H   0  0  0  0  0  0  0  0  0  0  0  0
    4.8499    2.0268    0.9150 H   0  0  0  0  0  0  0  0  0  0  0  0
    5.5563    1.3946   -0.6004 H   0  0  0  0  0  0  0  0  0  0  0  0
    4.0943   -1.2034   -0.7401 H   0  0  0  0  0  0  0  0  0  0  0  0
    4.8307   -2.1264    0.5948 H   0  0  0  0  0  0  0  0  0  0  0  0
    5.8757   -1.2855   -0.6061 H   0  0  0  0  0  0  0  0  0  0  0  0
    7.5014    2.1362    2.0051 H   0  0  0  0  0  0  0  0  0  0  0  0
    9.9276    2.2486    1.4311 H   0  0  0  0  0  0  0  0  0  0  0  0
   11.9170   -0.8529    0.9411 H   0  0  0  0  0  0  0  0  0  0  0  0
   15.5934    1.6517    0.7417 H   0  0  0  0  0  0  0  0  0  0  0  0
   14.2451    2.8101    0.6620 H   0  0  0  0  0  0  0  0  0  0  0  0
   15.6613    2.8389   -1.3917 H   0  0  0  0  0  0  0  0  0  0  0  0
   13.9630    2.4834   -1.7213 H   0  0  0  0  0  0  0  0  0  0  0  0
   16.2055    0.3639   -1.6209 H   0  0  0  0  0  0  0  0  0  0  0  0
   15.5593    1.1161   -3.0716 H   0  0  0  0  0  0  0  0  0  0  0  0
   14.3529   -0.8839   -3.0488 H   0  0  0  0  0  0  0  0  0  0  0  0
   13.2216    0.2570   -2.3403 H   0  0  0  0  0  0  0  0  0  0  0  0
   14.7419   -2.0390   -1.0197 H   0  0  0  0  0  0  0  0  0  0  0  0
   13.0193   -1.6850   -1.0182 H   0  0  0  0  0  0  0  0  0  0  0  0
   15.2817   -0.4986    0.6538 H   0  0  0  0  0  0  0  0  0  0  0  0
   13.7887   -1.1942    1.2252 H   0  0  0  0  0  0  0  0  0  0  0  0
   10.0716   -2.0649    1.3338 H   0  0  0  0  0  0  0  0  0  0  0  0
    7.6553   -2.1680    1.8966 H   0  0  0  0  0  0  0  0  0  0  0  0
  1  2  2  0
  1 25  1  0
  1 26  1  0
  2  3  1  0
  2 27  1  0
  3  4  1  0
  3 28  1  0
  3 29  1  0
  4  5  1  0
  6  4  1  6
  5 30  1  0
  5 31  1  0
  5 32  1  0
  6  7  2  0
  6  8  2  0
  6  9  1  0
  9 10  2  0
  9 24  1  0
 10 11  1  0
 10 33  1  0
 11 12  2  0
 11 34  1  0
 12 13  1  0
 12 23  1  0
 13 14  1  0
 13 35  1  0
 14 15  2  0
 14 16  1  0
 16 17  1  0
 16 22  1  0
 17 18  1  0
 17 36  1  0
 17 37  1  0
 18 19  1  0
 18 38  1  0
 18 39  1  0
 19 20  1  0
 19 40  1  0
 19 41  1  0
 20 21  1  0
 20 42  1  0
 20 43  1  0
 21 22  1  0
 21 44  1  0
 21 45  1  0
 22 46  1  0
 22 47  1  0
 23 24  2  0
 23 48  1  0
 24 49  1  0
M  END

