
     RDKit          3D

 69 77  0  0  0  0  0  0  0  0999 V2000
    5.7038    2.6533   -5.1686 C   0  0  0  0  0  0  0  0  0  0  0  0
    6.7986    2.7021   -4.3001 C   0  0  0  0  0  0  0  0  0  0  0  0
    6.6337    2.4090   -2.9436 C   0  0  0  0  0  0  0  0  0  0  0  0
    5.3683    2.0560   -2.4549 C   0  0  0  0  0  0  0  0  0  0  0  0
    5.2080    1.7326   -1.0740 N   0  0  0  0  0  0  0  0  0  0  0  0
    4.3847    2.3318   -0.1128 C   0  0  0  0  0  0  0  0  0  0  0  0
    3.6369    3.5891   -0.2966 C   0  0  0  0  0  0  0  0  0  0  0  0
    2.5024    3.8020    0.5114 C   0  0  0  0  0  0  0  0  0  0  0  0
    1.7737    4.9835    0.4299 C   0  0  0  0  0  0  0  0  0  0  0  0
    2.1528    5.9930   -0.4718 C   0  0  0  0  0  0  0  0  0  0  0  0
    1.3851    7.1768   -0.5735 N   0  0  0  0  0  0  0  0  0  0  0  0
   -0.0008    7.2095   -0.6254 C   0  0  0  0  0  0  0  0  0  0  0  0
   -0.4428    8.5036   -0.7421 C   0  0  0  0  0  0  0  0  0  0  0  0
    0.7189    9.3454   -0.7555 C   0  0  0  0  0  0  0  0  0  0  0  0
    0.9371   10.7423   -0.8256 C   0  0  0  0  0  0  0  0  0  0  0  0
    0.0767   11.8993   -0.9271 C   0  0  0  0  0  0  0  0  0  0  0  0
   -1.3133   12.0763   -1.0280 C   0  0  0  0  0  0  0  0  0  0  0  0
   -1.8309   13.3657   -1.1353 C   0  0  0  0  0  0  0  0  0  0  0  0
   -0.9747   14.4836   -1.1507 C   0  0  0  0  0  0  0  0  0  0  0  0
    0.4093   14.3391   -1.0522 C   0  0  0  0  0  0  0  0  0  0  0  0
    0.9267   13.0426   -0.9314 C   0  0  0  0  0  0  0  0  0  0  0  0
    2.2529   12.6212   -0.8375 N   0  0  0  0  0  0  0  0  0  0  0  0
    3.3924   13.4679   -0.8129 C   0  0  0  0  0  0  0  0  0  0  0  0
    3.5192   14.4529    0.1789 C   0  0  0  0  0  0  0  0  0  0  0  0
    4.6363   15.2914    0.1943 C   0  0  0  0  0  0  0  0  0  0  0  0
    5.6436   15.1439   -0.7642 C   0  0  0  0  0  0  0  0  0  0  0  0
    5.5231   14.1566   -1.7472 C   0  0  0  0  0  0  0  0  0  0  0  0
    4.4000   13.3269   -1.7801 C   0  0  0  0  0  0  0  0  0  0  0  0
    2.2684   11.2209   -0.7712 C   0  0  0  0  0  0  0  0  0  0  0  0
    3.3780   10.3639   -0.6196 C   0  0  0  0  0  0  0  0  0  0  0  0
    3.1682    8.9905   -0.5545 C   0  0  0  0  0  0  0  0  0  0  0  0
    1.8529    8.4929   -0.6444 C   0  0  0  0  0  0  0  0  0  0  0  0
    3.2845    5.7932   -1.2769 C   0  0  0  0  0  0  0  0  0  0  0  0
    4.0203    4.6123   -1.1825 C   0  0  0  0  0  0  0  0  0  0  0  0
    4.3611    1.6558    1.0143 N   0  0  0  0  0  0  0  0  0  0  0  0
    5.1848    0.5693    0.8321 C   0  0  0  0  0  0  0  0  0  0  0  0
    5.5147   -0.4741    1.7132 C   0  0  0  0  0  0  0  0  0  0  0  0
    6.3752   -1.4694    1.2574 C   0  0  0  0  0  0  0  0  0  0  0  0
    6.9025   -1.4398   -0.0522 C   0  0  0  0  0  0  0  0  0  0  0  0
    6.5902   -0.4120   -0.9427 C   0  0  0  0  0  0  0  0  0  0  0  0
    5.7338    0.5905   -0.4743 C   0  0  0  0  0  0  0  0  0  0  0  0
    4.2730    1.9918   -3.3268 C   0  0  0  0  0  0  0  0  0  0  0  0
    4.4425    2.2995   -4.6784 C   0  0  0  0  0  0  0  0  0  0  0  0
    5.8338    2.8883   -6.2277 H   0  0  0  0  0  0  0  0  0  0  0  0
    7.7867    2.9767   -4.6773 H   0  0  0  0  0  0  0  0  0  0  0  0
    7.4797    2.4585   -2.2547 H   0  0  0  0  0  0  0  0  0  0  0  0
    2.2196    3.0248    1.2227 H   0  0  0  0  0  0  0  0  0  0  0  0
    0.9118    5.1397    1.0817 H   0  0  0  0  0  0  0  0  0  0  0  0
   -0.5651    6.2797   -0.6116 H   0  0  0  0  0  0  0  0  0  0  0  0
   -1.4828    8.8096   -0.8212 H   0  0  0  0  0  0  0  0  0  0  0  0
   -1.9822   11.2132   -1.0265 H   0  0  0  0  0  0  0  0  0  0  0  0
   -2.9108   13.5128   -1.2126 H   0  0  0  0  0  0  0  0  0  0  0  0
   -1.4002   15.4862   -1.2443 H   0  0  0  0  0  0  0  0  0  0  0  0
    1.0659   15.2104   -1.0728 H   0  0  0  0  0  0  0  0  0  0  0  0
    2.7417   14.5497    0.9393 H   0  0  0  0  0  0  0  0  0  0  0  0
    4.7252   16.0567    0.9697 H   0  0  0  0  0  0  0  0  0  0  0  0
    6.5198   15.7964   -0.7454 H   0  0  0  0  0  0  0  0  0  0  0  0
    6.3032   14.0384   -2.5037 H   0  0  0  0  0  0  0  0  0  0  0  0
    4.2912   12.5701   -2.5595 H   0  0  0  0  0  0  0  0  0  0  0  0
    4.3884   10.7670   -0.5417 H   0  0  0  0  0  0  0  0  0  0  0  0
    4.0162    8.3186   -0.4185 H   0  0  0  0  0  0  0  0  0  0  0  0
    3.5806    6.5603   -1.9935 H   0  0  0  0  0  0  0  0  0  0  0  0
    4.9044    4.4987   -1.8094 H   0  0  0  0  0  0  0  0  0  0  0  0
    5.0961   -0.4909    2.7215 H   0  0  0  0  0  0  0  0  0  0  0  0
    6.6485   -2.2931    1.9216 H   0  0  0  0  0  0  0  0  0  0  0  0
    7.5709   -2.2411   -0.3771 H   0  0  0  0  0  0  0  0  0  0  0  0
    6.9966   -0.3954   -1.9557 H   0  0  0  0  0  0  0  0  0  0  0  0
    3.2943    1.7033   -2.9387 H   0  0  0  0  0  0  0  0  0  0  0  0
    3.5847    2.2543   -5.3538 H   0  0  0  0  0  0  0  0  0  0  0  0
  1  2  2  0
  1 43  1  0
  1 44  1  0
  2  3  1  0
  2 45  1  0
  3  4  2  0
  3 46  1  0
  4  5  1  0
  4 42  1  0
  5  6  1  0
  5 41  1  0
  6  7  1  0
  6 35  2  0
  7  8  2  0
  7 34  1  0
  8  9  1  0
  8 47  1  0
  9 10  2  0
  9 48  1  0
 10 11  1  0
 10 33  1  0
 11 12  1  0
 11 32  1  0
 12 13  2  0
 12 49  1  0
 13 14  1  0
 13 50  1  0
 14 15  1  0
 14 32  2  0
 15 16  1  0
 15 29  2  0
 16 17  2  0
 16 21  1  0
 17 18  1  0
 17 51  1  0
 18 19  2  0
 18 52  1  0
 19 20  1  0
 19 53  1  0
 20 21  2  0
 20 54  1  0
 21 22  1  0
 22 23  1  0
 22 29  1  0
 23 24  2  0
 23 28  1  0
 24 25  1  0
 24 55  1  0
 25 26  2  0
 25 56  1  0
 26 27  1  0
 26 57  1  0
 27 28  2  0
 27 58  1  0
 28 59  1  0
 29 30  1  0
 30 31  2  0
 30 60  1  0
 31 32  1  0
 31 61  1  0
 33 34  2  0
 33 62  1  0
 34 63  1  0
 35 36  1  0
 36 37  2  0
 36 41  1  0
 37 38  1  0
 37 64  1  0
 38 39  2  0
 38 65  1  0
 39 40  1  0
 39 66  1  0
 40 41  2  0
 40 67  1  0
 42 43  2  0
 42 68  1  0
 43 69  1  0
M  END

