
     RDKit          3D

 71 75  0  0  0  0  0  0  0  0999 V2000
    2.4880    8.3486    1.7848 C   0  0  0  0  0  0  0  0  0  0  0  0
    2.3786    8.0540    0.4065 O   0  0  0  0  0  0  0  0  0  0  0  0
    3.2850    7.2476   -0.1811 C   0  0  0  0  0  0  0  0  0  0  0  0
    4.3660    6.6440    0.4898 C   0  0  0  0  0  0  0  0  0  0  0  0
    5.2421    5.8270   -0.2174 C   0  0  0  0  0  0  0  0  0  0  0  0
    5.0717    5.5814   -1.5923 C   0  0  0  0  0  0  0  0  0  0  0  0
    6.0509    4.6836   -2.2549 C   0  0  0  0  0  0  0  0  0  0  0  0
    7.0111    4.2257   -1.6669 O   0  0  0  0  0  0  0  0  0  0  0  0
    5.8273    4.3126   -3.7493 C   0  0  1  0  0  0  0  0  0  0  0  0
    6.2985    5.4465   -4.6617 C   0  0  0  0  0  0  0  0  0  0  0  0
    5.7560    6.4935   -4.8902 O   0  0  0  0  0  0  0  0  0  0  0  0
    7.6473    5.0196   -5.2595 C   0  0  0  0  0  0  0  0  0  0  0  0
    8.4097    5.7006   -5.9080 O   0  0  0  0  0  0  0  0  0  0  0  0
    7.8212    3.7040   -4.8964 N   0  0  0  0  0  0  0  0  0  0  0  0
    8.9645    2.9766   -5.1705 C   0  0  0  0  0  0  0  0  0  0  0  0
    9.1271    1.7562   -4.7391 N   0  0  0  0  0  0  0  0  0  0  0  0
   10.3189    1.2252   -5.1071 N   0  0  0  0  0  0  0  0  0  0  0  0
   11.0614    2.0255   -5.8170 C   0  0  0  0  0  0  0  0  0  0  0  0
   12.4420    1.7190   -6.3457 C   0  0  1  0  0  0  0  0  0  0  0  0
   13.5024    1.6589   -5.2150 C   0  0  0  0  0  0  0  0  0  0  0  0
   13.4271    0.3695   -4.3886 C   0  0  0  0  0  0  0  0  0  0  0  0
   13.5179   -0.8744   -5.2825 C   0  0  0  0  0  0  0  0  0  0  0  0
   12.4373   -0.8602   -6.3719 C   0  0  0  0  0  0  0  0  0  0  0  0
   12.4904    0.4288   -7.2024 C   0  0  0  0  0  0  0  0  0  0  0  0
   10.3098    3.5959   -6.1040 S   0  0  0  0  0  0  0  0  0  0  0  0
    6.6781    3.0908   -4.1718 C   0  0  2  0  0  0  0  0  0  0  0  0
    5.9213    2.0826   -5.0202 C   0  0  0  0  0  0  0  0  0  0  0  0
    5.7798    0.7634   -4.5834 C   0  0  0  0  0  0  0  0  0  0  0  0
    5.0604   -0.1720   -5.3349 C   0  0  0  0  0  0  0  0  0  0  0  0
    4.4625    0.1716   -6.5566 C   0  0  0  0  0  0  0  0  0  0  0  0
    3.6695   -0.8316   -7.4162 C   0  0  1  0  0  0  0  0  0  0  0  0
    3.6054   -2.2275   -6.7707 C   0  0  0  0  0  0  0  0  0  0  0  0
    2.2227   -0.3178   -7.6016 C   0  0  0  0  0  0  0  0  0  0  0  0
    4.3478   -0.9686   -8.7993 C   0  0  0  0  0  0  0  0  0  0  0  0
    4.6195    1.5024   -6.9914 C   0  0  0  0  0  0  0  0  0  0  0  0
    5.3306    2.4382   -6.2429 C   0  0  0  0  0  0  0  0  0  0  0  0
    3.9865    6.1969   -2.2524 C   0  0  0  0  0  0  0  0  0  0  0  0
    3.1089    7.0178   -1.5593 C   0  0  0  0  0  0  0  0  0  0  0  0
    1.6519    9.0178    2.0259 H   0  0  0  0  0  0  0  0  0  0  0  0
    3.4375    8.8613    2.0182 H   0  0  0  0  0  0  0  0  0  0  0  0
    2.4095    7.4380    2.4044 H   0  0  0  0  0  0  0  0  0  0  0  0
    4.5280    6.8071    1.5552 H   0  0  0  0  0  0  0  0  0  0  0  0
    6.0859    5.3547    0.2892 H   0  0  0  0  0  0  0  0  0  0  0  0
    4.7560    4.1410   -3.9164 H   0  0  0  0  0  0  0  0  0  0  0  0
   12.7087    2.5630   -7.0025 H   0  0  0  0  0  0  0  0  0  0  0  0
   13.4069    2.5458   -4.5670 H   0  0  0  0  0  0  0  0  0  0  0  0
   14.4963    1.7263   -5.6937 H   0  0  0  0  0  0  0  0  0  0  0  0
   12.4770    0.3482   -3.8297 H   0  0  0  0  0  0  0  0  0  0  0  0
   14.2383    0.3659   -3.6408 H   0  0  0  0  0  0  0  0  0  0  0  0
   13.4299   -1.7888   -4.6722 H   0  0  0  0  0  0  0  0  0  0  0  0
   14.5178   -0.9120   -5.7560 H   0  0  0  0  0  0  0  0  0  0  0  0
   11.4447   -0.9468   -5.9021 H   0  0  0  0  0  0  0  0  0  0  0  0
   12.5561   -1.7298   -7.0405 H   0  0  0  0  0  0  0  0  0  0  0  0
   11.6780    0.4455   -7.9473 H   0  0  0  0  0  0  0  0  0  0  0  0
   13.4376    0.4540   -7.7714 H   0  0  0  0  0  0  0  0  0  0  0  0
    7.0883    2.5941   -3.2849 H   0  0  0  0  0  0  0  0  0  0  0  0
    6.2518    0.4535   -3.6479 H   0  0  0  0  0  0  0  0  0  0  0  0
    4.9824   -1.1887   -4.9498 H   0  0  0  0  0  0  0  0  0  0  0  0
    3.1085   -2.2041   -5.7881 H   0  0  0  0  0  0  0  0  0  0  0  0
    4.6068   -2.6660   -6.6378 H   0  0  0  0  0  0  0  0  0  0  0  0
    3.0295   -2.9097   -7.4156 H   0  0  0  0  0  0  0  0  0  0  0  0
    1.7124   -0.2143   -6.6307 H   0  0  0  0  0  0  0  0  0  0  0  0
    1.6409   -1.0224   -8.2184 H   0  0  0  0  0  0  0  0  0  0  0  0
    2.1944    0.6625   -8.1013 H   0  0  0  0  0  0  0  0  0  0  0  0
    5.3813   -1.3359   -8.6976 H   0  0  0  0  0  0  0  0  0  0  0  0
    4.3851   -0.0087   -9.3364 H   0  0  0  0  0  0  0  0  0  0  0  0
    3.7929   -1.6822   -9.4305 H   0  0  0  0  0  0  0  0  0  0  0  0
    4.1782    1.8222   -7.9381 H   0  0  0  0  0  0  0  0  0  0  0  0
    5.4251    3.4578   -6.6297 H   0  0  0  0  0  0  0  0  0  0  0  0
    3.8424    6.0681   -3.3251 H   0  0  0  0  0  0  0  0  0  0  0  0
    2.2722    7.5058   -2.0622 H   0  0  0  0  0  0  0  0  0  0  0  0
  1  2  1  0
  1 39  1  0
  1 40  1  0
  1 41  1  0
  2  3  1  0
  3  4  2  0
  3 38  1  0
  4  5  1  0
  4 42  1  0
  5  6  2  0
  5 43  1  0
  6  7  1  0
  6 37  1  0
  7  8  2  0
  7  9  1  0
  9 10  1  0
  9 26  1  0
  9 44  1  1
 10 11  2  0
 10 12  1  0
 12 13  2  0
 12 14  1  0
 14 15  1  0
 14 26  1  0
 15 16  2  0
 15 25  1  0
 16 17  1  0
 17 18  2  0
 18 19  1  0
 18 25  1  0
 19 20  1  0
 19 24  1  0
 19 45  1  6
 20 21  1  0
 20 46  1  0
 20 47  1  0
 21 22  1  0
 21 48  1  0
 21 49  1  0
 22 23  1  0
 22 50  1  0
 22 51  1  0
 23 24  1  0
 23 52  1  0
 23 53  1  0
 24 54  1  0
 24 55  1  0
 26 27  1  0
 26 56  1  1
 27 28  2  0
 27 36  1  0
 28 29  1  0
 28 57  1  0
 29 30  2  0
 29 58  1  0
 30 31  1  0
 30 35  1  0
 31 32  1  1
 31 33  1  0
 31 34  1  0
 32 59  1  0
 32 60  1  0
 32 61  1  0
 33 62  1  0
 33 63  1  0
 33 64  1  0
 34 65  1  0
 34 66  1  0
 34 67  1  0
 35 36  2  0
 35 68  1  0
 36 69  1  0
 37 38  2  0
 37 70  1  0
 38 71  1  0
M  END

