
     RDKit          3D

 65 67  0  0  0  0  0  0  0  0999 V2000
    6.2500    0.6139  -11.0178 C   0  0  0  0  0  0  0  0  0  0  0  0
    7.0300    0.5599   -9.8279 O   0  0  0  0  0  0  0  0  0  0  0  0
    6.4354    0.2830   -8.6564 C   0  0  0  0  0  0  0  0  0  0  0  0
    5.0540    0.0645   -8.4960 C   0  0  0  0  0  0  0  0  0  0  0  0
    4.5388   -0.2280   -7.2307 C   0  0  0  0  0  0  0  0  0  0  0  0
    5.3939   -0.3191   -6.1300 C   0  0  0  0  0  0  0  0  0  0  0  0
    4.7406   -0.7676   -4.5282 S   0  0  1  0  0  0  0  0  0  0  0  0
    5.5843   -0.1530   -3.5005 O   0  0  0  0  0  0  0  0  0  0  0  0
    3.2895   -0.5468   -4.5715 O   0  0  0  0  0  0  0  0  0  0  0  0
    5.0184   -2.4521   -4.4427 N   0  0  0  0  0  0  0  0  0  0  0  0
    5.8777   -2.9745   -3.3605 C   0  0  0  0  0  0  0  0  0  0  0  0
    5.0771   -3.3908   -2.1281 C   0  0  0  0  0  0  0  0  0  0  0  0
    3.9486   -4.3824   -2.4753 C   0  0  2  0  0  0  0  0  0  0  0  0
    4.4576   -5.7072   -2.8398 N   0  0  0  0  0  0  0  0  0  0  0  0
    4.9910   -6.5529   -1.9173 C   0  0  0  0  0  0  0  0  0  0  0  0
    5.1782   -6.2391   -0.7506 O   0  0  0  0  0  0  0  0  0  0  0  0
    5.3597   -7.9464   -2.4436 C   0  0  0  0  0  0  0  0  0  0  0  0
    4.5244   -9.0344   -1.8171 C   0  0  0  0  0  0  0  0  0  0  0  0
    4.2237   -9.2298   -0.4895 C   0  0  0  0  0  0  0  0  0  0  0  0
    3.4102  -10.3824   -0.2637 C   0  0  0  0  0  0  0  0  0  0  0  0
    3.1022  -11.0535   -1.4197 C   0  0  0  0  0  0  0  0  0  0  0  0
    3.8015  -10.2786   -2.8005 S   0  0  0  0  0  0  0  0  0  0  0  0
    3.0915   -3.8205   -3.6182 C   0  0  0  0  0  0  0  0  0  0  0  0
    3.9117   -3.3358   -4.8282 C   0  0  2  0  0  0  0  0  0  0  0  0
    4.4168   -4.4814   -5.7362 C   0  0  0  0  0  0  0  0  0  0  0  0
    3.8842   -5.5877   -5.7426 O   0  0  0  0  0  0  0  0  0  0  0  0
    5.4431   -4.1514   -6.5564 N   0  0  0  0  0  0  0  0  0  0  0  0
    5.9716   -5.0691   -7.5521 C   0  0  0  0  0  0  0  0  0  0  0  0
    5.2268   -5.0129   -8.8956 C   0  0  0  0  0  0  0  0  0  0  0  0
    5.3410   -3.6550   -9.5900 C   0  0  0  0  0  0  0  0  0  0  0  0
    4.5518   -3.4148  -10.8754 C   0  0  0  0  0  0  0  0  0  0  0  0
    3.8295   -4.4574  -11.3665 N   0  0  0  0  0  0  0  0  0  0  0  0
    4.5763   -2.3278  -11.4342 O   0  0  0  0  0  0  0  0  0  0  0  0
    6.7698   -0.0778   -6.2746 C   0  0  0  0  0  0  0  0  0  0  0  0
    7.2834    0.2210   -7.5287 C   0  0  0  0  0  0  0  0  0  0  0  0
    6.9563    0.8216  -11.8319 H   0  0  0  0  0  0  0  0  0  0  0  0
    5.5112    1.4332  -10.9698 H   0  0  0  0  0  0  0  0  0  0  0  0
    5.7348   -0.3423  -11.2055 H   0  0  0  0  0  0  0  0  0  0  0  0
    4.3799    0.1088   -9.3506 H   0  0  0  0  0  0  0  0  0  0  0  0
    3.4659   -0.3761   -7.0942 H   0  0  0  0  0  0  0  0  0  0  0  0
    6.6168   -2.2059   -3.1050 H   0  0  0  0  0  0  0  0  0  0  0  0
    6.4246   -3.8403   -3.7725 H   0  0  0  0  0  0  0  0  0  0  0  0
    4.6294   -2.4915   -1.6731 H   0  0  0  0  0  0  0  0  0  0  0  0
    5.7374   -3.8441   -1.3746 H   0  0  0  0  0  0  0  0  0  0  0  0
    3.3195   -4.5015   -1.5771 H   0  0  0  0  0  0  0  0  0  0  0  0
    4.2117   -6.0635   -3.7615 H   0  0  0  0  0  0  0  0  0  0  0  0
    6.4225   -8.0982   -2.1857 H   0  0  0  0  0  0  0  0  0  0  0  0
    5.2852   -7.9871   -3.5408 H   0  0  0  0  0  0  0  0  0  0  0  0
    4.5730   -8.5490    0.2872 H   0  0  0  0  0  0  0  0  0  0  0  0
    3.0666  -10.7000    0.7224 H   0  0  0  0  0  0  0  0  0  0  0  0
    2.5046  -11.9559   -1.5406 H   0  0  0  0  0  0  0  0  0  0  0  0
    2.5400   -2.9467   -3.2410 H   0  0  0  0  0  0  0  0  0  0  0  0
    2.3529   -4.5630   -3.9544 H   0  0  0  0  0  0  0  0  0  0  0  0
    3.2288   -2.7543   -5.4675 H   0  0  0  0  0  0  0  0  0  0  0  0
    5.8446   -3.2263   -6.4381 H   0  0  0  0  0  0  0  0  0  0  0  0
    5.8959   -6.0864   -7.1411 H   0  0  0  0  0  0  0  0  0  0  0  0
    7.0397   -4.8406   -7.6984 H   0  0  0  0  0  0  0  0  0  0  0  0
    4.1698   -5.2634   -8.7007 H   0  0  0  0  0  0  0  0  0  0  0  0
    5.6345   -5.8108   -9.5414 H   0  0  0  0  0  0  0  0  0  0  0  0
    6.3937   -3.4349   -9.8396 H   0  0  0  0  0  0  0  0  0  0  0  0
    5.0307   -2.8479   -8.9066 H   0  0  0  0  0  0  0  0  0  0  0  0
    3.7758   -5.3565  -10.9090 H   0  0  0  0  0  0  0  0  0  0  0  0
    3.2919   -4.3065  -12.2124 H   0  0  0  0  0  0  0  0  0  0  0  0
    7.4230   -0.1095   -5.4004 H   0  0  0  0  0  0  0  0  0  0  0  0
    8.3472    0.4197   -7.6724 H   0  0  0  0  0  0  0  0  0  0  0  0
  1  2  1  0
  1 36  1  0
  1 37  1  0
  1 38  1  0
  2  3  1  0
  3  4  2  0
  3 35  1  0
  4  5  1  0
  4 39  1  0
  5  6  2  0
  5 40  1  0
  7  6  1  6
  6 34  1  0
  7  8  2  0
  7  9  2  0
  7 10  1  0
 10 11  1  0
 10 24  1  0
 11 12  1  0
 11 41  1  0
 11 42  1  0
 12 13  1  0
 12 43  1  0
 12 44  1  0
 13 14  1  0
 13 23  1  0
 13 45  1  1
 14 15  1  0
 14 46  1  0
 15 16  2  0
 15 17  1  0
 17 18  1  0
 17 47  1  0
 17 48  1  0
 18 19  2  0
 18 22  1  0
 19 20  1  0
 19 49  1  0
 20 21  2  0
 20 50  1  0
 21 22  1  0
 21 51  1  0
 23 24  1  0
 23 52  1  0
 23 53  1  0
 24 25  1  0
 24 54  1  6
 25 26  2  0
 25 27  1  0
 27 28  1  0
 27 55  1  0
 28 29  1  0
 28 56  1  0
 28 57  1  0
 29 30  1  0
 29 58  1  0
 29 59  1  0
 30 31  1  0
 30 60  1  0
 30 61  1  0
 31 32  1  0
 31 33  2  0
 32 62  1  0
 32 63  1  0
 34 35  2  0
 34 64  1  0
 35 65  1  0
M  END

