
     RDKit          3D

 54 57  0  0  0  0  0  0  0  0999 V2000
    8.4507   -2.5635    2.1101 C   0  0  0  0  0  0  0  0  0  0  0  0
    7.6888   -1.7562    1.2505 O   0  0  0  0  0  0  0  0  0  0  0  0
    7.4369   -2.3335   -0.0019 C   0  0  0  0  0  0  0  0  0  0  0  0
    6.5762   -1.3492   -0.7911 C   0  0  0  0  0  0  0  0  0  0  0  0
    6.2591   -1.8342   -2.1218 N   0  0  0  0  0  0  0  0  0  0  0  0
    6.8002   -1.4299   -3.3097 C   0  0  0  0  0  0  0  0  0  0  0  0
    6.2284   -2.2076   -4.2963 C   0  0  0  0  0  0  0  0  0  0  0  0
    5.3447   -3.0667   -3.5952 C   0  0  0  0  0  0  0  0  0  0  0  0
    4.4793   -4.0955   -4.2398 C   0  0  0  0  0  0  0  0  0  0  0  0
    4.5083   -4.2751   -5.4522 O   0  0  0  0  0  0  0  0  0  0  0  0
    3.6645   -4.8283   -3.4357 N   0  0  0  0  0  0  0  0  0  0  0  0
    2.7022   -5.8341   -3.8579 C   0  0  0  0  0  0  0  0  0  0  0  0
    2.2927   -5.9997   -2.3499 C   0  0  2  0  0  0  0  0  0  0  0  0
    2.6186   -7.3509   -1.7117 C   0  0  0  0  0  0  0  0  0  0  0  0
    1.5986   -8.4206   -2.0977 C   0  0  1  0  0  0  0  0  0  0  0  0
    1.6857   -8.6281   -3.1861 H   0  0  0  0  0  0  0  0  0  0  0  0
    1.9220   -9.5971   -1.3775 O   0  0  0  0  0  0  0  0  0  0  0  0
    1.3619  -10.7900   -1.8598 C   0  0  0  0  0  0  0  0  0  0  0  0
    1.8843  -11.9764   -1.0837 C   0  0  0  0  0  0  0  0  0  0  0  0
    1.4103  -13.2669   -1.3589 C   0  0  0  0  0  0  0  0  0  0  0  0
    1.9177  -14.3451   -0.6314 C   0  0  0  0  0  0  0  0  0  0  0  0
    2.8401  -14.2216    0.3279 N   0  0  0  0  0  0  0  0  0  0  0  0
    3.2876  -12.9918    0.5885 C   0  0  0  0  0  0  0  0  0  0  0  0
    2.8492  -11.8437   -0.0809 C   0  0  0  0  0  0  0  0  0  0  0  0
    0.1840   -7.9032   -1.8083 C   0  0  0  0  0  0  0  0  0  0  0  0
   -0.0165   -6.5343   -2.4610 C   0  0  0  0  0  0  0  0  0  0  0  0
    0.9696   -5.6033   -2.0538 O   0  0  0  0  0  0  0  0  0  0  0  0
    3.2832   -4.8540   -2.0227 C   0  0  0  0  0  0  0  0  0  0  0  0
    5.3785   -2.8277   -2.2799 N   0  0  0  0  0  0  0  0  0  0  0  0
    8.5801   -2.0178    3.0559 H   0  0  0  0  0  0  0  0  0  0  0  0
    9.4528   -2.7858    1.6905 H   0  0  0  0  0  0  0  0  0  0  0  0
    7.9493   -3.5288    2.3242 H   0  0  0  0  0  0  0  0  0  0  0  0
    6.9005   -3.2991    0.0930 H   0  0  0  0  0  0  0  0  0  0  0  0
    8.3803   -2.5355   -0.5527 H   0  0  0  0  0  0  0  0  0  0  0  0
    7.1070   -0.3915   -0.8890 H   0  0  0  0  0  0  0  0  0  0  0  0
    5.6387   -1.1642   -0.2463 H   0  0  0  0  0  0  0  0  0  0  0  0
    7.5327   -0.6265   -3.3530 H   0  0  0  0  0  0  0  0  0  0  0  0
    6.3940   -2.1815   -5.3692 H   0  0  0  0  0  0  0  0  0  0  0  0
    3.1544   -6.7094   -4.3542 H   0  0  0  0  0  0  0  0  0  0  0  0
    1.9006   -5.4330   -4.5011 H   0  0  0  0  0  0  0  0  0  0  0  0
    2.6003   -7.2372   -0.6143 H   0  0  0  0  0  0  0  0  0  0  0  0
    3.6321   -7.6749   -1.9945 H   0  0  0  0  0  0  0  0  0  0  0  0
    1.6033  -10.9261   -2.9361 H   0  0  0  0  0  0  0  0  0  0  0  0
    0.2549  -10.7796   -1.7901 H   0  0  0  0  0  0  0  0  0  0  0  0
    0.6535  -13.4364   -2.1307 H   0  0  0  0  0  0  0  0  0  0  0  0
    1.5571  -15.3605   -0.8363 H   0  0  0  0  0  0  0  0  0  0  0  0
    4.0435  -12.9046    1.3787 H   0  0  0  0  0  0  0  0  0  0  0  0
    3.2453  -10.8596    0.1694 H   0  0  0  0  0  0  0  0  0  0  0  0
    0.0613   -7.8177   -0.7155 H   0  0  0  0  0  0  0  0  0  0  0  0
   -0.5860   -8.6005   -2.1779 H   0  0  0  0  0  0  0  0  0  0  0  0
   -0.9870   -6.1007   -2.1776 H   0  0  0  0  0  0  0  0  0  0  0  0
   -0.0132   -6.6388   -3.5659 H   0  0  0  0  0  0  0  0  0  0  0  0
    4.1012   -5.1030   -1.3298 H   0  0  0  0  0  0  0  0  0  0  0  0
    2.7772   -3.9415   -1.6713 H   0  0  0  0  0  0  0  0  0  0  0  0
  1  2  1  0
  1 30  1  0
  1 31  1  0
  1 32  1  0
  2  3  1  0
  3  4  1  0
  3 33  1  0
  3 34  1  0
  4  5  1  0
  4 35  1  0
  4 36  1  0
  5  6  1  0
  5 29  1  0
  6  7  2  0
  6 37  1  0
  7  8  1  0
  7 38  1  0
  8  9  1  0
  8 29  2  0
  9 10  2  0
  9 11  1  0
 11 12  1  0
 11 28  1  0
 12 13  1  0
 12 39  1  0
 12 40  1  0
 13 14  1  0
 13 27  1  6
 13 28  1  0
 14 15  1  0
 14 41  1  0
 14 42  1  0
 15 16  1  6
 15 17  1  0
 15 25  1  0
 17 18  1  0
 18 19  1  0
 18 43  1  0
 18 44  1  0
 19 20  2  0
 19 24  1  0
 20 21  1  0
 20 45  1  0
 21 22  2  0
 21 46  1  0
 22 23  1  0
 23 24  2  0
 23 47  1  0
 24 48  1  0
 25 26  1  0
 25 49  1  0
 25 50  1  0
 26 27  1  0
 26 51  1  0
 26 52  1  0
 28 53  1  0
 28 54  1  0
M  END

