
     RDKit          3D

 41 43  0  0  0  0  0  0  0  0999 V2000
    3.7445   -2.2236   -2.3454 C   0  0  0  0  0  0  0  0  0  0  0  0
    4.8695   -1.5502   -1.5577 C   0  0  0  0  0  0  0  0  0  0  0  0
    4.9134   -0.0398   -1.7867 C   0  0  0  0  0  0  0  0  0  0  0  0
    6.2491    0.7277   -0.8381 S   0  0  1  0  0  0  0  0  0  0  0  0
    5.9171    0.6128    0.5880 O   0  0  0  0  0  0  0  0  0  0  0  0
    7.5219    0.2211   -1.3670 O   0  0  0  0  0  0  0  0  0  0  0  0
    6.1072    2.3655   -1.2572 N   0  0  0  0  0  0  0  0  0  0  0  0
    7.2037    3.0786   -1.9596 C   0  0  0  0  0  0  0  0  0  0  0  0
    6.8644    4.3383   -1.1118 C   0  0  2  0  0  0  0  0  0  0  0  0
    6.0810    5.4369   -1.8386 C   0  0  0  0  0  0  0  0  0  0  0  0
    7.0818    6.4321   -2.4181 C   0  0  2  0  0  0  0  0  0  0  0  0
    6.5709    7.3506   -2.7576 H   0  0  0  0  0  0  0  0  0  0  0  0
    7.7098    5.7979   -3.5289 O   0  0  0  0  0  0  0  0  0  0  0  0
    8.4456    6.5145   -4.4174 C   0  0  0  0  0  0  0  0  0  0  0  0
    8.6293    7.9027   -4.4016 C   0  0  0  0  0  0  0  0  0  0  0  0
    9.4041    8.4773   -5.4154 C   0  0  0  0  0  0  0  0  0  0  0  0
    9.9647    7.6584   -6.3950 C   0  0  0  0  0  0  0  0  0  0  0  0
    9.7923    6.3310   -6.4087 N   0  0  0  0  0  0  0  0  0  0  0  0
    9.0592    5.7775   -5.4520 C   0  0  0  0  0  0  0  0  0  0  0  0
    8.0794    6.7462   -1.2913 C   0  0  0  0  0  0  0  0  0  0  0  0
    8.2752    5.2025   -0.2999 S   0  0  0  0  0  0  0  0  0  0  0  0
    6.0187    3.4058   -0.2049 C   0  0  0  0  0  0  0  0  0  0  0  0
    3.7357   -3.3094   -2.1628 H   0  0  0  0  0  0  0  0  0  0  0  0
    3.8623   -2.0691   -3.4308 H   0  0  0  0  0  0  0  0  0  0  0  0
    2.7562   -1.8289   -2.0570 H   0  0  0  0  0  0  0  0  0  0  0  0
    5.8450   -1.9766   -1.8424 H   0  0  0  0  0  0  0  0  0  0  0  0
    4.7463   -1.7379   -0.4786 H   0  0  0  0  0  0  0  0  0  0  0  0
    3.9915    0.4645   -1.4594 H   0  0  0  0  0  0  0  0  0  0  0  0
    5.1073    0.2204   -2.8387 H   0  0  0  0  0  0  0  0  0  0  0  0
    7.0706    3.1684   -3.0473 H   0  0  0  0  0  0  0  0  0  0  0  0
    8.1986    2.6628   -1.7404 H   0  0  0  0  0  0  0  0  0  0  0  0
    5.4456    5.9712   -1.1134 H   0  0  0  0  0  0  0  0  0  0  0  0
    5.4282    5.0214   -2.6216 H   0  0  0  0  0  0  0  0  0  0  0  0
    8.1901    8.5343   -3.6284 H   0  0  0  0  0  0  0  0  0  0  0  0
    9.5696    9.5572   -5.4360 H   0  0  0  0  0  0  0  0  0  0  0  0
   10.5767    8.0859   -7.1969 H   0  0  0  0  0  0  0  0  0  0  0  0
    8.9225    4.6898   -5.4690 H   0  0  0  0  0  0  0  0  0  0  0  0
    7.6888    7.5519   -0.6503 H   0  0  0  0  0  0  0  0  0  0  0  0
    9.0572    7.0588   -1.6829 H   0  0  0  0  0  0  0  0  0  0  0  0
    4.9937    3.7417    0.0202 H   0  0  0  0  0  0  0  0  0  0  0  0
    6.5185    3.1205    0.7342 H   0  0  0  0  0  0  0  0  0  0  0  0
  1  2  1  0
  1 23  1  0
  1 24  1  0
  1 25  1  0
  2  3  1  0
  2 26  1  0
  2 27  1  0
  4  3  1  6
  3 28  1  0
  3 29  1  0
  4  5  2  0
  4  6  2  0
  4  7  1  0
  7  8  1  0
  7 22  1  0
  8  9  1  0
  8 30  1  0
  8 31  1  0
  9 10  1  0
  9 21  1  1
  9 22  1  0
 10 11  1  0
 10 32  1  0
 10 33  1  0
 11 12  1  6
 11 13  1  0
 11 20  1  0
 13 14  1  0
 14 15  2  0
 14 19  1  0
 15 16  1  0
 15 34  1  0
 16 17  2  0
 16 35  1  0
 17 18  1  0
 17 36  1  0
 18 19  2  0
 19 37  1  0
 20 21  1  0
 20 38  1  0
 20 39  1  0
 22 40  1  0
 22 41  1  0
M  END

