
     RDKit          3D

 43 45  0  0  0  0  0  0  0  0999 V2000
    3.7582   -3.4605    0.7413 C   0  0  0  0  0  0  0  0  0  0  0  0
    4.0468   -2.1656    0.2936 O   0  0  0  0  0  0  0  0  0  0  0  0
    4.3701   -1.2621    1.3215 C   0  0  0  0  0  0  0  0  0  0  0  0
    4.6463    0.1042    0.6975 C   0  0  0  0  0  0  0  0  0  0  0  0
    5.0301    1.0815    1.7077 N   0  0  0  0  0  0  0  0  0  0  0  0
    6.4617    1.1386    2.0086 C   0  0  0  0  0  0  0  0  0  0  0  0
    7.2376    2.0166    1.0086 C   0  0  0  0  0  0  0  0  0  0  0  0
    6.6828    3.3622    0.8668 N   0  0  0  0  0  0  0  0  0  0  0  0
    7.0539    4.3159    1.9100 C   0  0  0  0  0  0  0  0  0  0  0  0
    7.0258    5.7420    1.4270 C   0  0  0  0  0  0  0  0  0  0  0  0
    7.1892    6.1679    0.1286 C   0  0  0  0  0  0  0  0  0  0  0  0
    7.1487    7.5477    0.0753 N   0  0  0  0  0  0  0  0  0  0  0  0
    7.2249    8.1009   -0.7670 H   0  0  0  0  0  0  0  0  0  0  0  0
    6.9574    8.0488    1.3437 C   0  0  0  0  0  0  0  0  0  0  0  0
    6.8466    9.3711    1.7961 C   0  0  0  0  0  0  0  0  0  0  0  0
    6.6528    9.5742    3.1600 C   0  0  0  0  0  0  0  0  0  0  0  0
    6.5709    8.4857    4.0561 C   0  0  0  0  0  0  0  0  0  0  0  0
    6.6815    7.1738    3.6051 C   0  0  0  0  0  0  0  0  0  0  0  0
    6.8754    6.9331    2.2300 C   0  0  0  0  0  0  0  0  0  0  0  0
    5.2481    3.3033    0.5691 C   0  0  0  0  0  0  0  0  0  0  0  0
    4.4719    2.4262    1.5679 C   0  0  0  0  0  0  0  0  0  0  0  0
    3.5219   -4.0792   -0.1374 H   0  0  0  0  0  0  0  0  0  0  0  0
    2.8878   -3.4805    1.4295 H   0  0  0  0  0  0  0  0  0  0  0  0
    4.6174   -3.9197    1.2733 H   0  0  0  0  0  0  0  0  0  0  0  0
    5.2591   -1.6137    1.8881 H   0  0  0  0  0  0  0  0  0  0  0  0
    3.5426   -1.1706    2.0554 H   0  0  0  0  0  0  0  0  0  0  0  0
    3.7240    0.4377    0.1960 H   0  0  0  0  0  0  0  0  0  0  0  0
    5.3975   -0.0309   -0.1079 H   0  0  0  0  0  0  0  0  0  0  0  0
    6.8755    0.1170    2.0236 H   0  0  0  0  0  0  0  0  0  0  0  0
    6.5899    1.5418    3.0307 H   0  0  0  0  0  0  0  0  0  0  0  0
    7.2144    1.5339    0.0137 H   0  0  0  0  0  0  0  0  0  0  0  0
    8.2987    2.0899    1.2997 H   0  0  0  0  0  0  0  0  0  0  0  0
    8.0785    4.0619    2.2368 H   0  0  0  0  0  0  0  0  0  0  0  0
    6.4310    4.2389    2.8283 H   0  0  0  0  0  0  0  0  0  0  0  0
    7.3276    5.5686   -0.7685 H   0  0  0  0  0  0  0  0  0  0  0  0
    6.9107   10.2149    1.1040 H   0  0  0  0  0  0  0  0  0  0  0  0
    6.5636   10.5938    3.5436 H   0  0  0  0  0  0  0  0  0  0  0  0
    6.4191    8.6809    5.1207 H   0  0  0  0  0  0  0  0  0  0  0  0
    6.6192    6.3419    4.3116 H   0  0  0  0  0  0  0  0  0  0  0  0
    5.1229    2.8911   -0.4499 H   0  0  0  0  0  0  0  0  0  0  0  0
    4.8430    4.3276    0.5515 H   0  0  0  0  0  0  0  0  0  0  0  0
    3.4125    2.3512    1.2734 H   0  0  0  0  0  0  0  0  0  0  0  0
    4.4846    2.9075    2.5636 H   0  0  0  0  0  0  0  0  0  0  0  0
  1  2  1  0
  1 22  1  0
  1 23  1  0
  1 24  1  0
  2  3  1  0
  3  4  1  0
  3 25  1  0
  3 26  1  0
  4  5  1  0
  4 27  1  0
  4 28  1  0
  5  6  1  0
  5 21  1  0
  6  7  1  0
  6 29  1  0
  6 30  1  0
  7  8  1  0
  7 31  1  0
  7 32  1  0
  8  9  1  0
  8 20  1  0
  9 10  1  0
  9 33  1  0
  9 34  1  0
 10 11  2  0
 10 19  1  0
 11 12  1  0
 11 35  1  0
 12 13  1  0
 12 14  1  0
 14 15  1  0
 14 19  2  0
 15 16  2  0
 15 36  1  0
 16 17  1  0
 16 37  1  0
 17 18  2  0
 17 38  1  0
 18 19  1  0
 18 39  1  0
 20 21  1  0
 20 40  1  0
 20 41  1  0
 21 42  1  0
 21 43  1  0
M  END

