
     RDKit          3D

 53 56  0  0  0  0  0  0  0  0999 V2000
    4.8646   -3.4334   -0.5514 C   0  0  0  0  0  0  0  0  0  0  0  0
    4.7911   -4.8945   -0.9242 C   0  0  0  0  0  0  0  0  0  0  0  0
    5.9584   -5.6288   -1.1579 C   0  0  0  0  0  0  0  0  0  0  0  0
    5.9327   -6.9809   -1.5042 C   0  0  0  0  0  0  0  0  0  0  0  0
    4.6920   -7.6078   -1.6172 C   0  0  0  0  0  0  0  0  0  0  0  0
    4.6212   -9.3032   -2.0498 Cl  0  0  0  0  0  0  0  0  0  0  0  0
    3.4987   -6.9205   -1.3947 C   0  0  0  0  0  0  0  0  0  0  0  0
    3.5428   -5.5595   -1.0468 C   0  0  0  0  0  0  0  0  0  0  0  0
    2.3810   -4.8041   -0.8080 N   0  0  0  0  0  0  0  0  0  0  0  0
    1.0511   -5.2159   -0.8581 C   0  0  0  0  0  0  0  0  0  0  0  0
    0.6999   -6.3488   -1.1310 O   0  0  0  0  0  0  0  0  0  0  0  0
    0.1767   -4.1842   -0.5607 N   0  0  0  0  0  0  0  0  0  0  0  0
   -1.2335   -4.2193   -0.5111 C   0  0  0  0  0  0  0  0  0  0  0  0
   -2.0004   -5.3729   -0.7694 C   0  0  0  0  0  0  0  0  0  0  0  0
   -3.3884   -5.3154   -0.6966 C   0  0  0  0  0  0  0  0  0  0  0  0
   -4.0550   -4.1245   -0.3687 C   0  0  0  0  0  0  0  0  0  0  0  0
   -5.4158   -4.1817   -0.3256 O   0  0  0  0  0  0  0  0  0  0  0  0
   -6.1457   -3.0266   -0.0004 C   0  0  0  0  0  0  0  0  0  0  0  0
   -7.6282   -3.3117   -0.0052 C   0  0  0  0  0  0  0  0  0  0  0  0
   -8.1398   -4.5560   -0.2979 C   0  0  0  0  0  0  0  0  0  0  0  0
   -9.5511   -4.7880   -0.2919 C   0  0  0  0  0  0  0  0  0  0  0  0
  -10.1511   -5.8197   -0.5261 O   0  0  0  0  0  0  0  0  0  0  0  0
  -10.3246   -3.5840    0.0493 N   0  0  0  0  0  0  0  0  0  0  0  0
  -11.6928   -3.7204    0.0776 C   0  0  0  0  0  0  0  0  0  0  0  0
  -12.4937   -2.6607    0.3837 C   0  0  0  0  0  0  0  0  0  0  0  0
  -11.8987   -1.4019    0.6762 C   0  0  0  0  0  0  0  0  0  0  0  0
  -10.5338   -1.2387    0.6548 C   0  0  0  0  0  0  0  0  0  0  0  0
   -9.8592    0.0682    0.9557 C   0  0  0  0  0  0  0  0  0  0  0  0
   -9.6972   -2.3707    0.3287 C   0  0  0  0  0  0  0  0  0  0  0  0
   -8.3835   -2.2342    0.3031 N   0  0  0  0  0  0  0  0  0  0  0  0
   -3.2980   -2.9740   -0.1112 C   0  0  0  0  0  0  0  0  0  0  0  0
   -1.9032   -3.0315   -0.1843 C   0  0  0  0  0  0  0  0  0  0  0  0
    5.9082   -3.0925   -0.5044 H   0  0  0  0  0  0  0  0  0  0  0  0
    4.4153   -3.2319    0.4385 H   0  0  0  0  0  0  0  0  0  0  0  0
    4.3485   -2.7883   -1.2863 H   0  0  0  0  0  0  0  0  0  0  0  0
    6.9237   -5.1233   -1.0654 H   0  0  0  0  0  0  0  0  0  0  0  0
    6.8531   -7.5377   -1.6827 H   0  0  0  0  0  0  0  0  0  0  0  0
    2.5401   -7.4227   -1.4864 H   0  0  0  0  0  0  0  0  0  0  0  0
    2.5527   -3.8371   -0.5681 H   0  0  0  0  0  0  0  0  0  0  0  0
    0.5750   -3.2778   -0.3487 H   0  0  0  0  0  0  0  0  0  0  0  0
   -1.4981   -6.3027   -1.0245 H   0  0  0  0  0  0  0  0  0  0  0  0
   -3.9864   -6.2071   -0.8958 H   0  0  0  0  0  0  0  0  0  0  0  0
   -5.9496   -2.2072   -0.7192 H   0  0  0  0  0  0  0  0  0  0  0  0
   -5.8718   -2.6425    1.0016 H   0  0  0  0  0  0  0  0  0  0  0  0
   -7.4906   -5.3945   -0.5404 H   0  0  0  0  0  0  0  0  0  0  0  0
  -12.0367   -4.7264   -0.1621 H   0  0  0  0  0  0  0  0  0  0  0  0
  -13.5767   -2.7886    0.4009 H   0  0  0  0  0  0  0  0  0  0  0  0
  -12.5374   -0.5496    0.9221 H   0  0  0  0  0  0  0  0  0  0  0  0
  -10.5968    0.8496    1.1875 H   0  0  0  0  0  0  0  0  0  0  0  0
   -9.2437    0.3957    0.1031 H   0  0  0  0  0  0  0  0  0  0  0  0
   -9.1663   -0.0361    1.8055 H   0  0  0  0  0  0  0  0  0  0  0  0
   -3.7728   -2.0274    0.1466 H   0  0  0  0  0  0  0  0  0  0  0  0
   -1.3283   -2.1226    0.0202 H   0  0  0  0  0  0  0  0  0  0  0  0
  1  2  1  0
  1 33  1  0
  1 34  1  0
  1 35  1  0
  2  3  2  0
  2  8  1  0
  3  4  1  0
  3 36  1  0
  4  5  2  0
  4 37  1  0
  5  6  1  0
  5  7  1  0
  7  8  2  0
  7 38  1  0
  8  9  1  0
  9 10  1  0
  9 39  1  0
 10 11  2  0
 10 12  1  0
 12 13  1  0
 12 40  1  0
 13 14  2  0
 13 32  1  0
 14 15  1  0
 14 41  1  0
 15 16  2  0
 15 42  1  0
 16 17  1  0
 16 31  1  0
 17 18  1  0
 18 19  1  0
 18 43  1  0
 18 44  1  0
 19 20  2  0
 19 30  1  0
 20 21  1  0
 20 45  1  0
 21 22  2  0
 21 23  1  0
 23 24  1  0
 23 29  1  0
 24 25  2  0
 24 46  1  0
 25 26  1  0
 25 47  1  0
 26 27  2  0
 26 48  1  0
 27 28  1  0
 27 29  1  0
 28 49  1  0
 28 50  1  0
 28 51  1  0
 29 30  2  0
 31 32  2  0
 31 52  1  0
 32 53  1  0
M  END

