
     RDKit          3D

 37 38  0  0  0  0  0  0  0  0999 V2000
    0.5438   -0.9468    0.6123 C   0  0  0  0  0  0  0  0  0  0  0  0
    1.9198   -0.4372    0.2281 C   0  0  0  0  0  0  0  0  0  0  0  0
    2.8967   -1.2415    0.8674 O   0  0  0  0  0  0  0  0  0  0  0  0
    4.2406   -0.8768    0.6248 C   0  0  1  0  0  0  0  0  0  0  0  0
    4.6055    0.3483    1.4354 C   0  0  0  0  0  0  0  0  0  0  0  0
    5.4029    1.2978    1.0577 N   0  0  0  0  0  0  0  0  0  0  0  0
    5.5807    2.2611    2.0320 C   0  0  0  0  0  0  0  0  0  0  0  0
    6.4608    3.4176    1.7590 C   0  0  0  0  0  0  0  0  0  0  0  0
    7.0680    3.5499    0.4965 C   0  0  0  0  0  0  0  0  0  0  0  0
    7.9007    4.6344    0.2154 C   0  0  0  0  0  0  0  0  0  0  0  0
    8.1453    5.6087    1.1875 C   0  0  0  0  0  0  0  0  0  0  0  0
    7.5486    5.4872    2.4472 C   0  0  0  0  0  0  0  0  0  0  0  0
    6.7166    4.4040    2.7302 C   0  0  0  0  0  0  0  0  0  0  0  0
    4.8716    2.0173    3.1897 C   0  0  0  0  0  0  0  0  0  0  0  0
    3.9650    0.5536    3.0613 S   0  0  0  0  0  0  0  0  0  0  0  0
    5.1276   -2.1064    0.9388 C   0  0  1  0  0  0  0  0  0  0  0  0
    4.6796   -3.3140    0.1069 C   0  0  0  0  0  0  0  0  0  0  0  0
    6.6171   -1.8122    0.7299 C   0  0  0  0  0  0  0  0  0  0  0  0
   -0.2390   -0.3447    0.1250 H   0  0  0  0  0  0  0  0  0  0  0  0
    0.4007   -0.8874    1.7024 H   0  0  0  0  0  0  0  0  0  0  0  0
    0.4165   -1.9970    0.3068 H   0  0  0  0  0  0  0  0  0  0  0  0
    2.0342    0.6233    0.5272 H   0  0  0  0  0  0  0  0  0  0  0  0
    2.0622   -0.4792   -0.8708 H   0  0  0  0  0  0  0  0  0  0  0  0
    4.3889   -0.6003   -0.4388 H   0  0  0  0  0  0  0  0  0  0  0  0
    6.8728    2.7855   -0.2567 H   0  0  0  0  0  0  0  0  0  0  0  0
    8.3623    4.7187   -0.7721 H   0  0  0  0  0  0  0  0  0  0  0  0
    8.7976    6.4576    0.9671 H   0  0  0  0  0  0  0  0  0  0  0  0
    7.7342    6.2414    3.2165 H   0  0  0  0  0  0  0  0  0  0  0  0
    6.2654    4.3271    3.7220 H   0  0  0  0  0  0  0  0  0  0  0  0
    4.8198    2.6236    4.0911 H   0  0  0  0  0  0  0  0  0  0  0  0
    4.9599   -2.3400    2.0062 H   0  0  0  0  0  0  0  0  0  0  0  0
    4.8263   -3.1247   -0.9708 H   0  0  0  0  0  0  0  0  0  0  0  0
    3.6176   -3.5389    0.2729 H   0  0  0  0  0  0  0  0  0  0  0  0
    5.2706   -4.2055    0.3706 H   0  0  0  0  0  0  0  0  0  0  0  0
    6.8254   -1.5468   -0.3205 H   0  0  0  0  0  0  0  0  0  0  0  0
    7.2170   -2.7035    0.9724 H   0  0  0  0  0  0  0  0  0  0  0  0
    6.9751   -0.9825    1.3561 H   0  0  0  0  0  0  0  0  0  0  0  0
  1  2  1  0
  1 19  1  0
  1 20  1  0
  1 21  1  0
  2  3  1  0
  2 22  1  0
  2 23  1  0
  3  4  1  0
  4  5  1  0
  4 16  1  0
  4 24  1  6
  5  6  2  0
  5 15  1  0
  6  7  1  0
  7  8  1  0
  7 14  2  0
  8  9  2  0
  8 13  1  0
  9 10  1  0
  9 25  1  0
 10 11  2  0
 10 26  1  0
 11 12  1  0
 11 27  1  0
 12 13  2  0
 12 28  1  0
 13 29  1  0
 14 15  1  0
 14 30  1  0
 16 17  1  0
 16 18  1  0
 16 31  1  1
 17 32  1  0
 17 33  1  0
 17 34  1  0
 18 35  1  0
 18 36  1  0
 18 37  1  0
M  END

