
     RDKit          3D

 32 32  0  0  0  0  0  0  0  0999 V2000
    3.4719    2.7024   -1.3033 C   0  0  0  0  0  0  0  0  0  0  0  0
    3.5719    1.3649   -0.6587 C   0  0  0  0  0  0  0  0  0  0  0  0
    2.8122    0.7004    0.2647 C   0  0  0  0  0  0  0  0  0  0  0  0
    3.4409   -0.5742    0.4751 C   0  0  0  0  0  0  0  0  0  0  0  0
    4.5390   -0.5977   -0.3381 C   0  0  0  0  0  0  0  0  0  0  0  0
    5.6377   -1.5917   -0.5605 C   0  0  0  0  0  0  0  0  0  0  0  0
    5.2027   -2.9618   -0.3326 N   0  0  0  0  0  0  0  0  0  0  0  0
    4.3494   -3.4643   -1.3943 C   0  0  0  0  0  0  0  0  0  0  0  0
    6.2996   -3.8732   -0.0178 C   0  0  0  0  0  0  0  0  0  0  0  0
    6.9514   -3.5776    1.3052 C   0  0  0  0  0  0  0  0  0  0  0  0
    8.2679   -3.4415    1.5047 C   0  0  0  0  0  0  0  0  0  0  0  0
    8.9198   -3.1841    2.8348 C   0  0  0  0  0  0  0  0  0  0  0  0
    9.9548   -4.1814    3.1029 N   0  0  0  0  0  0  0  0  0  0  0  0
    4.6226    0.5749   -1.0297 O   0  0  0  0  0  0  0  0  0  0  0  0
    2.5900    3.2375   -0.9244 H   0  0  0  0  0  0  0  0  0  0  0  0
    3.3793    2.6184   -2.3997 H   0  0  0  0  0  0  0  0  0  0  0  0
    4.3636    3.3190   -1.0977 H   0  0  0  0  0  0  0  0  0  0  0  0
    1.9070    1.0760    0.7381 H   0  0  0  0  0  0  0  0  0  0  0  0
    3.1275   -1.3761    1.1388 H   0  0  0  0  0  0  0  0  0  0  0  0
    6.4673   -1.3785    0.1356 H   0  0  0  0  0  0  0  0  0  0  0  0
    6.0512   -1.4352   -1.5838 H   0  0  0  0  0  0  0  0  0  0  0  0
    3.5056   -2.7777   -1.5562 H   0  0  0  0  0  0  0  0  0  0  0  0
    3.9372   -4.4474   -1.1166 H   0  0  0  0  0  0  0  0  0  0  0  0
    4.8845   -3.5805   -2.3651 H   0  0  0  0  0  0  0  0  0  0  0  0
    7.0716   -3.9040   -0.8216 H   0  0  0  0  0  0  0  0  0  0  0  0
    5.8640   -4.8878    0.0275 H   0  0  0  0  0  0  0  0  0  0  0  0
    6.2607   -3.4868    2.1541 H   0  0  0  0  0  0  0  0  0  0  0  0
    8.9610   -3.5379    0.6586 H   0  0  0  0  0  0  0  0  0  0  0  0
    8.1329   -3.1034    3.6156 H   0  0  0  0  0  0  0  0  0  0  0  0
    9.4185   -2.1973    2.7972 H   0  0  0  0  0  0  0  0  0  0  0  0
    9.5288   -5.0971    3.2514 H   0  0  0  0  0  0  0  0  0  0  0  0
   10.4583   -3.9528    3.9600 H   0  0  0  0  0  0  0  0  0  0  0  0
  1  2  1  0
  1 15  1  0
  1 16  1  0
  1 17  1  0
  2  3  2  0
  2 14  1  0
  3  4  1  0
  3 18  1  0
  4  5  2  0
  4 19  1  0
  5  6  1  0
  5 14  1  0
  6  7  1  0
  6 20  1  0
  6 21  1  0
  7  8  1  0
  7  9  1  0
  8 22  1  0
  8 23  1  0
  8 24  1  0
  9 10  1  0
  9 25  1  0
  9 26  1  0
 10 11  2  0
 10 27  1  0
 11 12  1  0
 11 28  1  0
 12 13  1  0
 12 29  1  0
 12 30  1  0
 13 31  1  0
 13 32  1  0
M  END

