
     RDKit          3D

 48 49  0  0  0  0  0  0  0  0999 V2000
    1.7727    2.2747    2.4758 C   0  0  0  0  0  0  0  0  0  0  0  0
    3.0407    2.1068    1.8889 O   0  0  0  0  0  0  0  0  0  0  0  0
    3.0352    1.3190    0.7169 C   0  0  0  0  0  0  0  0  0  0  0  0
    4.4694    1.2635    0.1549 C   0  0  1  0  0  0  0  0  0  0  0  0
    5.3882    0.4706    1.1046 C   0  0  0  0  0  0  0  0  0  0  0  0
    4.4381    0.5635   -1.2276 C   0  0  0  0  0  0  0  0  0  0  0  0
    3.7287    1.3469   -2.3337 C   0  0  0  0  0  0  0  0  0  0  0  0
    2.5350    1.2847   -2.5070 O   0  0  0  0  0  0  0  0  0  0  0  0
    4.5110    2.1065   -3.1036 O   0  0  0  0  0  0  0  0  0  0  0  0
    4.9209    2.6669    0.0979 N   0  0  0  0  0  0  0  0  0  0  0  0
    5.9727    3.1692   -0.5915 C   0  0  0  0  0  0  0  0  0  0  0  0
    6.5815    2.5154   -1.4521 O   0  0  0  0  0  0  0  0  0  0  0  0
    6.3720    4.5818   -0.2875 C   0  0  0  0  0  0  0  0  0  0  0  0
    7.5892    5.0369   -0.8144 C   0  0  0  0  0  0  0  0  0  0  0  0
    8.0428    6.3337   -0.5794 C   0  0  0  0  0  0  0  0  0  0  0  0
    7.2733    7.2254    0.1893 C   0  0  0  0  0  0  0  0  0  0  0  0
    7.7202    8.8962    0.5633 S   0  0  0  0  0  0  0  0  0  0  0  0
    9.3271    9.1256   -0.3090 C   0  0  0  0  0  0  0  0  0  0  0  0
    9.8515   10.5026   -0.0300 C   0  0  0  0  0  0  0  0  0  0  0  0
    9.6666   11.6042   -0.8286 C   0  0  0  0  0  0  0  0  0  0  0  0
   10.4256   12.9846   -0.1183 S   0  0  0  0  0  0  0  0  0  0  0  0
   10.9450   11.9724    1.2283 C   0  0  0  0  0  0  0  0  0  0  0  0
   11.7470   12.5272    2.3647 C   0  0  0  0  0  0  0  0  0  0  0  0
   10.5695   10.7330    1.1214 N   0  0  0  0  0  0  0  0  0  0  0  0
    6.0405    6.7775    0.7087 C   0  0  0  0  0  0  0  0  0  0  0  0
    5.6012    5.4798    0.4745 C   0  0  0  0  0  0  0  0  0  0  0  0
    1.8947    2.9164    3.3603 H   0  0  0  0  0  0  0  0  0  0  0  0
    1.3412    1.3068    2.7976 H   0  0  0  0  0  0  0  0  0  0  0  0
    1.0579    2.7546    1.7794 H   0  0  0  0  0  0  0  0  0  0  0  0
    2.3477    1.7408   -0.0392 H   0  0  0  0  0  0  0  0  0  0  0  0
    2.6963    0.2878    0.9385 H   0  0  0  0  0  0  0  0  0  0  0  0
    5.0813   -0.5863    1.1492 H   0  0  0  0  0  0  0  0  0  0  0  0
    5.3376    0.8885    2.1204 H   0  0  0  0  0  0  0  0  0  0  0  0
    6.4287    0.5142    0.7503 H   0  0  0  0  0  0  0  0  0  0  0  0
    3.8813   -0.3772   -1.1037 H   0  0  0  0  0  0  0  0  0  0  0  0
    5.4650    0.3203   -1.5266 H   0  0  0  0  0  0  0  0  0  0  0  0
    5.4167    2.1551   -2.7143 H   0  0  0  0  0  0  0  0  0  0  0  0
    4.5425    3.2141    0.8654 H   0  0  0  0  0  0  0  0  0  0  0  0
    8.1787    4.3447   -1.4182 H   0  0  0  0  0  0  0  0  0  0  0  0
    8.9999    6.6394   -1.0017 H   0  0  0  0  0  0  0  0  0  0  0  0
    9.1735    8.9736   -1.3869 H   0  0  0  0  0  0  0  0  0  0  0  0
   10.0448    8.3833    0.0689 H   0  0  0  0  0  0  0  0  0  0  0  0
    9.1325   11.6693   -1.7751 H   0  0  0  0  0  0  0  0  0  0  0  0
   12.7086   12.9399    2.0190 H   0  0  0  0  0  0  0  0  0  0  0  0
   11.9468   11.7161    3.0777 H   0  0  0  0  0  0  0  0  0  0  0  0
   11.2065   13.3332    2.8866 H   0  0  0  0  0  0  0  0  0  0  0  0
    5.4210    7.4608    1.2951 H   0  0  0  0  0  0  0  0  0  0  0  0
    4.6278    5.1877    0.8765 H   0  0  0  0  0  0  0  0  0  0  0  0
  1  2  1  0
  1 27  1  0
  1 28  1  0
  1 29  1  0
  2  3  1  0
  3  4  1  0
  3 30  1  0
  3 31  1  0
  4  5  1  0
  4  6  1  0
  4 10  1  6
  5 32  1  0
  5 33  1  0
  5 34  1  0
  6  7  1  0
  6 35  1  0
  6 36  1  0
  7  8  2  0
  7  9  1  0
  9 37  1  0
 10 11  1  0
 10 38  1  0
 11 12  2  0
 11 13  1  0
 13 14  2  0
 13 26  1  0
 14 15  1  0
 14 39  1  0
 15 16  2  0
 15 40  1  0
 16 17  1  0
 16 25  1  0
 17 18  1  0
 18 19  1  0
 18 41  1  0
 18 42  1  0
 19 20  2  0
 19 24  1  0
 20 21  1  0
 20 43  1  0
 21 22  1  0
 22 23  1  0
 22 24  2  0
 23 44  1  0
 23 45  1  0
 23 46  1  0
 25 26  2  0
 25 47  1  0
 26 48  1  0
M  END

