
     RDKit          3D

 37 39  0  0  0  0  0  0  0  0999 V2000
    2.6294    2.5000    1.1828 N   0  0  0  0  0  0  0  0  0  0  0  0
    3.2388    1.5894    0.7947 C   0  0  0  0  0  0  0  0  0  0  0  0
    3.9935    0.4944    0.2621 C   0  0  0  0  0  0  0  0  0  0  0  0
    4.0781   -0.7361    0.8509 C   0  0  0  0  0  0  0  0  0  0  0  0
    3.5025   -1.3486    2.0304 C   0  0  0  0  0  0  0  0  0  0  0  0
    4.0137   -2.5687    2.4594 C   0  0  0  0  0  0  0  0  0  0  0  0
    3.3705   -3.0119    3.5847 N   0  0  0  0  0  0  0  0  0  0  0  0
    3.6514   -4.2415    4.2912 C   0  0  0  0  0  0  0  0  0  0  0  0
    4.5193   -4.1144    5.5593 C   0  0  0  0  0  0  0  0  0  0  0  0
    4.8374   -5.0878    6.1815 O   0  0  0  0  0  0  0  0  0  0  0  0
    4.8911   -2.8785    5.9187 O   0  0  0  0  0  0  0  0  0  0  0  0
    2.3825   -2.0842    3.9177 C   0  0  0  0  0  0  0  0  0  0  0  0
    1.4637   -2.1301    4.9742 C   0  0  0  0  0  0  0  0  0  0  0  0
    0.5522   -1.0833    5.0752 C   0  0  0  0  0  0  0  0  0  0  0  0
    0.5633   -0.0277    4.1434 C   0  0  0  0  0  0  0  0  0  0  0  0
    1.4827    0.0147    3.0984 C   0  0  0  0  0  0  0  0  0  0  0  0
    2.4289   -1.0219    2.9691 C   0  0  0  0  0  0  0  0  0  0  0  0
    4.6996    0.7524   -1.0273 C   0  0  0  0  0  0  0  0  0  0  0  0
    4.6344   -0.1611   -2.0957 C   0  0  0  0  0  0  0  0  0  0  0  0
    5.3142    0.0675   -3.2937 C   0  0  0  0  0  0  0  0  0  0  0  0
    6.0731    1.2307   -3.4546 C   0  0  0  0  0  0  0  0  0  0  0  0
    6.1527    2.1590   -2.4140 C   0  0  0  0  0  0  0  0  0  0  0  0
    5.4739    1.9086   -1.2252 C   0  0  0  0  0  0  0  0  0  0  0  0
    5.5824    2.7962   -0.2279 F   0  0  0  0  0  0  0  0  0  0  0  0
    4.7621   -1.4146    0.3298 H   0  0  0  0  0  0  0  0  0  0  0  0
    4.8199   -3.1542    2.0187 H   0  0  0  0  0  0  0  0  0  0  0  0
    4.1692   -4.9407    3.6191 H   0  0  0  0  0  0  0  0  0  0  0  0
    2.7123   -4.7330    4.5901 H   0  0  0  0  0  0  0  0  0  0  0  0
    4.5286   -2.2152    5.3094 H   0  0  0  0  0  0  0  0  0  0  0  0
    1.4584   -2.9503    5.6948 H   0  0  0  0  0  0  0  0  0  0  0  0
   -0.1798   -1.0837    5.8862 H   0  0  0  0  0  0  0  0  0  0  0  0
   -0.1633    0.7818    4.2431 H   0  0  0  0  0  0  0  0  0  0  0  0
    1.4663    0.8521    2.4051 H   0  0  0  0  0  0  0  0  0  0  0  0
    4.0148   -1.0539   -1.9838 H   0  0  0  0  0  0  0  0  0  0  0  0
    5.2385   -0.6572   -4.1074 H   0  0  0  0  0  0  0  0  0  0  0  0
    6.6017    1.4208   -4.3916 H   0  0  0  0  0  0  0  0  0  0  0  0
    6.7404    3.0750   -2.4993 H   0  0  0  0  0  0  0  0  0  0  0  0
  1  2  3  0
  2  3  1  0
  3  4  2  0
  3 18  1  0
  4  5  1  0
  4 25  1  0
  5  6  2  0
  5 17  1  0
  6  7  1  0
  6 26  1  0
  7  8  1  0
  7 12  1  0
  8  9  1  0
  8 27  1  0
  8 28  1  0
  9 10  2  0
  9 11  1  0
 11 29  1  0
 12 13  1  0
 12 17  2  0
 13 14  2  0
 13 30  1  0
 14 15  1  0
 14 31  1  0
 15 16  2  0
 15 32  1  0
 16 17  1  0
 16 33  1  0
 18 19  2  0
 18 23  1  0
 19 20  1  0
 19 34  1  0
 20 21  2  0
 20 35  1  0
 21 22  1  0
 21 36  1  0
 22 23  2  0
 22 37  1  0
 23 24  1  0
M  END

