
     RDKit          3D

 30 31  0  0  0  0  0  0  0  0999 V2000
    1.2544   -2.4710    1.2480 C   0  0  0  0  0  0  0  0  0  0  0  0
    3.0369   -2.7428    1.5067 S   0  0  0  0  0  0  0  0  0  0  0  0
    3.7111   -1.5826    0.2291 C   0  0  0  0  0  0  0  0  0  0  0  0
    5.2018   -1.4122    0.3362 C   0  0  0  0  0  0  0  0  0  0  0  0
    6.0490   -1.9003   -0.6557 C   0  0  0  0  0  0  0  0  0  0  0  0
    7.4250   -1.6477   -0.6085 C   0  0  0  0  0  0  0  0  0  0  0  0
    7.8962   -0.8790    0.4524 C   0  0  0  0  0  0  0  0  0  0  0  0
    7.1183   -0.4182    1.4333 N   0  0  0  0  0  0  0  0  0  0  0  0
    5.8099   -0.6881    1.4138 C   0  0  0  0  0  0  0  0  0  0  0  0
    5.0067   -0.2580    2.4520 N   0  0  0  0  0  0  0  0  0  0  0  0
    5.2796    0.5438    3.5700 C   0  0  0  0  0  0  0  0  0  0  0  0
    6.4615    1.2862    3.7579 C   0  0  0  0  0  0  0  0  0  0  0  0
    6.6072    2.0811    4.8979 C   0  0  0  0  0  0  0  0  0  0  0  0
    5.6047    2.1569    5.8680 C   0  0  0  0  0  0  0  0  0  0  0  0
    4.4318    1.4167    5.6854 C   0  0  0  0  0  0  0  0  0  0  0  0
    4.2700    0.6212    4.5534 C   0  0  0  0  0  0  0  0  0  0  0  0
    0.7275   -3.0993    1.9801 H   0  0  0  0  0  0  0  0  0  0  0  0
    0.9485   -2.7764    0.2355 H   0  0  0  0  0  0  0  0  0  0  0  0
    0.9758   -1.4193    1.4160 H   0  0  0  0  0  0  0  0  0  0  0  0
    3.2036   -0.6119    0.3671 H   0  0  0  0  0  0  0  0  0  0  0  0
    3.4455   -1.9656   -0.7676 H   0  0  0  0  0  0  0  0  0  0  0  0
    5.6213   -2.4669   -1.4882 H   0  0  0  0  0  0  0  0  0  0  0  0
    8.1013   -2.0171   -1.3813 H   0  0  0  0  0  0  0  0  0  0  0  0
    8.9597   -0.6201    0.5203 H   0  0  0  0  0  0  0  0  0  0  0  0
    4.1176   -0.7493    2.5106 H   0  0  0  0  0  0  0  0  0  0  0  0
    7.2536    1.2173    3.0176 H   0  0  0  0  0  0  0  0  0  0  0  0
    7.5322    2.6501    5.0263 H   0  0  0  0  0  0  0  0  0  0  0  0
    5.7346    2.7811    6.7551 H   0  0  0  0  0  0  0  0  0  0  0  0
    3.6332    1.4562    6.4311 H   0  0  0  0  0  0  0  0  0  0  0  0
    3.3489    0.0452    4.4204 H   0  0  0  0  0  0  0  0  0  0  0  0
  1  2  1  0
  1 17  1  0
  1 18  1  0
  1 19  1  0
  2  3  1  0
  3  4  1  0
  3 20  1  0
  3 21  1  0
  4  5  2  0
  4  9  1  0
  5  6  1  0
  5 22  1  0
  6  7  2  0
  6 23  1  0
  7  8  1  0
  7 24  1  0
  8  9  2  0
  9 10  1  0
 10 11  1  0
 10 25  1  0
 11 12  2  0
 11 16  1  0
 12 13  1  0
 12 26  1  0
 13 14  2  0
 13 27  1  0
 14 15  1  0
 14 28  1  0
 15 16  2  0
 15 29  1  0
 16 30  1  0
M  END

