
     RDKit          3D

 68 72  0  0  0  0  0  0  0  0999 V2000
   -0.6606    7.5203    3.8757 C   0  0  0  0  0  0  0  0  0  0  0  0
    0.1183    6.3058    4.0256 N   0  0  0  0  0  0  0  0  0  0  0  0
   -0.5081    5.2486    4.8112 C   0  0  0  0  0  0  0  0  0  0  0  0
   -1.5324    4.4169    4.0185 C   0  0  0  0  0  0  0  0  0  0  0  0
   -0.8954    3.8651    2.7361 C   0  0  0  0  0  0  0  0  0  0  0  0
   -0.2511    4.9871    1.9216 C   0  0  2  0  0  0  0  0  0  0  0  0
    0.4356    4.3759    0.8305 O   0  0  0  0  0  0  0  0  0  0  0  0
    0.7117    5.0527   -0.3144 C   0  0  0  0  0  0  0  0  0  0  0  0
    0.3484    6.3851   -0.5763 C   0  0  0  0  0  0  0  0  0  0  0  0
    0.6715    6.9677   -1.8048 C   0  0  0  0  0  0  0  0  0  0  0  0
    1.3630    6.2551   -2.7944 C   0  0  0  0  0  0  0  0  0  0  0  0
    1.7225    6.9154   -4.1120 C   0  0  0  0  0  0  0  0  0  0  0  0
    2.7980    7.8921   -4.0111 N   0  0  0  0  0  0  0  0  0  0  0  0
    2.5734    9.2221   -3.9105 C   0  0  0  0  0  0  0  0  0  0  0  0
    1.4750    9.7595   -3.9380 O   0  0  0  0  0  0  0  0  0  0  0  0
    3.8410   10.0464   -3.7623 C   0  0  0  0  0  0  0  0  0  0  0  0
    3.7550   11.4384   -3.6934 C   0  0  0  0  0  0  0  0  0  0  0  0
    4.9623   12.1267   -3.5585 C   0  0  0  0  0  0  0  0  0  0  0  0
    4.9567   13.6439   -3.4773 C   0  0  0  0  0  0  0  0  0  0  0  0
    3.9062   14.2696   -3.4967 O   0  0  0  0  0  0  0  0  0  0  0  0
    6.1928   14.1878   -3.3935 N   0  0  0  0  0  0  0  0  0  0  0  0
    6.4196   15.6190   -3.2534 C   0  0  0  0  0  0  0  0  0  0  0  0
    6.7293   16.0558   -1.8331 C   0  0  0  0  0  0  0  0  0  0  0  0
    5.7094   16.0729   -0.8642 C   0  0  0  0  0  0  0  0  0  0  0  0
    5.9571   16.4550    0.4583 C   0  0  0  0  0  0  0  0  0  0  0  0
    7.2596   16.8250    0.7929 C   0  0  0  0  0  0  0  0  0  0  0  0
    8.2939   16.8181   -0.1504 C   0  0  0  0  0  0  0  0  0  0  0  0
    8.0332   16.4299   -1.4614 C   0  0  0  0  0  0  0  0  0  0  0  0
    9.5671   17.2141    0.5640 C   0  0  0  0  0  0  0  0  0  0  0  0
    9.0092   17.7241    1.9141 C   0  0  0  0  0  0  0  0  0  0  0  0
    7.6633   17.2190    2.0285 O   0  0  0  0  0  0  0  0  0  0  0  0
    6.1375   11.4871   -3.4930 N   0  0  0  0  0  0  0  0  0  0  0  0
    6.1084   10.1570   -3.5630 C   0  0  0  0  0  0  0  0  0  0  0  0
    5.0159    9.4064   -3.6970 N   0  0  0  0  0  0  0  0  0  0  0  0
    1.7223    4.9268   -2.5181 C   0  0  0  0  0  0  0  0  0  0  0  0
    1.4037    4.3295   -1.3009 C   0  0  0  0  0  0  0  0  0  0  0  0
    0.7255    5.7921    2.8079 C   0  0  0  0  0  0  0  0  0  0  0  0
   -0.9335    7.9101    4.8700 H   0  0  0  0  0  0  0  0  0  0  0  0
   -1.6045    7.4190    3.2943 H   0  0  0  0  0  0  0  0  0  0  0  0
   -0.0514    8.2917    3.3772 H   0  0  0  0  0  0  0  0  0  0  0  0
   -0.9740    5.6973    5.7034 H   0  0  0  0  0  0  0  0  0  0  0  0
    0.2895    4.5731    5.1751 H   0  0  0  0  0  0  0  0  0  0  0  0
   -2.4061    5.0432    3.7643 H   0  0  0  0  0  0  0  0  0  0  0  0
   -1.9137    3.5904    4.6416 H   0  0  0  0  0  0  0  0  0  0  0  0
   -1.6319    3.3309    2.1144 H   0  0  0  0  0  0  0  0  0  0  0  0
   -0.1048    3.1364    2.9909 H   0  0  0  0  0  0  0  0  0  0  0  0
   -1.0466    5.6493    1.5355 H   0  0  0  0  0  0  0  0  0  0  0  0
   -0.1879    6.9780    0.1646 H   0  0  0  0  0  0  0  0  0  0  0  0
    0.3797    8.0036   -1.9988 H   0  0  0  0  0  0  0  0  0  0  0  0
    0.8537    7.4555   -4.5154 H   0  0  0  0  0  0  0  0  0  0  0  0
    2.0149    6.1487   -4.8470 H   0  0  0  0  0  0  0  0  0  0  0  0
    3.7622    7.5911   -3.8951 H   0  0  0  0  0  0  0  0  0  0  0  0
    2.7990   11.9585   -3.7421 H   0  0  0  0  0  0  0  0  0  0  0  0
    6.9649   13.5313   -3.3125 H   0  0  0  0  0  0  0  0  0  0  0  0
    5.5038   16.1100   -3.6127 H   0  0  0  0  0  0  0  0  0  0  0  0
    7.2442   15.9122   -3.9231 H   0  0  0  0  0  0  0  0  0  0  0  0
    4.6962   15.7867   -1.1600 H   0  0  0  0  0  0  0  0  0  0  0  0
    5.1634   16.4758    1.2072 H   0  0  0  0  0  0  0  0  0  0  0  0
    8.8364   16.4191   -2.2051 H   0  0  0  0  0  0  0  0  0  0  0  0
   10.1459   17.9893    0.0383 H   0  0  0  0  0  0  0  0  0  0  0  0
   10.2328   16.3431    0.6987 H   0  0  0  0  0  0  0  0  0  0  0  0
    8.9650   18.8274    1.9391 H   0  0  0  0  0  0  0  0  0  0  0  0
    9.5776   17.3794    2.7897 H   0  0  0  0  0  0  0  0  0  0  0  0
    7.0697    9.6331   -3.5059 H   0  0  0  0  0  0  0  0  0  0  0  0
    2.2577    4.3424   -3.2729 H   0  0  0  0  0  0  0  0  0  0  0  0
    1.6766    3.2941   -1.0869 H   0  0  0  0  0  0  0  0  0  0  0  0
    1.1691    6.6253    2.2407 H   0  0  0  0  0  0  0  0  0  0  0  0
    1.5537    5.1097    3.0754 H   0  0  0  0  0  0  0  0  0  0  0  0
  1  2  1  0
  1 38  1  0
  1 39  1  0
  1 40  1  0
  2  3  1  0
  2 37  1  0
  3  4  1  0
  3 41  1  0
  3 42  1  0
  4  5  1  0
  4 43  1  0
  4 44  1  0
  5  6  1  0
  5 45  1  0
  5 46  1  0
  6  7  1  0
  6 37  1  0
  6 47  1  6
  7  8  1  0
  8  9  2  0
  8 36  1  0
  9 10  1  0
  9 48  1  0
 10 11  2  0
 10 49  1  0
 11 12  1  0
 11 35  1  0
 12 13  1  0
 12 50  1  0
 12 51  1  0
 13 14  1  0
 13 52  1  0
 14 15  2  0
 14 16  1  0
 16 17  2  0
 16 34  1  0
 17 18  1  0
 17 53  1  0
 18 19  1  0
 18 32  2  0
 19 20  2  0
 19 21  1  0
 21 22  1  0
 21 54  1  0
 22 23  1  0
 22 55  1  0
 22 56  1  0
 23 24  2  0
 23 28  1  0
 24 25  1  0
 24 57  1  0
 25 26  2  0
 25 58  1  0
 26 27  1  0
 26 31  1  0
 27 28  2  0
 27 29  1  0
 28 59  1  0
 29 30  1  0
 29 60  1  0
 29 61  1  0
 30 31  1  0
 30 62  1  0
 30 63  1  0
 32 33  1  0
 33 34  2  0
 33 64  1  0
 35 36  2  0
 35 65  1  0
 36 66  1  0
 37 67  1  0
 37 68  1  0
M  END

