
     RDKit          3D

 34 34  0  0  0  0  0  0  0  0999 V2000
    0.8889    1.3729   -1.0647 C   0  0  0  0  0  0  0  0  0  0  0  0
    2.3554    1.6549   -0.7854 C   0  0  0  0  0  0  0  0  0  0  0  0
    3.0998    0.5072   -1.1640 O   0  0  0  0  0  0  0  0  0  0  0  0
    4.5334    0.5387   -1.1818 C   0  0  1  0  0  0  0  0  0  0  0  0
    5.1371    0.8597    0.2307 C   0  0  1  0  0  0  0  0  0  0  0  0
    5.4008    2.3448    0.5312 C   0  0  0  0  0  0  0  0  0  0  0  0
    4.2919    0.2712    1.2658 N   0  0  0  0  0  0  0  0  0  0  0  0
    4.9763   -0.2377    2.4349 C   0  0  0  0  0  0  0  0  0  0  0  0
    4.9176   -0.9013   -1.5954 C   0  0  0  0  0  0  0  0  0  0  0  0
    4.4579   -1.2239   -3.0162 C   0  0  0  0  0  0  0  0  0  0  0  0
    4.9930   -0.3047   -3.9498 O   0  0  0  0  0  0  0  0  0  0  0  0
    4.6031    1.0247   -3.6758 C   0  0  0  0  0  0  0  0  0  0  0  0
    5.0527    1.4844   -2.2861 C   0  0  0  0  0  0  0  0  0  0  0  0
    0.2680    2.2315   -0.7636 H   0  0  0  0  0  0  0  0  0  0  0  0
    0.5516    0.4884   -0.5020 H   0  0  0  0  0  0  0  0  0  0  0  0
    0.7207    1.1794   -2.1357 H   0  0  0  0  0  0  0  0  0  0  0  0
    2.5072    1.8638    0.2879 H   0  0  0  0  0  0  0  0  0  0  0  0
    2.6815    2.5473   -1.3532 H   0  0  0  0  0  0  0  0  0  0  0  0
    6.1353    0.3684    0.2271 H   0  0  0  0  0  0  0  0  0  0  0  0
    4.4929    2.9578    0.4423 H   0  0  0  0  0  0  0  0  0  0  0  0
    6.1749    2.7665   -0.1278 H   0  0  0  0  0  0  0  0  0  0  0  0
    5.7653    2.4487    1.5652 H   0  0  0  0  0  0  0  0  0  0  0  0
    3.6669   -0.4228    0.8646 H   0  0  0  0  0  0  0  0  0  0  0  0
    5.4734    0.5798    2.9842 H   0  0  0  0  0  0  0  0  0  0  0  0
    5.7578   -1.0007    2.2155 H   0  0  0  0  0  0  0  0  0  0  0  0
    4.2481   -0.6894    3.1271 H   0  0  0  0  0  0  0  0  0  0  0  0
    4.4801   -1.6213   -0.8846 H   0  0  0  0  0  0  0  0  0  0  0  0
    6.0131   -1.0043   -1.5445 H   0  0  0  0  0  0  0  0  0  0  0  0
    3.3517   -1.2200   -3.0590 H   0  0  0  0  0  0  0  0  0  0  0  0
    4.8098   -2.2216   -3.3212 H   0  0  0  0  0  0  0  0  0  0  0  0
    3.5026    1.1273   -3.7635 H   0  0  0  0  0  0  0  0  0  0  0  0
    5.0615    1.6538   -4.4546 H   0  0  0  0  0  0  0  0  0  0  0  0
    4.7209    2.5203   -2.1165 H   0  0  0  0  0  0  0  0  0  0  0  0
    6.1547    1.4949   -2.2497 H   0  0  0  0  0  0  0  0  0  0  0  0
  1  2  1  0
  1 14  1  0
  1 15  1  0
  1 16  1  0
  2  3  1  0
  2 17  1  0
  2 18  1  0
  4  3  1  1
  4  5  1  0
  4  9  1  0
  4 13  1  0
  5  6  1  0
  5  7  1  0
  5 19  1  6
  6 20  1  0
  6 21  1  0
  6 22  1  0
  7  8  1  0
  7 23  1  0
  8 24  1  0
  8 25  1  0
  8 26  1  0
  9 10  1  0
  9 27  1  0
  9 28  1  0
 10 11  1  0
 10 29  1  0
 10 30  1  0
 11 12  1  0
 12 13  1  0
 12 31  1  0
 12 32  1  0
 13 33  1  0
 13 34  1  0
M  END

