
     RDKit          3D

 75 77  0  0  0  0  0  0  0  0999 V2000
    3.2863    2.0658    5.9526 C   0  0  0  0  0  0  0  0  0  0  0  0
    4.2223    2.0826    4.7593 C   0  0  0  0  0  0  0  0  0  0  0  0
    5.4598    2.6385    5.1748 O   0  0  0  0  0  0  0  0  0  0  0  0
    6.4622    2.7992    4.2710 C   0  0  0  0  0  0  0  0  0  0  0  0
    6.3935    2.4075    2.9262 C   0  0  0  0  0  0  0  0  0  0  0  0
    7.4667    2.6387    2.0597 C   0  0  0  0  0  0  0  0  0  0  0  0
    8.6346    3.2630    2.5138 C   0  0  0  0  0  0  0  0  0  0  0  0
    9.8016    3.4977    1.5732 C   0  0  0  0  0  0  0  0  0  0  0  0
   10.5538    2.2934    1.2456 N   0  0  0  0  0  0  0  0  0  0  0  0
   10.3235    1.5702    0.1226 C   0  0  0  0  0  0  0  0  0  0  0  0
    9.4939    1.8553   -0.7272 O   0  0  0  0  0  0  0  0  0  0  0  0
   11.1529    0.2856   -0.0104 C   0  0  0  0  0  0  0  0  0  0  0  0
   12.4456    0.3389    0.6691 N   0  0  0  0  0  0  0  0  0  0  0  0
   13.4582    1.2259    0.1657 C   0  0  0  0  0  0  0  0  0  0  0  0
   13.6125    1.4389   -1.2118 C   0  0  0  0  0  0  0  0  0  0  0  0
   14.5783    2.3327   -1.6948 C   0  0  0  0  0  0  0  0  0  0  0  0
   14.7098    2.5825   -3.1784 C   0  0  0  0  0  0  0  0  0  0  0  0
   15.4010    2.9938   -0.7724 C   0  0  0  0  0  0  0  0  0  0  0  0
   15.2705    2.7914    0.6095 C   0  0  0  0  0  0  0  0  0  0  0  0
   16.1657    3.5063    1.5934 C   0  0  0  0  0  0  0  0  0  0  0  0
   14.2834    1.9108    1.0692 C   0  0  0  0  0  0  0  0  0  0  0  0
   12.9566   -1.1073    1.4572 S   0  0  1  0  0  0  0  0  0  0  0  0
   14.0581   -0.7340    2.3428 O   0  0  0  0  0  0  0  0  0  0  0  0
   11.7280   -1.7134    1.9792 O   0  0  0  0  0  0  0  0  0  0  0  0
   13.6079   -2.1780    0.1833 C   0  0  0  0  0  0  0  0  0  0  0  0
   14.9448   -2.0768   -0.1850 C   0  0  0  0  0  0  0  0  0  0  0  0
   15.4295   -2.9036   -1.2072 C   0  0  0  0  0  0  0  0  0  0  0  0
   14.5906   -3.8203   -1.8480 C   0  0  0  0  0  0  0  0  0  0  0  0
   14.9702   -4.6541   -2.8360 O   0  0  0  0  0  0  0  0  0  0  0  0
   16.3082   -4.6338   -3.2839 C   0  0  0  0  0  0  0  0  0  0  0  0
   13.2231   -3.9224   -1.4499 C   0  0  0  0  0  0  0  0  0  0  0  0
   12.4902   -4.8468   -2.1060 O   0  0  0  0  0  0  0  0  0  0  0  0
   11.1317   -5.0127   -1.7614 C   0  0  0  0  0  0  0  0  0  0  0  0
   12.7426   -3.0986   -0.4341 C   0  0  0  0  0  0  0  0  0  0  0  0
    8.7026    3.6437    3.8620 C   0  0  0  0  0  0  0  0  0  0  0  0
    7.6429    3.4235    4.7433 C   0  0  0  0  0  0  0  0  0  0  0  0
    7.7450    3.8752    6.0283 O   0  0  0  0  0  0  0  0  0  0  0  0
    7.8197    2.8969    7.0673 C   0  0  0  0  0  0  0  0  0  0  0  0
    7.9249    3.6266    8.3916 C   0  0  0  0  0  0  0  0  0  0  0  0
    2.3073    1.6545    5.6615 H   0  0  0  0  0  0  0  0  0  0  0  0
    3.1354    3.0843    6.3416 H   0  0  0  0  0  0  0  0  0  0  0  0
    3.6958    1.4443    6.7638 H   0  0  0  0  0  0  0  0  0  0  0  0
    3.7963    2.6878    3.9369 H   0  0  0  0  0  0  0  0  0  0  0  0
    4.3774    1.0589    4.3686 H   0  0  0  0  0  0  0  0  0  0  0  0
    5.4941    1.9286    2.5389 H   0  0  0  0  0  0  0  0  0  0  0  0
    7.3948    2.3316    1.0133 H   0  0  0  0  0  0  0  0  0  0  0  0
   10.4948    4.2333    2.0107 H   0  0  0  0  0  0  0  0  0  0  0  0
    9.4382    3.9016    0.6174 H   0  0  0  0  0  0  0  0  0  0  0  0
   11.2190    1.9181    1.9132 H   0  0  0  0  0  0  0  0  0  0  0  0
   11.2205    0.0617   -1.0870 H   0  0  0  0  0  0  0  0  0  0  0  0
   10.5640   -0.5152    0.4595 H   0  0  0  0  0  0  0  0  0  0  0  0
   12.9753    0.9102   -1.9225 H   0  0  0  0  0  0  0  0  0  0  0  0
   14.6758    1.6417   -3.7509 H   0  0  0  0  0  0  0  0  0  0  0  0
   15.6528    3.0946   -3.4207 H   0  0  0  0  0  0  0  0  0  0  0  0
   13.8840    3.2143   -3.5486 H   0  0  0  0  0  0  0  0  0  0  0  0
   16.1611    3.6899   -1.1396 H   0  0  0  0  0  0  0  0  0  0  0  0
   16.8303    4.2239    1.0901 H   0  0  0  0  0  0  0  0  0  0  0  0
   16.7975    2.7918    2.1474 H   0  0  0  0  0  0  0  0  0  0  0  0
   15.5764    4.0592    2.3433 H   0  0  0  0  0  0  0  0  0  0  0  0
   14.1574    1.7327    2.1374 H   0  0  0  0  0  0  0  0  0  0  0  0
   15.6062   -1.3760    0.3249 H   0  0  0  0  0  0  0  0  0  0  0  0
   16.4780   -2.8286   -1.4947 H   0  0  0  0  0  0  0  0  0  0  0  0
   16.3804   -5.3867   -4.0796 H   0  0  0  0  0  0  0  0  0  0  0  0
   17.0143   -4.8959   -2.4758 H   0  0  0  0  0  0  0  0  0  0  0  0
   16.5872   -3.6475   -3.6961 H   0  0  0  0  0  0  0  0  0  0  0  0
   10.7395   -5.8032   -2.4147 H   0  0  0  0  0  0  0  0  0  0  0  0
   10.5511   -4.0876   -1.9281 H   0  0  0  0  0  0  0  0  0  0  0  0
   11.0113   -5.3234   -0.7081 H   0  0  0  0  0  0  0  0  0  0  0  0
   11.7144   -3.1734   -0.0844 H   0  0  0  0  0  0  0  0  0  0  0  0
    9.5894    4.1417    4.2632 H   0  0  0  0  0  0  0  0  0  0  0  0
    8.7055    2.2539    6.9007 H   0  0  0  0  0  0  0  0  0  0  0  0
    6.9259    2.2518    7.0453 H   0  0  0  0  0  0  0  0  0  0  0  0
    8.8158    4.2734    8.4123 H   0  0  0  0  0  0  0  0  0  0  0  0
    7.9967    2.9061    9.2216 H   0  0  0  0  0  0  0  0  0  0  0  0
    7.0385    4.2592    8.5541 H   0  0  0  0  0  0  0  0  0  0  0  0
  1  2  1  0
  1 40  1  0
  1 41  1  0
  1 42  1  0
  2  3  1  0
  2 43  1  0
  2 44  1  0
  3  4  1  0
  4  5  2  0
  4 36  1  0
  5  6  1  0
  5 45  1  0
  6  7  2  0
  6 46  1  0
  7  8  1  0
  7 35  1  0
  8  9  1  0
  8 47  1  0
  8 48  1  0
  9 10  1  0
  9 49  1  0
 10 11  2  0
 10 12  1  0
 12 13  1  0
 12 50  1  0
 12 51  1  0
 13 14  1  0
 22 13  1  6
 14 15  2  0
 14 21  1  0
 15 16  1  0
 15 52  1  0
 16 17  1  0
 16 18  2  0
 17 53  1  0
 17 54  1  0
 17 55  1  0
 18 19  1  0
 18 56  1  0
 19 20  1  0
 19 21  2  0
 20 57  1  0
 20 58  1  0
 20 59  1  0
 21 60  1  0
 22 23  2  0
 22 24  2  0
 22 25  1  0
 25 26  2  0
 25 34  1  0
 26 27  1  0
 26 61  1  0
 27 28  2  0
 27 62  1  0
 28 29  1  0
 28 31  1  0
 29 30  1  0
 30 63  1  0
 30 64  1  0
 30 65  1  0
 31 32  1  0
 31 34  2  0
 32 33  1  0
 33 66  1  0
 33 67  1  0
 33 68  1  0
 34 69  1  0
 35 36  2  0
 35 70  1  0
 36 37  1  0
 37 38  1  0
 38 39  1  0
 38 71  1  0
 38 72  1  0
 39 73  1  0
 39 74  1  0
 39 75  1  0
M  END

