
     RDKit          3D

 39 41  0  0  0  0  0  0  0  0999 V2000
    5.2565   -3.0576    0.6520 Cl  0  0  0  0  0  0  0  0  0  0  0  0
    5.1148   -1.3602    0.2122 C   0  0  0  0  0  0  0  0  0  0  0  0
    6.2618   -0.7214   -0.2644 C   0  0  0  0  0  0  0  0  0  0  0  0
    6.1838    0.6177   -0.6461 C   0  0  0  0  0  0  0  0  0  0  0  0
    4.9725    1.3030   -0.5548 C   0  0  0  0  0  0  0  0  0  0  0  0
    3.8416    0.6376   -0.0739 C   0  0  0  0  0  0  0  0  0  0  0  0
    2.3460    1.5503    0.0076 Cl  0  0  0  0  0  0  0  0  0  0  0  0
    3.8729   -0.7091    0.3394 C   0  0  0  0  0  0  0  0  0  0  0  0
    2.6432   -1.4305    0.8453 C   0  0  0  0  0  0  0  0  0  0  0  0
    1.9629   -2.1260   -0.2411 N   0  0  0  0  0  0  0  0  0  0  0  0
    0.7106   -2.7935    0.1257 C   0  0  1  0  0  0  0  0  0  0  0  0
   -0.4336   -1.7742    0.3110 C   0  0  0  0  0  0  0  0  0  0  0  0
   -0.8239   -1.1168   -1.0242 C   0  0  0  0  0  0  0  0  0  0  0  0
   -1.1734   -2.0801   -2.0697 N   0  0  0  0  0  0  0  0  0  0  0  0
   -2.4938   -2.6318   -1.9743 C   0  0  1  0  0  0  0  0  0  0  0  0
   -3.6433   -1.7985   -2.4826 C   0  0  0  0  0  0  0  0  0  0  0  0
   -3.1924   -3.0128   -3.2550 C   0  0  0  0  0  0  0  0  0  0  0  0
   -0.1042   -3.0553   -2.2769 C   0  0  0  0  0  0  0  0  0  0  0  0
    0.3194   -3.7835   -0.9873 C   0  0  0  0  0  0  0  0  0  0  0  0
    7.1976   -1.2770   -0.3361 H   0  0  0  0  0  0  0  0  0  0  0  0
    7.0730    1.1303   -1.0205 H   0  0  0  0  0  0  0  0  0  0  0  0
    4.8921    2.3483   -0.8552 H   0  0  0  0  0  0  0  0  0  0  0  0
    1.9582   -0.6876    1.2738 H   0  0  0  0  0  0  0  0  0  0  0  0
    2.9405   -2.1083    1.6723 H   0  0  0  0  0  0  0  0  0  0  0  0
    2.6036   -2.8099   -0.6421 H   0  0  0  0  0  0  0  0  0  0  0  0
    0.8301   -3.3615    1.0762 H   0  0  0  0  0  0  0  0  0  0  0  0
   -0.1533   -0.9974    1.0417 H   0  0  0  0  0  0  0  0  0  0  0  0
   -1.3004   -2.3014    0.7457 H   0  0  0  0  0  0  0  0  0  0  0  0
    0.0294   -0.5145   -1.3777 H   0  0  0  0  0  0  0  0  0  0  0  0
   -1.6731   -0.4301   -0.8813 H   0  0  0  0  0  0  0  0  0  0  0  0
   -2.7299   -3.2712   -1.1051 H   0  0  0  0  0  0  0  0  0  0  0  0
   -3.3906   -0.8202   -2.9003 H   0  0  0  0  0  0  0  0  0  0  0  0
   -4.5946   -1.8393   -1.9444 H   0  0  0  0  0  0  0  0  0  0  0  0
   -2.6426   -2.8360   -4.1833 H   0  0  0  0  0  0  0  0  0  0  0  0
   -3.8287   -3.9024   -3.2573 H   0  0  0  0  0  0  0  0  0  0  0  0
    0.7700   -2.5229   -2.6889 H   0  0  0  0  0  0  0  0  0  0  0  0
   -0.4312   -3.7823   -3.0372 H   0  0  0  0  0  0  0  0  0  0  0  0
    1.1597   -4.4706   -1.1958 H   0  0  0  0  0  0  0  0  0  0  0  0
   -0.5095   -4.4130   -0.6220 H   0  0  0  0  0  0  0  0  0  0  0  0
  1  2  1  0
  2  3  2  0
  2  8  1  0
  3  4  1  0
  3 20  1  0
  4  5  2  0
  4 21  1  0
  5  6  1  0
  5 22  1  0
  6  7  1  0
  6  8  2  0
  8  9  1  0
  9 10  1  0
  9 23  1  0
  9 24  1  0
 10 11  1  0
 10 25  1  0
 11 12  1  0
 11 19  1  0
 11 26  1  1
 12 13  1  0
 12 27  1  0
 12 28  1  0
 13 14  1  0
 13 29  1  0
 13 30  1  0
 14 15  1  0
 14 18  1  0
 15 16  1  0
 15 17  1  0
 15 31  1  1
 16 17  1  0
 16 32  1  0
 16 33  1  0
 17 34  1  0
 17 35  1  0
 18 19  1  0
 18 36  1  0
 18 37  1  0
 19 38  1  0
 19 39  1  0
M  END

