
     RDKit          3D

 42 43  0  0  0  0  0  0  0  0999 V2000
    3.0641    1.7334   -0.0349 C   0  0  0  0  0  0  0  0  0  0  0  0
    2.6805    0.2516   -0.0241 C   0  0  2  0  0  0  0  0  0  0  0  0
    1.5757    0.1780   -0.0043 H   0  0  0  0  0  0  0  0  0  0  0  0
    3.2150   -0.4811    1.2181 C   0  0  0  0  0  0  0  0  0  0  0  0
    2.6944    0.0830    2.4526 N   0  0  0  0  0  0  0  0  0  0  0  0
    3.0927   -0.5980    3.6872 C   0  0  1  0  0  0  0  0  0  0  0  0
    2.9516   -1.6985    3.5920 H   0  0  0  0  0  0  0  0  0  0  0  0
    4.5731   -0.3431    4.0321 C   0  0  0  0  0  0  0  0  0  0  0  0
    4.8438    1.1230    4.3873 C   0  0  0  0  0  0  0  0  0  0  0  0
    3.9377    1.6053    5.5263 C   0  0  0  0  0  0  0  0  0  0  0  0
    2.4552    1.3596    5.1990 C   0  0  2  0  0  0  0  0  0  0  0  0
    2.1774    1.9815    4.3322 H   0  0  0  0  0  0  0  0  0  0  0  0
    1.5471    1.8175    6.3266 C   0  0  1  0  0  0  0  0  0  0  0  0
    1.7272    3.1205    6.6125 F   0  0  0  0  0  0  0  0  0  0  0  0
    0.2456    1.6593    6.0117 F   0  0  0  0  0  0  0  0  0  0  0  0
    1.7619    1.1290    7.4665 F   0  0  0  0  0  0  0  0  0  0  0  0
    2.2020   -0.1162    4.8441 C   0  0  0  0  0  0  0  0  0  0  0  0
    3.1515   -0.4919   -1.2896 C   0  0  0  0  0  0  0  0  0  0  0  0
    2.5809    0.0049   -2.5322 N   0  0  0  0  0  0  0  0  0  0  0  0
    3.1345    0.9247   -3.4007 C   0  0  0  0  0  0  0  0  0  0  0  0
    2.2033    1.1002   -4.4011 C   0  0  0  0  0  0  0  0  0  0  0  0
    1.0999    0.3190   -4.1700 N   0  0  0  0  0  0  0  0  0  0  0  0
    1.3547   -0.3193   -3.0507 C   0  0  0  0  0  0  0  0  0  0  0  0
    4.1604    1.8529   -0.0894 H   0  0  0  0  0  0  0  0  0  0  0  0
    2.7240    2.2241    0.8875 H   0  0  0  0  0  0  0  0  0  0  0  0
    2.6218    2.2593   -0.8940 H   0  0  0  0  0  0  0  0  0  0  0  0
    4.3167   -0.4051    1.2259 H   0  0  0  0  0  0  0  0  0  0  0  0
    2.9864   -1.5687    1.1256 H   0  0  0  0  0  0  0  0  0  0  0  0
    1.6756    0.1038    2.4016 H   0  0  0  0  0  0  0  0  0  0  0  0
    5.2238   -0.6656    3.2034 H   0  0  0  0  0  0  0  0  0  0  0  0
    4.8341   -0.9885    4.8894 H   0  0  0  0  0  0  0  0  0  0  0  0
    4.6753    1.7494    3.4959 H   0  0  0  0  0  0  0  0  0  0  0  0
    5.9006    1.2533    4.6729 H   0  0  0  0  0  0  0  0  0  0  0  0
    4.1033    2.6752    5.7270 H   0  0  0  0  0  0  0  0  0  0  0  0
    4.1893    1.0654    6.4563 H   0  0  0  0  0  0  0  0  0  0  0  0
    1.1395   -0.2672    4.5897 H   0  0  0  0  0  0  0  0  0  0  0  0
    2.4027   -0.7405    5.7302 H   0  0  0  0  0  0  0  0  0  0  0  0
    2.8985   -1.5611   -1.2063 H   0  0  0  0  0  0  0  0  0  0  0  0
    4.2489   -0.4312   -1.3740 H   0  0  0  0  0  0  0  0  0  0  0  0
    4.1203    1.3521   -3.2333 H   0  0  0  0  0  0  0  0  0  0  0  0
    2.2784    1.7453   -5.2762 H   0  0  0  0  0  0  0  0  0  0  0  0
    0.6991   -1.0419   -2.5618 H   0  0  0  0  0  0  0  0  0  0  0  0
  1  2  1  0
  1 24  1  0
  1 25  1  0
  1 26  1  0
  2  3  1  1
  2  4  1  0
  2 18  1  0
  4  5  1  0
  4 27  1  0
  4 28  1  0
  5  6  1  0
  5 29  1  0
  6  7  1  6
  6  8  1  0
  6 17  1  0
  8  9  1  0
  8 30  1  0
  8 31  1  0
  9 10  1  0
  9 32  1  0
  9 33  1  0
 10 11  1  0
 10 34  1  0
 10 35  1  0
 11 12  1  6
 11 13  1  0
 11 17  1  0
 13 14  1  1
 13 15  1  0
 13 16  1  0
 17 36  1  0
 17 37  1  0
 18 19  1  0
 18 38  1  0
 18 39  1  0
 19 20  1  0
 19 23  1  0
 20 21  2  0
 20 40  1  0
 21 22  1  0
 21 41  1  0
 22 23  2  0
 23 42  1  0
M  END

