
     RDKit          3D

 53 56  0  0  0  0  0  0  0  0999 V2000
    1.1764   -1.8200    1.3106 C   0  0  0  0  0  0  0  0  0  0  0  0
    2.5839   -1.7324    1.1058 O   0  0  0  0  0  0  0  0  0  0  0  0
    3.1649   -0.5545    1.4262 C   0  0  0  0  0  0  0  0  0  0  0  0
    2.5270    0.3788    1.8739 O   0  0  0  0  0  0  0  0  0  0  0  0
    4.6185   -0.5811    1.1646 C   0  0  0  0  0  0  0  0  0  0  0  0
    5.3806    0.5144    1.4581 C   0  0  0  0  0  0  0  0  0  0  0  0
    4.8830    1.8297    1.9959 C   0  0  0  0  0  0  0  0  0  0  0  0
    6.7589    0.4442    1.2936 N   0  0  0  0  0  0  0  0  0  0  0  0
    7.4321   -0.7369    1.0591 C   0  0  0  0  0  0  0  0  0  0  0  0
    6.7346   -1.8653    0.7496 C   0  0  0  0  0  0  0  0  0  0  0  0
    7.4256   -3.1578    0.6296 C   0  0  0  0  0  0  0  0  0  0  0  0
    6.8126   -4.2034    0.4758 O   0  0  0  0  0  0  0  0  0  0  0  0
    8.9498   -3.1419    0.6521 C   0  0  0  0  0  0  0  0  0  0  0  0
    9.5612   -2.0435    1.5496 C   0  0  2  0  0  0  0  0  0  0  0  0
   10.6332   -1.9801    1.3008 H   0  0  0  0  0  0  0  0  0  0  0  0
    9.4922   -2.4045    3.0320 C   0  0  0  0  0  0  0  0  0  0  0  0
   10.3954   -3.3597    3.5309 C   0  0  0  0  0  0  0  0  0  0  0  0
   10.3874   -3.7506    4.8694 C   0  0  0  0  0  0  0  0  0  0  0  0
    9.4587   -3.1770    5.7432 C   0  0  0  0  0  0  0  0  0  0  0  0
    9.4386   -3.6538    7.4249 Cl  0  0  0  0  0  0  0  0  0  0  0  0
    8.5519   -2.2230    5.2802 C   0  0  0  0  0  0  0  0  0  0  0  0
    8.5748   -1.8451    3.9339 C   0  0  0  0  0  0  0  0  0  0  0  0
    8.9346   -0.6874    1.1820 C   0  0  0  0  0  0  0  0  0  0  0  0
    5.2277   -1.8303    0.5355 C   0  0  2  0  0  0  0  0  0  0  0  0
    4.8054   -2.7206    1.0209 H   0  0  0  0  0  0  0  0  0  0  0  0
    4.8926   -1.9574   -0.9574 C   0  0  0  0  0  0  0  0  0  0  0  0
    4.5305   -3.2027   -1.4981 C   0  0  0  0  0  0  0  0  0  0  0  0
    4.2449   -3.3403   -2.8552 C   0  0  0  0  0  0  0  0  0  0  0  0
    4.3274   -2.2159   -3.6784 C   0  0  0  0  0  0  0  0  0  0  0  0
    4.0257   -2.3512   -5.1164 N   0  0  0  0  0  0  0  0  0  0  0  0
    3.7019   -3.4549   -5.5264 O   0  0  0  0  0  0  0  0  0  0  0  0
    4.1187   -1.3507   -5.8114 O   0  0  0  0  0  0  0  0  0  0  0  0
    4.6882   -0.9652   -3.1757 C   0  0  0  0  0  0  0  0  0  0  0  0
    4.9684   -0.8472   -1.8151 C   0  0  0  0  0  0  0  0  0  0  0  0
    0.8830   -2.8271    0.9894 H   0  0  0  0  0  0  0  0  0  0  0  0
    0.6459   -1.0603    0.7167 H   0  0  0  0  0  0  0  0  0  0  0  0
    0.9232   -1.6683    2.3711 H   0  0  0  0  0  0  0  0  0  0  0  0
    4.0823    2.2395    1.3666 H   0  0  0  0  0  0  0  0  0  0  0  0
    5.7040    2.5612    2.0615 H   0  0  0  0  0  0  0  0  0  0  0  0
    4.4382    1.7036    2.9939 H   0  0  0  0  0  0  0  0  0  0  0  0
    7.3008    1.2607    1.5478 H   0  0  0  0  0  0  0  0  0  0  0  0
    9.2766   -2.9791   -0.3922 H   0  0  0  0  0  0  0  0  0  0  0  0
    9.2926   -4.1457    0.9396 H   0  0  0  0  0  0  0  0  0  0  0  0
   11.1306   -3.8096    2.8569 H   0  0  0  0  0  0  0  0  0  0  0  0
   11.0977   -4.4914    5.2400 H   0  0  0  0  0  0  0  0  0  0  0  0
    7.8310   -1.7797    5.9691 H   0  0  0  0  0  0  0  0  0  0  0  0
    7.8508   -1.1007    3.5990 H   0  0  0  0  0  0  0  0  0  0  0  0
    9.3471   -0.3596    0.2100 H   0  0  0  0  0  0  0  0  0  0  0  0
    9.2282    0.0833    1.9146 H   0  0  0  0  0  0  0  0  0  0  0  0
    4.4910   -4.0743   -0.8430 H   0  0  0  0  0  0  0  0  0  0  0  0
    3.9607   -4.2990   -3.2882 H   0  0  0  0  0  0  0  0  0  0  0  0
    4.7399   -0.1126   -3.8521 H   0  0  0  0  0  0  0  0  0  0  0  0
    5.2420    0.1305   -1.4124 H   0  0  0  0  0  0  0  0  0  0  0  0
  1  2  1  0
  1 35  1  0
  1 36  1  0
  1 37  1  0
  2  3  1  0
  3  4  2  0
  3  5  1  0
  5  6  2  0
  5 24  1  0
  6  7  1  0
  6  8  1  0
  7 38  1  0
  7 39  1  0
  7 40  1  0
  8  9  1  0
  8 41  1  0
  9 10  2  0
  9 23  1  0
 10 11  1  0
 10 24  1  0
 11 12  2  0
 11 13  1  0
 13 14  1  0
 13 42  1  0
 13 43  1  0
 14 15  1  6
 14 16  1  0
 14 23  1  0
 16 17  2  0
 16 22  1  0
 17 18  1  0
 17 44  1  0
 18 19  2  0
 18 45  1  0
 19 20  1  0
 19 21  1  0
 21 22  2  0
 21 46  1  0
 22 47  1  0
 23 48  1  0
 23 49  1  0
 24 25  1  1
 24 26  1  0
 26 27  2  0
 26 34  1  0
 27 28  1  0
 27 50  1  0
 28 29  2  0
 28 51  1  0
 29 30  1  0
 29 33  1  0
 30 31  2  0
 30 32  1  0
 33 34  2  0
 33 52  1  0
 34 53  1  0
M  CHG  2  30   1  32  -1
M  END

