
     RDKit          3D

 43 44  0  0  0  0  0  0  0  0999 V2000
   -1.6443    2.4489   -4.6725 C   0  0  0  0  0  0  0  0  0  0  0  0
   -0.4433    2.0788   -5.3128 O   0  0  0  0  0  0  0  0  0  0  0  0
    0.7048    2.7084   -4.9850 C   0  0  0  0  0  0  0  0  0  0  0  0
    0.8095    3.7364   -4.0366 C   0  0  0  0  0  0  0  0  0  0  0  0
    2.0409    4.3434   -3.7735 C   0  0  0  0  0  0  0  0  0  0  0  0
    3.1997    3.9242   -4.4342 C   0  0  0  0  0  0  0  0  0  0  0  0
    4.4488    4.5188   -4.0989 N   0  0  0  0  0  0  0  0  0  0  0  0
    5.4442    5.0311   -4.8910 C   0  0  0  0  0  0  0  0  0  0  0  0
    6.5270    5.3239   -4.4130 O   0  0  0  0  0  0  0  0  0  0  0  0
    5.0996    5.3639   -6.3512 C   0  0  0  0  0  0  0  0  0  0  0  0
    6.2056    5.1235   -7.2679 N   0  0  0  0  0  0  0  0  0  0  0  0
    6.7064    6.1970   -8.1238 C   0  0  0  0  0  0  0  0  0  0  0  0
    8.0653    6.7909   -7.7717 C   0  0  0  0  0  0  0  0  0  0  0  0
    8.8225    7.4006   -8.7844 C   0  0  0  0  0  0  0  0  0  0  0  0
   10.0467    8.0113   -8.5041 C   0  0  0  0  0  0  0  0  0  0  0  0
   10.5137    8.0003   -7.1916 C   0  0  0  0  0  0  0  0  0  0  0  0
   11.6921    8.5794   -6.9126 F   0  0  0  0  0  0  0  0  0  0  0  0
    9.7892    7.3965   -6.1675 C   0  0  0  0  0  0  0  0  0  0  0  0
    8.5623    6.7930   -6.4596 C   0  0  0  0  0  0  0  0  0  0  0  0
    6.6122    3.8138   -7.3793 C   0  0  0  0  0  0  0  0  0  0  0  0
    7.7247    3.4962   -8.3590 C   0  0  0  0  0  0  0  0  0  0  0  0
    6.0756    2.9396   -6.7102 O   0  0  0  0  0  0  0  0  0  0  0  0
    3.1152    2.8768   -5.3683 C   0  0  0  0  0  0  0  0  0  0  0  0
    1.8831    2.2943   -5.6488 C   0  0  0  0  0  0  0  0  0  0  0  0
    1.7840    1.0090   -6.8232 Cl  0  0  0  0  0  0  0  0  0  0  0  0
   -2.4299    1.8070   -5.0925 H   0  0  0  0  0  0  0  0  0  0  0  0
   -1.9038    3.5055   -4.8650 H   0  0  0  0  0  0  0  0  0  0  0  0
   -1.5944    2.2866   -3.5808 H   0  0  0  0  0  0  0  0  0  0  0  0
   -0.0755    4.0816   -3.5020 H   0  0  0  0  0  0  0  0  0  0  0  0
    2.1001    5.1548   -3.0443 H   0  0  0  0  0  0  0  0  0  0  0  0
    4.7313    4.4702   -3.1222 H   0  0  0  0  0  0  0  0  0  0  0  0
    4.8703    6.4401   -6.3639 H   0  0  0  0  0  0  0  0  0  0  0  0
    4.1968    4.8289   -6.6782 H   0  0  0  0  0  0  0  0  0  0  0  0
    5.9510    6.9995   -8.1005 H   0  0  0  0  0  0  0  0  0  0  0  0
    6.7295    5.8560   -9.1718 H   0  0  0  0  0  0  0  0  0  0  0  0
    8.4543    7.3998   -9.8151 H   0  0  0  0  0  0  0  0  0  0  0  0
   10.6448    8.4856   -9.2847 H   0  0  0  0  0  0  0  0  0  0  0  0
   10.1899    7.4023   -5.1517 H   0  0  0  0  0  0  0  0  0  0  0  0
    7.9894    6.3135   -5.6609 H   0  0  0  0  0  0  0  0  0  0  0  0
    8.6038    4.1389   -8.2068 H   0  0  0  0  0  0  0  0  0  0  0  0
    7.3834    3.6373   -9.3979 H   0  0  0  0  0  0  0  0  0  0  0  0
    8.0021    2.4446   -8.2202 H   0  0  0  0  0  0  0  0  0  0  0  0
    4.0170    2.5259   -5.8733 H   0  0  0  0  0  0  0  0  0  0  0  0
  1  2  1  0
  1 26  1  0
  1 27  1  0
  1 28  1  0
  2  3  1  0
  3  4  2  0
  3 24  1  0
  4  5  1  0
  4 29  1  0
  5  6  2  0
  5 30  1  0
  6  7  1  0
  6 23  1  0
  7  8  1  0
  7 31  1  0
  8  9  2  0
  8 10  1  0
 10 11  1  0
 10 32  1  0
 10 33  1  0
 11 12  1  0
 11 20  1  0
 12 13  1  0
 12 34  1  0
 12 35  1  0
 13 14  2  0
 13 19  1  0
 14 15  1  0
 14 36  1  0
 15 16  2  0
 15 37  1  0
 16 17  1  0
 16 18  1  0
 18 19  2  0
 18 38  1  0
 19 39  1  0
 20 21  1  0
 20 22  2  0
 21 40  1  0
 21 41  1  0
 21 42  1  0
 23 24  2  0
 23 43  1  0
 24 25  1  0
M  END

