
     RDKit          3D

 37 38  0  0  0  0  0  0  0  0999 V2000
    2.8105   -0.6258    0.3197 O   0  0  0  0  0  0  0  0  0  0  0  0
    2.2220    0.4352    0.1554 C   0  0  0  0  0  0  0  0  0  0  0  0
    0.7398    0.5265   -0.0056 C   0  0  0  0  0  0  0  0  0  0  0  0
   -0.0126   -0.5881    0.0350 C   0  0  0  0  0  0  0  0  0  0  0  0
   -1.4689   -0.7003   -0.1016 C   0  0  0  0  0  0  0  0  0  0  0  0
   -2.3173    0.4078   -0.3055 C   0  0  0  0  0  0  0  0  0  0  0  0
   -3.6939    0.2345   -0.4275 C   0  0  0  0  0  0  0  0  0  0  0  0
   -4.2663   -1.0406   -0.3509 C   0  0  0  0  0  0  0  0  0  0  0  0
   -3.4299   -2.1409   -0.1490 C   0  0  0  0  0  0  0  0  0  0  0  0
   -4.1216   -3.7448   -0.0498 Cl  0  0  0  0  0  0  0  0  0  0  0  0
   -2.0488   -1.9813   -0.0251 C   0  0  0  0  0  0  0  0  0  0  0  0
    2.8659    1.6419    0.1118 N   0  0  0  0  0  0  0  0  0  0  0  0
    4.3036    1.7781    0.1742 C   0  0  0  0  0  0  0  0  0  0  0  0
    4.8274    2.6639   -0.9630 C   0  0  1  0  0  0  0  0  0  0  0  0
    4.1325    3.9236   -0.9203 O   0  0  0  0  0  0  0  0  0  0  0  0
    6.3488    2.8985   -0.9068 C   0  0  0  0  0  0  0  0  0  0  0  0
    6.6863    3.3772   -2.3233 C   0  0  0  0  0  0  0  0  0  0  0  0
    5.8538    2.4351   -3.2143 C   0  0  0  0  0  0  0  0  0  0  0  0
    4.5872    2.0918   -2.3832 C   0  0  0  0  0  0  0  0  0  0  0  0
    0.2979    1.5172   -0.1523 H   0  0  0  0  0  0  0  0  0  0  0  0
    0.5366   -1.5237    0.1890 H   0  0  0  0  0  0  0  0  0  0  0  0
   -1.8966    1.4130   -0.3694 H   0  0  0  0  0  0  0  0  0  0  0  0
   -4.3394    1.1021   -0.5855 H   0  0  0  0  0  0  0  0  0  0  0  0
   -5.3437   -1.1835   -0.4457 H   0  0  0  0  0  0  0  0  0  0  0  0
   -1.4172   -2.8575    0.1321 H   0  0  0  0  0  0  0  0  0  0  0  0
    2.3476    2.4876   -0.0992 H   0  0  0  0  0  0  0  0  0  0  0  0
    4.7344    0.7678    0.1325 H   0  0  0  0  0  0  0  0  0  0  0  0
    4.6109    2.2227    1.1427 H   0  0  0  0  0  0  0  0  0  0  0  0
    4.4462    4.4095   -0.1441 H   0  0  0  0  0  0  0  0  0  0  0  0
    6.8592    1.9431   -0.6919 H   0  0  0  0  0  0  0  0  0  0  0  0
    6.6335    3.6055   -0.1085 H   0  0  0  0  0  0  0  0  0  0  0  0
    7.7635    3.3530   -2.5490 H   0  0  0  0  0  0  0  0  0  0  0  0
    6.3405    4.4161   -2.4437 H   0  0  0  0  0  0  0  0  0  0  0  0
    6.4278    1.5171   -3.4224 H   0  0  0  0  0  0  0  0  0  0  0  0
    5.6115    2.8838   -4.1895 H   0  0  0  0  0  0  0  0  0  0  0  0
    4.4128    1.0064   -2.3409 H   0  0  0  0  0  0  0  0  0  0  0  0
    3.6792    2.5519   -2.7978 H   0  0  0  0  0  0  0  0  0  0  0  0
  1  2  2  0
  2  3  1  0
  2 12  1  0
  3  4  2  0
  3 20  1  0
  4  5  1  0
  4 21  1  0
  5  6  2  0
  5 11  1  0
  6  7  1  0
  6 22  1  0
  7  8  2  0
  7 23  1  0
  8  9  1  0
  8 24  1  0
  9 10  1  0
  9 11  2  0
 11 25  1  0
 12 13  1  0
 12 26  1  0
 13 14  1  0
 13 27  1  0
 13 28  1  0
 14 15  1  6
 14 16  1  0
 14 19  1  0
 15 29  1  0
 16 17  1  0
 16 30  1  0
 16 31  1  0
 17 18  1  0
 17 32  1  0
 17 33  1  0
 18 19  1  0
 18 34  1  0
 18 35  1  0
 19 36  1  0
 19 37  1  0
M  END

