
     RDKit          3D

 43 44  0  0  0  0  0  0  0  0999 V2000
    0.7778    0.0367   -0.1243 C   0  0  0  0  0  0  0  0  0  0  0  0
    2.1910    0.3106   -0.3173 N   0  0  0  0  0  0  0  0  0  0  0  0
    2.7519   -0.4563   -1.4268 C   0  0  0  0  0  0  0  0  0  0  0  0
    4.2659   -0.6591   -1.3241 C   0  0  0  0  0  0  0  0  0  0  0  0
    4.8102   -1.5857   -2.4219 C   0  0  1  0  0  0  0  0  0  0  0  0
    4.5389   -1.1153   -3.7275 O   0  0  0  0  0  0  0  0  0  0  0  0
    5.3483   -0.0300   -4.1543 C   0  0  0  0  0  0  0  0  0  0  0  0
    6.8279   -0.3821   -4.0123 C   0  0  0  0  0  0  0  0  0  0  0  0
    7.0817   -0.8602   -2.5838 C   0  0  0  0  0  0  0  0  0  0  0  0
    6.1743   -1.8958   -2.2393 O   0  0  0  0  0  0  0  0  0  0  0  0
    2.4783    1.7392   -0.3949 C   0  0  0  0  0  0  0  0  0  0  0  0
    2.5231    2.4163    0.9800 C   0  0  0  0  0  0  0  0  0  0  0  0
    2.9523    3.8000    0.9097 N   0  0  0  0  0  0  0  0  0  0  0  0
    1.9978    4.7474    0.3438 C   0  0  0  0  0  0  0  0  0  0  0  0
    2.6182    6.1252    0.6430 C   0  0  0  0  0  0  0  0  0  0  0  0
    3.5378    5.8754    1.8703 C   0  0  0  0  0  0  0  0  0  0  0  0
    3.3463    4.3825    2.1867 C   0  0  0  0  0  0  0  0  0  0  0  0
    0.6190   -1.0387    0.0540 H   0  0  0  0  0  0  0  0  0  0  0  0
    0.1495    0.3335   -0.9970 H   0  0  0  0  0  0  0  0  0  0  0  0
    0.3953    0.5753    0.7552 H   0  0  0  0  0  0  0  0  0  0  0  0
    2.5001   -0.0092   -2.4141 H   0  0  0  0  0  0  0  0  0  0  0  0
    2.2717   -1.4494   -1.4196 H   0  0  0  0  0  0  0  0  0  0  0  0
    4.5036   -1.1178   -0.3512 H   0  0  0  0  0  0  0  0  0  0  0  0
    4.7859    0.3113   -1.3458 H   0  0  0  0  0  0  0  0  0  0  0  0
    4.2893   -2.5548   -2.3617 H   0  0  0  0  0  0  0  0  0  0  0  0
    5.1177    0.8901   -3.5793 H   0  0  0  0  0  0  0  0  0  0  0  0
    5.0737    0.1635   -5.2022 H   0  0  0  0  0  0  0  0  0  0  0  0
    7.4627    0.4870   -4.2537 H   0  0  0  0  0  0  0  0  0  0  0  0
    7.0757   -1.1939   -4.7160 H   0  0  0  0  0  0  0  0  0  0  0  0
    7.0032   -0.0092   -1.8769 H   0  0  0  0  0  0  0  0  0  0  0  0
    8.0900   -1.2861   -2.4698 H   0  0  0  0  0  0  0  0  0  0  0  0
    1.7513    2.2572   -1.0613 H   0  0  0  0  0  0  0  0  0  0  0  0
    3.4689    1.8873   -0.8496 H   0  0  0  0  0  0  0  0  0  0  0  0
    3.2442    1.8565    1.5971 H   0  0  0  0  0  0  0  0  0  0  0  0
    1.5363    2.3266    1.4930 H   0  0  0  0  0  0  0  0  0  0  0  0
    1.0004    4.6568    0.8381 H   0  0  0  0  0  0  0  0  0  0  0  0
    1.8419    4.5739   -0.7321 H   0  0  0  0  0  0  0  0  0  0  0  0
    1.8427    6.8808    0.8393 H   0  0  0  0  0  0  0  0  0  0  0  0
    3.2068    6.4796   -0.2164 H   0  0  0  0  0  0  0  0  0  0  0  0
    3.2807    6.5095    2.7320 H   0  0  0  0  0  0  0  0  0  0  0  0
    4.5877    6.0822    1.6139 H   0  0  0  0  0  0  0  0  0  0  0  0
    2.5491    4.2524    2.9574 H   0  0  0  0  0  0  0  0  0  0  0  0
    4.2557    3.8968    2.5768 H   0  0  0  0  0  0  0  0  0  0  0  0
  1  2  1  0
  1 18  1  0
  1 19  1  0
  1 20  1  0
  2  3  1  0
  2 11  1  0
  3  4  1  0
  3 21  1  0
  3 22  1  0
  4  5  1  0
  4 23  1  0
  4 24  1  0
  5  6  1  0
  5 10  1  0
  5 25  1  6
  6  7  1  0
  7  8  1  0
  7 26  1  0
  7 27  1  0
  8  9  1  0
  8 28  1  0
  8 29  1  0
  9 10  1  0
  9 30  1  0
  9 31  1  0
 11 12  1  0
 11 32  1  0
 11 33  1  0
 12 13  1  0
 12 34  1  0
 12 35  1  0
 13 14  1  0
 13 17  1  0
 14 15  1  0
 14 36  1  0
 14 37  1  0
 15 16  1  0
 15 38  1  0
 15 39  1  0
 16 17  1  0
 16 40  1  0
 16 41  1  0
 17 42  1  0
 17 43  1  0
M  END

