
     RDKit          3D

 40 41  0  0  0  0  0  0  0  0999 V2000
    3.2352    0.5720   -0.5839 C   0  0  0  0  0  0  0  0  0  0  0  0
    3.2528    2.0259   -1.0827 C   0  0  0  0  0  0  0  0  0  0  0  0
    3.2696    3.0539    0.0208 C   0  0  0  0  0  0  0  0  0  0  0  0
    4.4142    3.6532    0.5102 C   0  0  0  0  0  0  0  0  0  0  0  0
    5.6443    3.3826    0.0308 O   0  0  0  0  0  0  0  0  0  0  0  0
    4.4363    4.5787    1.5129 N   0  0  0  0  0  0  0  0  0  0  0  0
    3.3046    4.8821    2.0777 C   0  0  0  0  0  0  0  0  0  0  0  0
    3.1943    6.0133    3.4358 S   0  0  0  0  0  0  0  0  0  0  0  0
    4.9650    6.3625    3.7592 C   0  0  0  0  0  0  0  0  0  0  0  0
    5.4659    7.6294    3.0603 C   0  0  0  0  0  0  0  0  0  0  0  0
    5.5332    8.6829    3.6676 O   0  0  0  0  0  0  0  0  0  0  0  0
    5.8080    7.4474    1.7475 N   0  0  0  0  0  0  0  0  0  0  0  0
    6.2745    8.4160    0.8439 C   0  0  0  0  0  0  0  0  0  0  0  0
    6.4395    9.7703    1.1581 C   0  0  0  0  0  0  0  0  0  0  0  0
    6.9143   10.6527    0.1810 C   0  0  0  0  0  0  0  0  0  0  0  0
    7.1136   12.3439    0.5929 Cl  0  0  0  0  0  0  0  0  0  0  0  0
    7.2296   10.2156   -1.1018 C   0  0  0  0  0  0  0  0  0  0  0  0
    7.0668    8.8609   -1.4196 C   0  0  0  0  0  0  0  0  0  0  0  0
    6.5940    7.9613   -0.4638 C   0  0  0  0  0  0  0  0  0  0  0  0
    6.4017    6.6307   -0.6739 O   0  0  0  0  0  0  0  0  0  0  0  0
    6.7572    6.0606   -1.9130 C   0  0  0  0  0  0  0  0  0  0  0  0
    2.1229    4.3424    1.6873 N   0  0  0  0  0  0  0  0  0  0  0  0
    1.2536    4.5843    2.1583 H   0  0  0  0  0  0  0  0  0  0  0  0
    2.0016    3.3909    0.6383 C   0  0  0  0  0  0  0  0  0  0  0  0
    0.9034    2.9464    0.3523 O   0  0  0  0  0  0  0  0  0  0  0  0
    3.1991   -0.1347   -1.4283 H   0  0  0  0  0  0  0  0  0  0  0  0
    2.3479    0.3977    0.0426 H   0  0  0  0  0  0  0  0  0  0  0  0
    4.1279    0.3378    0.0192 H   0  0  0  0  0  0  0  0  0  0  0  0
    2.3527    2.2040   -1.6921 H   0  0  0  0  0  0  0  0  0  0  0  0
    4.1094    2.1811   -1.7666 H   0  0  0  0  0  0  0  0  0  0  0  0
    5.5759    2.6872   -0.6384 H   0  0  0  0  0  0  0  0  0  0  0  0
    5.5314    5.4636    3.4795 H   0  0  0  0  0  0  0  0  0  0  0  0
    5.0280    6.5390    4.8400 H   0  0  0  0  0  0  0  0  0  0  0  0
    5.7029    6.5060    1.3646 H   0  0  0  0  0  0  0  0  0  0  0  0
    6.2006   10.1184    2.1590 H   0  0  0  0  0  0  0  0  0  0  0  0
    7.5992   10.9192   -1.8486 H   0  0  0  0  0  0  0  0  0  0  0  0
    7.3139    8.5187   -2.4246 H   0  0  0  0  0  0  0  0  0  0  0  0
    6.5526    4.9873   -1.8204 H   0  0  0  0  0  0  0  0  0  0  0  0
    7.8286    6.2097   -2.1368 H   0  0  0  0  0  0  0  0  0  0  0  0
    6.1580    6.4781   -2.7423 H   0  0  0  0  0  0  0  0  0  0  0  0
  1  2  1  0
  1 26  1  0
  1 27  1  0
  1 28  1  0
  2  3  1  0
  2 29  1  0
  2 30  1  0
  3  4  1  0
  3 24  2  0
  4  5  1  0
  4  6  2  0
  5 31  1  0
  6  7  1  0
  7  8  2  0
  7 22  1  0
  8  9  1  0
  9 10  1  0
  9 32  1  0
  9 33  1  0
 10 11  2  0
 10 12  1  0
 12 13  1  0
 12 34  1  0
 13 14  2  0
 13 19  1  0
 14 15  1  0
 14 35  1  0
 15 16  1  0
 15 17  2  0
 17 18  1  0
 17 36  1  0
 18 19  2  0
 18 37  1  0
 19 20  1  0
 20 21  1  0
 21 38  1  0
 21 39  1  0
 21 40  1  0
 22 23  1  0
 22 24  1  0
 24 25  1  0
M  CHG  2   8   1  25  -1
M  END

