
     RDKit          3D

 29 29  0  0  0  0  0  0  0  0999 V2000
    2.6379   -1.6610   -3.1793 C   0  0  0  0  0  0  0  0  0  0  0  0
    3.2160   -1.5814   -1.7772 C   0  0  0  0  0  0  0  0  0  0  0  0
    3.7310   -0.2667   -1.4912 O   0  0  0  0  0  0  0  0  0  0  0  0
    4.9885   -0.0084   -1.8731 C   0  0  0  0  0  0  0  0  0  0  0  0
    5.7479   -0.7859   -2.4026 O   0  0  0  0  0  0  0  0  0  0  0  0
    5.3274    1.2896   -1.5056 N   0  0  0  0  0  0  0  0  0  0  0  0
    6.4472    1.8236   -2.0867 N   0  0  0  0  0  0  0  0  0  0  0  0
    6.4248    2.3845   -3.3360 C   0  0  0  0  0  0  0  0  0  0  0  0
    5.0144    2.8593   -4.0875 S   0  0  0  0  0  0  0  0  0  0  0  0
    7.6540    2.6066   -3.9031 N   0  0  0  0  0  0  0  0  0  0  0  0
    8.9063    2.0153   -3.6223 C   0  0  0  0  0  0  0  0  0  0  0  0
   10.0665    2.7756   -3.8497 C   0  0  0  0  0  0  0  0  0  0  0  0
   11.3245    2.2154   -3.6323 C   0  0  0  0  0  0  0  0  0  0  0  0
   11.4547    0.9034   -3.1683 C   0  0  0  0  0  0  0  0  0  0  0  0
   10.2947    0.1559   -2.9486 C   0  0  0  0  0  0  0  0  0  0  0  0
   10.4503   -1.6449   -2.3410 Br  0  0  0  0  0  0  0  0  0  0  0  0
    9.0215    0.6822   -3.1817 C   0  0  0  0  0  0  0  0  0  0  0  0
    2.1904   -2.6545   -3.3429 H   0  0  0  0  0  0  0  0  0  0  0  0
    3.4237   -1.5098   -3.9342 H   0  0  0  0  0  0  0  0  0  0  0  0
    1.8557   -0.9004   -3.3269 H   0  0  0  0  0  0  0  0  0  0  0  0
    4.0232   -2.3156   -1.6385 H   0  0  0  0  0  0  0  0  0  0  0  0
    2.4434   -1.7482   -1.0128 H   0  0  0  0  0  0  0  0  0  0  0  0
    4.5548    1.9429   -1.3904 H   0  0  0  0  0  0  0  0  0  0  0  0
    7.3265    1.6141   -1.6262 H   0  0  0  0  0  0  0  0  0  0  0  0
    7.6072    3.2255   -4.7063 H   0  0  0  0  0  0  0  0  0  0  0  0
    9.9731    3.8088   -4.1924 H   0  0  0  0  0  0  0  0  0  0  0  0
   12.2208    2.8136   -3.8140 H   0  0  0  0  0  0  0  0  0  0  0  0
   12.4370    0.4670   -2.9840 H   0  0  0  0  0  0  0  0  0  0  0  0
    8.1368    0.0562   -3.0472 H   0  0  0  0  0  0  0  0  0  0  0  0
  1  2  1  0
  1 18  1  0
  1 19  1  0
  1 20  1  0
  2  3  1  0
  2 21  1  0
  2 22  1  0
  3  4  1  0
  4  5  2  0
  4  6  1  0
  6  7  1  0
  6 23  1  0
  7  8  1  0
  7 24  1  0
  8  9  2  0
  8 10  1  0
 10 11  1  0
 10 25  1  0
 11 12  2  0
 11 17  1  0
 12 13  1  0
 12 26  1  0
 13 14  2  0
 13 27  1  0
 14 15  1  0
 14 28  1  0
 15 16  1  0
 15 17  2  0
 17 29  1  0
M  END

