
     RDKit          3D

 30 31  0  0  0  0  0  0  0  0999 V2000
    1.2208   -0.1452    0.8817 C   0  0  0  0  0  0  0  0  0  0  0  0
    2.6719   -0.0495    0.4979 C   0  0  0  0  0  0  0  0  0  0  0  0
    3.3423    1.1736    0.3589 C   0  0  0  0  0  0  0  0  0  0  0  0
    4.6923    1.1430   -0.0182 C   0  0  0  0  0  0  0  0  0  0  0  0
    5.5031    2.3930   -0.2202 C   0  0  0  0  0  0  0  0  0  0  0  0
    5.3218   -0.0254   -0.2062 N   0  0  0  0  0  0  0  0  0  0  0  0
    4.5983   -1.1313   -0.0424 C   0  0  0  0  0  0  0  0  0  0  0  0
    5.5255   -2.6198   -0.4125 S   0  0  0  0  0  0  0  0  0  0  0  0
    4.6407   -3.9249    0.4252 C   0  0  0  0  0  0  0  0  0  0  0  0
    4.7673   -5.1184   -0.1594 N   0  0  0  0  0  0  0  0  0  0  0  0
    4.1606   -6.1393    0.4482 C   0  0  0  0  0  0  0  0  0  0  0  0
    3.4098   -5.9818    1.6137 C   0  0  0  0  0  0  0  0  0  0  0  0
    3.3622   -4.6910    2.1564 C   0  0  0  0  0  0  0  0  0  0  0  0
    2.6090   -4.3645    3.4271 C   0  0  0  0  0  0  0  0  0  0  0  0
    2.1562   -5.2217    4.2671 N   0  0  0  0  0  0  0  0  0  0  0  0
    2.4224   -3.0215    3.5991 N   0  0  0  0  0  0  0  0  0  0  0  0
    3.9997   -3.6769    1.5639 N   0  0  0  0  0  0  0  0  0  0  0  0
    3.3124   -1.2056    0.2760 N   0  0  0  0  0  0  0  0  0  0  0  0
    0.8104    0.8231    1.2006 H   0  0  0  0  0  0  0  0  0  0  0  0
    1.0984   -0.8849    1.6882 H   0  0  0  0  0  0  0  0  0  0  0  0
    0.6311   -0.5123    0.0254 H   0  0  0  0  0  0  0  0  0  0  0  0
    2.8280    2.1204    0.5333 H   0  0  0  0  0  0  0  0  0  0  0  0
    4.9189    3.3024   -0.0223 H   0  0  0  0  0  0  0  0  0  0  0  0
    5.8834    2.4292   -1.2537 H   0  0  0  0  0  0  0  0  0  0  0  0
    6.3847    2.3793    0.4400 H   0  0  0  0  0  0  0  0  0  0  0  0
    4.2640   -7.1234   -0.0233 H   0  0  0  0  0  0  0  0  0  0  0  0
    2.8875   -6.8245    2.0676 H   0  0  0  0  0  0  0  0  0  0  0  0
    2.3750   -6.1763    3.9809 H   0  0  0  0  0  0  0  0  0  0  0  0
    2.9990   -2.4050    3.0369 H   0  0  0  0  0  0  0  0  0  0  0  0
    2.0980   -2.7160    4.5079 H   0  0  0  0  0  0  0  0  0  0  0  0
  1  2  1  0
  1 19  1  0
  1 20  1  0
  1 21  1  0
  2  3  2  0
  2 18  1  0
  3  4  1  0
  3 22  1  0
  4  5  1  0
  4  6  2  0
  5 23  1  0
  5 24  1  0
  5 25  1  0
  6  7  1  0
  7  8  1  0
  7 18  2  0
  8  9  1  0
  9 10  2  0
  9 17  1  0
 10 11  1  0
 11 12  2  0
 11 26  1  0
 12 13  1  0
 12 27  1  0
 13 14  1  0
 13 17  2  0
 14 15  2  0
 14 16  1  0
 15 28  1  0
 16 29  1  0
 16 30  1  0
M  END

