
     RDKit          3D

 24 25  0  0  0  0  0  0  0  0999 V2000
    1.0562    0.0689   -0.4482 C   0  0  0  0  0  0  0  0  0  0  0  0
    2.3685   -0.2019    0.1129 N   0  0  0  0  0  0  0  0  0  0  0  0
    3.1140   -1.3431   -0.4083 C   0  0  2  0  0  0  0  0  0  0  0  0
    3.3894   -1.1145   -1.8445 C   0  0  0  0  0  0  0  0  0  0  0  0
    3.5907   -0.9404   -2.9720 N   0  0  0  0  0  0  0  0  0  0  0  0
    2.4642   -2.7694   -0.2124 C   0  0  0  0  0  0  0  0  0  0  0  0
    3.0455   -3.3289    0.9718 O   0  0  0  0  0  0  0  0  0  0  0  0
    4.2174   -2.6820    1.1986 C   0  0  0  0  0  0  0  0  0  0  0  0
    5.1695   -3.0792    2.1355 C   0  0  0  0  0  0  0  0  0  0  0  0
    6.3216   -2.2849    2.2627 C   0  0  0  0  0  0  0  0  0  0  0  0
    7.3076   -2.5915    3.1405 O   0  0  0  0  0  0  0  0  0  0  0  0
    6.5008   -1.1318    1.4732 C   0  0  0  0  0  0  0  0  0  0  0  0
    5.5245   -0.7556    0.5498 C   0  0  0  0  0  0  0  0  0  0  0  0
    4.3841   -1.5444    0.4067 C   0  0  0  0  0  0  0  0  0  0  0  0
    0.6431    0.9703    0.0288 H   0  0  0  0  0  0  0  0  0  0  0  0
    0.3112   -0.7464   -0.3271 H   0  0  0  0  0  0  0  0  0  0  0  0
    1.1453    0.2803   -1.5258 H   0  0  0  0  0  0  0  0  0  0  0  0
    2.3584   -0.2416    1.1295 H   0  0  0  0  0  0  0  0  0  0  0  0
    2.6955   -3.4266   -1.0670 H   0  0  0  0  0  0  0  0  0  0  0  0
    1.3750   -2.7206   -0.0791 H   0  0  0  0  0  0  0  0  0  0  0  0
    5.0176   -3.9769    2.7395 H   0  0  0  0  0  0  0  0  0  0  0  0
    7.0806   -3.3999    3.6186 H   0  0  0  0  0  0  0  0  0  0  0  0
    7.4135   -0.5491    1.6062 H   0  0  0  0  0  0  0  0  0  0  0  0
    5.6546    0.1443   -0.0557 H   0  0  0  0  0  0  0  0  0  0  0  0
  1  2  1  0
  1 15  1  0
  1 16  1  0
  1 17  1  0
  2  3  1  0
  2 18  1  0
  3  4  1  6
  3  6  1  0
  3 14  1  0
  4  5  3  0
  6  7  1  0
  6 19  1  0
  6 20  1  0
  7  8  1  0
  8  9  2  0
  8 14  1  0
  9 10  1  0
  9 21  1  0
 10 11  1  0
 10 12  2  0
 11 22  1  0
 12 13  1  0
 12 23  1  0
 13 14  2  0
 13 24  1  0
M  END

