
     RDKit          3D

 66 75  0  0  0  0  0  0  0  0999 V2000
   -2.9654    3.5633    0.8971 C   0  0  0  0  0  0  0  0  0  0  0  0
   -1.6752    3.3313    0.4568 C   0  0  0  0  0  0  0  0  0  0  0  0
   -1.3082    2.1086   -0.1582 C   0  0  0  0  0  0  0  0  0  0  0  0
    0.0087    1.8832   -0.6857 C   0  0  0  0  0  0  0  0  0  0  0  0
    0.3294    0.7109   -1.3101 C   0  0  0  0  0  0  0  0  0  0  0  0
   -0.6202   -0.3623   -1.4100 C   0  0  0  0  0  0  0  0  0  0  0  0
   -0.2976   -1.6005   -2.0187 C   0  0  0  0  0  0  0  0  0  0  0  0
   -1.1966   -2.6508   -2.0474 C   0  0  0  0  0  0  0  0  0  0  0  0
   -2.4761   -2.5363   -1.4399 C   0  0  0  0  0  0  0  0  0  0  0  0
   -2.7996   -1.3042   -0.8672 C   0  0  0  0  0  0  0  0  0  0  0  0
   -1.9248   -0.1995   -0.8578 C   0  0  0  0  0  0  0  0  0  0  0  0
   -2.2965    1.0876   -0.2762 C   0  0  0  0  0  0  0  0  0  0  0  0
   -3.6102    1.3737    0.1459 C   0  0  0  0  0  0  0  0  0  0  0  0
   -3.9847    2.5883    0.7248 C   0  0  0  0  0  0  0  0  0  0  0  0
   -5.4055    2.8499    1.0935 C   0  0  0  0  0  0  0  0  0  0  0  0
   -5.8849    4.1627    1.3490 C   0  0  0  0  0  0  0  0  0  0  0  0
   -7.2212    4.3931    1.6167 C   0  0  0  0  0  0  0  0  0  0  0  0
   -8.1704    3.3413    1.6207 C   0  0  0  0  0  0  0  0  0  0  0  0
   -9.5696    3.5844    1.8332 C   0  0  0  0  0  0  0  0  0  0  0  0
  -10.4814    2.5704    1.7615 C   0  0  0  0  0  0  0  0  0  0  0  0
  -10.0736    1.2225    1.4797 C   0  0  0  0  0  0  0  0  0  0  0  0
  -11.0140    0.1712    1.3436 C   0  0  0  0  0  0  0  0  0  0  0  0
  -10.6204   -1.1187    1.0408 C   0  0  0  0  0  0  0  0  0  0  0  0
   -9.2467   -1.4431    0.8829 C   0  0  0  0  0  0  0  0  0  0  0  0
   -8.3206   -0.4107    1.0460 C   0  0  0  0  0  0  0  0  0  0  0  0
   -8.6883    0.9246    1.3113 C   0  0  0  0  0  0  0  0  0  0  0  0
   -7.7134    2.0122    1.3752 C   0  0  0  0  0  0  0  0  0  0  0  0
   -6.3369    1.8103    1.1468 C   0  0  0  0  0  0  0  0  0  0  0  0
   -8.7956   -2.8217    0.5455 C   0  0  0  0  0  0  0  0  0  0  0  0
   -9.6077   -3.9604    0.7924 C   0  0  0  0  0  0  0  0  0  0  0  0
   -9.1599   -5.2310    0.4829 C   0  0  0  0  0  0  0  0  0  0  0  0
   -7.8711   -5.4523   -0.0630 C   0  0  0  0  0  0  0  0  0  0  0  0
   -7.3892   -6.7738   -0.3527 C   0  0  0  0  0  0  0  0  0  0  0  0
   -6.1235   -6.9772   -0.8231 C   0  0  0  0  0  0  0  0  0  0  0  0
   -5.2255   -5.8775   -1.0383 C   0  0  0  0  0  0  0  0  0  0  0  0
   -3.8858   -6.0771   -1.4537 C   0  0  0  0  0  0  0  0  0  0  0  0
   -3.0069   -5.0203   -1.5994 C   0  0  0  0  0  0  0  0  0  0  0  0
   -3.4254   -3.6831   -1.3644 C   0  0  0  0  0  0  0  0  0  0  0  0
   -4.7602   -3.4877   -1.0023 C   0  0  0  0  0  0  0  0  0  0  0  0
   -5.6727   -4.5435   -0.8020 C   0  0  0  0  0  0  0  0  0  0  0  0
   -7.0314   -4.3249   -0.3084 C   0  0  0  0  0  0  0  0  0  0  0  0
   -7.5378   -3.0408   -0.0202 C   0  0  0  0  0  0  0  0  0  0  0  0
   -3.1940    4.5164    1.3763 H   0  0  0  0  0  0  0  0  0  0  0  0
   -0.9147    4.1078    0.5768 H   0  0  0  0  0  0  0  0  0  0  0  0
    0.7499    2.6819   -0.5953 H   0  0  0  0  0  0  0  0  0  0  0  0
    1.3283    0.5633   -1.7294 H   0  0  0  0  0  0  0  0  0  0  0  0
    0.6911   -1.7220   -2.4699 H   0  0  0  0  0  0  0  0  0  0  0  0
   -0.9058   -3.5791   -2.5415 H   0  0  0  0  0  0  0  0  0  0  0  0
   -3.7548   -1.2005   -0.3588 H   0  0  0  0  0  0  0  0  0  0  0  0
   -4.3764    0.6243   -0.0354 H   0  0  0  0  0  0  0  0  0  0  0  0
   -5.2026    5.0129    1.3095 H   0  0  0  0  0  0  0  0  0  0  0  0
   -7.5680    5.4132    1.8030 H   0  0  0  0  0  0  0  0  0  0  0  0
   -9.8953    4.6079    2.0373 H   0  0  0  0  0  0  0  0  0  0  0  0
  -11.5460    2.7724    1.9072 H   0  0  0  0  0  0  0  0  0  0  0  0
  -12.0768    0.4002    1.4618 H   0  0  0  0  0  0  0  0  0  0  0  0
  -11.3826   -1.8877    0.9031 H   0  0  0  0  0  0  0  0  0  0  0  0
   -7.2626   -0.6515    0.9714 H   0  0  0  0  0  0  0  0  0  0  0  0
   -5.9878    0.7931    0.9899 H   0  0  0  0  0  0  0  0  0  0  0  0
  -10.5905   -3.8413    1.2516 H   0  0  0  0  0  0  0  0  0  0  0  0
   -9.8004   -6.0949    0.6811 H   0  0  0  0  0  0  0  0  0  0  0  0
   -8.0567   -7.6216   -0.1760 H   0  0  0  0  0  0  0  0  0  0  0  0
   -5.7654   -7.9898   -1.0279 H   0  0  0  0  0  0  0  0  0  0  0  0
   -3.5391   -7.0985   -1.6337 H   0  0  0  0  0  0  0  0  0  0  0  0
   -1.9720   -5.2308   -1.8730 H   0  0  0  0  0  0  0  0  0  0  0  0
   -5.1127   -2.4704   -0.8534 H   0  0  0  0  0  0  0  0  0  0  0  0
   -6.9214   -2.1761   -0.2549 H   0  0  0  0  0  0  0  0  0  0  0  0
  1  2  2  0
  1 14  1  0
  1 43  1  0
  2  3  1  0
  2 44  1  0
  3  4  2  0
  3 12  1  0
  4  5  1  0
  4 45  1  0
  5  6  2  0
  5 46  1  0
  6  7  1  0
  6 11  1  0
  7  8  2  0
  7 47  1  0
  8  9  1  0
  8 48  1  0
  9 10  2  0
  9 38  1  0
 10 11  1  0
 10 49  1  0
 11 12  2  0
 12 13  1  0
 13 14  2  0
 13 50  1  0
 14 15  1  0
 15 16  2  0
 15 28  1  0
 16 17  1  0
 16 51  1  0
 17 18  2  0
 17 52  1  0
 18 19  1  0
 18 27  1  0
 19 20  2  0
 19 53  1  0
 20 21  1  0
 20 54  1  0
 21 22  1  0
 21 26  2  0
 22 23  2  0
 22 55  1  0
 23 24  1  0
 23 56  1  0
 24 25  2  0
 24 29  1  0
 25 26  1  0
 25 57  1  0
 26 27  1  0
 27 28  2  0
 28 58  1  0
 29 30  2  0
 29 42  1  0
 30 31  1  0
 30 59  1  0
 31 32  2  0
 31 60  1  0
 32 33  1  0
 32 41  1  0
 33 34  2  0
 33 61  1  0
 34 35  1  0
 34 62  1  0
 35 36  2  0
 35 40  1  0
 36 37  1  0
 36 63  1  0
 37 38  2  0
 37 64  1  0
 38 39  1  0
 39 40  2  0
 39 65  1  0
 40 41  1  0
 41 42  2  0
 42 66  1  0
M  END

