
     RDKit          3D

 54 57  0  0  0  0  0  0  0  0999 V2000
    5.2020   -0.2378    1.2656 C   0  0  0  0  0  0  0  0  0  0  0  0
    4.0764   -1.0329    0.9654 O   0  0  0  0  0  0  0  0  0  0  0  0
    3.8308   -1.4102   -0.3134 C   0  0  0  0  0  0  0  0  0  0  0  0
    4.6133   -1.0048   -1.4052 C   0  0  0  0  0  0  0  0  0  0  0  0
    4.3054   -1.4544   -2.6923 C   0  0  0  0  0  0  0  0  0  0  0  0
    3.2253   -2.3132   -2.9022 C   0  0  0  0  0  0  0  0  0  0  0  0
    2.4491   -2.7189   -1.8163 C   0  0  0  0  0  0  0  0  0  0  0  0
    2.7161   -2.2691   -0.5110 C   0  0  0  0  0  0  0  0  0  0  0  0
    1.9080   -2.7476    0.6181 C   0  0  0  0  0  0  0  0  0  0  0  0
    1.3677   -2.1315    1.7087 C   0  0  0  0  0  0  0  0  0  0  0  0
    1.1970   -0.4926    2.2746 S   0  0  0  0  0  0  0  0  0  0  0  0
    1.1828    0.5411    0.7333 C   0  0  0  0  0  0  0  0  0  0  0  0
   -0.1017    0.5151   -0.0061 C   0  0  0  0  0  0  0  0  0  0  0  0
   -1.1796    1.3619   -0.0365 C   0  0  0  0  0  0  0  0  0  0  0  0
   -2.1306    0.7755   -0.9343 C   0  0  0  0  0  0  0  0  0  0  0  0
   -1.5611   -0.3838   -1.3780 C   0  0  0  0  0  0  0  0  0  0  0  0
   -0.3345   -0.5489   -0.8236 O   0  0  0  0  0  0  0  0  0  0  0  0
    0.7418   -3.1848    2.5987 C   0  0  0  0  0  0  0  0  0  0  0  0
    0.1743   -3.0228    3.6549 O   0  0  0  0  0  0  0  0  0  0  0  0
    0.9366   -4.4017    1.9627 N   0  0  0  0  0  0  0  0  0  0  0  0
    0.3874   -5.6637    2.4167 C   0  0  0  0  0  0  0  0  0  0  0  0
   -1.1310   -5.7734    2.1989 C   0  0  0  0  0  0  0  0  0  0  0  0
   -1.5249   -5.5282    0.8215 N   0  0  0  0  0  0  0  0  0  0  0  0
   -1.2725   -6.6129   -0.1287 C   0  0  0  0  0  0  0  0  0  0  0  0
   -2.3925   -7.6575   -0.1271 C   0  0  0  0  0  0  0  0  0  0  0  0
   -3.6529   -7.0523   -0.3588 O   0  0  0  0  0  0  0  0  0  0  0  0
   -3.9497   -6.0540    0.6005 C   0  0  0  0  0  0  0  0  0  0  0  0
   -2.8617   -4.9755    0.6178 C   0  0  0  0  0  0  0  0  0  0  0  0
    1.5866   -4.2192    0.7399 C   0  0  0  0  0  0  0  0  0  0  0  0
    1.8541   -5.1074   -0.0381 O   0  0  0  0  0  0  0  0  0  0  0  0
    5.1898   -0.0847    2.3528 H   0  0  0  0  0  0  0  0  0  0  0  0
    5.1576    0.7465    0.7657 H   0  0  0  0  0  0  0  0  0  0  0  0
    6.1439   -0.7391    0.9805 H   0  0  0  0  0  0  0  0  0  0  0  0
    5.4680   -0.3451   -1.2568 H   0  0  0  0  0  0  0  0  0  0  0  0
    4.9239   -1.1305   -3.5333 H   0  0  0  0  0  0  0  0  0  0  0  0
    2.9877   -2.6688   -3.9071 H   0  0  0  0  0  0  0  0  0  0  0  0
    1.6104   -3.3978   -1.9702 H   0  0  0  0  0  0  0  0  0  0  0  0
    2.0264    0.2547    0.0938 H   0  0  0  0  0  0  0  0  0  0  0  0
    1.3666    1.5553    1.1135 H   0  0  0  0  0  0  0  0  0  0  0  0
   -1.2816    2.2919    0.5191 H   0  0  0  0  0  0  0  0  0  0  0  0
   -3.1067    1.1669   -1.2129 H   0  0  0  0  0  0  0  0  0  0  0  0
   -1.8848   -1.1612   -2.0651 H   0  0  0  0  0  0  0  0  0  0  0  0
    0.6013   -5.7777    3.4908 H   0  0  0  0  0  0  0  0  0  0  0  0
    0.9293   -6.4525    1.8759 H   0  0  0  0  0  0  0  0  0  0  0  0
   -1.6154   -5.0140    2.8317 H   0  0  0  0  0  0  0  0  0  0  0  0
   -1.4490   -6.7613    2.6006 H   0  0  0  0  0  0  0  0  0  0  0  0
   -0.2966   -7.0773    0.0774 H   0  0  0  0  0  0  0  0  0  0  0  0
   -1.2029   -6.1767   -1.1412 H   0  0  0  0  0  0  0  0  0  0  0  0
   -2.4076   -8.2081    0.8381 H   0  0  0  0  0  0  0  0  0  0  0  0
   -2.2409   -8.3969   -0.9294 H   0  0  0  0  0  0  0  0  0  0  0  0
   -4.0535   -6.5099    1.6088 H   0  0  0  0  0  0  0  0  0  0  0  0
   -4.9265   -5.6253    0.3246 H   0  0  0  0  0  0  0  0  0  0  0  0
   -3.0739   -4.2216    1.3931 H   0  0  0  0  0  0  0  0  0  0  0  0
   -2.8769   -4.4568   -0.3588 H   0  0  0  0  0  0  0  0  0  0  0  0
  1  2  1  0
  1 31  1  0
  1 32  1  0
  1 33  1  0
  2  3  1  0
  3  4  2  0
  3  8  1  0
  4  5  1  0
  4 34  1  0
  5  6  2  0
  5 35  1  0
  6  7  1  0
  6 36  1  0
  7  8  2  0
  7 37  1  0
  8  9  1  0
  9 10  1  0
  9 29  2  0
 10 11  2  0
 10 18  1  0
 11 12  1  0
 12 13  1  0
 12 38  1  0
 12 39  1  0
 13 14  2  0
 13 17  1  0
 14 15  1  0
 14 40  1  0
 15 16  2  0
 15 41  1  0
 16 17  1  0
 16 42  1  0
 18 19  2  0
 18 20  1  0
 20 21  1  0
 20 29  1  0
 21 22  1  0
 21 43  1  0
 21 44  1  0
 22 23  1  0
 22 45  1  0
 22 46  1  0
 23 24  1  0
 23 28  1  0
 24 25  1  0
 24 47  1  0
 24 48  1  0
 25 26  1  0
 25 49  1  0
 25 50  1  0
 26 27  1  0
 27 28  1  0
 27 51  1  0
 27 52  1  0
 28 53  1  0
 28 54  1  0
 29 30  1  0
M  CHG  2  11   1  30  -1
M  END

