
     RDKit          3D

 40 41  0  0  0  0  0  0  0  0999 V2000
    2.4439   -0.3951   -1.1833 C   0  0  0  0  0  0  0  0  0  0  0  0
    2.3985    0.7619   -0.2987 N   0  0  0  0  0  0  0  0  0  0  0  0
    2.9846    0.6769    1.0461 C   0  0  1  0  0  0  0  0  0  0  0  0
    2.4723   -0.4850    1.8939 C   0  0  0  0  0  0  0  0  0  0  0  0
    2.8419   -1.8714    1.7816 C   0  0  0  0  0  0  0  0  0  0  0  0
    2.1597   -2.6843    2.6492 C   0  0  0  0  0  0  0  0  0  0  0  0
    1.0468   -1.7894    3.6273 S   0  0  0  0  0  0  0  0  0  0  0  0
    1.5061   -0.3078    2.8608 C   0  0  0  0  0  0  0  0  0  0  0  0
    4.5415    0.8307    1.0372 C   0  0  1  0  0  0  0  0  0  0  0  0
    5.0285   -0.3616    0.3922 O   0  0  0  0  0  0  0  0  0  0  0  0
    6.4031   -0.6568    0.3903 C   0  0  0  0  0  0  0  0  0  0  0  0
    4.9566    2.0742    0.2197 C   0  0  0  0  0  0  0  0  0  0  0  0
    4.6030    3.4052    0.9008 C   0  0  0  0  0  0  0  0  0  0  0  0
    5.1472    3.5227    2.3397 C   0  0  2  0  0  0  0  0  0  0  0  0
    6.6636    3.7649    2.3782 C   0  0  0  0  0  0  0  0  0  0  0  0
    4.7244    2.2854    3.1588 C   0  0  0  0  0  0  0  0  0  0  0  0
    5.0881    0.9562    2.4774 C   0  0  0  0  0  0  0  0  0  0  0  0
    1.9451   -0.1304   -2.1298 H   0  0  0  0  0  0  0  0  0  0  0  0
    1.9482   -1.3040   -0.7843 H   0  0  0  0  0  0  0  0  0  0  0  0
    3.4859   -0.6553   -1.4091 H   0  0  0  0  0  0  0  0  0  0  0  0
    1.4342    1.0717   -0.2031 H   0  0  0  0  0  0  0  0  0  0  0  0
    2.6189    1.5830    1.5495 H   0  0  0  0  0  0  0  0  0  0  0  0
    3.6009   -2.2286    1.0890 H   0  0  0  0  0  0  0  0  0  0  0  0
    2.2497   -3.7631    2.7701 H   0  0  0  0  0  0  0  0  0  0  0  0
    1.0379    0.6280    3.1663 H   0  0  0  0  0  0  0  0  0  0  0  0
    6.5482   -1.4822   -0.3235 H   0  0  0  0  0  0  0  0  0  0  0  0
    6.7730   -0.9925    1.3771 H   0  0  0  0  0  0  0  0  0  0  0  0
    7.0310    0.1899    0.0564 H   0  0  0  0  0  0  0  0  0  0  0  0
    4.4733    2.0168   -0.7651 H   0  0  0  0  0  0  0  0  0  0  0  0
    6.0456    2.0304    0.0558 H   0  0  0  0  0  0  0  0  0  0  0  0
    3.5059    3.5232    0.9186 H   0  0  0  0  0  0  0  0  0  0  0  0
    4.9808    4.2414    0.2877 H   0  0  0  0  0  0  0  0  0  0  0  0
    4.6730    4.4055    2.8049 H   0  0  0  0  0  0  0  0  0  0  0  0
    7.2371    2.9378    1.9300 H   0  0  0  0  0  0  0  0  0  0  0  0
    7.0183    3.8849    3.4150 H   0  0  0  0  0  0  0  0  0  0  0  0
    6.9293    4.6816    1.8268 H   0  0  0  0  0  0  0  0  0  0  0  0
    3.6362    2.3256    3.3368 H   0  0  0  0  0  0  0  0  0  0  0  0
    5.1895    2.3193    4.1590 H   0  0  0  0  0  0  0  0  0  0  0  0
    4.7382    0.1071    3.0849 H   0  0  0  0  0  0  0  0  0  0  0  0
    6.1857    0.8753    2.4362 H   0  0  0  0  0  0  0  0  0  0  0  0
  1  2  1  0
  1 18  1  0
  1 19  1  0
  1 20  1  0
  2  3  1  0
  2 21  1  0
  3  4  1  0
  3  9  1  0
  3 22  1  1
  4  5  1  0
  4  8  2  0
  5  6  2  0
  5 23  1  0
  6  7  1  0
  6 24  1  0
  7  8  1  0
  8 25  1  0
  9 10  1  6
  9 12  1  0
  9 17  1  0
 10 11  1  0
 11 26  1  0
 11 27  1  0
 11 28  1  0
 12 13  1  0
 12 29  1  0
 12 30  1  0
 13 14  1  0
 13 31  1  0
 13 32  1  0
 14 15  1  0
 14 16  1  0
 14 33  1  1
 15 34  1  0
 15 35  1  0
 15 36  1  0
 16 17  1  0
 16 37  1  0
 16 38  1  0
 17 39  1  0
 17 40  1  0
M  END

