
     RDKit          3D

 29 30  0  0  0  0  0  0  0  0999 V2000
    1.1210    0.0943   -0.0346 C   0  0  0  0  0  0  0  0  0  0  0  0
    2.6297    0.0435   -0.0312 C   0  0  0  0  0  0  0  0  0  0  0  0
    3.3123   -1.1890   -0.0273 C   0  0  0  0  0  0  0  0  0  0  0  0
    4.7050   -1.2879   -0.0240 C   0  0  0  0  0  0  0  0  0  0  0  0
    5.3377   -2.6576   -0.0199 C   0  0  0  0  0  0  0  0  0  0  0  0
    5.4588   -0.0797   -0.0246 C   0  0  0  0  0  0  0  0  0  0  0  0
    6.9266   -0.0782   -0.0214 C   0  0  0  0  0  0  0  0  0  0  0  0
    7.6341   -1.0754   -0.0198 O   0  0  0  0  0  0  0  0  0  0  0  0
    7.5243    1.2120   -0.0238 N   0  0  0  0  0  0  0  0  0  0  0  0
    8.9885    1.2505   -0.0227 C   0  0  0  0  0  0  0  0  0  0  0  0
    6.7603    2.3709   -0.0271 C   0  0  0  0  0  0  0  0  0  0  0  0
    7.4457    3.7187   -0.0280 C   0  0  0  0  0  0  0  0  0  0  0  0
    5.4689    2.3709   -0.0293 N   0  0  0  0  0  0  0  0  0  0  0  0
    4.7854    1.1722   -0.0285 C   0  0  0  0  0  0  0  0  0  0  0  0
    3.3792    1.2163   -0.0318 C   0  0  0  0  0  0  0  0  0  0  0  0
    0.6787   -0.9129   -0.0365 H   0  0  0  0  0  0  0  0  0  0  0  0
    0.7439    0.6325   -0.9203 H   0  0  0  0  0  0  0  0  0  0  0  0
    0.7400    0.6307    0.8506 H   0  0  0  0  0  0  0  0  0  0  0  0
    2.7268   -2.1132   -0.0268 H   0  0  0  0  0  0  0  0  0  0  0  0
    4.5587   -3.4350   -0.0196 H   0  0  0  0  0  0  0  0  0  0  0  0
    5.9886   -2.7999    0.8553 H   0  0  0  0  0  0  0  0  0  0  0  0
    5.9917   -2.8037   -0.8921 H   0  0  0  0  0  0  0  0  0  0  0  0
    9.3321    0.2103   -0.0218 H   0  0  0  0  0  0  0  0  0  0  0  0
    9.3721    1.7592    0.8744 H   0  0  0  0  0  0  0  0  0  0  0  0
    9.3734    1.7584   -0.9197 H   0  0  0  0  0  0  0  0  0  0  0  0
    8.5394    3.6817   -0.0264 H   0  0  0  0  0  0  0  0  0  0  0  0
    7.1089    4.2855    0.8534 H   0  0  0  0  0  0  0  0  0  0  0  0
    7.1114    4.2832   -0.9117 H   0  0  0  0  0  0  0  0  0  0  0  0
    2.9060    2.2005   -0.0348 H   0  0  0  0  0  0  0  0  0  0  0  0
  1  2  1  0
  1 16  1  0
  1 17  1  0
  1 18  1  0
  2  3  2  0
  2 15  1  0
  3  4  1  0
  3 19  1  0
  4  5  1  0
  4  6  2  0
  5 20  1  0
  5 21  1  0
  5 22  1  0
  6  7  1  0
  6 14  1  0
  7  8  2  0
  7  9  1  0
  9 10  1  0
  9 11  1  0
 10 23  1  0
 10 24  1  0
 10 25  1  0
 11 12  1  0
 11 13  2  0
 12 26  1  0
 12 27  1  0
 12 28  1  0
 13 14  1  0
 14 15  2  0
 15 29  1  0
M  END

