
     RDKit          3D

 51 52  0  0  0  0  0  0  0  0999 V2000
    2.8614    0.9401    1.4799 C   0  0  0  0  0  0  0  0  0  0  0  0
    2.6495    0.6310   -0.0033 C   0  0  0  0  0  0  0  0  0  0  0  0
    3.0874   -0.7145   -0.3871 N   0  0  0  0  0  0  0  0  0  0  0  0
    2.1146   -1.7945   -0.3073 C   0  0  0  0  0  0  0  0  0  0  0  0
    0.8954   -1.6696   -1.2404 C   0  0  0  0  0  0  0  0  0  0  0  0
    1.1922   -1.6657   -2.7168 C   0  0  0  0  0  0  0  0  0  0  0  0
    2.3293   -2.0379   -3.3945 C   0  0  0  0  0  0  0  0  0  0  0  0
    2.2028   -1.9327   -4.8156 C   0  0  0  0  0  0  0  0  0  0  0  0
    0.9705   -1.4812   -5.2072 C   0  0  0  0  0  0  0  0  0  0  0  0
   -0.0502   -1.1744   -3.8424 S   0  0  0  0  0  0  0  0  0  0  0  0
    4.4344   -0.8550   -0.6777 C   0  0  0  0  0  0  0  0  0  0  0  0
    5.1766    0.1125   -0.7775 O   0  0  0  0  0  0  0  0  0  0  0  0
    4.9155   -2.1469   -0.8783 N   0  0  0  0  0  0  0  0  0  0  0  0
    6.3256   -2.3481   -1.1007 C   0  0  1  0  0  0  0  0  0  0  0  0
    7.2901   -2.6044    0.0880 C   0  0  0  0  0  0  0  0  0  0  0  0
    8.0161   -3.6791   -0.7707 C   0  0  2  0  0  0  0  0  0  0  0  0
    9.2194   -3.1904   -1.4525 N   0  0  0  0  0  0  0  0  0  0  0  0
   10.2843   -2.6634   -0.5807 C   0  0  0  0  0  0  0  0  0  0  0  0
   10.8612   -3.6349    0.4543 C   0  0  0  0  0  0  0  0  0  0  0  0
    9.7269   -4.0895   -2.4907 C   0  0  0  0  0  0  0  0  0  0  0  0
   10.0246   -3.3410   -3.8033 C   0  0  0  0  0  0  0  0  0  0  0  0
   10.6179   -3.8377   -4.7229 O   0  0  0  0  0  0  0  0  0  0  0  0
    9.5237   -2.1028   -3.8169 O   0  0  0  0  0  0  0  0  0  0  0  0
    6.7685   -3.6982   -1.7052 C   0  0  0  0  0  0  0  0  0  0  0  0
    2.4900    1.9498    1.7193 H   0  0  0  0  0  0  0  0  0  0  0  0
    3.9330    0.9063    1.7284 H   0  0  0  0  0  0  0  0  0  0  0  0
    2.3292    0.2256    2.1299 H   0  0  0  0  0  0  0  0  0  0  0  0
    3.2089    1.3497   -0.6159 H   0  0  0  0  0  0  0  0  0  0  0  0
    1.5869    0.7348   -0.2680 H   0  0  0  0  0  0  0  0  0  0  0  0
    1.7306   -1.8803    0.7271 H   0  0  0  0  0  0  0  0  0  0  0  0
    2.6046   -2.7506   -0.5284 H   0  0  0  0  0  0  0  0  0  0  0  0
    0.3154   -0.7693   -0.9776 H   0  0  0  0  0  0  0  0  0  0  0  0
    0.2290   -2.5180   -0.9968 H   0  0  0  0  0  0  0  0  0  0  0  0
    3.2442   -2.3626   -2.8977 H   0  0  0  0  0  0  0  0  0  0  0  0
    3.0035   -2.1773   -5.5157 H   0  0  0  0  0  0  0  0  0  0  0  0
    0.6037   -1.3028   -6.2170 H   0  0  0  0  0  0  0  0  0  0  0  0
    4.4206   -2.9199   -0.4512 H   0  0  0  0  0  0  0  0  0  0  0  0
    6.6796   -1.4972   -1.6956 H   0  0  0  0  0  0  0  0  0  0  0  0
    6.7687   -3.0749    0.9363 H   0  0  0  0  0  0  0  0  0  0  0  0
    7.8644   -1.7461    0.4621 H   0  0  0  0  0  0  0  0  0  0  0  0
    8.2085   -4.6343   -0.2450 H   0  0  0  0  0  0  0  0  0  0  0  0
    9.9013   -1.7683   -0.0670 H   0  0  0  0  0  0  0  0  0  0  0  0
   11.0895   -2.3034   -1.2422 H   0  0  0  0  0  0  0  0  0  0  0  0
   10.1072   -3.9385    1.1975 H   0  0  0  0  0  0  0  0  0  0  0  0
   11.6869   -3.1522    1.0005 H   0  0  0  0  0  0  0  0  0  0  0  0
   11.2643   -4.5485   -0.0116 H   0  0  0  0  0  0  0  0  0  0  0  0
    8.9799   -4.8600   -2.7363 H   0  0  0  0  0  0  0  0  0  0  0  0
   10.6395   -4.6375   -2.2002 H   0  0  0  0  0  0  0  0  0  0  0  0
    9.1266   -1.9946   -2.9172 H   0  0  0  0  0  0  0  0  0  0  0  0
    6.0828   -4.5154   -1.4290 H   0  0  0  0  0  0  0  0  0  0  0  0
    6.9362   -3.7359   -2.7918 H   0  0  0  0  0  0  0  0  0  0  0  0
  1  2  1  0
  1 25  1  0
  1 26  1  0
  1 27  1  0
  2  3  1  0
  2 28  1  0
  2 29  1  0
  3  4  1  0
  3 11  1  0
  4  5  1  0
  4 30  1  0
  4 31  1  0
  5  6  1  0
  5 32  1  0
  5 33  1  0
  6  7  2  0
  6 10  1  0
  7  8  1  0
  7 34  1  0
  8  9  2  0
  8 35  1  0
  9 10  1  0
  9 36  1  0
 11 12  2  0
 11 13  1  0
 13 14  1  0
 13 37  1  0
 14 15  1  0
 14 24  1  0
 14 38  1  6
 15 16  1  0
 15 39  1  0
 15 40  1  0
 16 17  1  0
 16 24  1  0
 16 41  1  1
 17 18  1  0
 17 20  1  0
 18 19  1  0
 18 42  1  0
 18 43  1  0
 19 44  1  0
 19 45  1  0
 19 46  1  0
 20 21  1  0
 20 47  1  0
 20 48  1  0
 21 22  2  0
 21 23  1  0
 23 49  1  0
 24 50  1  0
 24 51  1  0
M  END

