
     RDKit          3D

 89 88  0  0  0  0  0  0  0  0999 V2000
    4.8619    1.3071   -8.2908 C   0  0  0  0  0  0  0  0  0  0  0  0
    4.2373    1.5512   -6.9111 C   0  0  1  0  0  0  0  0  0  0  0  0
    2.7079    1.6417   -7.0004 C   0  0  0  0  0  0  0  0  0  0  0  0
    4.6292    0.4776   -5.8788 C   0  0  0  0  0  0  0  0  0  0  0  0
    6.1314    0.2422   -5.6201 C   0  0  2  0  0  0  0  0  0  0  0  0
    6.6134   -0.0402   -6.5733 H   0  0  0  0  0  0  0  0  0  0  0  0
    6.2811   -0.7789   -4.5776 N   0  0  0  0  0  0  0  0  0  0  0  0
    6.8230    1.5464   -5.1906 C   0  0  0  0  0  0  0  0  0  0  0  0
    7.1837    2.3874   -6.0096 O   0  0  0  0  0  0  0  0  0  0  0  0
    6.9579    1.7023   -3.8530 N   0  0  0  0  0  0  0  0  0  0  0  0
    7.5342    2.8965   -3.2646 C   0  0  0  0  0  0  0  0  0  0  0  0
    9.0727    2.8779   -3.2256 C   0  0  0  0  0  0  0  0  0  0  0  0
    9.6819    2.7261   -2.1732 O   0  0  0  0  0  0  0  0  0  0  0  0
    9.6751    3.0370   -4.4297 N   0  0  0  0  0  0  0  0  0  0  0  0
   11.1203    3.0000   -4.5613 C   0  0  1  0  0  0  0  0  0  0  0  0
   11.5451    3.5040   -3.6801 H   0  0  0  0  0  0  0  0  0  0  0  0
   11.6502    1.5438   -4.6073 C   0  0  0  0  0  0  0  0  0  0  0  0
   13.1692    1.3651   -4.4604 C   0  0  0  0  0  0  0  0  0  0  0  0
   13.7908    1.9263   -3.1718 C   0  0  0  0  0  0  0  0  0  0  0  0
   13.1496    1.4345   -1.8718 C   0  0  0  0  0  0  0  0  0  0  0  0
   13.8672    1.9677   -0.7173 N   0  0  0  0  0  0  0  0  0  0  0  0
   11.4881    3.7671   -5.8374 C   0  0  0  0  0  0  0  0  0  0  0  0
   10.7536    3.7653   -6.8161 O   0  0  0  0  0  0  0  0  0  0  0  0
   12.6818    4.4143   -5.8140 N   0  0  0  0  0  0  0  0  0  0  0  0
   13.2388    5.0438   -6.9938 C   0  0  1  0  0  0  0  0  0  0  0  0
   12.9827    4.4207   -7.8685 H   0  0  0  0  0  0  0  0  0  0  0  0
   12.6620    6.4554   -7.2554 C   0  0  0  0  0  0  0  0  0  0  0  0
   12.9396    7.4791   -6.1528 C   0  0  0  0  0  0  0  0  0  0  0  0
   12.2798    8.8353   -6.4141 C   0  0  0  0  0  0  0  0  0  0  0  0
   12.5459    9.8678   -5.3188 C   0  0  0  0  0  0  0  0  0  0  0  0
   11.8504   11.1198   -5.5995 N   0  0  0  0  0  0  0  0  0  0  0  0
   14.7663    5.0509   -6.8209 C   0  0  0  0  0  0  0  0  0  0  0  0
   15.3008    4.7418   -5.7632 O   0  0  0  0  0  0  0  0  0  0  0  0
   15.4777    5.4363   -7.9074 N   0  0  0  0  0  0  0  0  0  0  0  0
   16.9146    5.5113   -7.8892 C   0  0  0  0  0  0  0  0  0  0  0  0
   17.3955    6.0484   -9.2360 C   0  0  0  0  0  0  0  0  0  0  0  0
   16.6182    6.2864  -10.1503 O   0  0  0  0  0  0  0  0  0  0  0  0
   18.7363    6.2443   -9.3382 N   0  0  0  0  0  0  0  0  0  0  0  0
   19.3607    6.5982  -10.5942 C   0  0  1  0  0  0  0  0  0  0  0  0
   18.8836    6.0122  -11.4047 H   0  0  0  0  0  0  0  0  0  0  0  0
   19.1719    8.0855  -10.9583 C   0  0  0  0  0  0  0  0  0  0  0  0
   20.0082    9.2717   -9.8405 S   0  0  0  0  0  0  0  0  0  0  0  0
   20.8359    6.1718  -10.5055 C   0  0  0  0  0  0  0  0  0  0  0  0
   21.3045    5.6586   -9.5259 O   0  0  0  0  0  0  0  0  0  0  0  0
   21.5764    6.3822  -11.6030 O   0  0  0  0  0  0  0  0  0  0  0  0
    4.4863    2.0410   -9.0221 H   0  0  0  0  0  0  0  0  0  0  0  0
    4.6116    0.3013   -8.6732 H   0  0  0  0  0  0  0  0  0  0  0  0
    5.9558    1.4106   -8.2555 H   0  0  0  0  0  0  0  0  0  0  0  0
    4.6138    2.5233   -6.5497 H   0  0  0  0  0  0  0  0  0  0  0  0
    2.2737    0.6996   -7.3789 H   0  0  0  0  0  0  0  0  0  0  0  0
    2.3979    2.4475   -7.6848 H   0  0  0  0  0  0  0  0  0  0  0  0
    2.2539    1.8448   -6.0163 H   0  0  0  0  0  0  0  0  0  0  0  0
    4.2012   -0.4915   -6.2017 H   0  0  0  0  0  0  0  0  0  0  0  0
    4.1580    0.7152   -4.9085 H   0  0  0  0  0  0  0  0  0  0  0  0
    7.1963   -1.2259   -4.6340 H   0  0  0  0  0  0  0  0  0  0  0  0
    5.5868   -1.5165   -4.6916 H   0  0  0  0  0  0  0  0  0  0  0  0
    6.7069    0.8932   -3.2881 H   0  0  0  0  0  0  0  0  0  0  0  0
    7.1922    2.9905   -2.2262 H   0  0  0  0  0  0  0  0  0  0  0  0
    7.1915    3.7683   -3.8444 H   0  0  0  0  0  0  0  0  0  0  0  0
    9.1169    3.0971   -5.2854 H   0  0  0  0  0  0  0  0  0  0  0  0
   11.3110    1.0906   -5.5545 H   0  0  0  0  0  0  0  0  0  0  0  0
   11.1373    1.0025   -3.7973 H   0  0  0  0  0  0  0  0  0  0  0  0
   13.6893    1.8116   -5.3248 H   0  0  0  0  0  0  0  0  0  0  0  0
   13.3799    0.2820   -4.5160 H   0  0  0  0  0  0  0  0  0  0  0  0
   13.7713    3.0301   -3.1615 H   0  0  0  0  0  0  0  0  0  0  0  0
   14.8644    1.6630   -3.1656 H   0  0  0  0  0  0  0  0  0  0  0  0
   13.0957    0.3211   -1.8998 H   0  0  0  0  0  0  0  0  0  0  0  0
   12.1084    1.7922   -1.8131 H   0  0  0  0  0  0  0  0  0  0  0  0
   14.7857    1.5294   -0.6334 H   0  0  0  0  0  0  0  0  0  0  0  0
   13.3673    1.7516    0.1445 H   0  0  0  0  0  0  0  0  0  0  0  0
   13.3194    4.3277   -5.0255 H   0  0  0  0  0  0  0  0  0  0  0  0
   11.5763    6.3304   -7.3953 H   0  0  0  0  0  0  0  0  0  0  0  0
   13.0533    6.8258   -8.2197 H   0  0  0  0  0  0  0  0  0  0  0  0
   14.0303    7.6180   -6.0352 H   0  0  0  0  0  0  0  0  0  0  0  0
   12.5803    7.0773   -5.1894 H   0  0  0  0  0  0  0  0  0  0  0  0
   11.1880    8.7155   -6.5207 H   0  0  0  0  0  0  0  0  0  0  0  0
   12.6364    9.2376   -7.3821 H   0  0  0  0  0  0  0  0  0  0  0  0
   13.6469    9.9760   -5.1884 H   0  0  0  0  0  0  0  0  0  0  0  0
   12.1672    9.4749   -4.3585 H   0  0  0  0  0  0  0  0  0  0  0  0
   12.2492   11.5663   -6.4269 H   0  0  0  0  0  0  0  0  0  0  0  0
   11.9799   11.7808   -4.8336 H   0  0  0  0  0  0  0  0  0  0  0  0
   15.0381    5.6726   -8.7941 H   0  0  0  0  0  0  0  0  0  0  0  0
   17.3718    4.5207   -7.7046 H   0  0  0  0  0  0  0  0  0  0  0  0
   17.2713    6.1625   -7.0714 H   0  0  0  0  0  0  0  0  0  0  0  0
   19.3770    5.9089   -8.6204 H   0  0  0  0  0  0  0  0  0  0  0  0
   18.0937    8.2900  -11.0103 H   0  0  0  0  0  0  0  0  0  0  0  0
   19.5797    8.2979  -11.9601 H   0  0  0  0  0  0  0  0  0  0  0  0
   19.3092    8.9346   -8.7325 H   0  0  0  0  0  0  0  0  0  0  0  0
   21.0583    6.7976  -12.3072 H   0  0  0  0  0  0  0  0  0  0  0  0
  1  2  1  0
  1 46  1  0
  1 47  1  0
  1 48  1  0
  2  3  1  0
  2  4  1  0
  2 49  1  1
  3 50  1  0
  3 51  1  0
  3 52  1  0
  4  5  1  0
  4 53  1  0
  4 54  1  0
  5  6  1  6
  5  7  1  0
  5  8  1  0
  7 55  1  0
  7 56  1  0
  8  9  2  0
  8 10  1  0
 10 11  1  0
 10 57  1  0
 11 12  1  0
 11 58  1  0
 11 59  1  0
 12 13  2  0
 12 14  1  0
 14 15  1  0
 14 60  1  0
 15 16  1  1
 15 17  1  0
 15 22  1  0
 17 18  1  0
 17 61  1  0
 17 62  1  0
 18 19  1  0
 18 63  1  0
 18 64  1  0
 19 20  1  0
 19 65  1  0
 19 66  1  0
 20 21  1  0
 20 67  1  0
 20 68  1  0
 21 69  1  0
 21 70  1  0
 22 23  2  0
 22 24  1  0
 24 25  1  0
 24 71  1  0
 25 26  1  6
 25 27  1  0
 25 32  1  0
 27 28  1  0
 27 72  1  0
 27 73  1  0
 28 29  1  0
 28 74  1  0
 28 75  1  0
 29 30  1  0
 29 76  1  0
 29 77  1  0
 30 31  1  0
 30 78  1  0
 30 79  1  0
 31 80  1  0
 31 81  1  0
 32 33  2  0
 32 34  1  0
 34 35  1  0
 34 82  1  0
 35 36  1  0
 35 83  1  0
 35 84  1  0
 36 37  2  0
 36 38  1  0
 38 39  1  0
 38 85  1  0
 39 40  1  6
 39 41  1  0
 39 43  1  0
 41 42  1  0
 41 86  1  0
 41 87  1  0
 42 88  1  0
 43 44  2  0
 43 45  1  0
 45 89  1  0
M  END

