
     RDKit          3D

 41 42  0  0  0  0  0  0  0  0999 V2000
    1.9820    0.1642    0.7040 C   0  0  0  0  0  0  0  0  0  0  0  0
    3.0605   -0.4835   -0.1779 C   0  0  1  0  0  0  0  0  0  0  0  0
    2.5601   -1.7560   -0.8937 C   0  0  0  0  0  0  0  0  0  0  0  0
    1.5924   -1.4513   -2.0454 C   0  0  0  0  0  0  0  0  0  0  0  0
    2.2061   -0.4690   -3.0513 C   0  0  0  0  0  0  0  0  0  0  0  0
    2.6867    0.8233   -2.3665 C   0  0  2  0  0  0  0  0  0  0  0  0
    3.2969    1.7464   -3.3085 N   0  0  0  0  0  0  0  0  0  0  0  0
    2.6940    2.9113   -3.7205 C   0  0  0  0  0  0  0  0  0  0  0  0
    1.5851    3.2522   -3.2790 O   0  0  0  0  0  0  0  0  0  0  0  0
    3.3999    3.7372   -4.6854 C   0  0  0  0  0  0  0  0  0  0  0  0
    5.0039    3.4394   -5.3796 S   0  0  0  0  0  0  0  0  0  0  0  0
    4.8380    4.9426   -6.2954 C   0  0  0  0  0  0  0  0  0  0  0  0
    5.8135    5.3466   -7.1549 N   0  0  0  0  0  0  0  0  0  0  0  0
    7.0663    4.6271   -7.2446 C   0  0  0  0  0  0  0  0  0  0  0  0
    5.7388    6.6719   -7.7477 C   0  0  0  0  0  0  0  0  0  0  0  0
    3.7270    5.6019   -6.0831 N   0  0  0  0  0  0  0  0  0  0  0  0
    2.9129    4.9460   -5.1995 C   0  0  0  0  0  0  0  0  0  0  0  0
    1.7131    5.4753   -4.8800 N   0  0  0  0  0  0  0  0  0  0  0  0
    3.6491    0.5030   -1.2087 C   0  0  0  0  0  0  0  0  0  0  0  0
    1.6154   -0.5472    1.4621 H   0  0  0  0  0  0  0  0  0  0  0  0
    1.1097    0.5069    0.1257 H   0  0  0  0  0  0  0  0  0  0  0  0
    2.3841    1.0416    1.2361 H   0  0  0  0  0  0  0  0  0  0  0  0
    3.8841   -0.7838    0.4943 H   0  0  0  0  0  0  0  0  0  0  0  0
    2.0868   -2.4360   -0.1646 H   0  0  0  0  0  0  0  0  0  0  0  0
    3.4334   -2.2986   -1.3001 H   0  0  0  0  0  0  0  0  0  0  0  0
    0.6544   -1.0258   -1.6474 H   0  0  0  0  0  0  0  0  0  0  0  0
    1.3077   -2.3867   -2.5558 H   0  0  0  0  0  0  0  0  0  0  0  0
    1.4829   -0.2139   -3.8428 H   0  0  0  0  0  0  0  0  0  0  0  0
    3.0697   -0.9478   -3.5525 H   0  0  0  0  0  0  0  0  0  0  0  0
    1.8083    1.3601   -1.9783 H   0  0  0  0  0  0  0  0  0  0  0  0
    4.1779    1.4744   -3.7290 H   0  0  0  0  0  0  0  0  0  0  0  0
    6.8868    3.5401   -7.2430 H   0  0  0  0  0  0  0  0  0  0  0  0
    7.7589    4.8656   -6.4139 H   0  0  0  0  0  0  0  0  0  0  0  0
    7.5630    4.8822   -8.1921 H   0  0  0  0  0  0  0  0  0  0  0  0
    4.7029    7.0257   -7.6963 H   0  0  0  0  0  0  0  0  0  0  0  0
    6.0610    6.6300   -8.8007 H   0  0  0  0  0  0  0  0  0  0  0  0
    6.3838    7.3959   -7.2141 H   0  0  0  0  0  0  0  0  0  0  0  0
    1.4633    6.3859   -5.2365 H   0  0  0  0  0  0  0  0  0  0  0  0
    1.1707    4.9755   -4.1776 H   0  0  0  0  0  0  0  0  0  0  0  0
    3.9496    1.4424   -0.7155 H   0  0  0  0  0  0  0  0  0  0  0  0
    4.5714    0.0631   -1.6346 H   0  0  0  0  0  0  0  0  0  0  0  0
  1  2  1  0
  1 20  1  0
  1 21  1  0
  1 22  1  0
  2  3  1  0
  2 19  1  0
  2 23  1  1
  3  4  1  0
  3 24  1  0
  3 25  1  0
  4  5  1  0
  4 26  1  0
  4 27  1  0
  5  6  1  0
  5 28  1  0
  5 29  1  0
  6  7  1  0
  6 19  1  0
  6 30  1  1
  7  8  1  0
  7 31  1  0
  8  9  2  0
  8 10  1  0
 10 11  1  0
 10 17  2  0
 11 12  1  0
 12 13  1  0
 12 16  2  0
 13 14  1  0
 13 15  1  0
 14 32  1  0
 14 33  1  0
 14 34  1  0
 15 35  1  0
 15 36  1  0
 15 37  1  0
 16 17  1  0
 17 18  1  0
 18 38  1  0
 18 39  1  0
 19 40  1  0
 19 41  1  0
M  END

