
     RDKit          3D

 54 56  0  0  0  0  0  0  0  0999 V2000
    0.8167    1.6002   -0.2690 C   0  0  0  0  0  0  0  0  0  0  0  0
    2.3378    1.6996   -0.2009 C   0  0  0  0  0  0  0  0  0  0  0  0
    3.0198    1.3072   -1.4384 N   0  0  0  0  0  0  0  0  0  0  0  0
    2.5910    2.0167   -2.6405 C   0  0  0  0  0  0  0  0  0  0  0  0
    2.8408    3.5322   -2.5840 C   0  0  0  0  0  0  0  0  0  0  0  0
    2.0315    4.3259   -2.1842 O   0  0  0  0  0  0  0  0  0  0  0  0
    4.0851    3.9431   -2.9330 O   0  0  0  0  0  0  0  0  0  0  0  0
    4.4599    1.2349   -1.2722 C   0  0  1  0  0  0  0  0  0  0  0  0
    5.0151    0.1152   -0.3541 C   0  0  0  0  0  0  0  0  0  0  0  0
    6.1486   -0.1303   -1.3816 C   0  0  2  0  0  0  0  0  0  0  0  0
    7.3626    0.5765   -1.0090 N   0  0  0  0  0  0  0  0  0  0  0  0
    8.4139    0.6419   -1.9032 C   0  0  0  0  0  0  0  0  0  0  0  0
    8.2925    0.2424   -3.0568 O   0  0  0  0  0  0  0  0  0  0  0  0
    9.5800    1.2123   -1.4193 N   0  0  0  0  0  0  0  0  0  0  0  0
    9.6913    1.7139   -0.0609 C   0  0  0  0  0  0  0  0  0  0  0  0
   10.7418    1.2479   -2.3232 C   0  0  1  0  0  0  0  0  0  0  0  0
   11.1763    2.6806   -2.6617 C   0  0  0  0  0  0  0  0  0  0  0  0
   11.8764    0.4005   -1.8199 C   0  0  0  0  0  0  0  0  0  0  0  0
   12.2961   -0.8505   -2.1630 C   0  0  0  0  0  0  0  0  0  0  0  0
   13.4345   -1.1489   -1.3261 C   0  0  0  0  0  0  0  0  0  0  0  0
   14.3167   -2.2321   -1.1667 C   0  0  0  0  0  0  0  0  0  0  0  0
   15.3300   -2.1301   -0.2144 C   0  0  0  0  0  0  0  0  0  0  0  0
   15.4790   -0.9727    0.5769 C   0  0  0  0  0  0  0  0  0  0  0  0
   14.6159    0.1164    0.4366 C   0  0  0  0  0  0  0  0  0  0  0  0
   13.6102   -0.0050   -0.5187 C   0  0  0  0  0  0  0  0  0  0  0  0
   12.6651    0.9307   -0.8223 O   0  0  0  0  0  0  0  0  0  0  0  0
    5.2910    0.6255   -2.4305 C   0  0  0  0  0  0  0  0  0  0  0  0
    0.3902    1.7339    0.7372 H   0  0  0  0  0  0  0  0  0  0  0  0
    0.5034    0.6137   -0.6470 H   0  0  0  0  0  0  0  0  0  0  0  0
    0.3871    2.3827   -0.9117 H   0  0  0  0  0  0  0  0  0  0  0  0
    2.7071    1.0234    0.5876 H   0  0  0  0  0  0  0  0  0  0  0  0
    2.6218    2.7277    0.1153 H   0  0  0  0  0  0  0  0  0  0  0  0
    1.5123    1.8753   -2.7868 H   0  0  0  0  0  0  0  0  0  0  0  0
    3.1015    1.5751   -3.5124 H   0  0  0  0  0  0  0  0  0  0  0  0
    4.6126    3.1960   -3.2507 H   0  0  0  0  0  0  0  0  0  0  0  0
    4.8979    2.2094   -0.9650 H   0  0  0  0  0  0  0  0  0  0  0  0
    4.3208   -0.7369   -0.3225 H   0  0  0  0  0  0  0  0  0  0  0  0
    5.3094    0.3819    0.6738 H   0  0  0  0  0  0  0  0  0  0  0  0
    6.3651   -1.1812   -1.6354 H   0  0  0  0  0  0  0  0  0  0  0  0
    7.5538    0.6531   -0.0179 H   0  0  0  0  0  0  0  0  0  0  0  0
    8.9061    2.4567    0.1625 H   0  0  0  0  0  0  0  0  0  0  0  0
   10.6644    2.2007    0.0715 H   0  0  0  0  0  0  0  0  0  0  0  0
    9.6357    0.9072    0.6952 H   0  0  0  0  0  0  0  0  0  0  0  0
   10.3790    0.7662   -3.2398 H   0  0  0  0  0  0  0  0  0  0  0  0
   11.5439    3.2236   -1.7777 H   0  0  0  0  0  0  0  0  0  0  0  0
   10.3283    3.2371   -3.0880 H   0  0  0  0  0  0  0  0  0  0  0  0
   11.9909    2.6660   -3.4021 H   0  0  0  0  0  0  0  0  0  0  0  0
   11.8429   -1.4828   -2.9236 H   0  0  0  0  0  0  0  0  0  0  0  0
   14.2106   -3.1336   -1.7749 H   0  0  0  0  0  0  0  0  0  0  0  0
   16.0251   -2.9620   -0.0762 H   0  0  0  0  0  0  0  0  0  0  0  0
   16.2851   -0.9259    1.3130 H   0  0  0  0  0  0  0  0  0  0  0  0
   14.7188    1.0203    1.0399 H   0  0  0  0  0  0  0  0  0  0  0  0
    4.6882   -0.0852   -3.0150 H   0  0  0  0  0  0  0  0  0  0  0  0
    5.8436    1.2845   -3.1162 H   0  0  0  0  0  0  0  0  0  0  0  0
  1  2  1  0
  1 28  1  0
  1 29  1  0
  1 30  1  0
  2  3  1  0
  2 31  1  0
  2 32  1  0
  3  4  1  0
  3  8  1  0
  4  5  1  0
  4 33  1  0
  4 34  1  0
  5  6  2  0
  5  7  1  0
  7 35  1  0
  8  9  1  0
  8 27  1  0
  8 36  1  1
  9 10  1  0
  9 37  1  0
  9 38  1  0
 10 11  1  0
 10 27  1  0
 10 39  1  6
 11 12  1  0
 11 40  1  0
 12 13  2  0
 12 14  1  0
 14 15  1  0
 14 16  1  0
 15 41  1  0
 15 42  1  0
 15 43  1  0
 16 17  1  0
 16 18  1  0
 16 44  1  6
 17 45  1  0
 17 46  1  0
 17 47  1  0
 18 19  2  0
 18 26  1  0
 19 20  1  0
 19 48  1  0
 20 21  2  0
 20 25  1  0
 21 22  1  0
 21 49  1  0
 22 23  2  0
 22 50  1  0
 23 24  1  0
 23 51  1  0
 24 25  2  0
 24 52  1  0
 25 26  1  0
 27 53  1  0
 27 54  1  0
M  END

