
     RDKit          3D

 29 30  0  0  0  0  0  0  0  0999 V2000
    5.4832    1.4414    0.3754 C   0  0  0  0  0  0  0  0  0  0  0  0
    4.4894    0.6521    1.0790 N   0  0  0  0  0  0  0  0  0  0  0  0
    3.0983    0.6173    0.6203 C   0  0  0  0  0  0  0  0  0  0  0  0
    2.1153    1.3764    1.5432 C   0  0  1  0  0  0  0  0  0  0  0  0
    2.4043    2.8768    1.7118 C   0  0  0  0  0  0  0  0  0  0  0  0
    1.9765    3.7004    0.4894 C   0  0  0  0  0  0  0  0  0  0  0  0
    0.5242    3.3714    0.1261 C   0  0  0  0  0  0  0  0  0  0  0  0
    0.3541    1.8617   -0.0354 C   0  0  0  0  0  0  0  0  0  0  0  0
    0.7781    1.1464    1.1129 O   0  0  0  0  0  0  0  0  0  0  0  0
    4.8773   -0.2346    2.0326 C   0  0  0  0  0  0  0  0  0  0  0  0
    4.0567   -1.0446    2.6629 N   0  0  0  0  0  0  0  0  0  0  0  0
    4.6783   -1.8377    3.5712 N   0  0  0  0  0  0  0  0  0  0  0  0
    5.9484   -1.6494    3.6400 C   0  0  0  0  0  0  0  0  0  0  0  0
    7.1021   -2.5757    4.8000 Br  0  0  0  0  0  0  0  0  0  0  0  0
    6.5670   -0.4142    2.5385 S   0  0  0  0  0  0  0  0  0  0  0  0
    4.9828    2.2350   -0.1944 H   0  0  0  0  0  0  0  0  0  0  0  0
    6.0849    0.8348   -0.3287 H   0  0  0  0  0  0  0  0  0  0  0  0
    6.1740    1.9282    1.0843 H   0  0  0  0  0  0  0  0  0  0  0  0
    2.7571   -0.4277    0.5779 H   0  0  0  0  0  0  0  0  0  0  0  0
    3.0818    1.0196   -0.4029 H   0  0  0  0  0  0  0  0  0  0  0  0
    2.1798    0.8859    2.5256 H   0  0  0  0  0  0  0  0  0  0  0  0
    3.4706    3.0263    1.9479 H   0  0  0  0  0  0  0  0  0  0  0  0
    1.8393    3.2289    2.5915 H   0  0  0  0  0  0  0  0  0  0  0  0
    2.6293    3.4779   -0.3755 H   0  0  0  0  0  0  0  0  0  0  0  0
    2.0974    4.7770    0.6933 H   0  0  0  0  0  0  0  0  0  0  0  0
    0.2158    3.8826   -0.8016 H   0  0  0  0  0  0  0  0  0  0  0  0
   -0.1462    3.7228    0.9299 H   0  0  0  0  0  0  0  0  0  0  0  0
    0.8983    1.5218   -0.9415 H   0  0  0  0  0  0  0  0  0  0  0  0
   -0.7037    1.5933   -0.1802 H   0  0  0  0  0  0  0  0  0  0  0  0
  1  2  1  0
  1 16  1  0
  1 17  1  0
  1 18  1  0
  2  3  1  0
  2 10  1  0
  3  4  1  0
  3 19  1  0
  3 20  1  0
  4  5  1  0
  4  9  1  0
  4 21  1  1
  5  6  1  0
  5 22  1  0
  5 23  1  0
  6  7  1  0
  6 24  1  0
  6 25  1  0
  7  8  1  0
  7 26  1  0
  7 27  1  0
  8  9  1  0
  8 28  1  0
  8 29  1  0
 10 11  2  0
 10 15  1  0
 11 12  1  0
 12 13  2  0
 13 14  1  0
 13 15  1  0
M  END

