
     RDKit          3D

 36 37  0  0  0  0  0  0  0  0999 V2000
    2.3773    2.6874   -1.9233 C   0  0  0  0  0  0  0  0  0  0  0  0
    3.2632    1.8547   -1.2271 O   0  0  0  0  0  0  0  0  0  0  0  0
    3.8935    2.4783   -0.1378 C   0  0  0  0  0  0  0  0  0  0  0  0
    4.8083    1.4622    0.5241 C   0  0  0  0  0  0  0  0  0  0  0  0
    5.4432    2.0883    1.6085 O   0  0  0  0  0  0  0  0  0  0  0  0
    6.3070    1.2552    2.3343 C   0  0  0  0  0  0  0  0  0  0  0  0
    6.8724    2.0336    3.5168 C   0  0  2  0  0  0  0  0  0  0  0  0
    7.2995    2.9674    3.1151 H   0  0  0  0  0  0  0  0  0  0  0  0
    7.9024    1.2377    4.3430 C   0  0  0  0  0  0  0  0  0  0  0  0
    7.0735    0.6539    5.4788 C   0  0  2  0  0  0  0  0  0  0  0  0
    7.6448    0.5352    6.4167 H   0  0  0  0  0  0  0  0  0  0  0  0
    6.4575   -0.5656    5.0963 O   0  0  0  0  0  0  0  0  0  0  0  0
    5.1430   -0.5859    5.6421 C   0  0  1  0  0  0  0  0  0  0  0  0
    4.2182   -1.3263    4.6889 C   0  0  0  0  0  0  0  0  0  0  0  0
    5.1475   -1.1998    7.0453 C   0  0  0  0  0  0  0  0  0  0  0  0
    4.7511    0.7863    5.7234 O   0  0  0  0  0  0  0  0  0  0  0  0
    5.8746    1.6233    5.6114 C   0  0  2  0  0  0  0  0  0  0  0  0
    5.8972    2.2960    6.4854 H   0  0  0  0  0  0  0  0  0  0  0  0
    5.8639    2.4203    4.4562 O   0  0  0  0  0  0  0  0  0  0  0  0
    1.9424    2.1040   -2.7483 H   0  0  0  0  0  0  0  0  0  0  0  0
    2.8882    3.5749   -2.3506 H   0  0  0  0  0  0  0  0  0  0  0  0
    1.5527    3.0520   -1.2767 H   0  0  0  0  0  0  0  0  0  0  0  0
    3.1552    2.8458    0.6046 H   0  0  0  0  0  0  0  0  0  0  0  0
    4.4911    3.3559   -0.4620 H   0  0  0  0  0  0  0  0  0  0  0  0
    5.5437    1.0889   -0.2190 H   0  0  0  0  0  0  0  0  0  0  0  0
    4.2098    0.5883    0.8541 H   0  0  0  0  0  0  0  0  0  0  0  0
    7.1553    0.9190    1.6985 H   0  0  0  0  0  0  0  0  0  0  0  0
    5.7908    0.3444    2.6905 H   0  0  0  0  0  0  0  0  0  0  0  0
    8.6645    1.9162    4.7560 H   0  0  0  0  0  0  0  0  0  0  0  0
    8.4179    0.4508    3.7739 H   0  0  0  0  0  0  0  0  0  0  0  0
    4.5619   -2.3621    4.5512 H   0  0  0  0  0  0  0  0  0  0  0  0
    4.1992   -0.8189    3.7151 H   0  0  0  0  0  0  0  0  0  0  0  0
    3.1960   -1.3425    5.0938 H   0  0  0  0  0  0  0  0  0  0  0  0
    5.4561   -2.2552    7.0022 H   0  0  0  0  0  0  0  0  0  0  0  0
    4.1426   -1.1391    7.4882 H   0  0  0  0  0  0  0  0  0  0  0  0
    5.8432   -0.6594    7.7049 H   0  0  0  0  0  0  0  0  0  0  0  0
  1  2  1  0
  1 20  1  0
  1 21  1  0
  1 22  1  0
  2  3  1  0
  3  4  1  0
  3 23  1  0
  3 24  1  0
  4  5  1  0
  4 25  1  0
  4 26  1  0
  5  6  1  0
  6  7  1  0
  6 27  1  0
  6 28  1  0
  7  8  1  6
  7  9  1  0
  7 19  1  0
  9 10  1  0
  9 29  1  0
  9 30  1  0
 10 11  1  1
 10 12  1  0
 10 17  1  0
 12 13  1  0
 13 14  1  6
 13 15  1  0
 13 16  1  0
 14 31  1  0
 14 32  1  0
 14 33  1  0
 15 34  1  0
 15 35  1  0
 15 36  1  0
 16 17  1  0
 17 18  1  1
 17 19  1  0
M  END

