
     RDKit          3D

 54 53  0  0  0  0  0  0  0  0999 V2000
    0.6241   -0.0450    0.0919 C   0  0  0  0  0  0  0  0  0  0  0  0
    2.1508   -0.0132    0.0062 C   0  0  0  0  0  0  0  0  0  0  0  0
    2.8245   -1.2056    0.6905 C   0  0  0  0  0  0  0  0  0  0  0  0
    4.3499   -1.1872    0.6016 C   0  0  0  0  0  0  0  0  0  0  0  0
    4.9430   -2.3060    1.3129 N   0  0  0  0  0  0  0  0  0  0  0  0
    6.3944   -2.3545    1.2799 C   0  0  0  0  0  0  0  0  0  0  0  0
    6.9370   -3.5551    2.0541 C   0  0  0  0  0  0  0  0  0  0  0  0
    8.4655   -3.6197    2.1018 C   0  0  0  0  0  0  0  0  0  0  0  0
    9.0083   -4.8296    2.8682 C   0  0  0  0  0  0  0  0  0  0  0  0
   10.5374   -4.8934    2.9251 C   0  0  0  0  0  0  0  0  0  0  0  0
   11.0804   -6.1036    3.6908 C   0  0  0  0  0  0  0  0  0  0  0  0
   12.6095   -6.1671    3.7492 C   0  0  0  0  0  0  0  0  0  0  0  0
   13.1523   -7.3772    4.5152 C   0  0  0  0  0  0  0  0  0  0  0  0
   14.6813   -7.4401    4.5747 C   0  0  0  0  0  0  0  0  0  0  0  0
   15.2235   -8.6509    5.3402 C   0  0  0  0  0  0  0  0  0  0  0  0
   16.7515   -8.7071    5.4048 C   0  0  0  0  0  0  0  0  0  0  0  0
   17.2944   -9.9204    6.1594 C   0  0  0  0  0  0  0  0  0  0  0  0
   18.7520   -9.8817    6.2353 N   0  0  0  0  0  0  0  0  0  0  0  0
    0.1719    0.8275   -0.4062 H   0  0  0  0  0  0  0  0  0  0  0  0
    0.2819   -0.0447    1.1403 H   0  0  0  0  0  0  0  0  0  0  0  0
    0.2143   -0.9504   -0.3867 H   0  0  0  0  0  0  0  0  0  0  0  0
    2.5251    0.9232    0.4587 H   0  0  0  0  0  0  0  0  0  0  0  0
    2.4593    0.0228   -1.0546 H   0  0  0  0  0  0  0  0  0  0  0  0
    2.4472   -2.1438    0.2392 H   0  0  0  0  0  0  0  0  0  0  0  0
    2.5381   -1.2450    1.7560 H   0  0  0  0  0  0  0  0  0  0  0  0
    4.7296   -0.2529    1.0555 H   0  0  0  0  0  0  0  0  0  0  0  0
    4.6558   -1.1429   -0.4714 H   0  0  0  0  0  0  0  0  0  0  0  0
    4.5625   -3.1819    0.9528 H   0  0  0  0  0  0  0  0  0  0  0  0
    6.7786   -1.4232    1.7361 H   0  0  0  0  0  0  0  0  0  0  0  0
    6.8054   -2.3693    0.2418 H   0  0  0  0  0  0  0  0  0  0  0  0
    6.5477   -4.4853    1.5973 H   0  0  0  0  0  0  0  0  0  0  0  0
    6.5243   -3.5242    3.0775 H   0  0  0  0  0  0  0  0  0  0  0  0
    8.8553   -2.6929    2.5626 H   0  0  0  0  0  0  0  0  0  0  0  0
    8.8663   -3.6322    1.0711 H   0  0  0  0  0  0  0  0  0  0  0  0
    8.6215   -5.7572    2.4062 H   0  0  0  0  0  0  0  0  0  0  0  0
    8.6046   -4.8191    3.8977 H   0  0  0  0  0  0  0  0  0  0  0  0
   10.9238   -3.9660    3.3878 H   0  0  0  0  0  0  0  0  0  0  0  0
   10.9407   -4.9025    1.8952 H   0  0  0  0  0  0  0  0  0  0  0  0
   10.6944   -7.0310    3.2279 H   0  0  0  0  0  0  0  0  0  0  0  0
   10.6764   -6.0945    4.7204 H   0  0  0  0  0  0  0  0  0  0  0  0
   12.9955   -5.2397    4.2122 H   0  0  0  0  0  0  0  0  0  0  0  0
   13.0137   -6.1760    2.7197 H   0  0  0  0  0  0  0  0  0  0  0  0
   12.7668   -8.3047    4.0520 H   0  0  0  0  0  0  0  0  0  0  0  0
   12.7476   -7.3683    5.5445 H   0  0  0  0  0  0  0  0  0  0  0  0
   15.0672   -6.5136    5.0390 H   0  0  0  0  0  0  0  0  0  0  0  0
   15.0864   -7.4483    3.5455 H   0  0  0  0  0  0  0  0  0  0  0  0
   14.8393   -9.5773    4.8737 H   0  0  0  0  0  0  0  0  0  0  0  0
   14.8152   -8.6431    6.3682 H   0  0  0  0  0  0  0  0  0  0  0  0
   17.1489   -7.7955    5.8840 H   0  0  0  0  0  0  0  0  0  0  0  0
   17.1607   -8.7114    4.3761 H   0  0  0  0  0  0  0  0  0  0  0  0
   16.8862  -10.8447    5.6910 H   0  0  0  0  0  0  0  0  0  0  0  0
   16.8992   -9.9065    7.1911 H   0  0  0  0  0  0  0  0  0  0  0  0
   19.1537   -9.9807    5.3014 H   0  0  0  0  0  0  0  0  0  0  0  0
   19.1030  -10.6722    6.7760 H   0  0  0  0  0  0  0  0  0  0  0  0
  1  2  1  0
  1 19  1  0
  1 20  1  0
  1 21  1  0
  2  3  1  0
  2 22  1  0
  2 23  1  0
  3  4  1  0
  3 24  1  0
  3 25  1  0
  4  5  1  0
  4 26  1  0
  4 27  1  0
  5  6  1  0
  5 28  1  0
  6  7  1  0
  6 29  1  0
  6 30  1  0
  7  8  1  0
  7 31  1  0
  7 32  1  0
  8  9  1  0
  8 33  1  0
  8 34  1  0
  9 10  1  0
  9 35  1  0
  9 36  1  0
 10 11  1  0
 10 37  1  0
 10 38  1  0
 11 12  1  0
 11 39  1  0
 11 40  1  0
 12 13  1  0
 12 41  1  0
 12 42  1  0
 13 14  1  0
 13 43  1  0
 13 44  1  0
 14 15  1  0
 14 45  1  0
 14 46  1  0
 15 16  1  0
 15 47  1  0
 15 48  1  0
 16 17  1  0
 16 49  1  0
 16 50  1  0
 17 18  1  0
 17 51  1  0
 17 52  1  0
 18 53  1  0
 18 54  1  0
M  END

