
     RDKit          3D

 44 45  0  0  0  0  0  0  0  0999 V2000
    1.2000    0.7128    1.4342 C   0  0  0  0  0  0  0  0  0  0  0  0
    2.6219    0.3190    1.1660 C   0  0  0  0  0  0  0  0  0  0  0  0
    3.1324   -0.7523    1.2627 O   0  0  0  0  0  0  0  0  0  0  0  0
    3.3308    1.4590    0.7584 O   0  0  0  0  0  0  0  0  0  0  0  0
    4.6887    1.2606    0.6537 N   0  0  0  0  0  0  0  0  0  0  0  0
    5.2523    1.0064   -0.5929 C   0  0  0  0  0  0  0  0  0  0  0  0
    4.4244    1.0209   -1.8194 C   0  0  0  0  0  0  0  0  0  0  0  0
    4.5981    0.0035   -2.7762 C   0  0  0  0  0  0  0  0  0  0  0  0
    3.8824    0.0236   -3.9752 C   0  0  0  0  0  0  0  0  0  0  0  0
    2.9776    1.0559   -4.2367 C   0  0  0  0  0  0  0  0  0  0  0  0
    2.7947    2.0709   -3.2913 C   0  0  0  0  0  0  0  0  0  0  0  0
    3.5096    2.0570   -2.0931 C   0  0  0  0  0  0  0  0  0  0  0  0
    6.6092    0.7875   -0.5950 C   0  0  0  0  0  0  0  0  0  0  0  0
    7.3832    0.7902    0.5231 N   0  0  0  0  0  0  0  0  0  0  0  0
    6.8283    1.0207    1.6735 C   0  0  0  0  0  0  0  0  0  0  0  0
    7.5004    1.0467    2.8771 N   0  0  0  0  0  0  0  0  0  0  0  0
    8.8544    0.8531    3.1278 C   0  0  0  0  0  0  0  0  0  0  0  0
    9.7042    0.6357    2.3035 O   0  0  0  0  0  0  0  0  0  0  0  0
    9.0294    0.9573    4.4625 O   0  0  0  0  0  0  0  0  0  0  0  0
   10.3504    0.8060    5.0827 C   0  0  1  0  0  0  0  0  0  0  0  0
   11.2965    1.8969    4.5704 C   0  0  0  0  0  0  0  0  0  0  0  0
   10.0504    1.0014    6.5699 C   0  0  0  0  0  0  0  0  0  0  0  0
   10.8941   -0.6018    4.8176 C   0  0  0  0  0  0  0  0  0  0  0  0
    5.3774    1.2727    1.8599 C   0  0  0  0  0  0  0  0  0  0  0  0
    4.8354    1.4512    2.9402 O   0  0  0  0  0  0  0  0  0  0  0  0
    0.5976   -0.1897    1.5901 H   0  0  0  0  0  0  0  0  0  0  0  0
    0.7993    1.3077    0.6006 H   0  0  0  0  0  0  0  0  0  0  0  0
    1.1741    1.3413    2.3381 H   0  0  0  0  0  0  0  0  0  0  0  0
    5.2866   -0.8176   -2.5661 H   0  0  0  0  0  0  0  0  0  0  0  0
    4.0270   -0.7779   -4.7039 H   0  0  0  0  0  0  0  0  0  0  0  0
    2.4150    1.0699   -5.1734 H   0  0  0  0  0  0  0  0  0  0  0  0
    2.0948    2.8860   -3.4920 H   0  0  0  0  0  0  0  0  0  0  0  0
    3.3693    2.8614   -1.3697 H   0  0  0  0  0  0  0  0  0  0  0  0
    7.1187    0.6244   -1.5470 H   0  0  0  0  0  0  0  0  0  0  0  0
    6.8980    1.2211    3.6792 H   0  0  0  0  0  0  0  0  0  0  0  0
   10.8577    2.8934    4.7356 H   0  0  0  0  0  0  0  0  0  0  0  0
   11.5021    1.7733    3.4995 H   0  0  0  0  0  0  0  0  0  0  0  0
   12.2492    1.8485    5.1206 H   0  0  0  0  0  0  0  0  0  0  0  0
    9.6168    1.9967    6.7505 H   0  0  0  0  0  0  0  0  0  0  0  0
   10.9750    0.9107    7.1599 H   0  0  0  0  0  0  0  0  0  0  0  0
    9.3344    0.2441    6.9237 H   0  0  0  0  0  0  0  0  0  0  0  0
   11.0951   -0.7553    3.7497 H   0  0  0  0  0  0  0  0  0  0  0  0
   10.1723   -1.3615    5.1563 H   0  0  0  0  0  0  0  0  0  0  0  0
   11.8310   -0.7478    5.3777 H   0  0  0  0  0  0  0  0  0  0  0  0
  1  2  1  0
  1 26  1  0
  1 27  1  0
  1 28  1  0
  2  3  2  0
  2  4  1  0
  4  5  1  0
  5  6  1  0
  5 24  1  0
  6  7  1  0
  6 13  2  0
  7  8  2  0
  7 12  1  0
  8  9  1  0
  8 29  1  0
  9 10  2  0
  9 30  1  0
 10 11  1  0
 10 31  1  0
 11 12  2  0
 11 32  1  0
 12 33  1  0
 13 14  1  0
 13 34  1  0
 14 15  2  0
 15 16  1  0
 15 24  1  0
 16 17  1  0
 16 35  1  0
 17 18  2  0
 17 19  1  0
 20 19  1  6
 20 21  1  0
 20 22  1  0
 20 23  1  0
 21 36  1  0
 21 37  1  0
 21 38  1  0
 22 39  1  0
 22 40  1  0
 22 41  1  0
 23 42  1  0
 23 43  1  0
 23 44  1  0
 24 25  2  0
M  END

