
     RDKit          3D

 37 38  0  0  0  0  0  0  0  0999 V2000
    2.7501    2.0762    2.1408 C   0  0  0  0  0  0  0  0  0  0  0  0
    3.4757    1.2830    1.0533 C   0  0  0  0  0  0  0  0  0  0  0  0
    3.6643    2.0750   -0.2434 C   0  0  0  0  0  0  0  0  0  0  0  0
    4.3781    1.2708   -1.3368 C   0  0  1  0  0  0  0  0  0  0  0  0
    3.7506    0.0360   -1.6510 O   0  0  0  0  0  0  0  0  0  0  0  0
    2.4598    0.0993   -2.2131 C   0  0  0  0  0  0  0  0  0  0  0  0
    4.6382    2.0741   -2.5927 C   0  0  0  0  0  0  0  0  0  0  0  0
    4.0799    3.2322   -2.8395 N   0  0  0  0  0  0  0  0  0  0  0  0
    4.5860    3.5820   -4.0863 O   0  0  0  0  0  0  0  0  0  0  0  0
    5.3999    2.5872   -4.4713 C   0  0  0  0  0  0  0  0  0  0  0  0
    6.1276    2.7203   -5.7708 C   0  0  0  0  0  0  0  0  0  0  0  0
    7.4056    3.5391   -5.6523 C   0  0  0  0  0  0  0  0  0  0  0  0
    8.4929    3.0588   -4.9085 C   0  0  0  0  0  0  0  0  0  0  0  0
    9.6686    3.8013   -4.7920 C   0  0  0  0  0  0  0  0  0  0  0  0
    9.7787    5.0504   -5.4215 C   0  0  0  0  0  0  0  0  0  0  0  0
   10.8977    5.8150   -5.3450 O   0  0  0  0  0  0  0  0  0  0  0  0
    8.6970    5.5428   -6.1646 C   0  0  0  0  0  0  0  0  0  0  0  0
    7.5272    4.7914   -6.2719 C   0  0  0  0  0  0  0  0  0  0  0  0
    5.4715    1.6300   -3.5953 N   0  0  0  0  0  0  0  0  0  0  0  0
    2.6317    1.4828    3.0614 H   0  0  0  0  0  0  0  0  0  0  0  0
    1.7430    2.3815    1.8103 H   0  0  0  0  0  0  0  0  0  0  0  0
    3.3002    2.9951    2.4051 H   0  0  0  0  0  0  0  0  0  0  0  0
    2.9252    0.3531    0.8342 H   0  0  0  0  0  0  0  0  0  0  0  0
    4.4644    0.9594    1.4264 H   0  0  0  0  0  0  0  0  0  0  0  0
    4.2569    2.9849   -0.0492 H   0  0  0  0  0  0  0  0  0  0  0  0
    2.6918    2.4365   -0.6179 H   0  0  0  0  0  0  0  0  0  0  0  0
    5.3691    0.9644   -0.9620 H   0  0  0  0  0  0  0  0  0  0  0  0
    2.1895   -0.9263   -2.5041 H   0  0  0  0  0  0  0  0  0  0  0  0
    2.4196    0.7390   -3.1146 H   0  0  0  0  0  0  0  0  0  0  0  0
    1.6997    0.4679   -1.4986 H   0  0  0  0  0  0  0  0  0  0  0  0
    5.4537    3.1832   -6.5066 H   0  0  0  0  0  0  0  0  0  0  0  0
    6.3550    1.7000   -6.1139 H   0  0  0  0  0  0  0  0  0  0  0  0
    8.4185    2.0905   -4.4058 H   0  0  0  0  0  0  0  0  0  0  0  0
   10.5081    3.4089   -4.2090 H   0  0  0  0  0  0  0  0  0  0  0  0
   11.5610    5.3651   -4.8055 H   0  0  0  0  0  0  0  0  0  0  0  0
    8.7914    6.5162   -6.6498 H   0  0  0  0  0  0  0  0  0  0  0  0
    6.6911    5.1904   -6.8531 H   0  0  0  0  0  0  0  0  0  0  0  0
  1  2  1  0
  1 20  1  0
  1 21  1  0
  1 22  1  0
  2  3  1  0
  2 23  1  0
  2 24  1  0
  3  4  1  0
  3 25  1  0
  3 26  1  0
  4  5  1  0
  4  7  1  0
  4 27  1  1
  5  6  1  0
  6 28  1  0
  6 29  1  0
  6 30  1  0
  7  8  2  0
  7 19  1  0
  8  9  1  0
  9 10  1  0
 10 11  1  0
 10 19  2  0
 11 12  1  0
 11 31  1  0
 11 32  1  0
 12 13  2  0
 12 18  1  0
 13 14  1  0
 13 33  1  0
 14 15  2  0
 14 34  1  0
 15 16  1  0
 15 17  1  0
 16 35  1  0
 17 18  2  0
 17 36  1  0
 18 37  1  0
M  END

