
     RDKit          3D

 60 63  0  0  0  0  0  0  0  0999 V2000
    0.5240    0.9446   -0.8924 C   0  0  0  0  0  0  0  0  0  0  0  0
    1.9657    0.6669   -0.4263 C   0  0  1  0  0  0  0  0  0  0  0  0
    2.6238   -0.4201   -1.2835 C   0  0  0  0  0  0  0  0  0  0  0  0
    3.5693   -0.1839   -2.3725 C   0  0  0  0  0  0  0  0  0  0  0  0
    4.1194    0.9447   -2.6433 N   0  0  0  0  0  0  0  0  0  0  0  0
    4.9425    0.9649   -3.7079 N   0  0  0  0  0  0  0  0  0  0  0  0
    5.7834    2.0168   -3.9884 C   0  0  0  0  0  0  0  0  0  0  0  0
    6.0925    3.2924   -2.9755 S   0  0  0  0  0  0  0  0  0  0  0  0
    6.4303    1.9085   -5.2032 N   0  0  0  0  0  0  0  0  0  0  0  0
    6.1849    1.1007   -6.3231 C   0  0  0  0  0  0  0  0  0  0  0  0
    4.9239    0.6123   -6.7133 C   0  0  0  0  0  0  0  0  0  0  0  0
    4.7904   -0.1715   -7.8636 C   0  0  0  0  0  0  0  0  0  0  0  0
    5.8988   -0.4646   -8.6612 C   0  0  0  0  0  0  0  0  0  0  0  0
    7.1560    0.0381   -8.3079 C   0  0  0  0  0  0  0  0  0  0  0  0
    7.2808    0.8007   -7.1566 C   0  0  0  0  0  0  0  0  0  0  0  0
    8.4813    1.3002   -6.8110 F   0  0  0  0  0  0  0  0  0  0  0  0
    2.3517   -1.6817   -1.1475 N   0  0  0  0  0  0  0  0  0  0  0  0
    1.5314   -2.1221   -0.1980 N   0  0  0  0  0  0  0  0  0  0  0  0
    1.2180   -3.4822   -0.0728 C   0  0  0  0  0  0  0  0  0  0  0  0
    1.6163   -4.5977   -1.2257 S   0  0  0  0  0  0  0  0  0  0  0  0
    0.5484   -3.6912    1.1071 N   0  0  0  0  0  0  0  0  0  0  0  0
   -0.0808   -4.8192    1.6552 C   0  0  0  0  0  0  0  0  0  0  0  0
   -0.1913   -6.0939    1.0762 C   0  0  0  0  0  0  0  0  0  0  0  0
   -0.8644   -7.1152    1.7548 C   0  0  0  0  0  0  0  0  0  0  0  0
   -1.4343   -6.8997    3.0109 C   0  0  0  0  0  0  0  0  0  0  0  0
   -1.3327   -5.6364    3.6047 C   0  0  0  0  0  0  0  0  0  0  0  0
   -0.6666   -4.6317    2.9242 C   0  0  0  0  0  0  0  0  0  0  0  0
   -0.5607   -3.4010    3.4820 F   0  0  0  0  0  0  0  0  0  0  0  0
    2.7466    1.8818   -0.2457 N   0  0  0  0  0  0  0  0  0  0  0  0
    2.7060    3.0661   -1.0179 C   0  0  0  0  0  0  0  0  0  0  0  0
    2.0125    3.2665   -1.9844 O   0  0  0  0  0  0  0  0  0  0  0  0
    3.6559    4.0055   -0.3464 C   0  0  0  0  0  0  0  0  0  0  0  0
    3.9883    5.3150   -0.6693 C   0  0  0  0  0  0  0  0  0  0  0  0
    4.9159    5.9677    0.1552 C   0  0  0  0  0  0  0  0  0  0  0  0
    5.4833    5.3199    1.2633 C   0  0  0  0  0  0  0  0  0  0  0  0
    5.1364    3.9996    1.5838 C   0  0  0  0  0  0  0  0  0  0  0  0
    4.2152    3.3631    0.7596 C   0  0  0  0  0  0  0  0  0  0  0  0
    3.6342    1.9943    0.8413 C   0  0  0  0  0  0  0  0  0  0  0  0
    3.8223    1.1260    1.6643 O   0  0  0  0  0  0  0  0  0  0  0  0
   -0.0564    0.0098   -0.8975 H   0  0  0  0  0  0  0  0  0  0  0  0
    0.5104    1.3758   -1.8997 H   0  0  0  0  0  0  0  0  0  0  0  0
    0.0340    1.6535   -0.2077 H   0  0  0  0  0  0  0  0  0  0  0  0
    1.9338    0.2520    0.5974 H   0  0  0  0  0  0  0  0  0  0  0  0
    3.7996   -1.1012   -2.9445 H   0  0  0  0  0  0  0  0  0  0  0  0
    5.0403    0.1095   -4.2619 H   0  0  0  0  0  0  0  0  0  0  0  0
    7.2257    2.5357   -5.2720 H   0  0  0  0  0  0  0  0  0  0  0  0
    4.0397    0.8723   -6.1306 H   0  0  0  0  0  0  0  0  0  0  0  0
    3.8011   -0.5405   -8.1432 H   0  0  0  0  0  0  0  0  0  0  0  0
    5.7896   -1.0731   -9.5612 H   0  0  0  0  0  0  0  0  0  0  0  0
    8.0474   -0.1567   -8.9074 H   0  0  0  0  0  0  0  0  0  0  0  0
    1.1646   -1.4780    0.5043 H   0  0  0  0  0  0  0  0  0  0  0  0
    0.5026   -2.8983    1.7418 H   0  0  0  0  0  0  0  0  0  0  0  0
    0.2607   -6.2658    0.1022 H   0  0  0  0  0  0  0  0  0  0  0  0
   -0.9371   -8.0986    1.2846 H   0  0  0  0  0  0  0  0  0  0  0  0
   -1.9549   -7.7056    3.5325 H   0  0  0  0  0  0  0  0  0  0  0  0
   -1.7602   -5.4159    4.5846 H   0  0  0  0  0  0  0  0  0  0  0  0
    3.5480    5.8045   -1.5400 H   0  0  0  0  0  0  0  0  0  0  0  0
    5.2075    6.9967   -0.0698 H   0  0  0  0  0  0  0  0  0  0  0  0
    6.2065    5.8546    1.8841 H   0  0  0  0  0  0  0  0  0  0  0  0
    5.5687    3.4848    2.4444 H   0  0  0  0  0  0  0  0  0  0  0  0
  1  2  1  0
  1 40  1  0
  1 41  1  0
  1 42  1  0
  2  3  1  0
  2 29  1  0
  2 43  1  1
  3  4  1  0
  3 17  2  0
  4  5  2  0
  4 44  1  0
  5  6  1  0
  6  7  1  0
  6 45  1  0
  7  8  2  0
  7  9  1  0
  9 10  1  0
  9 46  1  0
 10 11  2  0
 10 15  1  0
 11 12  1  0
 11 47  1  0
 12 13  2  0
 12 48  1  0
 13 14  1  0
 13 49  1  0
 14 15  2  0
 14 50  1  0
 15 16  1  0
 17 18  1  0
 18 19  1  0
 18 51  1  0
 19 20  2  0
 19 21  1  0
 21 22  1  0
 21 52  1  0
 22 23  2  0
 22 27  1  0
 23 24  1  0
 23 53  1  0
 24 25  2  0
 24 54  1  0
 25 26  1  0
 25 55  1  0
 26 27  2  0
 26 56  1  0
 27 28  1  0
 29 30  1  0
 29 38  1  0
 30 31  2  0
 30 32  1  0
 32 33  1  0
 32 37  2  0
 33 34  2  0
 33 57  1  0
 34 35  1  0
 34 58  1  0
 35 36  2  0
 35 59  1  0
 36 37  1  0
 36 60  1  0
 37 38  1  0
 38 39  2  0
M  END

