
     RDKit          3D

 39 40  0  0  0  0  0  0  0  0999 V2000
    2.9669   -2.1165    0.1717 C   0  0  0  0  0  0  0  0  0  0  0  0
    2.6359   -0.6293    0.0289 C   0  0  0  0  0  0  0  0  0  0  0  0
    3.2391    0.2634    1.1239 C   0  0  0  0  0  0  0  0  0  0  0  0
    4.7347    0.4111    1.0664 C   0  0  0  0  0  0  0  0  0  0  0  0
    5.6443    0.1959    0.0428 C   0  0  0  0  0  0  0  0  0  0  0  0
    6.9136    0.5625    0.5735 C   0  0  0  0  0  0  0  0  0  0  0  0
    8.2320    0.5363   -0.0867 C   0  0  0  0  0  0  0  0  0  0  0  0
    8.3862    0.0378   -1.3904 C   0  0  0  0  0  0  0  0  0  0  0  0
    9.6418    0.0202   -2.0008 C   0  0  0  0  0  0  0  0  0  0  0  0
   10.7409    0.5028   -1.3004 C   0  0  0  0  0  0  0  0  0  0  0  0
   11.9511    0.4850   -1.8909 F   0  0  0  0  0  0  0  0  0  0  0  0
   10.6419    1.0107    0.0024 C   0  0  0  0  0  0  0  0  0  0  0  0
   11.8686    1.5219    0.7114 C   0  0  0  0  0  0  0  0  0  0  0  0
    9.3719    1.0159    0.5868 C   0  0  0  0  0  0  0  0  0  0  0  0
    6.7847    0.9757    1.8359 N   0  0  0  0  0  0  0  0  0  0  0  0
    5.4722    0.8859    2.1201 N   0  0  0  0  0  0  0  0  0  0  0  0
    5.0105    1.2177    3.4496 C   0  0  0  0  0  0  0  0  0  0  0  0
    4.8970    0.0336    4.4290 C   0  0  0  0  0  0  0  0  0  0  0  0
    5.8635   -1.1139    4.2502 C   0  0  0  0  0  0  0  0  0  0  0  0
    4.0740    0.0791    5.3134 O   0  0  0  0  0  0  0  0  0  0  0  0
    2.5004   -2.7052   -0.6340 H   0  0  0  0  0  0  0  0  0  0  0  0
    2.5949   -2.5151    1.1305 H   0  0  0  0  0  0  0  0  0  0  0  0
    4.0521   -2.2998    0.1339 H   0  0  0  0  0  0  0  0  0  0  0  0
    1.5411   -0.4976    0.0514 H   0  0  0  0  0  0  0  0  0  0  0  0
    2.9585   -0.2622   -0.9607 H   0  0  0  0  0  0  0  0  0  0  0  0
    2.9407   -0.1306    2.1116 H   0  0  0  0  0  0  0  0  0  0  0  0
    2.7825    1.2688    1.0589 H   0  0  0  0  0  0  0  0  0  0  0  0
    5.4182   -0.1652   -0.9564 H   0  0  0  0  0  0  0  0  0  0  0  0
    7.5244   -0.3452   -1.9403 H   0  0  0  0  0  0  0  0  0  0  0  0
    9.7820   -0.3639   -3.0131 H   0  0  0  0  0  0  0  0  0  0  0  0
   12.6340    0.7342    0.8060 H   0  0  0  0  0  0  0  0  0  0  0  0
   11.6191    1.8828    1.7192 H   0  0  0  0  0  0  0  0  0  0  0  0
   12.3371    2.3500    0.1543 H   0  0  0  0  0  0  0  0  0  0  0  0
    9.2498    1.4052    1.5995 H   0  0  0  0  0  0  0  0  0  0  0  0
    4.0359    1.7238    3.4160 H   0  0  0  0  0  0  0  0  0  0  0  0
    5.7426    1.9235    3.8736 H   0  0  0  0  0  0  0  0  0  0  0  0
    5.6173   -1.6705    3.3301 H   0  0  0  0  0  0  0  0  0  0  0  0
    5.7951   -1.7879    5.1136 H   0  0  0  0  0  0  0  0  0  0  0  0
    6.8916   -0.7425    4.1172 H   0  0  0  0  0  0  0  0  0  0  0  0
  1  2  1  0
  1 21  1  0
  1 22  1  0
  1 23  1  0
  2  3  1  0
  2 24  1  0
  2 25  1  0
  3  4  1  0
  3 26  1  0
  3 27  1  0
  4  5  2  0
  4 16  1  0
  5  6  1  0
  5 28  1  0
  6  7  1  0
  6 15  2  0
  7  8  2  0
  7 14  1  0
  8  9  1  0
  8 29  1  0
  9 10  2  0
  9 30  1  0
 10 11  1  0
 10 12  1  0
 12 13  1  0
 12 14  2  0
 13 31  1  0
 13 32  1  0
 13 33  1  0
 14 34  1  0
 15 16  1  0
 16 17  1  0
 17 18  1  0
 17 35  1  0
 17 36  1  0
 18 19  1  0
 18 20  2  0
 19 37  1  0
 19 38  1  0
 19 39  1  0
M  END

