
     RDKit          3D

 28 29  0  0  0  0  0  0  0  0999 V2000
    1.6837    0.6416   -0.6736 C   0  0  0  0  0  0  0  0  0  0  0  0
    2.3280   -0.0864    0.3633 O   0  0  0  0  0  0  0  0  0  0  0  0
    2.9235    0.6007    1.3439 C   0  0  0  0  0  0  0  0  0  0  0  0
    2.8899    1.9342    1.3075 N   0  0  0  0  0  0  0  0  0  0  0  0
    3.5025    2.5535    2.3201 C   0  0  0  0  0  0  0  0  0  0  0  0
    4.1391    1.8708    3.3501 C   0  0  0  0  0  0  0  0  0  0  0  0
    4.1179    0.4611    3.2897 C   0  0  0  0  0  0  0  0  0  0  0  0
    4.7564   -0.4048    4.3202 C   0  0  0  0  0  0  0  0  0  0  0  0
    5.4901    0.1251    5.3969 C   0  0  0  0  0  0  0  0  0  0  0  0
    6.0783   -0.7242    6.3350 C   0  0  0  0  0  0  0  0  0  0  0  0
    5.9403   -2.1096    6.2198 C   0  0  0  0  0  0  0  0  0  0  0  0
    5.2114   -2.6592    5.1545 C   0  0  0  0  0  0  0  0  0  0  0  0
    5.0292   -4.1625    5.0441 C   0  0  0  0  0  0  0  0  0  0  0  0
    6.0772   -4.9101    5.6213 O   0  0  0  0  0  0  0  0  0  0  0  0
    4.6333   -1.8014    4.2139 C   0  0  0  0  0  0  0  0  0  0  0  0
    3.5017   -0.1558    2.2756 N   0  0  0  0  0  0  0  0  0  0  0  0
    1.2693   -0.1125   -1.3555 H   0  0  0  0  0  0  0  0  0  0  0  0
    2.3948    1.2882   -1.2109 H   0  0  0  0  0  0  0  0  0  0  0  0
    0.8770    1.2768   -0.2758 H   0  0  0  0  0  0  0  0  0  0  0  0
    3.4824    3.6497    2.3071 H   0  0  0  0  0  0  0  0  0  0  0  0
    4.6217    2.4169    4.1587 H   0  0  0  0  0  0  0  0  0  0  0  0
    5.6169    1.2031    5.5081 H   0  0  0  0  0  0  0  0  0  0  0  0
    6.6495   -0.3006    7.1651 H   0  0  0  0  0  0  0  0  0  0  0  0
    6.3999   -2.7802    6.9493 H   0  0  0  0  0  0  0  0  0  0  0  0
    4.8585   -4.4337    3.9833 H   0  0  0  0  0  0  0  0  0  0  0  0
    4.1165   -4.4606    5.5894 H   0  0  0  0  0  0  0  0  0  0  0  0
    6.8943   -4.6858    5.1552 H   0  0  0  0  0  0  0  0  0  0  0  0
    4.0715   -2.1992    3.3662 H   0  0  0  0  0  0  0  0  0  0  0  0
  1  2  1  0
  1 17  1  0
  1 18  1  0
  1 19  1  0
  2  3  1  0
  3  4  2  0
  3 16  1  0
  4  5  1  0
  5  6  2  0
  5 20  1  0
  6  7  1  0
  6 21  1  0
  7  8  1  0
  7 16  2  0
  8  9  2  0
  8 15  1  0
  9 10  1  0
  9 22  1  0
 10 11  2  0
 10 23  1  0
 11 12  1  0
 11 24  1  0
 12 13  1  0
 12 15  2  0
 13 14  1  0
 13 25  1  0
 13 26  1  0
 14 27  1  0
 15 28  1  0
M  END

