
     RDKit          3D

 43 46  0  0  0  0  0  0  0  0999 V2000
    1.5255   -0.0047    0.6738 C   0  0  0  0  0  0  0  0  0  0  0  0
    3.0183    0.0159    0.4907 C   0  0  0  0  0  0  0  0  0  0  0  0
    3.7410    1.1691    0.6456 C   0  0  0  0  0  0  0  0  0  0  0  0
    5.1086    1.0915    0.4679 N   0  0  0  0  0  0  0  0  0  0  0  0
    5.9440    2.1140    0.6133 N   0  0  0  0  0  0  0  0  0  0  0  0
    7.1672    1.6038    0.3819 C   0  0  0  0  0  0  0  0  0  0  0  0
    8.3990    2.4430    0.4491 C   0  0  0  0  0  0  0  0  0  0  0  0
    9.5088    1.9718    0.2432 O   0  0  0  0  0  0  0  0  0  0  0  0
    8.1652    3.7520    0.7563 N   0  0  0  0  0  0  0  0  0  0  0  0
    9.2254    4.7341    0.8620 C   0  0  0  0  0  0  0  0  0  0  0  0
    8.9982    5.9616    0.0227 C   0  0  0  0  0  0  0  0  0  0  0  0
    8.9592    7.2726    0.4359 C   0  0  0  0  0  0  0  0  0  0  0  0
    8.7472    8.1983   -0.6321 C   0  0  0  0  0  0  0  0  0  0  0  0
    8.6204    7.5757   -1.8470 C   0  0  0  0  0  0  0  0  0  0  0  0
    8.7645    5.8566   -1.7034 S   0  0  0  0  0  0  0  0  0  0  0  0
    7.1217    0.2350    0.0841 C   0  0  0  0  0  0  0  0  0  0  0  0
    5.7596   -0.0937    0.1381 C   0  0  0  0  0  0  0  0  0  0  0  0
    4.9089   -1.2568   -0.0241 C   0  0  0  0  0  0  0  0  0  0  0  0
    5.4188   -2.4746   -0.3560 N   0  0  0  0  0  0  0  0  0  0  0  0
    6.7991   -2.7717   -0.7438 C   0  0  0  0  0  0  0  0  0  0  0  0
    6.7079   -4.1827   -1.3432 C   0  0  0  0  0  0  0  0  0  0  0  0
    5.5354   -4.8147   -0.5820 C   0  0  0  0  0  0  0  0  0  0  0  0
    4.5479   -3.6528   -0.4353 C   0  0  0  0  0  0  0  0  0  0  0  0
    3.6003   -1.1720    0.1588 N   0  0  0  0  0  0  0  0  0  0  0  0
    1.1267    0.9867    0.9319 H   0  0  0  0  0  0  0  0  0  0  0  0
    1.2512   -0.7155    1.4704 H   0  0  0  0  0  0  0  0  0  0  0  0
    1.0351   -0.3558   -0.2486 H   0  0  0  0  0  0  0  0  0  0  0  0
    3.3457    2.1490    0.9040 H   0  0  0  0  0  0  0  0  0  0  0  0
    7.1998    4.0322    0.8997 H   0  0  0  0  0  0  0  0  0  0  0  0
   10.1495    4.2097    0.5717 H   0  0  0  0  0  0  0  0  0  0  0  0
    9.3560    5.0640    1.9087 H   0  0  0  0  0  0  0  0  0  0  0  0
    9.0817    7.5648    1.4810 H   0  0  0  0  0  0  0  0  0  0  0  0
    8.6848    9.2798   -0.5001 H   0  0  0  0  0  0  0  0  0  0  0  0
    8.4433    8.0290   -2.8215 H   0  0  0  0  0  0  0  0  0  0  0  0
    7.9794   -0.3911   -0.1283 H   0  0  0  0  0  0  0  0  0  0  0  0
    7.4727   -2.7530    0.1332 H   0  0  0  0  0  0  0  0  0  0  0  0
    7.1785   -2.0372   -1.4701 H   0  0  0  0  0  0  0  0  0  0  0  0
    7.6512   -4.7397   -1.2446 H   0  0  0  0  0  0  0  0  0  0  0  0
    6.4702   -4.1175   -2.4180 H   0  0  0  0  0  0  0  0  0  0  0  0
    5.8679   -5.1568    0.4126 H   0  0  0  0  0  0  0  0  0  0  0  0
    5.0947   -5.6789   -1.1004 H   0  0  0  0  0  0  0  0  0  0  0  0
    3.9086   -3.7184    0.4572 H   0  0  0  0  0  0  0  0  0  0  0  0
    3.8666   -3.5712   -1.3024 H   0  0  0  0  0  0  0  0  0  0  0  0
  1  2  1  0
  1 25  1  0
  1 26  1  0
  1 27  1  0
  2  3  2  0
  2 24  1  0
  3  4  1  0
  3 28  1  0
  4  5  1  0
  4 17  1  0
  5  6  2  0
  6  7  1  0
  6 16  1  0
  7  8  2  0
  7  9  1  0
  9 10  1  0
  9 29  1  0
 10 11  1  0
 10 30  1  0
 10 31  1  0
 11 12  2  0
 11 15  1  0
 12 13  1  0
 12 32  1  0
 13 14  2  0
 13 33  1  0
 14 15  1  0
 14 34  1  0
 16 17  2  0
 16 35  1  0
 17 18  1  0
 18 19  1  0
 18 24  2  0
 19 20  1  0
 19 23  1  0
 20 21  1  0
 20 36  1  0
 20 37  1  0
 21 22  1  0
 21 38  1  0
 21 39  1  0
 22 23  1  0
 22 40  1  0
 22 41  1  0
 23 42  1  0
 23 43  1  0
M  END

