
     RDKit          3D

 53 56  0  0  0  0  0  0  0  0999 V2000
    2.7900    1.1662   -2.7949 C   0  0  0  0  0  0  0  0  0  0  0  0
    3.5151    0.5696   -1.6095 C   0  0  0  0  0  0  0  0  0  0  0  0
    4.1334    1.4179   -0.6947 C   0  0  0  0  0  0  0  0  0  0  0  0
    4.8258    0.9425    0.4309 C   0  0  0  0  0  0  0  0  0  0  0  0
    5.3453    2.0283    1.3306 C   0  0  0  0  0  0  0  0  0  0  0  0
    5.5341    3.1545    0.9144 O   0  0  0  0  0  0  0  0  0  0  0  0
    5.5343    1.7825    2.8398 C   0  0  0  0  0  0  0  0  0  0  0  0
    5.4791    3.0258    3.5216 O   0  0  0  0  0  0  0  0  0  0  0  0
    6.6244    3.7283    3.5912 C   0  0  0  0  0  0  0  0  0  0  0  0
    7.7151    3.2990    3.3257 O   0  0  0  0  0  0  0  0  0  0  0  0
    6.3230    5.1489    4.0446 C   0  0  0  0  0  0  0  0  0  0  0  0
    7.5286    5.9038    4.3335 N   0  0  0  0  0  0  0  0  0  0  0  0
    8.2990    6.3734    3.2956 C   0  0  0  0  0  0  0  0  0  0  0  0
    9.4132    7.0232    3.4152 N   0  0  0  0  0  0  0  0  0  0  0  0
    9.8256    7.2137    4.7038 C   0  0  0  0  0  0  0  0  0  0  0  0
    9.1278    6.7605    5.8112 C   0  0  0  0  0  0  0  0  0  0  0  0
    9.7497    7.0728    6.9810 O   0  0  0  0  0  0  0  0  0  0  0  0
   10.8839    7.7500    6.6315 C   0  0  0  0  0  0  0  0  0  0  0  0
   11.8297    8.2643    7.5167 C   0  0  0  0  0  0  0  0  0  0  0  0
   12.9203    8.9246    6.9493 C   0  0  0  0  0  0  0  0  0  0  0  0
   13.0571    9.0635    5.5511 C   0  0  0  0  0  0  0  0  0  0  0  0
   12.1035    8.5441    4.6791 C   0  0  0  0  0  0  0  0  0  0  0  0
   10.9981    7.8766    5.2294 C   0  0  0  0  0  0  0  0  0  0  0  0
    7.8903    6.0311    5.7152 C   0  0  0  0  0  0  0  0  0  0  0  0
    7.1980    5.5709    6.6038 O   0  0  0  0  0  0  0  0  0  0  0  0
    4.9391   -0.4532    0.6362 C   0  0  0  0  0  0  0  0  0  0  0  0
    5.7934   -1.0431    1.7399 C   0  0  0  0  0  0  0  0  0  0  0  0
    4.2780   -1.3269   -0.2612 C   0  0  0  0  0  0  0  0  0  0  0  0
    4.3309   -2.8227   -0.0213 C   0  0  0  0  0  0  0  0  0  0  0  0
    3.5805   -0.8256   -1.3858 C   0  0  0  0  0  0  0  0  0  0  0  0
    2.9182   -1.7832   -2.3516 C   0  0  0  0  0  0  0  0  0  0  0  0
    2.8465    2.2637   -2.7702 H   0  0  0  0  0  0  0  0  0  0  0  0
    1.7229    0.8888   -2.8108 H   0  0  0  0  0  0  0  0  0  0  0  0
    3.2229    0.8348   -3.7535 H   0  0  0  0  0  0  0  0  0  0  0  0
    4.0866    2.4991   -0.8361 H   0  0  0  0  0  0  0  0  0  0  0  0
    6.5042    1.3001    3.0267 H   0  0  0  0  0  0  0  0  0  0  0  0
    4.7303    1.1555    3.2478 H   0  0  0  0  0  0  0  0  0  0  0  0
    5.7112    5.1166    4.9556 H   0  0  0  0  0  0  0  0  0  0  0  0
    5.7377    5.6342    3.2483 H   0  0  0  0  0  0  0  0  0  0  0  0
    7.8998    6.1657    2.2967 H   0  0  0  0  0  0  0  0  0  0  0  0
   11.7136    8.1502    8.5956 H   0  0  0  0  0  0  0  0  0  0  0  0
   13.6878    9.3442    7.6046 H   0  0  0  0  0  0  0  0  0  0  0  0
   13.9281    9.5879    5.1512 H   0  0  0  0  0  0  0  0  0  0  0  0
   12.2025    8.6467    3.5966 H   0  0  0  0  0  0  0  0  0  0  0  0
    6.6363   -0.3924    1.9996 H   0  0  0  0  0  0  0  0  0  0  0  0
    6.2292   -2.0034    1.4355 H   0  0  0  0  0  0  0  0  0  0  0  0
    5.2197   -1.2332    2.6643 H   0  0  0  0  0  0  0  0  0  0  0  0
    4.3015   -3.0688    1.0493 H   0  0  0  0  0  0  0  0  0  0  0  0
    5.2546   -3.2718   -0.4301 H   0  0  0  0  0  0  0  0  0  0  0  0
    3.4884   -3.3442   -0.4917 H   0  0  0  0  0  0  0  0  0  0  0  0
    3.6175   -2.5625   -2.6943 H   0  0  0  0  0  0  0  0  0  0  0  0
    2.5344   -1.2736   -3.2429 H   0  0  0  0  0  0  0  0  0  0  0  0
    2.0660   -2.3061   -1.8836 H   0  0  0  0  0  0  0  0  0  0  0  0
  1  2  1  0
  1 32  1  0
  1 33  1  0
  1 34  1  0
  2  3  2  0
  2 30  1  0
  3  4  1  0
  3 35  1  0
  4  5  1  0
  4 26  2  0
  5  6  2  0
  5  7  1  0
  7  8  1  0
  7 36  1  0
  7 37  1  0
  8  9  1  0
  9 10  2  0
  9 11  1  0
 11 12  1  0
 11 38  1  0
 11 39  1  0
 12 13  1  0
 12 24  1  0
 13 14  2  0
 13 40  1  0
 14 15  1  0
 15 16  2  0
 15 23  1  0
 16 17  1  0
 16 24  1  0
 17 18  1  0
 18 19  1  0
 18 23  2  0
 19 20  2  0
 19 41  1  0
 20 21  1  0
 20 42  1  0
 21 22  2  0
 21 43  1  0
 22 23  1  0
 22 44  1  0
 24 25  2  0
 26 27  1  0
 26 28  1  0
 27 45  1  0
 27 46  1  0
 27 47  1  0
 28 29  1  0
 28 30  2  0
 29 48  1  0
 29 49  1  0
 29 50  1  0
 30 31  1  0
 31 51  1  0
 31 52  1  0
 31 53  1  0
M  END

