
     RDKit          3D

 37 38  0  0  0  0  0  0  0  0999 V2000
    3.7301   -0.7179   -2.4235 N   0  0  0  0  0  0  0  0  0  0  0  0
    4.5032   -1.8199   -2.2290 C   0  0  0  0  0  0  0  0  0  0  0  0
    5.4589   -2.1076   -2.9247 O   0  0  0  0  0  0  0  0  0  0  0  0
    4.1351   -2.6804   -1.0140 C   0  0  1  0  0  0  0  0  0  0  0  0
    4.9555   -2.2990    0.2266 C   0  0  0  0  0  0  0  0  0  0  0  0
    4.1819   -2.9816    1.3636 C   0  0  0  0  0  0  0  0  0  0  0  0
    2.7133   -2.9868    0.8833 C   0  0  0  0  0  0  0  0  0  0  0  0
    2.7496   -2.5558   -0.5369 N   0  0  0  0  0  0  0  0  0  0  0  0
    1.7388   -3.1655   -1.3831 C   0  0  0  0  0  0  0  0  0  0  0  0
    0.3232   -2.5961   -1.2261 C   0  0  0  0  0  0  0  0  0  0  0  0
   -0.6360   -3.1930   -1.6982 O   0  0  0  0  0  0  0  0  0  0  0  0
    0.2713   -1.3998   -0.5781 N   0  0  0  0  0  0  0  0  0  0  0  0
   -0.8229   -0.5207   -0.3459 C   0  0  0  0  0  0  0  0  0  0  0  0
   -0.5549    0.8525   -0.4464 C   0  0  0  0  0  0  0  0  0  0  0  0
   -1.5308    1.8008   -0.1498 C   0  0  0  0  0  0  0  0  0  0  0  0
   -1.1545    3.5072   -0.2777 Cl  0  0  0  0  0  0  0  0  0  0  0  0
   -2.8069    1.3852    0.2378 C   0  0  0  0  0  0  0  0  0  0  0  0
   -3.0812    0.0243    0.3210 C   0  0  0  0  0  0  0  0  0  0  0  0
   -2.1137   -0.9689    0.0483 C   0  0  0  0  0  0  0  0  0  0  0  0
   -2.3970   -2.3065    0.2347 N   0  0  0  0  0  0  0  0  0  0  0  0
    3.9573   -0.0874   -3.1830 H   0  0  0  0  0  0  0  0  0  0  0  0
    2.9530   -0.5200   -1.8085 H   0  0  0  0  0  0  0  0  0  0  0  0
    4.3819   -3.7204   -1.3106 H   0  0  0  0  0  0  0  0  0  0  0  0
    4.9451   -1.2029    0.3444 H   0  0  0  0  0  0  0  0  0  0  0  0
    6.0024   -2.6209    0.1433 H   0  0  0  0  0  0  0  0  0  0  0  0
    4.3078   -2.4724    2.3302 H   0  0  0  0  0  0  0  0  0  0  0  0
    4.5398   -4.0147    1.4919 H   0  0  0  0  0  0  0  0  0  0  0  0
    2.0721   -2.3144    1.4769 H   0  0  0  0  0  0  0  0  0  0  0  0
    2.2718   -3.9979    0.9717 H   0  0  0  0  0  0  0  0  0  0  0  0
    1.6509   -4.2617   -1.2396 H   0  0  0  0  0  0  0  0  0  0  0  0
    2.0048   -3.0105   -2.4418 H   0  0  0  0  0  0  0  0  0  0  0  0
    1.1912   -1.0613   -0.3010 H   0  0  0  0  0  0  0  0  0  0  0  0
    0.4378    1.1841   -0.7576 H   0  0  0  0  0  0  0  0  0  0  0  0
   -3.5781    2.1225    0.4663 H   0  0  0  0  0  0  0  0  0  0  0  0
   -4.0810   -0.2997    0.6236 H   0  0  0  0  0  0  0  0  0  0  0  0
   -3.3780   -2.5091    0.3925 H   0  0  0  0  0  0  0  0  0  0  0  0
   -1.9577   -2.9293   -0.4502 H   0  0  0  0  0  0  0  0  0  0  0  0
  1  2  1  0
  1 21  1  0
  1 22  1  0
  2  3  2  0
  2  4  1  0
  4  5  1  0
  4  8  1  0
  4 23  1  6
  5  6  1  0
  5 24  1  0
  5 25  1  0
  6  7  1  0
  6 26  1  0
  6 27  1  0
  7  8  1  0
  7 28  1  0
  7 29  1  0
  8  9  1  0
  9 10  1  0
  9 30  1  0
  9 31  1  0
 10 11  2  0
 10 12  1  0
 12 13  1  0
 12 32  1  0
 13 14  2  0
 13 19  1  0
 14 15  1  0
 14 33  1  0
 15 16  1  0
 15 17  2  0
 17 18  1  0
 17 34  1  0
 18 19  2  0
 18 35  1  0
 19 20  1  0
 20 36  1  0
 20 37  1  0
M  END

