
     RDKit          3D

 53 56  0  0  0  0  0  0  0  0999 V2000
    1.6762   -1.1056   -0.5730 C   0  0  0  0  0  0  0  0  0  0  0  0
    2.0324   -0.4007   -1.8885 C   0  0  1  0  0  0  0  0  0  0  0  0
    0.9237    0.5747   -2.3072 C   0  0  0  0  0  0  0  0  0  0  0  0
    3.3816    0.3392   -1.8215 C   0  0  0  0  0  0  0  0  0  0  0  0
    4.6443   -0.5094   -1.6242 C   0  0  0  0  0  0  0  0  0  0  0  0
    4.9488   -1.4134   -2.7540 N   0  0  0  0  0  0  0  0  0  0  0  0
    5.5563   -0.8180   -3.8802 C   0  0  0  0  0  0  0  0  0  0  0  0
    5.8151    0.3804   -3.9128 O   0  0  0  0  0  0  0  0  0  0  0  0
    5.8131   -1.7738   -4.9211 C   0  0  0  0  0  0  0  0  0  0  0  0
    5.4976   -3.1185   -4.8118 C   0  0  0  0  0  0  0  0  0  0  0  0
    5.8218   -3.7965   -5.9380 N   0  0  0  0  0  0  0  0  0  0  0  0
    6.3351   -2.8723   -6.7372 C   0  0  0  0  0  0  0  0  0  0  0  0
    6.3563   -1.6302   -6.1893 N   0  0  0  0  0  0  0  0  0  0  0  0
    6.8968   -0.4034   -6.7905 C   0  0  0  0  0  0  0  0  0  0  0  0
    8.3758   -0.1920   -6.5268 C   0  0  0  0  0  0  0  0  0  0  0  0
    8.8078    0.4352   -5.3483 C   0  0  0  0  0  0  0  0  0  0  0  0
   10.1717    0.6129   -5.1005 C   0  0  0  0  0  0  0  0  0  0  0  0
   11.1084    0.1674   -6.0278 C   0  0  0  0  0  0  0  0  0  0  0  0
   12.4145    0.3318   -5.8108 F   0  0  0  0  0  0  0  0  0  0  0  0
   10.6850   -0.4551   -7.2067 C   0  0  0  0  0  0  0  0  0  0  0  0
   11.5958   -0.8696   -8.0908 F   0  0  0  0  0  0  0  0  0  0  0  0
    9.3290   -0.6348   -7.4566 C   0  0  0  0  0  0  0  0  0  0  0  0
    4.9255   -3.6358   -3.6610 N   0  0  0  0  0  0  0  0  0  0  0  0
    4.5984   -5.0330   -3.5584 C   0  0  0  0  0  0  0  0  0  0  0  0
    5.1068   -5.8012   -2.5042 C   0  0  0  0  0  0  0  0  0  0  0  0
    4.7839   -7.1569   -2.4239 C   0  0  0  0  0  0  0  0  0  0  0  0
    3.9692   -7.7583   -3.3869 C   0  0  0  0  0  0  0  0  0  0  0  0
    3.4819   -6.9714   -4.4269 C   0  0  0  0  0  0  0  0  0  0  0  0
    2.6978   -7.5307   -5.3600 F   0  0  0  0  0  0  0  0  0  0  0  0
    3.7758   -5.6147   -4.5285 C   0  0  0  0  0  0  0  0  0  0  0  0
    4.6397   -2.7797   -2.5820 C   0  0  0  0  0  0  0  0  0  0  0  0
    4.1500   -3.1976   -1.5530 O   0  0  0  0  0  0  0  0  0  0  0  0
    0.6916   -1.5956   -0.6464 H   0  0  0  0  0  0  0  0  0  0  0  0
    1.6232   -0.3810    0.2588 H   0  0  0  0  0  0  0  0  0  0  0  0
    2.4099   -1.8831   -0.3167 H   0  0  0  0  0  0  0  0  0  0  0  0
    2.1063   -1.1739   -2.6766 H   0  0  0  0  0  0  0  0  0  0  0  0
    0.8036    1.3792   -1.5607 H   0  0  0  0  0  0  0  0  0  0  0  0
   -0.0471    0.0614   -2.3991 H   0  0  0  0  0  0  0  0  0  0  0  0
    1.1459    1.0521   -3.2757 H   0  0  0  0  0  0  0  0  0  0  0  0
    3.3494    1.0606   -0.9838 H   0  0  0  0  0  0  0  0  0  0  0  0
    3.5179    0.9443   -2.7325 H   0  0  0  0  0  0  0  0  0  0  0  0
    4.5759   -1.1363   -0.7289 H   0  0  0  0  0  0  0  0  0  0  0  0
    5.5064    0.1635   -1.5231 H   0  0  0  0  0  0  0  0  0  0  0  0
    6.7062   -3.0611   -7.7449 H   0  0  0  0  0  0  0  0  0  0  0  0
    6.3148    0.4318   -6.3814 H   0  0  0  0  0  0  0  0  0  0  0  0
    6.7065   -0.4642   -7.8717 H   0  0  0  0  0  0  0  0  0  0  0  0
    8.0669    0.7815   -4.6243 H   0  0  0  0  0  0  0  0  0  0  0  0
   10.5287    1.1007   -4.1911 H   0  0  0  0  0  0  0  0  0  0  0  0
    9.0398   -1.1183   -8.3930 H   0  0  0  0  0  0  0  0  0  0  0  0
    5.7374   -5.3362   -1.7474 H   0  0  0  0  0  0  0  0  0  0  0  0
    5.1758   -7.7561   -1.5989 H   0  0  0  0  0  0  0  0  0  0  0  0
    3.7088   -8.8174   -3.3459 H   0  0  0  0  0  0  0  0  0  0  0  0
    3.3765   -5.0381   -5.3618 H   0  0  0  0  0  0  0  0  0  0  0  0
  1  2  1  0
  1 33  1  0
  1 34  1  0
  1 35  1  0
  2  3  1  0
  2  4  1  0
  2 36  1  6
  3 37  1  0
  3 38  1  0
  3 39  1  0
  4  5  1  0
  4 40  1  0
  4 41  1  0
  5  6  1  0
  5 42  1  0
  5 43  1  0
  6  7  1  0
  6 31  1  0
  7  8  2  0
  7  9  1  0
  9 10  2  0
  9 13  1  0
 10 11  1  0
 10 23  1  0
 11 12  2  0
 12 13  1  0
 12 44  1  0
 13 14  1  0
 14 15  1  0
 14 45  1  0
 14 46  1  0
 15 16  2  0
 15 22  1  0
 16 17  1  0
 16 47  1  0
 17 18  2  0
 17 48  1  0
 18 19  1  0
 18 20  1  0
 20 21  1  0
 20 22  2  0
 22 49  1  0
 23 24  1  0
 23 31  1  0
 24 25  2  0
 24 30  1  0
 25 26  1  0
 25 50  1  0
 26 27  2  0
 26 51  1  0
 27 28  1  0
 27 52  1  0
 28 29  1  0
 28 30  2  0
 30 53  1  0
 31 32  2  0
M  END

