
     RDKit          3D

 50 52  0  0  0  0  0  0  0  0999 V2000
    3.3179   -8.1826   -5.9635 C   0  0  0  0  0  0  0  0  0  0  0  0
    4.4069   -7.1301   -6.1089 C   0  0  0  0  0  0  0  0  0  0  0  0
    5.1092   -7.0210   -7.1008 O   0  0  0  0  0  0  0  0  0  0  0  0
    4.5488   -6.2940   -5.0419 N   0  0  0  0  0  0  0  0  0  0  0  0
    5.5270   -5.2329   -4.8366 C   0  0  0  0  0  0  0  0  0  0  0  0
    4.8924   -4.9825   -3.4339 C   0  0  2  0  0  0  0  0  0  0  0  0
    5.7649   -5.0107   -2.2977 N   0  0  0  0  0  0  0  0  0  0  0  0
    5.7079   -4.0765   -1.2991 C   0  0  0  0  0  0  0  0  0  0  0  0
    4.9137   -3.1509   -1.2833 O   0  0  0  0  0  0  0  0  0  0  0  0
    6.7569   -4.2464   -0.1960 C   0  0  0  0  0  0  0  0  0  0  0  0
    7.1176   -5.6790    0.2248 C   0  0  0  0  0  0  0  0  0  0  0  0
    7.7713   -6.4667   -0.8310 N   0  0  0  0  0  0  0  0  0  0  0  0
    9.1635   -6.1045   -1.1119 C   0  0  0  0  0  0  0  0  0  0  0  0
   10.1707   -6.6442   -0.0857 C   0  0  0  0  0  0  0  0  0  0  0  0
   10.0239   -8.0837    0.0723 N   0  0  0  0  0  0  0  0  0  0  0  0
   11.0801   -8.8147    0.6515 C   0  0  0  0  0  0  0  0  0  0  0  0
   12.2063   -8.1831    1.2205 C   0  0  0  0  0  0  0  0  0  0  0  0
   13.2604   -8.9339    1.7501 C   0  0  0  0  0  0  0  0  0  0  0  0
   13.2221  -10.3283    1.7455 C   0  0  0  0  0  0  0  0  0  0  0  0
   12.1070  -10.9665    1.1906 C   0  0  0  0  0  0  0  0  0  0  0  0
   11.0568  -10.2283    0.6496 C   0  0  0  0  0  0  0  0  0  0  0  0
    8.6501   -8.4827    0.3771 C   0  0  0  0  0  0  0  0  0  0  0  0
    7.6780   -7.9190   -0.6640 C   0  0  0  0  0  0  0  0  0  0  0  0
    3.9823   -6.2267   -3.6971 C   0  0  0  0  0  0  0  0  0  0  0  0
    3.2755   -8.7708   -6.8884 H   0  0  0  0  0  0  0  0  0  0  0  0
    2.3358   -7.7174   -5.7802 H   0  0  0  0  0  0  0  0  0  0  0  0
    3.5272   -8.8552   -5.1153 H   0  0  0  0  0  0  0  0  0  0  0  0
    5.4647   -4.4035   -5.5601 H   0  0  0  0  0  0  0  0  0  0  0  0
    6.5714   -5.5929   -4.8070 H   0  0  0  0  0  0  0  0  0  0  0  0
    4.3178   -4.0494   -3.3758 H   0  0  0  0  0  0  0  0  0  0  0  0
    6.4718   -5.7462   -2.1858 H   0  0  0  0  0  0  0  0  0  0  0  0
    6.3661   -3.7015    0.6754 H   0  0  0  0  0  0  0  0  0  0  0  0
    7.6608   -3.6955   -0.5113 H   0  0  0  0  0  0  0  0  0  0  0  0
    6.1919   -6.2101    0.5007 H   0  0  0  0  0  0  0  0  0  0  0  0
    7.7228   -5.6224    1.1517 H   0  0  0  0  0  0  0  0  0  0  0  0
    9.2573   -5.0102   -1.1784 H   0  0  0  0  0  0  0  0  0  0  0  0
    9.4257   -6.5135   -2.1028 H   0  0  0  0  0  0  0  0  0  0  0  0
   10.0593   -6.1087    0.8834 H   0  0  0  0  0  0  0  0  0  0  0  0
   11.1827   -6.4229   -0.4551 H   0  0  0  0  0  0  0  0  0  0  0  0
   12.2666   -7.0960    1.2665 H   0  0  0  0  0  0  0  0  0  0  0  0
   14.1178   -8.4112    2.1830 H   0  0  0  0  0  0  0  0  0  0  0  0
   14.0460  -10.9105    2.1641 H   0  0  0  0  0  0  0  0  0  0  0  0
   12.0576  -12.0585    1.1651 H   0  0  0  0  0  0  0  0  0  0  0  0
   10.2188  -10.7578    0.1933 H   0  0  0  0  0  0  0  0  0  0  0  0
    8.3596   -8.1418    1.3955 H   0  0  0  0  0  0  0  0  0  0  0  0
    8.5677   -9.5768    0.3787 H   0  0  0  0  0  0  0  0  0  0  0  0
    6.6442   -8.1878   -0.3948 H   0  0  0  0  0  0  0  0  0  0  0  0
    7.9029   -8.3881   -1.6380 H   0  0  0  0  0  0  0  0  0  0  0  0
    2.8945   -6.0459   -3.6519 H   0  0  0  0  0  0  0  0  0  0  0  0
    4.2249   -7.0958   -3.0573 H   0  0  0  0  0  0  0  0  0  0  0  0
  1  2  1  0
  1 25  1  0
  1 26  1  0
  1 27  1  0
  2  3  2  0
  2  4  1  0
  4  5  1  0
  4 24  1  0
  5  6  1  0
  5 28  1  0
  5 29  1  0
  6  7  1  0
  6 24  1  0
  6 30  1  6
  7  8  1  0
  7 31  1  0
  8  9  2  0
  8 10  1  0
 10 11  1  0
 10 32  1  0
 10 33  1  0
 11 12  1  0
 11 34  1  0
 11 35  1  0
 12 13  1  0
 12 23  1  0
 13 14  1  0
 13 36  1  0
 13 37  1  0
 14 15  1  0
 14 38  1  0
 14 39  1  0
 15 16  1  0
 15 22  1  0
 16 17  2  0
 16 21  1  0
 17 18  1  0
 17 40  1  0
 18 19  2  0
 18 41  1  0
 19 20  1  0
 19 42  1  0
 20 21  2  0
 20 43  1  0
 21 44  1  0
 22 23  1  0
 22 45  1  0
 22 46  1  0
 23 47  1  0
 23 48  1  0
 24 49  1  0
 24 50  1  0
M  END

