
     RDKit          3D

 61 64  0  0  0  0  0  0  0  0999 V2000
    6.0414    1.7639   -0.6496 C   0  0  0  0  0  0  0  0  0  0  0  0
    5.4551    2.7014    0.2113 O   0  0  0  0  0  0  0  0  0  0  0  0
    4.7525    2.1233    1.2846 C   0  0  0  0  0  0  0  0  0  0  0  0
    4.2083    3.2267    2.1863 C   0  0  0  0  0  0  0  0  0  0  0  0
    3.4033    4.2236    1.4776 N   0  0  0  0  0  0  0  0  0  0  0  0
    2.3112    3.7250    0.6588 C   0  0  0  0  0  0  0  0  0  0  0  0
    1.3881    2.7679    1.4243 C   0  0  0  0  0  0  0  0  0  0  0  0
    1.3582    1.5675    1.2052 O   0  0  0  0  0  0  0  0  0  0  0  0
    0.5875    3.3201    2.3944 N   0  0  0  0  0  0  0  0  0  0  0  0
    0.4582    4.6652    2.5788 N   0  0  0  0  0  0  0  0  0  0  0  0
   -0.4903    4.8963    3.4256 C   0  0  0  0  0  0  0  0  0  0  0  0
   -0.8225    6.2711    3.8251 C   0  0  0  0  0  0  0  0  0  0  0  0
   -0.0130    7.3535    3.4149 C   0  0  0  0  0  0  0  0  0  0  0  0
   -0.3090    8.6627    3.7818 C   0  0  0  0  0  0  0  0  0  0  0  0
   -1.4298    8.9345    4.5776 C   0  0  0  0  0  0  0  0  0  0  0  0
   -2.2483    7.8876    5.0011 C   0  0  0  0  0  0  0  0  0  0  0  0
   -1.9362    6.5842    4.6233 C   0  0  0  0  0  0  0  0  0  0  0  0
   -2.7522    5.5996    5.0473 F   0  0  0  0  0  0  0  0  0  0  0  0
   -1.1679    3.6255    3.9095 C   0  0  0  0  0  0  0  0  0  0  0  0
   -0.3001    2.5104    3.2739 C   0  0  2  0  0  0  0  0  0  0  0  0
   -0.8949    1.8437    2.6342 H   0  0  0  0  0  0  0  0  0  0  0  0
    0.4874    1.6588    4.2541 C   0  0  0  0  0  0  0  0  0  0  0  0
    0.4447    0.2575    4.1777 C   0  0  0  0  0  0  0  0  0  0  0  0
    1.1600   -0.5351    5.0688 C   0  0  0  0  0  0  0  0  0  0  0  0
    1.9563    0.0580    6.0637 C   0  0  0  0  0  0  0  0  0  0  0  0
    2.6204   -0.7915    6.8861 O   0  0  0  0  0  0  0  0  0  0  0  0
    3.4491   -0.2677    7.8993 C   0  0  0  0  0  0  0  0  0  0  0  0
    2.0199    1.4583    6.1463 C   0  0  0  0  0  0  0  0  0  0  0  0
    1.2872    2.2393    5.2463 C   0  0  0  0  0  0  0  0  0  0  0  0
    3.8160    5.5402    1.5410 C   0  0  0  0  0  0  0  0  0  0  0  0
    4.7307    5.8868    2.2789 O   0  0  0  0  0  0  0  0  0  0  0  0
    3.1508    6.5711    0.6671 C   0  0  1  0  0  0  0  0  0  0  0  0
    3.1054    7.9905    1.2035 C   0  0  0  0  0  0  0  0  0  0  0  0
    4.0653    7.6505    0.1120 C   0  0  0  0  0  0  0  0  0  0  0  0
    6.5414    2.3147   -1.4601 H   0  0  0  0  0  0  0  0  0  0  0  0
    5.2904    1.0808   -1.0971 H   0  0  0  0  0  0  0  0  0  0  0  0
    6.7980    1.1388   -0.1315 H   0  0  0  0  0  0  0  0  0  0  0  0
    5.4186    1.4811    1.8996 H   0  0  0  0  0  0  0  0  0  0  0  0
    3.9369    1.4712    0.9140 H   0  0  0  0  0  0  0  0  0  0  0  0
    5.0334    3.7790    2.6511 H   0  0  0  0  0  0  0  0  0  0  0  0
    3.6201    2.7552    2.9939 H   0  0  0  0  0  0  0  0  0  0  0  0
    2.6866    3.1532   -0.2049 H   0  0  0  0  0  0  0  0  0  0  0  0
    1.7105    4.5608    0.2907 H   0  0  0  0  0  0  0  0  0  0  0  0
    0.8623    7.1337    2.8023 H   0  0  0  0  0  0  0  0  0  0  0  0
    0.3401    9.4768    3.4517 H   0  0  0  0  0  0  0  0  0  0  0  0
   -1.6655    9.9601    4.8711 H   0  0  0  0  0  0  0  0  0  0  0  0
   -3.1308    8.0557    5.6214 H   0  0  0  0  0  0  0  0  0  0  0  0
   -2.2136    3.5934    3.5669 H   0  0  0  0  0  0  0  0  0  0  0  0
   -1.1986    3.5610    5.0058 H   0  0  0  0  0  0  0  0  0  0  0  0
   -0.1511   -0.2191    3.3953 H   0  0  0  0  0  0  0  0  0  0  0  0
    1.1279   -1.6249    5.0115 H   0  0  0  0  0  0  0  0  0  0  0  0
    3.8800   -1.1287    8.4277 H   0  0  0  0  0  0  0  0  0  0  0  0
    2.8800    0.3457    8.6213 H   0  0  0  0  0  0  0  0  0  0  0  0
    4.2705    0.3442    7.4845 H   0  0  0  0  0  0  0  0  0  0  0  0
    2.6317    1.9507    6.9023 H   0  0  0  0  0  0  0  0  0  0  0  0
    1.3574    3.3279    5.3279 H   0  0  0  0  0  0  0  0  0  0  0  0
    2.3256    6.2757    0.0216 H   0  0  0  0  0  0  0  0  0  0  0  0
    3.5215    8.1323    2.2040 H   0  0  0  0  0  0  0  0  0  0  0  0
    2.2224    8.5894    0.9632 H   0  0  0  0  0  0  0  0  0  0  0  0
    5.1200    7.5661    0.3838 H   0  0  0  0  0  0  0  0  0  0  0  0
    3.8625    8.0039   -0.9027 H   0  0  0  0  0  0  0  0  0  0  0  0
  1  2  1  0
  1 35  1  0
  1 36  1  0
  1 37  1  0
  2  3  1  0
  3  4  1  0
  3 38  1  0
  3 39  1  0
  4  5  1  0
  4 40  1  0
  4 41  1  0
  5  6  1  0
  5 30  1  0
  6  7  1  0
  6 42  1  0
  6 43  1  0
  7  8  2  0
  7  9  1  0
  9 10  1  0
  9 20  1  0
 10 11  2  0
 11 12  1  0
 11 19  1  0
 12 13  2  0
 12 17  1  0
 13 14  1  0
 13 44  1  0
 14 15  2  0
 14 45  1  0
 15 16  1  0
 15 46  1  0
 16 17  2  0
 16 47  1  0
 17 18  1  0
 19 20  1  0
 19 48  1  0
 19 49  1  0
 20 21  1  6
 20 22  1  0
 22 23  2  0
 22 29  1  0
 23 24  1  0
 23 50  1  0
 24 25  2  0
 24 51  1  0
 25 26  1  0
 25 28  1  0
 26 27  1  0
 27 52  1  0
 27 53  1  0
 27 54  1  0
 28 29  2  0
 28 55  1  0
 29 56  1  0
 30 31  2  0
 30 32  1  0
 32 33  1  0
 32 34  1  0
 32 57  1  6
 33 34  1  0
 33 58  1  0
 33 59  1  0
 34 60  1  0
 34 61  1  0
M  END

