
     RDKit          3D

 40 44  0  0  0  0  0  0  0  0999 V2000
    3.1455   -6.0698   -0.8522 C   0  0  0  0  0  0  0  0  0  0  0  0
    2.6139   -4.9083   -0.2551 O   0  0  0  0  0  0  0  0  0  0  0  0
    3.0010   -3.6877   -0.6866 C   0  0  0  0  0  0  0  0  0  0  0  0
    3.9282   -3.5025   -1.7264 C   0  0  0  0  0  0  0  0  0  0  0  0
    4.2956   -2.2190   -2.1344 C   0  0  0  0  0  0  0  0  0  0  0  0
    3.7456   -1.0951   -1.5131 C   0  0  0  0  0  0  0  0  0  0  0  0
    2.8266   -1.2697   -0.4826 C   0  0  0  0  0  0  0  0  0  0  0  0
    2.4346   -2.5504   -0.0474 C   0  0  0  0  0  0  0  0  0  0  0  0
    1.4623   -2.6094    1.0451 C   0  0  0  0  0  0  0  0  0  0  0  0
    0.9368   -1.5794    1.6566 N   0  0  0  0  0  0  0  0  0  0  0  0
    0.0882   -2.1168    2.5988 C   0  0  0  0  0  0  0  0  0  0  0  0
   -0.7578   -1.4720    3.5649 C   0  0  0  0  0  0  0  0  0  0  0  0
   -0.8310   -0.0675    3.6772 C   0  0  0  0  0  0  0  0  0  0  0  0
   -1.6572    0.5192    4.6214 C   0  0  0  0  0  0  0  0  0  0  0  0
   -2.4278   -0.2941    5.4737 C   0  0  0  0  0  0  0  0  0  0  0  0
   -2.3655   -1.6763    5.3737 C   0  0  0  0  0  0  0  0  0  0  0  0
   -1.5345   -2.3162    4.4222 C   0  0  0  0  0  0  0  0  0  0  0  0
   -1.4578   -3.7816    4.3034 C   0  0  0  0  0  0  0  0  0  0  0  0
   -2.2068   -4.6555    5.1266 C   0  0  0  0  0  0  0  0  0  0  0  0
   -2.1204   -6.0346    4.9985 C   0  0  0  0  0  0  0  0  0  0  0  0
   -1.2739   -6.6119    4.0326 C   0  0  0  0  0  0  0  0  0  0  0  0
   -0.5218   -5.7959    3.2048 C   0  0  0  0  0  0  0  0  0  0  0  0
   -0.6018   -4.3903    3.3266 C   0  0  0  0  0  0  0  0  0  0  0  0
    0.1399   -3.4907    2.5119 C   0  0  0  0  0  0  0  0  0  0  0  0
    1.0148   -3.8115    1.5220 O   0  0  0  0  0  0  0  0  0  0  0  0
    2.6840   -6.9215   -0.3351 H   0  0  0  0  0  0  0  0  0  0  0  0
    4.2420   -6.1297   -0.7319 H   0  0  0  0  0  0  0  0  0  0  0  0
    2.9006   -6.1290   -1.9277 H   0  0  0  0  0  0  0  0  0  0  0  0
    4.3691   -4.3655   -2.2239 H   0  0  0  0  0  0  0  0  0  0  0  0
    5.0189   -2.1034   -2.9458 H   0  0  0  0  0  0  0  0  0  0  0  0
    4.0305   -0.0895   -1.8293 H   0  0  0  0  0  0  0  0  0  0  0  0
    2.3803   -0.4115    0.0218 H   0  0  0  0  0  0  0  0  0  0  0  0
   -0.2212    0.5369    3.0027 H   0  0  0  0  0  0  0  0  0  0  0  0
   -1.7116    1.6075    4.7055 H   0  0  0  0  0  0  0  0  0  0  0  0
   -3.0810    0.1636    6.2210 H   0  0  0  0  0  0  0  0  0  0  0  0
   -2.9765   -2.2738    6.0510 H   0  0  0  0  0  0  0  0  0  0  0  0
   -2.8732   -4.2458    5.8861 H   0  0  0  0  0  0  0  0  0  0  0  0
   -2.7155   -6.6753    5.6540 H   0  0  0  0  0  0  0  0  0  0  0  0
   -1.2116   -7.6988    3.9375 H   0  0  0  0  0  0  0  0  0  0  0  0
    0.1421   -6.2193    2.4483 H   0  0  0  0  0  0  0  0  0  0  0  0
  1  2  1  0
  1 26  1  0
  1 27  1  0
  1 28  1  0
  2  3  1  0
  3  4  2  0
  3  8  1  0
  4  5  1  0
  4 29  1  0
  5  6  2  0
  5 30  1  0
  6  7  1  0
  6 31  1  0
  7  8  2  0
  7 32  1  0
  8  9  1  0
  9 10  2  0
  9 25  1  0
 10 11  1  0
 11 12  2  0
 11 24  1  0
 12 13  1  0
 12 17  1  0
 13 14  2  0
 13 33  1  0
 14 15  1  0
 14 34  1  0
 15 16  2  0
 15 35  1  0
 16 17  1  0
 16 36  1  0
 17 18  2  0
 18 19  1  0
 18 23  1  0
 19 20  2  0
 19 37  1  0
 20 21  1  0
 20 38  1  0
 21 22  2  0
 21 39  1  0
 22 23  1  0
 22 40  1  0
 23 24  2  0
 24 25  1  0
M  END

