
     RDKit          3D

 49 52  0  0  0  0  0  0  0  0999 V2000
    3.1360    5.6021   -2.2308 O   0  0  0  0  0  0  0  0  0  0  0  0
    3.4059    4.8313   -1.3470 C   0  0  0  0  0  0  0  0  0  0  0  0
    4.1039    5.1490   -0.2467 O   0  0  0  0  0  0  0  0  0  0  0  0
    4.5198    6.5288   -0.1051 C   0  0  1  0  0  0  0  0  0  0  0  0
    4.9242    6.8497   -1.0765 H   0  0  0  0  0  0  0  0  0  0  0  0
    3.3383    7.4479    0.3340 C   0  0  0  0  0  0  0  0  0  0  0  0
    3.6088    8.0894    1.6185 N   0  0  0  0  0  0  0  0  0  0  0  0
    3.7946    7.0700    2.6567 C   0  0  0  0  0  0  0  0  0  0  0  0
    5.0038    6.1390    2.3299 C   0  0  0  0  0  0  0  0  0  0  0  0
    5.5994    6.5896    0.9817 C   0  0  2  0  0  0  0  0  0  0  0  0
    6.0519    8.0593    1.0953 C   0  0  0  0  0  0  0  0  0  0  0  0
    4.8135    8.9164    1.5119 C   0  0  0  0  0  0  0  0  0  0  0  0
    3.0059    3.3365   -1.3420 C   0  0  2  0  0  0  0  0  0  0  0  0
    3.9489    2.7749   -1.3922 H   0  0  0  0  0  0  0  0  0  0  0  0
    2.1934    2.9967   -2.4836 N   0  0  0  0  0  0  0  0  0  0  0  0
    2.7028    2.7000   -3.7465 C   0  0  0  0  0  0  0  0  0  0  0  0
    4.0389    2.3149   -3.9757 C   0  0  0  0  0  0  0  0  0  0  0  0
    4.4688    1.9705   -5.2602 C   0  0  0  0  0  0  0  0  0  0  0  0
    3.5944    2.0034   -6.3480 C   0  0  0  0  0  0  0  0  0  0  0  0
    2.2671    2.3916   -6.1292 C   0  0  0  0  0  0  0  0  0  0  0  0
    1.8267    2.7341   -4.8539 C   0  0  0  0  0  0  0  0  0  0  0  0
    2.3357    2.9266   -0.0365 C   0  0  0  0  0  0  0  0  0  0  0  0
    2.8121    1.8661    0.7452 C   0  0  0  0  0  0  0  0  0  0  0  0
    2.1638    1.4838    1.9237 C   0  0  0  0  0  0  0  0  0  0  0  0
    1.0155    2.1621    2.3414 C   0  0  0  0  0  0  0  0  0  0  0  0
    0.5165    3.2239    1.5808 C   0  0  0  0  0  0  0  0  0  0  0  0
    1.1842    3.5792    0.4148 C   0  0  0  0  0  0  0  0  0  0  0  0
    0.7068    4.6086   -0.3211 F   0  0  0  0  0  0  0  0  0  0  0  0
    2.4187    6.8480    0.4161 H   0  0  0  0  0  0  0  0  0  0  0  0
    3.1537    8.2228   -0.4254 H   0  0  0  0  0  0  0  0  0  0  0  0
    2.8619    6.4891    2.7360 H   0  0  0  0  0  0  0  0  0  0  0  0
    3.9351    7.5831    3.6217 H   0  0  0  0  0  0  0  0  0  0  0  0
    4.6920    5.0862    2.2673 H   0  0  0  0  0  0  0  0  0  0  0  0
    5.7804    6.2009    3.1096 H   0  0  0  0  0  0  0  0  0  0  0  0
    6.4440    5.9439    0.6948 H   0  0  0  0  0  0  0  0  0  0  0  0
    6.4702    8.4038    0.1349 H   0  0  0  0  0  0  0  0  0  0  0  0
    6.8616    8.1355    1.8388 H   0  0  0  0  0  0  0  0  0  0  0  0
    4.6216    9.7153    0.7777 H   0  0  0  0  0  0  0  0  0  0  0  0
    4.9811    9.4093    2.4828 H   0  0  0  0  0  0  0  0  0  0  0  0
    1.3132    3.5010   -2.5063 H   0  0  0  0  0  0  0  0  0  0  0  0
    4.7587    2.2812   -3.1564 H   0  0  0  0  0  0  0  0  0  0  0  0
    5.5119    1.6763   -5.4065 H   0  0  0  0  0  0  0  0  0  0  0  0
    3.9395    1.7364   -7.3493 H   0  0  0  0  0  0  0  0  0  0  0  0
    1.5627    2.4309   -6.9646 H   0  0  0  0  0  0  0  0  0  0  0  0
    0.7864    3.0347   -4.6979 H   0  0  0  0  0  0  0  0  0  0  0  0
    3.7085    1.3311    0.4205 H   0  0  0  0  0  0  0  0  0  0  0  0
    2.5563    0.6533    2.5147 H   0  0  0  0  0  0  0  0  0  0  0  0
    0.5034    1.8677    3.2605 H   0  0  0  0  0  0  0  0  0  0  0  0
   -0.3771    3.7784    1.8737 H   0  0  0  0  0  0  0  0  0  0  0  0
  1  2  2  0
  2  3  1  0
  2 13  1  0
  3  4  1  0
  4  5  1  6
  4  6  1  0
  4 10  1  0
  6  7  1  0
  6 29  1  0
  6 30  1  0
  7  8  1  0
  7 12  1  0
  8  9  1  0
  8 31  1  0
  8 32  1  0
  9 10  1  0
  9 33  1  0
  9 34  1  0
 10 11  1  0
 10 35  1  6
 11 12  1  0
 11 36  1  0
 11 37  1  0
 12 38  1  0
 12 39  1  0
 13 14  1  6
 13 15  1  0
 13 22  1  0
 15 16  1  0
 15 40  1  0
 16 17  2  0
 16 21  1  0
 17 18  1  0
 17 41  1  0
 18 19  2  0
 18 42  1  0
 19 20  1  0
 19 43  1  0
 20 21  2  0
 20 44  1  0
 21 45  1  0
 22 23  2  0
 22 27  1  0
 23 24  1  0
 23 46  1  0
 24 25  2  0
 24 47  1  0
 25 26  1  0
 25 48  1  0
 26 27  2  0
 26 49  1  0
 27 28  1  0
M  END

