
     RDKit          3D

 30 31  0  0  0  0  0  0  0  0999 V2000
    2.0310    0.6775    0.5537 O   0  0  0  0  0  0  0  0  0  0  0  0
    2.2488   -0.4705    0.2730 C   0  0  0  0  0  0  0  0  0  0  0  0
    1.7421   -1.5093    0.9476 O   0  0  0  0  0  0  0  0  0  0  0  0
    3.1912   -0.8901   -0.8648 C   0  0  1  0  0  0  0  0  0  0  0  0
    3.0022   -0.2043   -1.7126 H   0  0  0  0  0  0  0  0  0  0  0  0
    4.6692   -0.7962   -0.4482 C   0  0  0  0  0  0  0  0  0  0  0  0
    5.3447   -1.7495   -1.4376 C   0  0  0  0  0  0  0  0  0  0  0  0
    4.3353   -2.9019   -1.5555 C   0  0  0  0  0  0  0  0  0  0  0  0
    3.0105   -2.3064   -1.2364 N   0  0  0  0  0  0  0  0  0  0  0  0
    1.9637   -2.5321   -2.2250 C   0  0  0  0  0  0  0  0  0  0  0  0
    1.4179   -3.9481   -2.2667 C   0  0  0  0  0  0  0  0  0  0  0  0
    1.7216   -4.8749   -1.2597 C   0  0  0  0  0  0  0  0  0  0  0  0
    1.2011   -6.1708   -1.2904 C   0  0  0  0  0  0  0  0  0  0  0  0
    1.6146   -7.2900   -0.0144 Cl  0  0  0  0  0  0  0  0  0  0  0  0
    0.3598   -6.5794   -2.3260 C   0  0  0  0  0  0  0  0  0  0  0  0
    0.0404   -5.6678   -3.3335 C   0  0  0  0  0  0  0  0  0  0  0  0
    0.5627   -4.3730   -3.3012 C   0  0  0  0  0  0  0  0  0  0  0  0
    0.0584   -3.1727   -4.7028 Br  0  0  0  0  0  0  0  0  0  0  0  0
    2.0770   -2.3031    0.4702 H   0  0  0  0  0  0  0  0  0  0  0  0
    4.7905   -1.1606    0.5858 H   0  0  0  0  0  0  0  0  0  0  0  0
    5.0401    0.2370   -0.4855 H   0  0  0  0  0  0  0  0  0  0  0  0
    6.3397   -2.0869   -1.1112 H   0  0  0  0  0  0  0  0  0  0  0  0
    5.4665   -1.2492   -2.4124 H   0  0  0  0  0  0  0  0  0  0  0  0
    4.5737   -3.7138   -0.8470 H   0  0  0  0  0  0  0  0  0  0  0  0
    4.3285   -3.3500   -2.5631 H   0  0  0  0  0  0  0  0  0  0  0  0
    2.3058   -2.2542   -3.2432 H   0  0  0  0  0  0  0  0  0  0  0  0
    1.1234   -1.8511   -2.0036 H   0  0  0  0  0  0  0  0  0  0  0  0
    2.3750   -4.5812   -0.4390 H   0  0  0  0  0  0  0  0  0  0  0  0
   -0.0414   -7.5936   -2.3443 H   0  0  0  0  0  0  0  0  0  0  0  0
   -0.6207   -5.9651   -4.1491 H   0  0  0  0  0  0  0  0  0  0  0  0
  1  2  2  0
  2  3  1  0
  2  4  1  0
  3 19  1  0
  4  5  1  6
  4  6  1  0
  4  9  1  0
  6  7  1  0
  6 20  1  0
  6 21  1  0
  7  8  1  0
  7 22  1  0
  7 23  1  0
  8  9  1  0
  8 24  1  0
  8 25  1  0
  9 10  1  0
 10 11  1  0
 10 26  1  0
 10 27  1  0
 11 12  2  0
 11 17  1  0
 12 13  1  0
 12 28  1  0
 13 14  1  0
 13 15  2  0
 15 16  1  0
 15 29  1  0
 16 17  2  0
 16 30  1  0
 17 18  1  0
M  END

