
     RDKit          3D

 41 42  0  0  0  0  0  0  0  0999 V2000
    1.0985    0.4717    0.8908 C   0  0  0  0  0  0  0  0  0  0  0  0
    2.4061    0.1905    0.1270 C   0  0  1  0  0  0  0  0  0  0  0  0
    3.3496    1.4034    0.1712 C   0  0  0  0  0  0  0  0  0  0  0  0
    3.0615   -1.0901    0.6404 C   0  0  0  0  0  0  0  0  0  0  0  0
    3.8852   -1.0502    1.7796 C   0  0  0  0  0  0  0  0  0  0  0  0
    4.5142   -2.1837    2.2944 C   0  0  0  0  0  0  0  0  0  0  0  0
    4.3618   -3.4360    1.6840 C   0  0  0  0  0  0  0  0  0  0  0  0
    5.0098   -4.6804    2.2683 C   0  0  0  0  0  0  0  0  0  0  0  0
    5.3886   -5.6476    1.2573 N   0  0  0  0  0  0  0  0  0  0  0  0
    6.5368   -5.3480    0.4073 C   0  0  0  0  0  0  0  0  0  0  0  0
    6.5888   -6.5636   -0.5266 C   0  0  0  0  0  0  0  0  0  0  0  0
    6.0293   -7.7318    0.3259 C   0  0  0  0  0  0  0  0  0  0  0  0
    5.4444   -7.0509    1.6052 C   0  0  1  0  0  0  0  0  0  0  0  0
    4.4264   -7.4254    1.8300 H   0  0  0  0  0  0  0  0  0  0  0  0
    6.3226   -7.3762    2.8299 C   0  0  0  0  0  0  0  0  0  0  0  0
    7.0644   -6.6009    3.3692 O   0  0  0  0  0  0  0  0  0  0  0  0
    6.2171   -8.6490    3.2824 O   0  0  0  0  0  0  0  0  0  0  0  0
    3.5656   -3.5048    0.5410 C   0  0  0  0  0  0  0  0  0  0  0  0
    2.9219   -2.3647    0.0508 C   0  0  0  0  0  0  0  0  0  0  0  0
    2.0805   -2.5874   -1.1452 N   0  0  0  0  0  0  0  0  0  0  0  0
    1.0648   -1.9175   -1.2717 O   0  0  0  0  0  0  0  0  0  0  0  0
    2.4375   -3.4514   -1.9303 O   0  0  0  0  0  0  0  0  0  0  0  0
    0.6111    1.3782    0.4966 H   0  0  0  0  0  0  0  0  0  0  0  0
    1.2927    0.6309    1.9646 H   0  0  0  0  0  0  0  0  0  0  0  0
    0.3968   -0.3671    0.7834 H   0  0  0  0  0  0  0  0  0  0  0  0
    2.1319    0.0286   -0.9236 H   0  0  0  0  0  0  0  0  0  0  0  0
    3.5771    1.7250    1.2003 H   0  0  0  0  0  0  0  0  0  0  0  0
    2.8752    2.2596   -0.3339 H   0  0  0  0  0  0  0  0  0  0  0  0
    4.3040    1.1972   -0.3385 H   0  0  0  0  0  0  0  0  0  0  0  0
    4.0482   -0.0926    2.2769 H   0  0  0  0  0  0  0  0  0  0  0  0
    5.1440   -2.0900    3.1839 H   0  0  0  0  0  0  0  0  0  0  0  0
    4.2786   -5.1663    2.9399 H   0  0  0  0  0  0  0  0  0  0  0  0
    5.8585   -4.3851    2.9147 H   0  0  0  0  0  0  0  0  0  0  0  0
    7.4730   -5.2513    0.9949 H   0  0  0  0  0  0  0  0  0  0  0  0
    6.3807   -4.4015   -0.1335 H   0  0  0  0  0  0  0  0  0  0  0  0
    7.6050   -6.7639   -0.8961 H   0  0  0  0  0  0  0  0  0  0  0  0
    5.9438   -6.3924   -1.4009 H   0  0  0  0  0  0  0  0  0  0  0  0
    6.8116   -8.4609    0.5872 H   0  0  0  0  0  0  0  0  0  0  0  0
    5.2447   -8.2800   -0.2150 H   0  0  0  0  0  0  0  0  0  0  0  0
    5.5709   -9.1446    2.7581 H   0  0  0  0  0  0  0  0  0  0  0  0
    3.4447   -4.4526    0.0177 H   0  0  0  0  0  0  0  0  0  0  0  0
  1  2  1  0
  1 23  1  0
  1 24  1  0
  1 25  1  0
  2  3  1  0
  2  4  1  0
  2 26  1  6
  3 27  1  0
  3 28  1  0
  3 29  1  0
  4  5  2  0
  4 19  1  0
  5  6  1  0
  5 30  1  0
  6  7  2  0
  6 31  1  0
  7  8  1  0
  7 18  1  0
  8  9  1  0
  8 32  1  0
  8 33  1  0
  9 10  1  0
  9 13  1  0
 10 11  1  0
 10 34  1  0
 10 35  1  0
 11 12  1  0
 11 36  1  0
 11 37  1  0
 12 13  1  0
 12 38  1  0
 12 39  1  0
 13 14  1  1
 13 15  1  0
 15 16  2  0
 15 17  1  0
 17 40  1  0
 18 19  2  0
 18 41  1  0
 19 20  1  0
 20 21  2  0
 20 22  1  0
M  CHG  2  20   1  22  -1
M  END

