
     RDKit          3D

 58 61  0  0  0  0  0  0  0  0999 V2000
    3.5674   -0.0868    5.1970 C   0  0  0  0  0  0  0  0  0  0  0  0
    3.0416    0.0571    3.7634 C   0  0  0  0  0  0  0  0  0  0  0  0
    2.5565   -1.2369    3.1899 C   0  0  0  0  0  0  0  0  0  0  0  0
    1.3272   -1.4136    2.7753 N   0  0  0  0  0  0  0  0  0  0  0  0
    1.3142   -2.7349    2.3331 O   0  0  0  0  0  0  0  0  0  0  0  0
    2.5441   -3.2232    2.5292 C   0  0  0  0  0  0  0  0  0  0  0  0
    2.8253   -4.6661    2.1915 C   0  0  1  0  0  0  0  0  0  0  0  0
    2.0472   -5.5589    3.1713 C   0  0  0  0  0  0  0  0  0  0  0  0
    2.4809   -4.9139    0.7882 N   0  0  0  0  0  0  0  0  0  0  0  0
    3.2668   -4.1422   -0.1778 C   0  0  0  0  0  0  0  0  0  0  0  0
    4.6530   -4.7413   -0.4522 C   0  0  0  0  0  0  0  0  0  0  0  0
    4.5418   -6.1487   -0.8337 N   0  0  0  0  0  0  0  0  0  0  0  0
    5.1959   -6.5925   -1.9590 C   0  0  0  0  0  0  0  0  0  0  0  0
    5.7934   -5.8238   -2.6994 O   0  0  0  0  0  0  0  0  0  0  0  0
    5.1586   -8.0969   -2.2433 C   0  0  1  0  0  0  0  0  0  0  0  0
    5.8872   -8.9534   -1.2355 C   0  0  0  0  0  0  0  0  0  0  0  0
    5.3735  -10.1669   -0.7505 C   0  0  0  0  0  0  0  0  0  0  0  0
    6.0936  -10.9542    0.1574 C   0  0  0  0  0  0  0  0  0  0  0  0
    5.5369  -12.2608    0.6714 C   0  0  0  0  0  0  0  0  0  0  0  0
    7.3510  -10.5016    0.5873 C   0  0  0  0  0  0  0  0  0  0  0  0
    7.8918   -9.2947    0.1272 C   0  0  0  0  0  0  0  0  0  0  0  0
    9.2452   -8.8135    0.5937 C   0  0  0  0  0  0  0  0  0  0  0  0
    7.1478   -8.5333   -0.7873 C   0  0  0  0  0  0  0  0  0  0  0  0
    3.9591   -8.6048   -3.0245 C   0  0  0  0  0  0  0  0  0  0  0  0
    5.2865   -8.4545   -3.7082 C   0  0  0  0  0  0  0  0  0  0  0  0
    3.7504   -6.9654    0.0790 C   0  0  0  0  0  0  0  0  0  0  0  0
    2.3877   -6.2987    0.3397 C   0  0  0  0  0  0  0  0  0  0  0  0
    3.3558   -2.3533    3.0526 N   0  0  0  0  0  0  0  0  0  0  0  0
    3.9593    0.8739    5.5646 H   0  0  0  0  0  0  0  0  0  0  0  0
    4.3783   -0.8296    5.2416 H   0  0  0  0  0  0  0  0  0  0  0  0
    2.7693   -0.4134    5.8824 H   0  0  0  0  0  0  0  0  0  0  0  0
    3.8476    0.4361    3.1116 H   0  0  0  0  0  0  0  0  0  0  0  0
    2.2156    0.7820    3.7140 H   0  0  0  0  0  0  0  0  0  0  0  0
    3.9068   -4.7883    2.4083 H   0  0  0  0  0  0  0  0  0  0  0  0
    0.9666   -5.4988    2.9719 H   0  0  0  0  0  0  0  0  0  0  0  0
    2.2319   -5.2241    4.2026 H   0  0  0  0  0  0  0  0  0  0  0  0
    2.3672   -6.6084    3.1058 H   0  0  0  0  0  0  0  0  0  0  0  0
    3.3771   -3.1041    0.1707 H   0  0  0  0  0  0  0  0  0  0  0  0
    2.7002   -4.1060   -1.1246 H   0  0  0  0  0  0  0  0  0  0  0  0
    5.2920   -4.6567    0.4480 H   0  0  0  0  0  0  0  0  0  0  0  0
    5.1582   -4.2137   -1.2707 H   0  0  0  0  0  0  0  0  0  0  0  0
    4.3897  -10.5114   -1.0785 H   0  0  0  0  0  0  0  0  0  0  0  0
    4.5472  -12.4780    0.2432 H   0  0  0  0  0  0  0  0  0  0  0  0
    5.4335  -12.2490    1.7696 H   0  0  0  0  0  0  0  0  0  0  0  0
    6.2026  -13.1045    0.4232 H   0  0  0  0  0  0  0  0  0  0  0  0
    7.9227  -11.1071    1.2978 H   0  0  0  0  0  0  0  0  0  0  0  0
    9.7325   -9.5469    1.2529 H   0  0  0  0  0  0  0  0  0  0  0  0
    9.1619   -7.8644    1.1499 H   0  0  0  0  0  0  0  0  0  0  0  0
    9.9181   -8.6246   -0.2590 H   0  0  0  0  0  0  0  0  0  0  0  0
    7.5643   -7.5978   -1.1725 H   0  0  0  0  0  0  0  0  0  0  0  0
    3.1743   -7.8795   -3.2592 H   0  0  0  0  0  0  0  0  0  0  0  0
    3.5843   -9.6113   -2.8213 H   0  0  0  0  0  0  0  0  0  0  0  0
    5.4376   -7.6208   -4.3976 H   0  0  0  0  0  0  0  0  0  0  0  0
    5.8449   -9.3639   -3.9428 H   0  0  0  0  0  0  0  0  0  0  0  0
    4.2992   -7.1032    1.0312 H   0  0  0  0  0  0  0  0  0  0  0  0
    3.5967   -7.9621   -0.3479 H   0  0  0  0  0  0  0  0  0  0  0  0
    1.8090   -6.8997    1.0538 H   0  0  0  0  0  0  0  0  0  0  0  0
    1.8187   -6.2990   -0.6072 H   0  0  0  0  0  0  0  0  0  0  0  0
  1  2  1  0
  1 29  1  0
  1 30  1  0
  1 31  1  0
  2  3  1  0
  2 32  1  0
  2 33  1  0
  3  4  2  0
  3 28  1  0
  4  5  1  0
  5  6  1  0
  6  7  1  0
  6 28  2  0
  7  8  1  0
  7  9  1  0
  7 34  1  6
  8 35  1  0
  8 36  1  0
  8 37  1  0
  9 10  1  0
  9 27  1  0
 10 11  1  0
 10 38  1  0
 10 39  1  0
 11 12  1  0
 11 40  1  0
 11 41  1  0
 12 13  1  0
 12 26  1  0
 13 14  2  0
 15 13  1  6
 15 16  1  0
 15 24  1  0
 15 25  1  0
 16 17  2  0
 16 23  1  0
 17 18  1  0
 17 42  1  0
 18 19  1  0
 18 20  2  0
 19 43  1  0
 19 44  1  0
 19 45  1  0
 20 21  1  0
 20 46  1  0
 21 22  1  0
 21 23  2  0
 22 47  1  0
 22 48  1  0
 22 49  1  0
 23 50  1  0
 24 25  1  0
 24 51  1  0
 24 52  1  0
 25 53  1  0
 25 54  1  0
 26 27  1  0
 26 55  1  0
 26 56  1  0
 27 57  1  0
 27 58  1  0
M  END

