
     RDKit          3D

 42 43  0  0  0  0  0  0  0  0999 V2000
    0.7397   -2.1290    1.4123 C   0  0  0  0  0  0  0  0  0  0  0  0
    2.2379   -2.4312    1.3465 C   0  0  0  0  0  0  0  0  0  0  0  0
    3.0285   -1.3914    0.5438 C   0  0  0  0  0  0  0  0  0  0  0  0
    4.5557   -1.6059    0.5239 C   0  0  1  0  0  0  0  0  0  0  0  0
    5.0096   -2.8748   -0.2250 C   0  0  0  0  0  0  0  0  0  0  0  0
    4.8716   -2.7500   -1.7441 C   0  0  0  0  0  0  0  0  0  0  0  0
    5.5598   -1.5645   -2.2554 N   0  0  0  0  0  0  0  0  0  0  0  0
    6.2048   -1.6018   -3.4750 C   0  0  0  0  0  0  0  0  0  0  0  0
    6.6492   -0.4250   -4.1311 C   0  0  0  0  0  0  0  0  0  0  0  0
    7.3236   -0.5998   -5.3336 C   0  0  0  0  0  0  0  0  0  0  0  0
    7.8070    0.6113   -6.0510 N   0  0  0  0  0  0  0  0  0  0  0  0
    7.5851    1.6977   -5.5431 O   0  0  0  0  0  0  0  0  0  0  0  0
    8.3975    0.4435   -7.1048 O   0  0  0  0  0  0  0  0  0  0  0  0
    7.5612   -1.8388   -5.9028 C   0  0  0  0  0  0  0  0  0  0  0  0
    7.0571   -2.9485   -5.1783 C   0  0  0  0  0  0  0  0  0  0  0  0
    7.2277   -4.2159   -5.6593 N   0  0  0  0  0  0  0  0  0  0  0  0
    6.7365   -5.3971   -4.9885 C   0  0  0  0  0  0  0  0  0  0  0  0
    6.4066   -2.8161   -4.0190 N   0  0  0  0  0  0  0  0  0  0  0  0
    5.1850   -0.3130   -1.6082 C   0  0  0  0  0  0  0  0  0  0  0  0
    5.3118   -0.4089   -0.0821 C   0  0  0  0  0  0  0  0  0  0  0  0
    0.1984   -2.8901    1.9966 H   0  0  0  0  0  0  0  0  0  0  0  0
    0.2911   -2.1026    0.4049 H   0  0  0  0  0  0  0  0  0  0  0  0
    0.5477   -1.1499    1.8825 H   0  0  0  0  0  0  0  0  0  0  0  0
    2.3846   -3.4353    0.9119 H   0  0  0  0  0  0  0  0  0  0  0  0
    2.6487   -2.4851    2.3714 H   0  0  0  0  0  0  0  0  0  0  0  0
    2.8291   -0.3928    0.9741 H   0  0  0  0  0  0  0  0  0  0  0  0
    2.6272   -1.3520   -0.4848 H   0  0  0  0  0  0  0  0  0  0  0  0
    4.8761   -1.7016    1.5771 H   0  0  0  0  0  0  0  0  0  0  0  0
    4.4466   -3.7600    0.1125 H   0  0  0  0  0  0  0  0  0  0  0  0
    6.0696   -3.0674    0.0140 H   0  0  0  0  0  0  0  0  0  0  0  0
    3.7998   -2.7047   -2.0286 H   0  0  0  0  0  0  0  0  0  0  0  0
    5.2959   -3.6252   -2.2460 H   0  0  0  0  0  0  0  0  0  0  0  0
    6.4881    0.5818   -3.7621 H   0  0  0  0  0  0  0  0  0  0  0  0
    8.0912   -1.9323   -6.8485 H   0  0  0  0  0  0  0  0  0  0  0  0
    7.7041   -4.3187   -6.5436 H   0  0  0  0  0  0  0  0  0  0  0  0
    5.6380   -5.3846   -4.8813 H   0  0  0  0  0  0  0  0  0  0  0  0
    7.1626   -5.4983   -3.9760 H   0  0  0  0  0  0  0  0  0  0  0  0
    7.0197   -6.2815   -5.5765 H   0  0  0  0  0  0  0  0  0  0  0  0
    4.1509   -0.0292   -1.8935 H   0  0  0  0  0  0  0  0  0  0  0  0
    5.8384    0.4941   -1.9576 H   0  0  0  0  0  0  0  0  0  0  0  0
    4.9606    0.5376    0.3623 H   0  0  0  0  0  0  0  0  0  0  0  0
    6.3831   -0.5011    0.1663 H   0  0  0  0  0  0  0  0  0  0  0  0
  1  2  1  0
  1 21  1  0
  1 22  1  0
  1 23  1  0
  2  3  1  0
  2 24  1  0
  2 25  1  0
  3  4  1  0
  3 26  1  0
  3 27  1  0
  4  5  1  0
  4 20  1  0
  4 28  1  1
  5  6  1  0
  5 29  1  0
  5 30  1  0
  6  7  1  0
  6 31  1  0
  6 32  1  0
  7  8  1  0
  7 19  1  0
  8  9  2  0
  8 18  1  0
  9 10  1  0
  9 33  1  0
 10 11  1  0
 10 14  2  0
 11 12  2  0
 11 13  1  0
 14 15  1  0
 14 34  1  0
 15 16  1  0
 15 18  2  0
 16 17  1  0
 16 35  1  0
 17 36  1  0
 17 37  1  0
 17 38  1  0
 19 20  1  0
 19 39  1  0
 19 40  1  0
 20 41  1  0
 20 42  1  0
M  CHG  2  11   1  13  -1
M  END

