
     RDKit          3D

 66 68  0  0  0  0  0  0  0  0999 V2000
    1.6752    0.4100    0.9928 C   0  0  0  0  0  0  0  0  0  0  0  0
    2.9421   -0.1582    0.6731 O   0  0  0  0  0  0  0  0  0  0  0  0
    3.3627   -0.0030   -0.6080 C   0  0  0  0  0  0  0  0  0  0  0  0
    2.6931    0.5919   -1.4310 O   0  0  0  0  0  0  0  0  0  0  0  0
    4.6788   -0.6240   -0.8283 C   0  0  0  0  0  0  0  0  0  0  0  0
    5.2842   -0.5310   -2.0525 C   0  0  0  0  0  0  0  0  0  0  0  0
    4.6976    0.0958   -3.2891 C   0  0  0  0  0  0  0  0  0  0  0  0
    6.5649   -1.0164   -2.1993 N   0  0  0  0  0  0  0  0  0  0  0  0
    7.3885   -1.3697   -1.1327 C   0  0  0  0  0  0  0  0  0  0  0  0
    8.8118   -1.5738   -1.5228 C   0  0  0  0  0  0  0  0  0  0  0  0
    9.4798   -2.7708   -1.2161 C   0  0  0  0  0  0  0  0  0  0  0  0
   10.7921   -2.9783   -1.6397 C   0  0  0  0  0  0  0  0  0  0  0  0
   11.4593   -1.9940   -2.3770 C   0  0  0  0  0  0  0  0  0  0  0  0
   10.8033   -0.8013   -2.6912 C   0  0  0  0  0  0  0  0  0  0  0  0
    9.4863   -0.5950   -2.2726 C   0  0  0  0  0  0  0  0  0  0  0  0
    6.8525   -1.4928    0.1127 C   0  0  0  0  0  0  0  0  0  0  0  0
    7.7407   -1.6166    1.3178 C   0  0  0  0  0  0  0  0  0  0  0  0
    8.8871   -1.1894    1.3672 O   0  0  0  0  0  0  0  0  0  0  0  0
    7.1567   -2.2132    2.4030 N   0  0  0  0  0  0  0  0  0  0  0  0
    7.8671   -2.4049    3.6402 C   0  0  0  0  0  0  0  0  0  0  0  0
    7.0493   -3.3192    4.5411 C   0  0  0  0  0  0  0  0  0  0  0  0
    6.0596   -3.9043    4.1584 O   0  0  0  0  0  0  0  0  0  0  0  0
    7.5710   -3.3783    5.7619 O   0  0  0  0  0  0  0  0  0  0  0  0
    6.9682   -4.1850    6.8446 C   0  0  1  0  0  0  0  0  0  0  0  0
    6.9851   -5.6660    6.4564 C   0  0  0  0  0  0  0  0  0  0  0  0
    7.9047   -3.9178    8.0228 C   0  0  0  0  0  0  0  0  0  0  0  0
    5.5540   -3.6767    7.1405 C   0  0  0  0  0  0  0  0  0  0  0  0
    5.3362   -1.4034    0.3112 C   0  0  2  0  0  0  0  0  0  0  0  0
    4.6799   -2.7800    0.5063 C   0  0  0  0  0  0  0  0  0  0  0  0
    4.8133   -3.7973   -0.4549 C   0  0  0  0  0  0  0  0  0  0  0  0
    4.2387   -5.0565   -0.2605 C   0  0  0  0  0  0  0  0  0  0  0  0
    3.5275   -5.3367    0.9085 C   0  0  0  0  0  0  0  0  0  0  0  0
    3.3987   -4.3222    1.8554 C   0  0  0  0  0  0  0  0  0  0  0  0
    2.6757   -4.6030    3.1140 N   0  0  0  0  0  0  0  0  0  0  0  0
    2.2460   -5.7336    3.2780 O   0  0  0  0  0  0  0  0  0  0  0  0
    2.5505   -3.6885    3.9135 O   0  0  0  0  0  0  0  0  0  0  0  0
    3.9468   -3.0538    1.6668 C   0  0  0  0  0  0  0  0  0  0  0  0
    1.4880    0.1677    2.0465 H   0  0  0  0  0  0  0  0  0  0  0  0
    0.8827   -0.0138    0.3576 H   0  0  0  0  0  0  0  0  0  0  0  0
    1.6855    1.5012    0.8480 H   0  0  0  0  0  0  0  0  0  0  0  0
    3.7014   -0.3092   -3.5083 H   0  0  0  0  0  0  0  0  0  0  0  0
    5.3577   -0.0633   -4.1563 H   0  0  0  0  0  0  0  0  0  0  0  0
    4.5540    1.1772   -3.1469 H   0  0  0  0  0  0  0  0  0  0  0  0
    6.9859   -0.9906   -3.1194 H   0  0  0  0  0  0  0  0  0  0  0  0
    8.9597   -3.5425   -0.6449 H   0  0  0  0  0  0  0  0  0  0  0  0
   11.2983   -3.9153   -1.3942 H   0  0  0  0  0  0  0  0  0  0  0  0
   12.4889   -2.1574   -2.7052 H   0  0  0  0  0  0  0  0  0  0  0  0
   11.3201   -0.0232   -3.2587 H   0  0  0  0  0  0  0  0  0  0  0  0
    8.9876    0.3501   -2.5036 H   0  0  0  0  0  0  0  0  0  0  0  0
    6.3067   -2.7617    2.3068 H   0  0  0  0  0  0  0  0  0  0  0  0
    8.0576   -1.4532    4.1655 H   0  0  0  0  0  0  0  0  0  0  0  0
    8.8641   -2.8557    3.4792 H   0  0  0  0  0  0  0  0  0  0  0  0
    8.0063   -5.9840    6.1938 H   0  0  0  0  0  0  0  0  0  0  0  0
    6.3198   -5.8647    5.6068 H   0  0  0  0  0  0  0  0  0  0  0  0
    6.6499   -6.2724    7.3122 H   0  0  0  0  0  0  0  0  0  0  0  0
    8.9298   -4.2404    7.7857 H   0  0  0  0  0  0  0  0  0  0  0  0
    7.5619   -4.4682    8.9119 H   0  0  0  0  0  0  0  0  0  0  0  0
    7.9281   -2.8444    8.2643 H   0  0  0  0  0  0  0  0  0  0  0  0
    4.8750   -3.8447    6.2947 H   0  0  0  0  0  0  0  0  0  0  0  0
    5.5737   -2.6002    7.3720 H   0  0  0  0  0  0  0  0  0  0  0  0
    5.1532   -4.2046    8.0198 H   0  0  0  0  0  0  0  0  0  0  0  0
    5.1517   -0.8493    1.2416 H   0  0  0  0  0  0  0  0  0  0  0  0
    5.3806   -3.6009   -1.3678 H   0  0  0  0  0  0  0  0  0  0  0  0
    4.3539   -5.8317   -1.0218 H   0  0  0  0  0  0  0  0  0  0  0  0
    3.0829   -6.3124    1.1009 H   0  0  0  0  0  0  0  0  0  0  0  0
    3.8085   -2.2998    2.4404 H   0  0  0  0  0  0  0  0  0  0  0  0
  1  2  1  0
  1 38  1  0
  1 39  1  0
  1 40  1  0
  2  3  1  0
  3  4  2  0
  3  5  1  0
  5  6  2  0
  5 28  1  0
  6  7  1  0
  6  8  1  0
  7 41  1  0
  7 42  1  0
  7 43  1  0
  8  9  1  0
  8 44  1  0
  9 10  1  0
  9 16  2  0
 10 11  2  0
 10 15  1  0
 11 12  1  0
 11 45  1  0
 12 13  2  0
 12 46  1  0
 13 14  1  0
 13 47  1  0
 14 15  2  0
 14 48  1  0
 15 49  1  0
 16 17  1  0
 16 28  1  0
 17 18  2  0
 17 19  1  0
 19 20  1  0
 19 50  1  0
 20 21  1  0
 20 51  1  0
 20 52  1  0
 21 22  2  0
 21 23  1  0
 24 23  1  6
 24 25  1  0
 24 26  1  0
 24 27  1  0
 25 53  1  0
 25 54  1  0
 25 55  1  0
 26 56  1  0
 26 57  1  0
 26 58  1  0
 27 59  1  0
 27 60  1  0
 27 61  1  0
 28 29  1  0
 28 62  1  1
 29 30  2  0
 29 37  1  0
 30 31  1  0
 30 63  1  0
 31 32  2  0
 31 64  1  0
 32 33  1  0
 32 65  1  0
 33 34  1  0
 33 37  2  0
 34 35  2  0
 34 36  1  0
 37 66  1  0
M  CHG  2  34   1  36  -1
M  END

