
     RDKit          3D

 51 54  0  0  0  0  0  0  0  0999 V2000
    4.2798   -2.5477    5.7801 C   0  0  0  0  0  0  0  0  0  0  0  0
    4.8722   -1.6654    4.6979 C   0  0  0  0  0  0  0  0  0  0  0  0
    4.8332   -2.3790    3.4711 O   0  0  0  0  0  0  0  0  0  0  0  0
    5.2794   -1.7865    2.3307 C   0  0  0  0  0  0  0  0  0  0  0  0
    5.8215   -0.4941    2.2784 C   0  0  0  0  0  0  0  0  0  0  0  0
    6.2216    0.0521    1.0542 C   0  0  0  0  0  0  0  0  0  0  0  0
    6.0937   -0.6832   -0.1236 C   0  0  0  0  0  0  0  0  0  0  0  0
    5.5756   -1.9798   -0.0729 C   0  0  0  0  0  0  0  0  0  0  0  0
    5.1702   -2.5454    1.1399 C   0  0  0  0  0  0  0  0  0  0  0  0
    4.6363   -3.8589    1.1727 N   0  0  0  0  0  0  0  0  0  0  0  0
    5.1814   -4.9218    2.0172 C   0  0  0  0  0  0  0  0  0  0  0  0
    4.6037   -6.2207    1.4177 C   0  0  2  0  0  0  0  0  0  0  0  0
    5.5901   -6.8637    0.4334 C   0  0  0  0  0  0  0  0  0  0  0  0
    6.5520   -6.2579   -0.0063 O   0  0  0  0  0  0  0  0  0  0  0  0
    5.3063   -8.1618    0.0516 N   0  0  0  0  0  0  0  0  0  0  0  0
    4.2484   -9.0134    0.6374 C   0  0  0  0  0  0  0  0  0  0  0  0
    4.1239  -10.1938   -0.3453 C   0  0  1  0  0  0  0  0  0  0  0  0
    2.8947  -10.0100   -1.2723 C   0  0  0  0  0  0  0  0  0  0  0  0
    1.8598   -9.5514   -0.8701 O   0  0  0  0  0  0  0  0  0  0  0  0
    3.0305  -10.4372   -2.5341 O   0  0  0  0  0  0  0  0  0  0  0  0
    5.4588  -10.1805   -1.0542 C   0  0  0  0  0  0  0  0  0  0  0  0
    6.0580  -11.1469   -1.8611 C   0  0  0  0  0  0  0  0  0  0  0  0
    7.2780  -10.8497   -2.4881 C   0  0  0  0  0  0  0  0  0  0  0  0
    7.8720   -9.5989   -2.2961 C   0  0  0  0  0  0  0  0  0  0  0  0
    7.2903   -8.6234   -1.4741 C   0  0  0  0  0  0  0  0  0  0  0  0
    6.0794   -8.9335   -0.8449 C   0  0  0  0  0  0  0  0  0  0  0  0
    3.3241   -5.7420    0.6928 C   0  0  0  0  0  0  0  0  0  0  0  0
    3.5934   -4.2711    0.3678 C   0  0  0  0  0  0  0  0  0  0  0  0
    2.9855   -3.5938   -0.4315 O   0  0  0  0  0  0  0  0  0  0  0  0
    4.2810   -2.0168    6.7446 H   0  0  0  0  0  0  0  0  0  0  0  0
    4.8635   -3.4741    5.8952 H   0  0  0  0  0  0  0  0  0  0  0  0
    3.2418   -2.8200    5.5348 H   0  0  0  0  0  0  0  0  0  0  0  0
    5.9156   -1.3915    4.9438 H   0  0  0  0  0  0  0  0  0  0  0  0
    4.2974   -0.7254    4.6030 H   0  0  0  0  0  0  0  0  0  0  0  0
    5.9215    0.0992    3.1869 H   0  0  0  0  0  0  0  0  0  0  0  0
    6.6337    1.0642    1.0309 H   0  0  0  0  0  0  0  0  0  0  0  0
    6.4023   -0.2567   -1.0805 H   0  0  0  0  0  0  0  0  0  0  0  0
    5.4736   -2.5731   -0.9818 H   0  0  0  0  0  0  0  0  0  0  0  0
    4.8638   -4.7951    3.0637 H   0  0  0  0  0  0  0  0  0  0  0  0
    6.2793   -4.9117    1.9743 H   0  0  0  0  0  0  0  0  0  0  0  0
    4.3689   -6.9369    2.2184 H   0  0  0  0  0  0  0  0  0  0  0  0
    3.2907   -8.4888    0.7295 H   0  0  0  0  0  0  0  0  0  0  0  0
    4.5602   -9.3644    1.6360 H   0  0  0  0  0  0  0  0  0  0  0  0
    3.9367  -11.1367    0.1950 H   0  0  0  0  0  0  0  0  0  0  0  0
    3.9620  -10.6499   -2.7173 H   0  0  0  0  0  0  0  0  0  0  0  0
    5.5963  -12.1310   -1.9910 H   0  0  0  0  0  0  0  0  0  0  0  0
    7.7640  -11.5975   -3.1186 H   0  0  0  0  0  0  0  0  0  0  0  0
    8.8209   -9.3725   -2.7890 H   0  0  0  0  0  0  0  0  0  0  0  0
    7.7557   -7.6538   -1.3170 H   0  0  0  0  0  0  0  0  0  0  0  0
    2.4406   -5.7931    1.3508 H   0  0  0  0  0  0  0  0  0  0  0  0
    3.0748   -6.2881   -0.2276 H   0  0  0  0  0  0  0  0  0  0  0  0
  1  2  1  0
  1 30  1  0
  1 31  1  0
  1 32  1  0
  2  3  1  0
  2 33  1  0
  2 34  1  0
  3  4  1  0
  4  5  2  0
  4  9  1  0
  5  6  1  0
  5 35  1  0
  6  7  2  0
  6 36  1  0
  7  8  1  0
  7 37  1  0
  8  9  2  0
  8 38  1  0
  9 10  1  0
 10 11  1  0
 10 28  1  0
 11 12  1  0
 11 39  1  0
 11 40  1  0
 12 13  1  0
 12 27  1  0
 12 41  1  1
 13 14  2  0
 13 15  1  0
 15 16  1  0
 15 26  1  0
 16 17  1  0
 16 42  1  0
 16 43  1  0
 17 18  1  0
 17 21  1  0
 17 44  1  1
 18 19  2  0
 18 20  1  0
 20 45  1  0
 21 22  1  0
 21 26  2  0
 22 23  2  0
 22 46  1  0
 23 24  1  0
 23 47  1  0
 24 25  2  0
 24 48  1  0
 25 26  1  0
 25 49  1  0
 27 28  1  0
 27 50  1  0
 27 51  1  0
 28 29  2  0
M  END

