
     RDKit          3D

 48 49  0  0  0  0  0  0  0  0999 V2000
    5.1478    0.5628    0.9953 C   0  0  0  0  0  0  0  0  0  0  0  0
    6.0083    1.8161    1.1628 C   0  0  0  0  0  0  0  0  0  0  0  0
    6.8166    2.1697   -0.0883 C   0  0  0  0  0  0  0  0  0  0  0  0
    7.7051    3.4132    0.0593 C   0  0  0  0  0  0  0  0  0  0  0  0
    8.7453    3.2912    1.0671 N   0  0  0  0  0  0  0  0  0  0  0  0
    9.9356    2.7033    0.7904 C   0  0  0  0  0  0  0  0  0  0  0  0
   10.2568    2.2777   -0.3092 O   0  0  0  0  0  0  0  0  0  0  0  0
   10.9115    2.6311    1.9735 C   0  0  0  0  0  0  0  0  0  0  0  0
   10.5055    1.3629    3.2430 S   0  0  0  0  0  0  0  0  0  0  0  0
    9.4491    2.2962    4.3100 C   0  0  0  0  0  0  0  0  0  0  0  0
    8.8042    3.4095    4.0212 N   0  0  0  0  0  0  0  0  0  0  0  0
    8.1102    3.7520    5.1593 C   0  0  0  0  0  0  0  0  0  0  0  0
    8.3308    2.8245    6.1449 C   0  0  0  0  0  0  0  0  0  0  0  0
    9.2010    1.8890    5.5982 N   0  0  0  0  0  0  0  0  0  0  0  0
    9.7202    0.7244    6.2595 C   0  0  0  0  0  0  0  0  0  0  0  0
    9.0079   -0.4759    6.1268 C   0  0  0  0  0  0  0  0  0  0  0  0
    9.4616   -1.6353    6.7528 C   0  0  0  0  0  0  0  0  0  0  0  0
   10.6329   -1.5867    7.5141 C   0  0  0  0  0  0  0  0  0  0  0  0
   11.3364   -0.3886    7.6413 C   0  0  0  0  0  0  0  0  0  0  0  0
   10.9045    0.7969    7.0215 C   0  0  0  0  0  0  0  0  0  0  0  0
   11.7095    2.0835    7.1635 C   0  0  1  0  0  0  0  0  0  0  0  0
   11.8623    2.5084    8.6342 C   0  0  0  0  0  0  0  0  0  0  0  0
   13.0759    1.9648    6.4639 C   0  0  0  0  0  0  0  0  0  0  0  0
    4.5792    0.3348    1.9115 H   0  0  0  0  0  0  0  0  0  0  0  0
    5.7682   -0.3181    0.7597 H   0  0  0  0  0  0  0  0  0  0  0  0
    4.4209    0.6804    0.1739 H   0  0  0  0  0  0  0  0  0  0  0  0
    6.7001    1.6765    2.0116 H   0  0  0  0  0  0  0  0  0  0  0  0
    5.3639    2.6731    1.4350 H   0  0  0  0  0  0  0  0  0  0  0  0
    6.1288    2.3400   -0.9371 H   0  0  0  0  0  0  0  0  0  0  0  0
    7.4575    1.3188   -0.3773 H   0  0  0  0  0  0  0  0  0  0  0  0
    7.0872    4.2904    0.3166 H   0  0  0  0  0  0  0  0  0  0  0  0
    8.1956    3.6202   -0.9040 H   0  0  0  0  0  0  0  0  0  0  0  0
    8.5667    3.5617    2.0398 H   0  0  0  0  0  0  0  0  0  0  0  0
   11.0092    3.5998    2.4844 H   0  0  0  0  0  0  0  0  0  0  0  0
   11.8835    2.3203    1.5707 H   0  0  0  0  0  0  0  0  0  0  0  0
    7.4848    4.6423    5.2005 H   0  0  0  0  0  0  0  0  0  0  0  0
    7.9633    2.7285    7.1629 H   0  0  0  0  0  0  0  0  0  0  0  0
    8.0968   -0.4841    5.5249 H   0  0  0  0  0  0  0  0  0  0  0  0
    8.9052   -2.5692    6.6462 H   0  0  0  0  0  0  0  0  0  0  0  0
   11.0022   -2.4876    8.0106 H   0  0  0  0  0  0  0  0  0  0  0  0
   12.2516   -0.3723    8.2381 H   0  0  0  0  0  0  0  0  0  0  0  0
   11.1499    2.8812    6.6524 H   0  0  0  0  0  0  0  0  0  0  0  0
   12.4454    1.7744    9.2142 H   0  0  0  0  0  0  0  0  0  0  0  0
   10.8831    2.6218    9.1257 H   0  0  0  0  0  0  0  0  0  0  0  0
   12.3888    3.4740    8.7011 H   0  0  0  0  0  0  0  0  0  0  0  0
   13.7060    1.1935    6.9368 H   0  0  0  0  0  0  0  0  0  0  0  0
   13.6212    2.9210    6.5195 H   0  0  0  0  0  0  0  0  0  0  0  0
   12.9535    1.6998    5.4028 H   0  0  0  0  0  0  0  0  0  0  0  0
  1  2  1  0
  1 24  1  0
  1 25  1  0
  1 26  1  0
  2  3  1  0
  2 27  1  0
  2 28  1  0
  3  4  1  0
  3 29  1  0
  3 30  1  0
  4  5  1  0
  4 31  1  0
  4 32  1  0
  5  6  1  0
  5 33  1  0
  6  7  2  0
  6  8  1  0
  8  9  1  0
  8 34  1  0
  8 35  1  0
  9 10  1  0
 10 11  2  0
 10 14  1  0
 11 12  1  0
 12 13  2  0
 12 36  1  0
 13 14  1  0
 13 37  1  0
 14 15  1  0
 15 16  2  0
 15 20  1  0
 16 17  1  0
 16 38  1  0
 17 18  2  0
 17 39  1  0
 18 19  1  0
 18 40  1  0
 19 20  2  0
 19 41  1  0
 20 21  1  0
 21 22  1  0
 21 23  1  0
 21 42  1  6
 22 43  1  0
 22 44  1  0
 22 45  1  0
 23 46  1  0
 23 47  1  0
 23 48  1  0
M  END

