
     RDKit          3D

 84 87  0  0  0  0  0  0  0  0999 V2000
    1.2188   -0.7591   -0.4442 C   0  0  0  0  0  0  0  0  0  0  0  0
    2.2463    0.3223   -0.0960 C   0  0  1  0  0  0  0  0  0  0  0  0
    1.9693    1.0111    1.2515 C   0  0  0  0  0  0  0  0  0  0  0  0
    0.7782    1.9648    1.2221 C   0  0  0  0  0  0  0  0  0  0  0  0
    0.1509    2.1577    0.1981 O   0  0  0  0  0  0  0  0  0  0  0  0
    0.4011    2.6791    2.4917 C   0  0  0  0  0  0  0  0  0  0  0  0
   -0.6991    3.5542    2.4489 C   0  0  0  0  0  0  0  0  0  0  0  0
   -1.0990    4.2471    3.5900 C   0  0  0  0  0  0  0  0  0  0  0  0
   -0.4029    4.0761    4.7928 C   0  0  0  0  0  0  0  0  0  0  0  0
    0.6931    3.2101    4.8474 C   0  0  0  0  0  0  0  0  0  0  0  0
    1.0938    2.5148    3.7039 C   0  0  0  0  0  0  0  0  0  0  0  0
    3.6249   -0.1984   -0.1429 N   0  0  0  0  0  0  0  0  0  0  0  0
    4.0234   -1.2783    0.7480 C   0  0  0  0  0  0  0  0  0  0  0  0
    4.1429   -2.6059    0.0085 C   0  0  0  0  0  0  0  0  0  0  0  0
    3.3718   -3.5283    0.2054 O   0  0  0  0  0  0  0  0  0  0  0  0
    5.1615   -2.6749   -0.9233 N   0  0  0  0  0  0  0  0  0  0  0  0
    5.2878   -3.9299   -1.6638 C   0  0  0  0  0  0  0  0  0  0  0  0
    6.1660   -1.6783   -1.0755 C   0  0  0  0  0  0  0  0  0  0  0  0
    7.4951   -2.0963   -1.2732 C   0  0  0  0  0  0  0  0  0  0  0  0
    8.5265   -1.1834   -1.4812 C   0  0  0  0  0  0  0  0  0  0  0  0
    8.2695    0.1969   -1.5115 C   0  0  0  0  0  0  0  0  0  0  0  0
    9.3741    1.2094   -1.7334 C   0  0  0  0  0  0  0  0  0  0  0  0
    9.7697    2.0202   -0.4789 C   0  0  0  0  0  0  0  0  0  0  0  0
   10.2495    1.1996    0.7251 C   0  0  0  0  0  0  0  0  0  0  0  0
   11.4813    0.3531    0.4351 C   0  0  0  0  0  0  0  0  0  0  0  0
   11.8816   -0.2798    1.6581 O   0  0  0  0  0  0  0  0  0  0  0  0
   12.3788   -1.5326    1.7010 C   0  0  0  0  0  0  0  0  0  0  0  0
   12.0665   -2.2790    2.8523 C   0  0  0  0  0  0  0  0  0  0  0  0
   12.5791   -3.5597    3.0132 C   0  0  0  0  0  0  0  0  0  0  0  0
   13.4024   -4.0762    2.0060 C   0  0  0  0  0  0  0  0  0  0  0  0
   13.7080   -3.3790    0.9161 N   0  0  0  0  0  0  0  0  0  0  0  0
   13.2269   -2.1478    0.7492 C   0  0  0  0  0  0  0  0  0  0  0  0
   13.6930   -1.4551   -0.4152 N   0  0  0  0  0  0  0  0  0  0  0  0
   13.1177   -1.6580   -1.6537 C   0  0  0  0  0  0  0  0  0  0  0  0
   11.9695   -2.0149   -1.8299 O   0  0  0  0  0  0  0  0  0  0  0  0
   14.0091   -1.3540   -2.6125 O   0  0  0  0  0  0  0  0  0  0  0  0
   13.6973   -1.4559   -4.0443 C   0  0  1  0  0  0  0  0  0  0  0  0
   12.5582   -0.4984   -4.4071 C   0  0  0  0  0  0  0  0  0  0  0  0
   15.0052   -1.0163   -4.7050 C   0  0  0  0  0  0  0  0  0  0  0  0
   13.3677   -2.9085   -4.4008 C   0  0  0  0  0  0  0  0  0  0  0  0
    6.9460    0.6087   -1.3344 C   0  0  0  0  0  0  0  0  0  0  0  0
    5.8900   -0.2881   -1.1042 C   0  0  0  0  0  0  0  0  0  0  0  0
    4.5213    0.3454   -1.0322 C   0  0  0  0  0  0  0  0  0  0  0  0
    4.2613    1.3254   -1.7165 O   0  0  0  0  0  0  0  0  0  0  0  0
    0.2113   -0.3204   -0.4506 H   0  0  0  0  0  0  0  0  0  0  0  0
    1.2353   -1.5993    0.2685 H   0  0  0  0  0  0  0  0  0  0  0  0
    1.4182   -1.1680   -1.4465 H   0  0  0  0  0  0  0  0  0  0  0  0
    2.2170    1.0982   -0.8705 H   0  0  0  0  0  0  0  0  0  0  0  0
    2.8545    1.5988    1.5514 H   0  0  0  0  0  0  0  0  0  0  0  0
    1.8075    0.2742    2.0584 H   0  0  0  0  0  0  0  0  0  0  0  0
   -1.2244    3.6717    1.4992 H   0  0  0  0  0  0  0  0  0  0  0  0
   -1.9557    4.9243    3.5452 H   0  0  0  0  0  0  0  0  0  0  0  0
   -0.7154    4.6191    5.6886 H   0  0  0  0  0  0  0  0  0  0  0  0
    1.2388    3.0754    5.7846 H   0  0  0  0  0  0  0  0  0  0  0  0
    1.9525    1.8441    3.7661 H   0  0  0  0  0  0  0  0  0  0  0  0
    3.2577   -1.4216    1.5176 H   0  0  0  0  0  0  0  0  0  0  0  0
    4.9716   -1.0337    1.2562 H   0  0  0  0  0  0  0  0  0  0  0  0
    4.2920   -4.3823   -1.7408 H   0  0  0  0  0  0  0  0  0  0  0  0
    5.9444   -4.6528   -1.1504 H   0  0  0  0  0  0  0  0  0  0  0  0
    5.6908   -3.7276   -2.6651 H   0  0  0  0  0  0  0  0  0  0  0  0
    7.7306   -3.1609   -1.2586 H   0  0  0  0  0  0  0  0  0  0  0  0
    9.5443   -1.5571   -1.6256 H   0  0  0  0  0  0  0  0  0  0  0  0
    9.0543    1.9254   -2.5095 H   0  0  0  0  0  0  0  0  0  0  0  0
   10.2573    0.6930   -2.1413 H   0  0  0  0  0  0  0  0  0  0  0  0
    8.9060    2.6287   -0.1613 H   0  0  0  0  0  0  0  0  0  0  0  0
   10.5551    2.7416   -0.7687 H   0  0  0  0  0  0  0  0  0  0  0  0
    9.4435    0.5343    1.0781 H   0  0  0  0  0  0  0  0  0  0  0  0
   10.4816    1.8804    1.5614 H   0  0  0  0  0  0  0  0  0  0  0  0
   12.3099    0.9782    0.0596 H   0  0  0  0  0  0  0  0  0  0  0  0
   11.2642   -0.4150   -0.3180 H   0  0  0  0  0  0  0  0  0  0  0  0
   11.4206   -1.8145    3.6004 H   0  0  0  0  0  0  0  0  0  0  0  0
   12.3459   -4.1505    3.9021 H   0  0  0  0  0  0  0  0  0  0  0  0
   13.8336   -5.0799    2.0900 H   0  0  0  0  0  0  0  0  0  0  0  0
   14.7029   -1.3455   -0.4542 H   0  0  0  0  0  0  0  0  0  0  0  0
   12.7938    0.5238   -4.0717 H   0  0  0  0  0  0  0  0  0  0  0  0
   11.6117   -0.8140   -3.9509 H   0  0  0  0  0  0  0  0  0  0  0  0
   12.4291   -0.4755   -5.5004 H   0  0  0  0  0  0  0  0  0  0  0  0
   15.2606    0.0136   -4.4129 H   0  0  0  0  0  0  0  0  0  0  0  0
   14.9101   -1.0551   -5.8005 H   0  0  0  0  0  0  0  0  0  0  0  0
   15.8323   -1.6761   -4.4026 H   0  0  0  0  0  0  0  0  0  0  0  0
   12.4448   -3.2382   -3.9070 H   0  0  0  0  0  0  0  0  0  0  0  0
   14.1900   -3.5745   -4.0962 H   0  0  0  0  0  0  0  0  0  0  0  0
   13.2376   -3.0019   -5.4903 H   0  0  0  0  0  0  0  0  0  0  0  0
    6.6848    1.6675   -1.4018 H   0  0  0  0  0  0  0  0  0  0  0  0
  1  2  1  0
  1 45  1  0
  1 46  1  0
  1 47  1  0
  2  3  1  0
  2 12  1  0
  2 48  1  6
  3  4  1  0
  3 49  1  0
  3 50  1  0
  4  5  2  0
  4  6  1  0
  6  7  2  0
  6 11  1  0
  7  8  1  0
  7 51  1  0
  8  9  2  0
  8 52  1  0
  9 10  1  0
  9 53  1  0
 10 11  2  0
 10 54  1  0
 11 55  1  0
 12 13  1  0
 12 43  1  0
 13 14  1  0
 13 56  1  0
 13 57  1  0
 14 15  2  0
 14 16  1  0
 16 17  1  0
 16 18  1  0
 17 58  1  0
 17 59  1  0
 17 60  1  0
 18 19  1  0
 18 42  2  0
 19 20  2  0
 19 61  1  0
 20 21  1  0
 20 62  1  0
 21 22  1  0
 21 41  2  0
 22 23  1  0
 22 63  1  0
 22 64  1  0
 23 24  1  0
 23 65  1  0
 23 66  1  0
 24 25  1  0
 24 67  1  0
 24 68  1  0
 25 26  1  0
 25 69  1  0
 25 70  1  0
 26 27  1  0
 27 28  2  0
 27 32  1  0
 28 29  1  0
 28 71  1  0
 29 30  2  0
 29 72  1  0
 30 31  1  0
 30 73  1  0
 31 32  2  0
 32 33  1  0
 33 34  1  0
 33 74  1  0
 34 35  2  0
 34 36  1  0
 37 36  1  1
 37 38  1  0
 37 39  1  0
 37 40  1  0
 38 75  1  0
 38 76  1  0
 38 77  1  0
 39 78  1  0
 39 79  1  0
 39 80  1  0
 40 81  1  0
 40 82  1  0
 40 83  1  0
 41 42  1  0
 41 84  1  0
 42 43  1  0
 43 44  2  0
M  END

