
     RDKit          3D

 41 42  0  0  0  0  0  0  0  0999 V2000
    1.4984   -1.7260    0.5620 C   0  0  0  0  0  0  0  0  0  0  0  0
    2.8818   -1.3262    0.2571 N   0  0  0  0  0  0  0  0  0  0  0  0
    3.4131   -1.2849   -1.0050 C   0  0  0  0  0  0  0  0  0  0  0  0
    4.5485   -0.8962   -1.2491 O   0  0  0  0  0  0  0  0  0  0  0  0
    2.5512   -1.7937   -2.1998 C   0  0  0  0  0  0  0  0  0  0  0  0
    1.4872   -2.3891   -2.0965 O   0  0  0  0  0  0  0  0  0  0  0  0
    3.1636   -1.5014   -3.3672 N   0  0  0  0  0  0  0  0  0  0  0  0
    2.6495   -1.9221   -4.6607 C   0  0  0  0  0  0  0  0  0  0  0  0
    3.3384   -3.1554   -5.2188 C   0  0  0  0  0  0  0  0  0  0  0  0
    3.1090   -4.4150   -4.6406 C   0  0  0  0  0  0  0  0  0  0  0  0
    3.7537   -5.5431   -5.1494 C   0  0  0  0  0  0  0  0  0  0  0  0
    4.6276   -5.4272   -6.2355 C   0  0  0  0  0  0  0  0  0  0  0  0
    4.8742   -4.1790   -6.8220 C   0  0  0  0  0  0  0  0  0  0  0  0
    5.8592   -4.0444   -7.9701 C   0  0  0  0  0  0  0  0  0  0  0  0
    5.5297   -2.9379   -8.8602 N   0  0  0  0  0  0  0  0  0  0  0  0
    4.2182   -3.0520   -6.3028 C   0  0  0  0  0  0  0  0  0  0  0  0
    3.7268   -1.0240    1.3782 C   0  0  0  0  0  0  0  0  0  0  0  0
    4.5245    0.1301    1.4068 C   0  0  0  0  0  0  0  0  0  0  0  0
    5.3101    0.4065    2.5273 C   0  0  0  0  0  0  0  0  0  0  0  0
    5.3099   -0.4538    3.6296 C   0  0  0  0  0  0  0  0  0  0  0  0
    4.5148   -1.6020    3.6031 C   0  0  0  0  0  0  0  0  0  0  0  0
    3.7296   -1.8887    2.4838 C   0  0  0  0  0  0  0  0  0  0  0  0
    0.8063   -1.3210   -0.1818 H   0  0  0  0  0  0  0  0  0  0  0  0
    1.2449   -1.3246    1.5515 H   0  0  0  0  0  0  0  0  0  0  0  0
    1.3708   -2.8190    0.5677 H   0  0  0  0  0  0  0  0  0  0  0  0
    4.0983   -1.1085   -3.2784 H   0  0  0  0  0  0  0  0  0  0  0  0
    2.7526   -1.0856   -5.3698 H   0  0  0  0  0  0  0  0  0  0  0  0
    1.5767   -2.1182   -4.5185 H   0  0  0  0  0  0  0  0  0  0  0  0
    2.4175   -4.5036   -3.7984 H   0  0  0  0  0  0  0  0  0  0  0  0
    3.5665   -6.5243   -4.7049 H   0  0  0  0  0  0  0  0  0  0  0  0
    5.1199   -6.3194   -6.6345 H   0  0  0  0  0  0  0  0  0  0  0  0
    5.9443   -5.0316   -8.4728 H   0  0  0  0  0  0  0  0  0  0  0  0
    6.8609   -3.8406   -7.5475 H   0  0  0  0  0  0  0  0  0  0  0  0
    4.6752   -3.1399   -9.3808 H   0  0  0  0  0  0  0  0  0  0  0  0
    6.2687   -2.7975   -9.5478 H   0  0  0  0  0  0  0  0  0  0  0  0
    4.4029   -2.0849   -6.7775 H   0  0  0  0  0  0  0  0  0  0  0  0
    4.5348    0.8026    0.5509 H   0  0  0  0  0  0  0  0  0  0  0  0
    5.9265    1.3091    2.5380 H   0  0  0  0  0  0  0  0  0  0  0  0
    5.9266   -0.2303    4.5035 H   0  0  0  0  0  0  0  0  0  0  0  0
    4.5079   -2.2869    4.4548 H   0  0  0  0  0  0  0  0  0  0  0  0
    3.1231   -2.7963    2.4660 H   0  0  0  0  0  0  0  0  0  0  0  0
  1  2  1  0
  1 23  1  0
  1 24  1  0
  1 25  1  0
  2  3  1  0
  2 17  1  0
  3  4  2  0
  3  5  1  0
  5  6  2  0
  5  7  1  0
  7  8  1  0
  7 26  1  0
  8  9  1  0
  8 27  1  0
  8 28  1  0
  9 10  2  0
  9 16  1  0
 10 11  1  0
 10 29  1  0
 11 12  2  0
 11 30  1  0
 12 13  1  0
 12 31  1  0
 13 14  1  0
 13 16  2  0
 14 15  1  0
 14 32  1  0
 14 33  1  0
 15 34  1  0
 15 35  1  0
 16 36  1  0
 17 18  2  0
 17 22  1  0
 18 19  1  0
 18 37  1  0
 19 20  2  0
 19 38  1  0
 20 21  1  0
 20 39  1  0
 21 22  2  0
 21 40  1  0
 22 41  1  0
M  END

