
     RDKit          3D

 63 66  0  0  0  0  0  0  0  0999 V2000
    2.5664    0.0558   -2.1548 C   0  0  0  0  0  0  0  0  0  0  0  0
    3.6711   -0.0164   -1.1000 C   0  0  0  0  0  0  0  0  0  0  0  0
    3.8628    1.3058   -0.3768 C   0  0  0  0  0  0  0  0  0  0  0  0
    4.9099    1.1357    0.5879 O   0  0  0  0  0  0  0  0  0  0  0  0
    5.2753    2.2150    1.2972 C   0  0  0  0  0  0  0  0  0  0  0  0
    4.7437    3.3591    1.1795 N   0  0  0  0  0  0  0  0  0  0  0  0
    5.2655    4.4649    2.0007 C   0  0  1  0  0  0  0  0  0  0  0  0
    5.3875    5.6593    1.0264 C   0  0  0  0  0  0  0  0  0  0  0  0
    4.2223    6.2203    0.4819 C   0  0  0  0  0  0  0  0  0  0  0  0
    4.2977    7.2596   -0.4467 C   0  0  0  0  0  0  0  0  0  0  0  0
    5.5431    7.7542   -0.8513 C   0  0  0  0  0  0  0  0  0  0  0  0
    6.7072    7.1965   -0.3188 C   0  0  0  0  0  0  0  0  0  0  0  0
    6.6283    6.1552    0.6133 C   0  0  0  0  0  0  0  0  0  0  0  0
    4.2696    4.7875    3.1533 C   0  0  0  0  0  0  0  0  0  0  0  0
    3.1350    3.9861    3.3236 C   0  0  0  0  0  0  0  0  0  0  0  0
    2.2175    4.2072    4.3552 C   0  0  0  0  0  0  0  0  0  0  0  0
    2.4104    5.2506    5.2632 C   0  0  0  0  0  0  0  0  0  0  0  0
    1.4475    5.5122    6.3959 C   0  0  0  0  0  0  0  0  0  0  0  0
    3.5466    6.0556    5.0878 C   0  0  0  0  0  0  0  0  0  0  0  0
    4.4804    5.8609    4.0609 C   0  0  0  0  0  0  0  0  0  0  0  0
    5.6496    6.8142    3.9704 C   0  0  0  0  0  0  0  0  0  0  0  0
    6.5689    4.1977    2.6266 N   0  0  0  0  0  0  0  0  0  0  0  0
    7.0035    3.0022    2.7158 C   0  0  0  0  0  0  0  0  0  0  0  0
    8.3013    2.6946    3.3902 C   0  0  0  0  0  0  0  0  0  0  0  0
    9.4047    3.5047    3.0840 C   0  0  0  0  0  0  0  0  0  0  0  0
   10.6511    3.2813    3.6654 C   0  0  0  0  0  0  0  0  0  0  0  0
   10.8282    2.2435    4.5902 C   0  0  0  0  0  0  0  0  0  0  0  0
   12.1634    1.9861    5.2447 C   0  0  0  0  0  0  0  0  0  0  0  0
    9.7134    1.4550    4.9103 C   0  0  0  0  0  0  0  0  0  0  0  0
    8.4492    1.6504    4.3359 C   0  0  0  0  0  0  0  0  0  0  0  0
    7.2998    0.7727    4.7852 C   0  0  0  0  0  0  0  0  0  0  0  0
    6.3203    1.9160    2.1591 N   0  0  0  0  0  0  0  0  0  0  0  0
    2.4447   -0.9106   -2.6675 H   0  0  0  0  0  0  0  0  0  0  0  0
    2.7907    0.8140   -2.9234 H   0  0  0  0  0  0  0  0  0  0  0  0
    1.5943    0.3178   -1.7051 H   0  0  0  0  0  0  0  0  0  0  0  0
    4.6276   -0.3063   -1.5677 H   0  0  0  0  0  0  0  0  0  0  0  0
    3.4390   -0.7979   -0.3562 H   0  0  0  0  0  0  0  0  0  0  0  0
    2.9418    1.6252    0.1396 H   0  0  0  0  0  0  0  0  0  0  0  0
    4.1378    2.1190   -1.0685 H   0  0  0  0  0  0  0  0  0  0  0  0
    3.2484    5.8340    0.7899 H   0  0  0  0  0  0  0  0  0  0  0  0
    3.3791    7.6871   -0.8580 H   0  0  0  0  0  0  0  0  0  0  0  0
    5.6033    8.5694   -1.5772 H   0  0  0  0  0  0  0  0  0  0  0  0
    7.6863    7.5738   -0.6269 H   0  0  0  0  0  0  0  0  0  0  0  0
    7.5380    5.7270    1.0358 H   0  0  0  0  0  0  0  0  0  0  0  0
    2.9578    3.1727    2.6207 H   0  0  0  0  0  0  0  0  0  0  0  0
    1.3434    3.5558    4.4481 H   0  0  0  0  0  0  0  0  0  0  0  0
    0.5800    4.8366    6.3534 H   0  0  0  0  0  0  0  0  0  0  0  0
    1.0698    6.5481    6.3724 H   0  0  0  0  0  0  0  0  0  0  0  0
    1.9334    5.3720    7.3767 H   0  0  0  0  0  0  0  0  0  0  0  0
    3.7170    6.8815    5.7864 H   0  0  0  0  0  0  0  0  0  0  0  0
    5.6913    7.4583    4.8614 H   0  0  0  0  0  0  0  0  0  0  0  0
    5.5642    7.4679    3.0873 H   0  0  0  0  0  0  0  0  0  0  0  0
    6.5992    6.2720    3.8735 H   0  0  0  0  0  0  0  0  0  0  0  0
    9.2704    4.3206    2.3721 H   0  0  0  0  0  0  0  0  0  0  0  0
   11.4952    3.9232    3.3991 H   0  0  0  0  0  0  0  0  0  0  0  0
   12.9479    2.6387    4.8343 H   0  0  0  0  0  0  0  0  0  0  0  0
   12.4846    0.9407    5.1050 H   0  0  0  0  0  0  0  0  0  0  0  0
   12.1147    2.1638    6.3325 H   0  0  0  0  0  0  0  0  0  0  0  0
    9.8275    0.6591    5.6534 H   0  0  0  0  0  0  0  0  0  0  0  0
    7.5181    0.3320    5.7690 H   0  0  0  0  0  0  0  0  0  0  0  0
    7.1184   -0.0684    4.0935 H   0  0  0  0  0  0  0  0  0  0  0  0
    6.3564    1.3318    4.8633 H   0  0  0  0  0  0  0  0  0  0  0  0
    6.8021    1.0347    2.0261 H   0  0  0  0  0  0  0  0  0  0  0  0
  1  2  1  0
  1 33  1  0
  1 34  1  0
  1 35  1  0
  2  3  1  0
  2 36  1  0
  2 37  1  0
  3  4  1  0
  3 38  1  0
  3 39  1  0
  4  5  1  0
  5  6  2  0
  5 32  1  0
  6  7  1  0
  7  8  1  6
  7 14  1  0
  7 22  1  0
  8  9  2  0
  8 13  1  0
  9 10  1  0
  9 40  1  0
 10 11  2  0
 10 41  1  0
 11 12  1  0
 11 42  1  0
 12 13  2  0
 12 43  1  0
 13 44  1  0
 14 15  2  0
 14 20  1  0
 15 16  1  0
 15 45  1  0
 16 17  2  0
 16 46  1  0
 17 18  1  0
 17 19  1  0
 18 47  1  0
 18 48  1  0
 18 49  1  0
 19 20  2  0
 19 50  1  0
 20 21  1  0
 21 51  1  0
 21 52  1  0
 21 53  1  0
 22 23  2  0
 23 24  1  0
 23 32  1  0
 24 25  2  0
 24 30  1  0
 25 26  1  0
 25 54  1  0
 26 27  2  0
 26 55  1  0
 27 28  1  0
 27 29  1  0
 28 56  1  0
 28 57  1  0
 28 58  1  0
 29 30  2  0
 29 59  1  0
 30 31  1  0
 31 60  1  0
 31 61  1  0
 31 62  1  0
 32 63  1  0
M  END

