
     RDKit          3D

 43 45  0  0  0  0  0  0  0  0999 V2000
    9.8847   -0.9708    1.3741 C   0  0  0  0  0  0  0  0  0  0  0  0
    8.9771   -1.2991    0.4513 C   0  0  0  0  0  0  0  0  0  0  0  0
    7.6952   -2.0316    0.7403 C   0  0  0  0  0  0  0  0  0  0  0  0
    6.5223   -1.3384    0.2257 N   0  0  0  0  0  0  0  0  0  0  0  0
    6.2588    0.0201    0.2950 C   0  0  0  0  0  0  0  0  0  0  0  0
    5.0921    0.2068   -0.4069 C   0  0  0  0  0  0  0  0  0  0  0  0
    4.6183   -0.9904   -0.8841 N   0  0  0  0  0  0  0  0  0  0  0  0
    5.4871   -1.8985   -0.4918 C   0  0  0  0  0  0  0  0  0  0  0  0
    5.4397   -3.2713   -0.7588 N   0  0  0  0  0  0  0  0  0  0  0  0
    4.7508   -3.6176   -2.0056 C   0  0  0  0  0  0  0  0  0  0  0  0
    5.0070   -5.0815   -2.3604 C   0  0  0  0  0  0  0  0  0  0  0  0
    4.6097   -6.0176   -1.2136 C   0  0  0  0  0  0  0  0  0  0  0  0
    5.2841   -5.5980    0.1023 C   0  0  2  0  0  0  0  0  0  0  0  0
    4.8594   -6.4595    1.2953 C   0  0  1  0  0  0  0  0  0  0  0  0
    5.1006   -7.9860    1.1559 C   0  0  0  0  0  0  0  0  0  0  0  0
    5.2438   -8.4848    2.6171 C   0  0  0  0  0  0  0  0  0  0  0  0
    5.2861   -7.1763    3.4623 C   0  0  0  0  0  0  0  0  0  0  0  0
    5.5463   -6.0726    2.5359 N   0  0  0  0  0  0  0  0  0  0  0  0
    5.0129   -4.1102    0.3714 C   0  0  0  0  0  0  0  0  0  0  0  0
   10.8167   -0.4663    1.1051 H   0  0  0  0  0  0  0  0  0  0  0  0
    9.7331   -1.1994    2.4346 H   0  0  0  0  0  0  0  0  0  0  0  0
    9.1518   -1.0500   -0.6025 H   0  0  0  0  0  0  0  0  0  0  0  0
    7.5970   -2.2143    1.8252 H   0  0  0  0  0  0  0  0  0  0  0  0
    7.7033   -3.0126    0.2369 H   0  0  0  0  0  0  0  0  0  0  0  0
    6.9179    0.7055    0.8210 H   0  0  0  0  0  0  0  0  0  0  0  0
    4.5660    1.1438   -0.5870 H   0  0  0  0  0  0  0  0  0  0  0  0
    5.1139   -2.9491   -2.7992 H   0  0  0  0  0  0  0  0  0  0  0  0
    3.6606   -3.4325   -1.9139 H   0  0  0  0  0  0  0  0  0  0  0  0
    6.0794   -5.2126   -2.5883 H   0  0  0  0  0  0  0  0  0  0  0  0
    4.4490   -5.3378   -3.2762 H   0  0  0  0  0  0  0  0  0  0  0  0
    4.8645   -7.0593   -1.4667 H   0  0  0  0  0  0  0  0  0  0  0  0
    3.5124   -5.9849   -1.0772 H   0  0  0  0  0  0  0  0  0  0  0  0
    6.3788   -5.7181   -0.0272 H   0  0  0  0  0  0  0  0  0  0  0  0
    3.7766   -6.2983    1.4675 H   0  0  0  0  0  0  0  0  0  0  0  0
    6.0334   -8.1590    0.5919 H   0  0  0  0  0  0  0  0  0  0  0  0
    4.2937   -8.4965    0.6087 H   0  0  0  0  0  0  0  0  0  0  0  0
    6.1636   -9.0764    2.7459 H   0  0  0  0  0  0  0  0  0  0  0  0
    4.4056   -9.1318    2.9196 H   0  0  0  0  0  0  0  0  0  0  0  0
    6.0383   -7.1955    4.2653 H   0  0  0  0  0  0  0  0  0  0  0  0
    4.3069   -7.0080    3.9431 H   0  0  0  0  0  0  0  0  0  0  0  0
    6.5503   -6.0360    2.3423 H   0  0  0  0  0  0  0  0  0  0  0  0
    5.5363   -3.7964    1.2841 H   0  0  0  0  0  0  0  0  0  0  0  0
    3.9274   -3.9698    0.5683 H   0  0  0  0  0  0  0  0  0  0  0  0
  1  2  2  0
  1 20  1  0
  1 21  1  0
  2  3  1  0
  2 22  1  0
  3  4  1  0
  3 23  1  0
  3 24  1  0
  4  5  1  0
  4  8  1  0
  5  6  2  0
  5 25  1  0
  6  7  1  0
  6 26  1  0
  7  8  2  0
  8  9  1  0
  9 10  1  0
  9 19  1  0
 10 11  1  0
 10 27  1  0
 10 28  1  0
 11 12  1  0
 11 29  1  0
 11 30  1  0
 12 13  1  0
 12 31  1  0
 12 32  1  0
 13 14  1  0
 13 19  1  0
 13 33  1  6
 14 15  1  0
 14 18  1  0
 14 34  1  1
 15 16  1  0
 15 35  1  0
 15 36  1  0
 16 17  1  0
 16 37  1  0
 16 38  1  0
 17 18  1  0
 17 39  1  0
 17 40  1  0
 18 41  1  0
 19 42  1  0
 19 43  1  0
M  END

