
     RDKit          3D

 30 32  0  0  0  0  0  0  0  0999 V2000
    3.2023   -0.7176    0.2843 C   0  0  0  0  0  0  0  0  0  0  0  0
    4.6967   -0.6132    0.3116 C   0  0  0  0  0  0  0  0  0  0  0  0
    5.4519    0.2493   -0.4755 C   0  0  0  0  0  0  0  0  0  0  0  0
    6.8194    0.0546   -0.1623 C   0  0  0  0  0  0  0  0  0  0  0  0
    8.0035    0.7513   -0.7440 C   0  0  0  0  0  0  0  0  0  0  0  0
    6.9228   -0.8933    0.7842 N   0  0  0  0  0  0  0  0  0  0  0  0
    5.6401   -1.3437    1.1171 C   0  0  0  0  0  0  0  0  0  0  0  0
    5.4588   -2.3406    2.0876 C   0  0  0  0  0  0  0  0  0  0  0  0
    4.0817   -2.8281    2.4487 C   0  0  0  0  0  0  0  0  0  0  0  0
    6.5800   -2.9020    2.7413 C   0  0  0  0  0  0  0  0  0  0  0  0
    6.6666   -3.9071    3.7429 C   0  0  0  0  0  0  0  0  0  0  0  0
    8.0186   -4.0837    4.0343 C   0  0  0  0  0  0  0  0  0  0  0  0
    8.7270   -3.1882    3.2094 C   0  0  0  0  0  0  0  0  0  0  0  0
    7.8727   -2.4897    2.4448 N   0  0  0  0  0  0  0  0  0  0  0  0
    8.2699   -1.4009    1.4028 B   0  0  1  0  0  0  0  0  0  0  0  0
    9.0686   -1.9568    0.4130 F   0  0  0  0  0  0  0  0  0  0  0  0
    8.9279   -0.3541    2.0337 F   0  0  0  0  0  0  0  0  0  0  0  0
    2.8596   -1.7271    0.0039 H   0  0  0  0  0  0  0  0  0  0  0  0
    2.7861   -0.0113   -0.4483 H   0  0  0  0  0  0  0  0  0  0  0  0
    2.7504   -0.4864    1.2626 H   0  0  0  0  0  0  0  0  0  0  0  0
    5.0717    0.9581   -1.2095 H   0  0  0  0  0  0  0  0  0  0  0  0
    8.5744    1.2629    0.0468 H   0  0  0  0  0  0  0  0  0  0  0  0
    8.6914    0.0228   -1.2010 H   0  0  0  0  0  0  0  0  0  0  0  0
    7.6918    1.4834   -1.5006 H   0  0  0  0  0  0  0  0  0  0  0  0
    3.4571   -2.0038    2.8256 H   0  0  0  0  0  0  0  0  0  0  0  0
    4.1138   -3.6055    3.2199 H   0  0  0  0  0  0  0  0  0  0  0  0
    3.5669   -3.2451    1.5698 H   0  0  0  0  0  0  0  0  0  0  0  0
    5.8317   -4.4374    4.1953 H   0  0  0  0  0  0  0  0  0  0  0  0
    8.4557   -4.7729    4.7538 H   0  0  0  0  0  0  0  0  0  0  0  0
    9.8009   -3.0212    3.1368 H   0  0  0  0  0  0  0  0  0  0  0  0
  1  2  1  0
  1 18  1  0
  1 19  1  0
  1 20  1  0
  2  3  1  0
  2  7  2  0
  3  4  2  0
  3 21  1  0
  4  5  1  0
  4  6  1  0
  5 22  1  0
  5 23  1  0
  5 24  1  0
  6  7  1  0
  6 15  1  0
  7  8  1  0
  8  9  1  0
  8 10  2  0
  9 25  1  0
  9 26  1  0
  9 27  1  0
 10 11  1  0
 10 14  1  0
 11 12  2  0
 11 28  1  0
 12 13  1  0
 12 29  1  0
 13 14  2  0
 13 30  1  0
 14 15  1  0
 15 16  1  6
 15 17  1  0
M  CHG  2  14   1  15  -1
M  END

