
     RDKit          3D

 50 54  0  0  0  0  0  0  0  0999 V2000
    1.6398   -1.6458    1.9424 O   0  0  0  0  0  0  0  0  0  0  0  0
    2.6973   -1.2038    1.5182 C   0  0  0  0  0  0  0  0  0  0  0  0
    3.1431    0.0501    1.8055 N   0  0  0  0  0  0  0  0  0  0  0  0
    2.4047    0.9636    2.6892 C   0  0  2  0  0  0  0  0  0  0  0  0
    1.2978    1.7201    1.9364 C   0  0  0  0  0  0  0  0  0  0  0  0
    1.8830    2.8401    1.0773 C   0  0  0  0  0  0  0  0  0  0  0  0
    2.5830    3.8733    1.9636 C   0  0  0  0  0  0  0  0  0  0  0  0
    3.5031    3.2554    3.0010 C   0  0  0  0  0  0  0  0  0  0  0  0
    4.4645    4.0550    3.6447 C   0  0  0  0  0  0  0  0  0  0  0  0
    5.3019    3.5351    4.6297 C   0  0  0  0  0  0  0  0  0  0  0  0
    5.1918    2.1882    4.9952 C   0  0  0  0  0  0  0  0  0  0  0  0
    4.2454    1.3835    4.3646 C   0  0  0  0  0  0  0  0  0  0  0  0
    3.3954    1.8993    3.3705 C   0  0  0  0  0  0  0  0  0  0  0  0
    3.6244   -2.0523    0.6456 C   0  0  1  0  0  0  0  0  0  0  0  0
    4.2392   -3.2384    1.4029 C   0  0  0  0  0  0  0  0  0  0  0  0
    4.4254   -4.3154    0.3389 C   0  0  0  0  0  0  0  0  0  0  0  0
    5.1446   -5.2873    0.4391 O   0  0  0  0  0  0  0  0  0  0  0  0
    3.6056   -3.9877   -0.7329 N   0  0  0  0  0  0  0  0  0  0  0  0
    3.3623   -4.7863   -1.8778 C   0  0  0  0  0  0  0  0  0  0  0  0
    4.2052   -5.8612   -2.2191 C   0  0  0  0  0  0  0  0  0  0  0  0
    3.9638   -6.6437   -3.3627 C   0  0  0  0  0  0  0  0  0  0  0  0
    2.8747   -6.3214   -4.1508 C   0  0  0  0  0  0  0  0  0  0  0  0
    2.0369   -5.2594   -3.8153 C   0  0  0  0  0  0  0  0  0  0  0  0
    2.2424   -4.4771   -2.6946 C   0  0  0  0  0  0  0  0  0  0  0  0
    1.0233   -5.1736   -4.7303 O   0  0  0  0  0  0  0  0  0  0  0  0
    1.3466   -6.1052   -5.7609 C   0  0  0  0  0  0  0  0  0  0  0  0
    2.4049   -6.9292   -5.2868 O   0  0  0  0  0  0  0  0  0  0  0  0
    2.8639   -2.7474   -0.4998 C   0  0  0  0  0  0  0  0  0  0  0  0
    4.0374    0.3543    1.4399 H   0  0  0  0  0  0  0  0  0  0  0  0
    1.9276    0.3197    3.4443 H   0  0  0  0  0  0  0  0  0  0  0  0
    0.6007    2.1481    2.6786 H   0  0  0  0  0  0  0  0  0  0  0  0
    0.7196    0.9986    1.3403 H   0  0  0  0  0  0  0  0  0  0  0  0
    1.0972    3.3261    0.4772 H   0  0  0  0  0  0  0  0  0  0  0  0
    2.6023    2.4102    0.3569 H   0  0  0  0  0  0  0  0  0  0  0  0
    1.8150    4.4677    2.4942 H   0  0  0  0  0  0  0  0  0  0  0  0
    3.1484    4.5972    1.3535 H   0  0  0  0  0  0  0  0  0  0  0  0
    4.5522    5.1081    3.3607 H   0  0  0  0  0  0  0  0  0  0  0  0
    6.0412    4.1783    5.1140 H   0  0  0  0  0  0  0  0  0  0  0  0
    5.8398    1.7707    5.7699 H   0  0  0  0  0  0  0  0  0  0  0  0
    4.1536    0.3299    4.6447 H   0  0  0  0  0  0  0  0  0  0  0  0
    4.4318   -1.4338    0.2206 H   0  0  0  0  0  0  0  0  0  0  0  0
    3.5309   -3.6256    2.1557 H   0  0  0  0  0  0  0  0  0  0  0  0
    5.1912   -3.0237    1.9072 H   0  0  0  0  0  0  0  0  0  0  0  0
    5.0476   -6.0932   -1.5736 H   0  0  0  0  0  0  0  0  0  0  0  0
    4.6182   -7.4793   -3.6159 H   0  0  0  0  0  0  0  0  0  0  0  0
    1.5470   -3.6734   -2.4617 H   0  0  0  0  0  0  0  0  0  0  0  0
    1.6752   -5.5563   -6.6667 H   0  0  0  0  0  0  0  0  0  0  0  0
    0.4642   -6.7249   -5.9901 H   0  0  0  0  0  0  0  0  0  0  0  0
    1.8249   -2.9518   -0.1887 H   0  0  0  0  0  0  0  0  0  0  0  0
    2.8398   -2.1328   -1.4127 H   0  0  0  0  0  0  0  0  0  0  0  0
  1  2  2  0
  2  3  1  0
  2 14  1  0
  3  4  1  0
  3 29  1  0
  4  5  1  0
  4 13  1  0
  4 30  1  1
  5  6  1  0
  5 31  1  0
  5 32  1  0
  6  7  1  0
  6 33  1  0
  6 34  1  0
  7  8  1  0
  7 35  1  0
  7 36  1  0
  8  9  2  0
  8 13  1  0
  9 10  1  0
  9 37  1  0
 10 11  2  0
 10 38  1  0
 11 12  1  0
 11 39  1  0
 12 13  2  0
 12 40  1  0
 14 15  1  0
 14 28  1  0
 14 41  1  6
 15 16  1  0
 15 42  1  0
 15 43  1  0
 16 17  2  0
 16 18  1  0
 18 19  1  0
 18 28  1  0
 19 20  2  0
 19 24  1  0
 20 21  1  0
 20 44  1  0
 21 22  2  0
 21 45  1  0
 22 23  1  0
 22 27  1  0
 23 24  2  0
 23 25  1  0
 24 46  1  0
 25 26  1  0
 26 27  1  0
 26 47  1  0
 26 48  1  0
 28 49  1  0
 28 50  1  0
M  END

