
     RDKit          3D

 67 68  0  0  0  0  0  0  0  0999 V2000
    3.5282    1.1380   -1.1677 C   0  0  0  0  0  0  0  0  0  0  0  0
    3.0603    0.4902    0.1500 C   0  0  1  0  0  0  0  0  0  0  0  0
    3.6820    1.2128    1.3608 C   0  0  0  0  0  0  0  0  0  0  0  0
    1.5277    0.5529    0.2406 C   0  0  0  0  0  0  0  0  0  0  0  0
    3.4055   -0.9457    0.1684 N   0  0  0  0  0  0  0  0  0  0  0  0
    4.6159   -1.5204    0.1619 C   0  0  0  0  0  0  0  0  0  0  0  0
    5.7233   -0.7722    0.0202 O   0  0  0  0  0  0  0  0  0  0  0  0
    6.8317   -1.6124    0.0496 C   0  0  0  0  0  0  0  0  0  0  0  0
    8.1204   -1.0097   -0.1199 C   0  0  0  0  0  0  0  0  0  0  0  0
    8.3462    0.3147   -0.3166 C   0  0  0  0  0  0  0  0  0  0  0  0
    9.6461    0.9653   -0.4807 C   0  0  0  0  0  0  0  0  0  0  0  0
   10.8757    0.2703   -0.4431 C   0  0  0  0  0  0  0  0  0  0  0  0
   12.0855    0.9409   -0.6075 C   0  0  0  0  0  0  0  0  0  0  0  0
   12.1087    2.3263   -0.8142 C   0  0  0  0  0  0  0  0  0  0  0  0
   10.9031    3.0324   -0.8540 C   0  0  0  0  0  0  0  0  0  0  0  0
    9.6912    2.3605   -0.6894 C   0  0  0  0  0  0  0  0  0  0  0  0
    6.3967   -2.9163    0.2049 C   0  0  0  0  0  0  0  0  0  0  0  0
    7.2451   -4.1366    0.1067 C   0  0  0  0  0  0  0  0  0  0  0  0
    6.9004   -5.1533   -0.4484 O   0  0  0  0  0  0  0  0  0  0  0  0
    8.4480   -3.9470    0.6872 O   0  0  0  0  0  0  0  0  0  0  0  0
    9.4926   -4.9814    0.6892 C   0  0  1  0  0  0  0  0  0  0  0  0
    9.9022   -5.3270   -0.7465 C   0  0  0  0  0  0  0  0  0  0  0  0
   10.6446   -4.3033    1.4338 C   0  0  0  0  0  0  0  0  0  0  0  0
    9.0041   -6.2111    1.4620 C   0  0  0  0  0  0  0  0  0  0  0  0
    4.9536   -2.8747    0.2900 C   0  0  0  0  0  0  0  0  0  0  0  0
    3.9275   -3.8666    0.5891 C   0  0  0  0  0  0  0  0  0  0  0  0
    2.7274   -3.6017    0.5252 O   0  0  0  0  0  0  0  0  0  0  0  0
    4.4169   -5.0467    0.9731 O   0  0  0  0  0  0  0  0  0  0  0  0
    3.5816   -6.2326    1.1836 C   0  0  1  0  0  0  0  0  0  0  0  0
    2.8191   -6.5681   -0.1026 C   0  0  0  0  0  0  0  0  0  0  0  0
    4.6124   -7.3191    1.4963 C   0  0  0  0  0  0  0  0  0  0  0  0
    2.6422   -6.0093    2.3736 C   0  0  0  0  0  0  0  0  0  0  0  0
    3.2284    2.1974   -1.1987 H   0  0  0  0  0  0  0  0  0  0  0  0
    3.0766    0.6261   -2.0317 H   0  0  0  0  0  0  0  0  0  0  0  0
    4.6211    1.0885   -1.2718 H   0  0  0  0  0  0  0  0  0  0  0  0
    3.3853    2.2734    1.3646 H   0  0  0  0  0  0  0  0  0  0  0  0
    4.7799    1.1663    1.3348 H   0  0  0  0  0  0  0  0  0  0  0  0
    3.3392    0.7561    2.3024 H   0  0  0  0  0  0  0  0  0  0  0  0
    1.1877    1.5988    0.2277 H   0  0  0  0  0  0  0  0  0  0  0  0
    1.1677    0.0881    1.1723 H   0  0  0  0  0  0  0  0  0  0  0  0
    1.0607    0.0315   -0.6102 H   0  0  0  0  0  0  0  0  0  0  0  0
    2.6690   -1.6495    0.2652 H   0  0  0  0  0  0  0  0  0  0  0  0
    8.9473   -1.7173   -0.0634 H   0  0  0  0  0  0  0  0  0  0  0  0
    7.4810    0.9831   -0.3593 H   0  0  0  0  0  0  0  0  0  0  0  0
   10.8844   -0.8098   -0.2819 H   0  0  0  0  0  0  0  0  0  0  0  0
   13.0228    0.3790   -0.5740 H   0  0  0  0  0  0  0  0  0  0  0  0
   13.0600    2.8486   -0.9425 H   0  0  0  0  0  0  0  0  0  0  0  0
   10.9062    4.1138   -1.0142 H   0  0  0  0  0  0  0  0  0  0  0  0
    8.7528    2.9212   -0.7222 H   0  0  0  0  0  0  0  0  0  0  0  0
   10.2051   -4.4189   -1.2913 H   0  0  0  0  0  0  0  0  0  0  0  0
    9.0799   -5.8073   -1.2911 H   0  0  0  0  0  0  0  0  0  0  0  0
   10.7630   -6.0138   -0.7281 H   0  0  0  0  0  0  0  0  0  0  0  0
   10.9879   -3.4072    0.8943 H   0  0  0  0  0  0  0  0  0  0  0  0
   11.4955   -4.9949    1.5291 H   0  0  0  0  0  0  0  0  0  0  0  0
   10.3272   -3.9971    2.4417 H   0  0  0  0  0  0  0  0  0  0  0  0
    8.1724   -6.7032    0.9427 H   0  0  0  0  0  0  0  0  0  0  0  0
    8.6703   -5.9212    2.4704 H   0  0  0  0  0  0  0  0  0  0  0  0
    9.8300   -6.9317    1.5690 H   0  0  0  0  0  0  0  0  0  0  0  0
    3.5220   -6.6648   -0.9444 H   0  0  0  0  0  0  0  0  0  0  0  0
    2.0818   -5.7916   -0.3432 H   0  0  0  0  0  0  0  0  0  0  0  0
    2.2932   -7.5280    0.0193 H   0  0  0  0  0  0  0  0  0  0  0  0
    5.3195   -7.4225    0.6606 H   0  0  0  0  0  0  0  0  0  0  0  0
    4.1110   -8.2844    1.6652 H   0  0  0  0  0  0  0  0  0  0  0  0
    5.1844   -7.0596    2.4002 H   0  0  0  0  0  0  0  0  0  0  0  0
    1.9108   -5.2206    2.1569 H   0  0  0  0  0  0  0  0  0  0  0  0
    3.2186   -5.7225    3.2672 H   0  0  0  0  0  0  0  0  0  0  0  0
    2.1033   -6.9428    2.6010 H   0  0  0  0  0  0  0  0  0  0  0  0
  1  2  1  0
  1 33  1  0
  1 34  1  0
  1 35  1  0
  2  3  1  0
  2  4  1  0
  2  5  1  6
  3 36  1  0
  3 37  1  0
  3 38  1  0
  4 39  1  0
  4 40  1  0
  4 41  1  0
  5  6  1  0
  5 42  1  0
  6  7  1  0
  6 25  2  0
  7  8  1  0
  8  9  1  0
  8 17  2  0
  9 10  2  0
  9 43  1  0
 10 11  1  0
 10 44  1  0
 11 12  2  0
 11 16  1  0
 12 13  1  0
 12 45  1  0
 13 14  2  0
 13 46  1  0
 14 15  1  0
 14 47  1  0
 15 16  2  0
 15 48  1  0
 16 49  1  0
 17 18  1  0
 17 25  1  0
 18 19  2  0
 18 20  1  0
 21 20  1  6
 21 22  1  0
 21 23  1  0
 21 24  1  0
 22 50  1  0
 22 51  1  0
 22 52  1  0
 23 53  1  0
 23 54  1  0
 23 55  1  0
 24 56  1  0
 24 57  1  0
 24 58  1  0
 25 26  1  0
 26 27  2  0
 26 28  1  0
 29 28  1  6
 29 30  1  0
 29 31  1  0
 29 32  1  0
 30 59  1  0
 30 60  1  0
 30 61  1  0
 31 62  1  0
 31 63  1  0
 31 64  1  0
 32 65  1  0
 32 66  1  0
 32 67  1  0
M  END

