
     RDKit          3D

 44 46  0  0  0  0  0  0  0  0999 V2000
    1.3547   -1.3892   -1.5246 C   0  0  0  0  0  0  0  0  0  0  0  0
    2.4730   -1.0317   -0.6571 N   0  0  0  0  0  0  0  0  0  0  0  0
    2.4926    0.2405   -0.0804 C   0  0  0  0  0  0  0  0  0  0  0  0
    1.6142    1.0523   -0.2869 O   0  0  0  0  0  0  0  0  0  0  0  0
    3.6694    0.4925    0.8386 C   0  0  0  0  0  0  0  0  0  0  0  0
    4.9585   -0.2063    0.3510 C   0  0  1  0  0  0  0  0  0  0  0  0
    5.4738    0.4369   -0.9597 C   0  0  0  0  0  0  0  0  0  0  0  0
    6.0497   -0.0881    1.4286 C   0  0  0  0  0  0  0  0  0  0  0  0
    6.4502    1.1701    1.9118 C   0  0  0  0  0  0  0  0  0  0  0  0
    7.4475    1.2656    2.8832 C   0  0  0  0  0  0  0  0  0  0  0  0
    8.0738    0.1284    3.3990 C   0  0  0  0  0  0  0  0  0  0  0  0
    7.6801   -1.1310    2.9196 C   0  0  0  0  0  0  0  0  0  0  0  0
    8.2466   -2.3382    3.3712 N   0  0  0  0  0  0  0  0  0  0  0  0
    9.2288   -2.5359    4.2999 C   0  0  0  0  0  0  0  0  0  0  0  0
    9.8177   -1.6737    4.9332 O   0  0  0  0  0  0  0  0  0  0  0  0
    9.5511   -3.9799    4.4966 C   0  0  0  0  0  0  0  0  0  0  0  0
   10.4830   -4.5068    5.3461 C   0  0  0  0  0  0  0  0  0  0  0  0
   10.4477   -5.8571    5.2088 O   0  0  0  0  0  0  0  0  0  0  0  0
    9.4942   -6.0859    4.2812 C   0  0  0  0  0  0  0  0  0  0  0  0
    9.2220   -7.5218    3.9122 C   0  0  1  0  0  0  0  0  0  0  0  0
    8.8357   -8.2236    4.9868 F   0  0  0  0  0  0  0  0  0  0  0  0
    8.2626   -7.5878    2.9933 F   0  0  0  0  0  0  0  0  0  0  0  0
   10.3253   -8.1046    3.4234 F   0  0  0  0  0  0  0  0  0  0  0  0
    8.9288   -5.0194    3.8230 N   0  0  0  0  0  0  0  0  0  0  0  0
    6.6737   -1.2263    1.9415 C   0  0  0  0  0  0  0  0  0  0  0  0
    4.6660   -1.6137    0.0981 N   0  0  0  0  0  0  0  0  0  0  0  0
    3.5360   -1.9301   -0.4097 C   0  0  0  0  0  0  0  0  0  0  0  0
    3.2969   -3.2246   -0.8329 N   0  0  0  0  0  0  0  0  0  0  0  0
    0.8134   -0.4656   -1.7603 H   0  0  0  0  0  0  0  0  0  0  0  0
    0.6499   -2.0772   -1.0252 H   0  0  0  0  0  0  0  0  0  0  0  0
    1.7211   -1.8608   -2.4468 H   0  0  0  0  0  0  0  0  0  0  0  0
    3.4025    0.0928    1.8332 H   0  0  0  0  0  0  0  0  0  0  0  0
    3.7745    1.5802    0.9409 H   0  0  0  0  0  0  0  0  0  0  0  0
    5.7521    1.4906   -0.8084 H   0  0  0  0  0  0  0  0  0  0  0  0
    4.7068    0.3949   -1.7496 H   0  0  0  0  0  0  0  0  0  0  0  0
    6.3605   -0.1091   -1.3131 H   0  0  0  0  0  0  0  0  0  0  0  0
    5.9862    2.0837    1.5329 H   0  0  0  0  0  0  0  0  0  0  0  0
    7.7488    2.2497    3.2518 H   0  0  0  0  0  0  0  0  0  0  0  0
    8.8513    0.2007    4.1558 H   0  0  0  0  0  0  0  0  0  0  0  0
    7.8799   -3.1879    2.9503 H   0  0  0  0  0  0  0  0  0  0  0  0
   11.1892   -4.0825    6.0527 H   0  0  0  0  0  0  0  0  0  0  0  0
    6.3597   -2.1997    1.5607 H   0  0  0  0  0  0  0  0  0  0  0  0
    4.0439   -3.8590   -0.5699 H   0  0  0  0  0  0  0  0  0  0  0  0
    2.3661   -3.6023   -0.6908 H   0  0  0  0  0  0  0  0  0  0  0  0
  1  2  1  0
  1 29  1  0
  1 30  1  0
  1 31  1  0
  2  3  1  0
  2 27  1  0
  3  4  2  0
  3  5  1  0
  5  6  1  0
  5 32  1  0
  5 33  1  0
  6  7  1  6
  6  8  1  0
  6 26  1  0
  7 34  1  0
  7 35  1  0
  7 36  1  0
  8  9  2  0
  8 25  1  0
  9 10  1  0
  9 37  1  0
 10 11  2  0
 10 38  1  0
 11 12  1  0
 11 39  1  0
 12 13  1  0
 12 25  2  0
 13 14  1  0
 13 40  1  0
 14 15  2  0
 14 16  1  0
 16 17  2  0
 16 24  1  0
 17 18  1  0
 17 41  1  0
 18 19  1  0
 19 20  1  0
 19 24  2  0
 20 21  1  1
 20 22  1  0
 20 23  1  0
 25 42  1  0
 26 27  2  0
 27 28  1  0
 28 43  1  0
 28 44  1  0
M  END

