
     RDKit          3D

 50 54  0  0  0  0  0  0  0  0999 V2000
    5.6831    0.1842    4.4200 C   0  0  0  0  0  0  0  0  0  0  0  0
    4.6238    0.4041    3.5220 O   0  0  0  0  0  0  0  0  0  0  0  0
    4.7922    1.5242    2.6767 C   0  0  0  0  0  0  0  0  0  0  0  0
    5.7447    1.2784    1.5389 C   0  0  0  0  0  0  0  0  0  0  0  0
    5.3505    0.7889    0.3280 N   0  0  0  0  0  0  0  0  0  0  0  0
    6.4836    0.6696   -0.3416 C   0  0  0  0  0  0  0  0  0  0  0  0
    7.5167    1.0848    0.4407 N   0  0  0  0  0  0  0  0  0  0  0  0
    7.0563    1.4707    1.6475 N   0  0  0  0  0  0  0  0  0  0  0  0
    8.9362    1.0501    0.1109 C   0  0  0  0  0  0  0  0  0  0  0  0
    9.1110    0.9988   -1.4102 C   0  0  2  0  0  0  0  0  0  0  0  0
    8.8941    2.3184   -1.9869 N   0  0  0  0  0  0  0  0  0  0  0  0
    9.4808    2.6515   -3.1953 C   0  0  0  0  0  0  0  0  0  0  0  0
   10.2655    1.8981   -3.7593 O   0  0  0  0  0  0  0  0  0  0  0  0
    9.1314    3.8754   -3.7177 N   0  0  0  0  0  0  0  0  0  0  0  0
    9.8461    4.3935   -4.8799 C   0  0  0  0  0  0  0  0  0  0  0  0
    9.0108    5.5991   -5.3469 C   0  0  2  0  0  0  0  0  0  0  0  0
    9.8051    6.9195   -5.4730 C   0  0  1  0  0  0  0  0  0  0  0  0
    8.9210    8.0125   -6.1117 C   0  0  0  0  0  0  0  0  0  0  0  0
    7.9704    8.3557   -4.9277 C   0  0  0  0  0  0  0  0  0  0  0  0
    8.4981    7.3960   -3.8385 C   0  0  2  0  0  0  0  0  0  0  0  0
    9.9042    7.3495   -4.1081 O   0  0  0  0  0  0  0  0  0  0  0  0
    8.0548    5.9487   -4.1510 C   0  0  2  0  0  0  0  0  0  0  0  0
    8.3790    4.9238   -3.0446 C   0  0  0  0  0  0  0  0  0  0  0  0
    8.1886   -0.0834   -2.0128 C   0  0  0  0  0  0  0  0  0  0  0  0
    6.7052    0.2236   -1.7547 C   0  0  0  0  0  0  0  0  0  0  0  0
    5.4336   -0.7106    5.0094 H   0  0  0  0  0  0  0  0  0  0  0  0
    5.8153    1.0395    5.1146 H   0  0  0  0  0  0  0  0  0  0  0  0
    6.6484    0.0170    3.9066 H   0  0  0  0  0  0  0  0  0  0  0  0
    5.1362    2.4038    3.2552 H   0  0  0  0  0  0  0  0  0  0  0  0
    3.8016    1.7428    2.2533 H   0  0  0  0  0  0  0  0  0  0  0  0
    9.3942    0.1612    0.5755 H   0  0  0  0  0  0  0  0  0  0  0  0
    9.4148    1.9417    0.5405 H   0  0  0  0  0  0  0  0  0  0  0  0
   10.1528    0.7304   -1.6354 H   0  0  0  0  0  0  0  0  0  0  0  0
    8.1647    2.9016   -1.5975 H   0  0  0  0  0  0  0  0  0  0  0  0
    9.9429    3.6044   -5.6378 H   0  0  0  0  0  0  0  0  0  0  0  0
   10.8698    4.7082   -4.6027 H   0  0  0  0  0  0  0  0  0  0  0  0
    8.4560    5.3629   -6.2663 H   0  0  0  0  0  0  0  0  0  0  0  0
   10.8107    6.8162   -5.9027 H   0  0  0  0  0  0  0  0  0  0  0  0
    8.3922    7.6567   -7.0084 H   0  0  0  0  0  0  0  0  0  0  0  0
    9.5324    8.8793   -6.4007 H   0  0  0  0  0  0  0  0  0  0  0  0
    6.9072    8.1903   -5.1574 H   0  0  0  0  0  0  0  0  0  0  0  0
    8.0884    9.4003   -4.6061 H   0  0  0  0  0  0  0  0  0  0  0  0
    8.3289    7.7222   -2.8030 H   0  0  0  0  0  0  0  0  0  0  0  0
    6.9938    5.8947   -4.4336 H   0  0  0  0  0  0  0  0  0  0  0  0
    7.4545    4.5237   -2.5947 H   0  0  0  0  0  0  0  0  0  0  0  0
    8.9707    5.3952   -2.2353 H   0  0  0  0  0  0  0  0  0  0  0  0
    8.4553   -1.0564   -1.5649 H   0  0  0  0  0  0  0  0  0  0  0  0
    8.3895   -0.1598   -3.0907 H   0  0  0  0  0  0  0  0  0  0  0  0
    6.0665   -0.6480   -1.9631 H   0  0  0  0  0  0  0  0  0  0  0  0
    6.3575    1.0218   -2.4342 H   0  0  0  0  0  0  0  0  0  0  0  0
  1  2  1  0
  1 26  1  0
  1 27  1  0
  1 28  1  0
  2  3  1  0
  3  4  1  0
  3 29  1  0
  3 30  1  0
  4  5  1  0
  4  8  2  0
  5  6  2  0
  6  7  1  0
  6 25  1  0
  7  8  1  0
  7  9  1  0
  9 10  1  0
  9 31  1  0
  9 32  1  0
 10 11  1  0
 10 24  1  0
 10 33  1  1
 11 12  1  0
 11 34  1  0
 12 13  2  0
 12 14  1  0
 14 15  1  0
 14 23  1  0
 15 16  1  0
 15 35  1  0
 15 36  1  0
 16 17  1  0
 16 22  1  0
 16 37  1  6
 17 18  1  0
 17 21  1  0
 17 38  1  6
 18 19  1  0
 18 39  1  0
 18 40  1  0
 19 20  1  0
 19 41  1  0
 19 42  1  0
 20 21  1  0
 20 22  1  0
 20 43  1  1
 22 23  1  0
 22 44  1  6
 23 45  1  0
 23 46  1  0
 24 25  1  0
 24 47  1  0
 24 48  1  0
 25 49  1  0
 25 50  1  0
M  END

