
     RDKit          3D

 24 25  0  0  0  0  0  0  0  0999 V2000
    1.5713   -0.4090    1.2186 N   0  0  0  0  0  0  0  0  0  0  0  0
    2.6128   -0.2265    0.7381 C   0  0  0  0  0  0  0  0  0  0  0  0
    3.8939    0.0560    0.1620 C   0  0  0  0  0  0  0  0  0  0  0  0
    4.4022    1.3712    0.2110 C   0  0  0  0  0  0  0  0  0  0  0  0
    5.6361    1.6854   -0.3412 C   0  0  0  0  0  0  0  0  0  0  0  0
    6.4098    0.6834   -0.9571 C   0  0  0  0  0  0  0  0  0  0  0  0
    7.9930    1.1878   -1.5924 S   0  0  0  0  0  0  0  0  0  0  0  0
    8.5831   -0.2318   -2.5021 C   0  0  0  0  0  0  0  0  0  0  0  0
    9.6513   -0.9714   -1.9687 C   0  0  0  0  0  0  0  0  0  0  0  0
   10.2195   -2.0296   -2.6801 C   0  0  0  0  0  0  0  0  0  0  0  0
    9.7176   -2.3642   -3.9405 C   0  0  0  0  0  0  0  0  0  0  0  0
    8.6554   -1.6427   -4.4893 C   0  0  0  0  0  0  0  0  0  0  0  0
    8.0940   -0.5759   -3.7798 C   0  0  0  0  0  0  0  0  0  0  0  0
    6.7737    0.3010   -4.5018 Cl  0  0  0  0  0  0  0  0  0  0  0  0
    5.9233   -0.6302   -1.0119 C   0  0  0  0  0  0  0  0  0  0  0  0
    4.6792   -0.9362   -0.4615 C   0  0  0  0  0  0  0  0  0  0  0  0
    4.0576   -2.7283   -0.5605 Br  0  0  0  0  0  0  0  0  0  0  0  0
    3.8025    2.1486    0.6883 H   0  0  0  0  0  0  0  0  0  0  0  0
    6.0035    2.7134   -0.3008 H   0  0  0  0  0  0  0  0  0  0  0  0
   10.0296   -0.7015   -0.9806 H   0  0  0  0  0  0  0  0  0  0  0  0
   11.0499   -2.5923   -2.2479 H   0  0  0  0  0  0  0  0  0  0  0  0
   10.1523   -3.1924   -4.5054 H   0  0  0  0  0  0  0  0  0  0  0  0
    8.2554   -1.8938   -5.4730 H   0  0  0  0  0  0  0  0  0  0  0  0
    6.5091   -1.4213   -1.4790 H   0  0  0  0  0  0  0  0  0  0  0  0
  1  2  3  0
  2  3  1  0
  3  4  2  0
  3 16  1  0
  4  5  1  0
  4 18  1  0
  5  6  2  0
  5 19  1  0
  6  7  1  0
  6 15  1  0
  7  8  1  0
  8  9  2  0
  8 13  1  0
  9 10  1  0
  9 20  1  0
 10 11  2  0
 10 21  1  0
 11 12  1  0
 11 22  1  0
 12 13  2  0
 12 23  1  0
 13 14  1  0
 15 16  2  0
 15 24  1  0
 16 17  1  0
M  END

