
     RDKit          3D

 32 34  0  0  0  0  0  0  0  0999 V2000
    2.0719   -1.2176    1.8642 O   0  0  0  0  0  0  0  0  0  0  0  0
    1.5315   -0.1393    1.6780 N   0  0  0  0  0  0  0  0  0  0  0  0
    0.3402    0.0192    1.4641 O   0  0  0  0  0  0  0  0  0  0  0  0
    2.3847    1.0658    1.7143 C   0  0  0  0  0  0  0  0  0  0  0  0
    3.7544    0.9237    1.9586 C   0  0  0  0  0  0  0  0  0  0  0  0
    4.5533    2.0596    1.9916 C   0  0  0  0  0  0  0  0  0  0  0  0
    3.9947    3.3393    1.7825 C   0  0  0  0  0  0  0  0  0  0  0  0
    4.8408    4.5392    1.8203 C   0  0  0  0  0  0  0  0  0  0  0  0
    6.1043    4.4583    2.0499 N   0  0  0  0  0  0  0  0  0  0  0  0
    6.6837    5.6985    2.0382 O   0  0  0  0  0  0  0  0  0  0  0  0
    5.7102    6.7229    1.6983 C   0  0  1  0  0  0  0  0  0  0  0  0
    6.1267    7.4334    0.4245 C   0  0  0  0  0  0  0  0  0  0  0  0
    7.1343    6.9214   -0.4041 C   0  0  0  0  0  0  0  0  0  0  0  0
    7.5139    7.5686   -1.5808 C   0  0  0  0  0  0  0  0  0  0  0  0
    6.8800    8.7604   -1.9401 C   0  0  0  0  0  0  0  0  0  0  0  0
    7.3430    9.5867   -3.4061 Cl  0  0  0  0  0  0  0  0  0  0  0  0
    5.8761    9.3060   -1.1362 C   0  0  0  0  0  0  0  0  0  0  0  0
    5.5138    8.6355    0.0332 C   0  0  0  0  0  0  0  0  0  0  0  0
    4.2495    9.3361    1.0306 Cl  0  0  0  0  0  0  0  0  0  0  0  0
    4.3678    5.9602    1.6144 C   0  0  0  0  0  0  0  0  0  0  0  0
    2.6123    3.4478    1.5393 C   0  0  0  0  0  0  0  0  0  0  0  0
    1.8016    2.3139    1.5040 C   0  0  0  0  0  0  0  0  0  0  0  0
    4.1664   -0.0725    2.1176 H   0  0  0  0  0  0  0  0  0  0  0  0
    5.6244    1.9765    2.1805 H   0  0  0  0  0  0  0  0  0  0  0  0
    5.7051    7.4447    2.5291 H   0  0  0  0  0  0  0  0  0  0  0  0
    7.6351    6.0002   -0.1033 H   0  0  0  0  0  0  0  0  0  0  0  0
    8.2999    7.1568   -2.2152 H   0  0  0  0  0  0  0  0  0  0  0  0
    5.3835   10.2377   -1.4131 H   0  0  0  0  0  0  0  0  0  0  0  0
    3.8634    6.0929    0.6454 H   0  0  0  0  0  0  0  0  0  0  0  0
    3.6588    6.2674    2.3990 H   0  0  0  0  0  0  0  0  0  0  0  0
    2.1583    4.4268    1.3753 H   0  0  0  0  0  0  0  0  0  0  0  0
    0.7302    2.3786    1.3173 H   0  0  0  0  0  0  0  0  0  0  0  0
  1  2  2  0
  2  3  1  0
  2  4  1  0
  4  5  2  0
  4 22  1  0
  5  6  1  0
  5 23  1  0
  6  7  2  0
  6 24  1  0
  7  8  1  0
  7 21  1  0
  8  9  2  0
  8 20  1  0
  9 10  1  0
 10 11  1  0
 11 12  1  0
 11 20  1  0
 11 25  1  1
 12 13  2  0
 12 18  1  0
 13 14  1  0
 13 26  1  0
 14 15  2  0
 14 27  1  0
 15 16  1  0
 15 17  1  0
 17 18  2  0
 17 28  1  0
 18 19  1  0
 20 29  1  0
 20 30  1  0
 21 22  2  0
 21 31  1  0
 22 32  1  0
M  CHG  2   2   1   3  -1
M  END

