
     RDKit          3D

 47 49  0  0  0  0  0  0  0  0999 V2000
    0.8516    0.0704   -0.7252 C   0  0  0  0  0  0  0  0  0  0  0  0
    2.1099   -0.1410   -1.3264 O   0  0  0  0  0  0  0  0  0  0  0  0
    2.6518   -1.3820   -1.3234 C   0  0  0  0  0  0  0  0  0  0  0  0
    3.9069   -1.5154   -1.9427 C   0  0  0  0  0  0  0  0  0  0  0  0
    4.5355   -2.7525   -1.9856 C   0  0  0  0  0  0  0  0  0  0  0  0
    3.9474   -3.9047   -1.4179 C   0  0  0  0  0  0  0  0  0  0  0  0
    4.6598   -5.1793   -1.4957 C   0  0  0  0  0  0  0  0  0  0  0  0
    4.2801   -6.3831   -1.0232 C   0  0  0  0  0  0  0  0  0  0  0  0
    5.1583   -7.5709   -1.2102 C   0  0  0  0  0  0  0  0  0  0  0  0
    6.2403   -7.5265   -1.7868 O   0  0  0  0  0  0  0  0  0  0  0  0
    4.6646   -8.7314   -0.6769 N   0  0  0  0  0  0  0  0  0  0  0  0
    5.3678   -9.9883   -0.8109 C   0  0  1  0  0  0  0  0  0  0  0  0
    6.2714  -10.2940    0.4007 C   0  0  0  0  0  0  0  0  0  0  0  0
    4.3286  -11.0911   -0.9779 C   0  0  0  0  0  0  0  0  0  0  0  0
    3.2042  -10.9929   -0.5215 O   0  0  0  0  0  0  0  0  0  0  0  0
    4.6855  -12.2686   -1.6303 N   0  0  0  0  0  0  0  0  0  0  0  0
    5.8116  -12.6042   -2.3695 C   0  0  0  0  0  0  0  0  0  0  0  0
    6.9199  -11.9350   -2.4277 N   0  0  0  0  0  0  0  0  0  0  0  0
    7.8334  -12.5210   -3.2809 C   0  0  0  0  0  0  0  0  0  0  0  0
    9.1579  -11.8906   -3.4906 C   0  0  1  0  0  0  0  0  0  0  0  0
    9.3099  -10.3818   -3.4402 C   0  0  0  0  0  0  0  0  0  0  0  0
    9.8821  -11.2199   -2.3379 C   0  0  0  0  0  0  0  0  0  0  0  0
    7.4028  -13.6813   -3.8710 C   0  0  0  0  0  0  0  0  0  0  0  0
    5.7804  -14.0596   -3.3620 S   0  0  0  0  0  0  0  0  0  0  0  0
    2.6907   -3.7494   -0.8029 C   0  0  0  0  0  0  0  0  0  0  0  0
    2.0454   -2.5147   -0.7507 C   0  0  0  0  0  0  0  0  0  0  0  0
    0.6207    1.1367   -0.8506 H   0  0  0  0  0  0  0  0  0  0  0  0
    0.8660   -0.1676    0.3536 H   0  0  0  0  0  0  0  0  0  0  0  0
    0.0584   -0.5264   -1.2105 H   0  0  0  0  0  0  0  0  0  0  0  0
    4.3652   -0.6276   -2.3829 H   0  0  0  0  0  0  0  0  0  0  0  0
    5.5114   -2.8406   -2.4708 H   0  0  0  0  0  0  0  0  0  0  0  0
    5.6305   -5.1612   -2.0045 H   0  0  0  0  0  0  0  0  0  0  0  0
    3.3315   -6.5245   -0.4956 H   0  0  0  0  0  0  0  0  0  0  0  0
    3.7436   -8.7662   -0.2524 H   0  0  0  0  0  0  0  0  0  0  0  0
    6.0066   -9.9281   -1.7002 H   0  0  0  0  0  0  0  0  0  0  0  0
    5.6749  -10.3528    1.3248 H   0  0  0  0  0  0  0  0  0  0  0  0
    7.0087   -9.4848    0.5037 H   0  0  0  0  0  0  0  0  0  0  0  0
    6.8140  -11.2399    0.2599 H   0  0  0  0  0  0  0  0  0  0  0  0
    3.9165  -12.9338   -1.6460 H   0  0  0  0  0  0  0  0  0  0  0  0
    9.7829  -12.4212   -4.2143 H   0  0  0  0  0  0  0  0  0  0  0  0
    8.4169   -9.7912   -3.2177 H   0  0  0  0  0  0  0  0  0  0  0  0
    9.9939   -9.9241   -4.1605 H   0  0  0  0  0  0  0  0  0  0  0  0
    9.3690  -11.2053   -1.3729 H   0  0  0  0  0  0  0  0  0  0  0  0
   10.9664  -11.3523   -2.2799 H   0  0  0  0  0  0  0  0  0  0  0  0
    7.9367  -14.3297   -4.5623 H   0  0  0  0  0  0  0  0  0  0  0  0
    2.1972   -4.6127   -0.3508 H   0  0  0  0  0  0  0  0  0  0  0  0
    1.0727   -2.4433   -0.2635 H   0  0  0  0  0  0  0  0  0  0  0  0
  1  2  1  0
  1 27  1  0
  1 28  1  0
  1 29  1  0
  2  3  1  0
  3  4  2  0
  3 26  1  0
  4  5  1  0
  4 30  1  0
  5  6  2  0
  5 31  1  0
  6  7  1  0
  6 25  1  0
  7  8  2  0
  7 32  1  0
  8  9  1  0
  8 33  1  0
  9 10  2  0
  9 11  1  0
 11 12  1  0
 11 34  1  0
 12 13  1  0
 12 14  1  0
 12 35  1  6
 13 36  1  0
 13 37  1  0
 13 38  1  0
 14 15  2  0
 14 16  1  0
 16 17  1  0
 16 39  1  0
 17 18  2  0
 17 24  1  0
 18 19  1  0
 19 20  1  0
 19 23  2  0
 20 21  1  0
 20 22  1  0
 20 40  1  6
 21 22  1  0
 21 41  1  0
 21 42  1  0
 22 43  1  0
 22 44  1  0
 23 24  1  0
 23 45  1  0
 25 26  2  0
 25 46  1  0
 26 47  1  0
M  END

