
     RDKit          3D

 32 33  0  0  0  0  0  0  0  0999 V2000
    1.1550   -0.0754   -0.0385 C   0  0  0  0  0  0  0  0  0  0  0  0
    2.6631    0.0015   -0.0685 C   0  0  0  0  0  0  0  0  0  0  0  0
    3.3298    1.2302   -0.1458 C   0  0  0  0  0  0  0  0  0  0  0  0
    4.7268    1.3125   -0.1723 C   0  0  0  0  0  0  0  0  0  0  0  0
    5.4014    2.6741   -0.2669 C   0  0  0  0  0  0  0  0  0  0  0  0
    4.4722    3.7517   -0.5838 N   0  0  0  0  0  0  0  0  0  0  0  0
    5.5114    0.1396   -0.0931 C   0  0  0  0  0  0  0  0  0  0  0  0
    7.0169    0.2104   -0.0303 C   0  0  0  0  0  0  0  0  0  0  0  0
    4.8374   -1.1007   -0.0601 C   0  0  0  0  0  0  0  0  0  0  0  0
    5.5776   -2.3191   -0.0272 N   0  0  0  0  0  0  0  0  0  0  0  0
    5.2317   -3.4536    0.8160 C   0  0  0  0  0  0  0  0  0  0  0  0
    6.4155   -4.3829    0.5208 C   0  0  0  0  0  0  0  0  0  0  0  0
    6.8632   -3.9851   -0.7742 O   0  0  0  0  0  0  0  0  0  0  0  0
    6.4309   -2.7173   -1.0478 C   0  0  0  0  0  0  0  0  0  0  0  0
    6.7636   -2.1010   -2.0219 O   0  0  0  0  0  0  0  0  0  0  0  0
    3.4378   -1.1618   -0.0396 C   0  0  0  0  0  0  0  0  0  0  0  0
    0.7019    0.9264   -0.0589 H   0  0  0  0  0  0  0  0  0  0  0  0
    0.7953   -0.5887    0.8693 H   0  0  0  0  0  0  0  0  0  0  0  0
    0.7630   -0.6389   -0.9021 H   0  0  0  0  0  0  0  0  0  0  0  0
    2.7627    2.1624   -0.1768 H   0  0  0  0  0  0  0  0  0  0  0  0
    6.2484    2.5943   -0.9793 H   0  0  0  0  0  0  0  0  0  0  0  0
    5.8643    2.9077    0.7103 H   0  0  0  0  0  0  0  0  0  0  0  0
    4.1623    3.6776   -1.5539 H   0  0  0  0  0  0  0  0  0  0  0  0
    4.9382    4.6536   -0.4981 H   0  0  0  0  0  0  0  0  0  0  0  0
    7.3616    1.1062    0.5056 H   0  0  0  0  0  0  0  0  0  0  0  0
    7.4633    0.2156   -1.0381 H   0  0  0  0  0  0  0  0  0  0  0  0
    7.4274   -0.6663    0.4901 H   0  0  0  0  0  0  0  0  0  0  0  0
    4.2711   -3.9153    0.5199 H   0  0  0  0  0  0  0  0  0  0  0  0
    5.1632   -3.1677    1.8765 H   0  0  0  0  0  0  0  0  0  0  0  0
    6.1433   -5.4472    0.4937 H   0  0  0  0  0  0  0  0  0  0  0  0
    7.2351   -4.2418    1.2472 H   0  0  0  0  0  0  0  0  0  0  0  0
    2.9439   -2.1364   -0.0156 H   0  0  0  0  0  0  0  0  0  0  0  0
  1  2  1  0
  1 17  1  0
  1 18  1  0
  1 19  1  0
  2  3  2  0
  2 16  1  0
  3  4  1  0
  3 20  1  0
  4  5  1  0
  4  7  2  0
  5  6  1  0
  5 21  1  0
  5 22  1  0
  6 23  1  0
  6 24  1  0
  7  8  1  0
  7  9  1  0
  8 25  1  0
  8 26  1  0
  8 27  1  0
  9 10  1  0
  9 16  2  0
 10 11  1  0
 10 14  1  0
 11 12  1  0
 11 28  1  0
 11 29  1  0
 12 13  1  0
 12 30  1  0
 12 31  1  0
 13 14  1  0
 14 15  2  0
 16 32  1  0
M  END

