
     RDKit          3D

 45 47  0  0  0  0  0  0  0  0999 V2000
    1.9950   -1.3305    0.1919 C   0  0  0  0  0  0  0  0  0  0  0  0
    2.1794    0.1736    0.3932 C   0  0  0  0  0  0  0  0  0  0  0  0
    2.9279    0.8037   -0.6917 N   0  0  0  0  0  0  0  0  0  0  0  0
    2.2130    0.9723   -1.9480 C   0  0  0  0  0  0  0  0  0  0  0  0
    1.2531    2.1767   -1.9777 C   0  0  0  0  0  0  0  0  0  0  0  0
    1.9313    3.3926   -1.5515 N   0  0  0  0  0  0  0  0  0  0  0  0
    1.4895    4.6444   -1.9546 C   0  0  0  0  0  0  0  0  0  0  0  0
    0.4535    4.8312   -2.9057 C   0  0  0  0  0  0  0  0  0  0  0  0
    0.0987    6.1141   -3.3020 C   0  0  0  0  0  0  0  0  0  0  0  0
    0.7669    7.2177   -2.7412 C   0  0  0  0  0  0  0  0  0  0  0  0
    0.5091    8.5647   -3.0619 N   0  0  0  0  0  0  0  0  0  0  0  0
   -0.4431    9.0707   -3.9112 C   0  0  0  0  0  0  0  0  0  0  0  0
   -1.2583    8.3807   -4.5049 O   0  0  0  0  0  0  0  0  0  0  0  0
   -0.4386   10.5731   -4.0603 C   0  0  0  0  0  0  0  0  0  0  0  0
   -1.6247   11.1763   -4.5071 C   0  0  0  0  0  0  0  0  0  0  0  0
   -1.6914   12.5601   -4.6757 C   0  0  0  0  0  0  0  0  0  0  0  0
   -0.5759   13.3631   -4.4186 C   0  0  0  0  0  0  0  0  0  0  0  0
    0.6004   12.7497   -3.9945 C   0  0  0  0  0  0  0  0  0  0  0  0
    1.6856   13.5027   -3.7630 F   0  0  0  0  0  0  0  0  0  0  0  0
    0.6893   11.3720   -3.8126 C   0  0  0  0  0  0  0  0  0  0  0  0
    1.7567    6.9332   -1.7889 C   0  0  0  0  0  0  0  0  0  0  0  0
    2.1002    5.7104   -1.4107 N   0  0  0  0  0  0  0  0  0  0  0  0
    2.6947    3.2702   -0.3087 C   0  0  0  0  0  0  0  0  0  0  0  0
    3.6140    2.0456   -0.3558 C   0  0  0  0  0  0  0  0  0  0  0  0
    1.4912   -1.7768    1.0644 H   0  0  0  0  0  0  0  0  0  0  0  0
    2.9706   -1.8229    0.0575 H   0  0  0  0  0  0  0  0  0  0  0  0
    1.3778   -1.5594   -0.6917 H   0  0  0  0  0  0  0  0  0  0  0  0
    2.7555    0.3357    1.3193 H   0  0  0  0  0  0  0  0  0  0  0  0
    1.1858    0.6416    0.5740 H   0  0  0  0  0  0  0  0  0  0  0  0
    1.6496    0.0578   -2.1884 H   0  0  0  0  0  0  0  0  0  0  0  0
    2.9586    1.1107   -2.7518 H   0  0  0  0  0  0  0  0  0  0  0  0
    0.3597    1.9785   -1.3469 H   0  0  0  0  0  0  0  0  0  0  0  0
    0.8952    2.2922   -3.0097 H   0  0  0  0  0  0  0  0  0  0  0  0
   -0.0870    3.9878   -3.3322 H   0  0  0  0  0  0  0  0  0  0  0  0
   -0.6962    6.2774   -4.0267 H   0  0  0  0  0  0  0  0  0  0  0  0
    1.0573    9.2382   -2.5405 H   0  0  0  0  0  0  0  0  0  0  0  0
   -2.4819   10.5358   -4.7188 H   0  0  0  0  0  0  0  0  0  0  0  0
   -2.6209   13.0237   -5.0148 H   0  0  0  0  0  0  0  0  0  0  0  0
   -0.5993   14.4468   -4.5479 H   0  0  0  0  0  0  0  0  0  0  0  0
    1.6541   10.9559   -3.5151 H   0  0  0  0  0  0  0  0  0  0  0  0
    2.2978    7.7608   -1.3065 H   0  0  0  0  0  0  0  0  0  0  0  0
    2.0019    3.1931    0.5566 H   0  0  0  0  0  0  0  0  0  0  0  0
    3.2752    4.1899   -0.1732 H   0  0  0  0  0  0  0  0  0  0  0  0
    4.1248    1.9315    0.6138 H   0  0  0  0  0  0  0  0  0  0  0  0
    4.3945    2.2237   -1.1180 H   0  0  0  0  0  0  0  0  0  0  0  0
  1  2  1  0
  1 25  1  0
  1 26  1  0
  1 27  1  0
  2  3  1  0
  2 28  1  0
  2 29  1  0
  3  4  1  0
  3 24  1  0
  4  5  1  0
  4 30  1  0
  4 31  1  0
  5  6  1  0
  5 32  1  0
  5 33  1  0
  6  7  1  0
  6 23  1  0
  7  8  2  0
  7 22  1  0
  8  9  1  0
  8 34  1  0
  9 10  2  0
  9 35  1  0
 10 11  1  0
 10 21  1  0
 11 12  1  0
 11 36  1  0
 12 13  2  0
 12 14  1  0
 14 15  2  0
 14 20  1  0
 15 16  1  0
 15 37  1  0
 16 17  2  0
 16 38  1  0
 17 18  1  0
 17 39  1  0
 18 19  1  0
 18 20  2  0
 20 40  1  0
 21 22  2  0
 21 41  1  0
 23 24  1  0
 23 42  1  0
 23 43  1  0
 24 44  1  0
 24 45  1  0
M  END

