
     RDKit          3D

 28 28  0  0  0  0  0  0  0  0999 V2000
    2.7634   -1.0517    1.1189 C   0  0  0  0  0  0  0  0  0  0  0  0
    2.4971    0.0253    0.0574 C   0  0  1  0  0  0  0  0  0  0  0  0
    1.0738    0.2274   -0.2338 N   0  0  0  0  0  0  0  0  0  0  0  0
    3.1320    1.4166    0.3730 C   0  0  1  0  0  0  0  0  0  0  0  0
    2.6906    2.0092    1.7218 C   0  0  0  0  0  0  0  0  0  0  0  0
    4.6615    1.3713    0.3345 C   0  0  0  0  0  0  0  0  0  0  0  0
    5.3027    0.7846    1.1809 O   0  0  0  0  0  0  0  0  0  0  0  0
    5.3887    2.1316   -0.7536 C   0  0  0  0  0  0  0  0  0  0  0  0
    6.5459    2.8767   -0.4563 C   0  0  0  0  0  0  0  0  0  0  0  0
    6.9596    2.9614    0.8076 F   0  0  0  0  0  0  0  0  0  0  0  0
    7.2620    3.5724   -1.4277 C   0  0  0  0  0  0  0  0  0  0  0  0
    6.8337    3.5182   -2.7556 C   0  0  0  0  0  0  0  0  0  0  0  0
    5.6975    2.7856   -3.1048 C   0  0  0  0  0  0  0  0  0  0  0  0
    5.0006    2.1178   -2.1023 C   0  0  0  0  0  0  0  0  0  0  0  0
    3.9196    1.4045   -2.4559 F   0  0  0  0  0  0  0  0  0  0  0  0
    2.3626   -2.0199    0.7757 H   0  0  0  0  0  0  0  0  0  0  0  0
    2.2607   -0.8044    2.0689 H   0  0  0  0  0  0  0  0  0  0  0  0
    3.8352   -1.1726    1.3309 H   0  0  0  0  0  0  0  0  0  0  0  0
    2.9541   -0.3067   -0.8899 H   0  0  0  0  0  0  0  0  0  0  0  0
    0.5492    0.3289    0.6370 H   0  0  0  0  0  0  0  0  0  0  0  0
    0.6936   -0.6050   -0.6850 H   0  0  0  0  0  0  0  0  0  0  0  0
    2.7739    2.0747   -0.4299 H   0  0  0  0  0  0  0  0  0  0  0  0
    3.0761    1.4181    2.5648 H   0  0  0  0  0  0  0  0  0  0  0  0
    1.5925    2.0541    1.7859 H   0  0  0  0  0  0  0  0  0  0  0  0
    3.0654    3.0386    1.8379 H   0  0  0  0  0  0  0  0  0  0  0  0
    8.1410    4.1438   -1.1256 H   0  0  0  0  0  0  0  0  0  0  0  0
    7.3918    4.0530   -3.5274 H   0  0  0  0  0  0  0  0  0  0  0  0
    5.3432    2.7167   -4.1344 H   0  0  0  0  0  0  0  0  0  0  0  0
  1  2  1  0
  1 16  1  0
  1 17  1  0
  1 18  1  0
  2  3  1  0
  2  4  1  0
  2 19  1  6
  3 20  1  0
  3 21  1  0
  4  5  1  0
  4  6  1  0
  4 22  1  6
  5 23  1  0
  5 24  1  0
  5 25  1  0
  6  7  2  0
  6  8  1  0
  8  9  2  0
  8 14  1  0
  9 10  1  0
  9 11  1  0
 11 12  2  0
 11 26  1  0
 12 13  1  0
 12 27  1  0
 13 14  2  0
 13 28  1  0
 14 15  1  0
M  END

