
     RDKit          3D

 42 43  0  0  0  0  0  0  0  0999 V2000
    6.9042    0.9542   -4.2409 C   0  0  0  0  0  0  0  0  0  0  0  0
    6.1364   -0.2247   -4.3391 O   0  0  0  0  0  0  0  0  0  0  0  0
    5.5663   -0.7423   -3.2238 C   0  0  0  0  0  0  0  0  0  0  0  0
    5.6876   -0.1940   -1.9390 C   0  0  0  0  0  0  0  0  0  0  0  0
    5.0489   -0.8234   -0.8620 C   0  0  0  0  0  0  0  0  0  0  0  0
    4.2949   -1.9798   -1.0456 C   0  0  0  0  0  0  0  0  0  0  0  0
    4.1714   -2.5363   -2.3319 C   0  0  0  0  0  0  0  0  0  0  0  0
    3.3749   -3.8297   -2.5605 C   0  0  1  0  0  0  0  0  0  0  0  0
    4.2092   -4.9719   -2.1781 N   0  0  0  0  0  0  0  0  0  0  0  0
    3.8917   -5.6870   -1.1789 C   0  0  0  0  0  0  0  0  0  0  0  0
    4.8754   -7.0611   -0.6052 S   0  0  0  0  0  0  0  0  0  0  0  0
    6.3732   -6.9037   -1.6845 C   0  0  1  0  0  0  0  0  0  0  0  0
    7.3396   -5.8505   -1.1485 C   0  0  0  0  0  0  0  0  0  0  0  0
    7.0024   -8.2908   -1.8164 C   0  0  0  0  0  0  0  0  0  0  0  0
    2.7334   -5.5207   -0.4287 N   0  0  0  0  0  0  0  0  0  0  0  0
    1.7367   -4.6513   -0.8469 C   0  0  0  0  0  0  0  0  0  0  0  0
    0.4462   -4.7656   -0.0844 C   0  0  0  0  0  0  0  0  0  0  0  0
    1.9958   -3.8135   -1.8916 C   0  0  0  0  0  0  0  0  0  0  0  0
    0.9289   -2.9286   -2.4261 C   0  0  0  0  0  0  0  0  0  0  0  0
   -0.2518   -3.0433   -2.1837 O   0  0  0  0  0  0  0  0  0  0  0  0
    1.3355   -1.9407   -3.2607 O   0  0  0  0  0  0  0  0  0  0  0  0
    4.8071   -1.9136   -3.4084 C   0  0  0  0  0  0  0  0  0  0  0  0
    7.2563    1.1834   -5.2556 H   0  0  0  0  0  0  0  0  0  0  0  0
    7.7799    0.8207   -3.5803 H   0  0  0  0  0  0  0  0  0  0  0  0
    6.3052    1.8052   -3.8695 H   0  0  0  0  0  0  0  0  0  0  0  0
    6.2661    0.7133   -1.7656 H   0  0  0  0  0  0  0  0  0  0  0  0
    5.1443   -0.3897    0.1370 H   0  0  0  0  0  0  0  0  0  0  0  0
    3.7943   -2.4517   -0.1976 H   0  0  0  0  0  0  0  0  0  0  0  0
    3.2295   -3.9063   -3.6537 H   0  0  0  0  0  0  0  0  0  0  0  0
    5.9683   -6.5683   -2.6504 H   0  0  0  0  0  0  0  0  0  0  0  0
    7.7151   -6.1218   -0.1487 H   0  0  0  0  0  0  0  0  0  0  0  0
    6.8548   -4.8660   -1.0903 H   0  0  0  0  0  0  0  0  0  0  0  0
    8.2055   -5.7606   -1.8269 H   0  0  0  0  0  0  0  0  0  0  0  0
    7.3498   -8.6751   -0.8429 H   0  0  0  0  0  0  0  0  0  0  0  0
    7.8798   -8.2344   -2.4811 H   0  0  0  0  0  0  0  0  0  0  0  0
    6.2958   -9.0194   -2.2413 H   0  0  0  0  0  0  0  0  0  0  0  0
    2.5401   -6.1626    0.3304 H   0  0  0  0  0  0  0  0  0  0  0  0
    0.6206   -5.2340    0.8977 H   0  0  0  0  0  0  0  0  0  0  0  0
   -0.2766   -5.3801   -0.6443 H   0  0  0  0  0  0  0  0  0  0  0  0
   -0.0298   -3.7880    0.0506 H   0  0  0  0  0  0  0  0  0  0  0  0
    2.2983   -1.8175   -3.2327 H   0  0  0  0  0  0  0  0  0  0  0  0
    4.7392   -2.3269   -4.4180 H   0  0  0  0  0  0  0  0  0  0  0  0
  1  2  1  0
  1 23  1  0
  1 24  1  0
  1 25  1  0
  2  3  1  0
  3  4  2  0
  3 22  1  0
  4  5  1  0
  4 26  1  0
  5  6  2  0
  5 27  1  0
  6  7  1  0
  6 28  1  0
  7  8  1  0
  7 22  2  0
  8  9  1  0
  8 18  1  0
  8 29  1  6
  9 10  2  0
 10 11  1  0
 10 15  1  0
 11 12  1  0
 12 13  1  0
 12 14  1  0
 12 30  1  6
 13 31  1  0
 13 32  1  0
 13 33  1  0
 14 34  1  0
 14 35  1  0
 14 36  1  0
 15 16  1  0
 15 37  1  0
 16 17  1  0
 16 18  2  0
 17 38  1  0
 17 39  1  0
 17 40  1  0
 18 19  1  0
 19 20  2  0
 19 21  1  0
 21 41  1  0
 22 42  1  0
M  END

