
     RDKit          3D

 56 59  0  0  0  0  0  0  0  0999 V2000
    3.0184   -1.6360   -0.7301 C   0  0  0  0  0  0  0  0  0  0  0  0
    4.0505   -0.5864   -0.3293 C   0  0  0  0  0  0  0  0  0  0  0  0
    4.8353   -0.8069    0.5810 O   0  0  0  0  0  0  0  0  0  0  0  0
    4.0585    0.5985   -1.0295 N   0  0  0  0  0  0  0  0  0  0  0  0
    3.1529    0.9562   -2.1115 C   0  0  0  0  0  0  0  0  0  0  0  0
    2.4056    2.2637   -1.8008 C   0  0  0  0  0  0  0  0  0  0  0  0
    3.3584    3.4197   -1.4342 C   0  0  2  0  0  0  0  0  0  0  0  0
    4.0482    3.9831   -2.6972 C   0  0  0  0  0  0  0  0  0  0  0  0
    4.9390    5.1014   -2.4567 N   0  0  0  0  0  0  0  0  0  0  0  0
    6.3102    4.9447   -2.4834 C   0  0  0  0  0  0  0  0  0  0  0  0
    6.8286    3.8544   -2.7014 O   0  0  0  0  0  0  0  0  0  0  0  0
    7.0708    6.0853   -2.2687 N   0  0  0  0  0  0  0  0  0  0  0  0
    8.5054    5.9318   -2.0396 C   0  0  0  0  0  0  0  0  0  0  0  0
    9.3183    6.8646   -2.9391 C   0  0  0  0  0  0  0  0  0  0  0  0
    8.8507    8.3153   -2.7940 C   0  0  0  0  0  0  0  0  0  0  0  0
    7.3335    8.4123   -3.0434 C   0  0  2  0  0  0  0  0  0  0  0  0
    6.8340    9.8205   -2.9149 C   0  0  0  0  0  0  0  0  0  0  0  0
    5.8284   10.1528   -2.1447 N   0  0  0  0  0  0  0  0  0  0  0  0
    5.7062   11.5286   -2.3411 O   0  0  0  0  0  0  0  0  0  0  0  0
    6.6616   11.8847   -3.2162 C   0  0  0  0  0  0  0  0  0  0  0  0
    6.7753   13.2918   -3.6159 C   0  0  1  0  0  0  0  0  0  0  0  0
    5.5303   14.1547   -3.7473 C   0  0  0  0  0  0  0  0  0  0  0  0
    6.4764   14.3987   -2.6171 C   0  0  0  0  0  0  0  0  0  0  0  0
    7.3871   10.8759   -3.6048 N   0  0  0  0  0  0  0  0  0  0  0  0
    6.5575    7.4386   -2.1350 C   0  0  0  0  0  0  0  0  0  0  0  0
    4.3368    2.9512   -0.3389 C   0  0  0  0  0  0  0  0  0  0  0  0
    5.0365    1.6339   -0.6902 C   0  0  0  0  0  0  0  0  0  0  0  0
    3.1744   -2.5057   -0.0808 H   0  0  0  0  0  0  0  0  0  0  0  0
    3.1335   -1.9482   -1.7802 H   0  0  0  0  0  0  0  0  0  0  0  0
    1.9863   -1.2740   -0.5972 H   0  0  0  0  0  0  0  0  0  0  0  0
    2.4308    0.1497   -2.2832 H   0  0  0  0  0  0  0  0  0  0  0  0
    3.7304    1.0647   -3.0501 H   0  0  0  0  0  0  0  0  0  0  0  0
    1.7226    2.0798   -0.9539 H   0  0  0  0  0  0  0  0  0  0  0  0
    1.7763    2.5384   -2.6654 H   0  0  0  0  0  0  0  0  0  0  0  0
    2.7453    4.2392   -1.0142 H   0  0  0  0  0  0  0  0  0  0  0  0
    3.2631    4.2937   -3.4104 H   0  0  0  0  0  0  0  0  0  0  0  0
    4.6530    3.2139   -3.1950 H   0  0  0  0  0  0  0  0  0  0  0  0
    4.5387    5.9376   -2.0538 H   0  0  0  0  0  0  0  0  0  0  0  0
    8.7538    4.8797   -2.2195 H   0  0  0  0  0  0  0  0  0  0  0  0
    8.7305    6.1598   -0.9774 H   0  0  0  0  0  0  0  0  0  0  0  0
    9.2074    6.5402   -3.9884 H   0  0  0  0  0  0  0  0  0  0  0  0
   10.3878    6.7791   -2.6857 H   0  0  0  0  0  0  0  0  0  0  0  0
    9.3816    8.9836   -3.4887 H   0  0  0  0  0  0  0  0  0  0  0  0
    9.0689    8.6783   -1.7727 H   0  0  0  0  0  0  0  0  0  0  0  0
    7.1514    8.1063   -4.0907 H   0  0  0  0  0  0  0  0  0  0  0  0
    7.5863   13.4505   -4.3290 H   0  0  0  0  0  0  0  0  0  0  0  0
    4.5719   13.6803   -3.5210 H   0  0  0  0  0  0  0  0  0  0  0  0
    5.5082   14.8608   -4.5815 H   0  0  0  0  0  0  0  0  0  0  0  0
    6.1682   14.0919   -1.6143 H   0  0  0  0  0  0  0  0  0  0  0  0
    7.1253   15.2778   -2.6498 H   0  0  0  0  0  0  0  0  0  0  0  0
    5.4980    7.4829   -2.4119 H   0  0  0  0  0  0  0  0  0  0  0  0
    6.6296    7.7874   -1.0862 H   0  0  0  0  0  0  0  0  0  0  0  0
    3.7736    2.8147    0.6006 H   0  0  0  0  0  0  0  0  0  0  0  0
    5.0943    3.7269   -0.1445 H   0  0  0  0  0  0  0  0  0  0  0  0
    5.6234    1.2592    0.1567 H   0  0  0  0  0  0  0  0  0  0  0  0
    5.7265    1.7910   -1.5382 H   0  0  0  0  0  0  0  0  0  0  0  0
  1  2  1  0
  1 28  1  0
  1 29  1  0
  1 30  1  0
  2  3  2  0
  2  4  1  0
  4  5  1  0
  4 27  1  0
  5  6  1  0
  5 31  1  0
  5 32  1  0
  6  7  1  0
  6 33  1  0
  6 34  1  0
  7  8  1  0
  7 26  1  0
  7 35  1  1
  8  9  1  0
  8 36  1  0
  8 37  1  0
  9 10  1  0
  9 38  1  0
 10 11  2  0
 10 12  1  0
 12 13  1  0
 12 25  1  0
 13 14  1  0
 13 39  1  0
 13 40  1  0
 14 15  1  0
 14 41  1  0
 14 42  1  0
 15 16  1  0
 15 43  1  0
 15 44  1  0
 16 17  1  0
 16 25  1  0
 16 45  1  6
 17 18  2  0
 17 24  1  0
 18 19  1  0
 19 20  1  0
 20 21  1  0
 20 24  2  0
 21 22  1  0
 21 23  1  0
 21 46  1  6
 22 23  1  0
 22 47  1  0
 22 48  1  0
 23 49  1  0
 23 50  1  0
 25 51  1  0
 25 52  1  0
 26 27  1  0
 26 53  1  0
 26 54  1  0
 27 55  1  0
 27 56  1  0
M  END

