
     RDKit          3D

 45 46  0  0  0  0  0  0  0  0999 V2000
    3.3772    4.2463   -0.9246 N   0  0  0  0  0  0  0  0  0  0  0  0
    4.0528    3.4801   -0.3783 C   0  0  0  0  0  0  0  0  0  0  0  0
    4.9345    2.5213    0.2885 C   0  0  0  0  0  0  0  0  0  0  0  0
    6.4267    2.8358    0.0472 C   0  0  0  0  0  0  0  0  0  0  0  0
    7.3025    1.8269    0.6429 N   0  0  0  0  0  0  0  0  0  0  0  0
    8.0359    0.9346   -0.2444 C   0  0  0  0  0  0  0  0  0  0  0  0
    9.3718    1.5519   -0.7266 C   0  0  0  0  0  0  0  0  0  0  0  0
   10.1282    0.6342   -1.5783 C   0  0  0  0  0  0  0  0  0  0  0  0
   10.7026   -0.1218   -2.2424 N   0  0  0  0  0  0  0  0  0  0  0  0
    7.5346    1.9392    1.9947 C   0  0  0  0  0  0  0  0  0  0  0  0
    7.0039    2.8020    2.6682 O   0  0  0  0  0  0  0  0  0  0  0  0
    8.4450    0.8948    2.6674 C   0  0  0  0  0  0  0  0  0  0  0  0
    9.0656    1.4533    3.8159 O   0  0  0  0  0  0  0  0  0  0  0  0
   10.0014    2.3814    3.5685 C   0  0  0  0  0  0  0  0  0  0  0  0
   10.3342    2.7161    2.4556 O   0  0  0  0  0  0  0  0  0  0  0  0
   10.5657    2.9887    4.8389 C   0  0  0  0  0  0  0  0  0  0  0  0
   10.7112    2.0556    5.9447 N   0  0  0  0  0  0  0  0  0  0  0  0
   10.0129    2.3681    7.1099 C   0  0  0  0  0  0  0  0  0  0  0  0
    9.3039    3.3509    7.1939 O   0  0  0  0  0  0  0  0  0  0  0  0
   10.2190    1.4351    8.2876 C   0  0  0  0  0  0  0  0  0  0  0  0
   10.0640   -0.3097    7.7897 S   0  0  0  0  0  0  0  0  0  0  0  0
   11.3367   -0.2573    6.5562 C   0  0  0  0  0  0  0  0  0  0  0  0
   12.1215   -1.3944    6.3257 C   0  0  0  0  0  0  0  0  0  0  0  0
   13.1023   -1.3996    5.3334 C   0  0  0  0  0  0  0  0  0  0  0  0
   13.3178   -0.2446    4.5793 C   0  0  0  0  0  0  0  0  0  0  0  0
   12.5493    0.8989    4.8063 C   0  0  0  0  0  0  0  0  0  0  0  0
   11.5367    0.9114    5.7829 C   0  0  0  0  0  0  0  0  0  0  0  0
    4.6920    1.5086   -0.0744 H   0  0  0  0  0  0  0  0  0  0  0  0
    4.7361    2.5453    1.3713 H   0  0  0  0  0  0  0  0  0  0  0  0
    6.6578    3.8194    0.4805 H   0  0  0  0  0  0  0  0  0  0  0  0
    6.6295    2.8813   -1.0323 H   0  0  0  0  0  0  0  0  0  0  0  0
    7.3989    0.7024   -1.1112 H   0  0  0  0  0  0  0  0  0  0  0  0
    8.2260   -0.0284    0.2486 H   0  0  0  0  0  0  0  0  0  0  0  0
    9.9845    1.8396    0.1443 H   0  0  0  0  0  0  0  0  0  0  0  0
    9.1760    2.4788   -1.2907 H   0  0  0  0  0  0  0  0  0  0  0  0
    9.2118    0.4833    1.9996 H   0  0  0  0  0  0  0  0  0  0  0  0
    7.8167    0.0727    3.0412 H   0  0  0  0  0  0  0  0  0  0  0  0
    9.8548    3.7579    5.1799 H   0  0  0  0  0  0  0  0  0  0  0  0
   11.5084    3.4919    4.5800 H   0  0  0  0  0  0  0  0  0  0  0  0
    9.4383    1.6562    9.0253 H   0  0  0  0  0  0  0  0  0  0  0  0
   11.2066    1.6086    8.7474 H   0  0  0  0  0  0  0  0  0  0  0  0
   11.9549   -2.2808    6.9426 H   0  0  0  0  0  0  0  0  0  0  0  0
   13.7015   -2.2964    5.1613 H   0  0  0  0  0  0  0  0  0  0  0  0
   14.0918   -0.2234    3.8088 H   0  0  0  0  0  0  0  0  0  0  0  0
   12.7392    1.7862    4.2026 H   0  0  0  0  0  0  0  0  0  0  0  0
  1  2  3  0
  2  3  1  0
  3  4  1  0
  3 28  1  0
  3 29  1  0
  4  5  1  0
  4 30  1  0
  4 31  1  0
  5  6  1  0
  5 10  1  0
  6  7  1  0
  6 32  1  0
  6 33  1  0
  7  8  1  0
  7 34  1  0
  7 35  1  0
  8  9  3  0
 10 11  2  0
 10 12  1  0
 12 13  1  0
 12 36  1  0
 12 37  1  0
 13 14  1  0
 14 15  2  0
 14 16  1  0
 16 17  1  0
 16 38  1  0
 16 39  1  0
 17 18  1  0
 17 27  1  0
 18 19  2  0
 18 20  1  0
 20 21  1  0
 20 40  1  0
 20 41  1  0
 21 22  1  0
 22 23  1  0
 22 27  2  0
 23 24  2  0
 23 42  1  0
 24 25  1  0
 24 43  1  0
 25 26  2  0
 25 44  1  0
 26 27  1  0
 26 45  1  0
M  END

