
     RDKit          3D

 53 55  0  0  0  0  0  0  0  0999 V2000
    1.8607   -1.9757   -2.2915 C   0  0  0  0  0  0  0  0  0  0  0  0
    3.0178   -1.2980   -1.6235 C   0  0  0  0  0  0  0  0  0  0  0  0
    3.1253   -0.0134   -1.4572 N   0  0  0  0  0  0  0  0  0  0  0  0
    4.2913    0.3268   -0.8101 C   0  0  0  0  0  0  0  0  0  0  0  0
    5.1059   -0.7221   -0.4589 C   0  0  0  0  0  0  0  0  0  0  0  0
    4.3796   -2.2178   -0.9834 S   0  0  0  0  0  0  0  0  0  0  0  0
    6.4486   -0.6080    0.2185 C   0  0  2  0  0  0  0  0  0  0  0  0
    6.6707   -1.6555    1.2198 N   0  0  0  0  0  0  0  0  0  0  0  0
    5.7472   -1.7927    2.3302 C   0  0  0  0  0  0  0  0  0  0  0  0
    7.8676   -2.3615    1.1546 C   0  0  0  0  0  0  0  0  0  0  0  0
    8.6776   -2.2057    0.2467 O   0  0  0  0  0  0  0  0  0  0  0  0
    8.0923   -3.2575    2.1728 N   0  0  0  0  0  0  0  0  0  0  0  0
    9.2717   -4.1065    2.1769 C   0  0  0  0  0  0  0  0  0  0  0  0
   10.5642   -3.3864    2.6231 C   0  0  1  0  0  0  0  0  0  0  0  0
   10.4634   -2.8048    4.0447 C   0  0  0  0  0  0  0  0  0  0  0  0
   10.4604   -3.8618    5.0499 N   0  0  0  0  0  0  0  0  0  0  0  0
   10.2261   -3.3622    6.3878 C   0  0  0  0  0  0  0  0  0  0  0  0
   11.6684   -4.6725    4.9550 C   0  0  0  0  0  0  0  0  0  0  0  0
   11.7870   -5.2766    3.5501 C   0  0  0  0  0  0  0  0  0  0  0  0
   11.7083   -4.2922    2.4758 N   0  0  0  0  0  0  0  0  0  0  0  0
   12.9637   -3.6433    2.1440 C   0  0  0  0  0  0  0  0  0  0  0  0
    6.6117    0.8178    0.7904 C   0  0  0  0  0  0  0  0  0  0  0  0
    6.1470    1.8925   -0.2007 C   0  0  0  0  0  0  0  0  0  0  0  0
    4.6513    1.7603   -0.5258 C   0  0  0  0  0  0  0  0  0  0  0  0
    1.1425   -1.2066   -2.6063 H   0  0  0  0  0  0  0  0  0  0  0  0
    1.3522   -2.6784   -1.6111 H   0  0  0  0  0  0  0  0  0  0  0  0
    2.1802   -2.5466   -3.1786 H   0  0  0  0  0  0  0  0  0  0  0  0
    7.2436   -0.7777   -0.5237 H   0  0  0  0  0  0  0  0  0  0  0  0
    4.8375   -1.2160    2.1162 H   0  0  0  0  0  0  0  0  0  0  0  0
    6.1632   -1.4258    3.2878 H   0  0  0  0  0  0  0  0  0  0  0  0
    5.4293   -2.8412    2.4661 H   0  0  0  0  0  0  0  0  0  0  0  0
    7.4222   -3.3652    2.9197 H   0  0  0  0  0  0  0  0  0  0  0  0
    9.4473   -4.4948    1.1635 H   0  0  0  0  0  0  0  0  0  0  0  0
    9.0612   -4.9540    2.8440 H   0  0  0  0  0  0  0  0  0  0  0  0
   10.7057   -2.5533    1.9185 H   0  0  0  0  0  0  0  0  0  0  0  0
    9.5343   -2.2188    4.1370 H   0  0  0  0  0  0  0  0  0  0  0  0
   11.3049   -2.0912    4.2123 H   0  0  0  0  0  0  0  0  0  0  0  0
    9.2726   -2.8108    6.4269 H   0  0  0  0  0  0  0  0  0  0  0  0
   11.0266   -2.6733    6.7469 H   0  0  0  0  0  0  0  0  0  0  0  0
   10.1630   -4.1998    7.1015 H   0  0  0  0  0  0  0  0  0  0  0  0
   11.6190   -5.4833    5.7018 H   0  0  0  0  0  0  0  0  0  0  0  0
   12.5781   -4.0705    5.1953 H   0  0  0  0  0  0  0  0  0  0  0  0
   10.9755   -6.0154    3.4270 H   0  0  0  0  0  0  0  0  0  0  0  0
   12.7345   -5.8308    3.4568 H   0  0  0  0  0  0  0  0  0  0  0  0
   13.7268   -4.4064    1.9187 H   0  0  0  0  0  0  0  0  0  0  0  0
   13.3813   -2.9828    2.9361 H   0  0  0  0  0  0  0  0  0  0  0  0
   12.8343   -3.0293    1.2387 H   0  0  0  0  0  0  0  0  0  0  0  0
    7.6692    0.9654    1.0613 H   0  0  0  0  0  0  0  0  0  0  0  0
    6.0249    0.9082    1.7222 H   0  0  0  0  0  0  0  0  0  0  0  0
    6.7321    1.7999   -1.1329 H   0  0  0  0  0  0  0  0  0  0  0  0
    6.3601    2.8953    0.2030 H   0  0  0  0  0  0  0  0  0  0  0  0
    4.3753    2.3808   -1.3938 H   0  0  0  0  0  0  0  0  0  0  0  0
    4.0395    2.1337    0.3171 H   0  0  0  0  0  0  0  0  0  0  0  0
  1  2  1  0
  1 25  1  0
  1 26  1  0
  1 27  1  0
  2  3  2  0
  2  6  1  0
  3  4  1  0
  4  5  2  0
  4 24  1  0
  5  6  1  0
  5  7  1  0
  7  8  1  0
  7 22  1  0
  7 28  1  6
  8  9  1  0
  8 10  1  0
  9 29  1  0
  9 30  1  0
  9 31  1  0
 10 11  2  0
 10 12  1  0
 12 13  1  0
 12 32  1  0
 13 14  1  0
 13 33  1  0
 13 34  1  0
 14 15  1  0
 14 20  1  0
 14 35  1  6
 15 16  1  0
 15 36  1  0
 15 37  1  0
 16 17  1  0
 16 18  1  0
 17 38  1  0
 17 39  1  0
 17 40  1  0
 18 19  1  0
 18 41  1  0
 18 42  1  0
 19 20  1  0
 19 43  1  0
 19 44  1  0
 20 21  1  0
 21 45  1  0
 21 46  1  0
 21 47  1  0
 22 23  1  0
 22 48  1  0
 22 49  1  0
 23 24  1  0
 23 50  1  0
 23 51  1  0
 24 52  1  0
 24 53  1  0
M  END

