
     RDKit          3D

 47 51  0  0  0  0  0  0  0  0999 V2000
    1.8066    0.8678   -3.9351 C   0  0  0  0  0  0  0  0  0  0  0  0
    2.9401    0.1618   -3.2333 C   0  0  0  0  0  0  0  0  0  0  0  0
    2.6580   -0.7972   -2.2250 C   0  0  0  0  0  0  0  0  0  0  0  0
    3.6653   -1.4694   -1.5529 C   0  0  0  0  0  0  0  0  0  0  0  0
    5.0108   -1.1966   -1.8760 C   0  0  0  0  0  0  0  0  0  0  0  0
    6.2230   -1.7471   -1.3333 C   0  0  0  0  0  0  0  0  0  0  0  0
    6.1436   -2.9631   -0.0785 Cl  0  0  0  0  0  0  0  0  0  0  0  0
    7.3760   -1.2419   -1.8893 C   0  0  0  0  0  0  0  0  0  0  0  0
    8.8356   -1.4840   -1.6989 C   0  0  0  0  0  0  0  0  0  0  0  0
    9.6452   -0.9338   -2.4210 O   0  0  0  0  0  0  0  0  0  0  0  0
    9.1877   -2.3555   -0.6891 N   0  0  0  0  0  0  0  0  0  0  0  0
   10.4906   -2.7258   -0.3734 C   0  0  0  0  0  0  0  0  0  0  0  0
   11.6298   -1.9492   -0.2869 C   0  0  0  0  0  0  0  0  0  0  0  0
   11.7826   -0.4766   -0.2942 C   0  0  0  0  0  0  0  0  0  0  0  0
   10.7960    0.2158   -0.0992 O   0  0  0  0  0  0  0  0  0  0  0  0
   13.1297    0.1547   -0.4959 C   0  0  0  0  0  0  0  0  0  0  0  0
   13.2633    1.5021   -0.1158 C   0  0  0  0  0  0  0  0  0  0  0  0
   14.4611    2.1871   -0.3015 C   0  0  0  0  0  0  0  0  0  0  0  0
   15.5409    1.5207   -0.8922 C   0  0  0  0  0  0  0  0  0  0  0  0
   17.1849    2.4470   -1.1565 Br  0  0  0  0  0  0  0  0  0  0  0  0
   15.4293    0.1874   -1.2947 C   0  0  0  0  0  0  0  0  0  0  0  0
   14.2264   -0.4916   -1.0907 C   0  0  0  0  0  0  0  0  0  0  0  0
   12.7231   -2.7401    0.0083 O   0  0  0  0  0  0  0  0  0  0  0  0
   12.2822   -4.0147    0.1420 C   0  0  0  0  0  0  0  0  0  0  0  0
   13.0566   -5.1318    0.4543 C   0  0  0  0  0  0  0  0  0  0  0  0
   12.3876   -6.3537    0.5245 C   0  0  0  0  0  0  0  0  0  0  0  0
   10.9990   -6.4507    0.2843 C   0  0  0  0  0  0  0  0  0  0  0  0
   10.2413   -5.3260   -0.0292 C   0  0  0  0  0  0  0  0  0  0  0  0
   10.8960   -4.0827   -0.0936 C   0  0  0  0  0  0  0  0  0  0  0  0
    7.0156   -0.0526   -3.1327 S   0  0  0  0  0  0  0  0  0  0  0  0
    5.2989   -0.2420   -2.8817 C   0  0  0  0  0  0  0  0  0  0  0  0
    4.2693    0.4336   -3.5558 C   0  0  0  0  0  0  0  0  0  0  0  0
    1.1826    1.4277   -3.2184 H   0  0  0  0  0  0  0  0  0  0  0  0
    1.1429    0.1477   -4.4427 H   0  0  0  0  0  0  0  0  0  0  0  0
    2.1740    1.5783   -4.6896 H   0  0  0  0  0  0  0  0  0  0  0  0
    1.6146   -1.0076   -1.9745 H   0  0  0  0  0  0  0  0  0  0  0  0
    3.4307   -2.2034   -0.7792 H   0  0  0  0  0  0  0  0  0  0  0  0
    8.4425   -2.8549   -0.2134 H   0  0  0  0  0  0  0  0  0  0  0  0
   12.3992    2.0029    0.3246 H   0  0  0  0  0  0  0  0  0  0  0  0
   14.5595    3.2301    0.0037 H   0  0  0  0  0  0  0  0  0  0  0  0
   16.2749   -0.3164   -1.7655 H   0  0  0  0  0  0  0  0  0  0  0  0
   14.1477   -1.5303   -1.4095 H   0  0  0  0  0  0  0  0  0  0  0  0
   14.1295   -5.0444    0.6329 H   0  0  0  0  0  0  0  0  0  0  0  0
   12.9513   -7.2576    0.7676 H   0  0  0  0  0  0  0  0  0  0  0  0
   10.5159   -7.4288    0.3416 H   0  0  0  0  0  0  0  0  0  0  0  0
    9.1693   -5.4078   -0.2255 H   0  0  0  0  0  0  0  0  0  0  0  0
    4.5086    1.1683   -4.3287 H   0  0  0  0  0  0  0  0  0  0  0  0
  1  2  1  0
  1 33  1  0
  1 34  1  0
  1 35  1  0
  2  3  2  0
  2 32  1  0
  3  4  1  0
  3 36  1  0
  4  5  2  0
  4 37  1  0
  5  6  1  0
  5 31  1  0
  6  7  1  0
  6  8  2  0
  8  9  1  0
  8 30  1  0
  9 10  2  0
  9 11  1  0
 11 12  1  0
 11 38  1  0
 12 13  2  0
 12 29  1  0
 13 14  1  0
 13 23  1  0
 14 15  2  0
 14 16  1  0
 16 17  2  0
 16 22  1  0
 17 18  1  0
 17 39  1  0
 18 19  2  0
 18 40  1  0
 19 20  1  0
 19 21  1  0
 21 22  2  0
 21 41  1  0
 22 42  1  0
 23 24  1  0
 24 25  2  0
 24 29  1  0
 25 26  1  0
 25 43  1  0
 26 27  2  0
 26 44  1  0
 27 28  1  0
 27 45  1  0
 28 29  2  0
 28 46  1  0
 30 31  1  0
 31 32  2  0
 32 47  1  0
M  END

