
     RDKit          3D

111115  0  0  0  0  0  0  0  0999 V2000
   10.3150    0.4576    4.3917 C   0  0  0  0  0  0  0  0  0  0  0  0
    9.5344    0.8568    3.1386 C   0  0  0  0  0  0  0  0  0  0  0  0
    9.9799    0.1124    1.8760 C   0  0  0  0  0  0  0  0  0  0  0  0
    9.2021    0.5064    0.6170 C   0  0  0  0  0  0  0  0  0  0  0  0
    9.6472   -0.2421   -0.6420 C   0  0  0  0  0  0  0  0  0  0  0  0
    8.8511    0.1603   -1.8898 C   0  0  0  0  0  0  0  0  0  0  0  0
    9.2676   -0.5244   -3.1014 N   0  0  0  0  0  0  0  0  0  0  0  0
    8.6707   -1.6888   -3.5180 C   0  0  0  0  0  0  0  0  0  0  0  0
    7.7478   -2.2090   -2.9116 O   0  0  0  0  0  0  0  0  0  0  0  0
    9.2120   -2.2547   -4.7915 C   0  0  0  0  0  0  0  0  0  0  0  0
    9.8596   -1.1778   -6.0088 S   0  0  0  0  0  0  0  0  0  0  0  0
   10.1267   -2.4879   -7.1289 C   0  0  0  0  0  0  0  0  0  0  0  0
   10.7076   -2.2491   -8.4342 C   0  0  0  0  0  0  0  0  0  0  0  0
   11.2835   -1.0927   -8.9341 C   0  0  0  0  0  0  0  0  0  0  0  0
   11.7449   -1.2192  -10.2661 C   0  0  0  0  0  0  0  0  0  0  0  0
   11.5342   -2.4759  -10.8093 C   0  0  0  0  0  0  0  0  0  0  0  0
   11.8752   -2.9680  -12.1283 C   0  0  0  0  0  0  0  0  0  0  0  0
   11.5295   -4.1656  -12.7250 C   0  0  0  0  0  0  0  0  0  0  0  0
   12.0255   -4.3394  -14.0540 C   0  0  0  0  0  0  0  0  0  0  0  0
   11.7168   -5.5592  -14.8400 C   0  0  0  0  0  0  0  0  0  0  0  0
   11.3006   -5.5064  -16.1775 C   0  0  0  0  0  0  0  0  0  0  0  0
   10.9738   -6.6683  -16.8788 C   0  0  0  0  0  0  0  0  0  0  0  0
   11.0489   -7.9375  -16.2820 C   0  0  0  0  0  0  0  0  0  0  0  0
   10.7035   -9.2401  -17.0289 C   0  0  1  0  0  0  0  0  0  0  0  0
   10.2638   -8.9796  -18.4809 C   0  0  0  0  0  0  0  0  0  0  0  0
   11.9477  -10.1581  -17.0586 C   0  0  0  0  0  0  0  0  0  0  0  0
    9.5489   -9.9630  -16.2971 C   0  0  0  0  0  0  0  0  0  0  0  0
   11.4648   -7.9824  -14.9387 C   0  0  0  0  0  0  0  0  0  0  0  0
   11.7867   -6.8252  -14.2318 C   0  0  0  0  0  0  0  0  0  0  0  0
   12.7636   -3.2373  -14.4722 C   0  0  0  0  0  0  0  0  0  0  0  0
   13.5358   -3.0512  -15.7386 C   0  0  0  0  0  0  0  0  0  0  0  0
   13.9833   -3.9914  -16.3756 O   0  0  0  0  0  0  0  0  0  0  0  0
   13.7305   -1.7441  -16.1122 N   0  0  0  0  0  0  0  0  0  0  0  0
   14.4688   -1.3916  -17.3126 C   0  0  0  0  0  0  0  0  0  0  0  0
   13.5883   -1.2153  -18.5560 C   0  0  0  0  0  0  0  0  0  0  0  0
   14.3868   -0.8267  -19.8029 C   0  0  0  0  0  0  0  0  0  0  0  0
   13.5255   -0.6516  -21.0571 C   0  0  0  0  0  0  0  0  0  0  0  0
   14.3219   -0.2672  -22.3079 C   0  0  0  0  0  0  0  0  0  0  0  0
   13.4552   -0.0946  -23.5560 C   0  0  0  0  0  0  0  0  0  0  0  0
   12.8565   -2.0221  -13.2168 S   0  0  0  0  0  0  0  0  0  0  0  0
   10.7450   -3.5148   -9.6425 S   0  0  0  0  0  0  0  0  0  0  0  0
    9.7054   -3.6796   -6.5702 C   0  0  0  0  0  0  0  0  0  0  0  0
    9.1807   -3.5689   -5.2454 C   0  0  0  0  0  0  0  0  0  0  0  0
    8.7130   -4.7618   -4.4975 C   0  0  0  0  0  0  0  0  0  0  0  0
    9.0608   -4.9944   -3.1596 C   0  0  0  0  0  0  0  0  0  0  0  0
    8.6421   -6.1478   -2.4942 C   0  0  0  0  0  0  0  0  0  0  0  0
    7.8552   -7.1226   -3.1292 C   0  0  0  0  0  0  0  0  0  0  0  0
    7.3691   -8.4026   -2.4226 C   0  0  1  0  0  0  0  0  0  0  0  0
    7.8528   -8.4817   -0.9634 C   0  0  0  0  0  0  0  0  0  0  0  0
    5.8228   -8.4304   -2.4207 C   0  0  0  0  0  0  0  0  0  0  0  0
    7.9043   -9.6421   -3.1766 C   0  0  0  0  0  0  0  0  0  0  0  0
    7.5127   -6.8839   -4.4727 C   0  0  0  0  0  0  0  0  0  0  0  0
    7.9326   -5.7369   -5.1437 C   0  0  0  0  0  0  0  0  0  0  0  0
    9.9685    1.0115    5.2788 H   0  0  0  0  0  0  0  0  0  0  0  0
   11.3931    0.6592    4.2741 H   0  0  0  0  0  0  0  0  0  0  0  0
   10.2039   -0.6184    4.6074 H   0  0  0  0  0  0  0  0  0  0  0  0
    9.6346    1.9451    2.9724 H   0  0  0  0  0  0  0  0  0  0  0  0
    8.4561    0.6779    3.3028 H   0  0  0  0  0  0  0  0  0  0  0  0
    9.8790   -0.9766    2.0401 H   0  0  0  0  0  0  0  0  0  0  0  0
   11.0590    0.2906    1.7097 H   0  0  0  0  0  0  0  0  0  0  0  0
    9.3032    1.5958    0.4525 H   0  0  0  0  0  0  0  0  0  0  0  0
    8.1238    0.3276    0.7835 H   0  0  0  0  0  0  0  0  0  0  0  0
    9.5331   -1.3294   -0.4917 H   0  0  0  0  0  0  0  0  0  0  0  0
   10.7236   -0.0616   -0.8207 H   0  0  0  0  0  0  0  0  0  0  0  0
    8.9317    1.2486   -2.0567 H   0  0  0  0  0  0  0  0  0  0  0  0
    7.7871   -0.0744   -1.7410 H   0  0  0  0  0  0  0  0  0  0  0  0
   10.1421   -0.2469   -3.5324 H   0  0  0  0  0  0  0  0  0  0  0  0
   11.3738   -0.1762   -8.3488 H   0  0  0  0  0  0  0  0  0  0  0  0
   12.2186   -0.4072  -10.8200 H   0  0  0  0  0  0  0  0  0  0  0  0
   10.8951   -4.9061  -12.2356 H   0  0  0  0  0  0  0  0  0  0  0  0
   11.2190   -4.5418  -16.6811 H   0  0  0  0  0  0  0  0  0  0  0  0
   10.6532   -6.5662  -17.9157 H   0  0  0  0  0  0  0  0  0  0  0  0
   11.0561   -8.4903  -19.0687 H   0  0  0  0  0  0  0  0  0  0  0  0
    9.3617   -8.3496  -18.5308 H   0  0  0  0  0  0  0  0  0  0  0  0
   10.0273   -9.9348  -18.9758 H   0  0  0  0  0  0  0  0  0  0  0  0
   12.7870   -9.6683  -17.5772 H   0  0  0  0  0  0  0  0  0  0  0  0
   11.7202  -11.0981  -17.5883 H   0  0  0  0  0  0  0  0  0  0  0  0
   12.2887  -10.4207  -16.0456 H   0  0  0  0  0  0  0  0  0  0  0  0
    8.6459   -9.3327  -16.2645 H   0  0  0  0  0  0  0  0  0  0  0  0
    9.8155  -10.2193  -15.2604 H   0  0  0  0  0  0  0  0  0  0  0  0
    9.2911  -10.9010  -16.8163 H   0  0  0  0  0  0  0  0  0  0  0  0
   11.5467   -8.9429  -14.4245 H   0  0  0  0  0  0  0  0  0  0  0  0
   12.1200   -6.9085  -13.1942 H   0  0  0  0  0  0  0  0  0  0  0  0
   13.1807   -1.0233  -15.6588 H   0  0  0  0  0  0  0  0  0  0  0  0
   15.1973   -2.1968  -17.4865 H   0  0  0  0  0  0  0  0  0  0  0  0
   15.0368   -0.4656  -17.1155 H   0  0  0  0  0  0  0  0  0  0  0  0
   12.8186   -0.4474  -18.3533 H   0  0  0  0  0  0  0  0  0  0  0  0
   13.0474   -2.1601  -18.7367 H   0  0  0  0  0  0  0  0  0  0  0  0
   15.1579   -1.5956  -19.9944 H   0  0  0  0  0  0  0  0  0  0  0  0
   14.9407    0.1109  -19.6078 H   0  0  0  0  0  0  0  0  0  0  0  0
   12.7538    0.1177  -20.8659 H   0  0  0  0  0  0  0  0  0  0  0  0
   12.9712   -1.5886  -21.2514 H   0  0  0  0  0  0  0  0  0  0  0  0
   15.0924   -1.0368  -22.4971 H   0  0  0  0  0  0  0  0  0  0  0  0
   14.8766    0.6686  -22.1113 H   0  0  0  0  0  0  0  0  0  0  0  0
   12.9164   -1.0251  -23.8018 H   0  0  0  0  0  0  0  0  0  0  0  0
   14.0601    0.1808  -24.4347 H   0  0  0  0  0  0  0  0  0  0  0  0
   12.6982    0.6949  -23.4129 H   0  0  0  0  0  0  0  0  0  0  0  0
    9.8006   -4.6373   -7.0840 H   0  0  0  0  0  0  0  0  0  0  0  0
    9.6784   -4.2691   -2.6272 H   0  0  0  0  0  0  0  0  0  0  0  0
    8.9453   -6.2770   -1.4551 H   0  0  0  0  0  0  0  0  0  0  0  0
    7.4805   -7.6386   -0.3608 H   0  0  0  0  0  0  0  0  0  0  0  0
    8.9520   -8.4930   -0.8944 H   0  0  0  0  0  0  0  0  0  0  0  0
    7.4833   -9.4091   -0.4979 H   0  0  0  0  0  0  0  0  0  0  0  0
    5.4133   -7.5582   -1.8869 H   0  0  0  0  0  0  0  0  0  0  0  0
    5.4546   -9.3413   -1.9202 H   0  0  0  0  0  0  0  0  0  0  0  0
    5.4105   -8.4211   -3.4412 H   0  0  0  0  0  0  0  0  0  0  0  0
    9.0059   -9.6513   -3.1897 H   0  0  0  0  0  0  0  0  0  0  0  0
    7.5572   -9.6698   -4.2208 H   0  0  0  0  0  0  0  0  0  0  0  0
    7.5615  -10.5687   -2.6869 H   0  0  0  0  0  0  0  0  0  0  0  0
    6.8980   -7.6057   -5.0158 H   0  0  0  0  0  0  0  0  0  0  0  0
    7.6298   -5.5850   -6.1829 H   0  0  0  0  0  0  0  0  0  0  0  0
  1  2  1  0
  1 54  1  0
  1 55  1  0
  1 56  1  0
  2  3  1  0
  2 57  1  0
  2 58  1  0
  3  4  1  0
  3 59  1  0
  3 60  1  0
  4  5  1  0
  4 61  1  0
  4 62  1  0
  5  6  1  0
  5 63  1  0
  5 64  1  0
  6  7  1  0
  6 65  1  0
  6 66  1  0
  7  8  1  0
  7 67  1  0
  8  9  2  0
  8 10  1  0
 10 11  2  0
 10 43  1  0
 11 12  1  0
 12 13  2  0
 12 42  1  0
 13 14  1  0
 13 41  1  0
 14 15  2  0
 14 68  1  0
 15 16  1  0
 15 69  1  0
 16 17  2  0
 16 41  1  0
 17 18  1  0
 17 40  1  0
 18 19  2  0
 18 70  1  0
 19 20  1  0
 19 30  1  0
 20 21  2  0
 20 29  1  0
 21 22  1  0
 21 71  1  0
 22 23  2  0
 22 72  1  0
 23 24  1  0
 23 28  1  0
 24 25  1  6
 24 26  1  0
 24 27  1  0
 25 73  1  0
 25 74  1  0
 25 75  1  0
 26 76  1  0
 26 77  1  0
 26 78  1  0
 27 79  1  0
 27 80  1  0
 27 81  1  0
 28 29  2  0
 28 82  1  0
 29 83  1  0
 30 31  2  0
 30 40  1  0
 31 32  1  0
 31 33  1  0
 33 34  1  0
 33 84  1  0
 34 35  1  0
 34 85  1  0
 34 86  1  0
 35 36  1  0
 35 87  1  0
 35 88  1  0
 36 37  1  0
 36 89  1  0
 36 90  1  0
 37 38  1  0
 37 91  1  0
 37 92  1  0
 38 39  1  0
 38 93  1  0
 38 94  1  0
 39 95  1  0
 39 96  1  0
 39 97  1  0
 42 43  2  0
 42 98  1  0
 43 44  1  0
 44 45  2  0
 44 53  1  0
 45 46  1  0
 45 99  1  0
 46 47  2  0
 46100  1  0
 47 48  1  0
 47 52  1  0
 48 49  1  1
 48 50  1  0
 48 51  1  0
 49101  1  0
 49102  1  0
 49103  1  0
 50104  1  0
 50105  1  0
 50106  1  0
 51107  1  0
 51108  1  0
 51109  1  0
 52 53  2  0
 52110  1  0
 53111  1  0
M  CHG  2  11   1  32  -1
M  END

