
     RDKit          3D

 58 61  0  0  0  0  0  0  0  0999 V2000
    1.7222    1.5083    0.4921 C   0  0  0  0  0  0  0  0  0  0  0  0
    3.1373    2.1121    0.3487 C   0  0  1  0  0  0  0  0  0  0  0  0
    3.9939    1.2914   -0.6415 C   0  0  0  0  0  0  0  0  0  0  0  0
    3.0567    3.5019   -0.0827 N   0  0  0  0  0  0  0  0  0  0  0  0
    2.5210    3.9369   -1.2407 C   0  0  0  0  0  0  0  0  0  0  0  0
    2.0306    3.2342   -2.1203 O   0  0  0  0  0  0  0  0  0  0  0  0
    2.5691    5.4490   -1.4117 C   0  0  0  0  0  0  0  0  0  0  0  0
    3.0507    6.1776   -0.4729 N   0  0  0  0  0  0  0  0  0  0  0  0
    3.0423    7.5781   -0.6799 C   0  0  0  0  0  0  0  0  0  0  0  0
    2.3065    8.2185   -1.4998 N   0  0  0  0  0  0  0  0  0  0  0  0
    1.4540    7.4162   -2.3718 C   0  0  0  0  0  0  0  0  0  0  0  0
    2.0506    6.0438   -2.6932 C   0  0  0  0  0  0  0  0  0  0  0  0
    3.8322    2.1786    1.7423 C   0  0  0  0  0  0  0  0  0  0  0  0
    4.1566    3.2326    2.2461 O   0  0  0  0  0  0  0  0  0  0  0  0
    4.0270    0.9483    2.3272 N   0  0  0  0  0  0  0  0  0  0  0  0
    4.6117    0.6604    3.5583 C   0  0  0  0  0  0  0  0  0  0  0  0
    4.9318    1.5564    4.5108 N   0  0  0  0  0  0  0  0  0  0  0  0
    5.4298    0.8036    5.4888 C   0  0  0  0  0  0  0  0  0  0  0  0
    5.9507    1.3592    6.7478 C   0  0  0  0  0  0  0  0  0  0  0  0
    5.9451    0.6628    7.9703 C   0  0  0  0  0  0  0  0  0  0  0  0
    6.4403    1.2584    9.1320 C   0  0  0  0  0  0  0  0  0  0  0  0
    6.9332    2.5592    9.0684 C   0  0  0  0  0  0  0  0  0  0  0  0
    7.4107    3.1316   10.1804 F   0  0  0  0  0  0  0  0  0  0  0  0
    6.9312    3.2838    7.8765 C   0  0  0  0  0  0  0  0  0  0  0  0
    6.4360    2.6826    6.7227 C   0  0  0  0  0  0  0  0  0  0  0  0
    5.4059   -0.5073    5.1070 N   0  0  0  0  0  0  0  0  0  0  0  0
    5.9298   -1.7104    5.7400 C   0  0  0  0  0  0  0  0  0  0  0  0
    4.9253   -2.5026    6.5604 C   0  0  0  0  0  0  0  0  0  0  0  0
    3.5894   -2.6341    6.1519 C   0  0  0  0  0  0  0  0  0  0  0  0
    2.6949   -3.4040    6.8999 C   0  0  0  0  0  0  0  0  0  0  0  0
    3.1231   -4.0582    8.0595 C   0  0  0  0  0  0  0  0  0  0  0  0
    4.4533   -3.9368    8.4698 C   0  0  0  0  0  0  0  0  0  0  0  0
    5.3470   -3.1610    7.7252 C   0  0  0  0  0  0  0  0  0  0  0  0
    4.8755   -0.6052    3.8615 N   0  0  0  0  0  0  0  0  0  0  0  0
    1.2088    1.5614   -0.4779 H   0  0  0  0  0  0  0  0  0  0  0  0
    1.1362    2.0710    1.2346 H   0  0  0  0  0  0  0  0  0  0  0  0
    1.7597    0.4539    0.8061 H   0  0  0  0  0  0  0  0  0  0  0  0
    3.5420    1.3529   -1.6409 H   0  0  0  0  0  0  0  0  0  0  0  0
    4.0462    0.2292   -0.3558 H   0  0  0  0  0  0  0  0  0  0  0  0
    5.0187    1.6899   -0.6909 H   0  0  0  0  0  0  0  0  0  0  0  0
    3.4263    4.1996    0.5678 H   0  0  0  0  0  0  0  0  0  0  0  0
    3.7082    8.1339   -0.0065 H   0  0  0  0  0  0  0  0  0  0  0  0
    1.2614    7.9856   -3.2941 H   0  0  0  0  0  0  0  0  0  0  0  0
    0.4713    7.3074   -1.8707 H   0  0  0  0  0  0  0  0  0  0  0  0
    2.9022    6.1474   -3.3935 H   0  0  0  0  0  0  0  0  0  0  0  0
    1.3364    5.3579   -3.1683 H   0  0  0  0  0  0  0  0  0  0  0  0
    3.7799    0.1215    1.7962 H   0  0  0  0  0  0  0  0  0  0  0  0
    5.5185   -0.3381    8.0388 H   0  0  0  0  0  0  0  0  0  0  0  0
    6.4344    0.7326   10.0885 H   0  0  0  0  0  0  0  0  0  0  0  0
    7.3145    4.3060    7.8691 H   0  0  0  0  0  0  0  0  0  0  0  0
    6.4096    3.2304    5.7794 H   0  0  0  0  0  0  0  0  0  0  0  0
    6.7900   -1.4240    6.3611 H   0  0  0  0  0  0  0  0  0  0  0  0
    6.3146   -2.3313    4.9157 H   0  0  0  0  0  0  0  0  0  0  0  0
    3.2548   -2.1336    5.2408 H   0  0  0  0  0  0  0  0  0  0  0  0
    1.6561   -3.4955    6.5725 H   0  0  0  0  0  0  0  0  0  0  0  0
    2.4211   -4.6597    8.6424 H   0  0  0  0  0  0  0  0  0  0  0  0
    4.7974   -4.4424    9.3756 H   0  0  0  0  0  0  0  0  0  0  0  0
    6.3861   -3.0673    8.0555 H   0  0  0  0  0  0  0  0  0  0  0  0
  1  2  1  0
  1 35  1  0
  1 36  1  0
  1 37  1  0
  2  3  1  0
  2  4  1  0
  2 13  1  1
  3 38  1  0
  3 39  1  0
  3 40  1  0
  4  5  1  0
  4 41  1  0
  5  6  2  0
  5  7  1  0
  7  8  2  0
  7 12  1  0
  8  9  1  0
  9 10  2  0
  9 42  1  0
 10 11  1  0
 11 12  1  0
 11 43  1  0
 11 44  1  0
 12 45  1  0
 12 46  1  0
 13 14  2  0
 13 15  1  0
 15 16  1  0
 15 47  1  0
 16 17  1  0
 16 34  2  0
 17 18  2  0
 18 19  1  0
 18 26  1  0
 19 20  2  0
 19 25  1  0
 20 21  1  0
 20 48  1  0
 21 22  2  0
 21 49  1  0
 22 23  1  0
 22 24  1  0
 24 25  2  0
 24 50  1  0
 25 51  1  0
 26 27  1  0
 26 34  1  0
 27 28  1  0
 27 52  1  0
 27 53  1  0
 28 29  2  0
 28 33  1  0
 29 30  1  0
 29 54  1  0
 30 31  2  0
 30 55  1  0
 31 32  1  0
 31 56  1  0
 32 33  2  0
 32 57  1  0
 33 58  1  0
M  END

