
     RDKit          3D

 42 41  0  0  0  0  0  0  0  0999 V2000
    1.2830    0.0327   -0.0385 C   0  0  0  0  0  0  0  0  0  0  0  0
    2.6538    0.2140   -0.7159 C   0  0  1  0  0  0  0  0  0  0  0  0
    2.4348    0.7360   -2.1446 C   0  0  0  0  0  0  0  0  0  0  0  0
    3.6397    1.4637    0.2709 S   0  0  0  0  0  0  0  0  0  0  0  0
    3.3691   -1.1689   -0.6591 C   0  0  0  0  0  0  0  0  0  0  0  0
    4.8723   -1.3871   -0.9995 C   0  0  1  0  0  0  0  0  0  0  0  0
    5.3513   -0.7029   -2.2827 C   0  0  0  0  0  0  0  0  0  0  0  0
    5.8046   -1.0717    0.1725 C   0  0  0  0  0  0  0  0  0  0  0  0
    4.8340   -3.2607   -1.2781 S   0  0  0  0  0  0  0  0  0  0  0  0
    6.4716   -3.8085   -1.1594 N   0  0  0  0  0  0  0  0  0  0  0  0
    6.8961   -4.6948    0.2848 S   0  0  0  0  0  0  0  0  0  0  0  0
    7.2134   -4.3105   -2.6582 S   0  0  0  0  0  0  0  0  0  0  0  0
    8.9693   -3.6204   -2.6414 C   0  0  1  0  0  0  0  0  0  0  0  0
    9.0920   -2.3287   -1.8391 C   0  0  0  0  0  0  0  0  0  0  0  0
    9.9078   -4.7017   -2.0791 C   0  0  0  0  0  0  0  0  0  0  0  0
    9.3015   -3.4222   -4.1406 C   0  0  0  0  0  0  0  0  0  0  0  0
    8.4783   -2.0481   -5.0341 S   0  0  0  0  0  0  0  0  0  0  0  0
    0.7106    0.9736   -0.0493 H   0  0  0  0  0  0  0  0  0  0  0  0
    1.3921   -0.2888    1.0074 H   0  0  0  0  0  0  0  0  0  0  0  0
    0.6882   -0.7265   -0.5755 H   0  0  0  0  0  0  0  0  0  0  0  0
    1.8098    1.6430   -2.1258 H   0  0  0  0  0  0  0  0  0  0  0  0
    1.9038   -0.0196   -2.7492 H   0  0  0  0  0  0  0  0  0  0  0  0
    3.3712    0.9888   -2.6537 H   0  0  0  0  0  0  0  0  0  0  0  0
    2.7470    2.4717    0.1302 H   0  0  0  0  0  0  0  0  0  0  0  0
    2.7721   -1.8081   -1.3385 H   0  0  0  0  0  0  0  0  0  0  0  0
    3.2115   -1.5837    0.3486 H   0  0  0  0  0  0  0  0  0  0  0  0
    5.4070    0.3889   -2.1428 H   0  0  0  0  0  0  0  0  0  0  0  0
    4.6855   -0.9198   -3.1305 H   0  0  0  0  0  0  0  0  0  0  0  0
    6.3551   -1.0566   -2.5555 H   0  0  0  0  0  0  0  0  0  0  0  0
    5.8565    0.0137    0.3467 H   0  0  0  0  0  0  0  0  0  0  0  0
    6.8233   -1.4189   -0.0516 H   0  0  0  0  0  0  0  0  0  0  0  0
    5.4669   -1.5588    1.0996 H   0  0  0  0  0  0  0  0  0  0  0  0
    7.6268   -3.7180    0.8850 H   0  0  0  0  0  0  0  0  0  0  0  0
    8.8583   -2.4971   -0.7790 H   0  0  0  0  0  0  0  0  0  0  0  0
    8.4389   -1.5381   -2.2281 H   0  0  0  0  0  0  0  0  0  0  0  0
   10.1322   -1.9654   -1.8989 H   0  0  0  0  0  0  0  0  0  0  0  0
    9.6371   -4.9516   -1.0432 H   0  0  0  0  0  0  0  0  0  0  0  0
   10.9533   -4.3469   -2.0922 H   0  0  0  0  0  0  0  0  0  0  0  0
    9.8501   -5.6278   -2.6714 H   0  0  0  0  0  0  0  0  0  0  0  0
    9.1320   -4.3630   -4.6896 H   0  0  0  0  0  0  0  0  0  0  0  0
   10.3780   -3.2017   -4.2301 H   0  0  0  0  0  0  0  0  0  0  0  0
    7.2161   -2.5046   -4.8591 H   0  0  0  0  0  0  0  0  0  0  0  0
  1  2  1  0
  1 18  1  0
  1 19  1  0
  1 20  1  0
  2  3  1  0
  2  4  1  1
  2  5  1  0
  3 21  1  0
  3 22  1  0
  3 23  1  0
  4 24  1  0
  5  6  1  0
  5 25  1  0
  5 26  1  0
  6  7  1  0
  6  8  1  0
  6  9  1  6
  7 27  1  0
  7 28  1  0
  7 29  1  0
  8 30  1  0
  8 31  1  0
  8 32  1  0
  9 10  1  0
 10 11  1  0
 10 12  1  0
 11 33  1  0
 13 12  1  6
 13 14  1  0
 13 15  1  0
 13 16  1  0
 14 34  1  0
 14 35  1  0
 14 36  1  0
 15 37  1  0
 15 38  1  0
 15 39  1  0
 16 17  1  0
 16 40  1  0
 16 41  1  0
 17 42  1  0
M  END

