
     RDKit          3D

 54 56  0  0  0  0  0  0  0  0999 V2000
    4.1468   -1.4748   -2.5629 C   0  0  0  0  0  0  0  0  0  0  0  0
    4.8853   -2.7498   -2.1937 C   0  0  0  0  0  0  0  0  0  0  0  0
    5.2311   -2.7726   -0.7937 O   0  0  0  0  0  0  0  0  0  0  0  0
    4.3211   -3.2459    0.0646 C   0  0  0  0  0  0  0  0  0  0  0  0
    3.2268   -3.6523   -0.2387 O   0  0  0  0  0  0  0  0  0  0  0  0
    4.8059   -3.1735    1.5125 C   0  0  0  0  0  0  0  0  0  0  0  0
    6.2332   -3.2502    1.6988 N   0  0  0  0  0  0  0  0  0  0  0  0
    7.1214   -2.1774    1.8638 C   0  0  0  0  0  0  0  0  0  0  0  0
    6.5484   -0.5191    1.9682 S   0  0  0  0  0  0  0  0  0  0  0  0
    6.5051   -0.0751    3.8173 C   0  0  1  0  0  0  0  0  0  0  0  0
    5.7096    1.2420    3.8348 C   0  0  0  0  0  0  0  0  0  0  0  0
    5.6810   -1.1829    4.4885 C   0  0  0  0  0  0  0  0  0  0  0  0
    4.4834   -1.1309    4.6488 O   0  0  0  0  0  0  0  0  0  0  0  0
    6.4350   -2.2369    4.8231 O   0  0  0  0  0  0  0  0  0  0  0  0
    5.7802   -3.3894    5.3897 C   0  0  0  0  0  0  0  0  0  0  0  0
    5.6655   -3.2797    6.9005 C   0  0  0  0  0  0  0  0  0  0  0  0
    7.8883    0.1368    4.4367 C   0  0  0  0  0  0  0  0  0  0  0  0
    9.0077    0.4994    3.6744 C   0  0  0  0  0  0  0  0  0  0  0  0
   10.2299    0.7964    4.2864 C   0  0  0  0  0  0  0  0  0  0  0  0
   10.3561    0.7413    5.6758 C   0  0  0  0  0  0  0  0  0  0  0  0
    9.2448    0.3930    6.4492 C   0  0  0  0  0  0  0  0  0  0  0  0
    8.0259    0.0980    5.8357 C   0  0  0  0  0  0  0  0  0  0  0  0
    8.4162   -2.6528    1.8728 C   0  0  0  0  0  0  0  0  0  0  0  0
    8.3529   -4.0726    1.7059 C   0  0  0  0  0  0  0  0  0  0  0  0
    9.3184   -5.0975    1.6385 C   0  0  0  0  0  0  0  0  0  0  0  0
    8.8985   -6.4083    1.4460 C   0  0  0  0  0  0  0  0  0  0  0  0
    7.5262   -6.7211    1.3157 C   0  0  0  0  0  0  0  0  0  0  0  0
    6.5479   -5.7330    1.3792 C   0  0  0  0  0  0  0  0  0  0  0  0
    6.9726   -4.4095    1.5840 C   0  0  0  0  0  0  0  0  0  0  0  0
    3.9709   -1.4466   -3.6502 H   0  0  0  0  0  0  0  0  0  0  0  0
    4.7338   -0.5858   -2.2851 H   0  0  0  0  0  0  0  0  0  0  0  0
    3.1705   -1.4278   -2.0581 H   0  0  0  0  0  0  0  0  0  0  0  0
    5.8487   -2.8233   -2.7178 H   0  0  0  0  0  0  0  0  0  0  0  0
    4.2799   -3.6391   -2.4229 H   0  0  0  0  0  0  0  0  0  0  0  0
    4.2970   -3.9768    2.0646 H   0  0  0  0  0  0  0  0  0  0  0  0
    4.4472   -2.2176    1.9254 H   0  0  0  0  0  0  0  0  0  0  0  0
    4.6964    1.0936    3.4390 H   0  0  0  0  0  0  0  0  0  0  0  0
    6.2318    2.0085    3.2437 H   0  0  0  0  0  0  0  0  0  0  0  0
    5.6269    1.6078    4.8693 H   0  0  0  0  0  0  0  0  0  0  0  0
    6.4126   -4.2383    5.0946 H   0  0  0  0  0  0  0  0  0  0  0  0
    4.7881   -3.4975    4.9274 H   0  0  0  0  0  0  0  0  0  0  0  0
    6.6546   -3.1336    7.3613 H   0  0  0  0  0  0  0  0  0  0  0  0
    5.2299   -4.2055    7.3093 H   0  0  0  0  0  0  0  0  0  0  0  0
    5.0114   -2.4418    7.1851 H   0  0  0  0  0  0  0  0  0  0  0  0
    8.9200    0.5482    2.5877 H   0  0  0  0  0  0  0  0  0  0  0  0
   11.0880    1.0729    3.6681 H   0  0  0  0  0  0  0  0  0  0  0  0
   11.3120    0.9693    6.1541 H   0  0  0  0  0  0  0  0  0  0  0  0
    9.3254    0.3498    7.5385 H   0  0  0  0  0  0  0  0  0  0  0  0
    7.1707   -0.1664    6.4624 H   0  0  0  0  0  0  0  0  0  0  0  0
    9.3073   -2.0441    2.0015 H   0  0  0  0  0  0  0  0  0  0  0  0
   10.3812   -4.8605    1.7341 H   0  0  0  0  0  0  0  0  0  0  0  0
    9.6367   -7.2122    1.3904 H   0  0  0  0  0  0  0  0  0  0  0  0
    7.2263   -7.7604    1.1595 H   0  0  0  0  0  0  0  0  0  0  0  0
    5.4912   -5.9856    1.2687 H   0  0  0  0  0  0  0  0  0  0  0  0
  1  2  1  0
  1 30  1  0
  1 31  1  0
  1 32  1  0
  2  3  1  0
  2 33  1  0
  2 34  1  0
  3  4  1  0
  4  5  2  0
  4  6  1  0
  6  7  1  0
  6 35  1  0
  6 36  1  0
  7  8  1  0
  7 29  1  0
  8  9  1  0
  8 23  2  0
 10  9  1  6
 10 11  1  0
 10 12  1  0
 10 17  1  0
 11 37  1  0
 11 38  1  0
 11 39  1  0
 12 13  2  0
 12 14  1  0
 14 15  1  0
 15 16  1  0
 15 40  1  0
 15 41  1  0
 16 42  1  0
 16 43  1  0
 16 44  1  0
 17 18  2  0
 17 22  1  0
 18 19  1  0
 18 45  1  0
 19 20  2  0
 19 46  1  0
 20 21  1  0
 20 47  1  0
 21 22  2  0
 21 48  1  0
 22 49  1  0
 23 24  1  0
 23 50  1  0
 24 25  1  0
 24 29  2  0
 25 26  2  0
 25 51  1  0
 26 27  1  0
 26 52  1  0
 27 28  2  0
 27 53  1  0
 28 29  1  0
 28 54  1  0
M  END

