
     RDKit          3D

 30 31  0  0  0  0  0  0  0  0999 V2000
    1.1454    0.0037    0.5796 N   0  0  0  0  0  0  0  0  0  0  0  0
    2.4840   -0.0442    0.2519 C   0  0  0  0  0  0  0  0  0  0  0  0
    3.2513    1.1472    0.2122 C   0  0  0  0  0  0  0  0  0  0  0  0
    4.6038    1.0735   -0.0706 C   0  0  0  0  0  0  0  0  0  0  0  0
    5.2747   -0.1416   -0.3218 C   0  0  0  0  0  0  0  0  0  0  0  0
    6.7277   -0.1947   -0.6053 C   0  0  0  0  0  0  0  0  0  0  0  0
    7.2889   -1.1844   -1.0949 O   0  0  0  0  0  0  0  0  0  0  0  0
    7.4651    0.9297   -0.3102 N   0  0  0  0  0  0  0  0  0  0  0  0
    8.9081    0.9436   -0.4962 C   0  0  0  0  0  0  0  0  0  0  0  0
    9.7002    0.4202    0.6779 C   0  0  0  0  0  0  0  0  0  0  0  0
    9.9322   -0.8883    1.0298 C   0  0  0  0  0  0  0  0  0  0  0  0
   10.6798   -1.0332    2.2377 C   0  0  0  0  0  0  0  0  0  0  0  0
   11.0033    0.1796    2.7927 C   0  0  0  0  0  0  0  0  0  0  0  0
   11.9891    0.4817    4.3691 Br  0  0  0  0  0  0  0  0  0  0  0  0
   10.4028    1.5088    1.8494 S   0  0  0  0  0  0  0  0  0  0  0  0
    4.4934   -1.3454   -0.3186 C   0  0  0  0  0  0  0  0  0  0  0  0
    5.0644   -2.5533   -0.5770 N   0  0  0  0  0  0  0  0  0  0  0  0
    3.1166   -1.2629   -0.0187 C   0  0  0  0  0  0  0  0  0  0  0  0
    0.6730    0.8950    0.4978 H   0  0  0  0  0  0  0  0  0  0  0  0
    0.5721   -0.7993    0.3543 H   0  0  0  0  0  0  0  0  0  0  0  0
    2.7739    2.1127    0.3952 H   0  0  0  0  0  0  0  0  0  0  0  0
    5.1618    2.0111   -0.1315 H   0  0  0  0  0  0  0  0  0  0  0  0
    7.0730    1.5996    0.3389 H   0  0  0  0  0  0  0  0  0  0  0  0
    9.2213    1.9713   -0.7396 H   0  0  0  0  0  0  0  0  0  0  0  0
    9.1209    0.3122   -1.3692 H   0  0  0  0  0  0  0  0  0  0  0  0
    9.5574   -1.7210    0.4328 H   0  0  0  0  0  0  0  0  0  0  0  0
   10.9697   -1.9883    2.6762 H   0  0  0  0  0  0  0  0  0  0  0  0
    6.0133   -2.5403   -0.9475 H   0  0  0  0  0  0  0  0  0  0  0  0
    4.4762   -3.3669   -0.6854 H   0  0  0  0  0  0  0  0  0  0  0  0
    2.5299   -2.1866   -0.0030 H   0  0  0  0  0  0  0  0  0  0  0  0
  1  2  1  0
  1 19  1  0
  1 20  1  0
  2  3  2  0
  2 18  1  0
  3  4  1  0
  3 21  1  0
  4  5  2  0
  4 22  1  0
  5  6  1  0
  5 16  1  0
  6  7  2  0
  6  8  1  0
  8  9  1  0
  8 23  1  0
  9 10  1  0
  9 24  1  0
  9 25  1  0
 10 11  2  0
 10 15  1  0
 11 12  1  0
 11 26  1  0
 12 13  2  0
 12 27  1  0
 13 14  1  0
 13 15  1  0
 16 17  1  0
 16 18  2  0
 17 28  1  0
 17 29  1  0
 18 30  1  0
M  END

