
     RDKit          3D

 50 53  0  0  0  0  0  0  0  0999 V2000
    1.3398    0.2328    0.7820 C   0  0  0  0  0  0  0  0  0  0  0  0
    2.7936    0.1584    0.3888 C   0  0  0  0  0  0  0  0  0  0  0  0
    3.3059   -0.9857   -0.2374 C   0  0  0  0  0  0  0  0  0  0  0  0
    4.6460   -1.0797   -0.6111 C   0  0  0  0  0  0  0  0  0  0  0  0
    5.5313   -0.0143   -0.3655 C   0  0  0  0  0  0  0  0  0  0  0  0
    6.9377   -0.0842   -0.7857 C   0  0  0  0  0  0  0  0  0  0  0  0
    7.8140   -1.1388   -0.8913 C   0  0  0  0  0  0  0  0  0  0  0  0
    7.8580   -2.4491   -0.5413 N   0  0  0  0  0  0  0  0  0  0  0  0
    7.1530   -3.1905    0.4205 C   0  0  0  0  0  0  0  0  0  0  0  0
    6.4857   -2.5920    1.5025 C   0  0  0  0  0  0  0  0  0  0  0  0
    5.8380   -3.3930    2.4463 C   0  0  0  0  0  0  0  0  0  0  0  0
    5.8505   -4.7856    2.3357 C   0  0  0  0  0  0  0  0  0  0  0  0
    6.5264   -5.3819    1.2648 C   0  0  0  0  0  0  0  0  0  0  0  0
    7.1701   -4.5943    0.3124 C   0  0  0  0  0  0  0  0  0  0  0  0
    9.0703   -0.6682   -1.5967 C   0  0  0  0  0  0  0  0  0  0  0  0
   10.0288   -1.3646   -1.8537 O   0  0  0  0  0  0  0  0  0  0  0  0
    8.8999    0.6713   -1.8511 N   0  0  0  0  0  0  0  0  0  0  0  0
    9.8871    1.5434   -2.4716 C   0  0  0  0  0  0  0  0  0  0  0  0
    9.7359    1.7008   -3.9777 C   0  0  0  0  0  0  0  0  0  0  0  0
    8.5708    2.2500   -4.5401 C   0  0  0  0  0  0  0  0  0  0  0  0
    8.4930    2.3746   -5.9269 C   0  0  0  0  0  0  0  0  0  0  0  0
    9.5774    1.9581   -6.7038 C   0  0  0  0  0  0  0  0  0  0  0  0
   10.6964    1.4388   -6.0481 C   0  0  0  0  0  0  0  0  0  0  0  0
   10.7766    1.3109   -4.7211 N   0  0  0  0  0  0  0  0  0  0  0  0
    7.6402    1.0988   -1.3651 C   0  0  0  0  0  0  0  0  0  0  0  0
    7.2602    2.2472   -1.4525 O   0  0  0  0  0  0  0  0  0  0  0  0
    5.0122    1.1403    0.2554 C   0  0  0  0  0  0  0  0  0  0  0  0
    3.6702    1.2423    0.6365 C   0  0  0  0  0  0  0  0  0  0  0  0
    3.1670    2.4998    1.3025 C   0  0  0  0  0  0  0  0  0  0  0  0
    0.8050   -0.6909    0.5170 H   0  0  0  0  0  0  0  0  0  0  0  0
    0.8257    1.0735    0.2851 H   0  0  0  0  0  0  0  0  0  0  0  0
    1.2182    0.3924    1.8673 H   0  0  0  0  0  0  0  0  0  0  0  0
    2.6358   -1.8255   -0.4426 H   0  0  0  0  0  0  0  0  0  0  0  0
    5.0006   -1.9786   -1.1186 H   0  0  0  0  0  0  0  0  0  0  0  0
    8.6768   -2.9103   -0.9403 H   0  0  0  0  0  0  0  0  0  0  0  0
    6.4895   -1.5093    1.6176 H   0  0  0  0  0  0  0  0  0  0  0  0
    5.3235   -2.9151    3.2837 H   0  0  0  0  0  0  0  0  0  0  0  0
    5.3422   -5.4032    3.0796 H   0  0  0  0  0  0  0  0  0  0  0  0
    6.5496   -6.4702    1.1666 H   0  0  0  0  0  0  0  0  0  0  0  0
    7.6903   -5.0612   -0.5285 H   0  0  0  0  0  0  0  0  0  0  0  0
   10.8820    1.1224   -2.2784 H   0  0  0  0  0  0  0  0  0  0  0  0
    9.7997    2.5250   -1.9808 H   0  0  0  0  0  0  0  0  0  0  0  0
    7.7548    2.5765   -3.8920 H   0  0  0  0  0  0  0  0  0  0  0  0
    7.6000    2.7974   -6.3949 H   0  0  0  0  0  0  0  0  0  0  0  0
    9.5610    2.0373   -7.7933 H   0  0  0  0  0  0  0  0  0  0  0  0
   11.5704    1.1090   -6.6225 H   0  0  0  0  0  0  0  0  0  0  0  0
    5.6772    1.9856    0.4357 H   0  0  0  0  0  0  0  0  0  0  0  0
    3.9722    3.2389    1.4211 H   0  0  0  0  0  0  0  0  0  0  0  0
    2.7480    2.2932    2.3023 H   0  0  0  0  0  0  0  0  0  0  0  0
    2.3600    2.9738    0.7179 H   0  0  0  0  0  0  0  0  0  0  0  0
  1  2  1  0
  1 30  1  0
  1 31  1  0
  1 32  1  0
  2  3  2  0
  2 28  1  0
  3  4  1  0
  3 33  1  0
  4  5  2  0
  4 34  1  0
  5  6  1  0
  5 27  1  0
  6  7  2  0
  6 25  1  0
  7  8  1  0
  7 15  1  0
  8  9  1  0
  8 35  1  0
  9 10  2  0
  9 14  1  0
 10 11  1  0
 10 36  1  0
 11 12  2  0
 11 37  1  0
 12 13  1  0
 12 38  1  0
 13 14  2  0
 13 39  1  0
 14 40  1  0
 15 16  2  0
 15 17  1  0
 17 18  1  0
 17 25  1  0
 18 19  1  0
 18 41  1  0
 18 42  1  0
 19 20  2  0
 19 24  1  0
 20 21  1  0
 20 43  1  0
 21 22  2  0
 21 44  1  0
 22 23  1  0
 22 45  1  0
 23 24  2  0
 23 46  1  0
 25 26  2  0
 27 28  2  0
 27 47  1  0
 28 29  1  0
 29 48  1  0
 29 49  1  0
 29 50  1  0
M  END

