
     RDKit          3D

 49 51  0  0  0  0  0  0  0  0999 V2000
    3.1014   -0.4891   -1.2109 C   0  0  0  0  0  0  0  0  0  0  0  0
    1.8362   -0.3388   -2.0224 C   0  0  0  0  0  0  0  0  0  0  0  0
    1.9187   -0.0204   -3.3874 C   0  0  0  0  0  0  0  0  0  0  0  0
    0.7800    0.1676   -4.1741 C   0  0  0  0  0  0  0  0  0  0  0  0
   -0.4825    0.0493   -3.5927 C   0  0  0  0  0  0  0  0  0  0  0  0
   -0.5836   -0.2687   -2.2360 C   0  0  0  0  0  0  0  0  0  0  0  0
    0.5525   -0.4780   -1.4382 C   0  0  0  0  0  0  0  0  0  0  0  0
    0.3818   -0.8413    0.0316 C   0  0  0  0  0  0  0  0  0  0  0  0
    0.5497   -2.3455    0.3153 C   0  0  0  0  0  0  0  0  0  0  0  0
    1.6732   -2.8022    0.4985 O   0  0  0  0  0  0  0  0  0  0  0  0
   -0.5628   -3.1470    0.3567 N   0  0  0  0  0  0  0  0  0  0  0  0
   -1.9517   -2.7706    0.1040 C   0  0  0  0  0  0  0  0  0  0  0  0
   -2.5181   -3.5284   -1.1069 C   0  0  0  0  0  0  0  0  0  0  0  0
   -2.3206   -5.0568   -1.0248 C   0  0  2  0  0  0  0  0  0  0  0  0
   -3.2959   -5.7107   -0.0391 C   0  0  0  0  0  0  0  0  0  0  0  0
   -3.7081   -5.1216    0.9564 O   0  0  0  0  0  0  0  0  0  0  0  0
   -3.6658   -7.0031   -0.2835 N   0  0  0  0  0  0  0  0  0  0  0  0
   -3.3082   -7.8477   -1.4303 C   0  0  0  0  0  0  0  0  0  0  0  0
   -4.2132   -9.0784   -1.2673 C   0  0  0  0  0  0  0  0  0  0  0  0
   -4.4059   -9.1773    0.2522 C   0  0  0  0  0  0  0  0  0  0  0  0
   -4.5171   -7.7116    0.6830 C   0  0  0  0  0  0  0  0  0  0  0  0
   -0.8547   -5.3814   -0.6354 C   0  0  0  0  0  0  0  0  0  0  0  0
   -0.3891   -4.5815    0.5857 C   0  0  0  0  0  0  0  0  0  0  0  0
    3.9903   -0.4331   -1.8562 H   0  0  0  0  0  0  0  0  0  0  0  0
    3.1157   -1.4373   -0.6554 H   0  0  0  0  0  0  0  0  0  0  0  0
    3.1866    0.3184   -0.4615 H   0  0  0  0  0  0  0  0  0  0  0  0
    2.9082    0.0870   -3.8411 H   0  0  0  0  0  0  0  0  0  0  0  0
    0.8817    0.4145   -5.2342 H   0  0  0  0  0  0  0  0  0  0  0  0
   -1.3863    0.2082   -4.1864 H   0  0  0  0  0  0  0  0  0  0  0  0
   -1.5760   -0.3437   -1.7833 H   0  0  0  0  0  0  0  0  0  0  0  0
   -0.5826   -0.4624    0.3944 H   0  0  0  0  0  0  0  0  0  0  0  0
    1.1631   -0.3586    0.6345 H   0  0  0  0  0  0  0  0  0  0  0  0
   -2.0274   -1.6923   -0.0679 H   0  0  0  0  0  0  0  0  0  0  0  0
   -2.5558   -3.0163    0.9908 H   0  0  0  0  0  0  0  0  0  0  0  0
   -2.0109   -3.1658   -2.0171 H   0  0  0  0  0  0  0  0  0  0  0  0
   -3.5887   -3.2896   -1.2098 H   0  0  0  0  0  0  0  0  0  0  0  0
   -2.5042   -5.4744   -2.0264 H   0  0  0  0  0  0  0  0  0  0  0  0
   -2.2405   -8.1339   -1.3998 H   0  0  0  0  0  0  0  0  0  0  0  0
   -3.4812   -7.3324   -2.3881 H   0  0  0  0  0  0  0  0  0  0  0  0
   -3.7763   -9.9819   -1.7180 H   0  0  0  0  0  0  0  0  0  0  0  0
   -5.1832   -8.8970   -1.7597 H   0  0  0  0  0  0  0  0  0  0  0  0
   -3.5206   -9.6429    0.7174 H   0  0  0  0  0  0  0  0  0  0  0  0
   -5.2845   -9.7723    0.5417 H   0  0  0  0  0  0  0  0  0  0  0  0
   -4.1718   -7.5157    1.7084 H   0  0  0  0  0  0  0  0  0  0  0  0
   -5.5571   -7.3419    0.6221 H   0  0  0  0  0  0  0  0  0  0  0  0
   -0.1993   -5.1370   -1.4883 H   0  0  0  0  0  0  0  0  0  0  0  0
   -0.7341   -6.4595   -0.4372 H   0  0  0  0  0  0  0  0  0  0  0  0
    0.6734   -4.7586    0.7886 H   0  0  0  0  0  0  0  0  0  0  0  0
   -0.9728   -4.8714    1.4768 H   0  0  0  0  0  0  0  0  0  0  0  0
  1  2  1  0
  1 24  1  0
  1 25  1  0
  1 26  1  0
  2  3  2  0
  2  7  1  0
  3  4  1  0
  3 27  1  0
  4  5  2  0
  4 28  1  0
  5  6  1  0
  5 29  1  0
  6  7  2  0
  6 30  1  0
  7  8  1  0
  8  9  1  0
  8 31  1  0
  8 32  1  0
  9 10  2  0
  9 11  1  0
 11 12  1  0
 11 23  1  0
 12 13  1  0
 12 33  1  0
 12 34  1  0
 13 14  1  0
 13 35  1  0
 13 36  1  0
 14 15  1  0
 14 22  1  0
 14 37  1  6
 15 16  2  0
 15 17  1  0
 17 18  1  0
 17 21  1  0
 18 19  1  0
 18 38  1  0
 18 39  1  0
 19 20  1  0
 19 40  1  0
 19 41  1  0
 20 21  1  0
 20 42  1  0
 20 43  1  0
 21 44  1  0
 21 45  1  0
 22 23  1  0
 22 46  1  0
 22 47  1  0
 23 48  1  0
 23 49  1  0
M  END

