
     RDKit          3D

 29 29  0  0  0  0  0  0  0  0999 V2000
    1.2562   -0.1774    0.1267 C   0  0  0  0  0  0  0  0  0  0  0  0
    2.6446    0.1185    0.3733 N   0  0  0  0  0  0  0  0  0  0  0  0
    3.1977    1.3650    0.3333 C   0  0  0  0  0  0  0  0  0  0  0  0
    2.4275    2.5120    0.0351 C   0  0  0  0  0  0  0  0  0  0  0  0
    3.1154    3.7220    0.0271 C   0  0  0  0  0  0  0  0  0  0  0  0
    2.3560    4.9638   -0.2804 N   0  0  0  0  0  0  0  0  0  0  0  0
    1.1635    4.8528   -0.5103 O   0  0  0  0  0  0  0  0  0  0  0  0
    2.9719    6.0161   -0.2837 O   0  0  0  0  0  0  0  0  0  0  0  0
    4.4698    3.8267    0.2910 C   0  0  0  0  0  0  0  0  0  0  0  0
    5.1411    2.6088    0.5778 C   0  0  0  0  0  0  0  0  0  0  0  0
    6.4776    2.6119    0.8503 N   0  0  0  0  0  0  0  0  0  0  0  0
    7.2244    1.4253    1.1539 C   0  0  0  0  0  0  0  0  0  0  0  0
    8.6701    1.7974    1.4171 C   0  0  0  0  0  0  0  0  0  0  0  0
    9.1069    2.9228    1.3726 O   0  0  0  0  0  0  0  0  0  0  0  0
    9.4027    0.7165    1.7055 O   0  0  0  0  0  0  0  0  0  0  0  0
   10.7901    0.9384    1.9743 C   0  0  0  0  0  0  0  0  0  0  0  0
    4.5165    1.4271    0.5953 N   0  0  0  0  0  0  0  0  0  0  0  0
    1.0972   -1.2600    0.2247 H   0  0  0  0  0  0  0  0  0  0  0  0
    0.9391    0.1189   -0.8901 H   0  0  0  0  0  0  0  0  0  0  0  0
    0.5858    0.3281    0.8459 H   0  0  0  0  0  0  0  0  0  0  0  0
    3.2903   -0.6275    0.5977 H   0  0  0  0  0  0  0  0  0  0  0  0
    1.3631    2.4832   -0.1786 H   0  0  0  0  0  0  0  0  0  0  0  0
    4.9738    4.7908    0.2756 H   0  0  0  0  0  0  0  0  0  0  0  0
    6.9968    3.4828    0.8534 H   0  0  0  0  0  0  0  0  0  0  0  0
    7.1937    0.6841    0.3337 H   0  0  0  0  0  0  0  0  0  0  0  0
    6.8291    0.8917    2.0381 H   0  0  0  0  0  0  0  0  0  0  0  0
   11.2200   -0.0476    2.1877 H   0  0  0  0  0  0  0  0  0  0  0  0
   10.9171    1.6067    2.8390 H   0  0  0  0  0  0  0  0  0  0  0  0
   11.2874    1.3926    1.1042 H   0  0  0  0  0  0  0  0  0  0  0  0
  1  2  1  0
  1 18  1  0
  1 19  1  0
  1 20  1  0
  2  3  1  0
  2 21  1  0
  3  4  2  0
  3 17  1  0
  4  5  1  0
  4 22  1  0
  5  6  1  0
  5  9  2  0
  6  7  2  0
  6  8  1  0
  9 10  1  0
  9 23  1  0
 10 11  1  0
 10 17  2  0
 11 12  1  0
 11 24  1  0
 12 13  1  0
 12 25  1  0
 12 26  1  0
 13 14  2  0
 13 15  1  0
 15 16  1  0
 16 27  1  0
 16 28  1  0
 16 29  1  0
M  CHG  2   6   1   8  -1
M  END

