
     RDKit          3D

 32 32  0  0  0  0  0  0  0  0999 V2000
    3.2441    1.8957   -0.6020 C   0  0  0  0  0  0  0  0  0  0  0  0
    2.9881    0.1462    0.0544 Si  0  0  1  0  0  4  0  0  0  0  0  0
    3.6294    0.0099    1.8228 C   0  0  0  0  0  0  0  0  0  0  0  0
    1.1854   -0.3617   -0.0538 C   0  0  0  0  0  0  0  0  0  0  0  0
    3.8023   -0.9556   -0.9317 O   0  0  0  0  0  0  0  0  0  0  0  0
    5.1825   -1.0031   -1.1904 C   0  0  0  0  0  0  0  0  0  0  0  0
    5.4504   -2.1868   -2.1085 C   0  0  0  0  0  0  0  0  0  0  0  0
    6.8399   -2.2187   -2.3650 O   0  0  0  0  0  0  0  0  0  0  0  0
    7.3590   -3.1865   -3.1651 C   0  0  0  0  0  0  0  0  0  0  0  0
    8.7498   -3.1408   -3.3689 C   0  0  0  0  0  0  0  0  0  0  0  0
    9.3702   -4.0923   -4.1741 C   0  0  0  0  0  0  0  0  0  0  0  0
    8.6201   -5.1038   -4.7894 C   0  0  0  0  0  0  0  0  0  0  0  0
    7.2407   -5.1459   -4.5852 C   0  0  0  0  0  0  0  0  0  0  0  0
    6.6013   -4.1961   -3.7782 C   0  0  0  0  0  0  0  0  0  0  0  0
    2.6764    2.6282   -0.0037 H   0  0  0  0  0  0  0  0  0  0  0  0
    2.9033    1.9793   -1.6472 H   0  0  0  0  0  0  0  0  0  0  0  0
    4.3048    2.1955   -0.5684 H   0  0  0  0  0  0  0  0  0  0  0  0
    3.0733    0.6836    2.4965 H   0  0  0  0  0  0  0  0  0  0  0  0
    4.6960    0.2803    1.8953 H   0  0  0  0  0  0  0  0  0  0  0  0
    3.5154   -1.0176    2.2060 H   0  0  0  0  0  0  0  0  0  0  0  0
    0.5485    0.2970    0.5597 H   0  0  0  0  0  0  0  0  0  0  0  0
    1.0457   -1.3957    0.3012 H   0  0  0  0  0  0  0  0  0  0  0  0
    0.8239   -0.3111   -1.0936 H   0  0  0  0  0  0  0  0  0  0  0  0
    5.7745   -1.1286   -0.2631 H   0  0  0  0  0  0  0  0  0  0  0  0
    5.5428   -0.0795   -1.6836 H   0  0  0  0  0  0  0  0  0  0  0  0
    4.8725   -2.0671   -3.0435 H   0  0  0  0  0  0  0  0  0  0  0  0
    5.1110   -3.1183   -1.6190 H   0  0  0  0  0  0  0  0  0  0  0  0
    9.3183   -2.3458   -2.8819 H   0  0  0  0  0  0  0  0  0  0  0  0
   10.4522   -4.0449   -4.3239 H   0  0  0  0  0  0  0  0  0  0  0  0
    9.1091   -5.8493   -5.4205 H   0  0  0  0  0  0  0  0  0  0  0  0
    6.6414   -5.9286   -5.0584 H   0  0  0  0  0  0  0  0  0  0  0  0
    5.5219   -4.2515   -3.6356 H   0  0  0  0  0  0  0  0  0  0  0  0
  1  2  1  0
  1 15  1  0
  1 16  1  0
  1 17  1  0
  2  3  1  0
  2  4  1  0
  2  5  1  6
  3 18  1  0
  3 19  1  0
  3 20  1  0
  4 21  1  0
  4 22  1  0
  4 23  1  0
  5  6  1  0
  6  7  1  0
  6 24  1  0
  6 25  1  0
  7  8  1  0
  7 26  1  0
  7 27  1  0
  8  9  1  0
  9 10  2  0
  9 14  1  0
 10 11  1  0
 10 28  1  0
 11 12  2  0
 11 29  1  0
 12 13  1  0
 12 30  1  0
 13 14  2  0
 13 31  1  0
 14 32  1  0
M  END

