
     RDKit          3D

 31 32  0  0  0  0  0  0  0  0999 V2000
    0.9409   -0.0872   -0.4832 C   0  0  0  0  0  0  0  0  0  0  0  0
    2.2344   -0.1218    0.0853 O   0  0  0  0  0  0  0  0  0  0  0  0
    2.8317    1.0053    0.5171 C   0  0  0  0  0  0  0  0  0  0  0  0
    2.1839    2.2676    0.4183 C   0  0  0  0  0  0  0  0  0  0  0  0
    2.7869    3.4192    0.8577 C   0  0  0  0  0  0  0  0  0  0  0  0
    4.0867    3.4006    1.4324 C   0  0  0  0  0  0  0  0  0  0  0  0
    4.7485    4.5980    1.8801 C   0  0  0  0  0  0  0  0  0  0  0  0
    4.0716    5.9374    1.7991 C   0  0  0  0  0  0  0  0  0  0  0  0
    2.8778    6.1148    1.9458 O   0  0  0  0  0  0  0  0  0  0  0  0
    4.9312    7.0119    1.5445 N   0  0  0  0  0  0  0  0  0  0  0  0
    4.5293    8.3429    1.5134 C   0  0  0  0  0  0  0  0  0  0  0  0
    5.2832    9.2454    1.2460 O   0  0  0  0  0  0  0  0  0  0  0  0
    6.0152    4.5177    2.4383 C   0  0  0  0  0  0  0  0  0  0  0  0
    6.6633    3.2730    2.5719 C   0  0  0  0  0  0  0  0  0  0  0  0
    6.0598    2.1154    2.1351 C   0  0  0  0  0  0  0  0  0  0  0  0
    4.7583    2.1320    1.5449 C   0  0  0  0  0  0  0  0  0  0  0  0
    4.1147    0.9334    1.0738 C   0  0  0  0  0  0  0  0  0  0  0  0
    4.8701   -0.3775    1.2031 C   0  0  1  0  0  0  0  0  0  0  0  0
    4.2317   -1.4479    0.7354 F   0  0  0  0  0  0  0  0  0  0  0  0
    6.0543   -0.3208    0.5474 F   0  0  0  0  0  0  0  0  0  0  0  0
    5.1657   -0.6418    2.4988 F   0  0  0  0  0  0  0  0  0  0  0  0
    0.6990   -1.1254   -0.7453 H   0  0  0  0  0  0  0  0  0  0  0  0
    0.9093    0.5286   -1.3987 H   0  0  0  0  0  0  0  0  0  0  0  0
    0.1868    0.2860    0.2313 H   0  0  0  0  0  0  0  0  0  0  0  0
    1.1855    2.3288   -0.0122 H   0  0  0  0  0  0  0  0  0  0  0  0
    2.2526    4.3640    0.7845 H   0  0  0  0  0  0  0  0  0  0  0  0
    5.9043    6.8402    1.3068 H   0  0  0  0  0  0  0  0  0  0  0  0
    3.4543    8.4648    1.7604 H   0  0  0  0  0  0  0  0  0  0  0  0
    6.5099    5.4147    2.8171 H   0  0  0  0  0  0  0  0  0  0  0  0
    7.6534    3.2270    3.0311 H   0  0  0  0  0  0  0  0  0  0  0  0
    6.5929    1.1757    2.2528 H   0  0  0  0  0  0  0  0  0  0  0  0
  1  2  1  0
  1 22  1  0
  1 23  1  0
  1 24  1  0
  2  3  1  0
  3  4  2  0
  3 17  1  0
  4  5  1  0
  4 25  1  0
  5  6  2  0
  5 26  1  0
  6  7  1  0
  6 16  1  0
  7  8  1  0
  7 13  2  0
  8  9  2  0
  8 10  1  0
 10 11  1  0
 10 27  1  0
 11 12  2  0
 11 28  1  0
 13 14  1  0
 13 29  1  0
 14 15  2  0
 14 30  1  0
 15 16  1  0
 15 31  1  0
 16 17  2  0
 17 18  1  0
 18 19  1  6
 18 20  1  0
 18 21  1  0
M  END

