
     RDKit          3D

 51 53  0  0  0  0  0  0  0  0999 V2000
    3.3302   -3.3526   -3.7303 C   0  0  0  0  0  0  0  0  0  0  0  0
    3.4248   -2.0328   -3.0265 C   0  0  0  0  0  0  0  0  0  0  0  0
    3.8966   -0.9602   -3.6560 N   0  0  0  0  0  0  0  0  0  0  0  0
    3.8575    0.0219   -2.7421 N   0  0  0  0  0  0  0  0  0  0  0  0
    4.1900    0.9449   -2.9927 H   0  0  0  0  0  0  0  0  0  0  0  0
    3.3791   -0.3775   -1.5296 C   0  0  0  0  0  0  0  0  0  0  0  0
    3.2513    0.5556   -0.3680 C   0  0  0  0  0  0  0  0  0  0  0  0
    3.0791   -1.7295   -1.6721 C   0  0  0  0  0  0  0  0  0  0  0  0
    2.5097   -2.6626   -0.6418 C   0  0  0  0  0  0  0  0  0  0  0  0
    0.9861   -2.8364   -0.7506 C   0  0  0  0  0  0  0  0  0  0  0  0
    0.4316   -3.7737    0.3219 C   0  0  0  0  0  0  0  0  0  0  0  0
    1.1620   -4.2547    1.1736 O   0  0  0  0  0  0  0  0  0  0  0  0
   -0.9270   -4.0448    0.3089 N   0  0  0  0  0  0  0  0  0  0  0  0
   -1.4812   -4.8718    1.3764 C   0  0  0  0  0  0  0  0  0  0  0  0
   -2.1073   -6.1522    0.8298 C   0  0  0  0  0  0  0  0  0  0  0  0
   -3.4205   -5.7707   -0.3690 S   0  0  2  0  0  0  0  0  0  0  0  0
   -4.4332   -4.9727    0.3503 O   0  0  0  0  0  0  0  0  0  0  0  0
   -3.8127   -7.0257   -1.0346 O   0  0  0  0  0  0  0  0  0  0  0  0
   -2.5628   -4.5979   -1.5521 C   0  0  1  0  0  0  0  0  0  0  0  0
   -1.5372   -5.3350   -2.4376 C   0  0  0  0  0  0  0  0  0  0  0  0
   -2.1428   -6.2108   -3.5451 C   0  0  0  0  0  0  0  0  0  0  0  0
   -3.1752   -5.4409   -4.3761 C   0  0  0  0  0  0  0  0  0  0  0  0
   -4.2623   -4.8331   -3.4832 C   0  0  0  0  0  0  0  0  0  0  0  0
   -3.6605   -3.9248   -2.4023 C   0  0  0  0  0  0  0  0  0  0  0  0
   -1.8943   -3.5244   -0.6459 C   0  0  0  0  0  0  0  0  0  0  0  0
    3.7616   -3.2662   -4.7373 H   0  0  0  0  0  0  0  0  0  0  0  0
    2.2857   -3.6932   -3.8355 H   0  0  0  0  0  0  0  0  0  0  0  0
    3.8746   -4.1426   -3.1863 H   0  0  0  0  0  0  0  0  0  0  0  0
    4.1442    1.1934   -0.2599 H   0  0  0  0  0  0  0  0  0  0  0  0
    3.1325   -0.0087    0.5677 H   0  0  0  0  0  0  0  0  0  0  0  0
    2.3779    1.2242   -0.4644 H   0  0  0  0  0  0  0  0  0  0  0  0
    2.7504   -2.3145    0.3742 H   0  0  0  0  0  0  0  0  0  0  0  0
    2.9820   -3.6544   -0.7244 H   0  0  0  0  0  0  0  0  0  0  0  0
    0.7222   -3.2132   -1.7521 H   0  0  0  0  0  0  0  0  0  0  0  0
    0.4906   -1.8535   -0.6632 H   0  0  0  0  0  0  0  0  0  0  0  0
   -2.2508   -4.3025    1.9257 H   0  0  0  0  0  0  0  0  0  0  0  0
   -0.6619   -5.1160    2.0643 H   0  0  0  0  0  0  0  0  0  0  0  0
   -2.6319   -6.7267    1.6084 H   0  0  0  0  0  0  0  0  0  0  0  0
   -1.3793   -6.8053    0.3286 H   0  0  0  0  0  0  0  0  0  0  0  0
   -0.8352   -5.9187   -1.8208 H   0  0  0  0  0  0  0  0  0  0  0  0
   -0.9270   -4.5434   -2.9115 H   0  0  0  0  0  0  0  0  0  0  0  0
   -2.6200   -7.0920   -3.0923 H   0  0  0  0  0  0  0  0  0  0  0  0
   -1.3264   -6.5778   -4.1893 H   0  0  0  0  0  0  0  0  0  0  0  0
   -3.6279   -6.1076   -5.1281 H   0  0  0  0  0  0  0  0  0  0  0  0
   -2.6704   -4.6331   -4.9397 H   0  0  0  0  0  0  0  0  0  0  0  0
   -4.8407   -5.6398   -3.0050 H   0  0  0  0  0  0  0  0  0  0  0  0
   -4.9744   -4.2459   -4.0861 H   0  0  0  0  0  0  0  0  0  0  0  0
   -4.4450   -3.5333   -1.7367 H   0  0  0  0  0  0  0  0  0  0  0  0
   -3.1881   -3.0494   -2.8867 H   0  0  0  0  0  0  0  0  0  0  0  0
   -2.6932   -2.9933   -0.1000 H   0  0  0  0  0  0  0  0  0  0  0  0
   -1.4139   -2.7929   -1.3066 H   0  0  0  0  0  0  0  0  0  0  0  0
  1  2  1  0
  1 26  1  0
  1 27  1  0
  1 28  1  0
  2  3  2  0
  2  8  1  0
  3  4  1  0
  4  5  1  0
  4  6  1  0
  6  7  1  0
  6  8  2  0
  7 29  1  0
  7 30  1  0
  7 31  1  0
  8  9  1  0
  9 10  1  0
  9 32  1  0
  9 33  1  0
 10 11  1  0
 10 34  1  0
 10 35  1  0
 11 12  2  0
 11 13  1  0
 13 14  1  0
 13 25  1  0
 14 15  1  0
 14 36  1  0
 14 37  1  0
 16 15  1  1
 15 38  1  0
 15 39  1  0
 16 17  2  0
 16 18  2  0
 16 19  1  0
 19 20  1  6
 19 24  1  0
 19 25  1  0
 20 21  1  0
 20 40  1  0
 20 41  1  0
 21 22  1  0
 21 42  1  0
 21 43  1  0
 22 23  1  0
 22 44  1  0
 22 45  1  0
 23 24  1  0
 23 46  1  0
 23 47  1  0
 24 48  1  0
 24 49  1  0
 25 50  1  0
 25 51  1  0
M  END

