
     RDKit          3D

 46 49  0  0  0  0  0  0  0  0999 V2000
    0.8031   -0.1326    0.6364 O   0  0  0  0  0  0  0  0  0  0  0  0
    2.2365   -0.1378    0.3703 S   0  0  1  0  0  0  0  0  0  0  0  0
    2.6803   -0.0162   -1.0166 O   0  0  0  0  0  0  0  0  0  0  0  0
    3.0615    0.9727    1.3756 N   0  0  0  0  0  0  0  0  0  0  0  0
    3.2214    2.3354    0.8460 C   0  0  0  0  0  0  0  0  0  0  0  0
    1.8969    3.0517    0.5707 C   0  0  0  0  0  0  0  0  0  0  0  0
    0.9350    3.1633    1.7684 C   0  0  1  0  0  0  0  0  0  0  0  0
    1.4515    4.0196    2.9410 C   0  0  0  0  0  0  0  0  0  0  0  0
    1.4210    5.4566    2.6847 N   0  0  0  0  0  0  0  0  0  0  0  0
    0.1020    5.8775    2.2189 C   0  0  0  0  0  0  0  0  0  0  0  0
   -0.3984    5.0335    1.0461 C   0  0  0  0  0  0  0  0  0  0  0  0
   -0.3390    3.6493    1.3441 O   0  0  0  0  0  0  0  0  0  0  0  0
    4.0585    0.3222    2.1330 C   0  0  0  0  0  0  0  0  0  0  0  0
    5.0162    0.9101    2.9581 C   0  0  0  0  0  0  0  0  0  0  0  0
    5.8971    0.0863    3.6741 C   0  0  0  0  0  0  0  0  0  0  0  0
    5.8201   -1.3033    3.5654 C   0  0  0  0  0  0  0  0  0  0  0  0
    4.8640   -1.9010    2.7327 C   0  0  0  0  0  0  0  0  0  0  0  0
    3.9948   -1.0824    2.0177 C   0  0  0  0  0  0  0  0  0  0  0  0
    2.9615   -1.4826    1.1549 N   0  0  0  0  0  0  0  0  0  0  0  0
    2.7575   -2.7676    0.5949 C   0  0  0  0  0  0  0  0  0  0  0  0
    1.5147   -3.4058    0.7227 C   0  0  0  0  0  0  0  0  0  0  0  0
    1.2838   -4.6511    0.1394 C   0  0  0  0  0  0  0  0  0  0  0  0
    2.3198   -5.2630   -0.5652 C   0  0  0  0  0  0  0  0  0  0  0  0
    2.1162   -6.4621   -1.1169 F   0  0  0  0  0  0  0  0  0  0  0  0
    3.5694   -4.6631   -0.7144 C   0  0  0  0  0  0  0  0  0  0  0  0
    3.7662   -3.4098   -0.1446 C   0  0  0  0  0  0  0  0  0  0  0  0
    4.9469   -2.8091   -0.2918 F   0  0  0  0  0  0  0  0  0  0  0  0
    3.8317    2.3106   -0.0746 H   0  0  0  0  0  0  0  0  0  0  0  0
    3.7993    2.8857    1.6010 H   0  0  0  0  0  0  0  0  0  0  0  0
    1.3539    2.5469   -0.2442 H   0  0  0  0  0  0  0  0  0  0  0  0
    2.1590    4.0513    0.1842 H   0  0  0  0  0  0  0  0  0  0  0  0
    0.7350    2.1430    2.1287 H   0  0  0  0  0  0  0  0  0  0  0  0
    2.4707    3.7197    3.2357 H   0  0  0  0  0  0  0  0  0  0  0  0
    0.8037    3.8195    3.8123 H   0  0  0  0  0  0  0  0  0  0  0  0
    2.1346    5.7183    2.0042 H   0  0  0  0  0  0  0  0  0  0  0  0
    0.1279    6.9455    1.9444 H   0  0  0  0  0  0  0  0  0  0  0  0
   -0.6058    5.7744    3.0613 H   0  0  0  0  0  0  0  0  0  0  0  0
    0.1908    5.2727    0.1355 H   0  0  0  0  0  0  0  0  0  0  0  0
   -1.4537    5.2531    0.8161 H   0  0  0  0  0  0  0  0  0  0  0  0
    5.0810    1.9946    3.0556 H   0  0  0  0  0  0  0  0  0  0  0  0
    6.6476    0.5444    4.3219 H   0  0  0  0  0  0  0  0  0  0  0  0
    6.5092   -1.9358    4.1292 H   0  0  0  0  0  0  0  0  0  0  0  0
    4.8003   -2.9862    2.6404 H   0  0  0  0  0  0  0  0  0  0  0  0
    0.7279   -2.8969    1.2813 H   0  0  0  0  0  0  0  0  0  0  0  0
    0.3204   -5.1552    0.2278 H   0  0  0  0  0  0  0  0  0  0  0  0
    4.3668   -5.1497   -1.2769 H   0  0  0  0  0  0  0  0  0  0  0  0
  1  2  2  0
  2  3  2  0
  2  4  1  1
  2 19  1  0
  4  5  1  0
  4 13  1  0
  5  6  1  0
  5 28  1  0
  5 29  1  0
  6  7  1  0
  6 30  1  0
  6 31  1  0
  7  8  1  0
  7 12  1  0
  7 32  1  1
  8  9  1  0
  8 33  1  0
  8 34  1  0
  9 10  1  0
  9 35  1  0
 10 11  1  0
 10 36  1  0
 10 37  1  0
 11 12  1  0
 11 38  1  0
 11 39  1  0
 13 14  2  0
 13 18  1  0
 14 15  1  0
 14 40  1  0
 15 16  2  0
 15 41  1  0
 16 17  1  0
 16 42  1  0
 17 18  2  0
 17 43  1  0
 18 19  1  0
 19 20  1  0
 20 21  2  0
 20 26  1  0
 21 22  1  0
 21 44  1  0
 22 23  2  0
 22 45  1  0
 23 24  1  0
 23 25  1  0
 25 26  2  0
 25 46  1  0
 26 27  1  0
M  END

