
     RDKit          3D

 27 26  0  0  0  0  0  0  0  0999 V2000
    1.0923    0.6009   -0.4216 C   0  0  0  0  0  0  0  0  0  0  0  0
    2.5663    0.2269   -0.2564 C   0  0  1  0  0  0  0  0  0  0  0  0
    3.2420   -0.1632   -1.5007 N   0  0  0  0  0  0  0  0  0  0  0  0
    3.3483    1.4005    0.3760 C   0  0  0  0  0  0  0  0  0  0  0  0
    2.8897    2.5376    0.3524 O   0  0  0  0  0  0  0  0  0  0  0  0
    4.5548    1.1287    0.9594 N   0  0  0  0  0  0  0  0  0  0  0  0
    5.2049   -0.1740    0.9472 C   0  0  0  0  0  0  0  0  0  0  0  0
    5.2355    2.2240    1.6459 C   0  0  0  0  0  0  0  0  0  0  0  0
    6.0388    3.1263    0.7019 C   0  0  0  0  0  0  0  0  0  0  0  0
    6.9255    4.0942    1.4815 C   0  0  0  0  0  0  0  0  0  0  0  0
    7.0357    5.3450    0.9485 N   0  0  0  0  0  0  0  0  0  0  0  0
    7.5124    3.7613    2.4966 O   0  0  0  0  0  0  0  0  0  0  0  0
    0.5420   -0.2317   -0.8896 H   0  0  0  0  0  0  0  0  0  0  0  0
    0.9918    1.4983   -1.0498 H   0  0  0  0  0  0  0  0  0  0  0  0
    0.6203    0.8263    0.5473 H   0  0  0  0  0  0  0  0  0  0  0  0
    2.6351   -0.6364    0.4285 H   0  0  0  0  0  0  0  0  0  0  0  0
    3.2057    0.6105   -2.1671 H   0  0  0  0  0  0  0  0  0  0  0  0
    2.7443   -0.9397   -1.9383 H   0  0  0  0  0  0  0  0  0  0  0  0
    4.8941   -0.7413    0.0613 H   0  0  0  0  0  0  0  0  0  0  0  0
    4.9959   -0.7552    1.8649 H   0  0  0  0  0  0  0  0  0  0  0  0
    6.2955   -0.0351    0.8828 H   0  0  0  0  0  0  0  0  0  0  0  0
    5.9149    1.8027    2.3999 H   0  0  0  0  0  0  0  0  0  0  0  0
    4.4816    2.8303    2.1686 H   0  0  0  0  0  0  0  0  0  0  0  0
    5.3527    3.6525    0.0213 H   0  0  0  0  0  0  0  0  0  0  0  0
    6.7096    2.5053    0.0812 H   0  0  0  0  0  0  0  0  0  0  0  0
    6.5024    5.6376    0.1414 H   0  0  0  0  0  0  0  0  0  0  0  0
    7.6175    6.0227    1.4276 H   0  0  0  0  0  0  0  0  0  0  0  0
  1  2  1  0
  1 13  1  0
  1 14  1  0
  1 15  1  0
  2  3  1  0
  2  4  1  0
  2 16  1  1
  3 17  1  0
  3 18  1  0
  4  5  2  0
  4  6  1  0
  6  7  1  0
  6  8  1  0
  7 19  1  0
  7 20  1  0
  7 21  1  0
  8  9  1  0
  8 22  1  0
  8 23  1  0
  9 10  1  0
  9 24  1  0
  9 25  1  0
 10 11  1  0
 10 12  2  0
 11 26  1  0
 11 27  1  0
M  END

