
     RDKit          3D

 57 60  0  0  0  0  0  0  0  0999 V2000
    0.8027   -0.8726    0.9159 C   0  0  0  0  0  0  0  0  0  0  0  0
    0.9456    0.1195    2.0671 C   0  0  0  0  0  0  0  0  0  0  0  0
    1.9224    1.1653    1.7953 N   0  0  0  0  0  0  0  0  0  0  0  0
    1.6889    2.4761    1.5152 C   0  0  0  0  0  0  0  0  0  0  0  0
    2.9234    3.0680    1.2752 C   0  0  0  0  0  0  0  0  0  0  0  0
    3.2112    4.5111    0.9700 C   0  0  0  0  0  0  0  0  0  0  0  0
    2.3647    5.0712   -0.0863 N   0  0  0  0  0  0  0  0  0  0  0  0
    2.3926    6.5266   -0.0779 C   0  0  0  0  0  0  0  0  0  0  0  0
    1.4390    7.1992   -1.0696 C   0  0  0  0  0  0  0  0  0  0  0  0
    1.8388    7.0786   -2.5454 C   0  0  0  0  0  0  0  0  0  0  0  0
    1.4172    5.8197   -3.1717 N   0  0  0  0  0  0  0  0  0  0  0  0
    1.2119    5.7578   -4.5427 C   0  0  0  0  0  0  0  0  0  0  0  0
    2.0428    6.4261   -5.4684 C   0  0  0  0  0  0  0  0  0  0  0  0
    3.2434    7.1149   -5.1070 C   0  0  0  0  0  0  0  0  0  0  0  0
    4.2434    7.6615   -4.8759 N   0  0  0  0  0  0  0  0  0  0  0  0
    1.7809    6.3074   -6.8676 C   0  0  0  0  0  0  0  0  0  0  0  0
    0.8248    5.5830   -7.3824 N   0  0  0  0  0  0  0  0  0  0  0  0
   -0.0171    4.9326   -6.5297 C   0  0  0  0  0  0  0  0  0  0  0  0
   -1.0865    4.1751   -7.1120 C   0  0  0  0  0  0  0  0  0  0  0  0
   -1.1794    4.0661   -8.6098 C   0  0  0  0  0  0  0  0  0  0  0  0
   -2.0152    3.5841   -6.2768 C   0  0  0  0  0  0  0  0  0  0  0  0
   -1.9629    3.7193   -4.8635 C   0  0  0  0  0  0  0  0  0  0  0  0
   -3.0480    3.1056   -4.0143 C   0  0  0  0  0  0  0  0  0  0  0  0
   -0.9146    4.4254   -4.3029 C   0  0  0  0  0  0  0  0  0  0  0  0
    0.1030    5.0148   -5.1041 C   0  0  0  0  0  0  0  0  0  0  0  0
    1.4409    4.5921   -2.3649 C   0  0  0  0  0  0  0  0  0  0  0  0
    2.6234    4.4727   -1.3913 C   0  0  0  0  0  0  0  0  0  0  0  0
    3.8400    1.9982    1.4364 C   0  0  0  0  0  0  0  0  0  0  0  0
    3.2264    0.8591    1.7493 N   0  0  0  0  0  0  0  0  0  0  0  0
    0.0825   -1.6629    1.1804 H   0  0  0  0  0  0  0  0  0  0  0  0
    1.7728   -1.3426    0.6979 H   0  0  0  0  0  0  0  0  0  0  0  0
    0.4467   -0.3722    0.0015 H   0  0  0  0  0  0  0  0  0  0  0  0
    1.2631   -0.4003    2.9847 H   0  0  0  0  0  0  0  0  0  0  0  0
   -0.0116    0.6178    2.2835 H   0  0  0  0  0  0  0  0  0  0  0  0
    0.6840    2.8932    1.5035 H   0  0  0  0  0  0  0  0  0  0  0  0
    4.2950    4.6210    0.7378 H   0  0  0  0  0  0  0  0  0  0  0  0
    3.0388    5.1192    1.8747 H   0  0  0  0  0  0  0  0  0  0  0  0
    3.4210    6.9157   -0.2743 H   0  0  0  0  0  0  0  0  0  0  0  0
    2.1292    6.8578    0.9406 H   0  0  0  0  0  0  0  0  0  0  0  0
    1.4444    8.2756   -0.8318 H   0  0  0  0  0  0  0  0  0  0  0  0
    0.4049    6.8505   -0.9119 H   0  0  0  0  0  0  0  0  0  0  0  0
    2.9277    7.2424   -2.6176 H   0  0  0  0  0  0  0  0  0  0  0  0
    1.3662    7.8938   -3.1144 H   0  0  0  0  0  0  0  0  0  0  0  0
    2.4494    6.8325   -7.5610 H   0  0  0  0  0  0  0  0  0  0  0  0
   -0.2589    3.6345   -9.0330 H   0  0  0  0  0  0  0  0  0  0  0  0
   -1.2834    5.0609   -9.0704 H   0  0  0  0  0  0  0  0  0  0  0  0
   -2.0349    3.4437   -8.9102 H   0  0  0  0  0  0  0  0  0  0  0  0
   -2.8368    3.0125   -6.7201 H   0  0  0  0  0  0  0  0  0  0  0  0
   -4.0413    3.4994   -4.2887 H   0  0  0  0  0  0  0  0  0  0  0  0
   -2.8892    3.3046   -2.9443 H   0  0  0  0  0  0  0  0  0  0  0  0
   -3.0908    2.0118   -4.1526 H   0  0  0  0  0  0  0  0  0  0  0  0
   -0.8878    4.5577   -3.2233 H   0  0  0  0  0  0  0  0  0  0  0  0
    1.4786    3.7451   -3.0631 H   0  0  0  0  0  0  0  0  0  0  0  0
    0.5278    4.4720   -1.7556 H   0  0  0  0  0  0  0  0  0  0  0  0
    3.5555    4.8569   -1.8634 H   0  0  0  0  0  0  0  0  0  0  0  0
    2.7811    3.3973   -1.2230 H   0  0  0  0  0  0  0  0  0  0  0  0
    4.9264    2.0249    1.3410 H   0  0  0  0  0  0  0  0  0  0  0  0
  1  2  1  0
  1 30  1  0
  1 31  1  0
  1 32  1  0
  2  3  1  0
  2 33  1  0
  2 34  1  0
  3  4  1  0
  3 29  1  0
  4  5  2  0
  4 35  1  0
  5  6  1  0
  5 28  1  0
  6  7  1  0
  6 36  1  0
  6 37  1  0
  7  8  1  0
  7 27  1  0
  8  9  1  0
  8 38  1  0
  8 39  1  0
  9 10  1  0
  9 40  1  0
  9 41  1  0
 10 11  1  0
 10 42  1  0
 10 43  1  0
 11 12  1  0
 11 26  1  0
 12 13  2  0
 12 25  1  0
 13 14  1  0
 13 16  1  0
 14 15  3  0
 16 17  2  0
 16 44  1  0
 17 18  1  0
 18 19  1  0
 18 25  2  0
 19 20  1  0
 19 21  2  0
 20 45  1  0
 20 46  1  0
 20 47  1  0
 21 22  1  0
 21 48  1  0
 22 23  1  0
 22 24  2  0
 23 49  1  0
 23 50  1  0
 23 51  1  0
 24 25  1  0
 24 52  1  0
 26 27  1  0
 26 53  1  0
 26 54  1  0
 27 55  1  0
 27 56  1  0
 28 29  2  0
 28 57  1  0
M  END

