
     RDKit          3D

 85 91  0  0  0  0  0  0  0  0999 V2000
    9.3385    2.8968   -1.7151 C   0  0  0  0  0  0  0  0  0  0  0  0
    8.7653    2.7560   -0.3042 C   0  0  0  0  0  0  0  0  0  0  0  0
    9.0252    1.3856    0.3289 C   0  0  0  0  0  0  0  0  0  0  0  0
    8.4534    1.2374    1.7419 C   0  0  0  0  0  0  0  0  0  0  0  0
    8.7173   -0.1343    2.3687 C   0  0  0  0  0  0  0  0  0  0  0  0
    8.1328   -0.2509    3.7792 C   0  0  0  0  0  0  0  0  0  0  0  0
    8.3756   -1.5631    4.3995 N   0  0  0  0  0  0  0  0  0  0  0  0
    9.5624   -1.7252    5.1283 C   0  0  0  0  0  0  0  0  0  0  0  0
   10.3566   -0.8084    5.2383 O   0  0  0  0  0  0  0  0  0  0  0  0
    9.7947   -3.0575    5.7531 C   0  0  0  0  0  0  0  0  0  0  0  0
   10.9595   -3.2659    6.4737 C   0  0  0  0  0  0  0  0  0  0  0  0
   11.2136   -4.5254    7.0535 C   0  0  0  0  0  0  0  0  0  0  0  0
   10.2968   -5.5538    6.9330 C   0  0  0  0  0  0  0  0  0  0  0  0
    9.0734   -5.3749    6.2286 C   0  0  0  0  0  0  0  0  0  0  0  0
    8.0780   -6.4075    6.0778 C   0  0  0  0  0  0  0  0  0  0  0  0
    8.2036   -7.7140    6.7484 C   0  0  0  0  0  0  0  0  0  0  0  0
    8.5134   -8.0045    8.0646 C   0  0  0  0  0  0  0  0  0  0  0  0
    8.4577   -9.3907    8.3698 C   0  0  0  0  0  0  0  0  0  0  0  0
    8.1140  -10.1826    7.2893 C   0  0  0  0  0  0  0  0  0  0  0  0
    8.0272  -11.6504    7.1878 C   0  0  0  0  0  0  0  0  0  0  0  0
    8.6345  -12.2976    6.1116 C   0  0  0  0  0  0  0  0  0  0  0  0
    8.6287  -13.6978    5.9877 C   0  0  0  0  0  0  0  0  0  0  0  0
    8.0162  -14.4844    6.9491 C   0  0  0  0  0  0  0  0  0  0  0  0
    7.3607  -13.8714    8.0482 C   0  0  0  0  0  0  0  0  0  0  0  0
    6.7076  -14.6825    9.0154 C   0  0  0  0  0  0  0  0  0  0  0  0
    6.0263  -14.1007   10.0723 C   0  0  0  0  0  0  0  0  0  0  0  0
    5.9639  -12.6969   10.1834 C   0  0  0  0  0  0  0  0  0  0  0  0
    6.6007  -11.8884    9.2594 C   0  0  0  0  0  0  0  0  0  0  0  0
    7.3383  -12.4429    8.1764 C   0  0  0  0  0  0  0  0  0  0  0  0
    6.7327  -16.1688    8.9070 C   0  0  0  0  0  0  0  0  0  0  0  0
    6.1868  -16.8843    9.7272 O   0  0  0  0  0  0  0  0  0  0  0  0
    7.4165  -16.7143    7.8090 N   0  0  0  0  0  0  0  0  0  0  0  0
    7.4446  -18.1821    7.6651 C   0  0  0  0  0  0  0  0  0  0  0  0
    8.7607  -18.8315    8.1088 C   0  0  0  0  0  0  0  0  0  0  0  0
    9.1214  -18.6444    9.5853 C   0  0  0  0  0  0  0  0  0  0  0  0
   10.4075  -19.3724    9.9878 C   0  0  0  0  0  0  0  0  0  0  0  0
   10.7938  -19.1816   11.4578 C   0  0  0  0  0  0  0  0  0  0  0  0
   12.0757  -19.9153   11.8545 C   0  0  0  0  0  0  0  0  0  0  0  0
    8.0478  -15.9646    6.8066 C   0  0  0  0  0  0  0  0  0  0  0  0
    8.5939  -16.5162    5.8675 O   0  0  0  0  0  0  0  0  0  0  0  0
    7.8485   -9.1867    5.8791 S   0  0  0  0  0  0  0  0  0  0  0  0
    6.9615   -6.1536    5.2811 C   0  0  0  0  0  0  0  0  0  0  0  0
    6.7611   -4.9096    4.6579 C   0  0  0  0  0  0  0  0  0  0  0  0
    7.6768   -3.8845    4.8275 C   0  0  0  0  0  0  0  0  0  0  0  0
    8.8424   -4.1026    5.6075 C   0  0  0  0  0  0  0  0  0  0  0  0
    7.4231   -2.5686    4.1814 C   0  0  0  0  0  0  0  0  0  0  0  0
    6.4380   -2.3589    3.4963 O   0  0  0  0  0  0  0  0  0  0  0  0
    9.1333    3.8930   -2.1387 H   0  0  0  0  0  0  0  0  0  0  0  0
    8.9056    2.1486   -2.4004 H   0  0  0  0  0  0  0  0  0  0  0  0
   10.4320    2.7523   -1.7201 H   0  0  0  0  0  0  0  0  0  0  0  0
    7.6762    2.9435   -0.3279 H   0  0  0  0  0  0  0  0  0  0  0  0
    9.1897    3.5422    0.3466 H   0  0  0  0  0  0  0  0  0  0  0  0
   10.1147    1.1966    0.3551 H   0  0  0  0  0  0  0  0  0  0  0  0
    8.6005    0.5974   -0.3204 H   0  0  0  0  0  0  0  0  0  0  0  0
    7.3638    1.4245    1.7154 H   0  0  0  0  0  0  0  0  0  0  0  0
    8.8789    2.0248    2.3915 H   0  0  0  0  0  0  0  0  0  0  0  0
    9.8042   -0.3183    2.4152 H   0  0  0  0  0  0  0  0  0  0  0  0
    8.2794   -0.9231    1.7335 H   0  0  0  0  0  0  0  0  0  0  0  0
    7.0450   -0.1076    3.7503 H   0  0  0  0  0  0  0  0  0  0  0  0
    8.5827    0.5027    4.4383 H   0  0  0  0  0  0  0  0  0  0  0  0
   11.6705   -2.4425    6.5634 H   0  0  0  0  0  0  0  0  0  0  0  0
   12.1478   -4.6930    7.5945 H   0  0  0  0  0  0  0  0  0  0  0  0
   10.5221   -6.5272    7.3681 H   0  0  0  0  0  0  0  0  0  0  0  0
    8.7417   -7.2355    8.8034 H   0  0  0  0  0  0  0  0  0  0  0  0
    8.6980   -9.7996    9.3518 H   0  0  0  0  0  0  0  0  0  0  0  0
    9.1588  -11.7013    5.3618 H   0  0  0  0  0  0  0  0  0  0  0  0
    9.1213  -14.1895    5.1468 H   0  0  0  0  0  0  0  0  0  0  0  0
    5.5333  -14.7526   10.7957 H   0  0  0  0  0  0  0  0  0  0  0  0
    5.3992  -12.2440   11.0015 H   0  0  0  0  0  0  0  0  0  0  0  0
    6.5208  -10.8052    9.3491 H   0  0  0  0  0  0  0  0  0  0  0  0
    7.2714  -18.4021    6.6033 H   0  0  0  0  0  0  0  0  0  0  0  0
    6.6054  -18.5662    8.2573 H   0  0  0  0  0  0  0  0  0  0  0  0
    9.5770  -18.4586    7.4677 H   0  0  0  0  0  0  0  0  0  0  0  0
    8.6712  -19.9106    7.8884 H   0  0  0  0  0  0  0  0  0  0  0  0
    8.2846  -18.9881   10.2184 H   0  0  0  0  0  0  0  0  0  0  0  0
    9.2362  -17.5674    9.8049 H   0  0  0  0  0  0  0  0  0  0  0  0
   11.2394  -19.0291    9.3443 H   0  0  0  0  0  0  0  0  0  0  0  0
   10.2965  -20.4531    9.7785 H   0  0  0  0  0  0  0  0  0  0  0  0
    9.9598  -19.5219   12.0983 H   0  0  0  0  0  0  0  0  0  0  0  0
   10.9071  -18.1018   11.6654 H   0  0  0  0  0  0  0  0  0  0  0  0
   11.9811  -21.0027   11.6953 H   0  0  0  0  0  0  0  0  0  0  0  0
   12.3229  -19.7557   12.9163 H   0  0  0  0  0  0  0  0  0  0  0  0
   12.9367  -19.5705   11.2572 H   0  0  0  0  0  0  0  0  0  0  0  0
    6.2043   -6.9321    5.1659 H   0  0  0  0  0  0  0  0  0  0  0  0
    5.8747   -4.7227    4.0490 H   0  0  0  0  0  0  0  0  0  0  0  0
  1  2  1  0
  1 48  1  0
  1 49  1  0
  1 50  1  0
  2  3  1  0
  2 51  1  0
  2 52  1  0
  3  4  1  0
  3 53  1  0
  3 54  1  0
  4  5  1  0
  4 55  1  0
  4 56  1  0
  5  6  1  0
  5 57  1  0
  5 58  1  0
  6  7  1  0
  6 59  1  0
  6 60  1  0
  7  8  1  0
  7 46  1  0
  8  9  2  0
  8 10  1  0
 10 11  2  0
 10 45  1  0
 11 12  1  0
 11 61  1  0
 12 13  2  0
 12 62  1  0
 13 14  1  0
 13 63  1  0
 14 15  1  0
 14 45  2  0
 15 16  2  0
 15 42  1  0
 16 17  1  0
 16 41  1  0
 17 18  2  0
 17 64  1  0
 18 19  1  0
 18 65  1  0
 19 20  1  0
 19 41  2  0
 20 21  2  0
 20 29  1  0
 21 22  1  0
 21 66  1  0
 22 23  2  0
 22 67  1  0
 23 24  1  0
 23 39  1  0
 24 25  1  0
 24 29  2  0
 25 26  2  0
 25 30  1  0
 26 27  1  0
 26 68  1  0
 27 28  2  0
 27 69  1  0
 28 29  1  0
 28 70  1  0
 30 31  2  0
 30 32  1  0
 32 33  1  0
 32 39  1  0
 33 34  1  0
 33 71  1  0
 33 72  1  0
 34 35  1  0
 34 73  1  0
 34 74  1  0
 35 36  1  0
 35 75  1  0
 35 76  1  0
 36 37  1  0
 36 77  1  0
 36 78  1  0
 37 38  1  0
 37 79  1  0
 37 80  1  0
 38 81  1  0
 38 82  1  0
 38 83  1  0
 39 40  2  0
 42 43  2  0
 42 84  1  0
 43 44  1  0
 43 85  1  0
 44 45  1  0
 44 46  2  0
 46 47  1  0
M  CHG  2  41   1  47  -1
M  END

