
     RDKit          3D

 51 50  0  0  0  0  0  0  0  0999 V2000
    2.8170    2.6457    2.1533 C   0  0  0  0  0  0  0  0  0  0  0  0
    3.2404    1.4958    1.2392 C   0  0  0  0  0  0  0  0  0  0  0  0
    4.0568    1.9523    0.0310 C   0  0  0  0  0  0  0  0  0  0  0  0
    4.4489    0.8309   -0.8091 N   0  0  0  0  0  0  0  0  0  0  0  0
    5.2340    1.1512   -1.9987 C   0  0  0  0  0  0  0  0  0  0  0  0
    6.6978    0.6131   -2.0318 C   0  0  1  0  0  0  0  0  0  0  0  0
    7.4656    1.1605   -0.8183 C   0  0  0  0  0  0  0  0  0  0  0  0
    6.7031   -0.9444   -2.0644 C   0  0  0  0  0  0  0  0  0  0  0  0
    6.4381   -1.7090   -0.7596 C   0  0  0  0  0  0  0  0  0  0  0  0
    6.3919   -3.2236   -0.9737 C   0  0  0  0  0  0  0  0  0  0  0  0
    7.3031    1.1545   -3.3635 C   0  0  0  0  0  0  0  0  0  0  0  0
    8.8289    1.2521   -3.5346 C   0  0  0  0  0  0  0  0  0  0  0  0
    9.6211   -0.0466   -3.6288 C   0  0  0  0  0  0  0  0  0  0  0  0
   10.9321    0.2708   -4.0417 O   0  0  0  0  0  0  0  0  0  0  0  0
   11.7926   -0.8334   -4.1442 C   0  0  0  0  0  0  0  0  0  0  0  0
   13.1520   -0.3331   -4.6022 C   0  0  0  0  0  0  0  0  0  0  0  0
   14.0152   -1.4364   -4.7005 O   0  0  0  0  0  0  0  0  0  0  0  0
   15.3116   -1.1082   -5.1178 C   0  0  0  0  0  0  0  0  0  0  0  0
    2.2292    2.2814    3.0104 H   0  0  0  0  0  0  0  0  0  0  0  0
    2.1980    3.3835    1.6158 H   0  0  0  0  0  0  0  0  0  0  0  0
    3.6929    3.1815    2.5561 H   0  0  0  0  0  0  0  0  0  0  0  0
    2.3411    0.9590    0.8825 H   0  0  0  0  0  0  0  0  0  0  0  0
    3.8320    0.7552    1.8040 H   0  0  0  0  0  0  0  0  0  0  0  0
    4.9705    2.4614    0.3848 H   0  0  0  0  0  0  0  0  0  0  0  0
    3.4786    2.7255   -0.5282 H   0  0  0  0  0  0  0  0  0  0  0  0
    3.6287    0.2828   -1.0548 H   0  0  0  0  0  0  0  0  0  0  0  0
    5.2772    2.2503   -2.1262 H   0  0  0  0  0  0  0  0  0  0  0  0
    4.7206    0.7688   -2.9000 H   0  0  0  0  0  0  0  0  0  0  0  0
    6.9372    0.9213    0.1159 H   0  0  0  0  0  0  0  0  0  0  0  0
    7.5669    2.2575   -0.8775 H   0  0  0  0  0  0  0  0  0  0  0  0
    8.4798    0.7372   -0.7447 H   0  0  0  0  0  0  0  0  0  0  0  0
    7.6747   -1.2877   -2.4553 H   0  0  0  0  0  0  0  0  0  0  0  0
    5.9622   -1.2650   -2.8217 H   0  0  0  0  0  0  0  0  0  0  0  0
    5.4989   -1.3574   -0.3088 H   0  0  0  0  0  0  0  0  0  0  0  0
    7.2300   -1.4749   -0.0272 H   0  0  0  0  0  0  0  0  0  0  0  0
    5.5804   -3.5085   -1.6652 H   0  0  0  0  0  0  0  0  0  0  0  0
    6.2228   -3.7612   -0.0267 H   0  0  0  0  0  0  0  0  0  0  0  0
    7.3344   -3.6019   -1.4057 H   0  0  0  0  0  0  0  0  0  0  0  0
    6.9204    2.1800   -3.5088 H   0  0  0  0  0  0  0  0  0  0  0  0
    6.8830    0.5672   -4.2012 H   0  0  0  0  0  0  0  0  0  0  0  0
    9.2707    1.8728   -2.7380 H   0  0  0  0  0  0  0  0  0  0  0  0
    9.0246    1.7956   -4.4747 H   0  0  0  0  0  0  0  0  0  0  0  0
    9.1451   -0.7398   -4.3555 H   0  0  0  0  0  0  0  0  0  0  0  0
    9.6534   -0.5782   -2.6564 H   0  0  0  0  0  0  0  0  0  0  0  0
   11.4117   -1.5806   -4.8711 H   0  0  0  0  0  0  0  0  0  0  0  0
   11.9024   -1.3565   -3.1715 H   0  0  0  0  0  0  0  0  0  0  0  0
   13.5316    0.4166   -3.8769 H   0  0  0  0  0  0  0  0  0  0  0  0
   13.0443    0.1865   -5.5773 H   0  0  0  0  0  0  0  0  0  0  0  0
   15.8987   -2.0376   -5.1604 H   0  0  0  0  0  0  0  0  0  0  0  0
   15.8108   -0.4083   -4.4163 H   0  0  0  0  0  0  0  0  0  0  0  0
   15.3198   -0.6402   -6.1238 H   0  0  0  0  0  0  0  0  0  0  0  0
  1  2  1  0
  1 19  1  0
  1 20  1  0
  1 21  1  0
  2  3  1  0
  2 22  1  0
  2 23  1  0
  3  4  1  0
  3 24  1  0
  3 25  1  0
  4  5  1  0
  4 26  1  0
  6  5  1  1
  5 27  1  0
  5 28  1  0
  6  7  1  0
  6  8  1  0
  6 11  1  0
  7 29  1  0
  7 30  1  0
  7 31  1  0
  8  9  1  0
  8 32  1  0
  8 33  1  0
  9 10  1  0
  9 34  1  0
  9 35  1  0
 10 36  1  0
 10 37  1  0
 10 38  1  0
 11 12  1  0
 11 39  1  0
 11 40  1  0
 12 13  1  0
 12 41  1  0
 12 42  1  0
 13 14  1  0
 13 43  1  0
 13 44  1  0
 14 15  1  0
 15 16  1  0
 15 45  1  0
 15 46  1  0
 16 17  1  0
 16 47  1  0
 16 48  1  0
 17 18  1  0
 18 49  1  0
 18 50  1  0
 18 51  1  0
M  END

