
     RDKit          3D

 44 45  0  0  0  0  0  0  0  0999 V2000
    2.9030    0.2827    1.8306 C   0  0  0  0  0  0  0  0  0  0  0  0
    2.7445    0.2793    0.3101 C   0  0  0  0  0  0  0  0  0  0  0  0
    3.1632    1.5845   -0.3808 C   0  0  1  0  0  0  0  0  0  0  0  0
    2.8059    1.5893   -1.8904 C   0  0  0  0  0  0  0  0  0  0  0  0
    3.4126    0.4707   -2.7394 C   0  0  0  0  0  0  0  0  0  0  0  0
    2.4222    2.6286    0.2682 O   0  0  0  0  0  0  0  0  0  0  0  0
    2.8316    3.9115    0.0430 C   0  0  0  0  0  0  0  0  0  0  0  0
    1.8990    4.9463    0.0784 C   0  0  0  0  0  0  0  0  0  0  0  0
    2.2944    6.2745   -0.0790 C   0  0  0  0  0  0  0  0  0  0  0  0
    3.6484    6.5887   -0.2929 C   0  0  0  0  0  0  0  0  0  0  0  0
    4.0566    7.9015   -0.5161 N   0  0  0  0  0  0  0  0  0  0  0  0
    4.5860    5.5383   -0.3363 C   0  0  0  0  0  0  0  0  0  0  0  0
    4.1925    4.2042   -0.1622 C   0  0  0  0  0  0  0  0  0  0  0  0
    5.1105    3.1250   -0.1501 N   0  0  0  0  0  0  0  0  0  0  0  0
    6.5631    3.3300   -0.0699 C   0  0  1  0  0  0  0  0  0  0  0  0
    7.2204    3.6944   -1.4018 C   0  0  0  0  0  0  0  0  0  0  0  0
    6.9534    4.2681    1.0730 C   0  0  0  0  0  0  0  0  0  0  0  0
    7.7872    5.1377    0.9935 O   0  0  0  0  0  0  0  0  0  0  0  0
    6.2965    3.9629    2.1993 O   0  0  0  0  0  0  0  0  0  0  0  0
    6.5927    4.7580    3.3478 C   0  0  0  0  0  0  0  0  0  0  0  0
    4.6781    1.8117   -0.2148 C   0  0  0  0  0  0  0  0  0  0  0  0
    5.4576    0.8726   -0.2028 O   0  0  0  0  0  0  0  0  0  0  0  0
    2.5648   -0.6770    2.2523 H   0  0  0  0  0  0  0  0  0  0  0  0
    2.3103    1.0864    2.2909 H   0  0  0  0  0  0  0  0  0  0  0  0
    3.9559    0.4189    2.1229 H   0  0  0  0  0  0  0  0  0  0  0  0
    1.6902    0.0956    0.0423 H   0  0  0  0  0  0  0  0  0  0  0  0
    3.3416   -0.5344   -0.1239 H   0  0  0  0  0  0  0  0  0  0  0  0
    3.0971    2.5688   -2.3063 H   0  0  0  0  0  0  0  0  0  0  0  0
    1.7043    1.5540   -1.9399 H   0  0  0  0  0  0  0  0  0  0  0  0
    4.5104    0.4462   -2.6646 H   0  0  0  0  0  0  0  0  0  0  0  0
    3.1480    0.6146   -3.7988 H   0  0  0  0  0  0  0  0  0  0  0  0
    3.0403   -0.5207   -2.4394 H   0  0  0  0  0  0  0  0  0  0  0  0
    0.8515    4.6877    0.2468 H   0  0  0  0  0  0  0  0  0  0  0  0
    1.5481    7.0724   -0.0464 H   0  0  0  0  0  0  0  0  0  0  0  0
    3.4360    8.6213   -0.1636 H   0  0  0  0  0  0  0  0  0  0  0  0
    5.0310    8.1035   -0.3210 H   0  0  0  0  0  0  0  0  0  0  0  0
    5.6325    5.7877   -0.5044 H   0  0  0  0  0  0  0  0  0  0  0  0
    6.9466    2.3409    0.2291 H   0  0  0  0  0  0  0  0  0  0  0  0
    6.8460    4.6400   -1.8175 H   0  0  0  0  0  0  0  0  0  0  0  0
    7.0315    2.8942   -2.1321 H   0  0  0  0  0  0  0  0  0  0  0  0
    8.3061    3.7940   -1.2639 H   0  0  0  0  0  0  0  0  0  0  0  0
    5.9691    4.3654    4.1600 H   0  0  0  0  0  0  0  0  0  0  0  0
    6.3523    5.8153    3.1601 H   0  0  0  0  0  0  0  0  0  0  0  0
    7.6585    4.6822    3.6110 H   0  0  0  0  0  0  0  0  0  0  0  0
  1  2  1  0
  1 23  1  0
  1 24  1  0
  1 25  1  0
  3  2  1  1
  2 26  1  0
  2 27  1  0
  3  4  1  0
  3  6  1  0
  3 21  1  0
  4  5  1  0
  4 28  1  0
  4 29  1  0
  5 30  1  0
  5 31  1  0
  5 32  1  0
  6  7  1  0
  7  8  1  0
  7 13  2  0
  8  9  2  0
  8 33  1  0
  9 10  1  0
  9 34  1  0
 10 11  1  0
 10 12  2  0
 11 35  1  0
 11 36  1  0
 12 13  1  0
 12 37  1  0
 13 14  1  0
 14 15  1  0
 14 21  1  0
 15 16  1  0
 15 17  1  0
 15 38  1  1
 16 39  1  0
 16 40  1  0
 16 41  1  0
 17 18  2  0
 17 19  1  0
 19 20  1  0
 20 42  1  0
 20 43  1  0
 20 44  1  0
 21 22  2  0
M  END

