
     RDKit          3D

105112  0  0  0  0  0  0  0  0999 V2000
    1.7219    0.8061    2.9000 C   0  0  0  0  0  0  0  0  0  0  0  0
    3.1492    0.7327    2.4165 C   0  0  0  0  0  0  0  0  0  0  0  0
    3.5184    1.1892    1.1483 C   0  0  0  0  0  0  0  0  0  0  0  0
    4.8438    1.1362    0.6922 C   0  0  0  0  0  0  0  0  0  0  0  0
    5.1235    1.6748   -0.6968 C   0  0  0  0  0  0  0  0  0  0  0  0
    5.8603    0.5735    1.5132 C   0  0  0  0  0  0  0  0  0  0  0  0
    7.3709    0.4938    1.0265 B   0  0  0  0  0  0  0  0  0  0  0  0
    8.0278    1.8688    0.5917 C   0  0  0  0  0  0  0  0  0  0  0  0
    7.6484    3.0660    1.2842 C   0  0  0  0  0  0  0  0  0  0  0  0
    8.2799    4.2221    0.8785 C   0  0  0  0  0  0  0  0  0  0  0  0
    8.1334    5.5870    1.4006 C   0  0  0  0  0  0  0  0  0  0  0  0
    7.4428    5.8241    2.6079 C   0  0  0  0  0  0  0  0  0  0  0  0
    7.2906    7.1138    3.1080 C   0  0  0  0  0  0  0  0  0  0  0  0
    7.8301    8.2074    2.4188 C   0  0  0  0  0  0  0  0  0  0  0  0
    7.6205    9.6075    2.9354 C   0  0  1  0  0  0  0  0  0  0  0  0
    7.5515    9.6394    4.2785 F   0  0  0  0  0  0  0  0  0  0  0  0
    8.6132   10.4339    2.5604 F   0  0  0  0  0  0  0  0  0  0  0  0
    6.4724   10.1418    2.4737 F   0  0  0  0  0  0  0  0  0  0  0  0
    8.5257    7.9911    1.2242 C   0  0  0  0  0  0  0  0  0  0  0  0
    8.6723    6.6999    0.7230 C   0  0  0  0  0  0  0  0  0  0  0  0
    9.3508    3.8625   -0.4514 S   0  0  0  0  0  0  0  0  0  0  0  0
    8.9889    2.1531   -0.3907 C   0  0  0  0  0  0  0  0  0  0  0  0
    9.5735    1.2755   -1.4027 C   0  0  0  0  0  0  0  0  0  0  0  0
    8.4775    0.1832   -2.2134 S   0  0  0  0  0  0  0  0  0  0  0  0
    9.7276   -0.4940   -3.2137 C   0  0  0  0  0  0  0  0  0  0  0  0
    9.4569   -1.5693   -4.1759 C   0  0  0  0  0  0  0  0  0  0  0  0
    8.2858   -2.3500   -4.1026 C   0  0  0  0  0  0  0  0  0  0  0  0
    8.0395   -3.3666   -5.0223 C   0  0  0  0  0  0  0  0  0  0  0  0
    8.9642   -3.6357   -6.0375 C   0  0  0  0  0  0  0  0  0  0  0  0
    8.7269   -4.7716   -6.9989 C   0  0  1  0  0  0  0  0  0  0  0  0
    7.4150   -4.9961   -7.1950 F   0  0  0  0  0  0  0  0  0  0  0  0
    9.2817   -4.5347   -8.2011 F   0  0  0  0  0  0  0  0  0  0  0  0
    9.2562   -5.9258   -6.5461 F   0  0  0  0  0  0  0  0  0  0  0  0
   10.1338   -2.8699   -6.1251 C   0  0  0  0  0  0  0  0  0  0  0  0
   10.3745   -1.8492   -5.2099 C   0  0  0  0  0  0  0  0  0  0  0  0
   10.9260    0.1335   -2.9419 C   0  0  0  0  0  0  0  0  0  0  0  0
   10.8603    1.1437   -1.9348 C   0  0  0  0  0  0  0  0  0  0  0  0
   12.5016    1.9339   -1.6088 P   0  0  2  0  0  0  0  0  0  0  0  0
   13.5484    1.1420   -2.3533 O   0  0  0  0  0  0  0  0  0  0  0  0
   12.8855    1.9517    0.1844 C   0  0  0  0  0  0  0  0  0  0  0  0
   13.7088    0.8993    0.6219 C   0  0  0  0  0  0  0  0  0  0  0  0
   14.1146    0.8313    1.9566 C   0  0  0  0  0  0  0  0  0  0  0  0
   13.7161    1.8201    2.8620 C   0  0  0  0  0  0  0  0  0  0  0  0
   12.9094    2.8771    2.4298 C   0  0  0  0  0  0  0  0  0  0  0  0
   12.4932    2.9444    1.0968 C   0  0  0  0  0  0  0  0  0  0  0  0
   12.3935    3.6715   -2.1746 C   0  0  0  0  0  0  0  0  0  0  0  0
   11.4796    4.0496   -3.1715 C   0  0  0  0  0  0  0  0  0  0  0  0
   11.5051    5.3423   -3.7018 C   0  0  0  0  0  0  0  0  0  0  0  0
   12.4470    6.2687   -3.2449 C   0  0  0  0  0  0  0  0  0  0  0  0
   13.3708    5.8962   -2.2627 C   0  0  0  0  0  0  0  0  0  0  0  0
   13.3494    4.6034   -1.7345 C   0  0  0  0  0  0  0  0  0  0  0  0
    8.1781   -0.8635    1.0781 C   0  0  0  0  0  0  0  0  0  0  0  0
    7.6341   -2.0650    0.5361 C   0  0  0  0  0  0  0  0  0  0  0  0
    6.2675   -2.1194   -0.1150 C   0  0  0  0  0  0  0  0  0  0  0  0
    8.3703   -3.2543    0.5874 C   0  0  0  0  0  0  0  0  0  0  0  0
    9.6291   -3.3271    1.1964 C   0  0  0  0  0  0  0  0  0  0  0  0
   10.4096   -4.6175    1.2173 C   0  0  0  0  0  0  0  0  0  0  0  0
   10.1384   -2.1576    1.7676 C   0  0  0  0  0  0  0  0  0  0  0  0
    9.4498   -0.9377    1.7116 C   0  0  0  0  0  0  0  0  0  0  0  0
   10.0980    0.2541    2.3837 C   0  0  0  0  0  0  0  0  0  0  0  0
    5.4853    0.0944    2.8026 C   0  0  0  0  0  0  0  0  0  0  0  0
    6.4830   -0.5235    3.7614 C   0  0  0  0  0  0  0  0  0  0  0  0
    4.1556    0.1968    3.2295 C   0  0  0  0  0  0  0  0  0  0  0  0
    1.0648    1.2804    2.1562 H   0  0  0  0  0  0  0  0  0  0  0  0
    1.6456    1.3840    3.8362 H   0  0  0  0  0  0  0  0  0  0  0  0
    1.3198   -0.1990    3.1126 H   0  0  0  0  0  0  0  0  0  0  0  0
    2.7502    1.6054    0.4891 H   0  0  0  0  0  0  0  0  0  0  0  0
    4.1882    1.7987   -1.2624 H   0  0  0  0  0  0  0  0  0  0  0  0
    5.7794    1.0168   -1.2855 H   0  0  0  0  0  0  0  0  0  0  0  0
    5.6180    2.6588   -0.6580 H   0  0  0  0  0  0  0  0  0  0  0  0
    6.9045    3.0522    2.0810 H   0  0  0  0  0  0  0  0  0  0  0  0
    7.0298    4.9865    3.1720 H   0  0  0  0  0  0  0  0  0  0  0  0
    6.7597    7.2727    4.0486 H   0  0  0  0  0  0  0  0  0  0  0  0
    8.9567    8.8364    0.6848 H   0  0  0  0  0  0  0  0  0  0  0  0
    9.2116    6.5571   -0.2165 H   0  0  0  0  0  0  0  0  0  0  0  0
    7.5611   -2.1691   -3.3055 H   0  0  0  0  0  0  0  0  0  0  0  0
    7.1234   -3.9557   -4.9506 H   0  0  0  0  0  0  0  0  0  0  0  0
   10.8529   -3.0652   -6.9227 H   0  0  0  0  0  0  0  0  0  0  0  0
   11.2810   -1.2498   -5.3072 H   0  0  0  0  0  0  0  0  0  0  0  0
   11.8760   -0.1200   -3.4119 H   0  0  0  0  0  0  0  0  0  0  0  0
   14.0423    0.1553   -0.1049 H   0  0  0  0  0  0  0  0  0  0  0  0
   14.7556    0.0102    2.2876 H   0  0  0  0  0  0  0  0  0  0  0  0
   14.0419    1.7719    3.9044 H   0  0  0  0  0  0  0  0  0  0  0  0
   12.6041    3.6572    3.1317 H   0  0  0  0  0  0  0  0  0  0  0  0
   11.8681    3.7766    0.7710 H   0  0  0  0  0  0  0  0  0  0  0  0
   10.7420    3.3319   -3.5382 H   0  0  0  0  0  0  0  0  0  0  0  0
   10.7874    5.6253   -4.4759 H   0  0  0  0  0  0  0  0  0  0  0  0
   12.4665    7.2800   -3.6592 H   0  0  0  0  0  0  0  0  0  0  0  0
   14.1157    6.6140   -1.9100 H   0  0  0  0  0  0  0  0  0  0  0  0
   14.0840    4.3186   -0.9777 H   0  0  0  0  0  0  0  0  0  0  0  0
    5.4606   -2.0212    0.6278 H   0  0  0  0  0  0  0  0  0  0  0  0
    6.1241   -3.0773   -0.6372 H   0  0  0  0  0  0  0  0  0  0  0  0
    6.1164   -1.3141   -0.8491 H   0  0  0  0  0  0  0  0  0  0  0  0
    7.9423   -4.1591    0.1443 H   0  0  0  0  0  0  0  0  0  0  0  0
    9.7483   -5.4892    1.3428 H   0  0  0  0  0  0  0  0  0  0  0  0
   11.1528   -4.6296    2.0289 H   0  0  0  0  0  0  0  0  0  0  0  0
   10.9572   -4.7619    0.2691 H   0  0  0  0  0  0  0  0  0  0  0  0
   11.1067   -2.1919    2.2764 H   0  0  0  0  0  0  0  0  0  0  0  0
   10.8707   -0.0740    3.0939 H   0  0  0  0  0  0  0  0  0  0  0  0
    9.3797    0.8757    2.9383 H   0  0  0  0  0  0  0  0  0  0  0  0
   10.5893    0.9142    1.6544 H   0  0  0  0  0  0  0  0  0  0  0  0
    7.3880    0.0910    3.8826 H   0  0  0  0  0  0  0  0  0  0  0  0
    6.8206   -1.5123    3.4146 H   0  0  0  0  0  0  0  0  0  0  0  0
    6.0357   -0.6518    4.7581 H   0  0  0  0  0  0  0  0  0  0  0  0
    3.8953   -0.1613    4.2308 H   0  0  0  0  0  0  0  0  0  0  0  0
  1  2  1  0
  1 64  1  0
  1 65  1  0
  1 66  1  0
  2  3  2  0
  2 63  1  0
  3  4  1  0
  3 67  1  0
  4  5  1  0
  4  6  2  0
  5 68  1  0
  5 69  1  0
  5 70  1  0
  6  7  1  0
  6 61  1  0
  7  8  1  0
  7 52  1  0
  8  9  2  0
  8 22  1  0
  9 10  1  0
  9 71  1  0
 10 11  1  0
 10 21  2  0
 11 12  2  0
 11 20  1  0
 12 13  1  0
 12 72  1  0
 13 14  2  0
 13 73  1  0
 14 15  1  0
 14 19  1  0
 15 16  1  1
 15 17  1  0
 15 18  1  0
 19 20  2  0
 19 74  1  0
 20 75  1  0
 21 22  1  0
 22 23  2  0
 23 24  1  0
 23 37  1  0
 24 25  1  0
 25 26  1  0
 25 36  2  0
 26 27  2  0
 26 35  1  0
 27 28  1  0
 27 76  1  0
 28 29  2  0
 28 77  1  0
 29 30  1  0
 29 34  1  0
 30 31  1  6
 30 32  1  0
 30 33  1  0
 34 35  2  0
 34 78  1  0
 35 79  1  0
 36 37  1  0
 36 80  1  0
 37 38  2  0
 38 39  1  6
 38 40  1  0
 38 46  1  0
 40 41  2  0
 40 45  1  0
 41 42  1  0
 41 81  1  0
 42 43  2  0
 42 82  1  0
 43 44  1  0
 43 83  1  0
 44 45  2  0
 44 84  1  0
 45 85  1  0
 46 47  2  0
 46 51  1  0
 47 48  1  0
 47 86  1  0
 48 49  2  0
 48 87  1  0
 49 50  1  0
 49 88  1  0
 50 51  2  0
 50 89  1  0
 51 90  1  0
 52 53  2  0
 52 59  1  0
 53 54  1  0
 53 55  1  0
 54 91  1  0
 54 92  1  0
 54 93  1  0
 55 56  2  0
 55 94  1  0
 56 57  1  0
 56 58  1  0
 57 95  1  0
 57 96  1  0
 57 97  1  0
 58 59  2  0
 58 98  1  0
 59 60  1  0
 60 99  1  0
 60100  1  0
 60101  1  0
 61 62  1  0
 61 63  2  0
 62102  1  0
 62103  1  0
 62104  1  0
 63105  1  0
M  CHG  2  21   1  39  -1
M  END

