
     RDKit          3D

 46 48  0  0  0  0  0  0  0  0999 V2000
    1.3362   -0.1979   -1.1091 C   0  0  0  0  0  0  0  0  0  0  0  0
    2.8454   -0.3417   -1.1303 C   0  0  0  0  0  0  0  0  0  0  0  0
    3.1568   -1.7030   -0.8626 O   0  0  0  0  0  0  0  0  0  0  0  0
    4.4377   -2.1216   -0.8171 C   0  0  0  0  0  0  0  0  0  0  0  0
    5.5374   -1.2717   -1.0293 C   0  0  0  0  0  0  0  0  0  0  0  0
    6.8407   -1.7668   -0.9653 C   0  0  0  0  0  0  0  0  0  0  0  0
    7.0756   -3.1164   -0.6887 C   0  0  0  0  0  0  0  0  0  0  0  0
    5.9934   -3.9657   -0.4780 C   0  0  0  0  0  0  0  0  0  0  0  0
    4.6678   -3.4955   -0.5369 C   0  0  0  0  0  0  0  0  0  0  0  0
    3.6050   -4.4702   -0.2968 C   0  0  0  0  0  0  0  0  0  0  0  0
    3.7595   -5.7271    0.0061 N   0  0  0  0  0  0  0  0  0  0  0  0
    2.4995   -6.2761    0.1340 N   0  0  0  0  0  0  0  0  0  0  0  0
    1.6584   -5.3123   -0.0965 C   0  0  0  0  0  0  0  0  0  0  0  0
   -0.0888   -5.3071   -0.1198 S   0  0  0  0  0  0  0  0  0  0  0  0
   -0.4041   -7.0512    0.3658 C   0  0  0  0  0  0  0  0  0  0  0  0
   -0.6832   -7.1893    1.8678 C   0  0  0  0  0  0  0  0  0  0  0  0
   -1.6712   -6.6346    2.3243 O   0  0  0  0  0  0  0  0  0  0  0  0
    0.1559   -7.9568    2.6313 N   0  0  0  0  0  0  0  0  0  0  0  0
    1.3750   -8.6441    2.2088 C   0  0  0  0  0  0  0  0  0  0  0  0
    2.5011   -8.3502    3.2016 C   0  0  0  0  0  0  0  0  0  0  0  0
    2.1285   -8.6460    4.5304 O   0  0  0  0  0  0  0  0  0  0  0  0
    0.9939   -7.9010    4.9525 C   0  0  2  0  0  0  0  0  0  0  0  0
    0.7124   -8.2618    6.4008 C   0  0  0  0  0  0  0  0  0  0  0  0
   -0.1966   -8.1896    4.0322 C   0  0  0  0  0  0  0  0  0  0  0  0
    2.2775   -4.1447   -0.3754 O   0  0  0  0  0  0  0  0  0  0  0  0
    1.0520    0.8461   -1.3124 H   0  0  0  0  0  0  0  0  0  0  0  0
    0.9321   -0.4861   -0.1270 H   0  0  0  0  0  0  0  0  0  0  0  0
    0.8740   -0.8416   -1.8726 H   0  0  0  0  0  0  0  0  0  0  0  0
    3.3146    0.3073   -0.3675 H   0  0  0  0  0  0  0  0  0  0  0  0
    3.2560   -0.0495   -2.1148 H   0  0  0  0  0  0  0  0  0  0  0  0
    5.3774   -0.2162   -1.2454 H   0  0  0  0  0  0  0  0  0  0  0  0
    7.6785   -1.0854   -1.1342 H   0  0  0  0  0  0  0  0  0  0  0  0
    8.0949   -3.5046   -0.6383 H   0  0  0  0  0  0  0  0  0  0  0  0
    6.1464   -5.0240   -0.2605 H   0  0  0  0  0  0  0  0  0  0  0  0
    0.3907   -7.6769   -0.0518 H   0  0  0  0  0  0  0  0  0  0  0  0
   -1.3509   -7.2928   -0.1368 H   0  0  0  0  0  0  0  0  0  0  0  0
    1.6997   -8.2966    1.2225 H   0  0  0  0  0  0  0  0  0  0  0  0
    1.1905   -9.7349    2.1755 H   0  0  0  0  0  0  0  0  0  0  0  0
    2.7930   -7.2851    3.1053 H   0  0  0  0  0  0  0  0  0  0  0  0
    3.3802   -8.9685    2.9645 H   0  0  0  0  0  0  0  0  0  0  0  0
    1.2276   -6.8175    4.8751 H   0  0  0  0  0  0  0  0  0  0  0  0
    0.4721   -9.3330    6.4911 H   0  0  0  0  0  0  0  0  0  0  0  0
   -0.1331   -7.6763    6.7936 H   0  0  0  0  0  0  0  0  0  0  0  0
    1.5994   -8.0582    7.0186 H   0  0  0  0  0  0  0  0  0  0  0  0
   -1.0546   -7.5506    4.2737 H   0  0  0  0  0  0  0  0  0  0  0  0
   -0.4950   -9.2479    4.1605 H   0  0  0  0  0  0  0  0  0  0  0  0
  1  2  1  0
  1 26  1  0
  1 27  1  0
  1 28  1  0
  2  3  1  0
  2 29  1  0
  2 30  1  0
  3  4  1  0
  4  5  2  0
  4  9  1  0
  5  6  1  0
  5 31  1  0
  6  7  2  0
  6 32  1  0
  7  8  1  0
  7 33  1  0
  8  9  2  0
  8 34  1  0
  9 10  1  0
 10 11  2  0
 10 25  1  0
 11 12  1  0
 12 13  2  0
 13 14  1  0
 13 25  1  0
 14 15  1  0
 15 16  1  0
 15 35  1  0
 15 36  1  0
 16 17  2  0
 16 18  1  0
 18 19  1  0
 18 24  1  0
 19 20  1  0
 19 37  1  0
 19 38  1  0
 20 21  1  0
 20 39  1  0
 20 40  1  0
 21 22  1  0
 22 23  1  0
 22 24  1  0
 22 41  1  1
 23 42  1  0
 23 43  1  0
 23 44  1  0
 24 45  1  0
 24 46  1  0
M  END

