
     RDKit          3D

 52 55  0  0  0  0  0  0  0  0999 V2000
    4.0544    3.9316    3.9128 C   0  0  0  0  0  0  0  0  0  0  0  0
    5.0658    3.1290    3.1171 C   0  0  0  0  0  0  0  0  0  0  0  0
    5.3015    3.8068    1.8926 O   0  0  0  0  0  0  0  0  0  0  0  0
    6.1744    3.2896    0.9934 C   0  0  0  0  0  0  0  0  0  0  0  0
    6.8908    2.0967    1.1669 C   0  0  0  0  0  0  0  0  0  0  0  0
    7.7704    1.6484    0.1755 C   0  0  0  0  0  0  0  0  0  0  0  0
    7.9428    2.3751   -1.0094 C   0  0  0  0  0  0  0  0  0  0  0  0
    8.8439    1.9913   -2.0200 N   0  0  0  0  0  0  0  0  0  0  0  0
    9.4028    0.7954   -2.3242 C   0  0  0  0  0  0  0  0  0  0  0  0
    9.1571   -0.5373   -2.0789 C   0  0  0  0  0  0  0  0  0  0  0  0
    8.0073   -1.2291   -1.4814 C   0  0  0  0  0  0  0  0  0  0  0  0
    6.6976   -0.7325   -1.6328 C   0  0  0  0  0  0  0  0  0  0  0  0
    5.6030   -1.4062   -1.0892 C   0  0  0  0  0  0  0  0  0  0  0  0
    5.7642   -2.6028   -0.3761 C   0  0  0  0  0  0  0  0  0  0  0  0
    4.5807   -3.3495    0.1883 C   0  0  0  0  0  0  0  0  0  0  0  0
    7.0701   -3.1016   -0.2297 C   0  0  0  0  0  0  0  0  0  0  0  0
    8.1689   -2.4383   -0.7713 C   0  0  0  0  0  0  0  0  0  0  0  0
   10.2890   -1.2900   -2.6927 C   0  0  0  0  0  0  0  0  0  0  0  0
   10.5174   -2.4797   -2.6897 O   0  0  0  0  0  0  0  0  0  0  0  0
   11.1396   -0.3532   -3.3346 N   0  0  0  0  0  0  0  0  0  0  0  0
   12.3209   -0.7263   -4.1033 C   0  0  0  0  0  0  0  0  0  0  0  0
   12.0277   -1.1910   -5.4939 C   0  0  0  0  0  0  0  0  0  0  0  0
   11.7877   -2.4264   -6.0321 C   0  0  0  0  0  0  0  0  0  0  0  0
   11.5326   -2.2156   -7.4273 C   0  0  0  0  0  0  0  0  0  0  0  0
   11.6337   -0.8681   -7.6274 C   0  0  0  0  0  0  0  0  0  0  0  0
   11.9327   -0.2390   -6.4644 O   0  0  0  0  0  0  0  0  0  0  0  0
   10.6628    0.9200   -3.1582 C   0  0  0  0  0  0  0  0  0  0  0  0
   11.1386    1.9625   -3.5582 O   0  0  0  0  0  0  0  0  0  0  0  0
    7.2230    3.5752   -1.1767 C   0  0  0  0  0  0  0  0  0  0  0  0
    6.3574    4.0279   -0.1914 C   0  0  0  0  0  0  0  0  0  0  0  0
    3.8454    3.4355    4.8732 H   0  0  0  0  0  0  0  0  0  0  0  0
    3.1094    4.0271    3.3566 H   0  0  0  0  0  0  0  0  0  0  0  0
    4.4362    4.9433    4.1185 H   0  0  0  0  0  0  0  0  0  0  0  0
    4.6872    2.1085    2.9170 H   0  0  0  0  0  0  0  0  0  0  0  0
    6.0131    3.0246    3.6795 H   0  0  0  0  0  0  0  0  0  0  0  0
    6.7817    1.5022    2.0736 H   0  0  0  0  0  0  0  0  0  0  0  0
    8.3357    0.7325    0.3428 H   0  0  0  0  0  0  0  0  0  0  0  0
    9.3089    2.7542   -2.5139 H   0  0  0  0  0  0  0  0  0  0  0  0
    6.5298    0.1829   -2.2030 H   0  0  0  0  0  0  0  0  0  0  0  0
    4.5999   -0.9928   -1.2285 H   0  0  0  0  0  0  0  0  0  0  0  0
    3.6873   -2.7097    0.2475 H   0  0  0  0  0  0  0  0  0  0  0  0
    4.7912   -3.7371    1.1981 H   0  0  0  0  0  0  0  0  0  0  0  0
    4.3218   -4.2192   -0.4411 H   0  0  0  0  0  0  0  0  0  0  0  0
    7.2300   -4.0335    0.3211 H   0  0  0  0  0  0  0  0  0  0  0  0
    9.1672   -2.8596   -0.6530 H   0  0  0  0  0  0  0  0  0  0  0  0
   12.8282   -1.5333   -3.5571 H   0  0  0  0  0  0  0  0  0  0  0  0
   12.9755    0.1564   -4.1354 H   0  0  0  0  0  0  0  0  0  0  0  0
   11.7786   -3.3668   -5.4855 H   0  0  0  0  0  0  0  0  0  0  0  0
   11.3048   -2.9677   -8.1798 H   0  0  0  0  0  0  0  0  0  0  0  0
   11.5314   -0.2326   -8.5034 H   0  0  0  0  0  0  0  0  0  0  0  0
    7.3480    4.1535   -2.0962 H   0  0  0  0  0  0  0  0  0  0  0  0
    5.7987    4.9574   -0.3161 H   0  0  0  0  0  0  0  0  0  0  0  0
  1  2  1  0
  1 31  1  0
  1 32  1  0
  1 33  1  0
  2  3  1  0
  2 34  1  0
  2 35  1  0
  3  4  1  0
  4  5  2  0
  4 30  1  0
  5  6  1  0
  5 36  1  0
  6  7  2  0
  6 37  1  0
  7  8  1  0
  7 29  1  0
  8  9  1  0
  8 38  1  0
  9 10  2  0
  9 27  1  0
 10 11  1  0
 10 18  1  0
 11 12  2  0
 11 17  1  0
 12 13  1  0
 12 39  1  0
 13 14  2  0
 13 40  1  0
 14 15  1  0
 14 16  1  0
 15 41  1  0
 15 42  1  0
 15 43  1  0
 16 17  2  0
 16 44  1  0
 17 45  1  0
 18 19  2  0
 18 20  1  0
 20 21  1  0
 20 27  1  0
 21 22  1  0
 21 46  1  0
 21 47  1  0
 22 23  2  0
 22 26  1  0
 23 24  1  0
 23 48  1  0
 24 25  2  0
 24 49  1  0
 25 26  1  0
 25 50  1  0
 27 28  2  0
 29 30  2  0
 29 51  1  0
 30 52  1  0
M  END

