
     RDKit          3D

 54 57  0  0  0  0  0  0  0  0999 V2000
    2.4779    3.6629   -0.6091 C   0  0  0  0  0  0  0  0  0  0  0  0
    2.6114    2.5033    0.3587 C   0  0  1  0  0  0  0  0  0  0  0  0
    1.3740    2.2196    0.8761 F   0  0  0  0  0  0  0  0  0  0  0  0
    3.0023    1.3903   -0.3424 F   0  0  0  0  0  0  0  0  0  0  0  0
    3.5882    2.7300    1.5005 C   0  0  0  0  0  0  0  0  0  0  0  0
    3.1410    3.1960    2.7437 C   0  0  0  0  0  0  0  0  0  0  0  0
    4.0524    3.4384    3.7753 C   0  0  0  0  0  0  0  0  0  0  0  0
    5.4166    3.2094    3.5828 C   0  0  0  0  0  0  0  0  0  0  0  0
    5.8484    2.7253    2.3438 C   0  0  0  0  0  0  0  0  0  0  0  0
    7.5957    2.3747    2.0791 S   0  0  1  0  0  0  0  0  0  0  0  0
    7.8256    2.3517    0.6335 O   0  0  0  0  0  0  0  0  0  0  0  0
    8.3465    3.2810    2.9481 O   0  0  0  0  0  0  0  0  0  0  0  0
    7.8686    0.7787    2.6178 N   0  0  0  0  0  0  0  0  0  0  0  0
    7.6524   -0.3084    1.6487 C   0  0  0  0  0  0  0  0  0  0  0  0
    6.3319   -1.0316    1.9076 C   0  0  0  0  0  0  0  0  0  0  0  0
    6.3297   -1.6176    3.3212 C   0  0  0  0  0  0  0  0  0  0  0  0
    6.9682   -0.7058    4.3523 C   0  0  0  0  0  0  0  0  0  0  0  0
    6.8762   -1.0270    5.7184 C   0  0  0  0  0  0  0  0  0  0  0  0
    7.4836   -0.2649    6.7058 C   0  0  0  0  0  0  0  0  0  0  0  0
    8.2440    0.8591    6.3373 C   0  0  0  0  0  0  0  0  0  0  0  0
    8.8259    1.5491    7.3527 O   0  0  0  0  0  0  0  0  0  0  0  0
    9.6321    2.6798    7.0437 C   0  0  0  0  0  0  0  0  0  0  0  0
   10.1415    3.2657    8.3327 C   0  0  0  0  0  0  0  0  0  0  0  0
    9.4554    4.3192    8.9520 C   0  0  0  0  0  0  0  0  0  0  0  0
    8.3610    4.8089    8.3491 F   0  0  0  0  0  0  0  0  0  0  0  0
    9.8588    4.8914   10.1548 C   0  0  0  0  0  0  0  0  0  0  0  0
   10.9956    4.3837   10.7854 C   0  0  0  0  0  0  0  0  0  0  0  0
   11.7106    3.3276   10.2167 C   0  0  0  0  0  0  0  0  0  0  0  0
   11.2756    2.7782    9.0070 C   0  0  0  0  0  0  0  0  0  0  0  0
   12.1902    1.4538    8.3227 Cl  0  0  0  0  0  0  0  0  0  0  0  0
    8.3738    1.1972    4.9882 C   0  0  0  0  0  0  0  0  0  0  0  0
    7.7205    0.4335    3.9985 C   0  0  0  0  0  0  0  0  0  0  0  0
    4.9521    2.4934    1.2981 C   0  0  0  0  0  0  0  0  0  0  0  0
    1.7565    3.3900   -1.3934 H   0  0  0  0  0  0  0  0  0  0  0  0
    3.4496    3.8872   -1.0705 H   0  0  0  0  0  0  0  0  0  0  0  0
    2.1204    4.5577   -0.0807 H   0  0  0  0  0  0  0  0  0  0  0  0
    2.0743    3.3638    2.9019 H   0  0  0  0  0  0  0  0  0  0  0  0
    3.6968    3.8096    4.7393 H   0  0  0  0  0  0  0  0  0  0  0  0
    6.1399    3.4102    4.3738 H   0  0  0  0  0  0  0  0  0  0  0  0
    8.5007   -1.0079    1.7515 H   0  0  0  0  0  0  0  0  0  0  0  0
    7.7068    0.1187    0.6413 H   0  0  0  0  0  0  0  0  0  0  0  0
    6.1856   -1.8268    1.1591 H   0  0  0  0  0  0  0  0  0  0  0  0
    5.4992   -0.3205    1.7795 H   0  0  0  0  0  0  0  0  0  0  0  0
    6.8842   -2.5746    3.3170 H   0  0  0  0  0  0  0  0  0  0  0  0
    5.3028   -1.8715    3.6324 H   0  0  0  0  0  0  0  0  0  0  0  0
    6.2980   -1.9096    6.0086 H   0  0  0  0  0  0  0  0  0  0  0  0
    7.3985   -0.5204    7.7634 H   0  0  0  0  0  0  0  0  0  0  0  0
    9.0407    3.4326    6.4983 H   0  0  0  0  0  0  0  0  0  0  0  0
   10.4803    2.3778    6.4073 H   0  0  0  0  0  0  0  0  0  0  0  0
    9.2789    5.7145   10.5751 H   0  0  0  0  0  0  0  0  0  0  0  0
   11.3307    4.8157   11.7312 H   0  0  0  0  0  0  0  0  0  0  0  0
   12.5992    2.9225   10.7019 H   0  0  0  0  0  0  0  0  0  0  0  0
    8.9732    2.0438    4.6689 H   0  0  0  0  0  0  0  0  0  0  0  0
    5.3215    2.1346    0.3365 H   0  0  0  0  0  0  0  0  0  0  0  0
  1  2  1  0
  1 34  1  0
  1 35  1  0
  1 36  1  0
  2  3  1  1
  2  4  1  0
  2  5  1  0
  5  6  2  0
  5 33  1  0
  6  7  1  0
  6 37  1  0
  7  8  2  0
  7 38  1  0
  8  9  1  0
  8 39  1  0
 10  9  1  6
  9 33  2  0
 10 11  2  0
 10 12  2  0
 10 13  1  0
 13 14  1  0
 13 32  1  0
 14 15  1  0
 14 40  1  0
 14 41  1  0
 15 16  1  0
 15 42  1  0
 15 43  1  0
 16 17  1  0
 16 44  1  0
 16 45  1  0
 17 18  2  0
 17 32  1  0
 18 19  1  0
 18 46  1  0
 19 20  2  0
 19 47  1  0
 20 21  1  0
 20 31  1  0
 21 22  1  0
 22 23  1  0
 22 48  1  0
 22 49  1  0
 23 24  2  0
 23 29  1  0
 24 25  1  0
 24 26  1  0
 26 27  2  0
 26 50  1  0
 27 28  1  0
 27 51  1  0
 28 29  2  0
 28 52  1  0
 29 30  1  0
 31 32  2  0
 31 53  1  0
 33 54  1  0
M  END

