
     RDKit          3D

 33 36  0  0  0  0  0  0  0  0999 V2000
    4.2365    0.8094    1.0982 C   0  0  0  0  0  0  0  0  0  0  0  0
    2.8386   -0.0877    0.3564 S   0  0  0  0  0  0  0  0  0  0  0  0
    3.2417   -1.7676    0.7617 C   0  0  0  0  0  0  0  0  0  0  0  0
    4.3694   -2.0112    1.4442 N   0  0  0  0  0  0  0  0  0  0  0  0
    4.6780   -3.2691    1.7732 C   0  0  0  0  0  0  0  0  0  0  0  0
    5.9714   -3.4857    2.4890 C   0  0  0  0  0  0  0  0  0  0  0  0
    6.9264   -4.3559    1.9027 C   0  0  0  0  0  0  0  0  0  0  0  0
    8.1474   -4.5072    2.5279 C   0  0  0  0  0  0  0  0  0  0  0  0
    8.4516   -3.8369    3.7143 C   0  0  0  0  0  0  0  0  0  0  0  0
    7.5422   -2.9963    4.3279 C   0  0  0  0  0  0  0  0  0  0  0  0
    6.2955   -2.8288    3.6915 C   0  0  0  0  0  0  0  0  0  0  0  0
    5.1354   -1.8027    4.5081 Cl  0  0  0  0  0  0  0  0  0  0  0  0
    9.7097   -4.1719    4.1179 O   0  0  0  0  0  0  0  0  0  0  0  0
   10.2521   -5.0078    3.0947 C   0  0  0  0  0  0  0  0  0  0  0  0
    9.2132   -5.2799    2.1590 O   0  0  0  0  0  0  0  0  0  0  0  0
    3.8198   -4.3222    1.4004 C   0  0  0  0  0  0  0  0  0  0  0  0
    3.7299   -5.7589    1.5605 C   0  0  0  0  0  0  0  0  0  0  0  0
    4.6750   -6.5848    2.1749 N   0  0  0  0  0  0  0  0  0  0  0  0
    2.5706   -6.1458    0.9227 C   0  0  0  0  0  0  0  0  0  0  0  0
    1.9365   -5.0275    0.3718 N   0  0  0  0  0  0  0  0  0  0  0  0
    1.0590   -5.0212   -0.1309 H   0  0  0  0  0  0  0  0  0  0  0  0
    2.6626   -3.9171    0.6596 C   0  0  0  0  0  0  0  0  0  0  0  0
    2.3551   -2.6676    0.3336 N   0  0  0  0  0  0  0  0  0  0  0  0
    4.0187    1.8767    0.9474 H   0  0  0  0  0  0  0  0  0  0  0  0
    5.1812    0.5462    0.6039 H   0  0  0  0  0  0  0  0  0  0  0  0
    4.3186    0.5863    2.1697 H   0  0  0  0  0  0  0  0  0  0  0  0
    6.6982   -4.8856    0.9781 H   0  0  0  0  0  0  0  0  0  0  0  0
    7.7679   -2.4850    5.2630 H   0  0  0  0  0  0  0  0  0  0  0  0
   10.6104   -5.9517    3.5399 H   0  0  0  0  0  0  0  0  0  0  0  0
   11.0843   -4.4818    2.5893 H   0  0  0  0  0  0  0  0  0  0  0  0
    5.1327   -6.1582    2.9750 H   0  0  0  0  0  0  0  0  0  0  0  0
    4.3181   -7.5038    2.4196 H   0  0  0  0  0  0  0  0  0  0  0  0
    2.1450   -7.1401    0.8089 H   0  0  0  0  0  0  0  0  0  0  0  0
  1  2  1  0
  1 24  1  0
  1 25  1  0
  1 26  1  0
  2  3  1  0
  3  4  2  0
  3 23  1  0
  4  5  1  0
  5  6  1  0
  5 16  2  0
  6  7  2  0
  6 11  1  0
  7  8  1  0
  7 27  1  0
  8  9  2  0
  8 15  1  0
  9 10  1  0
  9 13  1  0
 10 11  2  0
 10 28  1  0
 11 12  1  0
 13 14  1  0
 14 15  1  0
 14 29  1  0
 14 30  1  0
 16 17  1  0
 16 22  1  0
 17 18  1  0
 17 19  2  0
 18 31  1  0
 18 32  1  0
 19 20  1  0
 19 33  1  0
 20 21  1  0
 20 22  1  0
 22 23  2  0
M  END

