
     RDKit          3D

 46 51  0  0  0  0  0  0  0  0999 V2000
    0.7732    0.0572   -0.1337 C   0  0  0  0  0  0  0  0  0  0  0  0
    2.2831    0.0667   -0.0634 C   0  0  0  0  0  0  0  0  0  0  0  0
    2.9987    1.1300    0.5418 C   0  0  0  0  0  0  0  0  0  0  0  0
    2.3494    2.2701    1.1285 C   0  0  0  0  0  0  0  0  0  0  0  0
    3.0562    3.2919    1.7093 C   0  0  0  0  0  0  0  0  0  0  0  0
    4.4783    3.2516    1.7484 C   0  0  0  0  0  0  0  0  0  0  0  0
    5.1485    2.1873    1.2042 C   0  0  0  0  0  0  0  0  0  0  0  0
    4.4494    1.0961    0.5866 C   0  0  0  0  0  0  0  0  0  0  0  0
    5.1456    0.0028    0.0273 C   0  0  0  0  0  0  0  0  0  0  0  0
    6.6411   -0.0326    0.0757 C   0  0  0  0  0  0  0  0  0  0  0  0
    7.2954   -0.6212    1.1706 C   0  0  0  0  0  0  0  0  0  0  0  0
    6.7700   -1.2308    2.3443 C   0  0  0  0  0  0  0  0  0  0  0  0
    7.8560   -1.6390    3.1107 C   0  0  0  0  0  0  0  0  0  0  0  0
    9.0181   -1.2724    2.3926 C   0  0  0  0  0  0  0  0  0  0  0  0
    8.6857   -0.6700    1.2436 N   0  0  0  0  0  0  0  0  0  0  0  0
    9.6873   -0.1376    0.1580 B   0  0  1  0  0  0  0  0  0  0  0  0
   10.5175    0.8203    0.7076 F   0  0  0  0  0  0  0  0  0  0  0  0
   10.4114   -1.1892   -0.3716 F   0  0  0  0  0  0  0  0  0  0  0  0
    8.7854    0.5060   -0.9548 N   0  0  0  0  0  0  0  0  0  0  0  0
    9.2204    1.1151   -2.0655 C   0  0  0  0  0  0  0  0  0  0  0  0
    8.1265    1.5540   -2.8472 C   0  0  0  0  0  0  0  0  0  0  0  0
    6.9745    1.1839   -2.1619 C   0  0  0  0  0  0  0  0  0  0  0  0
    7.3926    0.5258   -0.9713 C   0  0  0  0  0  0  0  0  0  0  0  0
    4.4405   -1.0613   -0.5786 C   0  0  0  0  0  0  0  0  0  0  0  0
    5.1203   -2.1853   -1.1548 C   0  0  0  0  0  0  0  0  0  0  0  0
    4.4288   -3.2146   -1.7413 C   0  0  0  0  0  0  0  0  0  0  0  0
    3.0072   -3.1838   -1.7886 C   0  0  0  0  0  0  0  0  0  0  0  0
    2.3193   -2.1261   -1.2478 C   0  0  0  0  0  0  0  0  0  0  0  0
    2.9954   -1.0251   -0.6226 C   0  0  0  0  0  0  0  0  0  0  0  0
    0.3123    0.9357    0.3281 H   0  0  0  0  0  0  0  0  0  0  0  0
    0.3573   -0.8295    0.3723 H   0  0  0  0  0  0  0  0  0  0  0  0
    0.4241    0.0208   -1.1788 H   0  0  0  0  0  0  0  0  0  0  0  0
    1.2623    2.3326    1.1154 H   0  0  0  0  0  0  0  0  0  0  0  0
    2.5255    4.1419    2.1452 H   0  0  0  0  0  0  0  0  0  0  0  0
    5.0343    4.0700    2.2121 H   0  0  0  0  0  0  0  0  0  0  0  0
    6.2386    2.1622    1.2376 H   0  0  0  0  0  0  0  0  0  0  0  0
    5.7120   -1.3402    2.5724 H   0  0  0  0  0  0  0  0  0  0  0  0
    7.8362   -2.1414    4.0755 H   0  0  0  0  0  0  0  0  0  0  0  0
   10.0640   -1.4203    2.6599 H   0  0  0  0  0  0  0  0  0  0  0  0
   10.2873    1.2154   -2.2625 H   0  0  0  0  0  0  0  0  0  0  0  0
    8.1937    2.0788   -3.7979 H   0  0  0  0  0  0  0  0  0  0  0  0
    5.9401    1.3534   -2.4529 H   0  0  0  0  0  0  0  0  0  0  0  0
    6.2104   -2.2165   -1.1228 H   0  0  0  0  0  0  0  0  0  0  0  0
    4.9693   -4.0603   -2.1733 H   0  0  0  0  0  0  0  0  0  0  0  0
    2.4625   -4.0068   -2.2579 H   0  0  0  0  0  0  0  0  0  0  0  0
    1.2307   -2.1256   -1.2962 H   0  0  0  0  0  0  0  0  0  0  0  0
  1  2  1  0
  1 30  1  0
  1 31  1  0
  1 32  1  0
  2  3  2  0
  2 29  1  0
  3  4  1  0
  3  8  1  0
  4  5  2  0
  4 33  1  0
  5  6  1  0
  5 34  1  0
  6  7  2  0
  6 35  1  0
  7  8  1  0
  7 36  1  0
  8  9  2  0
  9 10  1  0
  9 24  1  0
 10 11  1  0
 10 23  2  0
 11 12  2  0
 11 15  1  0
 12 13  1  0
 12 37  1  0
 13 14  2  0
 13 38  1  0
 14 15  1  0
 14 39  1  0
 15 16  1  0
 16 17  1  1
 16 18  1  0
 16 19  1  0
 19 20  2  0
 19 23  1  0
 20 21  1  0
 20 40  1  0
 21 22  2  0
 21 41  1  0
 22 23  1  0
 22 42  1  0
 24 25  1  0
 24 29  2  0
 25 26  2  0
 25 43  1  0
 26 27  1  0
 26 44  1  0
 27 28  2  0
 27 45  1  0
 28 29  1  0
 28 46  1  0
M  CHG  2  16  -1  19   1
M  END

