
     RDKit          3D

 39 40  0  0  0  0  0  0  0  0999 V2000
    9.1997   -1.5355    4.5621 C   0  0  0  0  0  0  0  0  0  0  0  0
    8.5620   -1.3750    3.2687 N   0  0  0  0  0  0  0  0  0  0  0  0
    7.2452   -1.9802    3.1797 C   0  0  0  0  0  0  0  0  0  0  0  0
    6.4861   -1.6043    1.9195 C   0  0  0  0  0  0  0  0  0  0  0  0
    7.0239   -0.6490    1.0498 C   0  0  0  0  0  0  0  0  0  0  0  0
    6.3040   -0.2199   -0.0609 C   0  0  0  0  0  0  0  0  0  0  0  0
    6.8445    0.7051   -0.8739 F   0  0  0  0  0  0  0  0  0  0  0  0
    5.0355   -0.7131   -0.3332 C   0  0  0  0  0  0  0  0  0  0  0  0
    4.4988   -1.6749    0.5266 C   0  0  0  0  0  0  0  0  0  0  0  0
    5.1967   -2.1432    1.6553 C   0  0  0  0  0  0  0  0  0  0  0  0
    4.6174   -3.0834    2.5574 N   0  0  0  0  0  0  0  0  0  0  0  0
    3.1856   -2.9771    2.8555 C   0  0  0  0  0  0  0  0  0  0  0  0
    2.2739   -3.8991    2.0256 C   0  0  0  0  0  0  0  0  0  0  0  0
    2.7870   -5.3438    2.0413 C   0  0  0  0  0  0  0  0  0  0  0  0
    4.2708   -5.3859    1.6540 C   0  0  0  0  0  0  0  0  0  0  0  0
    5.1354   -4.4646    2.5414 C   0  0  2  0  0  0  0  0  0  0  0  0
    5.3049   -5.0047    3.9769 C   0  0  0  0  0  0  0  0  0  0  0  0
    5.9133   -6.2804    4.0105 O   0  0  0  0  0  0  0  0  0  0  0  0
   10.2141   -1.1078    4.5341 H   0  0  0  0  0  0  0  0  0  0  0  0
    9.2837   -2.5898    4.9097 H   0  0  0  0  0  0  0  0  0  0  0  0
    8.6321   -0.9848    5.3315 H   0  0  0  0  0  0  0  0  0  0  0  0
    9.1634   -1.7556    2.5383 H   0  0  0  0  0  0  0  0  0  0  0  0
    6.6449   -1.6428    4.0451 H   0  0  0  0  0  0  0  0  0  0  0  0
    7.2899   -3.0840    3.2806 H   0  0  0  0  0  0  0  0  0  0  0  0
    7.9909   -0.1984    1.2742 H   0  0  0  0  0  0  0  0  0  0  0  0
    4.4865   -0.3568   -1.2070 H   0  0  0  0  0  0  0  0  0  0  0  0
    3.5084   -2.0726    0.3055 H   0  0  0  0  0  0  0  0  0  0  0  0
    2.8880   -1.9249    2.7382 H   0  0  0  0  0  0  0  0  0  0  0  0
    3.0326   -3.2178    3.9246 H   0  0  0  0  0  0  0  0  0  0  0  0
    2.2246   -3.5476    0.9808 H   0  0  0  0  0  0  0  0  0  0  0  0
    1.2455   -3.8438    2.4217 H   0  0  0  0  0  0  0  0  0  0  0  0
    2.1941   -5.9726    1.3566 H   0  0  0  0  0  0  0  0  0  0  0  0
    2.6437   -5.7745    3.0495 H   0  0  0  0  0  0  0  0  0  0  0  0
    4.3838   -5.0629    0.6046 H   0  0  0  0  0  0  0  0  0  0  0  0
    4.6676   -6.4145    1.6988 H   0  0  0  0  0  0  0  0  0  0  0  0
    6.1442   -4.4364    2.1035 H   0  0  0  0  0  0  0  0  0  0  0  0
    4.3391   -5.0047    4.5169 H   0  0  0  0  0  0  0  0  0  0  0  0
    5.9687   -4.3218    4.5269 H   0  0  0  0  0  0  0  0  0  0  0  0
    5.2552   -6.9440    3.7709 H   0  0  0  0  0  0  0  0  0  0  0  0
  1  2  1  0
  1 19  1  0
  1 20  1  0
  1 21  1  0
  2  3  1  0
  2 22  1  0
  3  4  1  0
  3 23  1  0
  3 24  1  0
  4  5  2  0
  4 10  1  0
  5  6  1  0
  5 25  1  0
  6  7  1  0
  6  8  2  0
  8  9  1  0
  8 26  1  0
  9 10  2  0
  9 27  1  0
 10 11  1  0
 11 12  1  0
 11 16  1  0
 12 13  1  0
 12 28  1  0
 12 29  1  0
 13 14  1  0
 13 30  1  0
 13 31  1  0
 14 15  1  0
 14 32  1  0
 14 33  1  0
 15 16  1  0
 15 34  1  0
 15 35  1  0
 16 17  1  0
 16 36  1  6
 17 18  1  0
 17 37  1  0
 17 38  1  0
 18 39  1  0
M  END

