
     RDKit          3D

 66 70  0  0  0  0  0  0  0  0999 V2000
    1.4565   -0.2840   -1.3935 C   0  0  0  0  0  0  0  0  0  0  0  0
    2.7686   -0.1192   -0.6607 C   0  0  0  0  0  0  0  0  0  0  0  0
    3.3336    1.1575   -0.5336 C   0  0  0  0  0  0  0  0  0  0  0  0
    4.5627    1.3811    0.1111 C   0  0  0  0  0  0  0  0  0  0  0  0
    5.1612    2.7344    0.2410 C   0  0  0  0  0  0  0  0  0  0  0  0
    6.4952    2.8165    0.3533 N   0  0  0  0  0  0  0  0  0  0  0  0
    7.0776    4.0195    0.4556 C   0  0  0  0  0  0  0  0  0  0  0  0
    6.4852    5.2089    0.4709 N   0  0  0  0  0  0  0  0  0  0  0  0
    5.1458    5.1659    0.3971 C   0  0  0  0  0  0  0  0  0  0  0  0
    4.1773    6.2163    0.4339 C   0  0  0  0  0  0  0  0  0  0  0  0
    2.9288    5.6212    0.3606 C   0  0  0  0  0  0  0  0  0  0  0  0
    1.6023    6.2154    0.3795 C   0  0  0  0  0  0  0  0  0  0  0  0
    0.3622    5.6460   -0.0282 C   0  0  0  0  0  0  0  0  0  0  0  0
   -0.6455    6.4954    0.1284 N   0  0  0  0  0  0  0  0  0  0  0  0
   -0.0944    7.6106    0.6296 N   0  0  0  0  0  0  0  0  0  0  0  0
   -0.9361    8.7510    0.9338 C   0  0  0  0  0  0  0  0  0  0  0  0
    1.2465    7.4963    0.7997 C   0  0  0  0  0  0  0  0  0  0  0  0
    3.0885    4.2469    0.2508 N   0  0  0  0  0  0  0  0  0  0  0  0
    2.3340    3.5795    0.3356 H   0  0  0  0  0  0  0  0  0  0  0  0
    4.4304    3.9341    0.2794 C   0  0  0  0  0  0  0  0  0  0  0  0
    5.2528    0.2700    0.6189 C   0  0  0  0  0  0  0  0  0  0  0  0
    4.7010   -1.0040    0.5127 C   0  0  0  0  0  0  0  0  0  0  0  0
    3.4584   -1.2226   -0.1065 C   0  0  0  0  0  0  0  0  0  0  0  0
    2.9201   -2.6362   -0.2522 C   0  0  1  0  0  0  0  0  0  0  0  0
    3.5485   -3.3350   -1.4963 C   0  0  0  0  0  0  0  0  0  0  0  0
    2.7451   -4.3256   -2.0525 O   0  0  0  0  0  0  0  0  0  0  0  0
    3.1340   -3.3591    1.0123 N   0  0  0  0  0  0  0  0  0  0  0  0
    2.9063   -4.6811    1.2383 C   0  0  0  0  0  0  0  0  0  0  0  0
    2.5981   -5.4874    0.3606 O   0  0  0  0  0  0  0  0  0  0  0  0
    3.0563   -5.1528    2.6408 C   0  0  0  0  0  0  0  0  0  0  0  0
    2.8263   -6.4471    3.0521 C   0  0  0  0  0  0  0  0  0  0  0  0
    3.0151   -6.7005    4.3761 N   0  0  0  0  0  0  0  0  0  0  0  0
    3.3931   -5.6408    5.0353 C   0  0  0  0  0  0  0  0  0  0  0  0
    3.6843   -5.6319    6.5287 C   0  0  1  0  0  0  0  0  0  0  0  0
    2.4060   -6.0924    7.2651 C   0  0  0  0  0  0  0  0  0  0  0  0
    4.8278   -6.6369    6.7958 C   0  0  0  0  0  0  0  0  0  0  0  0
    4.0937   -4.2332    7.0181 C   0  0  0  0  0  0  0  0  0  0  0  0
    3.5464   -4.2081    4.0218 S   0  0  0  0  0  0  0  0  0  0  0  0
    1.0964    0.6817   -1.7766 H   0  0  0  0  0  0  0  0  0  0  0  0
    0.6702   -0.6967   -0.7390 H   0  0  0  0  0  0  0  0  0  0  0  0
    1.5446   -0.9695   -2.2518 H   0  0  0  0  0  0  0  0  0  0  0  0
    2.8108    1.9948   -1.0021 H   0  0  0  0  0  0  0  0  0  0  0  0
    8.1718    4.0144    0.5332 H   0  0  0  0  0  0  0  0  0  0  0  0
    4.3855    7.2814    0.4918 H   0  0  0  0  0  0  0  0  0  0  0  0
    0.1727    4.6580   -0.4490 H   0  0  0  0  0  0  0  0  0  0  0  0
   -1.4766    9.0700    0.0306 H   0  0  0  0  0  0  0  0  0  0  0  0
   -0.3088    9.5772    1.2928 H   0  0  0  0  0  0  0  0  0  0  0  0
   -1.6699    8.4869    1.7100 H   0  0  0  0  0  0  0  0  0  0  0  0
    1.8476    8.3053    1.2089 H   0  0  0  0  0  0  0  0  0  0  0  0
    6.2254    0.4276    1.0869 H   0  0  0  0  0  0  0  0  0  0  0  0
    5.2529   -1.8559    0.9184 H   0  0  0  0  0  0  0  0  0  0  0  0
    1.8384   -2.6031   -0.4610 H   0  0  0  0  0  0  0  0  0  0  0  0
    4.5630   -3.6897   -1.2134 H   0  0  0  0  0  0  0  0  0  0  0  0
    3.6890   -2.5596   -2.2667 H   0  0  0  0  0  0  0  0  0  0  0  0
    2.5893   -4.9779   -1.3393 H   0  0  0  0  0  0  0  0  0  0  0  0
    3.2773   -2.7692    1.8247 H   0  0  0  0  0  0  0  0  0  0  0  0
    2.5095   -7.2371    2.3698 H   0  0  0  0  0  0  0  0  0  0  0  0
    2.0880   -7.0819    6.9067 H   0  0  0  0  0  0  0  0  0  0  0  0
    1.5767   -5.3862    7.1005 H   0  0  0  0  0  0  0  0  0  0  0  0
    2.5949   -6.1531    8.3489 H   0  0  0  0  0  0  0  0  0  0  0  0
    4.5571   -7.6375    6.4295 H   0  0  0  0  0  0  0  0  0  0  0  0
    5.0315   -6.6998    7.8769 H   0  0  0  0  0  0  0  0  0  0  0  0
    5.7556   -6.3265    6.2896 H   0  0  0  0  0  0  0  0  0  0  0  0
    3.2962   -3.4920    6.8478 H   0  0  0  0  0  0  0  0  0  0  0  0
    5.0088   -3.8775    6.5177 H   0  0  0  0  0  0  0  0  0  0  0  0
    4.2967   -4.2592    8.0997 H   0  0  0  0  0  0  0  0  0  0  0  0
  1  2  1  0
  1 39  1  0
  1 40  1  0
  1 41  1  0
  2  3  2  0
  2 23  1  0
  3  4  1  0
  3 42  1  0
  4  5  1  0
  4 21  2  0
  5  6  2  0
  5 20  1  0
  6  7  1  0
  7  8  2  0
  7 43  1  0
  8  9  1  0
  9 10  1  0
  9 20  2  0
 10 11  2  0
 10 44  1  0
 11 12  1  0
 11 18  1  0
 12 13  1  0
 12 17  2  0
 13 14  2  0
 13 45  1  0
 14 15  1  0
 15 16  1  0
 15 17  1  0
 16 46  1  0
 16 47  1  0
 16 48  1  0
 17 49  1  0
 18 19  1  0
 18 20  1  0
 21 22  1  0
 21 50  1  0
 22 23  2  0
 22 51  1  0
 23 24  1  0
 24 25  1  0
 24 27  1  0
 24 52  1  6
 25 26  1  0
 25 53  1  0
 25 54  1  0
 26 55  1  0
 27 28  1  0
 27 56  1  0
 28 29  2  0
 28 30  1  0
 30 31  2  0
 30 38  1  0
 31 32  1  0
 31 57  1  0
 32 33  2  0
 33 34  1  0
 33 38  1  0
 34 35  1  1
 34 36  1  0
 34 37  1  0
 35 58  1  0
 35 59  1  0
 35 60  1  0
 36 61  1  0
 36 62  1  0
 36 63  1  0
 37 64  1  0
 37 65  1  0
 37 66  1  0
M  END

