
     RDKit          3D

 51 54  0  0  0  0  0  0  0  0999 V2000
    1.1788   -0.6369    0.5432 O   0  0  0  0  0  0  0  0  0  0  0  0
    2.1064    0.0214    0.0877 C   0  0  0  0  0  0  0  0  0  0  0  0
    2.5234   -0.1377   -1.2260 N   0  0  0  0  0  0  0  0  0  0  0  0
    1.9595   -1.2212   -1.9925 C   0  0  1  0  0  0  0  0  0  0  0  0
    0.5571   -1.0210   -2.5758 C   0  0  0  0  0  0  0  0  0  0  0  0
    0.5648   -1.9436   -3.8058 C   0  0  0  0  0  0  0  0  0  0  0  0
    1.9797   -1.9347   -4.2227 N   0  0  0  0  0  0  0  0  0  0  0  0
    2.4289   -2.2779   -5.5226 C   0  0  0  0  0  0  0  0  0  0  0  0
    3.1041   -1.3225   -6.2998 C   0  0  0  0  0  0  0  0  0  0  0  0
    3.5538   -1.6258   -7.5840 C   0  0  0  0  0  0  0  0  0  0  0  0
    3.3230   -2.8947   -8.1231 C   0  0  0  0  0  0  0  0  0  0  0  0
    2.6612   -3.8622   -7.3664 C   0  0  0  0  0  0  0  0  0  0  0  0
    2.2312   -3.5601   -6.0707 C   0  0  0  0  0  0  0  0  0  0  0  0
    1.4810   -4.8297   -5.1279 Cl  0  0  0  0  0  0  0  0  0  0  0  0
    2.8131   -1.4470   -3.2431 C   0  0  0  0  0  0  0  0  0  0  0  0
    4.0033   -1.2180   -3.3344 O   0  0  0  0  0  0  0  0  0  0  0  0
    2.7719    0.9807    0.8255 N   0  0  0  0  0  0  0  0  0  0  0  0
    2.5203    1.0792    2.2550 C   0  0  0  0  0  0  0  0  0  0  0  0
    2.2877    2.5302    2.6537 C   0  0  0  0  0  0  0  0  0  0  0  0
    3.3927    3.3816    2.2304 N   0  0  0  0  0  0  0  0  0  0  0  0
    3.2390    4.7470    2.7220 C   0  0  0  0  0  0  0  0  0  0  0  0
    4.4427    5.6205    2.3748 C   0  0  0  0  0  0  0  0  0  0  0  0
    4.6917    5.6118    0.8650 C   0  0  0  0  0  0  0  0  0  0  0  0
    4.8110    4.1704    0.3654 C   0  0  0  0  0  0  0  0  0  0  0  0
    3.6095    3.3125    0.7834 C   0  0  1  0  0  0  0  0  0  0  0  0
    3.8233    1.8550    0.3403 C   0  0  0  0  0  0  0  0  0  0  0  0
    3.4997    0.0320   -1.4585 H   0  0  0  0  0  0  0  0  0  0  0  0
    1.9687   -2.1629   -1.4068 H   0  0  0  0  0  0  0  0  0  0  0  0
    0.4489    0.0317   -2.8829 H   0  0  0  0  0  0  0  0  0  0  0  0
   -0.2379   -1.2599   -1.8584 H   0  0  0  0  0  0  0  0  0  0  0  0
   -0.0707   -1.5762   -4.6260 H   0  0  0  0  0  0  0  0  0  0  0  0
    0.2355   -2.9645   -3.5552 H   0  0  0  0  0  0  0  0  0  0  0  0
    3.2770   -0.3345   -5.8716 H   0  0  0  0  0  0  0  0  0  0  0  0
    4.0790   -0.8661   -8.1673 H   0  0  0  0  0  0  0  0  0  0  0  0
    3.6638   -3.1386   -9.1321 H   0  0  0  0  0  0  0  0  0  0  0  0
    2.4852   -4.8636   -7.7623 H   0  0  0  0  0  0  0  0  0  0  0  0
    3.3911    0.6859    2.8153 H   0  0  0  0  0  0  0  0  0  0  0  0
    1.6456    0.4598    2.4870 H   0  0  0  0  0  0  0  0  0  0  0  0
    2.1933    2.5949    3.7503 H   0  0  0  0  0  0  0  0  0  0  0  0
    1.3198    2.8752    2.2200 H   0  0  0  0  0  0  0  0  0  0  0  0
    3.1024    4.7027    3.8154 H   0  0  0  0  0  0  0  0  0  0  0  0
    2.3143    5.2188    2.3087 H   0  0  0  0  0  0  0  0  0  0  0  0
    5.3315    5.2300    2.9003 H   0  0  0  0  0  0  0  0  0  0  0  0
    4.2717    6.6462    2.7415 H   0  0  0  0  0  0  0  0  0  0  0  0
    5.5997    6.1837    0.6116 H   0  0  0  0  0  0  0  0  0  0  0  0
    3.8505    6.1123    0.3515 H   0  0  0  0  0  0  0  0  0  0  0  0
    5.7262    3.7143    0.7824 H   0  0  0  0  0  0  0  0  0  0  0  0
    4.9082    4.1432   -0.7331 H   0  0  0  0  0  0  0  0  0  0  0  0
    2.7033    3.6893    0.2476 H   0  0  0  0  0  0  0  0  0  0  0  0
    4.8110    1.5156    0.7120 H   0  0  0  0  0  0  0  0  0  0  0  0
    3.8478    1.8406   -0.7567 H   0  0  0  0  0  0  0  0  0  0  0  0
  1  2  2  0
  2  3  1  0
  2 17  1  0
  3  4  1  0
  3 27  1  0
  4  5  1  0
  4 15  1  0
  4 28  1  1
  5  6  1  0
  5 29  1  0
  5 30  1  0
  6  7  1  0
  6 31  1  0
  6 32  1  0
  7  8  1  0
  7 15  1  0
  8  9  2  0
  8 13  1  0
  9 10  1  0
  9 33  1  0
 10 11  2  0
 10 34  1  0
 11 12  1  0
 11 35  1  0
 12 13  2  0
 12 36  1  0
 13 14  1  0
 15 16  2  0
 17 18  1  0
 17 26  1  0
 18 19  1  0
 18 37  1  0
 18 38  1  0
 19 20  1  0
 19 39  1  0
 19 40  1  0
 20 21  1  0
 20 25  1  0
 21 22  1  0
 21 41  1  0
 21 42  1  0
 22 23  1  0
 22 43  1  0
 22 44  1  0
 23 24  1  0
 23 45  1  0
 23 46  1  0
 24 25  1  0
 24 47  1  0
 24 48  1  0
 25 26  1  0
 25 49  1  6
 26 50  1  0
 26 51  1  0
M  END

