
     RDKit          3D

 25 26  0  0  0  0  0  0  0  0999 V2000
    1.2240    0.1314    0.3385 C   0  0  0  0  0  0  0  0  0  0  0  0
    2.5893    0.0737   -0.0046 O   0  0  0  0  0  0  0  0  0  0  0  0
    3.1782   -1.1301   -0.1689 C   0  0  0  0  0  0  0  0  0  0  0  0
    2.5392   -2.3677   -0.0283 C   0  0  0  0  0  0  0  0  0  0  0  0
    3.2187   -3.5983   -0.2135 C   0  0  0  0  0  0  0  0  0  0  0  0
    2.4701   -4.9017   -0.0451 C   0  0  0  0  0  0  0  0  0  0  0  0
    4.5739   -3.6138   -0.5515 C   0  0  0  0  0  0  0  0  0  0  0  0
    5.2100   -2.3744   -0.6953 C   0  0  0  0  0  0  0  0  0  0  0  0
    6.5059   -2.0224   -1.0190 N   0  0  0  0  0  0  0  0  0  0  0  0
    7.2992   -2.6421   -1.1286 H   0  0  0  0  0  0  0  0  0  0  0  0
    6.5719   -0.6455   -0.9910 C   0  0  0  0  0  0  0  0  0  0  0  0
    7.8100    0.1073   -1.3410 C   0  0  0  0  0  0  0  0  0  0  0  0
    9.2892   -0.6040   -0.5581 Cl  0  0  0  0  0  0  0  0  0  0  0  0
    5.4288   -0.0842   -0.6932 N   0  0  0  0  0  0  0  0  0  0  0  0
    4.5508   -1.1354   -0.5093 C   0  0  0  0  0  0  0  0  0  0  0  0
    0.9669    1.1962    0.4186 H   0  0  0  0  0  0  0  0  0  0  0  0
    1.0222   -0.3599    1.3077 H   0  0  0  0  0  0  0  0  0  0  0  0
    0.5854   -0.3344   -0.4339 H   0  0  0  0  0  0  0  0  0  0  0  0
    1.4815   -2.4026    0.2336 H   0  0  0  0  0  0  0  0  0  0  0  0
    1.4163   -4.7342    0.2214 H   0  0  0  0  0  0  0  0  0  0  0  0
    2.9204   -5.5236    0.7467 H   0  0  0  0  0  0  0  0  0  0  0  0
    2.4897   -5.4986   -0.9724 H   0  0  0  0  0  0  0  0  0  0  0  0
    5.1082   -4.5554   -0.6978 H   0  0  0  0  0  0  0  0  0  0  0  0
    7.7021    1.1449   -1.0055 H   0  0  0  0  0  0  0  0  0  0  0  0
    8.0098    0.0942   -2.4226 H   0  0  0  0  0  0  0  0  0  0  0  0
  1  2  1  0
  1 16  1  0
  1 17  1  0
  1 18  1  0
  2  3  1  0
  3  4  2  0
  3 15  1  0
  4  5  1  0
  4 19  1  0
  5  6  1  0
  5  7  2  0
  6 20  1  0
  6 21  1  0
  6 22  1  0
  7  8  1  0
  7 23  1  0
  8  9  1  0
  8 15  2  0
  9 10  1  0
  9 11  1  0
 11 12  1  0
 11 14  2  0
 12 13  1  0
 12 24  1  0
 12 25  1  0
 14 15  1  0
M  END

