
     RDKit          3D

 38 38  0  0  0  0  0  0  0  0999 V2000
    4.8022    1.1715   -1.0998 C   0  0  0  0  0  0  0  0  0  0  0  0
    3.9246    0.0163   -1.1705 N   0  0  0  0  0  0  0  0  0  0  0  0
    3.2956   -0.0982   -2.4716 C   0  0  0  0  0  0  0  0  0  0  0  0
    4.5595   -1.2207   -0.7384 C   0  0  0  0  0  0  0  0  0  0  0  0
    4.7672   -1.2839    0.7821 C   0  0  0  0  0  0  0  0  0  0  0  0
    5.2568   -2.5820    1.2289 N   0  0  0  0  0  0  0  0  0  0  0  0
    4.2684   -3.5871    1.5744 C   0  0  0  0  0  0  0  0  0  0  0  0
    4.8654   -4.9920    1.5638 C   0  0  2  0  0  0  0  0  0  0  0  0
    3.8527   -6.0204    2.0708 C   0  0  0  0  0  0  0  0  0  0  0  0
    4.2608   -7.4720    1.8371 C   0  0  0  0  0  0  0  0  0  0  0  0
    5.2592   -7.8204    1.2700 O   0  0  0  0  0  0  0  0  0  0  0  0
    3.3929   -8.3922    2.3169 O   0  0  0  0  0  0  0  0  0  0  0  0
    6.1537   -4.9803    2.3850 C   0  0  0  0  0  0  0  0  0  0  0  0
    7.0559   -3.9455    1.9182 N   0  0  0  0  0  0  0  0  0  0  0  0
    8.4650   -4.1140    2.2170 C   0  0  0  0  0  0  0  0  0  0  0  0
    6.6239   -2.7266    1.4232 C   0  0  0  0  0  0  0  0  0  0  0  0
    7.4017   -1.8203    1.1477 O   0  0  0  0  0  0  0  0  0  0  0  0
    4.2371    2.0870   -1.3375 H   0  0  0  0  0  0  0  0  0  0  0  0
    5.6625    1.1098   -1.8061 H   0  0  0  0  0  0  0  0  0  0  0  0
    5.2139    1.2920   -0.0873 H   0  0  0  0  0  0  0  0  0  0  0  0
    2.7534    0.8308   -2.7116 H   0  0  0  0  0  0  0  0  0  0  0  0
    2.5646   -0.9228   -2.4730 H   0  0  0  0  0  0  0  0  0  0  0  0
    4.0183   -0.2858   -3.3005 H   0  0  0  0  0  0  0  0  0  0  0  0
    5.5402   -1.3943   -1.2364 H   0  0  0  0  0  0  0  0  0  0  0  0
    3.9040   -2.0570   -1.0356 H   0  0  0  0  0  0  0  0  0  0  0  0
    3.8078   -1.0674    1.2823 H   0  0  0  0  0  0  0  0  0  0  0  0
    5.4964   -0.5281    1.0987 H   0  0  0  0  0  0  0  0  0  0  0  0
    3.4374   -3.5329    0.8493 H   0  0  0  0  0  0  0  0  0  0  0  0
    3.8236   -3.3770    2.5713 H   0  0  0  0  0  0  0  0  0  0  0  0
    5.1351   -5.2547    0.5277 H   0  0  0  0  0  0  0  0  0  0  0  0
    2.8786   -5.8679    1.5699 H   0  0  0  0  0  0  0  0  0  0  0  0
    3.6607   -5.8794    3.1511 H   0  0  0  0  0  0  0  0  0  0  0  0
    2.6370   -7.9641    2.7437 H   0  0  0  0  0  0  0  0  0  0  0  0
    6.6589   -5.9526    2.2877 H   0  0  0  0  0  0  0  0  0  0  0  0
    5.9086   -4.8462    3.4622 H   0  0  0  0  0  0  0  0  0  0  0  0
    8.8419   -5.0559    1.7827 H   0  0  0  0  0  0  0  0  0  0  0  0
    8.6496   -4.1420    3.3080 H   0  0  0  0  0  0  0  0  0  0  0  0
    9.0157   -3.2681    1.7903 H   0  0  0  0  0  0  0  0  0  0  0  0
  1  2  1  0
  1 18  1  0
  1 19  1  0
  1 20  1  0
  2  3  1  0
  2  4  1  0
  3 21  1  0
  3 22  1  0
  3 23  1  0
  4  5  1  0
  4 24  1  0
  4 25  1  0
  5  6  1  0
  5 26  1  0
  5 27  1  0
  6  7  1  0
  6 16  1  0
  7  8  1  0
  7 28  1  0
  7 29  1  0
  8  9  1  0
  8 13  1  0
  8 30  1  6
  9 10  1  0
  9 31  1  0
  9 32  1  0
 10 11  2  0
 10 12  1  0
 12 33  1  0
 13 14  1  0
 13 34  1  0
 13 35  1  0
 14 15  1  0
 14 16  1  0
 15 36  1  0
 15 37  1  0
 15 38  1  0
 16 17  2  0
M  END

