
     RDKit          3D

 46 49  0  0  0  0  0  0  0  0999 V2000
    2.3633    0.9855   -2.8937 O   0  0  0  0  0  0  0  0  0  0  0  0
    2.0908    1.0347   -1.7064 C   0  0  0  0  0  0  0  0  0  0  0  0
    0.6230    0.9578   -1.2434 C   0  0  0  0  0  0  0  0  0  0  0  0
    0.1415    2.1689   -0.6400 O   0  0  0  0  0  0  0  0  0  0  0  0
    0.3390    2.3533    0.6781 C   0  0  0  0  0  0  0  0  0  0  0  0
    1.0071    1.5908    1.3558 O   0  0  0  0  0  0  0  0  0  0  0  0
   -0.3310    3.5656    1.1999 C   0  0  0  0  0  0  0  0  0  0  0  0
   -0.1876    3.8718    2.5634 C   0  0  0  0  0  0  0  0  0  0  0  0
   -0.7982    4.9980    3.1046 C   0  0  0  0  0  0  0  0  0  0  0  0
   -1.5659    5.8425    2.2840 C   0  0  0  0  0  0  0  0  0  0  0  0
   -2.1807    6.9497    2.7532 O   0  0  0  0  0  0  0  0  0  0  0  0
   -1.7138    5.5438    0.9183 C   0  0  0  0  0  0  0  0  0  0  0  0
   -1.1023    4.4163    0.3850 C   0  0  0  0  0  0  0  0  0  0  0  0
    2.9891    1.1276   -0.6815 N   0  0  0  0  0  0  0  0  0  0  0  0
    4.3941    1.2447   -0.7428 C   0  0  0  0  0  0  0  0  0  0  0  0
    5.1155    1.2271   -1.9471 C   0  0  0  0  0  0  0  0  0  0  0  0
    6.5196    1.3461   -1.9467 C   0  0  0  0  0  0  0  0  0  0  0  0
    7.1610    1.4760   -0.7297 C   0  0  0  0  0  0  0  0  0  0  0  0
    6.4429    1.4931    0.4684 C   0  0  0  0  0  0  0  0  0  0  0  0
    5.0668    1.3828    0.4990 C   0  0  0  0  0  0  0  0  0  0  0  0
    7.3048    1.6547    1.5115 O   0  0  0  0  0  0  0  0  0  0  0  0
    8.6469    1.5980    0.9649 C   0  0  2  0  0  0  0  0  0  0  0  0
    9.3539    0.3315    1.4634 C   0  0  0  0  0  0  0  0  0  0  0  0
    9.8800    0.7539    2.8382 C   0  0  0  0  0  0  0  0  0  0  0  0
   10.4127    2.1824    2.5888 C   0  0  0  0  0  0  0  0  0  0  0  0
    9.4863    2.7767    1.4980 C   0  0  0  0  0  0  0  0  0  0  0  0
    8.4938    1.6239   -0.4598 O   0  0  0  0  0  0  0  0  0  0  0  0
    0.4799    0.1194   -0.5433 H   0  0  0  0  0  0  0  0  0  0  0  0
    0.0173    0.8129   -2.1443 H   0  0  0  0  0  0  0  0  0  0  0  0
    0.4116    3.2084    3.1898 H   0  0  0  0  0  0  0  0  0  0  0  0
   -0.6826    5.2304    4.1679 H   0  0  0  0  0  0  0  0  0  0  0  0
   -2.0067    7.0479    3.6992 H   0  0  0  0  0  0  0  0  0  0  0  0
   -2.3131    6.2129    0.2981 H   0  0  0  0  0  0  0  0  0  0  0  0
   -1.2154    4.1842   -0.6746 H   0  0  0  0  0  0  0  0  0  0  0  0
    2.5765    1.1349    0.2520 H   0  0  0  0  0  0  0  0  0  0  0  0
    4.5728    1.1187   -2.8826 H   0  0  0  0  0  0  0  0  0  0  0  0
    7.0815    1.3356   -2.8820 H   0  0  0  0  0  0  0  0  0  0  0  0
    4.5203    1.4052    1.4438 H   0  0  0  0  0  0  0  0  0  0  0  0
   10.1875    0.1195    0.7730 H   0  0  0  0  0  0  0  0  0  0  0  0
    8.6781   -0.5360    1.4676 H   0  0  0  0  0  0  0  0  0  0  0  0
   10.6435    0.0723    3.2425 H   0  0  0  0  0  0  0  0  0  0  0  0
    9.0440    0.7795    3.5566 H   0  0  0  0  0  0  0  0  0  0  0  0
   11.4494    2.1316    2.2180 H   0  0  0  0  0  0  0  0  0  0  0  0
   10.4321    2.7902    3.5056 H   0  0  0  0  0  0  0  0  0  0  0  0
   10.0462    3.2166    0.6606 H   0  0  0  0  0  0  0  0  0  0  0  0
    8.8056    3.5474    1.8862 H   0  0  0  0  0  0  0  0  0  0  0  0
  1  2  2  0
  2  3  1  0
  2 14  1  0
  3  4  1  0
  3 28  1  0
  3 29  1  0
  4  5  1  0
  5  6  2  0
  5  7  1  0
  7  8  2  0
  7 13  1  0
  8  9  1  0
  8 30  1  0
  9 10  2  0
  9 31  1  0
 10 11  1  0
 10 12  1  0
 11 32  1  0
 12 13  2  0
 12 33  1  0
 13 34  1  0
 14 15  1  0
 14 35  1  0
 15 16  2  0
 15 20  1  0
 16 17  1  0
 16 36  1  0
 17 18  2  0
 17 37  1  0
 18 19  1  0
 18 27  1  0
 19 20  2  0
 19 21  1  0
 20 38  1  0
 22 21  1  1
 22 23  1  0
 22 26  1  0
 22 27  1  0
 23 24  1  0
 23 39  1  0
 23 40  1  0
 24 25  1  0
 24 41  1  0
 24 42  1  0
 25 26  1  0
 25 43  1  0
 25 44  1  0
 26 45  1  0
 26 46  1  0
M  END

