
     RDKit          3D

 22 21  0  0  0  0  0  0  0  0999 V2000
    2.4773   -0.7865    1.2625 C   0  0  0  0  0  0  0  0  0  0  0  0
    2.7745    0.3843    0.3142 C   0  0  1  0  0  0  0  0  0  0  0  0
    1.5851    0.7655   -0.4758 C   0  0  0  0  0  0  0  0  0  0  0  0
    0.6454    1.0564   -1.0881 N   0  0  0  0  0  0  0  0  0  0  0  0
    3.3105    1.5617    1.0102 N   0  0  0  0  0  0  0  0  0  0  0  0
    5.0320    1.7846    0.9280 S   0  0  0  0  0  0  0  0  0  0  0  0
    5.6841    0.4533    0.6455 O   0  0  0  0  0  0  0  0  0  0  0  0
    5.0707    2.6970   -0.7055 C   0  0  1  0  0  0  0  0  0  0  0  0
    4.4652    4.0855   -0.5331 C   0  0  0  0  0  0  0  0  0  0  0  0
    6.5142    2.6957   -1.1999 C   0  0  0  0  0  0  0  0  0  0  0  0
    2.0751   -1.6490    0.7103 H   0  0  0  0  0  0  0  0  0  0  0  0
    1.7385   -0.4969    2.0273 H   0  0  0  0  0  0  0  0  0  0  0  0
    3.4152   -1.0845    1.7526 H   0  0  0  0  0  0  0  0  0  0  0  0
    3.5516    0.0420   -0.3918 H   0  0  0  0  0  0  0  0  0  0  0  0
    3.0159    1.6067    1.9851 H   0  0  0  0  0  0  0  0  0  0  0  0
    4.4462    2.0804   -1.3735 H   0  0  0  0  0  0  0  0  0  0  0  0
    5.0608    4.6968    0.1652 H   0  0  0  0  0  0  0  0  0  0  0  0
    3.4327    4.0305   -0.1592 H   0  0  0  0  0  0  0  0  0  0  0  0
    4.4490    4.6088   -1.5026 H   0  0  0  0  0  0  0  0  0  0  0  0
    7.1668    3.2915   -0.5395 H   0  0  0  0  0  0  0  0  0  0  0  0
    6.5636    3.1400   -2.2070 H   0  0  0  0  0  0  0  0  0  0  0  0
    6.9095    1.6714   -1.2487 H   0  0  0  0  0  0  0  0  0  0  0  0
  1  2  1  0
  1 11  1  0
  1 12  1  0
  1 13  1  0
  2  3  1  0
  2  5  1  0
  2 14  1  6
  3  4  3  0
  5  6  1  0
  5 15  1  0
  6  7  1  6
  6  8  1  0
  8  9  1  0
  8 10  1  0
  8 16  1  6
  9 17  1  0
  9 18  1  0
  9 19  1  0
 10 20  1  0
 10 21  1  0
 10 22  1  0
M  CHG  2   6   1   7  -1
M  END

