
     RDKit          3D

 36 36  0  0  0  0  0  0  0  0999 V2000
    1.2519    0.4952    0.4100 C   0  0  0  0  0  0  0  0  0  0  0  0
    2.5811   -0.1551    0.0257 C   0  0  0  0  0  0  0  0  0  0  0  0
    3.0774   -1.2348    1.0234 C   0  0  1  0  0  0  0  0  0  0  0  0
    2.1757   -2.4655    0.9837 C   0  0  0  0  0  0  0  0  0  0  0  0
    1.0781   -2.4623    1.5184 O   0  0  0  0  0  0  0  0  0  0  0  0
    2.6582   -3.5283    0.2926 N   0  0  0  0  0  0  0  0  0  0  0  0
    3.9288   -3.6402   -0.4241 C   0  0  2  0  0  0  0  0  0  0  0  0
    3.7213   -3.4749   -1.9445 C   0  0  0  0  0  0  0  0  0  0  0  0
    4.5307   -5.0237   -0.1203 C   0  0  0  0  0  0  0  0  0  0  0  0
    4.9499   -2.5821    0.0507 C   0  0  0  0  0  0  0  0  0  0  0  0
    6.1178   -2.7042   -0.2802 O   0  0  0  0  0  0  0  0  0  0  0  0
    4.4931   -1.5568    0.8344 N   0  0  0  0  0  0  0  0  0  0  0  0
    5.4744   -0.6600    1.4401 C   0  0  0  0  0  0  0  0  0  0  0  0
    5.6461   -0.8866    2.9388 C   0  0  0  0  0  0  0  0  0  0  0  0
    6.0954   -2.1944    3.1626 O   0  0  0  0  0  0  0  0  0  0  0  0
    6.2732   -2.5145    4.5161 C   0  0  0  0  0  0  0  0  0  0  0  0
    0.9511    1.2373   -0.3462 H   0  0  0  0  0  0  0  0  0  0  0  0
    1.3324    1.0175    1.3778 H   0  0  0  0  0  0  0  0  0  0  0  0
    0.4514   -0.2514    0.5082 H   0  0  0  0  0  0  0  0  0  0  0  0
    3.3655    0.6172   -0.0451 H   0  0  0  0  0  0  0  0  0  0  0  0
    2.5117   -0.6071   -0.9788 H   0  0  0  0  0  0  0  0  0  0  0  0
    2.9564   -0.8373    2.0434 H   0  0  0  0  0  0  0  0  0  0  0  0
    2.0264   -4.3246    0.2521 H   0  0  0  0  0  0  0  0  0  0  0  0
    3.0498   -4.2619   -2.3238 H   0  0  0  0  0  0  0  0  0  0  0  0
    4.6860   -3.5510   -2.4660 H   0  0  0  0  0  0  0  0  0  0  0  0
    3.2715   -2.4989   -2.1822 H   0  0  0  0  0  0  0  0  0  0  0  0
    3.8544   -5.8179   -0.4775 H   0  0  0  0  0  0  0  0  0  0  0  0
    4.6820   -5.1496    0.9621 H   0  0  0  0  0  0  0  0  0  0  0  0
    5.5008   -5.1274   -0.6222 H   0  0  0  0  0  0  0  0  0  0  0  0
    5.1833    0.3900    1.2688 H   0  0  0  0  0  0  0  0  0  0  0  0
    6.4306   -0.8406    0.9322 H   0  0  0  0  0  0  0  0  0  0  0  0
    4.6916   -0.7028    3.4792 H   0  0  0  0  0  0  0  0  0  0  0  0
    6.3723   -0.1384    3.3243 H   0  0  0  0  0  0  0  0  0  0  0  0
    6.6185   -3.5570    4.5726 H   0  0  0  0  0  0  0  0  0  0  0  0
    5.3298   -2.4230    5.0928 H   0  0  0  0  0  0  0  0  0  0  0  0
    7.0314   -1.8662    5.0014 H   0  0  0  0  0  0  0  0  0  0  0  0
  1  2  1  0
  1 17  1  0
  1 18  1  0
  1 19  1  0
  2  3  1  0
  2 20  1  0
  2 21  1  0
  3  4  1  0
  3 12  1  0
  3 22  1  1
  4  5  2  0
  4  6  1  0
  6  7  1  0
  6 23  1  0
  7  8  1  6
  7  9  1  0
  7 10  1  0
  8 24  1  0
  8 25  1  0
  8 26  1  0
  9 27  1  0
  9 28  1  0
  9 29  1  0
 10 11  2  0
 10 12  1  0
 12 13  1  0
 13 14  1  0
 13 30  1  0
 13 31  1  0
 14 15  1  0
 14 32  1  0
 14 33  1  0
 15 16  1  0
 16 34  1  0
 16 35  1  0
 16 36  1  0
M  END

