
     RDKit          3D

 30 30  0  0  0  0  0  0  0  0999 V2000
    4.2853   -0.2923    3.2585 O   0  0  0  0  0  0  0  0  0  0  0  0
    4.1971   -1.1251    2.3973 C   0  0  0  0  0  0  0  0  0  0  0  0
    3.2029   -2.0042    2.3300 O   0  0  0  0  0  0  0  0  0  0  0  0
    5.2139   -1.1653    1.2405 C   0  0  0  0  0  0  0  0  0  0  0  0
    5.6446   -2.8902    0.7367 S   0  0  0  0  0  0  0  0  0  0  0  0
    4.2787   -3.5284    0.4609 O   0  0  0  0  0  0  0  0  0  0  0  0
    6.3129   -2.5482   -0.9588 C   0  0  0  0  0  0  0  0  0  0  0  0
    7.7371   -2.0138   -0.8964 C   0  0  0  0  0  0  0  0  0  0  0  0
    8.0665   -1.2197   -0.0325 O   0  0  0  0  0  0  0  0  0  0  0  0
    8.5616   -2.5028   -1.8779 N   0  0  0  0  0  0  0  0  0  0  0  0
    9.9133   -2.1875   -2.1258 C   0  0  0  0  0  0  0  0  0  0  0  0
   10.5679   -1.1356   -1.4624 C   0  0  0  0  0  0  0  0  0  0  0  0
   11.8983   -0.8325   -1.7471 C   0  0  0  0  0  0  0  0  0  0  0  0
   12.5996   -1.5727   -2.7004 C   0  0  0  0  0  0  0  0  0  0  0  0
   14.2609   -1.1895   -3.0628 Cl  0  0  0  0  0  0  0  0  0  0  0  0
   11.9724   -2.6281   -3.3627 C   0  0  0  0  0  0  0  0  0  0  0  0
   10.6409   -2.9425   -3.0797 C   0  0  0  0  0  0  0  0  0  0  0  0
   10.0216   -4.1372   -3.7658 C   0  0  1  0  0  0  0  0  0  0  0  0
    8.8388   -3.8139   -4.3593 F   0  0  0  0  0  0  0  0  0  0  0  0
   10.8049   -4.6542   -4.7123 F   0  0  0  0  0  0  0  0  0  0  0  0
    9.7349   -5.1194   -2.8892 F   0  0  0  0  0  0  0  0  0  0  0  0
    3.3543   -2.6565    1.5924 H   0  0  0  0  0  0  0  0  0  0  0  0
    6.1360   -0.6417    1.5180 H   0  0  0  0  0  0  0  0  0  0  0  0
    4.7568   -0.6852    0.3601 H   0  0  0  0  0  0  0  0  0  0  0  0
    5.6340   -1.8269   -1.4404 H   0  0  0  0  0  0  0  0  0  0  0  0
    6.2116   -3.5172   -1.4702 H   0  0  0  0  0  0  0  0  0  0  0  0
    8.1295   -3.1413   -2.5355 H   0  0  0  0  0  0  0  0  0  0  0  0
   10.0237   -0.5622   -0.7164 H   0  0  0  0  0  0  0  0  0  0  0  0
   12.3926   -0.0114   -1.2254 H   0  0  0  0  0  0  0  0  0  0  0  0
   12.5232   -3.2130   -4.0982 H   0  0  0  0  0  0  0  0  0  0  0  0
  1  2  2  0
  2  3  1  0
  2  4  1  0
  3 22  1  0
  4  5  1  0
  4 23  1  0
  4 24  1  0
  5  6  1  6
  5  7  1  0
  7  8  1  0
  7 25  1  0
  7 26  1  0
  8  9  2  0
  8 10  1  0
 10 11  1  0
 10 27  1  0
 11 12  2  0
 11 17  1  0
 12 13  1  0
 12 28  1  0
 13 14  2  0
 13 29  1  0
 14 15  1  0
 14 16  1  0
 16 17  2  0
 16 30  1  0
 17 18  1  0
 18 19  1  6
 18 20  1  0
 18 21  1  0
M  CHG  2   5   1   6  -1
M  END

