
     RDKit          3D

 36 36  0  0  0  0  0  0  0  0999 V2000
    1.2453    0.1070    0.7629 C   0  0  0  0  0  0  0  0  0  0  0  0
    2.5882   -0.1235    0.0713 C   0  0  2  0  0  0  0  0  0  0  0  0
    3.3882   -0.0570    0.8199 H   0  0  0  0  0  0  0  0  0  0  0  0
    2.9092    0.9343   -1.0196 C   0  0  0  0  0  0  0  0  0  0  0  0
    2.8900    2.3074   -0.5144 C   0  0  0  0  0  0  0  0  0  0  0  0
    2.8636    3.3878   -0.0965 N   0  0  0  0  0  0  0  0  0  0  0  0
    2.7024   -1.4761   -0.5134 N   0  0  0  0  0  0  0  0  0  0  0  0
    1.5266   -2.0317   -1.1844 C   0  0  0  0  0  0  0  0  0  0  0  0
    3.9367   -2.0432   -0.4606 C   0  0  0  0  0  0  0  0  0  0  0  0
    4.9195   -1.4416   -0.0276 O   0  0  0  0  0  0  0  0  0  0  0  0
    4.1484   -3.5232   -0.9119 C   0  0  0  0  0  0  0  0  0  0  0  0
    3.2693   -4.2838   -1.2845 O   0  0  0  0  0  0  0  0  0  0  0  0
    5.4692   -3.8255   -0.8017 N   0  0  0  0  0  0  0  0  0  0  0  0
    6.1259   -5.0356   -1.0712 C   0  0  0  0  0  0  0  0  0  0  0  0
    5.4644   -6.1843   -1.5428 C   0  0  0  0  0  0  0  0  0  0  0  0
    6.1909   -7.3495   -1.7899 C   0  0  0  0  0  0  0  0  0  0  0  0
    7.5634   -7.3782   -1.5715 C   0  0  0  0  0  0  0  0  0  0  0  0
    8.2441   -8.5033   -1.8135 F   0  0  0  0  0  0  0  0  0  0  0  0
    8.2416   -6.2468   -1.1020 C   0  0  0  0  0  0  0  0  0  0  0  0
    9.7340   -6.2962   -0.8702 C   0  0  1  0  0  0  0  0  0  0  0  0
   10.0630   -7.2272    0.0388 F   0  0  0  0  0  0  0  0  0  0  0  0
   10.4005   -6.5855   -1.9989 F   0  0  0  0  0  0  0  0  0  0  0  0
   10.2001   -5.1165   -0.4216 F   0  0  0  0  0  0  0  0  0  0  0  0
    7.5137   -5.0825   -0.8556 C   0  0  0  0  0  0  0  0  0  0  0  0
    0.3991    0.1287    0.0593 H   0  0  0  0  0  0  0  0  0  0  0  0
    1.2671    1.0752    1.2840 H   0  0  0  0  0  0  0  0  0  0  0  0
    1.0554   -0.6757    1.5127 H   0  0  0  0  0  0  0  0  0  0  0  0
    2.1902    0.8613   -1.8534 H   0  0  0  0  0  0  0  0  0  0  0  0
    3.9124    0.7288   -1.4251 H   0  0  0  0  0  0  0  0  0  0  0  0
    1.0667   -1.2577   -1.8191 H   0  0  0  0  0  0  0  0  0  0  0  0
    0.7730   -2.3720   -0.4568 H   0  0  0  0  0  0  0  0  0  0  0  0
    1.8106   -2.8855   -1.8014 H   0  0  0  0  0  0  0  0  0  0  0  0
    6.0176   -3.0441   -0.4389 H   0  0  0  0  0  0  0  0  0  0  0  0
    4.3901   -6.1533   -1.7093 H   0  0  0  0  0  0  0  0  0  0  0  0
    5.6976   -8.2520   -2.1557 H   0  0  0  0  0  0  0  0  0  0  0  0
    8.0403   -4.1993   -0.4899 H   0  0  0  0  0  0  0  0  0  0  0  0
  1  2  1  0
  1 25  1  0
  1 26  1  0
  1 27  1  0
  2  3  1  1
  2  4  1  0
  2  7  1  0
  4  5  1  0
  4 28  1  0
  4 29  1  0
  5  6  3  0
  7  8  1  0
  7  9  1  0
  8 30  1  0
  8 31  1  0
  8 32  1  0
  9 10  2  0
  9 11  1  0
 11 12  2  0
 11 13  1  0
 13 14  1  0
 13 33  1  0
 14 15  2  0
 14 24  1  0
 15 16  1  0
 15 34  1  0
 16 17  2  0
 16 35  1  0
 17 18  1  0
 17 19  1  0
 19 20  1  0
 19 24  2  0
 20 21  1  1
 20 22  1  0
 20 23  1  0
 24 36  1  0
M  END

