
     RDKit          3D

 33 34  0  0  0  0  0  0  0  0999 V2000
    0.8329    0.5817   -0.1942 C   0  0  0  0  0  0  0  0  0  0  0  0
    2.1144    0.1525   -0.7085 N   0  0  0  0  0  0  0  0  0  0  0  0
    2.9772    0.9504   -1.3810 C   0  0  0  0  0  0  0  0  0  0  0  0
    2.6275    2.2397   -1.5547 N   0  0  0  0  0  0  0  0  0  0  0  0
    3.4774    3.0248   -2.2120 C   0  0  0  0  0  0  0  0  0  0  0  0
    3.1770    4.3523   -2.4160 N   0  0  0  0  0  0  0  0  0  0  0  0
    2.0768    5.1302   -2.0321 C   0  0  0  0  0  0  0  0  0  0  0  0
    2.0936    6.4954   -2.3887 C   0  0  0  0  0  0  0  0  0  0  0  0
    1.0421    7.3370   -2.0382 C   0  0  0  0  0  0  0  0  0  0  0  0
   -0.0556    6.8460   -1.3243 C   0  0  0  0  0  0  0  0  0  0  0  0
   -0.0737    5.4943   -0.9730 C   0  0  0  0  0  0  0  0  0  0  0  0
   -1.2501    4.9026   -0.2349 C   0  0  1  0  0  0  0  0  0  0  0  0
   -2.0579    5.8459    0.2766 F   0  0  0  0  0  0  0  0  0  0  0  0
   -2.0035    4.1301   -1.0427 F   0  0  0  0  0  0  0  0  0  0  0  0
   -0.8531    4.1165    0.7858 F   0  0  0  0  0  0  0  0  0  0  0  0
    0.9747    4.6349   -1.3169 C   0  0  0  0  0  0  0  0  0  0  0  0
    4.7059    2.5240   -2.7169 C   0  0  0  0  0  0  0  0  0  0  0  0
    4.9467    1.1801   -2.4726 C   0  0  0  0  0  0  0  0  0  0  0  0
    6.2278    0.5172   -2.9596 C   0  0  1  0  0  0  0  0  0  0  0  0
    7.0168    1.3907   -3.6139 F   0  0  0  0  0  0  0  0  0  0  0  0
    6.9363    0.0233   -1.9364 F   0  0  0  0  0  0  0  0  0  0  0  0
    5.9618   -0.4917   -3.7989 F   0  0  0  0  0  0  0  0  0  0  0  0
    4.1148    0.3777   -1.8167 N   0  0  0  0  0  0  0  0  0  0  0  0
    0.3609   -0.2630    0.3256 H   0  0  0  0  0  0  0  0  0  0  0  0
    0.1562    0.9170   -0.9988 H   0  0  0  0  0  0  0  0  0  0  0  0
    0.9359    1.4152    0.5199 H   0  0  0  0  0  0  0  0  0  0  0  0
    2.4072   -0.8116   -0.6130 H   0  0  0  0  0  0  0  0  0  0  0  0
    3.8877    4.8617   -2.9268 H   0  0  0  0  0  0  0  0  0  0  0  0
    2.9460    6.8971   -2.9451 H   0  0  0  0  0  0  0  0  0  0  0  0
    1.0799    8.3910   -2.3233 H   0  0  0  0  0  0  0  0  0  0  0  0
   -0.8799    7.5018   -1.0429 H   0  0  0  0  0  0  0  0  0  0  0  0
    0.9560    3.5866   -1.0357 H   0  0  0  0  0  0  0  0  0  0  0  0
    5.4156    3.1473   -3.2588 H   0  0  0  0  0  0  0  0  0  0  0  0
  1  2  1  0
  1 24  1  0
  1 25  1  0
  1 26  1  0
  2  3  1  0
  2 27  1  0
  3  4  2  0
  3 23  1  0
  4  5  1  0
  5  6  1  0
  5 17  2  0
  6  7  1  0
  6 28  1  0
  7  8  2  0
  7 16  1  0
  8  9  1  0
  8 29  1  0
  9 10  2  0
  9 30  1  0
 10 11  1  0
 10 31  1  0
 11 12  1  0
 11 16  2  0
 12 13  1  1
 12 14  1  0
 12 15  1  0
 16 32  1  0
 17 18  1  0
 17 33  1  0
 18 19  1  0
 18 23  2  0
 19 20  1  6
 19 21  1  0
 19 22  1  0
M  END

