
     RDKit          3D

 47 49  0  0  0  0  0  0  0  0999 V2000
    2.4717   -0.4435    0.7820 C   0  0  0  0  0  0  0  0  0  0  0  0
    2.5494    0.3598   -0.3776 O   0  0  0  0  0  0  0  0  0  0  0  0
    1.3335    0.4938   -1.0861 C   0  0  1  0  0  0  0  0  0  0  0  0
    0.7382   -0.4356   -1.0127 H   0  0  0  0  0  0  0  0  0  0  0  0
    0.4296    1.5999   -0.4818 C   0  0  0  0  0  0  0  0  0  0  0  0
   -0.7779    1.5849   -0.6565 O   0  0  0  0  0  0  0  0  0  0  0  0
    1.1327    2.5513    0.1952 N   0  0  0  0  0  0  0  0  0  0  0  0
    0.6680    3.7186    0.8342 C   0  0  0  0  0  0  0  0  0  0  0  0
   -0.6812    4.0984    0.8592 C   0  0  0  0  0  0  0  0  0  0  0  0
   -1.0734    5.2720    1.5134 C   0  0  0  0  0  0  0  0  0  0  0  0
   -0.1274    6.0861    2.1510 C   0  0  0  0  0  0  0  0  0  0  0  0
   -0.4139    7.2411    2.8113 O   0  0  0  0  0  0  0  0  0  0  0  0
   -1.7486    7.7009    2.8596 C   0  0  0  0  0  0  0  0  0  0  0  0
   -1.8175    9.0145    3.6045 C   0  0  0  0  0  0  0  0  0  0  0  0
   -0.7036    9.8587    3.7059 C   0  0  0  0  0  0  0  0  0  0  0  0
   -0.8067   11.0887    4.3625 C   0  0  0  0  0  0  0  0  0  0  0  0
   -2.0229   11.4920    4.9209 C   0  0  0  0  0  0  0  0  0  0  0  0
   -3.1380   10.6538    4.8242 C   0  0  0  0  0  0  0  0  0  0  0  0
   -3.0331    9.4219    4.1740 C   0  0  0  0  0  0  0  0  0  0  0  0
    1.2250    5.7050    2.1256 C   0  0  0  0  0  0  0  0  0  0  0  0
    1.6138    4.5399    1.4777 C   0  0  0  0  0  0  0  0  0  0  0  0
    1.6184    0.7819   -2.5573 C   0  0  0  0  0  0  0  0  0  0  0  0
    2.9329    0.8425   -3.0376 C   0  0  0  0  0  0  0  0  0  0  0  0
    3.1774    1.0951   -4.3917 C   0  0  0  0  0  0  0  0  0  0  0  0
    2.1146    1.2868   -5.2773 C   0  0  0  0  0  0  0  0  0  0  0  0
    0.8005    1.2251   -4.8011 C   0  0  0  0  0  0  0  0  0  0  0  0
    0.5515    0.9746   -3.4504 C   0  0  0  0  0  0  0  0  0  0  0  0
    3.4772   -0.4776    1.2251 H   0  0  0  0  0  0  0  0  0  0  0  0
    2.1557   -1.4743    0.5366 H   0  0  0  0  0  0  0  0  0  0  0  0
    1.7682   -0.0305    1.5294 H   0  0  0  0  0  0  0  0  0  0  0  0
    2.1334    2.3762    0.2309 H   0  0  0  0  0  0  0  0  0  0  0  0
   -1.4190    3.4700    0.3648 H   0  0  0  0  0  0  0  0  0  0  0  0
   -2.1314    5.5345    1.5140 H   0  0  0  0  0  0  0  0  0  0  0  0
   -2.3984    6.9538    3.3539 H   0  0  0  0  0  0  0  0  0  0  0  0
   -2.1377    7.8335    1.8297 H   0  0  0  0  0  0  0  0  0  0  0  0
    0.2463    9.5400    3.2743 H   0  0  0  0  0  0  0  0  0  0  0  0
    0.0710   11.7361    4.4382 H   0  0  0  0  0  0  0  0  0  0  0  0
   -2.1012   12.4540    5.4338 H   0  0  0  0  0  0  0  0  0  0  0  0
   -4.0920   10.9564    5.2637 H   0  0  0  0  0  0  0  0  0  0  0  0
   -3.9079    8.7671    4.1115 H   0  0  0  0  0  0  0  0  0  0  0  0
    1.9581    6.3417    2.6246 H   0  0  0  0  0  0  0  0  0  0  0  0
    2.6713    4.2591    1.4665 H   0  0  0  0  0  0  0  0  0  0  0  0
    3.7603    0.6849   -2.3454 H   0  0  0  0  0  0  0  0  0  0  0  0
    4.2078    1.1400   -4.7547 H   0  0  0  0  0  0  0  0  0  0  0  0
    2.3077    1.4826   -6.3352 H   0  0  0  0  0  0  0  0  0  0  0  0
   -0.0384    1.3730   -5.4862 H   0  0  0  0  0  0  0  0  0  0  0  0
   -0.4737    0.9368   -3.0759 H   0  0  0  0  0  0  0  0  0  0  0  0
  1  2  1  0
  1 28  1  0
  1 29  1  0
  1 30  1  0
  2  3  1  0
  3  4  1  6
  3  5  1  0
  3 22  1  0
  5  6  2  0
  5  7  1  0
  7  8  1  0
  7 31  1  0
  8  9  2  0
  8 21  1  0
  9 10  1  0
  9 32  1  0
 10 11  2  0
 10 33  1  0
 11 12  1  0
 11 20  1  0
 12 13  1  0
 13 14  1  0
 13 34  1  0
 13 35  1  0
 14 15  2  0
 14 19  1  0
 15 16  1  0
 15 36  1  0
 16 17  2  0
 16 37  1  0
 17 18  1  0
 17 38  1  0
 18 19  2  0
 18 39  1  0
 19 40  1  0
 20 21  2  0
 20 41  1  0
 21 42  1  0
 22 23  2  0
 22 27  1  0
 23 24  1  0
 23 43  1  0
 24 25  2  0
 24 44  1  0
 25 26  1  0
 25 45  1  0
 26 27  2  0
 26 46  1  0
 27 47  1  0
M  END

