
     RDKit          3D

 43 45  0  0  0  0  0  0  0  0999 V2000
    1.1984    0.4181   -2.2128 C   0  0  0  0  0  0  0  0  0  0  0  0
    2.0739   -0.2455   -0.7472 S   0  0  0  0  0  0  0  0  0  0  0  0
    2.4549   -1.9079   -1.2899 C   0  0  0  0  0  0  0  0  0  0  0  0
    3.6652   -2.1949   -1.9456 C   0  0  0  0  0  0  0  0  0  0  0  0
    3.9780   -3.4917   -2.3354 C   0  0  0  0  0  0  0  0  0  0  0  0
    3.0944   -4.5678   -2.0810 C   0  0  0  0  0  0  0  0  0  0  0  0
    3.4256   -5.8343   -2.5292 N   0  0  0  0  0  0  0  0  0  0  0  0
    2.7522   -7.0529   -2.1181 C   0  0  1  0  0  0  0  0  0  0  0  0
    3.1681   -8.2394   -3.0361 C   0  0  0  0  0  0  0  0  0  0  0  0
    3.9981   -9.1748   -2.1332 C   0  0  0  0  0  0  0  0  0  0  0  0
    4.3563   -8.3396   -0.9929 N   0  0  0  0  0  0  0  0  0  0  0  0
    4.9364   -9.0483    0.1314 C   0  0  0  0  0  0  0  0  0  0  0  0
    5.5457   -8.1367    1.1806 C   0  0  0  0  0  0  0  0  0  0  0  0
    5.3677   -8.3957    2.5466 C   0  0  0  0  0  0  0  0  0  0  0  0
    5.9672   -7.5833    3.5147 C   0  0  0  0  0  0  0  0  0  0  0  0
    6.7492   -6.4925    3.1269 C   0  0  0  0  0  0  0  0  0  0  0  0
    6.9275   -6.2206    1.7660 C   0  0  0  0  0  0  0  0  0  0  0  0
    6.3322   -7.0369    0.8021 C   0  0  0  0  0  0  0  0  0  0  0  0
    3.1652   -7.5483   -0.7142 C   0  0  0  0  0  0  0  0  0  0  0  0
    1.8898   -4.2792   -1.4021 C   0  0  0  0  0  0  0  0  0  0  0  0
    1.5834   -2.9722   -1.0207 C   0  0  0  0  0  0  0  0  0  0  0  0
    0.9215    1.4549   -1.9689 H   0  0  0  0  0  0  0  0  0  0  0  0
    0.2850   -0.1569   -2.4253 H   0  0  0  0  0  0  0  0  0  0  0  0
    1.8496    0.4200   -3.0994 H   0  0  0  0  0  0  0  0  0  0  0  0
    4.3690   -1.3834   -2.1467 H   0  0  0  0  0  0  0  0  0  0  0  0
    4.9227   -3.6900   -2.8508 H   0  0  0  0  0  0  0  0  0  0  0  0
    4.4087   -5.9609   -2.7443 H   0  0  0  0  0  0  0  0  0  0  0  0
    1.6682   -6.8786   -2.1705 H   0  0  0  0  0  0  0  0  0  0  0  0
    3.7508   -7.8616   -3.8893 H   0  0  0  0  0  0  0  0  0  0  0  0
    2.2909   -8.7546   -3.4527 H   0  0  0  0  0  0  0  0  0  0  0  0
    4.8987   -9.5750   -2.6271 H   0  0  0  0  0  0  0  0  0  0  0  0
    3.3826  -10.0492   -1.8180 H   0  0  0  0  0  0  0  0  0  0  0  0
    5.7279   -9.7083   -0.2687 H   0  0  0  0  0  0  0  0  0  0  0  0
    4.1946   -9.7229    0.6191 H   0  0  0  0  0  0  0  0  0  0  0  0
    4.7495   -9.2432    2.8576 H   0  0  0  0  0  0  0  0  0  0  0  0
    5.8159   -7.8003    4.5754 H   0  0  0  0  0  0  0  0  0  0  0  0
    7.2142   -5.8526    3.8813 H   0  0  0  0  0  0  0  0  0  0  0  0
    7.5336   -5.3656    1.4544 H   0  0  0  0  0  0  0  0  0  0  0  0
    6.4612   -6.8232   -0.2614 H   0  0  0  0  0  0  0  0  0  0  0  0
    3.3737   -6.7248   -0.0161 H   0  0  0  0  0  0  0  0  0  0  0  0
    2.3505   -8.1717   -0.2727 H   0  0  0  0  0  0  0  0  0  0  0  0
    1.1862   -5.0763   -1.1595 H   0  0  0  0  0  0  0  0  0  0  0  0
    0.6488   -2.7729   -0.4903 H   0  0  0  0  0  0  0  0  0  0  0  0
  1  2  1  0
  1 22  1  0
  1 23  1  0
  1 24  1  0
  2  3  1  0
  3  4  2  0
  3 21  1  0
  4  5  1  0
  4 25  1  0
  5  6  2  0
  5 26  1  0
  6  7  1  0
  6 20  1  0
  7  8  1  0
  7 27  1  0
  8  9  1  0
  8 19  1  0
  8 28  1  1
  9 10  1  0
  9 29  1  0
  9 30  1  0
 10 11  1  0
 10 31  1  0
 10 32  1  0
 11 12  1  0
 11 19  1  0
 12 13  1  0
 12 33  1  0
 12 34  1  0
 13 14  2  0
 13 18  1  0
 14 15  1  0
 14 35  1  0
 15 16  2  0
 15 36  1  0
 16 17  1  0
 16 37  1  0
 17 18  2  0
 17 38  1  0
 18 39  1  0
 19 40  1  0
 19 41  1  0
 20 21  2  0
 20 42  1  0
 21 43  1  0
M  END

