
     RDKit          3D

 58 60  0  0  0  0  0  0  0  0999 V2000
   -5.8478   -1.1893    2.2914 C   0  0  0  0  0  0  0  0  0  0  0  0
   -4.5095   -1.2772    1.8606 O   0  0  0  0  0  0  0  0  0  0  0  0
   -3.5139   -1.4468    2.7769 C   0  0  0  0  0  0  0  0  0  0  0  0
   -3.6871   -1.4386    4.1593 C   0  0  0  0  0  0  0  0  0  0  0  0
   -2.5835   -1.6154    5.0070 C   0  0  0  0  0  0  0  0  0  0  0  0
   -1.3008   -1.8033    4.4889 C   0  0  0  0  0  0  0  0  0  0  0  0
   -0.1041   -1.9989    5.3893 C   0  0  0  0  0  0  0  0  0  0  0  0
   -1.1319   -1.8146    3.0916 C   0  0  0  0  0  0  0  0  0  0  0  0
   -2.2179   -1.6411    2.2281 C   0  0  0  0  0  0  0  0  0  0  0  0
   -2.1319   -1.6491    0.8246 N   0  0  0  0  0  0  0  0  0  0  0  0
   -1.0161   -1.8033    0.0481 C   0  0  0  0  0  0  0  0  0  0  0  0
    0.1176   -1.9833    0.4616 O   0  0  0  0  0  0  0  0  0  0  0  0
   -1.3018   -1.7233   -1.4644 C   0  0  0  0  0  0  0  0  0  0  0  0
   -1.7152   -0.4043   -1.9157 N   0  0  0  0  0  0  0  0  0  0  0  0
   -3.0180   -0.0035   -1.8700 C   0  0  0  0  0  0  0  0  0  0  0  0
   -3.9006   -0.7175   -1.4170 O   0  0  0  0  0  0  0  0  0  0  0  0
   -3.2742    1.3836   -2.4680 C   0  0  0  0  0  0  0  0  0  0  0  0
   -4.4997    1.9772   -2.0230 N   0  0  0  0  0  0  0  0  0  0  0  0
   -4.9025    3.1798   -2.7349 C   0  0  0  0  0  0  0  0  0  0  0  0
   -6.0867    3.7192   -1.9117 C   0  0  0  0  0  0  0  0  0  0  0  0
   -5.9428    3.0654   -0.4928 C   0  0  2  0  0  0  0  0  0  0  0  0
   -7.0838    2.0529   -0.2283 C   0  0  0  0  0  0  0  0  0  0  0  0
   -8.4475    2.7195   -0.0108 C   0  0  0  0  0  0  0  0  0  0  0  0
   -8.3877    3.7511    1.1226 C   0  0  0  0  0  0  0  0  0  0  0  0
   -7.2759    4.7795    0.8790 C   0  0  0  0  0  0  0  0  0  0  0  0
   -5.9172    4.1043    0.6469 C   0  0  0  0  0  0  0  0  0  0  0  0
   -4.5942    2.3165   -0.6110 C   0  0  0  0  0  0  0  0  0  0  0  0
   -6.4606   -1.1046    1.3845 H   0  0  0  0  0  0  0  0  0  0  0  0
   -6.0170   -0.2996    2.9246 H   0  0  0  0  0  0  0  0  0  0  0  0
   -6.1532   -2.0890    2.8555 H   0  0  0  0  0  0  0  0  0  0  0  0
   -4.6781   -1.2922    4.5899 H   0  0  0  0  0  0  0  0  0  0  0  0
   -2.7384   -1.6051    6.0893 H   0  0  0  0  0  0  0  0  0  0  0  0
   -0.3836   -1.9381    6.4518 H   0  0  0  0  0  0  0  0  0  0  0  0
    0.6707   -1.2371    5.2002 H   0  0  0  0  0  0  0  0  0  0  0  0
    0.3685   -2.9816    5.2218 H   0  0  0  0  0  0  0  0  0  0  0  0
   -0.1468   -1.9636    2.6536 H   0  0  0  0  0  0  0  0  0  0  0  0
   -3.0186   -1.5093    0.3331 H   0  0  0  0  0  0  0  0  0  0  0  0
   -2.0953   -2.4383   -1.7324 H   0  0  0  0  0  0  0  0  0  0  0  0
   -0.3718   -2.0080   -1.9723 H   0  0  0  0  0  0  0  0  0  0  0  0
   -0.9987    0.2632   -2.1754 H   0  0  0  0  0  0  0  0  0  0  0  0
   -3.3188    1.2523   -3.5647 H   0  0  0  0  0  0  0  0  0  0  0  0
   -2.3802    2.0291   -2.2730 H   0  0  0  0  0  0  0  0  0  0  0  0
   -5.1649    2.9499   -3.7814 H   0  0  0  0  0  0  0  0  0  0  0  0
   -4.0785    3.9322   -2.7633 H   0  0  0  0  0  0  0  0  0  0  0  0
   -7.0417    3.4381   -2.3793 H   0  0  0  0  0  0  0  0  0  0  0  0
   -6.0663    4.8186   -1.8655 H   0  0  0  0  0  0  0  0  0  0  0  0
   -6.8269    1.4770    0.6794 H   0  0  0  0  0  0  0  0  0  0  0  0
   -7.1184    1.3262   -1.0560 H   0  0  0  0  0  0  0  0  0  0  0  0
   -9.2096    1.9520    0.2069 H   0  0  0  0  0  0  0  0  0  0  0  0
   -8.7773    3.2182   -0.9404 H   0  0  0  0  0  0  0  0  0  0  0  0
   -8.1942    3.2285    2.0783 H   0  0  0  0  0  0  0  0  0  0  0  0
   -9.3610    4.2576    1.2381 H   0  0  0  0  0  0  0  0  0  0  0  0
   -7.2065    5.4790    1.7292 H   0  0  0  0  0  0  0  0  0  0  0  0
   -7.5374    5.3943   -0.0016 H   0  0  0  0  0  0  0  0  0  0  0  0
   -5.6064    3.5946    1.5783 H   0  0  0  0  0  0  0  0  0  0  0  0
   -5.1431    4.8639    0.4403 H   0  0  0  0  0  0  0  0  0  0  0  0
   -4.5522    1.4131    0.0151 H   0  0  0  0  0  0  0  0  0  0  0  0
   -3.7578    2.9890   -0.2997 H   0  0  0  0  0  0  0  0  0  0  0  0
  1  2  1  0
  1 28  1  0
  1 29  1  0
  1 30  1  0
  2  3  1  0
  3  4  2  0
  3  9  1  0
  4  5  1  0
  4 31  1  0
  5  6  2  0
  5 32  1  0
  6  7  1  0
  6  8  1  0
  7 33  1  0
  7 34  1  0
  7 35  1  0
  8  9  2  0
  8 36  1  0
  9 10  1  0
 10 11  1  0
 10 37  1  0
 11 12  2  0
 11 13  1  0
 13 14  1  0
 13 38  1  0
 13 39  1  0
 14 15  1  0
 14 40  1  0
 15 16  2  0
 15 17  1  0
 17 18  1  0
 17 41  1  0
 17 42  1  0
 18 19  1  0
 18 27  1  0
 19 20  1  0
 19 43  1  0
 19 44  1  0
 21 20  1  6
 20 45  1  0
 20 46  1  0
 21 22  1  0
 21 26  1  0
 21 27  1  0
 22 23  1  0
 22 47  1  0
 22 48  1  0
 23 24  1  0
 23 49  1  0
 23 50  1  0
 24 25  1  0
 24 51  1  0
 24 52  1  0
 25 26  1  0
 25 53  1  0
 25 54  1  0
 26 55  1  0
 26 56  1  0
 27 57  1  0
 27 58  1  0
M  END

