
     RDKit          3D

 56 58  0  0  0  0  0  0  0  0999 V2000
    1.7363   -0.6494   -0.7313 C   0  0  0  0  0  0  0  0  0  0  0  0
    2.0165    0.5435   -0.0322 O   0  0  0  0  0  0  0  0  0  0  0  0
    2.6742    0.4860    1.1491 C   0  0  0  0  0  0  0  0  0  0  0  0
    2.9003    1.7164    1.7945 C   0  0  0  0  0  0  0  0  0  0  0  0
    3.5725    1.7609    3.0074 C   0  0  0  0  0  0  0  0  0  0  0  0
    4.0505    0.5820    3.6170 C   0  0  0  0  0  0  0  0  0  0  0  0
    4.7104    0.6819    4.9303 C   0  0  0  0  0  0  0  0  0  0  0  0
    4.2716    1.4594    5.9042 N   0  0  0  0  0  0  0  0  0  0  0  0
    5.0792    1.2825    6.9820 N   0  0  0  0  0  0  0  0  0  0  0  0
    6.0189    0.4219    6.6531 C   0  0  0  0  0  0  0  0  0  0  0  0
    7.2635   -0.2122    7.7314 S   0  0  0  0  0  0  0  0  0  0  0  0
    8.2748    1.2901    8.1131 C   0  0  0  0  0  0  0  0  0  0  0  0
    7.5632    2.4307    8.8403 C   0  0  0  0  0  0  0  0  0  0  0  0
    6.8944    2.0204   10.1630 C   0  0  0  0  0  0  0  0  0  0  0  0
    6.3912    3.2197   10.9596 C   0  0  0  0  0  0  0  0  0  0  0  0
    7.0633    3.6657   11.8725 O   0  0  0  0  0  0  0  0  0  0  0  0
    5.0780    3.8530   10.5995 C   0  0  0  0  0  0  0  0  0  0  0  0
    4.2720    3.4069    9.5376 C   0  0  0  0  0  0  0  0  0  0  0  0
    3.0624    4.0450    9.2482 C   0  0  0  0  0  0  0  0  0  0  0  0
    2.6547    5.1274   10.0306 C   0  0  0  0  0  0  0  0  0  0  0  0
    1.0028    5.9987    9.6447 Br  0  0  0  0  0  0  0  0  0  0  0  0
    3.4403    5.5876   11.0953 C   0  0  0  0  0  0  0  0  0  0  0  0
    4.6465    4.9494   11.3690 C   0  0  0  0  0  0  0  0  0  0  0  0
    5.8378    0.0038    5.3489 N   0  0  0  0  0  0  0  0  0  0  0  0
    6.7661   -0.8176    4.5695 C   0  0  0  0  0  0  0  0  0  0  0  0
    8.0522   -0.0893    4.1330 C   0  0  1  0  0  0  0  0  0  0  0  0
    8.9761   -1.0886    3.4262 C   0  0  0  0  0  0  0  0  0  0  0  0
    7.7689    1.1352    3.2567 C   0  0  0  0  0  0  0  0  0  0  0  0
    3.7987   -0.6406    2.9773 C   0  0  0  0  0  0  0  0  0  0  0  0
    3.1242   -0.6981    1.7535 C   0  0  0  0  0  0  0  0  0  0  0  0
    1.2042   -0.3575   -1.6464 H   0  0  0  0  0  0  0  0  0  0  0  0
    1.0918   -1.3278   -0.1440 H   0  0  0  0  0  0  0  0  0  0  0  0
    2.6596   -1.1882   -1.0109 H   0  0  0  0  0  0  0  0  0  0  0  0
    2.5325    2.6266    1.3168 H   0  0  0  0  0  0  0  0  0  0  0  0
    3.7348    2.7163    3.5095 H   0  0  0  0  0  0  0  0  0  0  0  0
    8.7317    1.6484    7.1780 H   0  0  0  0  0  0  0  0  0  0  0  0
    9.0810    0.8668    8.7348 H   0  0  0  0  0  0  0  0  0  0  0  0
    6.8219    2.8855    8.1662 H   0  0  0  0  0  0  0  0  0  0  0  0
    8.3261    3.2040    9.0423 H   0  0  0  0  0  0  0  0  0  0  0  0
    7.6297    1.5164   10.8091 H   0  0  0  0  0  0  0  0  0  0  0  0
    6.0792    1.3113    9.9549 H   0  0  0  0  0  0  0  0  0  0  0  0
    4.5706    2.5705    8.8999 H   0  0  0  0  0  0  0  0  0  0  0  0
    2.4504    3.6973    8.4144 H   0  0  0  0  0  0  0  0  0  0  0  0
    3.1075    6.4352   11.6969 H   0  0  0  0  0  0  0  0  0  0  0  0
    5.2837    5.2860   12.1893 H   0  0  0  0  0  0  0  0  0  0  0  0
    6.2290   -1.1775    3.6828 H   0  0  0  0  0  0  0  0  0  0  0  0
    7.0289   -1.6956    5.1776 H   0  0  0  0  0  0  0  0  0  0  0  0
    8.5599    0.2468    5.0538 H   0  0  0  0  0  0  0  0  0  0  0  0
    8.5113   -1.4787    2.5042 H   0  0  0  0  0  0  0  0  0  0  0  0
    9.2168   -1.9485    4.0722 H   0  0  0  0  0  0  0  0  0  0  0  0
    9.9253   -0.6097    3.1399 H   0  0  0  0  0  0  0  0  0  0  0  0
    7.2619    0.8479    2.3202 H   0  0  0  0  0  0  0  0  0  0  0  0
    8.7083    1.6428    2.9863 H   0  0  0  0  0  0  0  0  0  0  0  0
    7.1311    1.8718    3.7692 H   0  0  0  0  0  0  0  0  0  0  0  0
    4.0981   -1.5791    3.4495 H   0  0  0  0  0  0  0  0  0  0  0  0
    2.9424   -1.6692    1.2932 H   0  0  0  0  0  0  0  0  0  0  0  0
  1  2  1  0
  1 31  1  0
  1 32  1  0
  1 33  1  0
  2  3  1  0
  3  4  2  0
  3 30  1  0
  4  5  1  0
  4 34  1  0
  5  6  2  0
  5 35  1  0
  6  7  1  0
  6 29  1  0
  7  8  2  0
  7 24  1  0
  8  9  1  0
  9 10  2  0
 10 11  1  0
 10 24  1  0
 11 12  1  0
 12 13  1  0
 12 36  1  0
 12 37  1  0
 13 14  1  0
 13 38  1  0
 13 39  1  0
 14 15  1  0
 14 40  1  0
 14 41  1  0
 15 16  2  0
 15 17  1  0
 17 18  2  0
 17 23  1  0
 18 19  1  0
 18 42  1  0
 19 20  2  0
 19 43  1  0
 20 21  1  0
 20 22  1  0
 22 23  2  0
 22 44  1  0
 23 45  1  0
 24 25  1  0
 25 26  1  0
 25 46  1  0
 25 47  1  0
 26 27  1  0
 26 28  1  0
 26 48  1  1
 27 49  1  0
 27 50  1  0
 27 51  1  0
 28 52  1  0
 28 53  1  0
 28 54  1  0
 29 30  2  0
 29 55  1  0
 30 56  1  0
M  END

