
     RDKit          3D

 56 59  0  0  0  0  0  0  0  0999 V2000
    2.5696    2.7634    3.6105 C   0  0  0  0  0  0  0  0  0  0  0  0
    2.3406    1.3878    3.4145 O   0  0  0  0  0  0  0  0  0  0  0  0
    3.4003    0.5399    3.3578 C   0  0  0  0  0  0  0  0  0  0  0  0
    3.0986   -0.8185    3.1548 C   0  0  0  0  0  0  0  0  0  0  0  0
    4.1110   -1.7653    3.0626 C   0  0  0  0  0  0  0  0  0  0  0  0
    5.4562   -1.3780    3.2036 C   0  0  0  0  0  0  0  0  0  0  0  0
    6.5036   -2.3353    3.0709 N   0  0  0  0  0  0  0  0  0  0  0  0
    6.6600   -3.7420    3.9711 S   0  0  1  0  0  0  0  0  0  0  0  0
    5.3478   -4.3893    4.0082 O   0  0  0  0  0  0  0  0  0  0  0  0
    7.8292   -4.4127    3.3988 O   0  0  0  0  0  0  0  0  0  0  0  0
    7.0562   -3.2422    5.6685 C   0  0  0  0  0  0  0  0  0  0  0  0
    7.6803   -1.9970    5.8170 C   0  0  0  0  0  0  0  0  0  0  0  0
    7.9684   -1.4775    7.0828 C   0  0  0  0  0  0  0  0  0  0  0  0
    8.5767   -0.2222    7.2826 N   0  0  0  0  0  0  0  0  0  0  0  0
    8.9265    0.7222    6.3473 C   0  0  0  0  0  0  0  0  0  0  0  0
    8.7918    0.5613    5.1402 O   0  0  0  0  0  0  0  0  0  0  0  0
    9.5179    1.9884    6.9007 C   0  0  0  0  0  0  0  0  0  0  0  0
   10.2783    2.7794    6.0256 C   0  0  0  0  0  0  0  0  0  0  0  0
   10.8582    3.9705    6.4512 C   0  0  0  0  0  0  0  0  0  0  0  0
   10.6702    4.4102    7.7717 C   0  0  0  0  0  0  0  0  0  0  0  0
   11.2439    5.6202    8.2287 N   0  0  0  0  0  0  0  0  0  0  0  0
   11.9466    6.5555    7.5116 C   0  0  0  0  0  0  0  0  0  0  0  0
   12.2959    7.5560    8.3925 C   0  0  0  0  0  0  0  0  0  0  0  0
   11.7538    7.1349    9.6355 C   0  0  0  0  0  0  0  0  0  0  0  0
   11.1255    5.9758    9.5272 N   0  0  0  0  0  0  0  0  0  0  0  0
    9.8946    3.6407    8.6529 C   0  0  0  0  0  0  0  0  0  0  0  0
    9.3287    2.4461    8.2157 C   0  0  0  0  0  0  0  0  0  0  0  0
    7.6194   -2.2412    8.2116 C   0  0  0  0  0  0  0  0  0  0  0  0
    7.0381   -3.4913    8.0635 C   0  0  0  0  0  0  0  0  0  0  0  0
    6.7531   -4.0398    6.7969 C   0  0  0  0  0  0  0  0  0  0  0  0
    6.1930   -5.2648    6.8114 O   0  0  0  0  0  0  0  0  0  0  0  0
    6.5852   -6.3026    5.9126 C   0  0  0  0  0  0  0  0  0  0  0  0
    5.7578   -0.0289    3.4227 C   0  0  0  0  0  0  0  0  0  0  0  0
    4.7410    0.9309    3.4834 C   0  0  0  0  0  0  0  0  0  0  0  0
    1.5837    3.2480    3.6189 H   0  0  0  0  0  0  0  0  0  0  0  0
    3.1753    3.2016    2.7962 H   0  0  0  0  0  0  0  0  0  0  0  0
    3.0741    2.9654    4.5732 H   0  0  0  0  0  0  0  0  0  0  0  0
    2.0504   -1.1067    3.0526 H   0  0  0  0  0  0  0  0  0  0  0  0
    3.8744   -2.8145    2.8883 H   0  0  0  0  0  0  0  0  0  0  0  0
    7.4061   -2.0040    2.7403 H   0  0  0  0  0  0  0  0  0  0  0  0
    7.9372   -1.4009    4.9486 H   0  0  0  0  0  0  0  0  0  0  0  0
    8.8199   -0.0150    8.2431 H   0  0  0  0  0  0  0  0  0  0  0  0
   10.4085    2.4358    4.9981 H   0  0  0  0  0  0  0  0  0  0  0  0
   11.4586    4.5487    5.7485 H   0  0  0  0  0  0  0  0  0  0  0  0
   12.1380    6.4493    6.4482 H   0  0  0  0  0  0  0  0  0  0  0  0
   12.8580    8.4604    8.1724 H   0  0  0  0  0  0  0  0  0  0  0  0
   11.8020    7.6374   10.6016 H   0  0  0  0  0  0  0  0  0  0  0  0
    9.7438    4.0022    9.6689 H   0  0  0  0  0  0  0  0  0  0  0  0
    8.7018    1.8907    8.9185 H   0  0  0  0  0  0  0  0  0  0  0  0
    7.8186   -1.8569    9.2165 H   0  0  0  0  0  0  0  0  0  0  0  0
    6.7883   -4.0992    8.9351 H   0  0  0  0  0  0  0  0  0  0  0  0
    6.7131   -7.2156    6.5141 H   0  0  0  0  0  0  0  0  0  0  0  0
    7.5324   -6.0624    5.4067 H   0  0  0  0  0  0  0  0  0  0  0  0
    5.8096   -6.4587    5.1516 H   0  0  0  0  0  0  0  0  0  0  0  0
    6.7949    0.2878    3.5591 H   0  0  0  0  0  0  0  0  0  0  0  0
    5.0127    1.9742    3.6445 H   0  0  0  0  0  0  0  0  0  0  0  0
  1  2  1  0
  1 35  1  0
  1 36  1  0
  1 37  1  0
  2  3  1  0
  3  4  2  0
  3 34  1  0
  4  5  1  0
  4 38  1  0
  5  6  2  0
  5 39  1  0
  6  7  1  0
  6 33  1  0
  8  7  1  6
  7 40  1  0
  8  9  2  0
  8 10  2  0
  8 11  1  0
 11 12  2  0
 11 30  1  0
 12 13  1  0
 12 41  1  0
 13 14  1  0
 13 28  2  0
 14 15  1  0
 14 42  1  0
 15 16  2  0
 15 17  1  0
 17 18  2  0
 17 27  1  0
 18 19  1  0
 18 43  1  0
 19 20  2  0
 19 44  1  0
 20 21  1  0
 20 26  1  0
 21 22  1  0
 21 25  1  0
 22 23  2  0
 22 45  1  0
 23 24  1  0
 23 46  1  0
 24 25  2  0
 24 47  1  0
 26 27  2  0
 26 48  1  0
 27 49  1  0
 28 29  1  0
 28 50  1  0
 29 30  2  0
 29 51  1  0
 30 31  1  0
 31 32  1  0
 32 52  1  0
 32 53  1  0
 32 54  1  0
 33 34  2  0
 33 55  1  0
 34 56  1  0
M  END

