
     RDKit          3D

 47 50  0  0  0  0  0  0  0  0999 V2000
    1.6631   -3.5613   -0.2584 C   0  0  0  0  0  0  0  0  0  0  0  0
    2.9101   -3.0950    0.4810 C   0  0  0  0  0  0  0  0  0  0  0  0
    2.9098   -2.9128    1.6817 O   0  0  0  0  0  0  0  0  0  0  0  0
    4.0044   -2.8810   -0.3344 N   0  0  0  0  0  0  0  0  0  0  0  0
    5.2909   -2.4188   -0.0001 C   0  0  0  0  0  0  0  0  0  0  0  0
    6.2238   -2.2933   -1.0429 C   0  0  0  0  0  0  0  0  0  0  0  0
    7.5123   -1.8414   -0.7719 C   0  0  0  0  0  0  0  0  0  0  0  0
    7.9219   -1.5016    0.5212 C   0  0  0  0  0  0  0  0  0  0  0  0
    9.3263   -1.0141    0.7836 C   0  0  0  0  0  0  0  0  0  0  0  0
    6.9702   -1.6316    1.5639 C   0  0  0  0  0  0  0  0  0  0  0  0
    7.3944   -1.2786    2.8631 N   0  0  0  0  0  0  0  0  0  0  0  0
    6.7180   -1.3541    4.0593 C   0  0  0  0  0  0  0  0  0  0  0  0
    5.5862   -1.7802    4.1955 O   0  0  0  0  0  0  0  0  0  0  0  0
    7.5096   -0.8461    5.2418 C   0  0  0  0  0  0  0  0  0  0  0  0
    8.3247    0.2866    5.1569 C   0  0  0  0  0  0  0  0  0  0  0  0
    9.0179    0.7855    6.2899 C   0  0  0  0  0  0  0  0  0  0  0  0
    9.8635    2.0021    6.1728 C   0  0  1  0  0  0  0  0  0  0  0  0
    9.9492    2.9709    7.3410 C   0  0  0  0  0  0  0  0  0  0  0  0
   11.1289    2.1194    7.0067 C   0  0  0  0  0  0  0  0  0  0  0  0
    8.9380    0.1962    7.4882 N   0  0  0  0  0  0  0  0  0  0  0  0
    8.1630   -0.8694    7.5489 C   0  0  0  0  0  0  0  0  0  0  0  0
    7.9878   -1.5680    8.6825 O   0  0  0  0  0  0  0  0  0  0  0  0
    7.1203   -2.6302    8.4175 N   0  0  0  0  0  0  0  0  0  0  0  0
    6.7749   -2.5820    7.1548 C   0  0  0  0  0  0  0  0  0  0  0  0
    5.8471   -3.6167    6.6065 C   0  0  0  0  0  0  0  0  0  0  0  0
    7.4142   -1.4551    6.5099 C   0  0  0  0  0  0  0  0  0  0  0  0
    5.6659   -2.0867    1.3119 C   0  0  0  0  0  0  0  0  0  0  0  0
    1.1826   -4.3503    0.3366 H   0  0  0  0  0  0  0  0  0  0  0  0
    1.8554   -3.9364   -1.2748 H   0  0  0  0  0  0  0  0  0  0  0  0
    0.9528   -2.7211   -0.3210 H   0  0  0  0  0  0  0  0  0  0  0  0
    3.8696   -3.0764   -1.3186 H   0  0  0  0  0  0  0  0  0  0  0  0
    5.9410   -2.5502   -2.0677 H   0  0  0  0  0  0  0  0  0  0  0  0
    8.2276   -1.7493   -1.5937 H   0  0  0  0  0  0  0  0  0  0  0  0
    9.9100   -0.9865   -0.1472 H   0  0  0  0  0  0  0  0  0  0  0  0
    9.8739   -1.6682    1.4865 H   0  0  0  0  0  0  0  0  0  0  0  0
    9.3449    0.0081    1.2042 H   0  0  0  0  0  0  0  0  0  0  0  0
    8.3585   -0.9804    2.9348 H   0  0  0  0  0  0  0  0  0  0  0  0
    8.4080    0.8334    4.2157 H   0  0  0  0  0  0  0  0  0  0  0  0
    9.8919    2.4380    5.1706 H   0  0  0  0  0  0  0  0  0  0  0  0
    9.3697    2.7019    8.2279 H   0  0  0  0  0  0  0  0  0  0  0  0
    9.9800    4.0382    7.1048 H   0  0  0  0  0  0  0  0  0  0  0  0
   11.3444    1.2767    7.6688 H   0  0  0  0  0  0  0  0  0  0  0  0
   12.0001    2.5808    6.5333 H   0  0  0  0  0  0  0  0  0  0  0  0
    5.5656   -4.3146    7.4066 H   0  0  0  0  0  0  0  0  0  0  0  0
    6.3257   -4.1800    5.7902 H   0  0  0  0  0  0  0  0  0  0  0  0
    4.9520   -3.1443    6.1789 H   0  0  0  0  0  0  0  0  0  0  0  0
    4.9531   -2.1860    2.1235 H   0  0  0  0  0  0  0  0  0  0  0  0
  1  2  1  0
  1 28  1  0
  1 29  1  0
  1 30  1  0
  2  3  2  0
  2  4  1  0
  4  5  1  0
  4 31  1  0
  5  6  2  0
  5 27  1  0
  6  7  1  0
  6 32  1  0
  7  8  2  0
  7 33  1  0
  8  9  1  0
  8 10  1  0
  9 34  1  0
  9 35  1  0
  9 36  1  0
 10 11  1  0
 10 27  2  0
 11 12  1  0
 11 37  1  0
 12 13  2  0
 12 14  1  0
 14 15  2  0
 14 26  1  0
 15 16  1  0
 15 38  1  0
 16 17  1  0
 16 20  2  0
 17 18  1  0
 17 19  1  0
 17 39  1  6
 18 19  1  0
 18 40  1  0
 18 41  1  0
 19 42  1  0
 19 43  1  0
 20 21  1  0
 21 22  1  0
 21 26  2  0
 22 23  1  0
 23 24  2  0
 24 25  1  0
 24 26  1  0
 25 44  1  0
 25 45  1  0
 25 46  1  0
 27 47  1  0
M  END

