
     RDKit          3D

 57 58  0  0  0  0  0  0  0  0999 V2000
    4.0009    2.7925   -1.5804 C   0  0  0  0  0  0  0  0  0  0  0  0
    3.9576    1.4640   -0.8225 C   0  0  0  0  0  0  0  0  0  0  0  0
    4.4376    0.2815   -1.6702 C   0  0  0  0  0  0  0  0  0  0  0  0
    4.5436   -1.0554   -0.9135 C   0  0  1  0  0  0  0  0  0  0  0  0
    3.2122   -1.5414   -0.2811 C   0  0  0  0  0  0  0  0  0  0  0  0
    2.0800   -1.8101   -1.2742 C   0  0  0  0  0  0  0  0  0  0  0  0
    5.1628   -2.1387   -1.7627 C   0  0  0  0  0  0  0  0  0  0  0  0
    5.4055   -1.9806   -3.0105 N   0  0  0  0  0  0  0  0  0  0  0  0
    5.9768   -3.1217   -3.5443 O   0  0  0  0  0  0  0  0  0  0  0  0
    6.2767   -4.0899   -2.4832 C   0  0  1  0  0  0  0  0  0  0  0  0
    5.7526   -5.4516   -2.9525 C   0  0  0  0  0  0  0  0  0  0  0  0
    6.5072   -5.9531   -4.1923 C   0  0  0  0  0  0  0  0  0  0  0  0
    7.9450   -5.9679   -3.9563 N   0  0  0  0  0  0  0  0  0  0  0  0
    8.7757   -7.0641   -4.0374 C   0  0  0  0  0  0  0  0  0  0  0  0
    9.9702   -6.9823   -3.7903 O   0  0  0  0  0  0  0  0  0  0  0  0
    8.1475   -8.3969   -4.4565 C   0  0  0  0  0  0  0  0  0  0  0  0
    9.1770   -9.5246   -4.5370 C   0  0  0  0  0  0  0  0  0  0  0  0
    8.5935  -10.9121   -4.8607 C   0  0  1  0  0  0  0  0  0  0  0  0
    7.9466  -10.9781   -6.2514 C   0  0  0  0  0  0  0  0  0  0  0  0
    9.6750  -11.9911   -4.7171 C   0  0  0  0  0  0  0  0  0  0  0  0
    8.4981   -4.6717   -3.5695 C   0  0  0  0  0  0  0  0  0  0  0  0
    7.8043   -4.1345   -2.3143 C   0  0  0  0  0  0  0  0  0  0  0  0
    5.5479   -3.5115   -1.2579 C   0  0  0  0  0  0  0  0  0  0  0  0
    3.6469    3.6276   -0.9550 H   0  0  0  0  0  0  0  0  0  0  0  0
    3.3665    2.7589   -2.4819 H   0  0  0  0  0  0  0  0  0  0  0  0
    5.0254    3.0326   -1.9103 H   0  0  0  0  0  0  0  0  0  0  0  0
    2.9273    1.2868   -0.4676 H   0  0  0  0  0  0  0  0  0  0  0  0
    4.5802    1.5402    0.0884 H   0  0  0  0  0  0  0  0  0  0  0  0
    5.4307    0.5147   -2.0881 H   0  0  0  0  0  0  0  0  0  0  0  0
    3.7838    0.1585   -2.5496 H   0  0  0  0  0  0  0  0  0  0  0  0
    5.2413   -0.9028   -0.0658 H   0  0  0  0  0  0  0  0  0  0  0  0
    2.8858   -0.7935    0.4598 H   0  0  0  0  0  0  0  0  0  0  0  0
    3.4130   -2.4564    0.3027 H   0  0  0  0  0  0  0  0  0  0  0  0
    1.7749   -0.8955   -1.8063 H   0  0  0  0  0  0  0  0  0  0  0  0
    1.1899   -2.2008   -0.7560 H   0  0  0  0  0  0  0  0  0  0  0  0
    2.3728   -2.5482   -2.0389 H   0  0  0  0  0  0  0  0  0  0  0  0
    4.6774   -5.3660   -3.1787 H   0  0  0  0  0  0  0  0  0  0  0  0
    5.8689   -6.1787   -2.1302 H   0  0  0  0  0  0  0  0  0  0  0  0
    6.2823   -5.2794   -5.0390 H   0  0  0  0  0  0  0  0  0  0  0  0
    6.1535   -6.9523   -4.4684 H   0  0  0  0  0  0  0  0  0  0  0  0
    7.6395   -8.2595   -5.4259 H   0  0  0  0  0  0  0  0  0  0  0  0
    7.3523   -8.6651   -3.7371 H   0  0  0  0  0  0  0  0  0  0  0  0
    9.7164   -9.5691   -3.5775 H   0  0  0  0  0  0  0  0  0  0  0  0
    9.9439   -9.2611   -5.2858 H   0  0  0  0  0  0  0  0  0  0  0  0
    7.8054  -11.1279   -4.1126 H   0  0  0  0  0  0  0  0  0  0  0  0
    8.6850  -10.7462   -7.0387 H   0  0  0  0  0  0  0  0  0  0  0  0
    7.1105  -10.2691   -6.3598 H   0  0  0  0  0  0  0  0  0  0  0  0
    7.5486  -11.9852   -6.4568 H   0  0  0  0  0  0  0  0  0  0  0  0
   10.4947  -11.8247   -5.4371 H   0  0  0  0  0  0  0  0  0  0  0  0
    9.2673  -12.9980   -4.9040 H   0  0  0  0  0  0  0  0  0  0  0  0
   10.1162  -11.9874   -3.7073 H   0  0  0  0  0  0  0  0  0  0  0  0
    8.3548   -3.9542   -4.3964 H   0  0  0  0  0  0  0  0  0  0  0  0
    9.5736   -4.8069   -3.4060 H   0  0  0  0  0  0  0  0  0  0  0  0
    8.1712   -3.1202   -2.0869 H   0  0  0  0  0  0  0  0  0  0  0  0
    8.0475   -4.7784   -1.4513 H   0  0  0  0  0  0  0  0  0  0  0  0
    6.1890   -3.4615   -0.3627 H   0  0  0  0  0  0  0  0  0  0  0  0
    4.6535   -4.0970   -0.9824 H   0  0  0  0  0  0  0  0  0  0  0  0
  1  2  1  0
  1 24  1  0
  1 25  1  0
  1 26  1  0
  2  3  1  0
  2 27  1  0
  2 28  1  0
  3  4  1  0
  3 29  1  0
  3 30  1  0
  4  5  1  0
  4  7  1  0
  4 31  1  1
  5  6  1  0
  5 32  1  0
  5 33  1  0
  6 34  1  0
  6 35  1  0
  6 36  1  0
  7  8  2  0
  7 23  1  0
  8  9  1  0
 10  9  1  6
 10 11  1  0
 10 22  1  0
 10 23  1  0
 11 12  1  0
 11 37  1  0
 11 38  1  0
 12 13  1  0
 12 39  1  0
 12 40  1  0
 13 14  1  0
 13 21  1  0
 14 15  2  0
 14 16  1  0
 16 17  1  0
 16 41  1  0
 16 42  1  0
 17 18  1  0
 17 43  1  0
 17 44  1  0
 18 19  1  0
 18 20  1  0
 18 45  1  1
 19 46  1  0
 19 47  1  0
 19 48  1  0
 20 49  1  0
 20 50  1  0
 20 51  1  0
 21 22  1  0
 21 52  1  0
 21 53  1  0
 22 54  1  0
 22 55  1  0
 23 56  1  0
 23 57  1  0
M  END

