
     RDKit          3D

 49 51  0  0  0  0  0  0  0  0999 V2000
    4.7859   -0.1391   -2.3425 C   0  0  0  0  0  0  0  0  0  0  0  0
    5.2289   -0.0730   -1.0068 O   0  0  0  0  0  0  0  0  0  0  0  0
    4.8728   -1.0537   -0.1370 C   0  0  0  0  0  0  0  0  0  0  0  0
    5.3534   -0.9172    1.1787 C   0  0  0  0  0  0  0  0  0  0  0  0
    5.0368   -1.8791    2.1305 C   0  0  0  0  0  0  0  0  0  0  0  0
    4.2416   -2.9865    1.8014 C   0  0  0  0  0  0  0  0  0  0  0  0
    3.7636   -3.1253    0.4977 C   0  0  0  0  0  0  0  0  0  0  0  0
    2.8818   -4.2816    0.0823 C   0  0  0  0  0  0  0  0  0  0  0  0
    2.8126   -5.2451    1.1140 O   0  0  0  0  0  0  0  0  0  0  0  0
    2.0555   -6.3569    0.9357 C   0  0  0  0  0  0  0  0  0  0  0  0
    2.0305   -7.2650    2.0145 C   0  0  0  0  0  0  0  0  0  0  0  0
    1.2817   -8.4331    1.9210 C   0  0  0  0  0  0  0  0  0  0  0  0
    0.5489   -8.7191    0.7628 C   0  0  0  0  0  0  0  0  0  0  0  0
    0.5701   -7.8200   -0.3133 C   0  0  0  0  0  0  0  0  0  0  0  0
   -0.1966   -8.1202   -1.5271 C   0  0  0  0  0  0  0  0  0  0  0  0
   -0.2087   -7.3270   -2.5343 N   0  0  0  0  0  0  0  0  0  0  0  0
   -0.9381   -7.6629   -3.6111 N   0  0  0  0  0  0  0  0  0  0  0  0
   -0.9228   -6.8800   -4.7620 C   0  0  0  0  0  0  0  0  0  0  0  0
   -0.2158   -5.9014   -4.8807 O   0  0  0  0  0  0  0  0  0  0  0  0
   -1.8344   -7.3616   -5.8554 C   0  0  0  0  0  0  0  0  0  0  0  0
   -1.5529   -6.9238   -7.1565 C   0  0  0  0  0  0  0  0  0  0  0  0
   -2.3580   -7.3231   -8.2252 C   0  0  0  0  0  0  0  0  0  0  0  0
   -3.4576   -8.1512   -8.0012 C   0  0  0  0  0  0  0  0  0  0  0  0
   -4.3104   -8.5950   -8.9704 O   0  0  0  0  0  0  0  0  0  0  0  0
   -3.7648   -8.5853   -6.6938 C   0  0  0  0  0  0  0  0  0  0  0  0
   -4.8448   -9.3715   -6.4733 O   0  0  0  0  0  0  0  0  0  0  0  0
   -2.9539   -8.1860   -5.6334 C   0  0  0  0  0  0  0  0  0  0  0  0
    1.3278   -6.6339   -0.2241 C   0  0  0  0  0  0  0  0  0  0  0  0
    4.0811   -2.1588   -0.4737 C   0  0  0  0  0  0  0  0  0  0  0  0
    5.1885    0.7476   -2.8508 H   0  0  0  0  0  0  0  0  0  0  0  0
    3.6831   -0.1208   -2.4135 H   0  0  0  0  0  0  0  0  0  0  0  0
    5.1576   -1.0441   -2.8568 H   0  0  0  0  0  0  0  0  0  0  0  0
    5.9713   -0.0497    1.4188 H   0  0  0  0  0  0  0  0  0  0  0  0
    5.4142   -1.7693    3.1507 H   0  0  0  0  0  0  0  0  0  0  0  0
    3.9957   -3.7402    2.5488 H   0  0  0  0  0  0  0  0  0  0  0  0
    3.2770   -4.7412   -0.8436 H   0  0  0  0  0  0  0  0  0  0  0  0
    1.8659   -3.9097   -0.1556 H   0  0  0  0  0  0  0  0  0  0  0  0
    2.6083   -7.0267    2.9096 H   0  0  0  0  0  0  0  0  0  0  0  0
    1.2673   -9.1320    2.7611 H   0  0  0  0  0  0  0  0  0  0  0  0
   -0.0379   -9.6388    0.6949 H   0  0  0  0  0  0  0  0  0  0  0  0
   -0.7679   -9.0689   -1.5343 H   0  0  0  0  0  0  0  0  0  0  0  0
   -1.4345   -8.5551   -3.6216 H   0  0  0  0  0  0  0  0  0  0  0  0
   -0.6966   -6.2663   -7.3121 H   0  0  0  0  0  0  0  0  0  0  0  0
   -2.1336   -6.9879   -9.2427 H   0  0  0  0  0  0  0  0  0  0  0  0
   -4.0584   -8.2416   -9.8332 H   0  0  0  0  0  0  0  0  0  0  0  0
   -5.2834   -9.5215   -7.3252 H   0  0  0  0  0  0  0  0  0  0  0  0
   -3.2508   -8.5109   -4.6342 H   0  0  0  0  0  0  0  0  0  0  0  0
    1.3203   -5.9621   -1.0810 H   0  0  0  0  0  0  0  0  0  0  0  0
    3.7036   -2.2835   -1.4901 H   0  0  0  0  0  0  0  0  0  0  0  0
  1  2  1  0
  1 30  1  0
  1 31  1  0
  1 32  1  0
  2  3  1  0
  3  4  2  0
  3 29  1  0
  4  5  1  0
  4 33  1  0
  5  6  2  0
  5 34  1  0
  6  7  1  0
  6 35  1  0
  7  8  1  0
  7 29  2  0
  8  9  1  0
  8 36  1  0
  8 37  1  0
  9 10  1  0
 10 11  2  0
 10 28  1  0
 11 12  1  0
 11 38  1  0
 12 13  2  0
 12 39  1  0
 13 14  1  0
 13 40  1  0
 14 15  1  0
 14 28  2  0
 15 16  2  0
 15 41  1  0
 16 17  1  0
 17 18  1  0
 17 42  1  0
 18 19  2  0
 18 20  1  0
 20 21  2  0
 20 27  1  0
 21 22  1  0
 21 43  1  0
 22 23  2  0
 22 44  1  0
 23 24  1  0
 23 25  1  0
 24 45  1  0
 25 26  1  0
 25 27  2  0
 26 46  1  0
 27 47  1  0
 28 48  1  0
 29 49  1  0
M  END

