
     RDKit          3D

 54 55  0  0  0  0  0  0  0  0999 V2000
    1.6300   -1.9877    1.3306 C   0  0  0  0  0  0  0  0  0  0  0  0
    3.0062   -2.0293    0.6655 C   0  0  0  0  0  0  0  0  0  0  0  0
    3.0168   -1.3893   -0.7281 C   0  0  0  0  0  0  0  0  0  0  0  0
    4.3359   -1.3975   -1.3497 N   0  0  0  0  0  0  0  0  0  0  0  0
    4.7299   -2.6639   -1.9594 C   0  0  0  0  0  0  0  0  0  0  0  0
    4.1142   -2.8848   -3.3543 C   0  0  0  0  0  0  0  0  0  0  0  0
    4.4482   -1.7524   -4.3593 C   0  0  2  0  0  0  0  0  0  0  0  0
    3.6131   -1.9580   -5.6596 C   0  0  0  0  0  0  0  0  0  0  0  0
    2.1745   -2.0873   -5.4251 N   0  0  0  0  0  0  0  0  0  0  0  0
    5.9073   -1.7279   -4.6685 N   0  0  0  0  0  0  0  0  0  0  0  0
    6.5753   -3.0067   -4.8207 C   0  0  0  0  0  0  0  0  0  0  0  0
    6.3848   -0.6441   -5.5498 C   0  0  1  0  0  0  0  0  0  0  0  0
    7.6086    0.1280   -4.9780 C   0  0  0  0  0  0  0  0  0  0  0  0
    8.9827   -0.4234   -5.4011 C   0  0  0  0  0  0  0  0  0  0  0  0
    9.1295   -0.5993   -6.8427 N   0  0  0  0  0  0  0  0  0  0  0  0
    9.3511    0.6225   -7.5905 C   0  0  0  0  0  0  0  0  0  0  0  0
    8.0839   -1.4679   -7.3718 C   0  0  0  0  0  0  0  0  0  0  0  0
    6.6480   -1.0045   -7.0463 C   0  0  0  0  0  0  0  0  0  0  0  0
    4.0101   -0.4404   -3.6536 C   0  0  0  0  0  0  0  0  0  0  0  0
    4.6245   -0.2878   -2.2523 C   0  0  0  0  0  0  0  0  0  0  0  0
    1.6507   -2.4497    2.3304 H   0  0  0  0  0  0  0  0  0  0  0  0
    0.8749   -2.5258    0.7327 H   0  0  0  0  0  0  0  0  0  0  0  0
    1.2725   -0.9510    1.4525 H   0  0  0  0  0  0  0  0  0  0  0  0
    3.3470   -3.0773    0.5952 H   0  0  0  0  0  0  0  0  0  0  0  0
    3.7536   -1.5090    1.2884 H   0  0  0  0  0  0  0  0  0  0  0  0
    2.7001   -0.3373   -0.6270 H   0  0  0  0  0  0  0  0  0  0  0  0
    2.2333   -1.8754   -1.3533 H   0  0  0  0  0  0  0  0  0  0  0  0
    4.4449   -3.4930   -1.2926 H   0  0  0  0  0  0  0  0  0  0  0  0
    5.8309   -2.6843   -2.0305 H   0  0  0  0  0  0  0  0  0  0  0  0
    3.0183   -2.8979   -3.2515 H   0  0  0  0  0  0  0  0  0  0  0  0
    4.3948   -3.8742   -3.7496 H   0  0  0  0  0  0  0  0  0  0  0  0
    4.0430   -2.8210   -6.2086 H   0  0  0  0  0  0  0  0  0  0  0  0
    3.7653   -1.0759   -6.3022 H   0  0  0  0  0  0  0  0  0  0  0  0
    1.9214   -3.0530   -5.2205 H   0  0  0  0  0  0  0  0  0  0  0  0
    1.6505   -1.8285   -6.2593 H   0  0  0  0  0  0  0  0  0  0  0  0
    6.4596   -3.6325   -3.9248 H   0  0  0  0  0  0  0  0  0  0  0  0
    7.6546   -2.8482   -4.9362 H   0  0  0  0  0  0  0  0  0  0  0  0
    6.2422   -3.6176   -5.6895 H   0  0  0  0  0  0  0  0  0  0  0  0
    5.5689    0.0867   -5.5686 H   0  0  0  0  0  0  0  0  0  0  0  0
    7.5311    0.1583   -3.8802 H   0  0  0  0  0  0  0  0  0  0  0  0
    7.5391    1.1742   -5.3263 H   0  0  0  0  0  0  0  0  0  0  0  0
    9.1683   -1.3981   -4.9157 H   0  0  0  0  0  0  0  0  0  0  0  0
    9.7807    0.2493   -5.0441 H   0  0  0  0  0  0  0  0  0  0  0  0
   10.2298    1.1506   -7.1847 H   0  0  0  0  0  0  0  0  0  0  0  0
    8.5062    1.3479   -7.5928 H   0  0  0  0  0  0  0  0  0  0  0  0
    9.5710    0.3779   -8.6429 H   0  0  0  0  0  0  0  0  0  0  0  0
    8.2545   -2.4839   -6.9777 H   0  0  0  0  0  0  0  0  0  0  0  0
    8.2065   -1.5419   -8.4655 H   0  0  0  0  0  0  0  0  0  0  0  0
    5.9263   -1.7606   -7.3931 H   0  0  0  0  0  0  0  0  0  0  0  0
    6.4401   -0.0968   -7.6399 H   0  0  0  0  0  0  0  0  0  0  0  0
    2.9109   -0.4626   -3.5905 H   0  0  0  0  0  0  0  0  0  0  0  0
    4.2580    0.4442   -4.2620 H   0  0  0  0  0  0  0  0  0  0  0  0
    4.2767    0.6487   -1.7864 H   0  0  0  0  0  0  0  0  0  0  0  0
    5.7206   -0.2078   -2.3510 H   0  0  0  0  0  0  0  0  0  0  0  0
  1  2  1  0
  1 21  1  0
  1 22  1  0
  1 23  1  0
  2  3  1  0
  2 24  1  0
  2 25  1  0
  3  4  1  0
  3 26  1  0
  3 27  1  0
  4  5  1  0
  4 20  1  0
  5  6  1  0
  5 28  1  0
  5 29  1  0
  6  7  1  0
  6 30  1  0
  6 31  1  0
  7  8  1  0
  7 10  1  6
  7 19  1  0
  8  9  1  0
  8 32  1  0
  8 33  1  0
  9 34  1  0
  9 35  1  0
 10 11  1  0
 10 12  1  0
 11 36  1  0
 11 37  1  0
 11 38  1  0
 12 13  1  0
 12 18  1  0
 12 39  1  6
 13 14  1  0
 13 40  1  0
 13 41  1  0
 14 15  1  0
 14 42  1  0
 14 43  1  0
 15 16  1  0
 15 17  1  0
 16 44  1  0
 16 45  1  0
 16 46  1  0
 17 18  1  0
 17 47  1  0
 17 48  1  0
 18 49  1  0
 18 50  1  0
 19 20  1  0
 19 51  1  0
 19 52  1  0
 20 53  1  0
 20 54  1  0
M  END

