
     RDKit          3D

 48 49  0  0  0  0  0  0  0  0999 V2000
    0.9453   -0.2032   -0.2766 C   0  0  0  0  0  0  0  0  0  0  0  0
    2.0606    0.2556   -1.2014 C   0  0  0  0  0  0  0  0  0  0  0  0
    2.7831   -0.8504   -1.7628 O   0  0  0  0  0  0  0  0  0  0  0  0
    3.7836   -1.3707   -1.0063 C   0  0  0  0  0  0  0  0  0  0  0  0
    4.0964   -0.9308    0.0828 O   0  0  0  0  0  0  0  0  0  0  0  0
    4.3824   -2.4390   -1.6181 N   0  0  0  0  0  0  0  0  0  0  0  0
    5.5176   -3.0902   -0.9683 C   0  0  0  0  0  0  0  0  0  0  0  0
    5.3144   -4.6051   -0.9071 C   0  0  0  0  0  0  0  0  0  0  0  0
    5.0122   -5.2014   -2.2975 C   0  0  2  0  0  0  0  0  0  0  0  0
    6.1797   -5.1817   -3.1710 N   0  0  0  0  0  0  0  0  0  0  0  0
    7.0533   -6.2231   -3.2486 C   0  0  0  0  0  0  0  0  0  0  0  0
    6.9636   -7.2440   -2.5861 O   0  0  0  0  0  0  0  0  0  0  0  0
    8.2198   -5.9940   -4.2295 C   0  0  1  0  0  0  0  0  0  0  0  0
    8.4866   -7.0027   -4.5976 H   0  0  0  0  0  0  0  0  0  0  0  0
    7.8238   -5.0602   -5.2860 N   0  0  0  0  0  0  0  0  0  0  0  0
    9.4536   -5.4135   -3.4937 C   0  0  0  0  0  0  0  0  0  0  0  0
   10.0717   -6.3074   -2.4424 C   0  0  0  0  0  0  0  0  0  0  0  0
   10.9376   -7.3492   -2.8116 C   0  0  0  0  0  0  0  0  0  0  0  0
   11.5108   -8.1834   -1.8493 C   0  0  0  0  0  0  0  0  0  0  0  0
   11.2303   -7.9857   -0.4938 C   0  0  0  0  0  0  0  0  0  0  0  0
   10.3745   -6.9493   -0.1117 C   0  0  0  0  0  0  0  0  0  0  0  0
    9.8016   -6.1195   -1.0791 C   0  0  0  0  0  0  0  0  0  0  0  0
    3.8359   -4.4479   -2.9392 C   0  0  0  0  0  0  0  0  0  0  0  0
    4.0458   -2.9273   -2.9506 C   0  0  0  0  0  0  0  0  0  0  0  0
    0.3655    0.6660    0.0739 H   0  0  0  0  0  0  0  0  0  0  0  0
    1.3607   -0.7150    0.6040 H   0  0  0  0  0  0  0  0  0  0  0  0
    0.2571   -0.8884   -0.7964 H   0  0  0  0  0  0  0  0  0  0  0  0
    2.7655    0.9094   -0.6671 H   0  0  0  0  0  0  0  0  0  0  0  0
    1.6591    0.7961   -2.0716 H   0  0  0  0  0  0  0  0  0  0  0  0
    5.6247   -2.6542    0.0320 H   0  0  0  0  0  0  0  0  0  0  0  0
    6.4427   -2.8600   -1.5329 H   0  0  0  0  0  0  0  0  0  0  0  0
    4.4697   -4.8305   -0.2339 H   0  0  0  0  0  0  0  0  0  0  0  0
    6.2063   -5.0954   -0.4868 H   0  0  0  0  0  0  0  0  0  0  0  0
    4.7520   -6.2629   -2.1677 H   0  0  0  0  0  0  0  0  0  0  0  0
    6.3520   -4.4225   -3.8263 H   0  0  0  0  0  0  0  0  0  0  0  0
    7.2018   -5.5145   -5.9551 H   0  0  0  0  0  0  0  0  0  0  0  0
    8.6371   -4.7409   -5.8120 H   0  0  0  0  0  0  0  0  0  0  0  0
    9.1663   -4.4450   -3.0532 H   0  0  0  0  0  0  0  0  0  0  0  0
   10.2120   -5.1946   -4.2668 H   0  0  0  0  0  0  0  0  0  0  0  0
   11.1696   -7.5081   -3.8694 H   0  0  0  0  0  0  0  0  0  0  0  0
   12.1827   -8.9885   -2.1583 H   0  0  0  0  0  0  0  0  0  0  0  0
   11.6793   -8.6356    0.2616 H   0  0  0  0  0  0  0  0  0  0  0  0
   10.1501   -6.7853    0.9455 H   0  0  0  0  0  0  0  0  0  0  0  0
    9.1333   -5.3110   -0.7698 H   0  0  0  0  0  0  0  0  0  0  0  0
    2.9239   -4.6715   -2.3616 H   0  0  0  0  0  0  0  0  0  0  0  0
    3.6691   -4.8093   -3.9673 H   0  0  0  0  0  0  0  0  0  0  0  0
    3.1433   -2.4151   -3.2995 H   0  0  0  0  0  0  0  0  0  0  0  0
    4.8591   -2.6579   -3.6558 H   0  0  0  0  0  0  0  0  0  0  0  0
  1  2  1  0
  1 25  1  0
  1 26  1  0
  1 27  1  0
  2  3  1  0
  2 28  1  0
  2 29  1  0
  3  4  1  0
  4  5  2  0
  4  6  1  0
  6  7  1  0
  6 24  1  0
  7  8  1  0
  7 30  1  0
  7 31  1  0
  8  9  1  0
  8 32  1  0
  8 33  1  0
  9 10  1  0
  9 23  1  0
  9 34  1  1
 10 11  1  0
 10 35  1  0
 11 12  2  0
 11 13  1  0
 13 14  1  6
 13 15  1  0
 13 16  1  0
 15 36  1  0
 15 37  1  0
 16 17  1  0
 16 38  1  0
 16 39  1  0
 17 18  2  0
 17 22  1  0
 18 19  1  0
 18 40  1  0
 19 20  2  0
 19 41  1  0
 20 21  1  0
 20 42  1  0
 21 22  2  0
 21 43  1  0
 22 44  1  0
 23 24  1  0
 23 45  1  0
 23 46  1  0
 24 47  1  0
 24 48  1  0
M  END

