
     RDKit          3D

 21 22  0  0  0  0  0  0  0  0999 V2000
    5.8517    1.3020   -0.3087 O   0  0  0  0  0  0  0  0  0  0  0  0
    4.8843    0.7766    0.1824 C   0  0  0  0  0  0  0  0  0  0  0  0
    4.8577   -0.4552    1.0482 C   0  0  0  0  0  0  0  0  0  0  0  0
    3.5885   -0.7295    1.3705 C   0  0  0  0  0  0  0  0  0  0  0  0
    2.7047    0.2942    0.7214 C   0  0  0  0  0  0  0  0  0  0  0  0
    1.4916    0.3285    0.7276 O   0  0  0  0  0  0  0  0  0  0  0  0
    3.5432    1.1955    0.0616 N   0  0  0  0  0  0  0  0  0  0  0  0
    3.0469    2.3401   -0.6808 C   0  0  1  0  0  0  0  0  0  0  0  0
    2.2114    1.9936   -1.9135 C   0  0  0  0  0  0  0  0  0  0  0  0
    0.8463    1.8100   -1.6419 O   0  0  0  0  0  0  0  0  0  0  0  0
    2.6129    3.5481    0.1215 C   0  0  0  0  0  0  0  0  0  0  0  0
    3.8887    3.5938   -0.6683 C   0  0  0  0  0  0  0  0  0  0  0  0
    5.7723   -0.9835    1.3160 H   0  0  0  0  0  0  0  0  0  0  0  0
    3.1819   -1.5440    1.9692 H   0  0  0  0  0  0  0  0  0  0  0  0
    2.6693    1.1079   -2.4033 H   0  0  0  0  0  0  0  0  0  0  0  0
    2.2824    2.8240   -2.6343 H   0  0  0  0  0  0  0  0  0  0  0  0
    0.7741    1.2588   -0.8439 H   0  0  0  0  0  0  0  0  0  0  0  0
    2.6872    3.4856    1.2102 H   0  0  0  0  0  0  0  0  0  0  0  0
    1.7289    4.0753   -0.2452 H   0  0  0  0  0  0  0  0  0  0  0  0
    4.8393    3.5663   -0.1344 H   0  0  0  0  0  0  0  0  0  0  0  0
    3.9169    4.1708   -1.5965 H   0  0  0  0  0  0  0  0  0  0  0  0
  1  2  2  0
  2  3  1  0
  2  7  1  0
  3  4  2  0
  3 13  1  0
  4  5  1  0
  4 14  1  0
  5  6  2  0
  5  7  1  0
  7  8  1  0
  8  9  1  6
  8 11  1  0
  8 12  1  0
  9 10  1  0
  9 15  1  0
  9 16  1  0
 10 17  1  0
 11 12  1  0
 11 18  1  0
 11 19  1  0
 12 20  1  0
 12 21  1  0
M  END

