
     RDKit          3D

 28 29  0  0  0  0  0  0  0  0999 V2000
    2.7900    1.4295    0.2514 O   0  0  0  0  0  0  0  0  0  0  0  0
    2.7206    0.2177    0.2003 C   0  0  0  0  0  0  0  0  0  0  0  0
    3.2579   -0.4867   -1.0502 C   0  0  0  0  0  0  0  0  0  0  0  0
    2.3348   -1.4509   -1.5124 O   0  0  0  0  0  0  0  0  0  0  0  0
    2.6036   -2.1428   -2.6543 C   0  0  0  0  0  0  0  0  0  0  0  0
    3.7674   -1.9820   -3.4214 C   0  0  0  0  0  0  0  0  0  0  0  0
    3.9364   -2.7551   -4.5773 C   0  0  0  0  0  0  0  0  0  0  0  0
    2.9746   -3.6793   -4.9822 C   0  0  0  0  0  0  0  0  0  0  0  0
    1.8269   -3.8147   -4.1982 C   0  0  0  0  0  0  0  0  0  0  0  0
    0.8878   -4.6963   -4.5682 F   0  0  0  0  0  0  0  0  0  0  0  0
    1.6216   -3.0677   -3.0464 C   0  0  0  0  0  0  0  0  0  0  0  0
    2.1853   -0.5804    1.3476 C   0  0  0  0  0  0  0  0  0  0  0  0
    2.2381   -1.9834    1.4133 C   0  0  0  0  0  0  0  0  0  0  0  0
    1.7575   -2.6623    2.5350 C   0  0  0  0  0  0  0  0  0  0  0  0
    1.2101   -1.9349    3.5965 C   0  0  0  0  0  0  0  0  0  0  0  0
    0.4699   -2.9630    5.2999 I   0  0  0  0  0  0  0  0  0  0  0  0
    1.1437   -0.5363    3.5500 C   0  0  0  0  0  0  0  0  0  0  0  0
    1.6344    0.1295    2.4297 C   0  0  0  0  0  0  0  0  0  0  0  0
    4.2320   -0.9566   -0.8048 H   0  0  0  0  0  0  0  0  0  0  0  0
    3.4346    0.3001   -1.8015 H   0  0  0  0  0  0  0  0  0  0  0  0
    4.5385   -1.2672   -3.1362 H   0  0  0  0  0  0  0  0  0  0  0  0
    4.8434   -2.6275   -5.1733 H   0  0  0  0  0  0  0  0  0  0  0  0
    3.0923   -4.2876   -5.8800 H   0  0  0  0  0  0  0  0  0  0  0  0
    0.7139   -3.1909   -2.4550 H   0  0  0  0  0  0  0  0  0  0  0  0
    2.6470   -2.5608    0.5842 H   0  0  0  0  0  0  0  0  0  0  0  0
    1.8074   -3.7516    2.5755 H   0  0  0  0  0  0  0  0  0  0  0  0
    0.7157    0.0275    4.3806 H   0  0  0  0  0  0  0  0  0  0  0  0
    1.6041    1.2194    2.3724 H   0  0  0  0  0  0  0  0  0  0  0  0
  1  2  2  0
  2  3  1  0
  2 12  1  0
  3  4  1  0
  3 19  1  0
  3 20  1  0
  4  5  1  0
  5  6  2  0
  5 11  1  0
  6  7  1  0
  6 21  1  0
  7  8  2  0
  7 22  1  0
  8  9  1  0
  8 23  1  0
  9 10  1  0
  9 11  2  0
 11 24  1  0
 12 13  2  0
 12 18  1  0
 13 14  1  0
 13 25  1  0
 14 15  2  0
 14 26  1  0
 15 16  1  0
 15 17  1  0
 17 18  2  0
 17 27  1  0
 18 28  1  0
M  END

