
     RDKit          3D

 39 40  0  0  0  0  0  0  0  0999 V2000
    3.3197    1.3676    0.7218 C   0  0  0  0  0  0  0  0  0  0  0  0
    2.5653    0.5070   -0.2862 C   0  0  0  0  0  0  0  0  0  0  0  0
    2.7637   -0.9326   -0.0882 N   0  0  0  0  0  0  0  0  0  0  0  0
    1.7727   -1.7733   -0.7802 C   0  0  0  0  0  0  0  0  0  0  0  0
    0.4281   -1.8660   -0.0149 C   0  0  1  0  0  0  0  0  0  0  0  0
   -0.6545   -2.5930   -0.8367 C   0  0  0  0  0  0  0  0  0  0  0  0
   -0.4720   -4.1175   -0.8463 C   0  0  0  0  0  0  0  0  0  0  0  0
   -0.3410   -4.6509    0.5852 C   0  0  0  0  0  0  0  0  0  0  0  0
    0.7720   -3.9112    1.3293 C   0  0  0  0  0  0  0  0  0  0  0  0
    0.5250   -2.4745    1.3073 N   0  0  0  0  0  0  0  0  0  0  0  0
    4.1133   -1.3767   -0.2334 C   0  0  0  0  0  0  0  0  0  0  0  0
    4.8408   -1.2178   -1.4238 C   0  0  0  0  0  0  0  0  0  0  0  0
    6.1520   -1.6787   -1.5450 C   0  0  0  0  0  0  0  0  0  0  0  0
    6.7502   -2.3127   -0.4561 C   0  0  0  0  0  0  0  0  0  0  0  0
    8.0066   -2.7586   -0.5681 F   0  0  0  0  0  0  0  0  0  0  0  0
    6.0739   -2.4906    0.7438 C   0  0  0  0  0  0  0  0  0  0  0  0
    4.7540   -2.0152    0.8547 C   0  0  0  0  0  0  0  0  0  0  0  0
    4.0502   -2.1719    2.0979 C   0  0  0  0  0  0  0  0  0  0  0  0
    3.5091   -2.3095    3.1159 N   0  0  0  0  0  0  0  0  0  0  0  0
    3.0966    2.4330    0.5534 H   0  0  0  0  0  0  0  0  0  0  0  0
    4.4103    1.2400    0.6353 H   0  0  0  0  0  0  0  0  0  0  0  0
    3.0284    1.1093    1.7517 H   0  0  0  0  0  0  0  0  0  0  0  0
    2.8305    0.8167   -1.3224 H   0  0  0  0  0  0  0  0  0  0  0  0
    1.4866    0.7011   -0.1849 H   0  0  0  0  0  0  0  0  0  0  0  0
    2.2027   -2.7794   -0.8918 H   0  0  0  0  0  0  0  0  0  0  0  0
    1.5857   -1.3986   -1.8106 H   0  0  0  0  0  0  0  0  0  0  0  0
    0.0752   -0.8306    0.1377 H   0  0  0  0  0  0  0  0  0  0  0  0
   -0.6789   -2.1950   -1.8654 H   0  0  0  0  0  0  0  0  0  0  0  0
   -1.6309   -2.3586   -0.3807 H   0  0  0  0  0  0  0  0  0  0  0  0
    0.4311   -4.3905   -1.4228 H   0  0  0  0  0  0  0  0  0  0  0  0
   -1.3201   -4.5942   -1.3659 H   0  0  0  0  0  0  0  0  0  0  0  0
   -0.1399   -5.7354    0.5828 H   0  0  0  0  0  0  0  0  0  0  0  0
   -1.2924   -4.4944    1.1234 H   0  0  0  0  0  0  0  0  0  0  0  0
    1.7508   -4.2039    0.8819 H   0  0  0  0  0  0  0  0  0  0  0  0
    0.8149   -4.2331    2.3820 H   0  0  0  0  0  0  0  0  0  0  0  0
    1.2119   -1.9848    1.8769 H   0  0  0  0  0  0  0  0  0  0  0  0
    4.3660   -0.7267   -2.2759 H   0  0  0  0  0  0  0  0  0  0  0  0
    6.7182   -1.5598   -2.4710 H   0  0  0  0  0  0  0  0  0  0  0  0
    6.5687   -2.9852    1.5804 H   0  0  0  0  0  0  0  0  0  0  0  0
  1  2  1  0
  1 20  1  0
  1 21  1  0
  1 22  1  0
  2  3  1  0
  2 23  1  0
  2 24  1  0
  3  4  1  0
  3 11  1  0
  4  5  1  0
  4 25  1  0
  4 26  1  0
  5  6  1  0
  5 10  1  0
  5 27  1  1
  6  7  1  0
  6 28  1  0
  6 29  1  0
  7  8  1  0
  7 30  1  0
  7 31  1  0
  8  9  1  0
  8 32  1  0
  8 33  1  0
  9 10  1  0
  9 34  1  0
  9 35  1  0
 10 36  1  0
 11 12  2  0
 11 17  1  0
 12 13  1  0
 12 37  1  0
 13 14  2  0
 13 38  1  0
 14 15  1  0
 14 16  1  0
 16 17  2  0
 16 39  1  0
 17 18  1  0
 18 19  3  0
M  END

