
     RDKit          3D

 37 38  0  0  0  0  0  0  0  0999 V2000
    2.8591    1.0899   -0.7488 C   0  0  0  0  0  0  0  0  0  0  0  0
    2.5716   -0.1688   -0.1811 O   0  0  0  0  0  0  0  0  0  0  0  0
    3.2973   -0.6028    0.8866 C   0  0  0  0  0  0  0  0  0  0  0  0
    4.3398    0.1058    1.4898 C   0  0  0  0  0  0  0  0  0  0  0  0
    5.0296   -0.4425    2.5738 C   0  0  0  0  0  0  0  0  0  0  0  0
    4.6838   -1.7075    3.0658 C   0  0  0  0  0  0  0  0  0  0  0  0
    5.4608   -2.2524    4.2236 C   0  0  0  0  0  0  0  0  0  0  0  0
    6.4002   -1.6346    4.6962 O   0  0  0  0  0  0  0  0  0  0  0  0
    5.0518   -3.6017    4.8003 C   0  0  0  0  0  0  0  0  0  0  0  0
    5.8954   -4.0264    5.9946 C   0  0  0  0  0  0  0  0  0  0  0  0
    5.7060   -5.5027    6.3363 C   0  0  0  0  0  0  0  0  0  0  0  0
    5.3723   -6.3342    5.5093 O   0  0  0  0  0  0  0  0  0  0  0  0
    5.9849   -5.8311    7.6383 N   0  0  0  0  0  0  0  0  0  0  0  0
    5.8537   -7.1644    8.1451 C   0  0  1  0  0  0  0  0  0  0  0  0
    6.8838   -8.1989    7.7798 C   0  0  0  0  0  0  0  0  0  0  0  0
    6.8483   -7.6324    9.1758 C   0  0  0  0  0  0  0  0  0  0  0  0
    3.6315   -2.4169    2.4533 C   0  0  0  0  0  0  0  0  0  0  0  0
    2.9248   -1.8883    1.3685 C   0  0  0  0  0  0  0  0  0  0  0  0
    1.8547   -2.5401    0.7783 N   0  0  0  0  0  0  0  0  0  0  0  0
    2.1575    1.2267   -1.5826 H   0  0  0  0  0  0  0  0  0  0  0  0
    3.8924    1.1375   -1.1369 H   0  0  0  0  0  0  0  0  0  0  0  0
    2.7148    1.9080   -0.0209 H   0  0  0  0  0  0  0  0  0  0  0  0
    4.6234    1.0898    1.1153 H   0  0  0  0  0  0  0  0  0  0  0  0
    5.8473    0.0983    3.0520 H   0  0  0  0  0  0  0  0  0  0  0  0
    5.1272   -4.3762    4.0184 H   0  0  0  0  0  0  0  0  0  0  0  0
    3.9812   -3.5686    5.0670 H   0  0  0  0  0  0  0  0  0  0  0  0
    5.6930   -3.3876    6.8698 H   0  0  0  0  0  0  0  0  0  0  0  0
    6.9614   -3.8665    5.7587 H   0  0  0  0  0  0  0  0  0  0  0  0
    6.1432   -5.0810    8.3013 H   0  0  0  0  0  0  0  0  0  0  0  0
    4.8209   -7.5219    8.2465 H   0  0  0  0  0  0  0  0  0  0  0  0
    7.6926   -7.8798    7.1182 H   0  0  0  0  0  0  0  0  0  0  0  0
    6.5373   -9.2224    7.6150 H   0  0  0  0  0  0  0  0  0  0  0  0
    7.6433   -6.9365    9.4614 H   0  0  0  0  0  0  0  0  0  0  0  0
    6.4817   -8.2576    9.9944 H   0  0  0  0  0  0  0  0  0  0  0  0
    3.3443   -3.4056    2.8168 H   0  0  0  0  0  0  0  0  0  0  0  0
    1.8239   -3.5470    0.8838 H   0  0  0  0  0  0  0  0  0  0  0  0
    1.6053   -2.2090   -0.1464 H   0  0  0  0  0  0  0  0  0  0  0  0
  1  2  1  0
  1 20  1  0
  1 21  1  0
  1 22  1  0
  2  3  1  0
  3  4  2  0
  3 18  1  0
  4  5  1  0
  4 23  1  0
  5  6  2  0
  5 24  1  0
  6  7  1  0
  6 17  1  0
  7  8  2  0
  7  9  1  0
  9 10  1  0
  9 25  1  0
  9 26  1  0
 10 11  1  0
 10 27  1  0
 10 28  1  0
 11 12  2  0
 11 13  1  0
 13 14  1  0
 13 29  1  0
 14 15  1  0
 14 16  1  0
 14 30  1  1
 15 16  1  0
 15 31  1  0
 15 32  1  0
 16 33  1  0
 16 34  1  0
 17 18  2  0
 17 35  1  0
 18 19  1  0
 19 36  1  0
 19 37  1  0
M  END

