
     RDKit          3D

136143  0  0  0  0  0  0  0  0999 V2000
   22.3448   -3.0047   14.4681 C   0  0  0  0  0  0  0  0  0  0  0  0
   21.1748   -2.8129   13.5020 C   0  0  0  0  0  0  0  0  0  0  0  0
   20.7614   -4.0970   12.7761 C   0  0  0  0  0  0  0  0  0  0  0  0
   19.5898   -3.9137   11.8071 C   0  0  0  0  0  0  0  0  0  0  0  0
   19.1777   -5.1978   11.0811 C   0  0  0  0  0  0  0  0  0  0  0  0
   18.0048   -5.0139   10.1134 C   0  0  0  0  0  0  0  0  0  0  0  0
   17.5966   -6.2987    9.3874 C   0  0  0  0  0  0  0  0  0  0  0  0
   16.4155   -6.1068    8.4178 C   0  0  0  0  0  0  0  0  0  0  0  0
   16.0145   -7.3749    7.6989 C   0  0  0  0  0  0  0  0  0  0  0  0
   15.0671   -8.2539    8.2477 C   0  0  0  0  0  0  0  0  0  0  0  0
   14.7241   -9.4441    7.6065 C   0  0  0  0  0  0  0  0  0  0  0  0
   15.3202   -9.8106    6.3848 C   0  0  0  0  0  0  0  0  0  0  0  0
   14.9579  -11.0748    5.6973 C   0  0  0  0  0  0  0  0  0  0  0  0
   13.6439  -11.5846    5.7422 C   0  0  0  0  0  0  0  0  0  0  0  0
   13.2902  -12.7597    5.0875 C   0  0  0  0  0  0  0  0  0  0  0  0
   14.2454  -13.4946    4.3488 C   0  0  0  0  0  0  0  0  0  0  0  0
   13.9851  -14.7242    3.6074 C   0  0  0  0  0  0  0  0  0  0  0  0
   12.8245  -15.3660    3.2761 C   0  0  0  0  0  0  0  0  0  0  0  0
   11.5351  -14.8358    3.6210 C   0  0  0  0  0  0  0  0  0  0  0  0
   10.4720  -14.4363    3.8702 N   0  0  0  0  0  0  0  0  0  0  0  0
   12.8074  -16.6279    2.4863 C   0  0  0  0  0  0  0  0  0  0  0  0
   13.8770  -17.5423    2.5263 C   0  0  0  0  0  0  0  0  0  0  0  0
   13.8702  -18.6899    1.7359 C   0  0  0  0  0  0  0  0  0  0  0  0
   12.8016  -18.9716    0.8666 C   0  0  0  0  0  0  0  0  0  0  0  0
   12.7440  -20.2407    0.0832 C   0  0  0  0  0  0  0  0  0  0  0  0
   12.8315  -21.4216    0.8123 C   0  0  0  0  0  0  0  0  0  0  0  0
   12.5804  -22.6849    0.2350 C   0  0  0  0  0  0  0  0  0  0  0  0
   12.1791  -22.7600   -1.0782 C   0  0  0  0  0  0  0  0  0  0  0  0
   12.0977  -21.5894   -1.8821 C   0  0  0  0  0  0  0  0  0  0  0  0
   11.6528  -21.6918   -3.2293 C   0  0  0  0  0  0  0  0  0  0  0  0
   11.5905  -20.5799   -4.0359 C   0  0  0  0  0  0  0  0  0  0  0  0
   12.0542  -19.3403   -3.5453 C   0  0  0  0  0  0  0  0  0  0  0  0
   12.5236  -19.1841   -2.2457 C   0  0  0  0  0  0  0  0  0  0  0  0
   13.1989  -17.8896   -1.9355 C   0  0  0  0  0  0  0  0  0  0  0  0
   12.5622  -16.6552   -2.1543 C   0  0  0  0  0  0  0  0  0  0  0  0
   13.2281  -15.4498   -1.9415 C   0  0  0  0  0  0  0  0  0  0  0  0
   14.5669  -15.4280   -1.5069 C   0  0  0  0  0  0  0  0  0  0  0  0
   15.2753  -14.1516   -1.2141 C   0  0  0  0  0  0  0  0  0  0  0  0
   16.7031  -14.1889   -1.3647 C   0  0  0  0  0  0  0  0  0  0  0  0
   17.8566  -14.2659   -1.4891 N   0  0  0  0  0  0  0  0  0  0  0  0
   14.6204  -13.0334   -0.7792 C   0  0  0  0  0  0  0  0  0  0  0  0
   15.0943  -11.7001   -0.4223 C   0  0  0  0  0  0  0  0  0  0  0  0
   16.3943  -11.1977   -0.6583 C   0  0  0  0  0  0  0  0  0  0  0  0
   16.7474   -9.9139   -0.2561 C   0  0  0  0  0  0  0  0  0  0  0  0
   15.8354   -9.0638    0.4025 C   0  0  0  0  0  0  0  0  0  0  0  0
   16.2285   -7.7026    0.8439 C   0  0  0  0  0  0  0  0  0  0  0  0
   17.1274   -6.9205    0.0940 C   0  0  0  0  0  0  0  0  0  0  0  0
   17.4954   -5.6424    0.5143 C   0  0  0  0  0  0  0  0  0  0  0  0
   16.9886   -5.0895    1.7012 C   0  0  0  0  0  0  0  0  0  0  0  0
   17.3561   -3.6876    2.1317 C   0  0  0  0  0  0  0  0  0  0  0  0
   16.4069   -2.6078    1.5796 C   0  0  0  0  0  0  0  0  0  0  0  0
   16.7784   -1.1880    2.0160 C   0  0  0  0  0  0  0  0  0  0  0  0
   15.8381   -0.1088    1.4711 C   0  0  0  0  0  0  0  0  0  0  0  0
   16.2073    1.3126    1.9060 C   0  0  0  0  0  0  0  0  0  0  0  0
   15.2674    2.3923    1.3620 C   0  0  0  0  0  0  0  0  0  0  0  0
   15.6362    3.8144    1.7963 C   0  0  0  0  0  0  0  0  0  0  0  0
   14.6926    4.8863    1.2489 C   0  0  0  0  0  0  0  0  0  0  0  0
   16.0960   -5.8709    2.4523 C   0  0  0  0  0  0  0  0  0  0  0  0
   15.7209   -7.1480    2.0345 C   0  0  0  0  0  0  0  0  0  0  0  0
   14.5358   -9.5586    0.6266 C   0  0  0  0  0  0  0  0  0  0  0  0
   14.1757  -10.8379    0.2192 C   0  0  0  0  0  0  0  0  0  0  0  0
   15.2199  -16.6638   -1.3382 C   0  0  0  0  0  0  0  0  0  0  0  0
   14.5468  -17.8660   -1.5381 C   0  0  0  0  0  0  0  0  0  0  0  0
   12.4645  -20.3048   -1.3340 C   0  0  0  0  0  0  0  0  0  0  0  0
   11.7172  -18.0774    0.8564 C   0  0  0  0  0  0  0  0  0  0  0  0
   11.7141  -16.9369    1.6548 C   0  0  0  0  0  0  0  0  0  0  0  0
   15.5665  -12.9918    4.3224 C   0  0  0  0  0  0  0  0  0  0  0  0
   15.9135  -11.8129    4.9720 C   0  0  0  0  0  0  0  0  0  0  0  0
   16.2698   -8.9284    5.8343 C   0  0  0  0  0  0  0  0  0  0  0  0
   16.6058   -7.7373    6.4780 C   0  0  0  0  0  0  0  0  0  0  0  0
   22.6143   -2.0624   14.9714 H   0  0  0  0  0  0  0  0  0  0  0  0
   23.2433   -3.3695   13.9424 H   0  0  0  0  0  0  0  0  0  0  0  0
   22.1012   -3.7421   15.2514 H   0  0  0  0  0  0  0  0  0  0  0  0
   21.4364   -2.0420   12.7541 H   0  0  0  0  0  0  0  0  0  0  0  0
   20.3042   -2.4112   14.0520 H   0  0  0  0  0  0  0  0  0  0  0  0
   20.4996   -4.8694   13.5235 H   0  0  0  0  0  0  0  0  0  0  0  0
   21.6318   -4.4996   12.2246 H   0  0  0  0  0  0  0  0  0  0  0  0
   19.8517   -3.1409   11.0605 H   0  0  0  0  0  0  0  0  0  0  0  0
   18.7196   -3.5118   12.3591 H   0  0  0  0  0  0  0  0  0  0  0  0
   18.9164   -5.9712   11.8271 H   0  0  0  0  0  0  0  0  0  0  0  0
   20.0470   -5.5993   10.5278 H   0  0  0  0  0  0  0  0  0  0  0  0
   18.2647   -4.2398    9.3673 H   0  0  0  0  0  0  0  0  0  0  0  0
   17.1342   -4.6144   10.6662 H   0  0  0  0  0  0  0  0  0  0  0  0
   17.3328   -7.0757   10.1272 H   0  0  0  0  0  0  0  0  0  0  0  0
   18.4606   -6.6998    8.8278 H   0  0  0  0  0  0  0  0  0  0  0  0
   16.6827   -5.3332    7.6773 H   0  0  0  0  0  0  0  0  0  0  0  0
   15.5510   -5.7129    8.9797 H   0  0  0  0  0  0  0  0  0  0  0  0
   14.5892   -8.0027    9.1994 H   0  0  0  0  0  0  0  0  0  0  0  0
   13.9970  -10.1114    8.0748 H   0  0  0  0  0  0  0  0  0  0  0  0
   12.8717  -11.0324    6.2822 H   0  0  0  0  0  0  0  0  0  0  0  0
   12.2577  -13.1003    5.1491 H   0  0  0  0  0  0  0  0  0  0  0  0
   14.8918  -15.1919    3.2137 H   0  0  0  0  0  0  0  0  0  0  0  0
   14.7206  -17.3667    3.1973 H   0  0  0  0  0  0  0  0  0  0  0  0
   14.7170  -19.3789    1.7858 H   0  0  0  0  0  0  0  0  0  0  0  0
   13.0368  -21.3595    1.8836 H   0  0  0  0  0  0  0  0  0  0  0  0
   12.6540  -23.5861    0.8485 H   0  0  0  0  0  0  0  0  0  0  0  0
   11.9144  -23.7207   -1.5276 H   0  0  0  0  0  0  0  0  0  0  0  0
   11.3624  -22.6748   -3.6093 H   0  0  0  0  0  0  0  0  0  0  0  0
   11.2374  -20.6574   -5.0671 H   0  0  0  0  0  0  0  0  0  0  0  0
   12.1102  -18.4878   -4.2263 H   0  0  0  0  0  0  0  0  0  0  0  0
   11.5217  -16.6400   -2.4882 H   0  0  0  0  0  0  0  0  0  0  0  0
   12.7016  -14.5126   -2.1345 H   0  0  0  0  0  0  0  0  0  0  0  0
   13.5453  -13.1654   -0.6286 H   0  0  0  0  0  0  0  0  0  0  0  0
   17.1433  -11.8135   -1.1540 H   0  0  0  0  0  0  0  0  0  0  0  0
   17.7688   -9.5707   -0.4346 H   0  0  0  0  0  0  0  0  0  0  0  0
   17.5281   -7.3087   -0.8453 H   0  0  0  0  0  0  0  0  0  0  0  0
   18.1913   -5.0589   -0.0959 H   0  0  0  0  0  0  0  0  0  0  0  0
   18.3858   -3.4603    1.8057 H   0  0  0  0  0  0  0  0  0  0  0  0
   17.3601   -3.6306    3.2340 H   0  0  0  0  0  0  0  0  0  0  0  0
   15.3749   -2.8370    1.9004 H   0  0  0  0  0  0  0  0  0  0  0  0
   16.3970   -2.6666    0.4764 H   0  0  0  0  0  0  0  0  0  0  0  0
   17.8136   -0.9665    1.6955 H   0  0  0  0  0  0  0  0  0  0  0  0
   16.7914   -1.1372    3.1209 H   0  0  0  0  0  0  0  0  0  0  0  0
   14.8034   -0.3314    1.7918 H   0  0  0  0  0  0  0  0  0  0  0  0
   15.8252   -0.1607    0.3665 H   0  0  0  0  0  0  0  0  0  0  0  0
   17.2423    1.5347    1.5850 H   0  0  0  0  0  0  0  0  0  0  0  0
   16.2207    1.3639    3.0109 H   0  0  0  0  0  0  0  0  0  0  0  0
   14.2322    2.1707    1.6830 H   0  0  0  0  0  0  0  0  0  0  0  0
   15.2536    2.3413    0.2570 H   0  0  0  0  0  0  0  0  0  0  0  0
   16.6707    4.0345    1.4751 H   0  0  0  0  0  0  0  0  0  0  0  0
   15.6500    3.8639    2.9005 H   0  0  0  0  0  0  0  0  0  0  0  0
   14.6849    4.8885    0.1459 H   0  0  0  0  0  0  0  0  0  0  0  0
   14.9876    5.8946    1.5809 H   0  0  0  0  0  0  0  0  0  0  0  0
   13.6554    4.7163    1.5836 H   0  0  0  0  0  0  0  0  0  0  0  0
   15.6944   -5.4782    3.3912 H   0  0  0  0  0  0  0  0  0  0  0  0
   15.0461   -7.7356    2.6613 H   0  0  0  0  0  0  0  0  0  0  0  0
   13.7895   -8.9222    1.1067 H   0  0  0  0  0  0  0  0  0  0  0  0
   13.1564  -11.1887    0.4021 H   0  0  0  0  0  0  0  0  0  0  0  0
   16.2689  -16.6828   -1.0341 H   0  0  0  0  0  0  0  0  0  0  0  0
   15.0797  -18.8085   -1.3932 H   0  0  0  0  0  0  0  0  0  0  0  0
   10.8561  -18.2862    0.2177 H   0  0  0  0  0  0  0  0  0  0  0  0
   10.8524  -16.2663    1.6249 H   0  0  0  0  0  0  0  0  0  0  0  0
   16.3345  -13.5446    3.7744 H   0  0  0  0  0  0  0  0  0  0  0  0
   16.9495  -11.4698    4.9364 H   0  0  0  0  0  0  0  0  0  0  0  0
   16.7311   -9.1611    4.8718 H   0  0  0  0  0  0  0  0  0  0  0  0
   17.3361   -7.0681    6.0133 H   0  0  0  0  0  0  0  0  0  0  0  0
  1  2  1  0
  1 71  1  0
  1 72  1  0
  1 73  1  0
  2  3  1  0
  2 74  1  0
  2 75  1  0
  3  4  1  0
  3 76  1  0
  3 77  1  0
  4  5  1  0
  4 78  1  0
  4 79  1  0
  5  6  1  0
  5 80  1  0
  5 81  1  0
  6  7  1  0
  6 82  1  0
  6 83  1  0
  7  8  1  0
  7 84  1  0
  7 85  1  0
  8  9  1  0
  8 86  1  0
  8 87  1  0
  9 10  2  0
  9 70  1  0
 10 11  1  0
 10 88  1  0
 11 12  2  0
 11 89  1  0
 12 13  1  0
 12 69  1  0
 13 14  2  0
 13 68  1  0
 14 15  1  0
 14 90  1  0
 15 16  2  0
 15 91  1  0
 16 17  1  0
 16 67  1  0
 17 18  2  0
 17 92  1  0
 18 19  1  0
 18 21  1  0
 19 20  3  0
 21 22  2  0
 21 66  1  0
 22 23  1  0
 22 93  1  0
 23 24  2  0
 23 94  1  0
 24 25  1  0
 24 65  1  0
 25 26  2  0
 25 64  1  0
 26 27  1  0
 26 95  1  0
 27 28  2  0
 27 96  1  0
 28 29  1  0
 28 97  1  0
 29 30  1  0
 29 64  2  0
 30 31  2  0
 30 98  1  0
 31 32  1  0
 31 99  1  0
 32 33  2  0
 32100  1  0
 33 34  1  0
 33 64  1  0
 34 35  2  0
 34 63  1  0
 35 36  1  0
 35101  1  0
 36 37  2  0
 36102  1  0
 37 38  1  0
 37 62  1  0
 38 39  1  0
 38 41  2  0
 39 40  3  0
 41 42  1  0
 41103  1  0
 42 43  2  0
 42 61  1  0
 43 44  1  0
 43104  1  0
 44 45  2  0
 44105  1  0
 45 46  1  0
 45 60  1  0
 46 47  2  0
 46 59  1  0
 47 48  1  0
 47106  1  0
 48 49  2  0
 48107  1  0
 49 50  1  0
 49 58  1  0
 50 51  1  0
 50108  1  0
 50109  1  0
 51 52  1  0
 51110  1  0
 51111  1  0
 52 53  1  0
 52112  1  0
 52113  1  0
 53 54  1  0
 53114  1  0
 53115  1  0
 54 55  1  0
 54116  1  0
 54117  1  0
 55 56  1  0
 55118  1  0
 55119  1  0
 56 57  1  0
 56120  1  0
 56121  1  0
 57122  1  0
 57123  1  0
 57124  1  0
 58 59  2  0
 58125  1  0
 59126  1  0
 60 61  2  0
 60127  1  0
 61128  1  0
 62 63  2  0
 62129  1  0
 63130  1  0
 65 66  2  0
 65131  1  0
 66132  1  0
 67 68  2  0
 67133  1  0
 68134  1  0
 69 70  2  0
 69135  1  0
 70136  1  0
M  END

