
     RDKit          3D

 40 41  0  0  0  0  0  0  0  0999 V2000
    2.7000    1.7947    0.1893 C   0  0  0  0  0  0  0  0  0  0  0  0
    2.5441    0.2873   -0.0660 C   0  0  0  0  0  0  0  0  0  0  0  0
    3.0681   -0.5702    1.0664 C   0  0  0  0  0  0  0  0  0  0  0  0
    2.2423   -0.9360    2.1413 C   0  0  0  0  0  0  0  0  0  0  0  0
    2.7370   -1.6902    3.2068 C   0  0  0  0  0  0  0  0  0  0  0  0
    4.0757   -2.1091    3.2333 C   0  0  0  0  0  0  0  0  0  0  0  0
    4.5861   -2.9620    4.3795 C   0  0  1  0  0  0  0  0  0  0  0  0
    4.0723   -4.4107    4.2787 C   0  0  0  0  0  0  0  0  0  0  0  0
    4.6044   -5.2725    5.3290 N   0  0  0  0  0  0  0  0  0  0  0  0
    5.9734   -5.8223    5.1915 C   0  0  2  0  0  0  0  0  0  0  0  0
    6.3115   -6.2601    3.7485 C   0  0  0  0  0  0  0  0  0  0  0  0
    6.0378   -7.0547    6.1084 C   0  0  0  0  0  0  0  0  0  0  0  0
    7.0306   -4.7789    5.6756 C   0  0  0  0  0  0  0  0  0  0  0  0
    6.5973   -3.3133    5.6250 C   0  0  0  0  0  0  0  0  0  0  0  0
    6.0022   -2.9214    4.4006 O   0  0  0  0  0  0  0  0  0  0  0  0
    4.9063   -1.7447    2.1655 C   0  0  0  0  0  0  0  0  0  0  0  0
    4.4071   -0.9875    1.1023 C   0  0  0  0  0  0  0  0  0  0  0  0
    2.3084    2.3837   -0.6561 H   0  0  0  0  0  0  0  0  0  0  0  0
    3.7586    2.0657    0.3307 H   0  0  0  0  0  0  0  0  0  0  0  0
    2.1571    2.1019    1.0976 H   0  0  0  0  0  0  0  0  0  0  0  0
    3.0707    0.0215   -0.9984 H   0  0  0  0  0  0  0  0  0  0  0  0
    1.4787    0.0568   -0.2362 H   0  0  0  0  0  0  0  0  0  0  0  0
    1.1936   -0.6230    2.1456 H   0  0  0  0  0  0  0  0  0  0  0  0
    2.0694   -1.9509    4.0342 H   0  0  0  0  0  0  0  0  0  0  0  0
    4.2038   -2.5422    5.3321 H   0  0  0  0  0  0  0  0  0  0  0  0
    4.2736   -4.7753    3.2521 H   0  0  0  0  0  0  0  0  0  0  0  0
    2.9760   -4.3884    4.3885 H   0  0  0  0  0  0  0  0  0  0  0  0
    3.9579   -6.0416    5.4843 H   0  0  0  0  0  0  0  0  0  0  0  0
    5.5422   -6.9428    3.3502 H   0  0  0  0  0  0  0  0  0  0  0  0
    7.2767   -6.7909    3.7280 H   0  0  0  0  0  0  0  0  0  0  0  0
    6.3960   -5.3980    3.0716 H   0  0  0  0  0  0  0  0  0  0  0  0
    5.3773   -7.8586    5.7404 H   0  0  0  0  0  0  0  0  0  0  0  0
    5.7233   -6.7879    7.1300 H   0  0  0  0  0  0  0  0  0  0  0  0
    7.0607   -7.4585    6.1558 H   0  0  0  0  0  0  0  0  0  0  0  0
    7.9541   -4.9120    5.0881 H   0  0  0  0  0  0  0  0  0  0  0  0
    7.3038   -4.9837    6.7256 H   0  0  0  0  0  0  0  0  0  0  0  0
    7.4842   -2.6724    5.7702 H   0  0  0  0  0  0  0  0  0  0  0  0
    5.8996   -3.1070    6.4557 H   0  0  0  0  0  0  0  0  0  0  0  0
    5.9526   -2.0522    2.1828 H   0  0  0  0  0  0  0  0  0  0  0  0
    5.0754   -0.7163    0.2790 H   0  0  0  0  0  0  0  0  0  0  0  0
  1  2  1  0
  1 18  1  0
  1 19  1  0
  1 20  1  0
  2  3  1  0
  2 21  1  0
  2 22  1  0
  3  4  2  0
  3 17  1  0
  4  5  1  0
  4 23  1  0
  5  6  2  0
  5 24  1  0
  6  7  1  0
  6 16  1  0
  7  8  1  0
  7 15  1  0
  7 25  1  1
  8  9  1  0
  8 26  1  0
  8 27  1  0
  9 10  1  0
  9 28  1  0
 10 11  1  6
 10 12  1  0
 10 13  1  0
 11 29  1  0
 11 30  1  0
 11 31  1  0
 12 32  1  0
 12 33  1  0
 12 34  1  0
 13 14  1  0
 13 35  1  0
 13 36  1  0
 14 15  1  0
 14 37  1  0
 14 38  1  0
 16 17  2  0
 16 39  1  0
 17 40  1  0
M  END

