
     RDKit          3D

 32 33  0  0  0  0  0  0  0  0999 V2000
    1.1091   -0.4101    0.2451 C   0  0  0  0  0  0  0  0  0  0  0  0
    2.6125   -0.2645   -0.0313 C   0  0  1  0  0  0  0  0  0  0  0  0
    3.2438    0.0375    1.2637 N   0  0  0  0  0  0  0  0  0  0  0  0
    4.6941   -0.0152    1.3995 C   0  0  0  0  0  0  0  0  0  0  0  0
    5.1148    0.5235    2.7279 C   0  0  0  0  0  0  0  0  0  0  0  0
    5.8649    1.6027    3.1231 C   0  0  0  0  0  0  0  0  0  0  0  0
    5.8954    1.5780    4.5488 C   0  0  0  0  0  0  0  0  0  0  0  0
    5.1551    0.4824    4.9253 C   0  0  0  0  0  0  0  0  0  0  0  0
    4.8277   -0.0549    6.1962 C   0  0  0  0  0  0  0  0  0  0  0  0
    4.5699   -0.4800    7.2468 N   0  0  0  0  0  0  0  0  0  0  0  0
    4.6834   -0.1617    3.8157 O   0  0  0  0  0  0  0  0  0  0  0  0
    3.1738   -1.5325   -0.7296 C   0  0  0  0  0  0  0  0  0  0  0  0
    2.6684   -1.6794   -2.1727 C   0  0  0  0  0  0  0  0  0  0  0  0
    2.8677   -0.3717   -2.9379 C   0  0  0  0  0  0  0  0  0  0  0  0
    2.2793    0.7224   -2.2612 O   0  0  0  0  0  0  0  0  0  0  0  0
    2.8301    0.9399   -0.9799 C   0  0  0  0  0  0  0  0  0  0  0  0
    0.9001   -1.3257    0.8238 H   0  0  0  0  0  0  0  0  0  0  0  0
    0.5349   -0.4521   -0.6897 H   0  0  0  0  0  0  0  0  0  0  0  0
    0.7533    0.4545    0.8264 H   0  0  0  0  0  0  0  0  0  0  0  0
    2.8151   -0.5211    1.9994 H   0  0  0  0  0  0  0  0  0  0  0  0
    5.1675    0.6105    0.6289 H   0  0  0  0  0  0  0  0  0  0  0  0
    5.1275   -1.0332    1.2864 H   0  0  0  0  0  0  0  0  0  0  0  0
    6.3355    2.3319    2.4678 H   0  0  0  0  0  0  0  0  0  0  0  0
    6.3926    2.2742    5.2201 H   0  0  0  0  0  0  0  0  0  0  0  0
    2.9317   -2.4284   -0.1317 H   0  0  0  0  0  0  0  0  0  0  0  0
    4.2754   -1.4647   -0.7589 H   0  0  0  0  0  0  0  0  0  0  0  0
    1.5984   -1.9453   -2.1834 H   0  0  0  0  0  0  0  0  0  0  0  0
    3.2026   -2.4969   -2.6865 H   0  0  0  0  0  0  0  0  0  0  0  0
    2.4001   -0.4132   -3.9336 H   0  0  0  0  0  0  0  0  0  0  0  0
    3.9540   -0.1850   -3.0858 H   0  0  0  0  0  0  0  0  0  0  0  0
    2.3432    1.8329   -0.5611 H   0  0  0  0  0  0  0  0  0  0  0  0
    3.9150    1.1581   -1.0707 H   0  0  0  0  0  0  0  0  0  0  0  0
  1  2  1  0
  1 17  1  0
  1 18  1  0
  1 19  1  0
  2  3  1  1
  2 12  1  0
  2 16  1  0
  3  4  1  0
  3 20  1  0
  4  5  1  0
  4 21  1  0
  4 22  1  0
  5  6  2  0
  5 11  1  0
  6  7  1  0
  6 23  1  0
  7  8  2  0
  7 24  1  0
  8  9  1  0
  8 11  1  0
  9 10  3  0
 12 13  1  0
 12 25  1  0
 12 26  1  0
 13 14  1  0
 13 27  1  0
 13 28  1  0
 14 15  1  0
 14 29  1  0
 14 30  1  0
 15 16  1  0
 16 31  1  0
 16 32  1  0
M  END

