
     RDKit          3D

 47 50  0  0  0  0  0  0  0  0999 V2000
    5.8922    2.2678   -0.5657 C   0  0  0  0  0  0  0  0  0  0  0  0
    4.8159    1.3113   -0.4023 N   0  0  0  0  0  0  0  0  0  0  0  0
    3.4958    1.5349   -0.0659 C   0  0  0  0  0  0  0  0  0  0  0  0
    2.8702    2.8480    0.3124 C   0  0  1  0  0  0  0  0  0  0  0  0
    1.7915    2.6345    0.3113 H   0  0  0  0  0  0  0  0  0  0  0  0
    3.2834    3.3858    1.7039 C   0  0  0  0  0  0  0  0  0  0  0  0
    3.0341    4.8921    1.6125 C   0  0  0  0  0  0  0  0  0  0  0  0
    3.5192    5.2152    0.1976 C   0  0  0  0  0  0  0  0  0  0  0  0
    3.1611    4.0134   -0.5936 N   0  0  0  0  0  0  0  0  0  0  0  0
    2.1219    4.2498   -1.9067 S   0  0  1  0  0  0  0  0  0  0  0  0
    1.4626    2.9779   -2.1799 O   0  0  0  0  0  0  0  0  0  0  0  0
    1.3361    5.4760   -1.7144 O   0  0  0  0  0  0  0  0  0  0  0  0
    3.2587    4.6167   -3.2619 C   0  0  0  0  0  0  0  0  0  0  0  0
    3.1796    5.8610   -3.8938 C   0  0  0  0  0  0  0  0  0  0  0  0
    4.0251    6.1493   -4.9675 C   0  0  0  0  0  0  0  0  0  0  0  0
    4.9487    5.2006   -5.4113 C   0  0  0  0  0  0  0  0  0  0  0  0
    5.0249    3.9532   -4.7842 C   0  0  0  0  0  0  0  0  0  0  0  0
    6.1749    2.7565   -5.3031 Cl  0  0  0  0  0  0  0  0  0  0  0  0
    4.1675    3.6561   -3.7183 C   0  0  0  0  0  0  0  0  0  0  0  0
    4.2436    2.4668   -3.1329 F   0  0  0  0  0  0  0  0  0  0  0  0
    2.8145    0.4080   -0.0057 N   0  0  0  0  0  0  0  0  0  0  0  0
    3.7004   -0.5880   -0.3183 C   0  0  0  0  0  0  0  0  0  0  0  0
    4.9437   -0.0561   -0.5788 C   0  0  0  0  0  0  0  0  0  0  0  0
    6.1682   -0.8173   -0.9759 C   0  0  0  0  0  0  0  0  0  0  0  0
    5.7526   -2.2490   -1.3750 C   0  0  0  0  0  0  0  0  0  0  0  0
    4.7168   -2.8537   -0.4111 C   0  0  0  0  0  0  0  0  0  0  0  0
    3.3998   -2.0550   -0.3948 C   0  0  0  0  0  0  0  0  0  0  0  0
    5.4815    3.2818   -0.5925 H   0  0  0  0  0  0  0  0  0  0  0  0
    6.4144    2.0917   -1.5182 H   0  0  0  0  0  0  0  0  0  0  0  0
    6.6252    2.1929    0.2554 H   0  0  0  0  0  0  0  0  0  0  0  0
    4.3524    3.1863    1.8856 H   0  0  0  0  0  0  0  0  0  0  0  0
    2.7154    2.8807    2.4979 H   0  0  0  0  0  0  0  0  0  0  0  0
    3.5569    5.4738    2.3868 H   0  0  0  0  0  0  0  0  0  0  0  0
    1.9560    5.1084    1.6899 H   0  0  0  0  0  0  0  0  0  0  0  0
    4.6146    5.3601    0.1766 H   0  0  0  0  0  0  0  0  0  0  0  0
    3.0471    6.1097   -0.2278 H   0  0  0  0  0  0  0  0  0  0  0  0
    2.4487    6.5836   -3.5283 H   0  0  0  0  0  0  0  0  0  0  0  0
    3.9654    7.1201   -5.4636 H   0  0  0  0  0  0  0  0  0  0  0  0
    5.6200    5.4129   -6.2451 H   0  0  0  0  0  0  0  0  0  0  0  0
    6.8968   -0.8540   -0.1420 H   0  0  0  0  0  0  0  0  0  0  0  0
    6.6957   -0.3314   -1.8162 H   0  0  0  0  0  0  0  0  0  0  0  0
    6.6462   -2.8921   -1.4271 H   0  0  0  0  0  0  0  0  0  0  0  0
    5.3225   -2.2250   -2.3920 H   0  0  0  0  0  0  0  0  0  0  0  0
    5.1442   -2.8726    0.6082 H   0  0  0  0  0  0  0  0  0  0  0  0
    4.5206   -3.9030   -0.6859 H   0  0  0  0  0  0  0  0  0  0  0  0
    2.7658   -2.3598    0.4545 H   0  0  0  0  0  0  0  0  0  0  0  0
    2.8109   -2.2740   -1.3054 H   0  0  0  0  0  0  0  0  0  0  0  0
  1  2  1  0
  1 28  1  0
  1 29  1  0
  1 30  1  0
  2  3  1  0
  2 23  1  0
  3  4  1  0
  3 21  2  0
  4  5  1  1
  4  6  1  0
  4  9  1  0
  6  7  1  0
  6 31  1  0
  6 32  1  0
  7  8  1  0
  7 33  1  0
  7 34  1  0
  8  9  1  0
  8 35  1  0
  8 36  1  0
  9 10  1  0
 10 11  2  0
 10 12  2  0
 10 13  1  6
 13 14  2  0
 13 19  1  0
 14 15  1  0
 14 37  1  0
 15 16  2  0
 15 38  1  0
 16 17  1  0
 16 39  1  0
 17 18  1  0
 17 19  2  0
 19 20  1  0
 21 22  1  0
 22 23  2  0
 22 27  1  0
 23 24  1  0
 24 25  1  0
 24 40  1  0
 24 41  1  0
 25 26  1  0
 25 42  1  0
 25 43  1  0
 26 27  1  0
 26 44  1  0
 26 45  1  0
 27 46  1  0
 27 47  1  0
M  END

