
     RDKit          3D

 55 56  0  0  0  0  0  0  0  0999 V2000
    7.4492   -8.9449    4.3684 C   0  0  0  0  0  0  0  0  0  0  0  0
    8.0809   -7.9652    3.4096 C   0  0  0  0  0  0  0  0  0  0  0  0
    7.7642   -6.6004    3.4327 C   0  0  0  0  0  0  0  0  0  0  0  0
    8.3311   -5.6839    2.5426 C   0  0  0  0  0  0  0  0  0  0  0  0
    9.2548   -6.1285    1.5841 C   0  0  0  0  0  0  0  0  0  0  0  0
    9.8822   -5.2892    0.6378 N   0  0  0  0  0  0  0  0  0  0  0  0
    9.7840   -3.9242    0.4844 C   0  0  0  0  0  0  0  0  0  0  0  0
    9.0856   -3.2093    1.2065 O   0  0  0  0  0  0  0  0  0  0  0  0
   10.5394   -3.4106   -0.5375 N   0  0  0  0  0  0  0  0  0  0  0  0
   10.4334   -2.0033   -0.8981 C   0  0  0  0  0  0  0  0  0  0  0  0
   11.5002   -1.5716   -1.9128 C   0  0  1  0  0  0  0  0  0  0  0  0
   11.3817   -2.2602   -3.2913 C   0  0  0  0  0  0  0  0  0  0  0  0
   10.1702   -1.7649   -4.0961 C   0  0  0  0  0  0  0  0  0  0  0  0
   10.1468   -0.2327   -4.1745 C   0  0  0  0  0  0  0  0  0  0  0  0
   10.2498    0.3693   -2.8486 N   0  0  0  0  0  0  0  0  0  0  0  0
    9.0906    0.9057   -2.2834 C   0  0  0  0  0  0  0  0  0  0  0  0
    8.0240    0.9127   -2.8849 O   0  0  0  0  0  0  0  0  0  0  0  0
    9.2067    1.4166   -1.0122 N   0  0  0  0  0  0  0  0  0  0  0  0
    8.0805    2.0835   -0.3634 C   0  0  0  0  0  0  0  0  0  0  0  0
    7.0188    1.1331    0.2170 C   0  0  0  0  0  0  0  0  0  0  0  0
    7.5719   -0.0846    0.9637 C   0  0  0  0  0  0  0  0  0  0  0  0
    8.6201    0.2360    2.0234 C   0  0  0  0  0  0  0  0  0  0  0  0
    8.7626    1.3318    2.5116 O   0  0  0  0  0  0  0  0  0  0  0  0
    9.4019   -0.7852    2.4025 O   0  0  0  0  0  0  0  0  0  0  0  0
   11.4407   -0.0400   -2.1185 C   0  0  0  0  0  0  0  0  0  0  0  0
    9.5844   -7.4959    1.5487 C   0  0  0  0  0  0  0  0  0  0  0  0
    9.0077   -8.3921    2.4446 C   0  0  0  0  0  0  0  0  0  0  0  0
    6.8775   -8.4285    5.1536 H   0  0  0  0  0  0  0  0  0  0  0  0
    8.2079   -9.5740    4.8622 H   0  0  0  0  0  0  0  0  0  0  0  0
    6.7554   -9.6274    3.8476 H   0  0  0  0  0  0  0  0  0  0  0  0
    7.0490   -6.2300    4.1729 H   0  0  0  0  0  0  0  0  0  0  0  0
    8.0668   -4.6308    2.5881 H   0  0  0  0  0  0  0  0  0  0  0  0
   10.5293   -5.7687    0.0234 H   0  0  0  0  0  0  0  0  0  0  0  0
   10.9359   -4.0416   -1.2236 H   0  0  0  0  0  0  0  0  0  0  0  0
   10.5446   -1.4106    0.0211 H   0  0  0  0  0  0  0  0  0  0  0  0
    9.4249   -1.7834   -1.2899 H   0  0  0  0  0  0  0  0  0  0  0  0
   12.4883   -1.8108   -1.4800 H   0  0  0  0  0  0  0  0  0  0  0  0
   11.3531   -3.3605   -3.1921 H   0  0  0  0  0  0  0  0  0  0  0  0
   12.3045   -2.0438   -3.8589 H   0  0  0  0  0  0  0  0  0  0  0  0
    9.2297   -2.1097   -3.6340 H   0  0  0  0  0  0  0  0  0  0  0  0
   10.1941   -2.1902   -5.1133 H   0  0  0  0  0  0  0  0  0  0  0  0
    9.2180    0.1248   -4.6338 H   0  0  0  0  0  0  0  0  0  0  0  0
   10.9979    0.1217   -4.7870 H   0  0  0  0  0  0  0  0  0  0  0  0
   10.1240    1.6347   -0.6496 H   0  0  0  0  0  0  0  0  0  0  0  0
    7.5914    2.7663   -1.0773 H   0  0  0  0  0  0  0  0  0  0  0  0
    8.5041    2.6797    0.4545 H   0  0  0  0  0  0  0  0  0  0  0  0
    6.3730    0.7698   -0.5971 H   0  0  0  0  0  0  0  0  0  0  0  0
    6.3846    1.7296    0.8931 H   0  0  0  0  0  0  0  0  0  0  0  0
    7.9894   -0.8202    0.2613 H   0  0  0  0  0  0  0  0  0  0  0  0
    6.7473   -0.6133    1.4752 H   0  0  0  0  0  0  0  0  0  0  0  0
    9.1941   -1.6297    1.9379 H   0  0  0  0  0  0  0  0  0  0  0  0
   11.5080    0.4673   -1.1477 H   0  0  0  0  0  0  0  0  0  0  0  0
   12.3315    0.2720   -2.6944 H   0  0  0  0  0  0  0  0  0  0  0  0
   10.3049   -7.8612    0.8096 H   0  0  0  0  0  0  0  0  0  0  0  0
    9.2876   -9.4484    2.3915 H   0  0  0  0  0  0  0  0  0  0  0  0
  1  2  1  0
  1 28  1  0
  1 29  1  0
  1 30  1  0
  2  3  2  0
  2 27  1  0
  3  4  1  0
  3 31  1  0
  4  5  2  0
  4 32  1  0
  5  6  1  0
  5 26  1  0
  6  7  1  0
  6 33  1  0
  7  8  2  0
  7  9  1  0
  9 10  1  0
  9 34  1  0
 10 11  1  0
 10 35  1  0
 10 36  1  0
 11 12  1  0
 11 25  1  0
 11 37  1  1
 12 13  1  0
 12 38  1  0
 12 39  1  0
 13 14  1  0
 13 40  1  0
 13 41  1  0
 14 15  1  0
 14 42  1  0
 14 43  1  0
 15 16  1  0
 15 25  1  0
 16 17  2  0
 16 18  1  0
 18 19  1  0
 18 44  1  0
 19 20  1  0
 19 45  1  0
 19 46  1  0
 20 21  1  0
 20 47  1  0
 20 48  1  0
 21 22  1  0
 21 49  1  0
 21 50  1  0
 22 23  2  0
 22 24  1  0
 24 51  1  0
 25 52  1  0
 25 53  1  0
 26 27  2  0
 26 54  1  0
 27 55  1  0
M  END

