
     RDKit          3D

 44 45  0  0  0  0  0  0  0  0999 V2000
    2.6885    2.9975    2.2401 C   0  0  0  0  0  0  0  0  0  0  0  0
    2.7243    1.9821    1.0962 C   0  0  0  0  0  0  0  0  0  0  0  0
    4.0683    1.6081    0.6480 N   0  0  0  0  0  0  0  0  0  0  0  0
    4.6699    2.2581   -0.5082 C   0  0  0  0  0  0  0  0  0  0  0  0
    5.5066    3.5039   -0.1975 C   0  0  0  0  0  0  0  0  0  0  0  0
    4.7501    0.6790    1.3766 C   0  0  0  0  0  0  0  0  0  0  0  0
    4.2771    0.0867    2.4426 N   0  0  0  0  0  0  0  0  0  0  0  0
    5.1697   -0.8240    2.9415 C   0  0  0  0  0  0  0  0  0  0  0  0
    6.3619   -0.9685    2.2898 C   0  0  0  0  0  0  0  0  0  0  0  0
    7.5217   -1.8571    2.6094 C   0  0  0  0  0  0  0  0  0  0  0  0
    8.6723   -1.1109    3.0916 N   0  0  0  0  0  0  0  0  0  0  0  0
    9.9241   -1.6959    3.2344 C   0  0  0  0  0  0  0  0  0  0  0  0
   11.0826   -0.9107    3.4076 C   0  0  0  0  0  0  0  0  0  0  0  0
   12.3234   -1.5056    3.5820 C   0  0  0  0  0  0  0  0  0  0  0  0
   12.4143   -2.9222    3.5970 C   0  0  0  0  0  0  0  0  0  0  0  0
   13.6194   -3.5835    3.8142 N   0  0  0  0  0  0  0  0  0  0  0  0
   13.7246   -4.9998    3.5222 C   0  0  0  0  0  0  0  0  0  0  0  0
   14.8495   -2.8314    3.8782 C   0  0  0  0  0  0  0  0  0  0  0  0
   11.3187   -3.6659    3.4132 N   0  0  0  0  0  0  0  0  0  0  0  0
   10.1293   -3.0886    3.2415 C   0  0  0  0  0  0  0  0  0  0  0  0
    6.3836    0.1410    0.9160 S   0  0  0  0  0  0  0  0  0  0  0  0
    1.6442    3.2093    2.5221 H   0  0  0  0  0  0  0  0  0  0  0  0
    3.1634    3.9509    1.9602 H   0  0  0  0  0  0  0  0  0  0  0  0
    3.2031    2.5934    3.1241 H   0  0  0  0  0  0  0  0  0  0  0  0
    2.1891    2.3738    0.2161 H   0  0  0  0  0  0  0  0  0  0  0  0
    2.2119    1.0619    1.4161 H   0  0  0  0  0  0  0  0  0  0  0  0
    3.8539    2.5188   -1.2019 H   0  0  0  0  0  0  0  0  0  0  0  0
    5.2917    1.5158   -1.0393 H   0  0  0  0  0  0  0  0  0  0  0  0
    4.8944    4.2981    0.2563 H   0  0  0  0  0  0  0  0  0  0  0  0
    5.9494    3.9044   -1.1239 H   0  0  0  0  0  0  0  0  0  0  0  0
    6.3281    3.2660    0.4956 H   0  0  0  0  0  0  0  0  0  0  0  0
    4.9035   -1.3967    3.8336 H   0  0  0  0  0  0  0  0  0  0  0  0
    7.7902   -2.4686    1.7211 H   0  0  0  0  0  0  0  0  0  0  0  0
    7.1841   -2.5761    3.3790 H   0  0  0  0  0  0  0  0  0  0  0  0
    8.6706   -0.1244    2.8620 H   0  0  0  0  0  0  0  0  0  0  0  0
   11.0040    0.1812    3.3993 H   0  0  0  0  0  0  0  0  0  0  0  0
   13.2036   -0.8748    3.6994 H   0  0  0  0  0  0  0  0  0  0  0  0
   12.7424   -5.4671    3.6535 H   0  0  0  0  0  0  0  0  0  0  0  0
   14.4467   -5.4720    4.2082 H   0  0  0  0  0  0  0  0  0  0  0  0
   14.0596   -5.1975    2.4822 H   0  0  0  0  0  0  0  0  0  0  0  0
   14.7970   -2.0333    4.6375 H   0  0  0  0  0  0  0  0  0  0  0  0
   15.1316   -2.3588    2.9130 H   0  0  0  0  0  0  0  0  0  0  0  0
   15.6678   -3.5047    4.1712 H   0  0  0  0  0  0  0  0  0  0  0  0
    9.2856   -3.7732    3.1038 H   0  0  0  0  0  0  0  0  0  0  0  0
  1  2  1  0
  1 22  1  0
  1 23  1  0
  1 24  1  0
  2  3  1  0
  2 25  1  0
  2 26  1  0
  3  4  1  0
  3  6  1  0
  4  5  1  0
  4 27  1  0
  4 28  1  0
  5 29  1  0
  5 30  1  0
  5 31  1  0
  6  7  2  0
  6 21  1  0
  7  8  1  0
  8  9  2  0
  8 32  1  0
  9 10  1  0
  9 21  1  0
 10 11  1  0
 10 33  1  0
 10 34  1  0
 11 12  1  0
 11 35  1  0
 12 13  2  0
 12 20  1  0
 13 14  1  0
 13 36  1  0
 14 15  2  0
 14 37  1  0
 15 16  1  0
 15 19  1  0
 16 17  1  0
 16 18  1  0
 17 38  1  0
 17 39  1  0
 17 40  1  0
 18 41  1  0
 18 42  1  0
 18 43  1  0
 19 20  2  0
 20 44  1  0
M  END

