
     RDKit          3D

 45 46  0  0  0  0  0  0  0  0999 V2000
    1.1873   -0.7320    1.2416 C   0  0  0  0  0  0  0  0  0  0  0  0
    2.6190   -0.3504    0.9818 C   0  0  0  0  0  0  0  0  0  0  0  0
    3.1145    0.9226    1.2913 C   0  0  0  0  0  0  0  0  0  0  0  0
    4.4517    1.2414    1.0300 C   0  0  0  0  0  0  0  0  0  0  0  0
    5.0164    2.5989    1.3468 C   0  0  0  0  0  0  0  0  0  0  0  0
    5.2584    0.2359    0.4548 C   0  0  0  0  0  0  0  0  0  0  0  0
    6.6348    0.4936    0.1579 C   0  0  0  0  0  0  0  0  0  0  0  0
    7.7490    0.7258   -0.0772 N   0  0  0  0  0  0  0  0  0  0  0  0
    4.6727   -1.0310    0.1800 C   0  0  0  0  0  0  0  0  0  0  0  0
    5.7136   -2.2990   -0.5045 S   0  0  0  0  0  0  0  0  0  0  0  0
    4.5185   -3.6933   -0.7403 C   0  0  1  0  0  0  0  0  0  0  0  0
    3.6783   -3.5418   -2.0103 C   0  0  0  0  0  0  0  0  0  0  0  0
    5.2939   -5.0210   -0.6952 C   0  0  0  0  0  0  0  0  0  0  0  0
    4.9504   -5.9184    0.0484 O   0  0  0  0  0  0  0  0  0  0  0  0
    6.3378   -5.1182   -1.5859 N   0  0  0  0  0  0  0  0  0  0  0  0
    7.2373   -6.2219   -1.6938 C   0  0  0  0  0  0  0  0  0  0  0  0
    6.7626   -7.4992   -2.0625 C   0  0  0  0  0  0  0  0  0  0  0  0
    5.3078   -7.7510   -2.3599 C   0  0  0  0  0  0  0  0  0  0  0  0
    7.6952   -8.5427   -2.1627 C   0  0  0  0  0  0  0  0  0  0  0  0
    9.0526   -8.3279   -1.9294 C   0  0  0  0  0  0  0  0  0  0  0  0
    9.5056   -7.0527   -1.5889 C   0  0  0  0  0  0  0  0  0  0  0  0
    8.6106   -5.9832   -1.4609 C   0  0  0  0  0  0  0  0  0  0  0  0
    9.1042   -4.6092   -1.0777 C   0  0  0  0  0  0  0  0  0  0  0  0
    3.4004   -1.2948    0.4353 N   0  0  0  0  0  0  0  0  0  0  0  0
    0.6223    0.0819    1.7161 H   0  0  0  0  0  0  0  0  0  0  0  0
    1.1455   -1.6221    1.8894 H   0  0  0  0  0  0  0  0  0  0  0  0
    0.6906   -1.0046    0.2962 H   0  0  0  0  0  0  0  0  0  0  0  0
    2.4553    1.6704    1.7365 H   0  0  0  0  0  0  0  0  0  0  0  0
    4.2535    3.2563    1.7857 H   0  0  0  0  0  0  0  0  0  0  0  0
    5.4146    3.0819    0.4399 H   0  0  0  0  0  0  0  0  0  0  0  0
    5.8584    2.5202    2.0534 H   0  0  0  0  0  0  0  0  0  0  0  0
    3.8703   -3.6925    0.1432 H   0  0  0  0  0  0  0  0  0  0  0  0
    4.3046   -3.4799   -2.9132 H   0  0  0  0  0  0  0  0  0  0  0  0
    3.0593   -2.6359   -1.9476 H   0  0  0  0  0  0  0  0  0  0  0  0
    3.0065   -4.4100   -2.1134 H   0  0  0  0  0  0  0  0  0  0  0  0
    6.6196   -4.2616   -2.0534 H   0  0  0  0  0  0  0  0  0  0  0  0
    4.8868   -6.9531   -2.9929 H   0  0  0  0  0  0  0  0  0  0  0  0
    4.7174   -7.7635   -1.4305 H   0  0  0  0  0  0  0  0  0  0  0  0
    5.1737   -8.7106   -2.8797 H   0  0  0  0  0  0  0  0  0  0  0  0
    7.3425   -9.5389   -2.4434 H   0  0  0  0  0  0  0  0  0  0  0  0
    9.7613   -9.1552   -2.0184 H   0  0  0  0  0  0  0  0  0  0  0  0
   10.5698   -6.8803   -1.4072 H   0  0  0  0  0  0  0  0  0  0  0  0
   10.1726   -4.6339   -0.8209 H   0  0  0  0  0  0  0  0  0  0  0  0
    8.5538   -4.2026   -0.2141 H   0  0  0  0  0  0  0  0  0  0  0  0
    8.9870   -3.8796   -1.8993 H   0  0  0  0  0  0  0  0  0  0  0  0
  1  2  1  0
  1 25  1  0
  1 26  1  0
  1 27  1  0
  2  3  2  0
  2 24  1  0
  3  4  1  0
  3 28  1  0
  4  5  1  0
  4  6  2  0
  5 29  1  0
  5 30  1  0
  5 31  1  0
  6  7  1  0
  6  9  1  0
  7  8  3  0
  9 10  1  0
  9 24  2  0
 10 11  1  0
 11 12  1  0
 11 13  1  0
 11 32  1  1
 12 33  1  0
 12 34  1  0
 12 35  1  0
 13 14  2  0
 13 15  1  0
 15 16  1  0
 15 36  1  0
 16 17  2  0
 16 22  1  0
 17 18  1  0
 17 19  1  0
 18 37  1  0
 18 38  1  0
 18 39  1  0
 19 20  2  0
 19 40  1  0
 20 21  1  0
 20 41  1  0
 21 22  2  0
 21 42  1  0
 22 23  1  0
 23 43  1  0
 23 44  1  0
 23 45  1  0
M  END

