
     RDKit          3D

 32 33  0  0  0  0  0  0  0  0999 V2000
    1.3864    0.1997    1.2873 N   0  0  0  0  0  0  0  0  0  0  0  0
    2.6539    0.0065    0.7458 C   0  0  0  0  0  0  0  0  0  0  0  0
    3.2556    0.9933   -0.0640 C   0  0  0  0  0  0  0  0  0  0  0  0
    4.5428    0.8277   -0.5634 C   0  0  0  0  0  0  0  0  0  0  0  0
    5.2766   -0.3306   -0.2717 C   0  0  0  0  0  0  0  0  0  0  0  0
    6.5391   -0.4081   -0.8106 O   0  0  0  0  0  0  0  0  0  0  0  0
    7.3430   -1.5306   -0.5496 C   0  0  0  0  0  0  0  0  0  0  0  0
    8.7059   -1.3982   -1.2324 C   0  0  0  0  0  0  0  0  0  0  0  0
    9.5251   -2.2911   -1.1213 O   0  0  0  0  0  0  0  0  0  0  0  0
    8.8685   -0.2325   -1.9303 N   0  0  0  0  0  0  0  0  0  0  0  0
    9.9804    0.2028   -2.6554 C   0  0  0  0  0  0  0  0  0  0  0  0
   11.1637   -0.5496   -2.7820 C   0  0  0  0  0  0  0  0  0  0  0  0
   12.2458   -0.0681   -3.5181 C   0  0  0  0  0  0  0  0  0  0  0  0
   12.1666    1.1776   -4.1440 C   0  0  0  0  0  0  0  0  0  0  0  0
   13.6437    1.8384   -5.1509 Br  0  0  0  0  0  0  0  0  0  0  0  0
   11.0083    1.9493   -4.0388 C   0  0  0  0  0  0  0  0  0  0  0  0
    9.9320    1.4593   -3.3006 C   0  0  0  0  0  0  0  0  0  0  0  0
    8.4829    2.4442   -3.1792 Cl  0  0  0  0  0  0  0  0  0  0  0  0
    4.6977   -1.3208    0.5287 C   0  0  0  0  0  0  0  0  0  0  0  0
    3.4019   -1.1489    1.0278 C   0  0  0  0  0  0  0  0  0  0  0  0
    0.7874    0.8528    0.7952 H   0  0  0  0  0  0  0  0  0  0  0  0
    0.8924   -0.6379    1.5734 H   0  0  0  0  0  0  0  0  0  0  0  0
    2.7024    1.9069   -0.3000 H   0  0  0  0  0  0  0  0  0  0  0  0
    5.0001    1.5965   -1.1901 H   0  0  0  0  0  0  0  0  0  0  0  0
    6.8820   -2.4657   -0.9193 H   0  0  0  0  0  0  0  0  0  0  0  0
    7.5302   -1.6620    0.5328 H   0  0  0  0  0  0  0  0  0  0  0  0
    8.0670    0.3950   -1.9095 H   0  0  0  0  0  0  0  0  0  0  0  0
   11.2133   -1.5186   -2.2896 H   0  0  0  0  0  0  0  0  0  0  0  0
   13.1526   -0.6689   -3.6026 H   0  0  0  0  0  0  0  0  0  0  0  0
   10.9325    2.9232   -4.5219 H   0  0  0  0  0  0  0  0  0  0  0  0
    5.2379   -2.2356    0.7749 H   0  0  0  0  0  0  0  0  0  0  0  0
    2.9670   -1.9325    1.6547 H   0  0  0  0  0  0  0  0  0  0  0  0
  1  2  1  0
  1 21  1  0
  1 22  1  0
  2  3  2  0
  2 20  1  0
  3  4  1  0
  3 23  1  0
  4  5  2  0
  4 24  1  0
  5  6  1  0
  5 19  1  0
  6  7  1  0
  7  8  1  0
  7 25  1  0
  7 26  1  0
  8  9  2  0
  8 10  1  0
 10 11  1  0
 10 27  1  0
 11 12  2  0
 11 17  1  0
 12 13  1  0
 12 28  1  0
 13 14  2  0
 13 29  1  0
 14 15  1  0
 14 16  1  0
 16 17  2  0
 16 30  1  0
 17 18  1  0
 19 20  2  0
 19 31  1  0
 20 32  1  0
M  END

