
     RDKit          3D

 23 23  0  0  0  0  0  0  0  0999 V2000
    0.9590   -0.0906    0.2100 C   0  0  0  0  0  0  0  0  0  0  0  0
    2.4541    0.0113    0.1789 C   0  0  0  0  0  0  0  0  0  0  0  0
    3.2992   -1.0014    0.4404 C   0  0  0  0  0  0  0  0  0  0  0  0
    4.7698   -0.9784    0.4295 C   0  0  0  0  0  0  0  0  0  0  0  0
    5.5327    0.1723    0.1258 C   0  0  0  0  0  0  0  0  0  0  0  0
    6.9195    0.1447    0.1288 C   0  0  0  0  0  0  0  0  0  0  0  0
    7.6116   -1.0423    0.4373 C   0  0  0  0  0  0  0  0  0  0  0  0
    8.9670   -0.9683    0.4141 O   0  0  0  0  0  0  0  0  0  0  0  0
    9.7243   -2.1178    0.7139 C   0  0  0  0  0  0  0  0  0  0  0  0
    6.8786   -2.1974    0.7416 C   0  0  0  0  0  0  0  0  0  0  0  0
    5.4804   -2.1509    0.7339 C   0  0  0  0  0  0  0  0  0  0  0  0
    0.5221    0.6179    0.9367 H   0  0  0  0  0  0  0  0  0  0  0  0
    0.6236   -1.1042    0.4798 H   0  0  0  0  0  0  0  0  0  0  0  0
    0.5179    0.1645   -0.7706 H   0  0  0  0  0  0  0  0  0  0  0  0
    2.8593    0.9974   -0.0795 H   0  0  0  0  0  0  0  0  0  0  0  0
    2.8616   -1.9751    0.6961 H   0  0  0  0  0  0  0  0  0  0  0  0
    5.0290    1.1102   -0.1185 H   0  0  0  0  0  0  0  0  0  0  0  0
    7.5042    1.0365   -0.1066 H   0  0  0  0  0  0  0  0  0  0  0  0
   10.7808   -1.8271    0.6364 H   0  0  0  0  0  0  0  0  0  0  0  0
    9.5270   -2.9393    0.0012 H   0  0  0  0  0  0  0  0  0  0  0  0
    9.5295   -2.4846    1.7382 H   0  0  0  0  0  0  0  0  0  0  0  0
    7.3789   -3.1349    0.9849 H   0  0  0  0  0  0  0  0  0  0  0  0
    4.9237   -3.0615    0.9737 H   0  0  0  0  0  0  0  0  0  0  0  0
  1  2  1  0
  1 12  1  0
  1 13  1  0
  1 14  1  0
  2  3  2  0
  2 15  1  0
  3  4  1  0
  3 16  1  0
  4  5  2  0
  4 11  1  0
  5  6  1  0
  5 17  1  0
  6  7  2  0
  6 18  1  0
  7  8  1  0
  7 10  1  0
  8  9  1  0
  9 19  1  0
  9 20  1  0
  9 21  1  0
 10 11  2  0
 10 22  1  0
 11 23  1  0
M  END

