
     RDKit          3D

 47 49  0  0  0  0  0  0  0  0999 V2000
    1.1519    0.3498    0.2910 C   0  0  0  0  0  0  0  0  0  0  0  0
    2.1880    0.0948   -0.6248 O   0  0  0  0  0  0  0  0  0  0  0  0
    2.8282    1.1490   -1.2078 C   0  0  0  0  0  0  0  0  0  0  0  0
    3.8520    0.7913   -2.1242 C   0  0  0  0  0  0  0  0  0  0  0  0
    4.5844    1.7578   -2.7976 C   0  0  0  0  0  0  0  0  0  0  0  0
    4.2861    3.1051   -2.5455 C   0  0  0  0  0  0  0  0  0  0  0  0
    4.8270    4.2613   -3.0636 N   0  0  0  0  0  0  0  0  0  0  0  0
    5.6640    4.3096   -3.6291 H   0  0  0  0  0  0  0  0  0  0  0  0
    4.2268    5.3659   -2.4730 C   0  0  0  0  0  0  0  0  0  0  0  0
    4.6541    6.7172   -2.8699 C   0  0  0  0  0  0  0  0  0  0  0  0
    4.8907    7.0472   -4.2259 C   0  0  0  0  0  0  0  0  0  0  0  0
    5.3084    8.3207   -4.5738 C   0  0  0  0  0  0  0  0  0  0  0  0
    5.4771    9.2645   -3.5390 C   0  0  0  0  0  0  0  0  0  0  0  0
    5.8686   10.5023   -3.8891 O   0  0  0  0  0  0  0  0  0  0  0  0
    6.0428   11.4631   -2.8562 C   0  0  0  0  0  0  0  0  0  0  0  0
    5.2718    8.9762   -2.2615 N   0  0  0  0  0  0  0  0  0  0  0  0
    4.8809    7.7398   -1.9371 C   0  0  0  0  0  0  0  0  0  0  0  0
    3.2463    4.9295   -1.5859 C   0  0  0  0  0  0  0  0  0  0  0  0
    2.2639    5.7698   -0.8098 C   0  0  0  0  0  0  0  0  0  0  0  0
    1.0218    6.2306   -1.6029 C   0  0  0  0  0  0  0  0  0  0  0  0
    0.0847    5.1040   -2.0413 C   0  0  0  0  0  0  0  0  0  0  0  0
   -1.1214    5.5887   -2.8451 C   0  0  0  0  0  0  0  0  0  0  0  0
   -2.0167    4.4794   -3.1622 N   0  0  0  0  0  0  0  0  0  0  0  0
    3.2757    3.4872   -1.6239 C   0  0  0  0  0  0  0  0  0  0  0  0
    2.5333    2.4878   -0.9531 C   0  0  0  0  0  0  0  0  0  0  0  0
    0.7786   -0.6276    0.6267 H   0  0  0  0  0  0  0  0  0  0  0  0
    0.3184    0.9102   -0.1718 H   0  0  0  0  0  0  0  0  0  0  0  0
    1.5077    0.9167    1.1716 H   0  0  0  0  0  0  0  0  0  0  0  0
    4.0413   -0.2720   -2.2827 H   0  0  0  0  0  0  0  0  0  0  0  0
    5.3675    1.4700   -3.5036 H   0  0  0  0  0  0  0  0  0  0  0  0
    4.7246    6.2977   -5.0043 H   0  0  0  0  0  0  0  0  0  0  0  0
    5.4944    8.6132   -5.6083 H   0  0  0  0  0  0  0  0  0  0  0  0
    6.3564   12.3889   -3.3561 H   0  0  0  0  0  0  0  0  0  0  0  0
    6.8114   11.1420   -2.1357 H   0  0  0  0  0  0  0  0  0  0  0  0
    5.1056   11.6301   -2.3022 H   0  0  0  0  0  0  0  0  0  0  0  0
    4.7567    7.5389   -0.8681 H   0  0  0  0  0  0  0  0  0  0  0  0
    2.7622    6.6653   -0.4093 H   0  0  0  0  0  0  0  0  0  0  0  0
    1.9313    5.1999    0.0750 H   0  0  0  0  0  0  0  0  0  0  0  0
    1.3577    6.7997   -2.4883 H   0  0  0  0  0  0  0  0  0  0  0  0
    0.4575    6.9461   -0.9770 H   0  0  0  0  0  0  0  0  0  0  0  0
   -0.2885    4.5530   -1.1601 H   0  0  0  0  0  0  0  0  0  0  0  0
    0.6468    4.3690   -2.6452 H   0  0  0  0  0  0  0  0  0  0  0  0
   -0.7545    6.1475   -3.7359 H   0  0  0  0  0  0  0  0  0  0  0  0
   -1.6874    6.3219   -2.2423 H   0  0  0  0  0  0  0  0  0  0  0  0
   -1.5447    3.8159   -3.7791 H   0  0  0  0  0  0  0  0  0  0  0  0
   -2.8298    4.8133   -3.6799 H   0  0  0  0  0  0  0  0  0  0  0  0
    1.7484    2.7720   -0.2530 H   0  0  0  0  0  0  0  0  0  0  0  0
  1  2  1  0
  1 26  1  0
  1 27  1  0
  1 28  1  0
  2  3  1  0
  3  4  2  0
  3 25  1  0
  4  5  1  0
  4 29  1  0
  5  6  2  0
  5 30  1  0
  6  7  1  0
  6 24  1  0
  7  8  1  0
  7  9  1  0
  9 10  1  0
  9 18  2  0
 10 11  2  0
 10 17  1  0
 11 12  1  0
 11 31  1  0
 12 13  2  0
 12 32  1  0
 13 14  1  0
 13 16  1  0
 14 15  1  0
 15 33  1  0
 15 34  1  0
 15 35  1  0
 16 17  2  0
 17 36  1  0
 18 19  1  0
 18 24  1  0
 19 20  1  0
 19 37  1  0
 19 38  1  0
 20 21  1  0
 20 39  1  0
 20 40  1  0
 21 22  1  0
 21 41  1  0
 21 42  1  0
 22 23  1  0
 22 43  1  0
 22 44  1  0
 23 45  1  0
 23 46  1  0
 24 25  2  0
 25 47  1  0
M  END

