
     RDKit          3D

 38 39  0  0  0  0  0  0  0  0999 V2000
    2.0257   -0.4906    1.1422 C   0  0  0  0  0  0  0  0  0  0  0  0
    2.8553   -0.1198    0.0633 O   0  0  0  0  0  0  0  0  0  0  0  0
    3.1598   -1.0388   -0.8880 C   0  0  0  0  0  0  0  0  0  0  0  0
    3.9871   -0.6094   -1.9326 C   0  0  0  0  0  0  0  0  0  0  0  0
    4.3357   -1.4865   -2.9567 C   0  0  0  0  0  0  0  0  0  0  0  0
    3.8708   -2.8092   -2.9557 C   0  0  0  0  0  0  0  0  0  0  0  0
    4.1658   -3.7088   -3.9509 O   0  0  0  0  0  0  0  0  0  0  0  0
    4.9218   -3.2882   -5.0690 C   0  0  0  0  0  0  0  0  0  0  0  0
    3.0533   -3.2632   -1.8977 C   0  0  0  0  0  0  0  0  0  0  0  0
    2.5241   -4.7102   -1.9123 C   0  0  1  0  0  0  0  0  0  0  0  0
    1.3455   -4.8502   -2.8984 C   0  0  0  0  0  0  0  0  0  0  0  0
    3.5861   -5.6787   -2.1775 N   0  0  0  0  0  0  0  0  0  0  0  0
    3.8502   -6.5222   -1.1471 C   0  0  0  0  0  0  0  0  0  0  0  0
    4.7126   -7.3561   -1.0293 O   0  0  0  0  0  0  0  0  0  0  0  0
    2.8566   -6.2319   -0.1511 N   0  0  0  0  0  0  0  0  0  0  0  0
    2.8114   -6.9298    1.1265 C   0  0  0  0  0  0  0  0  0  0  0  0
    1.5309   -7.7453    1.3990 C   0  0  0  0  0  0  0  0  0  0  0  0
    1.5835   -8.8854    1.7724 O   0  0  0  0  0  0  0  0  0  0  0  0
    0.3750   -7.0932    1.2515 O   0  0  0  0  0  0  0  0  0  0  0  0
    2.0620   -5.1945   -0.5235 C   0  0  0  0  0  0  0  0  0  0  0  0
    1.1112   -4.7635    0.1196 O   0  0  0  0  0  0  0  0  0  0  0  0
    2.6994   -2.3644   -0.8809 C   0  0  0  0  0  0  0  0  0  0  0  0
    1.9226    0.3996    1.7768 H   0  0  0  0  0  0  0  0  0  0  0  0
    2.4688   -1.3068    1.7411 H   0  0  0  0  0  0  0  0  0  0  0  0
    1.0229   -0.8063    0.8026 H   0  0  0  0  0  0  0  0  0  0  0  0
    4.3455    0.4216   -1.9306 H   0  0  0  0  0  0  0  0  0  0  0  0
    4.9757   -1.1263   -3.7618 H   0  0  0  0  0  0  0  0  0  0  0  0
    4.9989   -4.1559   -5.7376 H   0  0  0  0  0  0  0  0  0  0  0  0
    5.9380   -2.9677   -4.7796 H   0  0  0  0  0  0  0  0  0  0  0  0
    4.4247   -2.4629   -5.6078 H   0  0  0  0  0  0  0  0  0  0  0  0
    1.6707   -4.5570   -3.9057 H   0  0  0  0  0  0  0  0  0  0  0  0
    0.5189   -4.1990   -2.5813 H   0  0  0  0  0  0  0  0  0  0  0  0
    0.9897   -5.8915   -2.9288 H   0  0  0  0  0  0  0  0  0  0  0  0
    4.2239   -5.5571   -2.9551 H   0  0  0  0  0  0  0  0  0  0  0  0
    2.9341   -6.1963    1.9429 H   0  0  0  0  0  0  0  0  0  0  0  0
    3.6604   -7.6232    1.1390 H   0  0  0  0  0  0  0  0  0  0  0  0
    0.5150   -6.1563    0.9754 H   0  0  0  0  0  0  0  0  0  0  0  0
    2.0367   -2.7086   -0.0902 H   0  0  0  0  0  0  0  0  0  0  0  0
  1  2  1  0
  1 23  1  0
  1 24  1  0
  1 25  1  0
  2  3  1  0
  3  4  2  0
  3 22  1  0
  4  5  1  0
  4 26  1  0
  5  6  2  0
  5 27  1  0
  6  7  1  0
  6  9  1  0
  7  8  1  0
  8 28  1  0
  8 29  1  0
  8 30  1  0
  9 10  1  0
  9 22  2  0
 10 11  1  6
 10 12  1  0
 10 20  1  0
 11 31  1  0
 11 32  1  0
 11 33  1  0
 12 13  1  0
 12 34  1  0
 13 14  2  0
 13 15  1  0
 15 16  1  0
 15 20  1  0
 16 17  1  0
 16 35  1  0
 16 36  1  0
 17 18  2  0
 17 19  1  0
 19 37  1  0
 20 21  2  0
 22 38  1  0
M  END

