
     RDKit          3D

 67 70  0  0  0  0  0  0  0  0999 V2000
    1.2634    2.6529    1.1515 C   0  0  0  0  0  0  0  0  0  0  0  0
    2.6881    2.3457    0.6899 C   0  0  0  0  0  0  0  0  0  0  0  0
    3.4645    1.4625    1.6714 C   0  0  0  0  0  0  0  0  0  0  0  0
    4.8937    1.1630    1.2441 C   0  0  0  0  0  0  0  0  0  0  0  0
    5.6179    2.3816    1.2040 O   0  0  0  0  0  0  0  0  0  0  0  0
    6.9263    2.3765    0.8334 C   0  0  0  0  0  0  0  0  0  0  0  0
    7.6546    1.2328    0.4777 C   0  0  0  0  0  0  0  0  0  0  0  0
    9.0020    1.3252    0.1103 C   0  0  0  0  0  0  0  0  0  0  0  0
    9.6492    2.5701    0.0923 C   0  0  0  0  0  0  0  0  0  0  0  0
   10.9994    2.7459   -0.2644 N   0  0  0  0  0  0  0  0  0  0  0  0
   11.9192    1.7996   -0.6534 C   0  0  0  0  0  0  0  0  0  0  0  0
   11.6847    0.6020   -0.7489 O   0  0  0  0  0  0  0  0  0  0  0  0
   13.2564    2.3590   -0.9553 C   0  0  0  0  0  0  0  0  0  0  0  0
   13.4194    3.7283   -0.8230 O   0  0  0  0  0  0  0  0  0  0  0  0
   14.6950    4.0113   -1.1459 C   0  0  0  0  0  0  0  0  0  0  0  0
   15.3736    2.8648   -1.4836 C   0  0  0  0  0  0  0  0  0  0  0  0
   14.4327    1.7708   -1.3627 C   0  0  0  0  0  0  0  0  0  0  0  0
   14.6974    0.3241   -1.6301 C   0  0  0  0  0  0  0  0  0  0  0  0
   16.7934    2.8992   -1.8273 C   0  0  0  0  0  0  0  0  0  0  0  0
   17.3855    1.7901   -2.1109 N   0  0  0  0  0  0  0  0  0  0  0  0
   18.7043    1.7733   -2.3868 N   0  0  0  0  0  0  0  0  0  0  0  0
   19.3607    0.5598   -2.5853 C   0  0  0  0  0  0  0  0  0  0  0  0
   18.8102   -0.5143   -2.4832 O   0  0  0  0  0  0  0  0  0  0  0  0
   20.8250    0.6967   -2.9125 C   0  0  0  0  0  0  0  0  0  0  0  0
   21.6606   -0.3710   -2.5675 C   0  0  0  0  0  0  0  0  0  0  0  0
   23.0278   -0.2991   -2.8526 C   0  0  0  0  0  0  0  0  0  0  0  0
   23.5626    0.8155   -3.4926 C   0  0  0  0  0  0  0  0  0  0  0  0
   22.7257    1.8824   -3.8649 C   0  0  0  0  0  0  0  0  0  0  0  0
   23.3270    2.9151   -4.5082 O   0  0  0  0  0  0  0  0  0  0  0  0
   22.5538    4.0121   -4.9357 C   0  0  0  0  0  0  0  0  0  0  0  0
   21.3556    1.8228   -3.5716 C   0  0  0  0  0  0  0  0  0  0  0  0
   17.4547    4.2724   -1.7478 C   0  0  0  0  0  0  0  0  0  0  0  0
   16.4840    5.4397   -2.0115 C   0  0  0  0  0  0  0  0  0  0  0  0
   15.2334    5.3971   -1.1159 C   0  0  0  0  0  0  0  0  0  0  0  0
    8.9113    3.7158    0.4516 C   0  0  0  0  0  0  0  0  0  0  0  0
    7.5745    3.6235    0.8160 C   0  0  0  0  0  0  0  0  0  0  0  0
    0.7322    3.2882    0.4249 H   0  0  0  0  0  0  0  0  0  0  0  0
    1.2613    3.1824    2.1191 H   0  0  0  0  0  0  0  0  0  0  0  0
    0.6724    1.7303    1.2807 H   0  0  0  0  0  0  0  0  0  0  0  0
    3.2461    3.2850    0.5421 H   0  0  0  0  0  0  0  0  0  0  0  0
    2.6599    1.8495   -0.2977 H   0  0  0  0  0  0  0  0  0  0  0  0
    2.9438    0.4970    1.8032 H   0  0  0  0  0  0  0  0  0  0  0  0
    3.4902    1.9410    2.6665 H   0  0  0  0  0  0  0  0  0  0  0  0
    4.9069    0.6817    0.2466 H   0  0  0  0  0  0  0  0  0  0  0  0
    5.3706    0.4631    1.9562 H   0  0  0  0  0  0  0  0  0  0  0  0
    7.1865    0.2483    0.4801 H   0  0  0  0  0  0  0  0  0  0  0  0
    9.5603    0.4335   -0.1647 H   0  0  0  0  0  0  0  0  0  0  0  0
   11.3406    3.6998   -0.2324 H   0  0  0  0  0  0  0  0  0  0  0  0
   15.5615   -0.0256   -1.0452 H   0  0  0  0  0  0  0  0  0  0  0  0
   14.9846    0.1765   -2.6835 H   0  0  0  0  0  0  0  0  0  0  0  0
   13.8112   -0.2789   -1.4025 H   0  0  0  0  0  0  0  0  0  0  0  0
   19.2694    2.6149   -2.2918 H   0  0  0  0  0  0  0  0  0  0  0  0
   21.2231   -1.2440   -2.0812 H   0  0  0  0  0  0  0  0  0  0  0  0
   23.6859   -1.1265   -2.5754 H   0  0  0  0  0  0  0  0  0  0  0  0
   24.6260    0.8855   -3.7300 H   0  0  0  0  0  0  0  0  0  0  0  0
   23.2445    4.7102   -5.4275 H   0  0  0  0  0  0  0  0  0  0  0  0
   22.0687    4.5306   -4.0881 H   0  0  0  0  0  0  0  0  0  0  0  0
   21.7755    3.7112   -5.6604 H   0  0  0  0  0  0  0  0  0  0  0  0
   20.6922    2.6251   -3.8936 H   0  0  0  0  0  0  0  0  0  0  0  0
   18.2840    4.3403   -2.4718 H   0  0  0  0  0  0  0  0  0  0  0  0
   17.9100    4.3858   -0.7448 H   0  0  0  0  0  0  0  0  0  0  0  0
   16.1632    5.4011   -3.0661 H   0  0  0  0  0  0  0  0  0  0  0  0
   17.0136    6.3952   -1.8743 H   0  0  0  0  0  0  0  0  0  0  0  0
   14.4752    6.1177   -1.4642 H   0  0  0  0  0  0  0  0  0  0  0  0
   15.4872    5.6898   -0.0788 H   0  0  0  0  0  0  0  0  0  0  0  0
    9.3977    4.6963    0.4444 H   0  0  0  0  0  0  0  0  0  0  0  0
    7.0051    4.5125    1.0946 H   0  0  0  0  0  0  0  0  0  0  0  0
  1  2  1  0
  1 37  1  0
  1 38  1  0
  1 39  1  0
  2  3  1  0
  2 40  1  0
  2 41  1  0
  3  4  1  0
  3 42  1  0
  3 43  1  0
  4  5  1  0
  4 44  1  0
  4 45  1  0
  5  6  1  0
  6  7  2  0
  6 36  1  0
  7  8  1  0
  7 46  1  0
  8  9  2  0
  8 47  1  0
  9 10  1  0
  9 35  1  0
 10 11  1  0
 10 48  1  0
 11 12  2  0
 11 13  1  0
 13 14  1  0
 13 17  2  0
 14 15  1  0
 15 16  2  0
 15 34  1  0
 16 17  1  0
 16 19  1  0
 17 18  1  0
 18 49  1  0
 18 50  1  0
 18 51  1  0
 19 20  2  0
 19 32  1  0
 20 21  1  0
 21 22  1  0
 21 52  1  0
 22 23  2  0
 22 24  1  0
 24 25  2  0
 24 31  1  0
 25 26  1  0
 25 53  1  0
 26 27  2  0
 26 54  1  0
 27 28  1  0
 27 55  1  0
 28 29  1  0
 28 31  2  0
 29 30  1  0
 30 56  1  0
 30 57  1  0
 30 58  1  0
 31 59  1  0
 32 33  1  0
 32 60  1  0
 32 61  1  0
 33 34  1  0
 33 62  1  0
 33 63  1  0
 34 64  1  0
 34 65  1  0
 35 36  2  0
 35 66  1  0
 36 67  1  0
M  END

