
     RDKit          3D

 42 43  0  0  0  0  0  0  0  0999 V2000
    1.9065   -0.2262    0.6314 N   0  0  0  0  0  0  0  0  0  0  0  0
    3.1953   -0.5070    0.2135 C   0  0  0  0  0  0  0  0  0  0  0  0
    4.1114    0.5022    0.2529 N   0  0  0  0  0  0  0  0  0  0  0  0
    5.2881    0.0816   -0.1670 C   0  0  0  0  0  0  0  0  0  0  0  0
    6.3770    0.8771   -0.2330 N   0  0  0  0  0  0  0  0  0  0  0  0
    7.6901    0.4343   -0.7036 C   0  0  0  0  0  0  0  0  0  0  0  0
    8.5954    1.6334   -0.4077 C   0  0  0  0  0  0  0  0  0  0  0  0
    7.6516    2.8452   -0.4973 C   0  0  2  0  0  0  0  0  0  0  0  0
    8.2142    4.0447    0.0888 N   0  0  0  0  0  0  0  0  0  0  0  0
    6.3434    2.2924    0.1166 C   0  0  0  0  0  0  0  0  0  0  0  0
    5.3562   -1.6028   -0.6690 S   0  0  0  0  0  0  0  0  0  0  0  0
    3.6550   -1.7467   -0.2226 C   0  0  0  0  0  0  0  0  0  0  0  0
    3.0024   -3.0442   -0.3750 C   0  0  0  0  0  0  0  0  0  0  0  0
    3.5167   -3.9743   -0.9877 O   0  0  0  0  0  0  0  0  0  0  0  0
    1.7419   -3.1496    0.2074 N   0  0  0  0  0  0  0  0  0  0  0  0
    1.0698   -4.4350    0.2384 C   0  0  0  0  0  0  0  0  0  0  0  0
    1.3394   -5.2109    1.5198 C   0  0  0  0  0  0  0  0  0  0  0  0
    0.8735   -4.4410    2.6112 O   0  0  0  0  0  0  0  0  0  0  0  0
    1.1741   -4.9691    3.8879 C   0  0  0  0  0  0  0  0  0  0  0  0
    0.4653   -4.0980    4.9105 C   0  0  0  0  0  0  0  0  0  0  0  0
   -0.9263   -4.0904    4.7019 O   0  0  0  0  0  0  0  0  0  0  0  0
    1.7283    0.7692    0.7197 H   0  0  0  0  0  0  0  0  0  0  0  0
    1.1734   -0.7301    0.1407 H   0  0  0  0  0  0  0  0  0  0  0  0
    7.6571    0.1992   -1.7851 H   0  0  0  0  0  0  0  0  0  0  0  0
    8.0066   -0.4850   -0.1810 H   0  0  0  0  0  0  0  0  0  0  0  0
    9.4501    1.7115   -1.0939 H   0  0  0  0  0  0  0  0  0  0  0  0
    8.9972    1.5656    0.6184 H   0  0  0  0  0  0  0  0  0  0  0  0
    7.4630    3.0559   -1.5654 H   0  0  0  0  0  0  0  0  0  0  0  0
    8.3256    3.9381    1.0984 H   0  0  0  0  0  0  0  0  0  0  0  0
    7.6038    4.8482   -0.0575 H   0  0  0  0  0  0  0  0  0  0  0  0
    5.4311    2.7686   -0.2746 H   0  0  0  0  0  0  0  0  0  0  0  0
    6.3413    2.4348    1.2158 H   0  0  0  0  0  0  0  0  0  0  0  0
    1.5709   -2.5591    1.0176 H   0  0  0  0  0  0  0  0  0  0  0  0
    1.4274   -5.0190   -0.6204 H   0  0  0  0  0  0  0  0  0  0  0  0
   -0.0182   -4.2836    0.1313 H   0  0  0  0  0  0  0  0  0  0  0  0
    2.4256   -5.4036    1.6183 H   0  0  0  0  0  0  0  0  0  0  0  0
    0.8253   -6.1935    1.4882 H   0  0  0  0  0  0  0  0  0  0  0  0
    2.2690   -4.9791    4.0661 H   0  0  0  0  0  0  0  0  0  0  0  0
    0.8063   -6.0123    3.9655 H   0  0  0  0  0  0  0  0  0  0  0  0
    0.8956   -3.0754    4.8675 H   0  0  0  0  0  0  0  0  0  0  0  0
    0.6533   -4.4918    5.9229 H   0  0  0  0  0  0  0  0  0  0  0  0
   -1.0496   -3.9098    3.7584 H   0  0  0  0  0  0  0  0  0  0  0  0
  1  2  1  0
  1 22  1  0
  1 23  1  0
  2  3  2  0
  2 12  1  0
  3  4  1  0
  4  5  1  0
  4 11  2  0
  5  6  1  0
  5 10  1  0
  6  7  1  0
  6 24  1  0
  6 25  1  0
  7  8  1  0
  7 26  1  0
  7 27  1  0
  8  9  1  0
  8 10  1  0
  8 28  1  6
  9 29  1  0
  9 30  1  0
 10 31  1  0
 10 32  1  0
 11 12  1  0
 12 13  2  0
 13 14  1  0
 13 15  1  0
 15 16  1  0
 15 33  1  0
 16 17  1  0
 16 34  1  0
 16 35  1  0
 17 18  1  0
 17 36  1  0
 17 37  1  0
 18 19  1  0
 19 20  1  0
 19 38  1  0
 19 39  1  0
 20 21  1  0
 20 40  1  0
 20 41  1  0
 21 42  1  0
M  CHG  2  11   1  14  -1
M  END

