
     RDKit          3D

122134  0  0  0  0  0  0  0  0999 V2000
    5.2459    1.2687    1.4421 C   0  0  0  0  0  0  0  0  0  0  0  0
    4.2347    0.7546    0.4166 C   0  0  0  0  0  0  0  0  0  0  0  0
    4.1678    1.5559   -0.8054 N   0  0  0  0  0  0  0  0  0  0  0  0
    3.5646    2.7983   -0.9095 C   0  0  0  0  0  0  0  0  0  0  0  0
    2.8738    3.4586    0.2228 C   0  0  0  0  0  0  0  0  0  0  0  0
    3.3271    4.6975    0.7125 C   0  0  0  0  0  0  0  0  0  0  0  0
    2.6747    5.3412    1.7625 C   0  0  0  0  0  0  0  0  0  0  0  0
    1.5391    4.7778    2.3762 C   0  0  0  0  0  0  0  0  0  0  0  0
    0.8467    5.4625    3.4985 C   0  0  0  0  0  0  0  0  0  0  0  0
    0.7442    6.8692    3.5333 C   0  0  0  0  0  0  0  0  0  0  0  0
    0.0977    7.5295    4.5796 C   0  0  0  0  0  0  0  0  0  0  0  0
   -0.4615    6.7792    5.6190 C   0  0  0  0  0  0  0  0  0  0  0  0
   -0.3697    5.3713    5.6011 C   0  0  0  0  0  0  0  0  0  0  0  0
    0.2747    4.7206    4.5551 C   0  0  0  0  0  0  0  0  0  0  0  0
   -1.0392    4.7650    6.8366 C   0  0  1  0  0  0  0  0  0  0  0  0
   -2.2166    3.8463    6.4442 C   0  0  0  0  0  0  0  0  0  0  0  0
   -0.0236    3.9864    7.7011 C   0  0  0  0  0  0  0  0  0  0  0  0
   -1.5304    6.0239    7.5545 C   0  0  0  0  0  0  0  0  0  0  0  0
   -2.2285    6.1291    8.7555 C   0  0  0  0  0  0  0  0  0  0  0  0
   -2.5812    7.3993    9.2335 C   0  0  0  0  0  0  0  0  0  0  0  0
   -2.2372    8.5515    8.5144 C   0  0  0  0  0  0  0  0  0  0  0  0
   -1.5362    8.4534    7.3080 C   0  0  0  0  0  0  0  0  0  0  0  0
   -1.1844    7.1859    6.8306 C   0  0  0  0  0  0  0  0  0  0  0  0
    1.0824    3.5418    1.8800 C   0  0  0  0  0  0  0  0  0  0  0  0
    1.7304    2.9002    0.8246 C   0  0  0  0  0  0  0  0  0  0  0  0
    3.7641    3.2733   -2.2073 C   0  0  0  0  0  0  0  0  0  0  0  0
    3.3126    4.5819   -2.7324 C   0  0  0  0  0  0  0  0  0  0  0  0
    4.2271    5.4250   -3.4372 C   0  0  0  0  0  0  0  0  0  0  0  0
    3.8395    6.6548   -3.9191 C   0  0  0  0  0  0  0  0  0  0  0  0
    2.5119    7.1331   -3.7344 C   0  0  0  0  0  0  0  0  0  0  0  0
    2.0760    8.3977   -4.2183 C   0  0  0  0  0  0  0  0  0  0  0  0
    0.7785    8.8227   -4.0190 C   0  0  0  0  0  0  0  0  0  0  0  0
   -0.1436    7.9986   -3.3241 C   0  0  0  0  0  0  0  0  0  0  0  0
    0.2490    6.7672   -2.8422 C   0  0  0  0  0  0  0  0  0  0  0  0
    1.5808    6.2987   -3.0303 C   0  0  0  0  0  0  0  0  0  0  0  0
    2.0130    5.0330   -2.5484 C   0  0  0  0  0  0  0  0  0  0  0  0
    4.5116    2.2701   -2.9150 C   0  0  0  0  0  0  0  0  0  0  0  0
    4.9247    2.3096   -4.3363 C   0  0  0  0  0  0  0  0  0  0  0  0
    3.9783    2.6556   -5.3504 C   0  0  0  0  0  0  0  0  0  0  0  0
    4.3328    2.6817   -6.6804 C   0  0  0  0  0  0  0  0  0  0  0  0
    5.6568    2.3662   -7.0959 C   0  0  0  0  0  0  0  0  0  0  0  0
    6.0590    2.3826   -8.4603 C   0  0  0  0  0  0  0  0  0  0  0  0
    7.3542    2.0716   -8.8201 C   0  0  0  0  0  0  0  0  0  0  0  0
    8.3079    1.7291   -7.8273 C   0  0  0  0  0  0  0  0  0  0  0  0
    7.9486    1.7037   -6.4958 C   0  0  0  0  0  0  0  0  0  0  0  0
    6.6199    2.0186   -6.0905 C   0  0  0  0  0  0  0  0  0  0  0  0
    6.2213    2.0043   -4.7262 C   0  0  0  0  0  0  0  0  0  0  0  0
    4.7486    1.2235   -2.0203 C   0  0  0  0  0  0  0  0  0  0  0  0
    5.4044   -0.0782   -2.2817 C   0  0  0  0  0  0  0  0  0  0  0  0
    6.5278   -0.5216   -1.5583 C   0  0  0  0  0  0  0  0  0  0  0  0
    7.1340   -1.7457   -1.8397 C   0  0  0  0  0  0  0  0  0  0  0  0
    6.6539   -2.5818   -2.8653 C   0  0  0  0  0  0  0  0  0  0  0  0
    7.3046   -3.8818   -3.1715 C   0  0  0  0  0  0  0  0  0  0  0  0
    7.8441   -4.6811   -2.1417 C   0  0  0  0  0  0  0  0  0  0  0  0
    8.4595   -5.9048   -2.4115 C   0  0  0  0  0  0  0  0  0  0  0  0
    8.5446   -6.3489   -3.7350 C   0  0  0  0  0  0  0  0  0  0  0  0
    8.0112   -5.5629   -4.7783 C   0  0  0  0  0  0  0  0  0  0  0  0
    7.3984   -4.3461   -4.5018 C   0  0  0  0  0  0  0  0  0  0  0  0
    8.2279   -6.2370   -6.1351 C   0  0  1  0  0  0  0  0  0  0  0  0
    6.8843   -6.5491   -6.8290 C   0  0  0  0  0  0  0  0  0  0  0  0
    9.1130   -5.3705   -7.0575 C   0  0  0  0  0  0  0  0  0  0  0  0
    8.9499   -7.5193   -5.7160 C   0  0  0  0  0  0  0  0  0  0  0  0
    9.4149   -8.5617   -6.5149 C   0  0  0  0  0  0  0  0  0  0  0  0
   10.0569   -9.6528   -5.9120 C   0  0  0  0  0  0  0  0  0  0  0  0
   10.2308   -9.6977   -4.5226 C   0  0  0  0  0  0  0  0  0  0  0  0
    9.7668   -8.6548   -3.7143 C   0  0  0  0  0  0  0  0  0  0  0  0
    9.1256   -7.5660   -4.3156 C   0  0  0  0  0  0  0  0  0  0  0  0
    5.5350   -2.1328   -3.5937 C   0  0  0  0  0  0  0  0  0  0  0  0
    4.9241   -0.9137   -3.3083 C   0  0  0  0  0  0  0  0  0  0  0  0
    5.2620    0.6009    2.3183 H   0  0  0  0  0  0  0  0  0  0  0  0
    4.9839    2.2789    1.7900 H   0  0  0  0  0  0  0  0  0  0  0  0
    6.2630    1.3062    1.0228 H   0  0  0  0  0  0  0  0  0  0  0  0
    3.2341    0.7235    0.8700 H   0  0  0  0  0  0  0  0  0  0  0  0
    4.4782   -0.2737    0.1186 H   0  0  0  0  0  0  0  0  0  0  0  0
    4.2117    5.1550    0.2643 H   0  0  0  0  0  0  0  0  0  0  0  0
    3.0721    6.2892    2.1321 H   0  0  0  0  0  0  0  0  0  0  0  0
    1.1575    7.4549    2.7092 H   0  0  0  0  0  0  0  0  0  0  0  0
    0.0265    8.6202    4.5741 H   0  0  0  0  0  0  0  0  0  0  0  0
    0.3664    3.6315    4.5570 H   0  0  0  0  0  0  0  0  0  0  0  0
   -1.8588    2.9751    5.8720 H   0  0  0  0  0  0  0  0  0  0  0  0
   -2.9514    4.3842    5.8262 H   0  0  0  0  0  0  0  0  0  0  0  0
   -2.7337    3.4692    7.3412 H   0  0  0  0  0  0  0  0  0  0  0  0
    0.3735    3.1180    7.1511 H   0  0  0  0  0  0  0  0  0  0  0  0
   -0.5004    3.6121    8.6213 H   0  0  0  0  0  0  0  0  0  0  0  0
    0.8242    4.6256    7.9904 H   0  0  0  0  0  0  0  0  0  0  0  0
   -2.5024    5.2370    9.3258 H   0  0  0  0  0  0  0  0  0  0  0  0
   -3.1291    7.4915   10.1749 H   0  0  0  0  0  0  0  0  0  0  0  0
   -2.5190    9.5348    8.8997 H   0  0  0  0  0  0  0  0  0  0  0  0
   -1.2699    9.3550    6.7504 H   0  0  0  0  0  0  0  0  0  0  0  0
    0.1805    3.0920    2.3016 H   0  0  0  0  0  0  0  0  0  0  0  0
    1.3203    1.9638    0.4376 H   0  0  0  0  0  0  0  0  0  0  0  0
    5.2536    5.0831   -3.5834 H   0  0  0  0  0  0  0  0  0  0  0  0
    4.5576    7.2848   -4.4516 H   0  0  0  0  0  0  0  0  0  0  0  0
    2.7895    9.0303   -4.7541 H   0  0  0  0  0  0  0  0  0  0  0  0
    0.4561    9.7966   -4.3965 H   0  0  0  0  0  0  0  0  0  0  0  0
   -1.1691    8.3448   -3.1712 H   0  0  0  0  0  0  0  0  0  0  0  0
   -0.4607    6.1317   -2.3050 H   0  0  0  0  0  0  0  0  0  0  0  0
    1.2906    4.4020   -2.0257 H   0  0  0  0  0  0  0  0  0  0  0  0
    2.9540    2.8933   -5.0565 H   0  0  0  0  0  0  0  0  0  0  0  0
    3.5906    2.9452   -7.4393 H   0  0  0  0  0  0  0  0  0  0  0  0
    5.3213    2.6479   -9.2230 H   0  0  0  0  0  0  0  0  0  0  0  0
    7.6506    2.0888   -9.8721 H   0  0  0  0  0  0  0  0  0  0  0  0
    9.3316    1.4847   -8.1229 H   0  0  0  0  0  0  0  0  0  0  0  0
    8.6827    1.4387   -5.7298 H   0  0  0  0  0  0  0  0  0  0  0  0
    6.9669    1.7499   -3.9694 H   0  0  0  0  0  0  0  0  0  0  0  0
    6.9551    0.1155   -0.7811 H   0  0  0  0  0  0  0  0  0  0  0  0
    8.0216   -2.0405   -1.2752 H   0  0  0  0  0  0  0  0  0  0  0  0
    7.7558   -4.3470   -1.1055 H   0  0  0  0  0  0  0  0  0  0  0  0
    8.8601   -6.5062   -1.5914 H   0  0  0  0  0  0  0  0  0  0  0  0
    7.0093   -3.7275   -5.3145 H   0  0  0  0  0  0  0  0  0  0  0  0
    6.3434   -5.6196   -7.0692 H   0  0  0  0  0  0  0  0  0  0  0  0
    6.2384   -7.1656   -6.1856 H   0  0  0  0  0  0  0  0  0  0  0  0
    7.0495   -7.0945   -7.7721 H   0  0  0  0  0  0  0  0  0  0  0  0
    8.6116   -4.4198   -7.3002 H   0  0  0  0  0  0  0  0  0  0  0  0
    9.3182   -5.8939   -8.0052 H   0  0  0  0  0  0  0  0  0  0  0  0
   10.0764   -5.1375   -6.5793 H   0  0  0  0  0  0  0  0  0  0  0  0
    9.2852   -8.5377   -7.6006 H   0  0  0  0  0  0  0  0  0  0  0  0
   10.4248  -10.4751   -6.5311 H   0  0  0  0  0  0  0  0  0  0  0  0
   10.7332  -10.5550   -4.0670 H   0  0  0  0  0  0  0  0  0  0  0  0
    9.9047   -8.6941   -2.6306 H   0  0  0  0  0  0  0  0  0  0  0  0
    5.1157   -2.7640   -4.3804 H   0  0  0  0  0  0  0  0  0  0  0  0
    4.0497   -0.6011   -3.8825 H   0  0  0  0  0  0  0  0  0  0  0  0
  1  2  1  0
  1 70  1  0
  1 71  1  0
  1 72  1  0
  2  3  1  0
  2 73  1  0
  2 74  1  0
  3  4  1  0
  3 48  1  0
  4  5  1  0
  4 26  2  0
  5  6  2  0
  5 25  1  0
  6  7  1  0
  6 75  1  0
  7  8  2  0
  7 76  1  0
  8  9  1  0
  8 24  1  0
  9 10  2  0
  9 14  1  0
 10 11  1  0
 10 77  1  0
 11 12  2  0
 11 78  1  0
 12 13  1  0
 12 23  1  0
 13 14  2  0
 13 15  1  0
 14 79  1  0
 15 16  1  6
 15 17  1  0
 15 18  1  0
 16 80  1  0
 16 81  1  0
 16 82  1  0
 17 83  1  0
 17 84  1  0
 17 85  1  0
 18 19  1  0
 18 23  2  0
 19 20  2  0
 19 86  1  0
 20 21  1  0
 20 87  1  0
 21 22  2  0
 21 88  1  0
 22 23  1  0
 22 89  1  0
 24 25  2  0
 24 90  1  0
 25 91  1  0
 26 27  1  0
 26 37  1  0
 27 28  2  0
 27 36  1  0
 28 29  1  0
 28 92  1  0
 29 30  2  0
 29 93  1  0
 30 31  1  0
 30 35  1  0
 31 32  2  0
 31 94  1  0
 32 33  1  0
 32 95  1  0
 33 34  2  0
 33 96  1  0
 34 35  1  0
 34 97  1  0
 35 36  2  0
 36 98  1  0
 37 38  1  0
 37 48  2  0
 38 39  2  0
 38 47  1  0
 39 40  1  0
 39 99  1  0
 40 41  2  0
 40100  1  0
 41 42  1  0
 41 46  1  0
 42 43  2  0
 42101  1  0
 43 44  1  0
 43102  1  0
 44 45  2  0
 44103  1  0
 45 46  1  0
 45104  1  0
 46 47  2  0
 47105  1  0
 48 49  1  0
 49 50  2  0
 49 69  1  0
 50 51  1  0
 50106  1  0
 51 52  2  0
 51107  1  0
 52 53  1  0
 52 68  1  0
 53 54  2  0
 53 58  1  0
 54 55  1  0
 54108  1  0
 55 56  2  0
 55109  1  0
 56 57  1  0
 56 67  1  0
 57 58  2  0
 57 59  1  0
 58110  1  0
 59 60  1  6
 59 61  1  0
 59 62  1  0
 60111  1  0
 60112  1  0
 60113  1  0
 61114  1  0
 61115  1  0
 61116  1  0
 62 63  1  0
 62 67  2  0
 63 64  2  0
 63117  1  0
 64 65  1  0
 64118  1  0
 65 66  2  0
 65119  1  0
 66 67  1  0
 66120  1  0
 68 69  2  0
 68121  1  0
 69122  1  0
M  END

