
     RDKit          3D

 45 46  0  0  0  0  0  0  0  0999 V2000
    0.7362   -0.1164    0.3694 C   0  0  0  0  0  0  0  0  0  0  0  0
    2.1519   -0.3711    0.1545 N   0  0  0  0  0  0  0  0  0  0  0  0
    2.7549   -1.1067    1.2632 C   0  0  0  0  0  0  0  0  0  0  0  0
    4.2680   -0.9050    1.3642 C   0  0  0  0  0  0  0  0  0  0  0  0
    4.8410   -1.5514    2.6257 C   0  0  0  0  0  0  0  0  0  0  0  0
    4.1112   -2.0978    3.4403 O   0  0  0  0  0  0  0  0  0  0  0  0
    6.2041   -1.4871    2.8074 N   0  0  0  0  0  0  0  0  0  0  0  0
    7.1723   -0.8822    1.9018 C   0  0  0  0  0  0  0  0  0  0  0  0
    8.1209    0.0289    2.6875 C   0  0  0  0  0  0  0  0  0  0  0  0
    8.7244   -0.6548    3.7623 O   0  0  0  0  0  0  0  0  0  0  0  0
    7.7630   -1.1688    4.6665 C   0  0  0  0  0  0  0  0  0  0  0  0
    6.8070   -2.1336    3.9707 C   0  0  0  0  0  0  0  0  0  0  0  0
    2.4053   -0.9699   -1.1484 C   0  0  0  0  0  0  0  0  0  0  0  0
    2.1997   -0.0200   -2.3152 C   0  0  0  0  0  0  0  0  0  0  0  0
    2.6036    1.3232   -2.2309 C   0  0  0  0  0  0  0  0  0  0  0  0
    2.4736    2.1831   -3.3186 C   0  0  0  0  0  0  0  0  0  0  0  0
    1.9267    1.7104   -4.5171 C   0  0  0  0  0  0  0  0  0  0  0  0
    1.8130    2.6286   -5.5437 O   0  0  0  0  0  0  0  0  0  0  0  0
    1.8753    2.1975   -6.8367 C   0  0  1  0  0  0  0  0  0  0  0  0
    0.6738    1.7107   -7.2462 F   0  0  0  0  0  0  0  0  0  0  0  0
    2.1565    3.2622   -7.5972 F   0  0  0  0  0  0  0  0  0  0  0  0
    1.4968    0.3838   -4.6207 C   0  0  0  0  0  0  0  0  0  0  0  0
    1.6435   -0.4672   -3.5190 C   0  0  0  0  0  0  0  0  0  0  0  0
    0.5899    0.4402    1.3078 H   0  0  0  0  0  0  0  0  0  0  0  0
    0.1309   -1.0496    0.4275 H   0  0  0  0  0  0  0  0  0  0  0  0
    0.3313    0.4931   -0.4523 H   0  0  0  0  0  0  0  0  0  0  0  0
    2.5251   -2.1934    1.2220 H   0  0  0  0  0  0  0  0  0  0  0  0
    2.3039   -0.7505    2.1999 H   0  0  0  0  0  0  0  0  0  0  0  0
    4.4816    0.1778    1.3659 H   0  0  0  0  0  0  0  0  0  0  0  0
    4.7849   -1.3158    0.4807 H   0  0  0  0  0  0  0  0  0  0  0  0
    6.6670   -0.3006    1.1214 H   0  0  0  0  0  0  0  0  0  0  0  0
    7.7661   -1.6735    1.4035 H   0  0  0  0  0  0  0  0  0  0  0  0
    7.5543    0.9096    3.0573 H   0  0  0  0  0  0  0  0  0  0  0  0
    8.9316    0.3884    2.0351 H   0  0  0  0  0  0  0  0  0  0  0  0
    7.1855   -0.3388    5.1235 H   0  0  0  0  0  0  0  0  0  0  0  0
    8.3181   -1.6839    5.4651 H   0  0  0  0  0  0  0  0  0  0  0  0
    5.9968   -2.4537    4.6380 H   0  0  0  0  0  0  0  0  0  0  0  0
    7.3680   -3.0305    3.6450 H   0  0  0  0  0  0  0  0  0  0  0  0
    1.7887   -1.8843   -1.3108 H   0  0  0  0  0  0  0  0  0  0  0  0
    3.4538   -1.3127   -1.1706 H   0  0  0  0  0  0  0  0  0  0  0  0
    3.0162    1.6886   -1.2880 H   0  0  0  0  0  0  0  0  0  0  0  0
    2.7898    3.2267   -3.2617 H   0  0  0  0  0  0  0  0  0  0  0  0
    2.6353    1.4085   -6.9880 H   0  0  0  0  0  0  0  0  0  0  0  0
    1.0203    0.0229   -5.5328 H   0  0  0  0  0  0  0  0  0  0  0  0
    1.2996   -1.5022   -3.6029 H   0  0  0  0  0  0  0  0  0  0  0  0
  1  2  1  0
  1 24  1  0
  1 25  1  0
  1 26  1  0
  2  3  1  0
  2 13  1  0
  3  4  1  0
  3 27  1  0
  3 28  1  0
  4  5  1  0
  4 29  1  0
  4 30  1  0
  5  6  2  0
  5  7  1  0
  7  8  1  0
  7 12  1  0
  8  9  1  0
  8 31  1  0
  8 32  1  0
  9 10  1  0
  9 33  1  0
  9 34  1  0
 10 11  1  0
 11 12  1  0
 11 35  1  0
 11 36  1  0
 12 37  1  0
 12 38  1  0
 13 14  1  0
 13 39  1  0
 13 40  1  0
 14 15  2  0
 14 23  1  0
 15 16  1  0
 15 41  1  0
 16 17  2  0
 16 42  1  0
 17 18  1  0
 17 22  1  0
 18 19  1  0
 19 20  1  0
 19 21  1  0
 19 43  1  1
 22 23  2  0
 22 44  1  0
 23 45  1  0
M  END

