
     RDKit          3D

 51 48  0  0  0  0  0  0  0  0999 V2000
    2.3497   -1.3952   -2.5594 C   0  0  0  0  0  0  0  0  0  0  0  0
    3.8135   -1.7972   -2.5669 C   0  0  0  0  0  0  0  0  0  0  0  0
    4.5533   -1.1451   -1.5117 O   0  0  0  0  0  0  0  0  0  0  0  0
    5.2202    0.3179   -1.7393 P   0  0  0  0  0  0  0  0  0  0  0  0
    5.3897    0.7323   -3.1582 O   0  0  0  0  0  0  0  0  0  0  0  0
    4.3539    1.3670   -0.8977 O   0  0  0  0  0  0  0  0  0  0  0  0
    3.6789    1.1388    0.3707 C   0  0  0  0  0  0  0  0  0  0  0  0
    3.3570    2.4868    0.9784 C   0  0  0  0  0  0  0  0  0  0  0  0
    6.9010    0.1554   -0.9578 C   0  0  0  0  0  0  0  0  0  0  0  0
    7.5688    1.4463   -1.0260 N   0  0  0  0  0  0  0  0  0  0  0  0
    7.3565    2.4388   -0.0944 C   0  0  0  0  0  0  0  0  0  0  0  0
    6.7969    2.2107    0.9625 O   0  0  0  0  0  0  0  0  0  0  0  0
    7.8737    3.8144   -0.4831 C   0  0  0  0  0  0  0  0  0  0  0  0
    8.2943    4.6482    0.7265 C   0  0  0  0  0  0  0  0  0  0  0  0
    8.5975    6.0159    0.3216 N   0  0  0  0  0  0  0  0  0  0  0  0
    7.0725   -0.7549    0.6548 P   0  0  0  0  0  0  0  0  0  0  0  0
    5.9687   -0.7402    1.6449 O   0  0  0  0  0  0  0  0  0  0  0  0
    7.3702   -2.2365    0.0312 O   0  0  0  0  0  0  0  0  0  0  0  0
    6.9742   -3.4263    0.7445 C   0  0  0  0  0  0  0  0  0  0  0  0
    5.7935   -4.0879    0.0595 C   0  0  0  0  0  0  0  0  0  0  0  0
    8.4932   -0.2921    1.2697 O   0  0  0  0  0  0  0  0  0  0  0  0
    9.7703   -0.5336    0.6638 C   0  0  0  0  0  0  0  0  0  0  0  0
   10.8469   -0.2908    1.7032 C   0  0  0  0  0  0  0  0  0  0  0  0
    1.8019   -1.9577   -3.3329 H   0  0  0  0  0  0  0  0  0  0  0  0
    2.2359   -0.3216   -2.7766 H   0  0  0  0  0  0  0  0  0  0  0  0
    1.8854   -1.6088   -1.5840 H   0  0  0  0  0  0  0  0  0  0  0  0
    4.2832   -1.5529   -3.5326 H   0  0  0  0  0  0  0  0  0  0  0  0
    3.9323   -2.8748   -2.3792 H   0  0  0  0  0  0  0  0  0  0  0  0
    4.3263    0.5457    1.0311 H   0  0  0  0  0  0  0  0  0  0  0  0
    2.7624    0.5641    0.1574 H   0  0  0  0  0  0  0  0  0  0  0  0
    4.2853    3.0238    1.2208 H   0  0  0  0  0  0  0  0  0  0  0  0
    2.7863    2.3430    1.9100 H   0  0  0  0  0  0  0  0  0  0  0  0
    2.7532    3.1005    0.2913 H   0  0  0  0  0  0  0  0  0  0  0  0
    7.4181   -0.5164   -1.6602 H   0  0  0  0  0  0  0  0  0  0  0  0
    7.8440    1.7326   -1.9607 H   0  0  0  0  0  0  0  0  0  0  0  0
    7.0583    4.3436   -1.0077 H   0  0  0  0  0  0  0  0  0  0  0  0
    8.7028    3.7234   -1.2067 H   0  0  0  0  0  0  0  0  0  0  0  0
    9.1234    4.1257    1.2516 H   0  0  0  0  0  0  0  0  0  0  0  0
    7.4532    4.6637    1.4361 H   0  0  0  0  0  0  0  0  0  0  0  0
    9.4654    6.0479   -0.2155 H   0  0  0  0  0  0  0  0  0  0  0  0
    8.7530    6.6017    1.1415 H   0  0  0  0  0  0  0  0  0  0  0  0
    6.7212   -3.1657    1.7838 H   0  0  0  0  0  0  0  0  0  0  0  0
    7.8547   -4.0891    0.7550 H   0  0  0  0  0  0  0  0  0  0  0  0
    4.9221   -3.4172    0.0755 H   0  0  0  0  0  0  0  0  0  0  0  0
    5.5299   -5.0235    0.5791 H   0  0  0  0  0  0  0  0  0  0  0  0
    6.0328   -4.3288   -0.9883 H   0  0  0  0  0  0  0  0  0  0  0  0
    9.8949    0.1482   -0.1958 H   0  0  0  0  0  0  0  0  0  0  0  0
    9.8094   -1.5686    0.2854 H   0  0  0  0  0  0  0  0  0  0  0  0
   10.7983    0.7419    2.0806 H   0  0  0  0  0  0  0  0  0  0  0  0
   11.8430   -0.4568    1.2628 H   0  0  0  0  0  0  0  0  0  0  0  0
   10.7235   -0.9737    2.5576 H   0  0  0  0  0  0  0  0  0  0  0  0
  1  2  1  0
  1 24  1  0
  1 25  1  0
  1 26  1  0
  2  3  1  0
  2 27  1  0
  2 28  1  0
  3  4  1  0
  4  5  1  0
  4  6  1  0
  6  7  1  0
  7  8  1  0
  7 29  1  0
  7 30  1  0
  8 31  1  0
  8 32  1  0
  8 33  1  0
  9 10  2  0
  9 34  1  0
 10 11  1  0
 10 35  1  0
 11 12  2  0
 11 13  1  0
 13 14  1  0
 13 36  1  0
 13 37  1  0
 14 15  1  0
 14 38  1  0
 14 39  1  0
 15 40  1  0
 15 41  1  0
 16 17  1  0
 16 18  2  0
 16 21  2  0
 18 19  1  0
 19 20  1  0
 19 42  1  0
 19 43  1  0
 20 44  1  0
 20 45  1  0
 20 46  1  0
 21 22  1  0
 22 23  1  0
 22 47  1  0
 22 48  1  0
 23 49  1  0
 23 50  1  0
 23 51  1  0
M  CHG  6   5  -1   9  -1  10   1  17  -1  18   1  21   1
M  END

