
     RDKit          3D

 71 75  0  0  0  0  0  0  0  0999 V2000
    4.8797    1.2028   -2.7238 C   0  0  0  0  0  0  0  0  0  0  0  0
    3.7816    0.2165   -2.2932 C   0  0  1  0  0  0  0  0  0  0  0  0
    2.4242    0.7439   -2.7670 C   0  0  0  0  0  0  0  0  0  0  0  0
    4.1087   -1.1330   -2.7995 N   0  0  0  0  0  0  0  0  0  0  0  0
    5.1614   -1.8064   -2.0440 C   0  0  0  0  0  0  0  0  0  0  0  0
    4.6555   -2.5836   -0.8193 C   0  0  0  0  0  0  0  0  0  0  0  0
    3.6326   -3.5475   -1.2164 N   0  0  0  0  0  0  0  0  0  0  0  0
    3.1579   -4.4746   -0.1835 C   0  0  2  0  0  0  0  0  0  0  0  0
    2.3237   -4.0174    0.3985 H   0  0  0  0  0  0  0  0  0  0  0  0
    4.2309   -4.9174    0.8182 C   0  0  0  0  0  0  0  0  0  0  0  0
    3.6807   -5.9781    1.7805 C   0  0  0  0  0  0  0  0  0  0  0  0
    3.0308   -7.1681    1.0539 C   0  0  1  0  0  0  0  0  0  0  0  0
    4.1575   -8.0399    0.4065 C   0  0  0  0  0  0  0  0  0  0  0  0
    5.2945   -7.9783    0.8427 O   0  0  0  0  0  0  0  0  0  0  0  0
    3.8459   -8.8935   -0.6408 N   0  0  0  0  0  0  0  0  0  0  0  0
    4.8720   -9.7825   -1.1242 C   0  0  0  0  0  0  0  0  0  0  0  0
    4.6424  -11.1272   -0.7108 O   0  0  0  0  0  0  0  0  0  0  0  0
    3.3736  -11.5839   -0.8595 C   0  0  0  0  0  0  0  0  0  0  0  0
    3.1581  -12.9631   -0.7301 C   0  0  0  0  0  0  0  0  0  0  0  0
    1.8764  -13.4861   -0.8735 C   0  0  0  0  0  0  0  0  0  0  0  0
    0.7975  -12.6348   -1.1433 C   0  0  0  0  0  0  0  0  0  0  0  0
   -0.6012  -13.1677   -1.3009 C   0  0  1  0  0  0  0  0  0  0  0  0
   -0.6541  -14.5050   -1.1819 F   0  0  0  0  0  0  0  0  0  0  0  0
   -1.4390  -12.6511   -0.3783 F   0  0  0  0  0  0  0  0  0  0  0  0
   -1.1225  -12.8519   -2.5040 F   0  0  0  0  0  0  0  0  0  0  0  0
    1.0149  -11.2568   -1.2558 C   0  0  0  0  0  0  0  0  0  0  0  0
    2.2932  -10.7129   -1.1144 C   0  0  0  0  0  0  0  0  0  0  0  0
    2.5350   -9.2179   -1.2038 C   0  0  0  0  0  0  0  0  0  0  0  0
    2.2350   -8.0946    1.9790 C   0  0  2  0  0  0  0  0  0  0  0  0
    1.2265   -7.5707    2.9692 C   0  0  0  0  0  0  0  0  0  0  0  0
    2.4949   -8.2167    3.4596 C   0  0  0  0  0  0  0  0  0  0  0  0
    2.0954   -6.6772    0.0882 O   0  0  0  0  0  0  0  0  0  0  0  0
    2.6126   -5.7479   -0.8524 C   0  0  0  0  0  0  0  0  0  0  0  0
    2.5396   -2.8506   -1.8931 C   0  0  0  0  0  0  0  0  0  0  0  0
    3.0339   -2.0776   -3.1335 C   0  0  2  0  0  0  0  0  0  0  0  0
    2.1810   -1.5017   -3.5132 H   0  0  0  0  0  0  0  0  0  0  0  0
    3.4610   -3.0277   -4.2631 C   0  0  0  0  0  0  0  0  0  0  0  0
    4.7054    2.1991   -2.2859 H   0  0  0  0  0  0  0  0  0  0  0  0
    4.8921    1.2964   -3.8216 H   0  0  0  0  0  0  0  0  0  0  0  0
    5.8810    0.8753   -2.4068 H   0  0  0  0  0  0  0  0  0  0  0  0
    3.7498    0.2179   -1.1806 H   0  0  0  0  0  0  0  0  0  0  0  0
    2.3544    0.7392   -3.8673 H   0  0  0  0  0  0  0  0  0  0  0  0
    2.3046    1.7853   -2.4311 H   0  0  0  0  0  0  0  0  0  0  0  0
    1.5755    0.1733   -2.3615 H   0  0  0  0  0  0  0  0  0  0  0  0
    5.9099   -1.0707   -1.7165 H   0  0  0  0  0  0  0  0  0  0  0  0
    5.6908   -2.5144   -2.7043 H   0  0  0  0  0  0  0  0  0  0  0  0
    4.2697   -1.8695   -0.0528 H   0  0  0  0  0  0  0  0  0  0  0  0
    5.5121   -3.1046   -0.3700 H   0  0  0  0  0  0  0  0  0  0  0  0
    4.5949   -4.0648    1.4109 H   0  0  0  0  0  0  0  0  0  0  0  0
    5.0984   -5.3255    0.2731 H   0  0  0  0  0  0  0  0  0  0  0  0
    2.9152   -5.5150    2.4224 H   0  0  0  0  0  0  0  0  0  0  0  0
    4.4916   -6.3440    2.4214 H   0  0  0  0  0  0  0  0  0  0  0  0
    5.8383   -9.4828   -0.7089 H   0  0  0  0  0  0  0  0  0  0  0  0
    4.8919   -9.7541   -2.2292 H   0  0  0  0  0  0  0  0  0  0  0  0
    4.0153  -13.6061   -0.5220 H   0  0  0  0  0  0  0  0  0  0  0  0
    1.7107  -14.5600   -0.7783 H   0  0  0  0  0  0  0  0  0  0  0  0
    0.1704  -10.5890   -1.4482 H   0  0  0  0  0  0  0  0  0  0  0  0
    1.7514   -8.6545   -0.6903 H   0  0  0  0  0  0  0  0  0  0  0  0
    2.5069   -8.8898   -2.2614 H   0  0  0  0  0  0  0  0  0  0  0  0
    1.9435   -9.0296    1.4919 H   0  0  0  0  0  0  0  0  0  0  0  0
    0.2840   -8.1171    3.0623 H   0  0  0  0  0  0  0  0  0  0  0  0
    1.1229   -6.4885    3.0806 H   0  0  0  0  0  0  0  0  0  0  0  0
    2.4437   -9.2157    3.9004 H   0  0  0  0  0  0  0  0  0  0  0  0
    3.2526   -7.5722    3.9108 H   0  0  0  0  0  0  0  0  0  0  0  0
    1.7768   -5.5271   -1.5306 H   0  0  0  0  0  0  0  0  0  0  0  0
    3.4273   -6.1940   -1.4559 H   0  0  0  0  0  0  0  0  0  0  0  0
    2.0378   -2.1384   -1.1955 H   0  0  0  0  0  0  0  0  0  0  0  0
    1.7718   -3.5749   -2.2039 H   0  0  0  0  0  0  0  0  0  0  0  0
    2.5979   -3.6151   -4.6166 H   0  0  0  0  0  0  0  0  0  0  0  0
    4.2284   -3.7414   -3.9305 H   0  0  0  0  0  0  0  0  0  0  0  0
    3.8607   -2.4498   -5.1096 H   0  0  0  0  0  0  0  0  0  0  0  0
  1  2  1  0
  1 38  1  0
  1 39  1  0
  1 40  1  0
  2  3  1  0
  2  4  1  0
  2 41  1  1
  3 42  1  0
  3 43  1  0
  3 44  1  0
  4  5  1  0
  4 35  1  0
  5  6  1  0
  5 45  1  0
  5 46  1  0
  6  7  1  0
  6 47  1  0
  6 48  1  0
  7  8  1  0
  7 34  1  0
  8  9  1  1
  8 10  1  0
  8 33  1  0
 10 11  1  0
 10 49  1  0
 10 50  1  0
 11 12  1  0
 11 51  1  0
 11 52  1  0
 12 13  1  6
 12 29  1  0
 12 32  1  0
 13 14  2  0
 13 15  1  0
 15 16  1  0
 15 28  1  0
 16 17  1  0
 16 53  1  0
 16 54  1  0
 17 18  1  0
 18 19  2  0
 18 27  1  0
 19 20  1  0
 19 55  1  0
 20 21  2  0
 20 56  1  0
 21 22  1  0
 21 26  1  0
 22 23  1  1
 22 24  1  0
 22 25  1  0
 26 27  2  0
 26 57  1  0
 27 28  1  0
 28 58  1  0
 28 59  1  0
 29 30  1  0
 29 31  1  0
 29 60  1  6
 30 31  1  0
 30 61  1  0
 30 62  1  0
 31 63  1  0
 31 64  1  0
 32 33  1  0
 33 65  1  0
 33 66  1  0
 34 35  1  0
 34 67  1  0
 34 68  1  0
 35 36  1  6
 35 37  1  0
 37 69  1  0
 37 70  1  0
 37 71  1  0
M  END

