
     RDKit          3D

 54 54  0  0  0  0  0  0  0  0999 V2000
    1.1126    1.1844   -1.0721 C   0  0  0  0  0  0  0  0  0  0  0  0
    2.5328    1.1661   -1.2403 O   0  0  0  0  0  0  0  0  0  0  0  0
    3.1789    0.0954   -0.7477 C   0  0  0  0  0  0  0  0  0  0  0  0
    2.6200   -0.7939   -0.1509 O   0  0  0  0  0  0  0  0  0  0  0  0
    4.6828    0.1351   -1.0657 C   0  0  1  0  0  0  0  0  0  0  0  0
    5.4177   -0.7955   -0.0927 C   0  0  0  0  0  0  0  0  0  0  0  0
    5.2297   -0.3431    1.2730 N   0  0  0  0  0  0  0  0  0  0  0  0
    6.0994   -0.9743    2.2358 C   0  0  0  0  0  0  0  0  0  0  0  0
    5.6162   -0.7027    3.6521 C   0  0  0  0  0  0  0  0  0  0  0  0
    4.4767   -0.4017    3.9193 O   0  0  0  0  0  0  0  0  0  0  0  0
    6.6063   -0.8905    4.5320 O   0  0  0  0  0  0  0  0  0  0  0  0
    6.4064   -0.7898    5.9870 C   0  0  1  0  0  0  0  0  0  0  0  0
    5.3863   -1.8364    6.4460 C   0  0  0  0  0  0  0  0  0  0  0  0
    7.7959   -1.1031    6.5435 C   0  0  0  0  0  0  0  0  0  0  0  0
    5.9796    0.6347    6.3551 C   0  0  0  0  0  0  0  0  0  0  0  0
    4.8274   -0.2002   -2.4917 N   0  0  0  0  0  0  0  0  0  0  0  0
    4.7500    0.9315   -3.4139 C   0  0  0  0  0  0  0  0  0  0  0  0
    6.1134    1.5978   -3.6457 C   0  0  0  0  0  0  0  0  0  0  0  0
    7.1188    0.6097   -4.0677 N   0  0  0  0  0  0  0  0  0  0  0  0
    7.4224    0.4201   -5.7149 S   0  0  1  0  0  0  0  0  0  0  0  0
    9.0290    1.2005   -5.9376 C   0  0  0  0  0  0  0  0  0  0  0  0
    7.6011   -1.0092   -5.9922 O   0  0  0  0  0  0  0  0  0  0  0  0
    6.4511    1.2255   -6.4626 O   0  0  0  0  0  0  0  0  0  0  0  0
    7.2077   -0.5685   -3.1937 C   0  0  0  0  0  0  0  0  0  0  0  0
    5.8163   -1.1741   -2.9415 C   0  0  0  0  0  0  0  0  0  0  0  0
    0.7647    2.1269   -1.5121 H   0  0  0  0  0  0  0  0  0  0  0  0
    0.8479    1.1379   -0.0054 H   0  0  0  0  0  0  0  0  0  0  0  0
    0.6487    0.3287   -1.5854 H   0  0  0  0  0  0  0  0  0  0  0  0
    5.0377    1.1609   -0.8498 H   0  0  0  0  0  0  0  0  0  0  0  0
    6.4952   -0.7633   -0.3208 H   0  0  0  0  0  0  0  0  0  0  0  0
    5.0797   -1.8412   -0.2502 H   0  0  0  0  0  0  0  0  0  0  0  0
    4.2619   -0.4805    1.5659 H   0  0  0  0  0  0  0  0  0  0  0  0
    7.1385   -0.6162    2.1391 H   0  0  0  0  0  0  0  0  0  0  0  0
    6.1548   -2.0865    2.1446 H   0  0  0  0  0  0  0  0  0  0  0  0
    5.6975   -2.8430    6.1254 H   0  0  0  0  0  0  0  0  0  0  0  0
    4.3890   -1.6269    6.0389 H   0  0  0  0  0  0  0  0  0  0  0  0
    5.3249   -1.8339    7.5455 H   0  0  0  0  0  0  0  0  0  0  0  0
    8.1190   -2.1092    6.2361 H   0  0  0  0  0  0  0  0  0  0  0  0
    7.7849   -1.0604    7.6431 H   0  0  0  0  0  0  0  0  0  0  0  0
    8.5345   -0.3762    6.1730 H   0  0  0  0  0  0  0  0  0  0  0  0
    4.9886    0.8711    5.9476 H   0  0  0  0  0  0  0  0  0  0  0  0
    6.7065    1.3653    5.9669 H   0  0  0  0  0  0  0  0  0  0  0  0
    5.9449    0.7378    7.4509 H   0  0  0  0  0  0  0  0  0  0  0  0
    4.0220    1.6629   -3.0385 H   0  0  0  0  0  0  0  0  0  0  0  0
    4.3790    0.5710   -4.3899 H   0  0  0  0  0  0  0  0  0  0  0  0
    6.4801    2.0694   -2.7156 H   0  0  0  0  0  0  0  0  0  0  0  0
    6.0333    2.3799   -4.4119 H   0  0  0  0  0  0  0  0  0  0  0  0
    9.7673    0.6721   -5.3211 H   0  0  0  0  0  0  0  0  0  0  0  0
    8.9521    2.2568   -5.6500 H   0  0  0  0  0  0  0  0  0  0  0  0
    9.2778    1.1074   -7.0038 H   0  0  0  0  0  0  0  0  0  0  0  0
    7.6743   -0.2453   -2.2454 H   0  0  0  0  0  0  0  0  0  0  0  0
    7.8668   -1.3123   -3.6604 H   0  0  0  0  0  0  0  0  0  0  0  0
    5.8871   -2.0143   -2.2380 H   0  0  0  0  0  0  0  0  0  0  0  0
    5.4635   -1.5962   -3.8997 H   0  0  0  0  0  0  0  0  0  0  0  0
  1  2  1  0
  1 26  1  0
  1 27  1  0
  1 28  1  0
  2  3  1  0
  3  4  2  0
  3  5  1  0
  5  6  1  0
  5 16  1  0
  5 29  1  6
  6  7  1  0
  6 30  1  0
  6 31  1  0
  7  8  1  0
  7 32  1  0
  8  9  1  0
  8 33  1  0
  8 34  1  0
  9 10  2  0
  9 11  1  0
 12 11  1  6
 12 13  1  0
 12 14  1  0
 12 15  1  0
 13 35  1  0
 13 36  1  0
 13 37  1  0
 14 38  1  0
 14 39  1  0
 14 40  1  0
 15 41  1  0
 15 42  1  0
 15 43  1  0
 16 17  1  0
 16 25  1  0
 17 18  1  0
 17 44  1  0
 17 45  1  0
 18 19  1  0
 18 46  1  0
 18 47  1  0
 19 20  1  0
 19 24  1  0
 20 21  1  1
 20 22  2  0
 20 23  2  0
 21 48  1  0
 21 49  1  0
 21 50  1  0
 24 25  1  0
 24 51  1  0
 24 52  1  0
 25 53  1  0
 25 54  1  0
M  END

