
     RDKit          3D

 42 43  0  0  0  0  0  0  0  0999 V2000
    2.4962    1.7242    1.8907 C   0  0  0  0  0  0  0  0  0  0  0  0
    3.1471    0.7488    0.9104 C   0  0  0  0  0  0  0  0  0  0  0  0
    3.4122   -0.6265    1.5205 C   0  0  0  0  0  0  0  0  0  0  0  0
    4.0445   -1.6072    0.5353 C   0  0  0  0  0  0  0  0  0  0  0  0
    4.2656   -1.3399   -0.6357 O   0  0  0  0  0  0  0  0  0  0  0  0
    4.3586   -2.8273    1.0537 N   0  0  0  0  0  0  0  0  0  0  0  0
    4.8910   -3.9993    0.3744 C   0  0  0  0  0  0  0  0  0  0  0  0
    4.7762   -4.7740    1.7379 C   0  0  2  0  0  0  0  0  0  0  0  0
    4.1547   -3.4862    2.3393 C   0  0  0  0  0  0  0  0  0  0  0  0
    6.0870   -5.2329    2.3986 C   0  0  0  0  0  0  0  0  0  0  0  0
    6.5915   -6.5078    1.8880 N   0  0  0  0  0  0  0  0  0  0  0  0
    7.2628   -6.4143    0.5917 C   0  0  0  0  0  0  0  0  0  0  0  0
    5.5146   -7.5060    1.9692 C   0  0  2  0  0  0  0  0  0  0  0  0
    5.2269   -7.5558    3.0376 H   0  0  0  0  0  0  0  0  0  0  0  0
    5.9643   -8.9278    1.6062 C   0  0  0  0  0  0  0  0  0  0  0  0
    5.2393   -9.6955    0.9946 O   0  0  0  0  0  0  0  0  0  0  0  0
    7.1968   -9.2488    2.0859 N   0  0  0  0  0  0  0  0  0  0  0  0
    7.7999  -10.5529    1.9182 C   0  0  0  0  0  0  0  0  0  0  0  0
    4.2626   -7.0567    1.2178 C   0  0  0  0  0  0  0  0  0  0  0  0
    3.8174   -5.8112    1.7471 O   0  0  0  0  0  0  0  0  0  0  0  0
    2.3196    2.7047    1.4210 H   0  0  0  0  0  0  0  0  0  0  0  0
    3.1301    1.8919    2.7782 H   0  0  0  0  0  0  0  0  0  0  0  0
    1.5226    1.3490    2.2496 H   0  0  0  0  0  0  0  0  0  0  0  0
    4.0982    1.1612    0.5352 H   0  0  0  0  0  0  0  0  0  0  0  0
    2.5148    0.6231    0.0167 H   0  0  0  0  0  0  0  0  0  0  0  0
    2.4716   -1.0705    1.8977 H   0  0  0  0  0  0  0  0  0  0  0  0
    4.0679   -0.5404    2.4070 H   0  0  0  0  0  0  0  0  0  0  0  0
    5.9024   -3.8536   -0.0380 H   0  0  0  0  0  0  0  0  0  0  0  0
    4.2318   -4.3946   -0.4167 H   0  0  0  0  0  0  0  0  0  0  0  0
    4.7055   -3.0393    3.1868 H   0  0  0  0  0  0  0  0  0  0  0  0
    3.0993   -3.6328    2.6253 H   0  0  0  0  0  0  0  0  0  0  0  0
    5.8879   -5.3524    3.4791 H   0  0  0  0  0  0  0  0  0  0  0  0
    6.8600   -4.4558    2.2886 H   0  0  0  0  0  0  0  0  0  0  0  0
    8.0377   -5.6342    0.6469 H   0  0  0  0  0  0  0  0  0  0  0  0
    6.6048   -6.1721   -0.2654 H   0  0  0  0  0  0  0  0  0  0  0  0
    7.7649   -7.3650    0.3607 H   0  0  0  0  0  0  0  0  0  0  0  0
    7.7036   -8.5043    2.5553 H   0  0  0  0  0  0  0  0  0  0  0  0
    7.0913  -11.1809    1.3619 H   0  0  0  0  0  0  0  0  0  0  0  0
    8.0081  -11.0311    2.8905 H   0  0  0  0  0  0  0  0  0  0  0  0
    8.7443  -10.4957    1.3506 H   0  0  0  0  0  0  0  0  0  0  0  0
    3.4449   -7.7748    1.3569 H   0  0  0  0  0  0  0  0  0  0  0  0
    4.4551   -6.9810    0.1309 H   0  0  0  0  0  0  0  0  0  0  0  0
  1  2  1  0
  1 21  1  0
  1 22  1  0
  1 23  1  0
  2  3  1  0
  2 24  1  0
  2 25  1  0
  3  4  1  0
  3 26  1  0
  3 27  1  0
  4  5  2  0
  4  6  1  0
  6  7  1  0
  6  9  1  0
  7  8  1  0
  7 28  1  0
  7 29  1  0
  8  9  1  0
  8 10  1  0
  8 20  1  6
  9 30  1  0
  9 31  1  0
 10 11  1  0
 10 32  1  0
 10 33  1  0
 11 12  1  0
 11 13  1  0
 12 34  1  0
 12 35  1  0
 12 36  1  0
 13 14  1  1
 13 15  1  0
 13 19  1  0
 15 16  2  0
 15 17  1  0
 17 18  1  0
 17 37  1  0
 18 38  1  0
 18 39  1  0
 18 40  1  0
 19 20  1  0
 19 41  1  0
 19 42  1  0
M  END

