
     RDKit          3D

 39 41  0  0  0  0  0  0  0  0999 V2000
    1.0767   -0.5349   -0.3710 O   0  0  0  0  0  0  0  0  0  0  0  0
    2.4914   -0.5439   -0.5091 C   0  0  1  0  0  0  0  0  0  0  0  0
    2.9523   -1.4740   -1.6406 C   0  0  0  0  0  0  0  0  0  0  0  0
    2.4400   -1.0114   -3.0107 C   0  0  0  0  0  0  0  0  0  0  0  0
    2.8504    0.4397   -3.2952 C   0  0  0  0  0  0  0  0  0  0  0  0
    2.4016    1.3785   -2.1643 C   0  0  0  0  0  0  0  0  0  0  0  0
    2.8906    0.9253   -0.7795 C   0  0  2  0  0  0  0  0  0  0  0  0
    4.3281    1.1220   -0.6445 N   0  0  0  0  0  0  0  0  0  0  0  0
    4.9644    1.3318    0.5455 C   0  0  0  0  0  0  0  0  0  0  0  0
    6.3623    1.6073    0.5937 C   0  0  0  0  0  0  0  0  0  0  0  0
    6.9830    1.7975    1.7406 N   0  0  0  0  0  0  0  0  0  0  0  0
    6.2631    1.7387    2.8698 C   0  0  0  0  0  0  0  0  0  0  0  0
    4.8820    1.4898    2.8446 C   0  0  0  0  0  0  0  0  0  0  0  0
    4.0509    1.4262    4.0799 C   0  0  0  0  0  0  0  0  0  0  0  0
    4.5400    1.8315    5.3357 C   0  0  0  0  0  0  0  0  0  0  0  0
    3.7332    1.7512    6.4717 C   0  0  0  0  0  0  0  0  0  0  0  0
    2.4251    1.2686    6.3869 C   0  0  0  0  0  0  0  0  0  0  0  0
    1.9385    0.8725    5.1376 C   0  0  0  0  0  0  0  0  0  0  0  0
    0.2993    0.2675    5.0084 Cl  0  0  0  0  0  0  0  0  0  0  0  0
    2.7304    0.9492    3.9932 C   0  0  0  0  0  0  0  0  0  0  0  0
    4.2554    1.2791    1.6746 N   0  0  0  0  0  0  0  0  0  0  0  0
    0.7852   -1.4249   -0.1361 H   0  0  0  0  0  0  0  0  0  0  0  0
    2.9680   -0.8500    0.4405 H   0  0  0  0  0  0  0  0  0  0  0  0
    2.6195   -2.5054   -1.4261 H   0  0  0  0  0  0  0  0  0  0  0  0
    4.0565   -1.5039   -1.6378 H   0  0  0  0  0  0  0  0  0  0  0  0
    1.3392   -1.0821   -3.0207 H   0  0  0  0  0  0  0  0  0  0  0  0
    2.8101   -1.6811   -3.8044 H   0  0  0  0  0  0  0  0  0  0  0  0
    2.4233    0.7807   -4.2528 H   0  0  0  0  0  0  0  0  0  0  0  0
    3.9489    0.4897   -3.4272 H   0  0  0  0  0  0  0  0  0  0  0  0
    1.3014    1.3950   -2.1294 H   0  0  0  0  0  0  0  0  0  0  0  0
    2.7337    2.4136   -2.3506 H   0  0  0  0  0  0  0  0  0  0  0  0
    2.4001    1.5283   -0.0009 H   0  0  0  0  0  0  0  0  0  0  0  0
    4.8875    1.1902   -1.4846 H   0  0  0  0  0  0  0  0  0  0  0  0
    6.9529    1.6643   -0.3300 H   0  0  0  0  0  0  0  0  0  0  0  0
    6.8083    1.8800    3.8055 H   0  0  0  0  0  0  0  0  0  0  0  0
    5.5512    2.2275    5.4343 H   0  0  0  0  0  0  0  0  0  0  0  0
    4.1260    2.0730    7.4394 H   0  0  0  0  0  0  0  0  0  0  0  0
    1.7869    1.2015    7.2694 H   0  0  0  0  0  0  0  0  0  0  0  0
    2.3359    0.6433    3.0251 H   0  0  0  0  0  0  0  0  0  0  0  0
  1  2  1  0
  1 22  1  0
  2  3  1  0
  2  7  1  0
  2 23  1  1
  3  4  1  0
  3 24  1  0
  3 25  1  0
  4  5  1  0
  4 26  1  0
  4 27  1  0
  5  6  1  0
  5 28  1  0
  5 29  1  0
  6  7  1  0
  6 30  1  0
  6 31  1  0
  7  8  1  0
  7 32  1  1
  8  9  1  0
  8 33  1  0
  9 10  2  0
  9 21  1  0
 10 11  1  0
 10 34  1  0
 11 12  2  0
 12 13  1  0
 12 35  1  0
 13 14  1  0
 13 21  2  0
 14 15  2  0
 14 20  1  0
 15 16  1  0
 15 36  1  0
 16 17  2  0
 16 37  1  0
 17 18  1  0
 17 38  1  0
 18 19  1  0
 18 20  2  0
 20 39  1  0
M  END

