
     RDKit          3D

 40 42  0  0  0  0  0  0  0  0999 V2000
    1.9677   -0.8420   -0.2366 O   0  0  0  0  0  0  0  0  0  0  0  0
    1.8366    0.2645    0.2663 C   0  0  0  0  0  0  0  0  0  0  0  0
    0.9138    0.5207    1.2470 N   0  0  0  0  0  0  0  0  0  0  0  0
    0.0837   -0.5344    1.8119 C   0  0  0  0  0  0  0  0  0  0  0  0
    0.4917   -0.9474    3.1884 C   0  0  0  0  0  0  0  0  0  0  0  0
    1.0925   -2.0631    3.7031 C   0  0  0  0  0  0  0  0  0  0  0  0
    1.2421   -1.8311    5.1120 C   0  0  0  0  0  0  0  0  0  0  0  0
    0.7261   -0.5894    5.3453 C   0  0  0  0  0  0  0  0  0  0  0  0
    0.2671   -0.0449    4.1884 O   0  0  0  0  0  0  0  0  0  0  0  0
    2.6846    1.4324   -0.1668 C   0  0  0  0  0  0  0  0  0  0  0  0
    2.3483    2.7767    0.0694 C   0  0  0  0  0  0  0  0  0  0  0  0
    3.1774    3.8069   -0.3729 C   0  0  0  0  0  0  0  0  0  0  0  0
    4.3665    3.5193   -1.0645 C   0  0  0  0  0  0  0  0  0  0  0  0
    5.2732    4.6470   -1.5231 C   0  0  0  0  0  0  0  0  0  0  0  0
    5.9688    5.3241   -0.4374 N   0  0  0  0  0  0  0  0  0  0  0  0
    5.4931    6.4727    0.1319 C   0  0  0  0  0  0  0  0  0  0  0  0
    4.4729    7.0275   -0.2576 O   0  0  0  0  0  0  0  0  0  0  0  0
    6.3177    7.0153    1.2618 C   0  0  1  0  0  0  0  0  0  0  0  0
    6.3672    8.5234    1.4189 C   0  0  0  0  0  0  0  0  0  0  0  0
    5.5763    7.7101    2.3890 C   0  0  0  0  0  0  0  0  0  0  0  0
    4.6914    2.1781   -1.3126 C   0  0  0  0  0  0  0  0  0  0  0  0
    3.8588    1.1467   -0.8768 C   0  0  0  0  0  0  0  0  0  0  0  0
    0.9672    1.3944    1.7555 H   0  0  0  0  0  0  0  0  0  0  0  0
    0.1684   -1.3962    1.1381 H   0  0  0  0  0  0  0  0  0  0  0  0
   -0.9697   -0.2034    1.8218 H   0  0  0  0  0  0  0  0  0  0  0  0
    1.3958   -2.9429    3.1395 H   0  0  0  0  0  0  0  0  0  0  0  0
    1.6766   -2.5015    5.8507 H   0  0  0  0  0  0  0  0  0  0  0  0
    0.6124    0.0174    6.2399 H   0  0  0  0  0  0  0  0  0  0  0  0
    1.4135    3.0356    0.5733 H   0  0  0  0  0  0  0  0  0  0  0  0
    2.9047    4.8502   -0.1952 H   0  0  0  0  0  0  0  0  0  0  0  0
    4.6799    5.4186   -2.0344 H   0  0  0  0  0  0  0  0  0  0  0  0
    6.0188    4.2618   -2.2365 H   0  0  0  0  0  0  0  0  0  0  0  0
    6.7532    4.8545   -0.0016 H   0  0  0  0  0  0  0  0  0  0  0  0
    7.2197    6.4541    1.5245 H   0  0  0  0  0  0  0  0  0  0  0  0
    5.8105    9.0971    0.6736 H   0  0  0  0  0  0  0  0  0  0  0  0
    7.3145    8.9628    1.7428 H   0  0  0  0  0  0  0  0  0  0  0  0
    4.4876    7.7380    2.2967 H   0  0  0  0  0  0  0  0  0  0  0  0
    5.9607    7.5708    3.4031 H   0  0  0  0  0  0  0  0  0  0  0  0
    5.6063    1.9366   -1.8622 H   0  0  0  0  0  0  0  0  0  0  0  0
    4.0975    0.1009   -1.0789 H   0  0  0  0  0  0  0  0  0  0  0  0
  1  2  2  0
  2  3  1  0
  2 10  1  0
  3  4  1  0
  3 23  1  0
  4  5  1  0
  4 24  1  0
  4 25  1  0
  5  6  2  0
  5  9  1  0
  6  7  1  0
  6 26  1  0
  7  8  2  0
  7 27  1  0
  8  9  1  0
  8 28  1  0
 10 11  2  0
 10 22  1  0
 11 12  1  0
 11 29  1  0
 12 13  2  0
 12 30  1  0
 13 14  1  0
 13 21  1  0
 14 15  1  0
 14 31  1  0
 14 32  1  0
 15 16  1  0
 15 33  1  0
 16 17  2  0
 16 18  1  0
 18 19  1  0
 18 20  1  0
 18 34  1  1
 19 20  1  0
 19 35  1  0
 19 36  1  0
 20 37  1  0
 20 38  1  0
 21 22  2  0
 21 39  1  0
 22 40  1  0
M  END

