
     RDKit          3D

 53 56  0  0  0  0  0  0  0  0999 V2000
    1.0596    0.3731    0.3746 C   0  0  0  0  0  0  0  0  0  0  0  0
    2.5656    0.1559    0.2174 C   0  0  0  0  0  0  0  0  0  0  0  0
    3.3899    1.2774    0.8815 C   0  0  1  0  0  0  0  0  0  0  0  0
    3.1108    1.4653    2.3959 C   0  0  0  0  0  0  0  0  0  0  0  0
    2.6969    2.5192    2.8215 O   0  0  0  0  0  0  0  0  0  0  0  0
    3.3718    0.3406    3.1610 N   0  0  0  0  0  0  0  0  0  0  0  0
    3.1896    0.2166    4.5308 C   0  0  0  0  0  0  0  0  0  0  0  0
    2.3780    0.9183    5.2611 N   0  0  0  0  0  0  0  0  0  0  0  0
    2.4122    0.5645    6.5710 N   0  0  0  0  0  0  0  0  0  0  0  0
    3.2244   -0.4058    6.8570 C   0  0  0  0  0  0  0  0  0  0  0  0
    3.4738   -0.9599    8.2404 C   0  0  1  0  0  0  0  0  0  0  0  0
    2.5117   -0.3552    9.2860 C   0  0  0  0  0  0  0  0  0  0  0  0
    1.0870   -0.9177    9.1885 C   0  0  0  0  0  0  0  0  0  0  0  0
    1.0714   -2.4515    9.2286 C   0  0  0  0  0  0  0  0  0  0  0  0
    1.9948   -3.0502    8.1594 C   0  0  0  0  0  0  0  0  0  0  0  0
    3.4229   -2.5059    8.2864 C   0  0  0  0  0  0  0  0  0  0  0  0
    4.0951   -0.9979    5.4334 S   0  0  0  0  0  0  0  0  0  0  0  0
    4.8339    1.1718    0.6019 N   0  0  0  0  0  0  0  0  0  0  0  0
    5.5508    0.0133    0.8167 C   0  0  0  0  0  0  0  0  0  0  0  0
    5.1642   -0.9874    1.3910 O   0  0  0  0  0  0  0  0  0  0  0  0
    6.9594    0.2342    0.1983 C   0  0  0  0  0  0  0  0  0  0  0  0
    7.8342   -0.5935    0.1709 O   0  0  0  0  0  0  0  0  0  0  0  0
    6.9336    1.6233   -0.2846 C   0  0  0  0  0  0  0  0  0  0  0  0
    7.9588    2.3479   -0.8828 C   0  0  0  0  0  0  0  0  0  0  0  0
    7.6939    3.6805   -1.1978 C   0  0  0  0  0  0  0  0  0  0  0  0
    9.0335    4.7508   -2.0262 Br  0  0  0  0  0  0  0  0  0  0  0  0
    6.4517    4.2435   -0.8907 C   0  0  0  0  0  0  0  0  0  0  0  0
    5.4005    3.5266   -0.2773 C   0  0  0  0  0  0  0  0  0  0  0  0
    4.1247    4.2736    0.0441 C   0  0  0  0  0  0  0  0  0  0  0  0
    5.6625    2.1723    0.0000 C   0  0  0  0  0  0  0  0  0  0  0  0
    0.5014   -0.4202   -0.1452 H   0  0  0  0  0  0  0  0  0  0  0  0
    0.7407    1.3399   -0.0481 H   0  0  0  0  0  0  0  0  0  0  0  0
    0.7510    0.3562    1.4319 H   0  0  0  0  0  0  0  0  0  0  0  0
    2.8351    0.1433   -0.8527 H   0  0  0  0  0  0  0  0  0  0  0  0
    2.8525   -0.8266    0.6177 H   0  0  0  0  0  0  0  0  0  0  0  0
    3.0573    2.2205    0.4478 H   0  0  0  0  0  0  0  0  0  0  0  0
    3.8685   -0.4183    2.6842 H   0  0  0  0  0  0  0  0  0  0  0  0
    4.5025   -0.6536    8.5059 H   0  0  0  0  0  0  0  0  0  0  0  0
    2.4962    0.7398    9.1855 H   0  0  0  0  0  0  0  0  0  0  0  0
    2.9278   -0.5856   10.2829 H   0  0  0  0  0  0  0  0  0  0  0  0
    0.6259   -0.5650    8.2514 H   0  0  0  0  0  0  0  0  0  0  0  0
    0.4748   -0.5086   10.0098 H   0  0  0  0  0  0  0  0  0  0  0  0
    0.0427   -2.8271    9.0979 H   0  0  0  0  0  0  0  0  0  0  0  0
    1.4033   -2.7979   10.2256 H   0  0  0  0  0  0  0  0  0  0  0  0
    1.5977   -2.8126    7.1557 H   0  0  0  0  0  0  0  0  0  0  0  0
    2.0091   -4.1506    8.2329 H   0  0  0  0  0  0  0  0  0  0  0  0
    4.0748   -2.9357    7.5067 H   0  0  0  0  0  0  0  0  0  0  0  0
    3.8504   -2.8263    9.2527 H   0  0  0  0  0  0  0  0  0  0  0  0
    8.9232    1.8778   -1.0816 H   0  0  0  0  0  0  0  0  0  0  0  0
    6.2837    5.2968   -1.1241 H   0  0  0  0  0  0  0  0  0  0  0  0
    4.2917    5.3552   -0.0553 H   0  0  0  0  0  0  0  0  0  0  0  0
    3.7661    4.0819    1.0665 H   0  0  0  0  0  0  0  0  0  0  0  0
    3.3072    4.0125   -0.6492 H   0  0  0  0  0  0  0  0  0  0  0  0
  1  2  1  0
  1 31  1  0
  1 32  1  0
  1 33  1  0
  2  3  1  0
  2 34  1  0
  2 35  1  0
  3  4  1  0
  3 18  1  0
  3 36  1  6
  4  5  2  0
  4  6  1  0
  6  7  1  0
  6 37  1  0
  7  8  2  0
  7 17  1  0
  8  9  1  0
  9 10  2  0
 10 11  1  0
 10 17  1  0
 11 12  1  0
 11 16  1  0
 11 38  1  1
 12 13  1  0
 12 39  1  0
 12 40  1  0
 13 14  1  0
 13 41  1  0
 13 42  1  0
 14 15  1  0
 14 43  1  0
 14 44  1  0
 15 16  1  0
 15 45  1  0
 15 46  1  0
 16 47  1  0
 16 48  1  0
 18 19  1  0
 18 30  1  0
 19 20  2  0
 19 21  1  0
 21 22  2  0
 21 23  1  0
 23 24  1  0
 23 30  2  0
 24 25  2  0
 24 49  1  0
 25 26  1  0
 25 27  1  0
 27 28  2  0
 27 50  1  0
 28 29  1  0
 28 30  1  0
 29 51  1  0
 29 52  1  0
 29 53  1  0
M  END

