
     RDKit          3D

 31 32  0  0  0  0  0  0  0  0999 V2000
    3.0519   -0.7287    1.4333 O   0  0  0  0  0  0  0  0  0  0  0  0
    2.4697   -0.0695    0.5879 N   0  0  0  0  0  0  0  0  0  0  0  0
    1.4232   -0.3884    0.0480 O   0  0  0  0  0  0  0  0  0  0  0  0
    3.0801    1.2168    0.1865 C   0  0  0  0  0  0  0  0  0  0  0  0
    4.2756    1.6163    0.7848 C   0  0  0  0  0  0  0  0  0  0  0  0
    4.8452    2.8292    0.4006 C   0  0  0  0  0  0  0  0  0  0  0  0
    4.2323    3.6362   -0.5736 C   0  0  0  0  0  0  0  0  0  0  0  0
    4.8318    4.9720   -0.9618 C   0  0  0  0  0  0  0  0  0  0  0  0
    6.2720    4.8989   -1.0812 N   0  0  0  0  0  0  0  0  0  0  0  0
    7.0762    5.9978   -1.2632 C   0  0  0  0  0  0  0  0  0  0  0  0
    6.5916    7.3170   -1.1752 C   0  0  0  0  0  0  0  0  0  0  0  0
    7.4646    8.3921   -1.3292 C   0  0  0  0  0  0  0  0  0  0  0  0
    6.9097    9.7598   -1.2226 N   0  0  0  0  0  0  0  0  0  0  0  0
    5.7133    9.8702   -1.0043 O   0  0  0  0  0  0  0  0  0  0  0  0
    7.6828   10.6932   -1.3593 O   0  0  0  0  0  0  0  0  0  0  0  0
    8.8236    8.2350   -1.5887 C   0  0  0  0  0  0  0  0  0  0  0  0
    9.3145    6.9323   -1.6954 C   0  0  0  0  0  0  0  0  0  0  0  0
    8.4632    5.8417   -1.5374 C   0  0  0  0  0  0  0  0  0  0  0  0
    9.1121    4.2212   -1.6778 Cl  0  0  0  0  0  0  0  0  0  0  0  0
    3.0324    3.2024   -1.1588 C   0  0  0  0  0  0  0  0  0  0  0  0
    2.4462    1.9944   -0.7818 C   0  0  0  0  0  0  0  0  0  0  0  0
    4.7353    0.9774    1.5384 H   0  0  0  0  0  0  0  0  0  0  0  0
    5.7798    3.1571    0.8609 H   0  0  0  0  0  0  0  0  0  0  0  0
    4.5765    5.7093   -0.1783 H   0  0  0  0  0  0  0  0  0  0  0  0
    4.3520    5.3366   -1.8918 H   0  0  0  0  0  0  0  0  0  0  0  0
    6.6594    4.0181   -1.4025 H   0  0  0  0  0  0  0  0  0  0  0  0
    5.5416    7.5300   -0.9889 H   0  0  0  0  0  0  0  0  0  0  0  0
    9.4644    9.1071   -1.7049 H   0  0  0  0  0  0  0  0  0  0  0  0
   10.3703    6.7522   -1.9029 H   0  0  0  0  0  0  0  0  0  0  0  0
    2.5497    3.8167   -1.9233 H   0  0  0  0  0  0  0  0  0  0  0  0
    1.5160    1.6415   -1.2265 H   0  0  0  0  0  0  0  0  0  0  0  0
  1  2  2  0
  2  3  1  0
  2  4  1  0
  4  5  2  0
  4 21  1  0
  5  6  1  0
  5 22  1  0
  6  7  2  0
  6 23  1  0
  7  8  1  0
  7 20  1  0
  8  9  1  0
  8 24  1  0
  8 25  1  0
  9 10  1  0
  9 26  1  0
 10 11  2  0
 10 18  1  0
 11 12  1  0
 11 27  1  0
 12 13  1  0
 12 16  2  0
 13 14  2  0
 13 15  1  0
 16 17  1  0
 16 28  1  0
 17 18  2  0
 17 29  1  0
 18 19  1  0
 20 21  2  0
 20 30  1  0
 21 31  1  0
M  CHG  4   2   1   3  -1  13   1  15  -1
M  END

