
     RDKit          3D

 41 42  0  0  0  0  0  0  0  0999 V2000
    0.9790    0.4768   -0.7416 C   0  0  0  0  0  0  0  0  0  0  0  0
    2.4979    0.3749   -0.8958 C   0  0  0  0  0  0  0  0  0  0  0  0
    3.0376   -1.0707   -1.0145 C   0  0  1  0  0  0  0  0  0  0  0  0
    2.5270   -1.8020   -2.2700 C   0  0  0  0  0  0  0  0  0  0  0  0
    4.5548   -1.1069   -0.9244 C   0  0  0  0  0  0  0  0  0  0  0  0
    5.2202   -1.7397    0.1357 C   0  0  0  0  0  0  0  0  0  0  0  0
    6.6247   -1.7828    0.2347 C   0  0  0  0  0  0  0  0  0  0  0  0
    7.4365   -1.1919   -0.7302 C   0  0  0  0  0  0  0  0  0  0  0  0
    6.8116   -0.5473   -1.8114 C   0  0  0  0  0  0  0  0  0  0  0  0
    7.2613    0.1629   -2.9865 C   0  0  0  0  0  0  0  0  0  0  0  0
    6.1433    0.5613   -3.6574 C   0  0  0  0  0  0  0  0  0  0  0  0
    5.9313    1.2863   -4.9573 C   0  0  1  0  0  0  0  0  0  0  0  0
    5.2668    0.4476   -5.9630 N   0  0  0  0  0  0  0  0  0  0  0  0
    5.1610    2.6238   -4.7874 C   0  0  1  0  0  0  0  0  0  0  0  0
    5.7894    3.5191   -3.7133 C   0  0  0  0  0  0  0  0  0  0  0  0
    5.0482    3.3629   -6.1257 C   0  0  0  0  0  0  0  0  0  0  0  0
    5.0062    0.1532   -2.9999 O   0  0  0  0  0  0  0  0  0  0  0  0
    5.4025   -0.5221   -1.8754 C   0  0  0  0  0  0  0  0  0  0  0  0
    0.6701    1.5229   -0.5859 H   0  0  0  0  0  0  0  0  0  0  0  0
    0.6224   -0.1052    0.1253 H   0  0  0  0  0  0  0  0  0  0  0  0
    0.4429    0.1086   -1.6305 H   0  0  0  0  0  0  0  0  0  0  0  0
    2.9801    0.8485   -0.0236 H   0  0  0  0  0  0  0  0  0  0  0  0
    2.8239    0.9547   -1.7759 H   0  0  0  0  0  0  0  0  0  0  0  0
    2.6643   -1.6261   -0.1355 H   0  0  0  0  0  0  0  0  0  0  0  0
    2.8430   -1.2827   -3.1879 H   0  0  0  0  0  0  0  0  0  0  0  0
    1.4281   -1.8665   -2.2760 H   0  0  0  0  0  0  0  0  0  0  0  0
    2.9207   -2.8296   -2.3107 H   0  0  0  0  0  0  0  0  0  0  0  0
    4.6193   -2.2182    0.9142 H   0  0  0  0  0  0  0  0  0  0  0  0
    7.0802   -2.2925    1.0875 H   0  0  0  0  0  0  0  0  0  0  0  0
    8.5255   -1.2291   -0.6504 H   0  0  0  0  0  0  0  0  0  0  0  0
    8.2882    0.3547   -3.2911 H   0  0  0  0  0  0  0  0  0  0  0  0
    6.9380    1.5287   -5.3410 H   0  0  0  0  0  0  0  0  0  0  0  0
    4.3614    0.1398   -5.6035 H   0  0  0  0  0  0  0  0  0  0  0  0
    5.8093   -0.4014   -6.1234 H   0  0  0  0  0  0  0  0  0  0  0  0
    4.1404    2.3576   -4.4525 H   0  0  0  0  0  0  0  0  0  0  0  0
    6.8307    3.7774   -3.9728 H   0  0  0  0  0  0  0  0  0  0  0  0
    5.8011    3.0401   -2.7227 H   0  0  0  0  0  0  0  0  0  0  0  0
    5.2291    4.4632   -3.6223 H   0  0  0  0  0  0  0  0  0  0  0  0
    6.0431    3.6905   -6.4750 H   0  0  0  0  0  0  0  0  0  0  0  0
    4.4195    4.2620   -6.0244 H   0  0  0  0  0  0  0  0  0  0  0  0
    4.6196    2.7145   -6.9013 H   0  0  0  0  0  0  0  0  0  0  0  0
  1  2  1  0
  1 19  1  0
  1 20  1  0
  1 21  1  0
  2  3  1  0
  2 22  1  0
  2 23  1  0
  3  4  1  0
  3  5  1  0
  3 24  1  1
  4 25  1  0
  4 26  1  0
  4 27  1  0
  5  6  2  0
  5 18  1  0
  6  7  1  0
  6 28  1  0
  7  8  2  0
  7 29  1  0
  8  9  1  0
  8 30  1  0
  9 10  1  0
  9 18  2  0
 10 11  2  0
 10 31  1  0
 11 12  1  0
 11 17  1  0
 12 13  1  0
 12 14  1  0
 12 32  1  6
 13 33  1  0
 13 34  1  0
 14 15  1  0
 14 16  1  0
 14 35  1  1
 15 36  1  0
 15 37  1  0
 15 38  1  0
 16 39  1  0
 16 40  1  0
 16 41  1  0
 17 18  1  0
M  END

