
     RDKit          3D

 68 69  0  0  0  0  0  0  0  0999 V2000
    0.3373    0.0168    0.4001 C   0  0  0  0  0  0  0  0  0  0  0  0
    1.8635   -0.0371    0.5047 C   0  0  0  0  0  0  0  0  0  0  0  0
    2.5733   -0.3953   -0.8229 C   0  0  1  0  0  0  0  0  0  0  0  0
    2.6322    0.8224   -1.7918 C   0  0  0  0  0  0  0  0  0  0  0  0
    1.6587    1.5522   -1.9091 O   0  0  0  0  0  0  0  0  0  0  0  0
    3.7827    0.9719   -2.5001 N   0  0  0  0  0  0  0  0  0  0  0  0
    4.0508    2.0255   -3.5108 C   0  0  1  0  0  0  0  0  0  0  0  0
    3.9568    3.4168   -2.8576 C   0  0  0  0  0  0  0  0  0  0  0  0
    5.4780    1.7830   -4.0244 C   0  0  0  0  0  0  0  0  0  0  0  0
    3.0466    1.9049   -4.6713 C   0  0  0  0  0  0  0  0  0  0  0  0
    3.8802   -1.0402   -0.6194 N   0  0  0  0  0  0  0  0  0  0  0  0
    4.8349   -0.4234    0.3086 C   0  0  0  0  0  0  0  0  0  0  0  0
    4.9552   -1.0754    1.6800 C   0  0  0  0  0  0  0  0  0  0  0  0
    4.4206   -2.3418    1.9495 C   0  0  0  0  0  0  0  0  0  0  0  0
    4.5668   -2.9315    3.2087 C   0  0  0  0  0  0  0  0  0  0  0  0
    5.2579   -2.2568    4.2152 C   0  0  0  0  0  0  0  0  0  0  0  0
    5.8024   -0.9980    3.9502 C   0  0  0  0  0  0  0  0  0  0  0  0
    5.6669   -0.3909    2.6934 C   0  0  0  0  0  0  0  0  0  0  0  0
    6.2808    0.9658    2.4394 C   0  0  0  0  0  0  0  0  0  0  0  0
    4.3238   -2.1158   -1.3429 C   0  0  0  0  0  0  0  0  0  0  0  0
    5.4792   -2.5147   -1.2588 O   0  0  0  0  0  0  0  0  0  0  0  0
    3.3271   -2.8165   -2.2845 C   0  0  0  0  0  0  0  0  0  0  0  0
    3.8226   -4.0667   -2.8395 N   0  0  0  0  0  0  0  0  0  0  0  0
    4.4655   -4.1046   -4.1075 C   0  0  0  0  0  0  0  0  0  0  0  0
    4.1701   -5.1275   -5.0256 C   0  0  0  0  0  0  0  0  0  0  0  0
    4.7866   -5.1131   -6.2779 C   0  0  0  0  0  0  0  0  0  0  0  0
    4.4252   -6.3863   -7.4175 Cl  0  0  0  0  0  0  0  0  0  0  0  0
    5.6623   -4.0929   -6.6616 C   0  0  0  0  0  0  0  0  0  0  0  0
    5.9335   -3.0846   -5.7351 C   0  0  0  0  0  0  0  0  0  0  0  0
    7.0291   -1.7922   -6.1747 Cl  0  0  0  0  0  0  0  0  0  0  0  0
    5.3692   -3.0873   -4.4597 C   0  0  0  0  0  0  0  0  0  0  0  0
    3.8629   -5.4173   -1.7895 S   0  0  1  0  0  0  0  0  0  0  0  0
    5.5975   -5.6587   -1.3942 C   0  0  0  0  0  0  0  0  0  0  0  0
    3.1581   -4.9707   -0.5831 O   0  0  0  0  0  0  0  0  0  0  0  0
    3.4078   -6.5989   -2.5201 O   0  0  0  0  0  0  0  0  0  0  0  0
   -0.1046    0.2475    1.3823 H   0  0  0  0  0  0  0  0  0  0  0  0
   -0.0710   -0.9555    0.0755 H   0  0  0  0  0  0  0  0  0  0  0  0
    0.0178    0.7817   -0.3190 H   0  0  0  0  0  0  0  0  0  0  0  0
    2.1502   -0.7986    1.2450 H   0  0  0  0  0  0  0  0  0  0  0  0
    2.2426    0.9272    0.8812 H   0  0  0  0  0  0  0  0  0  0  0  0
    1.9245   -1.1189   -1.3353 H   0  0  0  0  0  0  0  0  0  0  0  0
    4.5424    0.3368   -2.2901 H   0  0  0  0  0  0  0  0  0  0  0  0
    4.6858    3.5110   -2.0366 H   0  0  0  0  0  0  0  0  0  0  0  0
    2.9499    3.5872   -2.4538 H   0  0  0  0  0  0  0  0  0  0  0  0
    4.1758    4.1999   -3.6003 H   0  0  0  0  0  0  0  0  0  0  0  0
    6.2133    1.8497   -3.2052 H   0  0  0  0  0  0  0  0  0  0  0  0
    5.7440    2.5437   -4.7731 H   0  0  0  0  0  0  0  0  0  0  0  0
    5.5778    0.7953   -4.5038 H   0  0  0  0  0  0  0  0  0  0  0  0
    2.0185    2.0388   -4.3092 H   0  0  0  0  0  0  0  0  0  0  0  0
    3.1258    0.9170   -5.1526 H   0  0  0  0  0  0  0  0  0  0  0  0
    3.2541    2.6729   -5.4328 H   0  0  0  0  0  0  0  0  0  0  0  0
    4.5552    0.6340    0.4177 H   0  0  0  0  0  0  0  0  0  0  0  0
    5.8277   -0.4423   -0.1710 H   0  0  0  0  0  0  0  0  0  0  0  0
    3.8855   -2.8905    1.1724 H   0  0  0  0  0  0  0  0  0  0  0  0
    4.1401   -3.9202    3.3944 H   0  0  0  0  0  0  0  0  0  0  0  0
    5.3776   -2.7074    5.2038 H   0  0  0  0  0  0  0  0  0  0  0  0
    6.3490   -0.4690    4.7363 H   0  0  0  0  0  0  0  0  0  0  0  0
    6.8181    1.3294    3.3269 H   0  0  0  0  0  0  0  0  0  0  0  0
    5.5193    1.7227    2.1820 H   0  0  0  0  0  0  0  0  0  0  0  0
    6.9992    0.9433    1.6022 H   0  0  0  0  0  0  0  0  0  0  0  0
    3.0777   -2.1541   -3.1280 H   0  0  0  0  0  0  0  0  0  0  0  0
    2.3925   -3.0224   -1.7460 H   0  0  0  0  0  0  0  0  0  0  0  0
    3.4698   -5.9162   -4.7582 H   0  0  0  0  0  0  0  0  0  0  0  0
    6.1170   -4.0860   -7.6515 H   0  0  0  0  0  0  0  0  0  0  0  0
    5.6540   -2.3300   -3.7322 H   0  0  0  0  0  0  0  0  0  0  0  0
    5.9746   -4.7344   -0.9413 H   0  0  0  0  0  0  0  0  0  0  0  0
    6.1324   -5.9037   -2.3206 H   0  0  0  0  0  0  0  0  0  0  0  0
    5.6240   -6.5092   -0.6994 H   0  0  0  0  0  0  0  0  0  0  0  0
  1  2  1  0
  1 36  1  0
  1 37  1  0
  1 38  1  0
  2  3  1  0
  2 39  1  0
  2 40  1  0
  3  4  1  0
  3 11  1  0
  3 41  1  6
  4  5  2  0
  4  6  1  0
  7  6  1  1
  6 42  1  0
  7  8  1  0
  7  9  1  0
  7 10  1  0
  8 43  1  0
  8 44  1  0
  8 45  1  0
  9 46  1  0
  9 47  1  0
  9 48  1  0
 10 49  1  0
 10 50  1  0
 10 51  1  0
 11 12  1  0
 11 20  1  0
 12 13  1  0
 12 52  1  0
 12 53  1  0
 13 14  2  0
 13 18  1  0
 14 15  1  0
 14 54  1  0
 15 16  2  0
 15 55  1  0
 16 17  1  0
 16 56  1  0
 17 18  2  0
 17 57  1  0
 18 19  1  0
 19 58  1  0
 19 59  1  0
 19 60  1  0
 20 21  2  0
 20 22  1  0
 22 23  1  0
 22 61  1  0
 22 62  1  0
 23 24  1  0
 32 23  1  6
 24 25  2  0
 24 31  1  0
 25 26  1  0
 25 63  1  0
 26 27  1  0
 26 28  2  0
 28 29  1  0
 28 64  1  0
 29 30  1  0
 29 31  2  0
 31 65  1  0
 32 33  1  0
 32 34  2  0
 32 35  2  0
 33 66  1  0
 33 67  1  0
 33 68  1  0
M  END

