
     RDKit          3D

 62 66  0  0  0  0  0  0  0  0999 V2000
    2.5750    2.6100    0.6361 C   0  0  0  0  0  0  0  0  0  0  0  0
    3.7654    1.7305    0.4375 C   0  0  0  0  0  0  0  0  0  0  0  0
    3.8287    0.3566    0.3078 C   0  0  0  0  0  0  0  0  0  0  0  0
    5.1927   -0.0211    0.0898 C   0  0  0  0  0  0  0  0  0  0  0  0
    5.6405   -1.3959   -0.1061 C   0  0  0  0  0  0  0  0  0  0  0  0
    6.7736   -1.7611   -0.8664 C   0  0  0  0  0  0  0  0  0  0  0  0
    7.1307   -3.0890   -1.0482 C   0  0  0  0  0  0  0  0  0  0  0  0
    6.3811   -4.1470   -0.4713 C   0  0  0  0  0  0  0  0  0  0  0  0
    6.7435   -5.4656   -0.6419 N   0  0  0  0  0  0  0  0  0  0  0  0
    7.9157   -5.8026   -1.4253 C   0  0  0  0  0  0  0  0  0  0  0  0
    5.9411   -6.5224   -0.0594 C   0  0  0  0  0  0  0  0  0  0  0  0
    5.2381   -3.7833    0.2884 C   0  0  0  0  0  0  0  0  0  0  0  0
    4.8851   -2.4522    0.4528 C   0  0  0  0  0  0  0  0  0  0  0  0
    5.9632    1.1034    0.0988 N   0  0  0  0  0  0  0  0  0  0  0  0
    5.1179    2.1935    0.3242 C   0  0  0  0  0  0  0  0  0  0  0  0
    5.5289    3.4359    0.4924 N   0  0  0  0  0  0  0  0  0  0  0  0
    6.8189    3.7189    0.4769 C   0  0  0  0  0  0  0  0  0  0  0  0
    7.4040    4.9947    0.7650 C   0  0  0  0  0  0  0  0  0  0  0  0
    6.6312    6.2488    1.0158 C   0  0  0  0  0  0  0  0  0  0  0  0
    8.7721    4.7910    0.7472 C   0  0  0  0  0  0  0  0  0  0  0  0
    9.0259    3.4200    0.4288 C   0  0  0  0  0  0  0  0  0  0  0  0
   10.3600    2.8402    0.3078 C   0  0  0  0  0  0  0  0  0  0  0  0
   11.4288    3.4156    1.0325 C   0  0  0  0  0  0  0  0  0  0  0  0
   12.7262    2.9322    0.9485 C   0  0  0  0  0  0  0  0  0  0  0  0
   13.0425    1.8328    0.1079 C   0  0  0  0  0  0  0  0  0  0  0  0
   14.3274    1.3426    0.0150 N   0  0  0  0  0  0  0  0  0  0  0  0
   15.3977    1.9569    0.7745 C   0  0  0  0  0  0  0  0  0  0  0  0
   14.6144    0.2117   -0.8450 C   0  0  0  0  0  0  0  0  0  0  0  0
   11.9742    1.2644   -0.6334 C   0  0  0  0  0  0  0  0  0  0  0  0
   10.6788    1.7502   -0.5316 C   0  0  0  0  0  0  0  0  0  0  0  0
    7.8321    2.7810    0.2634 N   0  0  0  0  0  0  0  0  0  0  0  0
    7.5134    1.2835   -0.0775 B   0  0  1  0  0  0  0  0  0  0  0  0
    8.2068    0.4285    0.7552 F   0  0  0  0  0  0  0  0  0  0  0  0
    7.8431    1.0458   -1.4276 F   0  0  0  0  0  0  0  0  0  0  0  0
    1.7434    2.0625    1.1044 H   0  0  0  0  0  0  0  0  0  0  0  0
    2.8313    3.4783    1.2608 H   0  0  0  0  0  0  0  0  0  0  0  0
    2.2112    3.0069   -0.3280 H   0  0  0  0  0  0  0  0  0  0  0  0
    2.9898   -0.3358    0.3231 H   0  0  0  0  0  0  0  0  0  0  0  0
    7.3681   -0.9874   -1.3477 H   0  0  0  0  0  0  0  0  0  0  0  0
    8.0080   -3.3047   -1.6567 H   0  0  0  0  0  0  0  0  0  0  0  0
    7.8276   -5.4681   -2.4757 H   0  0  0  0  0  0  0  0  0  0  0  0
    8.0494   -6.8918   -1.4308 H   0  0  0  0  0  0  0  0  0  0  0  0
    8.8353   -5.3524   -1.0094 H   0  0  0  0  0  0  0  0  0  0  0  0
    4.9046   -6.5213   -0.4449 H   0  0  0  0  0  0  0  0  0  0  0  0
    5.8858   -6.4439    1.0419 H   0  0  0  0  0  0  0  0  0  0  0  0
    6.3871   -7.4952   -0.3021 H   0  0  0  0  0  0  0  0  0  0  0  0
    4.6231   -4.5464    0.7636 H   0  0  0  0  0  0  0  0  0  0  0  0
    4.0103   -2.2226    1.0645 H   0  0  0  0  0  0  0  0  0  0  0  0
    5.5604    6.0240    1.1162 H   0  0  0  0  0  0  0  0  0  0  0  0
    6.7514    6.9641    0.1839 H   0  0  0  0  0  0  0  0  0  0  0  0
    6.9742    6.7580    1.9311 H   0  0  0  0  0  0  0  0  0  0  0  0
    9.5439    5.5417    0.9030 H   0  0  0  0  0  0  0  0  0  0  0  0
   11.2318    4.2488    1.7100 H   0  0  0  0  0  0  0  0  0  0  0  0
   13.4985    3.4095    1.5502 H   0  0  0  0  0  0  0  0  0  0  0  0
   15.2190    1.9054    1.8645 H   0  0  0  0  0  0  0  0  0  0  0  0
   15.5383    3.0215    0.5111 H   0  0  0  0  0  0  0  0  0  0  0  0
   16.3398    1.4343    0.5659 H   0  0  0  0  0  0  0  0  0  0  0  0
   14.3909    0.4264   -1.9065 H   0  0  0  0  0  0  0  0  0  0  0  0
   14.0353   -0.6851   -0.5586 H   0  0  0  0  0  0  0  0  0  0  0  0
   15.6799   -0.0405   -0.7719 H   0  0  0  0  0  0  0  0  0  0  0  0
   12.1565    0.4294   -1.3087 H   0  0  0  0  0  0  0  0  0  0  0  0
    9.8985    1.2939   -1.1372 H   0  0  0  0  0  0  0  0  0  0  0  0
  1  2  1  0
  1 35  1  0
  1 36  1  0
  1 37  1  0
  2  3  1  0
  2 15  2  0
  3  4  2  0
  3 38  1  0
  4  5  1  0
  4 14  1  0
  5  6  2  0
  5 13  1  0
  6  7  1  0
  6 39  1  0
  7  8  2  0
  7 40  1  0
  8  9  1  0
  8 12  1  0
  9 10  1  0
  9 11  1  0
 10 41  1  0
 10 42  1  0
 10 43  1  0
 11 44  1  0
 11 45  1  0
 11 46  1  0
 12 13  2  0
 12 47  1  0
 13 48  1  0
 14 15  1  0
 14 32  1  0
 15 16  1  0
 16 17  2  0
 17 18  1  0
 17 31  1  0
 18 19  1  0
 18 20  2  0
 19 49  1  0
 19 50  1  0
 19 51  1  0
 20 21  1  0
 20 52  1  0
 21 22  1  0
 21 31  2  0
 22 23  2  0
 22 30  1  0
 23 24  1  0
 23 53  1  0
 24 25  2  0
 24 54  1  0
 25 26  1  0
 25 29  1  0
 26 27  1  0
 26 28  1  0
 27 55  1  0
 27 56  1  0
 27 57  1  0
 28 58  1  0
 28 59  1  0
 28 60  1  0
 29 30  2  0
 29 61  1  0
 30 62  1  0
 31 32  1  0
 32 33  1  1
 32 34  1  0
M  CHG  2  31   1  32  -1
M  END

