
     RDKit          3D

 37 38  0  0  0  0  0  0  0  0999 V2000
    4.4588    1.2811    1.9133 C   0  0  0  0  0  0  0  0  0  0  0  0
    4.3414    2.0033    0.5664 C   0  0  0  0  0  0  0  0  0  0  0  0
    5.2828    1.5584   -0.4612 N   0  0  0  0  0  0  0  0  0  0  0  0
    6.6150    1.9079   -0.4726 C   0  0  0  0  0  0  0  0  0  0  0  0
    7.4243    1.4875   -1.2912 O   0  0  0  0  0  0  0  0  0  0  0  0
    7.0196    2.7952    0.5170 N   0  0  0  0  0  0  0  0  0  0  0  0
    8.3126    3.2683    0.6746 C   0  0  0  0  0  0  0  0  0  0  0  0
    8.6012    4.1046    1.6324 N   0  0  0  0  0  0  0  0  0  0  0  0
    9.9335    4.4340    1.5983 C   0  0  0  0  0  0  0  0  0  0  0  0
   10.6683    3.8457    0.6088 C   0  0  0  0  0  0  0  0  0  0  0  0
    9.6527    2.8094   -0.3593 S   0  0  0  0  0  0  0  0  0  0  0  0
    4.8019    0.6902   -1.5588 C   0  0  2  0  0  0  0  0  0  0  0  0
    5.7145    0.4459   -2.1170 H   0  0  0  0  0  0  0  0  0  0  0  0
    3.8714    1.4510   -2.5082 C   0  0  0  0  0  0  0  0  0  0  0  0
    4.2468   -0.6276   -1.0188 C   0  0  0  0  0  0  0  0  0  0  0  0
    5.1520   -1.5757   -0.5046 C   0  0  0  0  0  0  0  0  0  0  0  0
    4.6844   -2.7813    0.0150 C   0  0  0  0  0  0  0  0  0  0  0  0
    3.3149   -3.0688    0.0323 C   0  0  0  0  0  0  0  0  0  0  0  0
    2.4097   -2.1343   -0.4831 C   0  0  0  0  0  0  0  0  0  0  0  0
    1.0672   -2.3442   -0.5055 O   0  0  0  0  0  0  0  0  0  0  0  0
    2.8802   -0.9190   -1.0079 C   0  0  0  0  0  0  0  0  0  0  0  0
    3.7144    1.6797    2.6214 H   0  0  0  0  0  0  0  0  0  0  0  0
    5.4552    1.4082    2.3643 H   0  0  0  0  0  0  0  0  0  0  0  0
    4.2798    0.2031    1.7939 H   0  0  0  0  0  0  0  0  0  0  0  0
    4.4290    3.0970    0.7025 H   0  0  0  0  0  0  0  0  0  0  0  0
    3.3295    1.8497    0.1658 H   0  0  0  0  0  0  0  0  0  0  0  0
    6.3723    3.1749    1.1971 H   0  0  0  0  0  0  0  0  0  0  0  0
   10.3294    5.1290    2.3415 H   0  0  0  0  0  0  0  0  0  0  0  0
   11.7291    3.9568    0.3912 H   0  0  0  0  0  0  0  0  0  0  0  0
    3.5649    0.8049   -3.3449 H   0  0  0  0  0  0  0  0  0  0  0  0
    4.3980    2.3233   -2.9233 H   0  0  0  0  0  0  0  0  0  0  0  0
    2.9552    1.8138   -2.0161 H   0  0  0  0  0  0  0  0  0  0  0  0
    6.2232   -1.3600   -0.5194 H   0  0  0  0  0  0  0  0  0  0  0  0
    5.3910   -3.5165    0.4088 H   0  0  0  0  0  0  0  0  0  0  0  0
    2.9515   -4.0184    0.4380 H   0  0  0  0  0  0  0  0  0  0  0  0
    0.8698   -3.2118   -0.1288 H   0  0  0  0  0  0  0  0  0  0  0  0
    2.1406   -0.2238   -1.4076 H   0  0  0  0  0  0  0  0  0  0  0  0
  1  2  1  0
  1 22  1  0
  1 23  1  0
  1 24  1  0
  2  3  1  0
  2 25  1  0
  2 26  1  0
  3  4  1  0
  3 12  1  0
  4  5  2  0
  4  6  1  0
  6  7  1  0
  6 27  1  0
  7  8  2  0
  7 11  1  0
  8  9  1  0
  9 10  2  0
  9 28  1  0
 10 11  1  0
 10 29  1  0
 12 13  1  6
 12 14  1  0
 12 15  1  0
 14 30  1  0
 14 31  1  0
 14 32  1  0
 15 16  2  0
 15 21  1  0
 16 17  1  0
 16 33  1  0
 17 18  2  0
 17 34  1  0
 18 19  1  0
 18 35  1  0
 19 20  1  0
 19 21  2  0
 20 36  1  0
 21 37  1  0
M  END

