
     RDKit          3D

 63 65  0  0  0  0  0  0  0  0999 V2000
    0.9801   -1.2127    0.3969 C   0  0  0  0  0  0  0  0  0  0  0  0
    2.4936   -1.0953    0.2050 C   0  0  0  0  0  0  0  0  0  0  0  0
    2.9641   -1.0379   -1.2634 C   0  0  1  0  0  0  0  0  0  0  0  0
    2.4901    0.2185   -2.0117 C   0  0  0  0  0  0  0  0  0  0  0  0
    2.8178    0.2197   -3.5053 C   0  0  0  0  0  0  0  0  0  0  0  0
    4.4167   -1.1508   -1.3486 N   0  0  0  0  0  0  0  0  0  0  0  0
    5.0598   -2.3573   -1.4895 C   0  0  0  0  0  0  0  0  0  0  0  0
    4.4461   -3.4138   -1.6006 O   0  0  0  0  0  0  0  0  0  0  0  0
    6.5404   -2.3160   -1.5129 C   0  0  0  0  0  0  0  0  0  0  0  0
    7.3892   -1.2290   -1.6457 C   0  0  0  0  0  0  0  0  0  0  0  0
    8.7108   -1.6189   -1.6324 N   0  0  0  0  0  0  0  0  0  0  0  0
    9.9172   -0.7431   -1.7504 C   0  0  1  0  0  0  0  0  0  0  0  0
    9.4789    0.7252   -1.8415 C   0  0  0  0  0  0  0  0  0  0  0  0
   10.8030   -0.9375   -0.5041 C   0  0  0  0  0  0  0  0  0  0  0  0
   10.6878   -1.1275   -3.0275 C   0  0  0  0  0  0  0  0  0  0  0  0
    8.7311   -3.0009   -1.4923 C   0  0  0  0  0  0  0  0  0  0  0  0
    9.8263   -3.7532   -1.4460 N   0  0  0  0  0  0  0  0  0  0  0  0
    9.6376   -5.0541   -1.2829 C   0  0  0  0  0  0  0  0  0  0  0  0
   10.7629   -5.8945   -1.2157 N   0  0  0  0  0  0  0  0  0  0  0  0
   12.0653   -5.5639   -0.8658 C   0  0  0  0  0  0  0  0  0  0  0  0
   12.4150   -4.4659   -0.4795 O   0  0  0  0  0  0  0  0  0  0  0  0
   13.0436   -6.7071   -0.9732 C   0  0  0  0  0  0  0  0  0  0  0  0
   12.8608   -7.8240   -1.8018 C   0  0  0  0  0  0  0  0  0  0  0  0
   13.8267   -8.8324   -1.8610 C   0  0  0  0  0  0  0  0  0  0  0  0
   15.0011   -8.7572   -1.0989 C   0  0  0  0  0  0  0  0  0  0  0  0
   16.0479   -9.8420   -1.1552 C   0  0  0  0  0  0  0  0  0  0  0  0
   15.1835   -7.6271   -0.2807 C   0  0  0  0  0  0  0  0  0  0  0  0
   14.2287   -6.6164   -0.2242 C   0  0  0  0  0  0  0  0  0  0  0  0
    8.3491   -5.6511   -1.1986 C   0  0  0  0  0  0  0  0  0  0  0  0
    7.2135   -4.8561   -1.2771 C   0  0  0  0  0  0  0  0  0  0  0  0
    7.3930   -3.4696   -1.4189 C   0  0  0  0  0  0  0  0  0  0  0  0
    0.7300   -1.3464    1.4613 H   0  0  0  0  0  0  0  0  0  0  0  0
    0.5772   -2.0825   -0.1485 H   0  0  0  0  0  0  0  0  0  0  0  0
    0.4393   -0.3193    0.0462 H   0  0  0  0  0  0  0  0  0  0  0  0
    2.9829   -1.9682    0.6669 H   0  0  0  0  0  0  0  0  0  0  0  0
    2.8738   -0.2047    0.7403 H   0  0  0  0  0  0  0  0  0  0  0  0
    2.5754   -1.9329   -1.7750 H   0  0  0  0  0  0  0  0  0  0  0  0
    2.9317    1.1105   -1.5260 H   0  0  0  0  0  0  0  0  0  0  0  0
    1.4010    0.3173   -1.8765 H   0  0  0  0  0  0  0  0  0  0  0  0
    3.9016    0.1319   -3.6784 H   0  0  0  0  0  0  0  0  0  0  0  0
    2.4699    1.1457   -3.9901 H   0  0  0  0  0  0  0  0  0  0  0  0
    2.3351   -0.6287   -4.0175 H   0  0  0  0  0  0  0  0  0  0  0  0
    4.9622   -0.3495   -1.0534 H   0  0  0  0  0  0  0  0  0  0  0  0
    7.1284   -0.1834   -1.7765 H   0  0  0  0  0  0  0  0  0  0  0  0
    8.9255    1.0470   -0.9456 H   0  0  0  0  0  0  0  0  0  0  0  0
    8.8606    0.9206   -2.7314 H   0  0  0  0  0  0  0  0  0  0  0  0
   10.3767    1.3553   -1.9195 H   0  0  0  0  0  0  0  0  0  0  0  0
   10.2421   -0.6889    0.4112 H   0  0  0  0  0  0  0  0  0  0  0  0
   11.6732   -0.2652   -0.5645 H   0  0  0  0  0  0  0  0  0  0  0  0
   11.1675   -1.9712   -0.4302 H   0  0  0  0  0  0  0  0  0  0  0  0
   10.0528   -1.0026   -3.9191 H   0  0  0  0  0  0  0  0  0  0  0  0
   11.0285   -2.1696   -2.9751 H   0  0  0  0  0  0  0  0  0  0  0  0
   11.5704   -0.4785   -3.1393 H   0  0  0  0  0  0  0  0  0  0  0  0
   10.5639   -6.8836   -1.2933 H   0  0  0  0  0  0  0  0  0  0  0  0
   11.9765   -7.9055   -2.4397 H   0  0  0  0  0  0  0  0  0  0  0  0
   13.6670   -9.6897   -2.5210 H   0  0  0  0  0  0  0  0  0  0  0  0
   15.7483  -10.6625   -1.8235 H   0  0  0  0  0  0  0  0  0  0  0  0
   16.2329  -10.2695   -0.1557 H   0  0  0  0  0  0  0  0  0  0  0  0
   17.0119   -9.4465   -1.5171 H   0  0  0  0  0  0  0  0  0  0  0  0
   16.0945   -7.5403    0.3190 H   0  0  0  0  0  0  0  0  0  0  0  0
   14.3779   -5.7327    0.3993 H   0  0  0  0  0  0  0  0  0  0  0  0
    8.2594   -6.7325   -1.0686 H   0  0  0  0  0  0  0  0  0  0  0  0
    6.2081   -5.2757   -1.2291 H   0  0  0  0  0  0  0  0  0  0  0  0
  1  2  1  0
  1 32  1  0
  1 33  1  0
  1 34  1  0
  2  3  1  0
  2 35  1  0
  2 36  1  0
  3  4  1  0
  3  6  1  0
  3 37  1  6
  4  5  1  0
  4 38  1  0
  4 39  1  0
  5 40  1  0
  5 41  1  0
  5 42  1  0
  6  7  1  0
  6 43  1  0
  7  8  2  0
  7  9  1  0
  9 10  2  0
  9 31  1  0
 10 11  1  0
 10 44  1  0
 11 12  1  0
 11 16  1  0
 12 13  1  6
 12 14  1  0
 12 15  1  0
 13 45  1  0
 13 46  1  0
 13 47  1  0
 14 48  1  0
 14 49  1  0
 14 50  1  0
 15 51  1  0
 15 52  1  0
 15 53  1  0
 16 17  1  0
 16 31  2  0
 17 18  2  0
 18 19  1  0
 18 29  1  0
 19 20  1  0
 19 54  1  0
 20 21  2  0
 20 22  1  0
 22 23  2  0
 22 28  1  0
 23 24  1  0
 23 55  1  0
 24 25  2  0
 24 56  1  0
 25 26  1  0
 25 27  1  0
 26 57  1  0
 26 58  1  0
 26 59  1  0
 27 28  2  0
 27 60  1  0
 28 61  1  0
 29 30  2  0
 29 62  1  0
 30 31  1  0
 30 63  1  0
M  END

