
     RDKit          3D

 47 48  0  0  0  0  0  0  0  0999 V2000
    0.5417    1.9883    0.0936 C   0  0  0  0  0  0  0  0  0  0  0  0
    1.9667    1.7947    0.0595 N   0  0  0  0  0  0  0  0  0  0  0  0
    2.5384    1.2000    1.0460 C   0  0  0  0  0  0  0  0  0  0  0  0
    1.8607    0.6584    2.1354 N   0  0  0  0  0  0  0  0  0  0  0  0
    2.4778   -0.0143    3.2581 C   0  0  0  0  0  0  0  0  0  0  0  0
    1.5973   -0.0339    4.4957 C   0  0  0  0  0  0  0  0  0  0  0  0
    0.6995    1.0052    4.7842 C   0  0  0  0  0  0  0  0  0  0  0  0
   -0.0448    0.9262    5.9607 C   0  0  0  0  0  0  0  0  0  0  0  0
    0.1300   -0.1718    6.8043 C   0  0  0  0  0  0  0  0  0  0  0  0
    1.0526   -1.1653    6.4407 C   0  0  0  0  0  0  0  0  0  0  0  0
    1.2957   -2.3798    7.3004 C   0  0  0  0  0  0  0  0  0  0  0  0
    1.7596   -1.0853    5.3047 N   0  0  0  0  0  0  0  0  0  0  0  0
    3.9221    1.1297    1.1239 N   0  0  0  0  0  0  0  0  0  0  0  0
    4.7312    1.6106    0.0100 C   0  0  0  0  0  0  0  0  0  0  0  0
    4.8828    0.6206   -1.1284 C   0  0  0  0  0  0  0  0  0  0  0  0
    4.2759    0.8108   -2.3691 C   0  0  0  0  0  0  0  0  0  0  0  0
    4.4391   -0.1085   -3.4134 C   0  0  0  0  0  0  0  0  0  0  0  0
    5.2169   -1.2560   -3.2344 C   0  0  0  0  0  0  0  0  0  0  0  0
    5.4172   -2.2565   -4.3476 C   0  0  0  0  0  0  0  0  0  0  0  0
    5.8232   -1.4698   -1.9820 C   0  0  0  0  0  0  0  0  0  0  0  0
    5.6542   -0.5493   -0.9435 C   0  0  0  0  0  0  0  0  0  0  0  0
    6.1945   -0.7033    0.3055 O   0  0  0  0  0  0  0  0  0  0  0  0
    7.0339   -1.8047    0.5676 C   0  0  0  0  0  0  0  0  0  0  0  0
    0.2228    2.5980   -0.7670 H   0  0  0  0  0  0  0  0  0  0  0  0
    0.1859    2.5067    1.0104 H   0  0  0  0  0  0  0  0  0  0  0  0
   -0.0348    1.0378    0.0262 H   0  0  0  0  0  0  0  0  0  0  0  0
    0.8959    0.4101    1.9499 H   0  0  0  0  0  0  0  0  0  0  0  0
    3.4074    0.5253    3.5085 H   0  0  0  0  0  0  0  0  0  0  0  0
    2.7651   -1.0641    3.0534 H   0  0  0  0  0  0  0  0  0  0  0  0
    0.5998    1.8481    4.0988 H   0  0  0  0  0  0  0  0  0  0  0  0
   -0.7549    1.7161    6.2205 H   0  0  0  0  0  0  0  0  0  0  0  0
   -0.4402   -0.2627    7.7316 H   0  0  0  0  0  0  0  0  0  0  0  0
    0.6769   -2.3745    8.2090 H   0  0  0  0  0  0  0  0  0  0  0  0
    2.3564   -2.4310    7.5949 H   0  0  0  0  0  0  0  0  0  0  0  0
    1.0810   -3.2984    6.7308 H   0  0  0  0  0  0  0  0  0  0  0  0
    4.3034    0.2985    1.5626 H   0  0  0  0  0  0  0  0  0  0  0  0
    5.7266    1.8606    0.4107 H   0  0  0  0  0  0  0  0  0  0  0  0
    4.2624    2.5289   -0.3624 H   0  0  0  0  0  0  0  0  0  0  0  0
    3.6499    1.6947   -2.5100 H   0  0  0  0  0  0  0  0  0  0  0  0
    3.9505    0.0709   -4.3749 H   0  0  0  0  0  0  0  0  0  0  0  0
    4.8186   -1.9986   -5.2336 H   0  0  0  0  0  0  0  0  0  0  0  0
    5.1320   -3.2741   -4.0322 H   0  0  0  0  0  0  0  0  0  0  0  0
    6.4747   -2.3025   -4.6603 H   0  0  0  0  0  0  0  0  0  0  0  0
    6.4244   -2.3683   -1.8343 H   0  0  0  0  0  0  0  0  0  0  0  0
    7.3713   -1.7032    1.6082 H   0  0  0  0  0  0  0  0  0  0  0  0
    7.9173   -1.8135   -0.0956 H   0  0  0  0  0  0  0  0  0  0  0  0
    6.5002   -2.7661    0.4573 H   0  0  0  0  0  0  0  0  0  0  0  0
  1  2  1  0
  1 24  1  0
  1 25  1  0
  1 26  1  0
  2  3  2  0
  3  4  1  0
  3 13  1  0
  4  5  1  0
  4 27  1  0
  5  6  1  0
  5 28  1  0
  5 29  1  0
  6  7  2  0
  6 12  1  0
  7  8  1  0
  7 30  1  0
  8  9  2  0
  8 31  1  0
  9 10  1  0
  9 32  1  0
 10 11  1  0
 10 12  2  0
 11 33  1  0
 11 34  1  0
 11 35  1  0
 13 14  1  0
 13 36  1  0
 14 15  1  0
 14 37  1  0
 14 38  1  0
 15 16  2  0
 15 21  1  0
 16 17  1  0
 16 39  1  0
 17 18  2  0
 17 40  1  0
 18 19  1  0
 18 20  1  0
 19 41  1  0
 19 42  1  0
 19 43  1  0
 20 21  2  0
 20 44  1  0
 21 22  1  0
 22 23  1  0
 23 45  1  0
 23 46  1  0
 23 47  1  0
M  END

