
     RDKit          3D

 40 41  0  0  0  0  0  0  0  0999 V2000
    2.2333   -0.0993   -1.4191 C   0  0  0  0  0  0  0  0  0  0  0  0
    2.1914    0.3680    0.0462 C   0  0  1  0  0  0  0  0  0  0  0  0
    2.5327   -0.7832    1.0086 C   0  0  0  0  0  0  0  0  0  0  0  0
    3.0711    1.5888    0.2830 C   0  0  0  0  0  0  0  0  0  0  0  0
    2.5177    2.8044    0.7122 C   0  0  0  0  0  0  0  0  0  0  0  0
    3.3063    3.9366    0.9313 C   0  0  0  0  0  0  0  0  0  0  0  0
    4.6921    3.8714    0.7421 C   0  0  0  0  0  0  0  0  0  0  0  0
    5.7884    5.2745    0.9285 S   0  0  0  0  0  0  0  0  0  0  0  0
    4.9763    6.2998    2.1374 C   0  0  0  0  0  0  0  0  0  0  0  0
    4.6623    7.6344    1.8380 C   0  0  0  0  0  0  0  0  0  0  0  0
    4.1256    8.4864    2.8041 C   0  0  0  0  0  0  0  0  0  0  0  0
    3.8675    8.0293    4.1077 C   0  0  0  0  0  0  0  0  0  0  0  0
    3.2243    8.9657    5.1337 C   0  0  1  0  0  0  0  0  0  0  0  0
    3.4882    8.5618    6.5936 C   0  0  0  0  0  0  0  0  0  0  0  0
    3.5902   10.3513    4.8349 N   0  0  0  0  0  0  0  0  0  0  0  0
    4.1778    6.6949    4.4133 C   0  0  0  0  0  0  0  0  0  0  0  0
    4.7292    5.8607    3.4457 C   0  0  0  0  0  0  0  0  0  0  0  0
    5.0208    4.5994    3.7836 F   0  0  0  0  0  0  0  0  0  0  0  0
    5.2651    2.6613    0.3210 C   0  0  0  0  0  0  0  0  0  0  0  0
    4.4618    1.5449    0.0877 C   0  0  0  0  0  0  0  0  0  0  0  0
    1.5398   -0.9409   -1.5813 H   0  0  0  0  0  0  0  0  0  0  0  0
    3.2419   -0.4420   -1.7036 H   0  0  0  0  0  0  0  0  0  0  0  0
    1.9509    0.7131   -2.1068 H   0  0  0  0  0  0  0  0  0  0  0  0
    1.1542    0.6789    0.2618 H   0  0  0  0  0  0  0  0  0  0  0  0
    3.5563   -1.1571    0.8409 H   0  0  0  0  0  0  0  0  0  0  0  0
    1.8423   -1.6309    0.8655 H   0  0  0  0  0  0  0  0  0  0  0  0
    2.4641   -0.4603    2.0592 H   0  0  0  0  0  0  0  0  0  0  0  0
    1.4374    2.8735    0.8724 H   0  0  0  0  0  0  0  0  0  0  0  0
    2.8383    4.8704    1.2497 H   0  0  0  0  0  0  0  0  0  0  0  0
    4.8459    7.9981    0.8243 H   0  0  0  0  0  0  0  0  0  0  0  0
    3.8947    9.5238    2.5606 H   0  0  0  0  0  0  0  0  0  0  0  0
    2.1309    8.9001    4.9689 H   0  0  0  0  0  0  0  0  0  0  0  0
    4.5695    8.5354    6.8093 H   0  0  0  0  0  0  0  0  0  0  0  0
    3.0666    7.5765    6.8463 H   0  0  0  0  0  0  0  0  0  0  0  0
    3.0230    9.2960    7.2705 H   0  0  0  0  0  0  0  0  0  0  0  0
    4.5812   10.5040    5.0325 H   0  0  0  0  0  0  0  0  0  0  0  0
    3.0699   10.9901    5.4357 H   0  0  0  0  0  0  0  0  0  0  0  0
    4.0119    6.2706    5.4038 H   0  0  0  0  0  0  0  0  0  0  0  0
    6.3474    2.5928    0.1839 H   0  0  0  0  0  0  0  0  0  0  0  0
    4.9385    0.6170   -0.2405 H   0  0  0  0  0  0  0  0  0  0  0  0
  1  2  1  0
  1 21  1  0
  1 22  1  0
  1 23  1  0
  2  3  1  0
  2  4  1  0
  2 24  1  1
  3 25  1  0
  3 26  1  0
  3 27  1  0
  4  5  2  0
  4 20  1  0
  5  6  1  0
  5 28  1  0
  6  7  2  0
  6 29  1  0
  7  8  1  0
  7 19  1  0
  8  9  1  0
  9 10  2  0
  9 17  1  0
 10 11  1  0
 10 30  1  0
 11 12  2  0
 11 31  1  0
 12 13  1  0
 12 16  1  0
 13 14  1  0
 13 15  1  0
 13 32  1  6
 14 33  1  0
 14 34  1  0
 14 35  1  0
 15 36  1  0
 15 37  1  0
 16 17  2  0
 16 38  1  0
 17 18  1  0
 19 20  2  0
 19 39  1  0
 20 40  1  0
M  END

