
     RDKit          3D

 43 45  0  0  0  0  0  0  0  0999 V2000
    3.4891    0.1807   -0.8210 C   0  0  0  0  0  0  0  0  0  0  0  0
    4.1746    0.0378    0.5473 C   0  0  1  0  0  0  0  0  0  0  0  0
    3.2279    0.3232    1.6227 N   0  0  0  0  0  0  0  0  0  0  0  0
    3.0092    1.5849    2.1227 C   0  0  0  0  0  0  0  0  0  0  0  0
    3.7765    2.5713    1.6903 N   0  0  0  0  0  0  0  0  0  0  0  0
    3.5859    3.8208    2.1743 C   0  0  0  0  0  0  0  0  0  0  0  0
    2.6159    4.1565    3.0881 C   0  0  0  0  0  0  0  0  0  0  0  0
    1.7694    3.1248    3.5909 C   0  0  0  0  0  0  0  0  0  0  0  0
    0.7442    3.3678    4.5385 C   0  0  0  0  0  0  0  0  0  0  0  0
   -0.0428    2.3400    5.0229 C   0  0  0  0  0  0  0  0  0  0  0  0
    0.1881    1.0023    4.5833 C   0  0  0  0  0  0  0  0  0  0  0  0
    1.1761    0.7471    3.6507 C   0  0  0  0  0  0  0  0  0  0  0  0
    1.9705    1.7904    3.1178 C   0  0  0  0  0  0  0  0  0  0  0  0
   -0.5524   -0.0393    5.0705 O   0  0  0  0  0  0  0  0  0  0  0  0
   -1.2695    0.2472    6.2613 C   0  0  0  0  0  0  0  0  0  0  0  0
   -1.9707    1.5875    6.1387 C   0  0  0  0  0  0  0  0  0  0  0  0
   -1.0202    2.6222    5.9315 O   0  0  0  0  0  0  0  0  0  0  0  0
    4.9069   -1.3234    0.7968 C   0  0  1  0  0  0  0  0  0  0  0  0
    5.9308   -1.5723   -0.3279 C   0  0  0  0  0  0  0  0  0  0  0  0
    5.6643   -1.2405    2.1363 C   0  0  0  0  0  0  0  0  0  0  0  0
    3.9194   -2.5061    0.8467 C   0  0  0  0  0  0  0  0  0  0  0  0
    3.0493    1.1861   -0.8984 H   0  0  0  0  0  0  0  0  0  0  0  0
    2.6799   -0.5558   -0.9580 H   0  0  0  0  0  0  0  0  0  0  0  0
    4.1988    0.0644   -1.6533 H   0  0  0  0  0  0  0  0  0  0  0  0
    4.9321    0.8313    0.6171 H   0  0  0  0  0  0  0  0  0  0  0  0
    2.4784   -0.3444    1.7462 H   0  0  0  0  0  0  0  0  0  0  0  0
    4.2616    4.5878    1.7784 H   0  0  0  0  0  0  0  0  0  0  0  0
    2.4945    5.1860    3.4311 H   0  0  0  0  0  0  0  0  0  0  0  0
    0.5567    4.3803    4.9022 H   0  0  0  0  0  0  0  0  0  0  0  0
    1.3232   -0.2969    3.3686 H   0  0  0  0  0  0  0  0  0  0  0  0
   -0.5799    0.2611    7.1267 H   0  0  0  0  0  0  0  0  0  0  0  0
   -1.9936   -0.5684    6.4032 H   0  0  0  0  0  0  0  0  0  0  0  0
   -2.5177    1.8367    7.0597 H   0  0  0  0  0  0  0  0  0  0  0  0
   -2.6895    1.5601    5.2982 H   0  0  0  0  0  0  0  0  0  0  0  0
    6.6101   -0.7119   -0.4465 H   0  0  0  0  0  0  0  0  0  0  0  0
    5.4486   -1.7593   -1.2994 H   0  0  0  0  0  0  0  0  0  0  0  0
    6.5487   -2.4543   -0.0938 H   0  0  0  0  0  0  0  0  0  0  0  0
    6.4125   -0.4314    2.1180 H   0  0  0  0  0  0  0  0  0  0  0  0
    6.1936   -2.1848    2.3442 H   0  0  0  0  0  0  0  0  0  0  0  0
    4.9785   -1.0400    2.9724 H   0  0  0  0  0  0  0  0  0  0  0  0
    3.3467   -2.6083   -0.0887 H   0  0  0  0  0  0  0  0  0  0  0  0
    3.2025   -2.4106    1.6794 H   0  0  0  0  0  0  0  0  0  0  0  0
    4.4614   -3.4526    1.0044 H   0  0  0  0  0  0  0  0  0  0  0  0
  1  2  1  0
  1 22  1  0
  1 23  1  0
  1 24  1  0
  2  3  1  0
  2 18  1  0
  2 25  1  6
  3  4  1  0
  3 26  1  0
  4  5  2  0
  4 13  1  0
  5  6  1  0
  6  7  2  0
  6 27  1  0
  7  8  1  0
  7 28  1  0
  8  9  1  0
  8 13  2  0
  9 10  2  0
  9 29  1  0
 10 11  1  0
 10 17  1  0
 11 12  2  0
 11 14  1  0
 12 13  1  0
 12 30  1  0
 14 15  1  0
 15 16  1  0
 15 31  1  0
 15 32  1  0
 16 17  1  0
 16 33  1  0
 16 34  1  0
 18 19  1  6
 18 20  1  0
 18 21  1  0
 19 35  1  0
 19 36  1  0
 19 37  1  0
 20 38  1  0
 20 39  1  0
 20 40  1  0
 21 41  1  0
 21 42  1  0
 21 43  1  0
M  END

