
     RDKit          3D

 49 51  0  0  0  0  0  0  0  0999 V2000
    1.1540    0.4376    0.5979 C   0  0  0  0  0  0  0  0  0  0  0  0
    2.6162    0.8337    0.4159 C   0  0  0  0  0  0  0  0  0  0  0  0
    3.1078    0.6948   -0.9585 N   0  0  0  0  0  0  0  0  0  0  0  0
    2.3362    1.4065   -1.9735 C   0  0  0  0  0  0  0  0  0  0  0  0
    2.3155    2.9308   -1.7771 C   0  0  0  0  0  0  0  0  0  0  0  0
    1.4661    3.5103   -1.1542 O   0  0  0  0  0  0  0  0  0  0  0  0
    3.3769    3.6096   -2.2781 O   0  0  0  0  0  0  0  0  0  0  0  0
    4.5424    0.8979   -1.0514 C   0  0  1  0  0  0  0  0  0  0  0  0
    5.4568   -0.1648   -0.3885 C   0  0  0  0  0  0  0  0  0  0  0  0
    6.3979   -0.0829   -1.6171 C   0  0  2  0  0  0  0  0  0  0  0  0
    7.5068    0.8250   -1.3730 N   0  0  0  0  0  0  0  0  0  0  0  0
    8.3377    1.1726   -2.4304 C   0  0  0  0  0  0  0  0  0  0  0  0
    8.0714    0.8654   -3.5869 O   0  0  0  0  0  0  0  0  0  0  0  0
    9.4545    1.9024   -2.0981 N   0  0  0  0  0  0  0  0  0  0  0  0
    9.7289    2.5088   -0.7991 C   0  0  0  0  0  0  0  0  0  0  0  0
   10.6100    3.7144   -1.1505 C   0  0  0  0  0  0  0  0  0  0  0  0
   11.3781    3.2714   -2.4076 C   0  0  1  0  0  0  0  0  0  0  0  0
   12.6603    2.4202   -2.1536 C   0  0  0  0  0  0  0  0  0  0  0  0
   12.3149    0.9778   -2.5781 C   0  0  0  0  0  0  0  0  0  0  0  0
   11.2618    1.1670   -3.6772 C   0  0  0  0  0  0  0  0  0  0  0  0
   10.3941    2.3222   -3.1535 C   0  0  1  0  0  0  0  0  0  0  0  0
    5.2320    0.5733   -2.4013 C   0  0  0  0  0  0  0  0  0  0  0  0
    0.9111    0.3955    1.6710 H   0  0  0  0  0  0  0  0  0  0  0  0
    0.9581   -0.5553    0.1619 H   0  0  0  0  0  0  0  0  0  0  0  0
    0.4746    1.1706    0.1384 H   0  0  0  0  0  0  0  0  0  0  0  0
    3.2463    0.1796    1.0408 H   0  0  0  0  0  0  0  0  0  0  0  0
    2.7645    1.8665    0.8020 H   0  0  0  0  0  0  0  0  0  0  0  0
    1.2925    1.0669   -1.9488 H   0  0  0  0  0  0  0  0  0  0  0  0
    2.7410    1.1528   -2.9673 H   0  0  0  0  0  0  0  0  0  0  0  0
    3.9633    3.0120   -2.7646 H   0  0  0  0  0  0  0  0  0  0  0  0
    4.8480    1.9086   -0.7045 H   0  0  0  0  0  0  0  0  0  0  0  0
    4.9475   -1.1385   -0.3460 H   0  0  0  0  0  0  0  0  0  0  0  0
    5.8893    0.0635    0.5988 H   0  0  0  0  0  0  0  0  0  0  0  0
    6.7501   -1.0418   -2.0333 H   0  0  0  0  0  0  0  0  0  0  0  0
    7.9150    0.7817   -0.4461 H   0  0  0  0  0  0  0  0  0  0  0  0
   10.2601    1.8099   -0.1211 H   0  0  0  0  0  0  0  0  0  0  0  0
    8.7935    2.8086   -0.2996 H   0  0  0  0  0  0  0  0  0  0  0  0
   11.2704    4.0141   -0.3226 H   0  0  0  0  0  0  0  0  0  0  0  0
    9.9676    4.5767   -1.3916 H   0  0  0  0  0  0  0  0  0  0  0  0
   11.6243    4.1444   -3.0292 H   0  0  0  0  0  0  0  0  0  0  0  0
   13.0045    2.4857   -1.1087 H   0  0  0  0  0  0  0  0  0  0  0  0
   13.4837    2.8043   -2.7772 H   0  0  0  0  0  0  0  0  0  0  0  0
   11.8743    0.4217   -1.7331 H   0  0  0  0  0  0  0  0  0  0  0  0
   13.1956    0.4069   -2.9113 H   0  0  0  0  0  0  0  0  0  0  0  0
   10.6626    0.2745   -3.9047 H   0  0  0  0  0  0  0  0  0  0  0  0
   11.7452    1.4875   -4.6171 H   0  0  0  0  0  0  0  0  0  0  0  0
    9.8316    2.8080   -3.9662 H   0  0  0  0  0  0  0  0  0  0  0  0
    4.6676   -0.1904   -2.9568 H   0  0  0  0  0  0  0  0  0  0  0  0
    5.5132    1.3875   -3.0851 H   0  0  0  0  0  0  0  0  0  0  0  0
  1  2  1  0
  1 23  1  0
  1 24  1  0
  1 25  1  0
  2  3  1  0
  2 26  1  0
  2 27  1  0
  3  4  1  0
  3  8  1  0
  4  5  1  0
  4 28  1  0
  4 29  1  0
  5  6  2  0
  5  7  1  0
  7 30  1  0
  8  9  1  0
  8 22  1  0
  8 31  1  1
  9 10  1  0
  9 32  1  0
  9 33  1  0
 10 11  1  0
 10 22  1  0
 10 34  1  6
 11 12  1  0
 11 35  1  0
 12 13  2  0
 12 14  1  0
 14 15  1  0
 14 21  1  0
 15 16  1  0
 15 36  1  0
 15 37  1  0
 16 17  1  0
 16 38  1  0
 16 39  1  0
 17 18  1  0
 17 21  1  0
 17 40  1  6
 18 19  1  0
 18 41  1  0
 18 42  1  0
 19 20  1  0
 19 43  1  0
 19 44  1  0
 20 21  1  0
 20 45  1  0
 20 46  1  0
 21 47  1  6
 22 48  1  0
 22 49  1  0
M  END

