
     RDKit          3D

 44 44  0  0  0  0  0  0  0  0999 V2000
    1.3142   -0.0170    0.3237 C   0  0  0  0  0  0  0  0  0  0  0  0
    1.6496    1.4815    0.2782 C   0  0  0  0  0  0  0  0  0  0  0  0
    2.6927    1.8313   -0.7420 C   0  0  0  0  0  0  0  0  0  0  0  0
    3.9760    1.9590   -0.4133 N   0  0  0  0  0  0  0  0  0  0  0  0
    4.6408    2.2281   -1.5521 N   0  0  0  0  0  0  0  0  0  0  0  0
    6.0755    2.4871   -1.4830 C   0  0  0  0  0  0  0  0  0  0  0  0
    6.3991    3.9036   -1.0121 C   0  0  0  0  0  0  0  0  0  0  0  0
    3.8186    2.3031   -2.6408 C   0  0  0  0  0  0  0  0  0  0  0  0
    4.2982    2.5611   -4.0349 C   0  0  0  0  0  0  0  0  0  0  0  0
    4.7176    1.2685   -4.7742 C   0  0  1  0  0  0  0  0  0  0  0  0
    3.5988    0.5573   -5.2629 O   0  0  0  0  0  0  0  0  0  0  0  0
    5.7080    1.5204   -5.9452 C   0  0  1  0  0  0  0  0  0  0  0  0
    6.0825    0.1733   -6.5736 C   0  0  0  0  0  0  0  0  0  0  0  0
    5.1963    2.5322   -6.9986 C   0  0  0  0  0  0  0  0  0  0  0  0
    4.0228    2.0985   -7.8829 C   0  0  0  0  0  0  0  0  0  0  0  0
    6.8301    2.1073   -5.2506 O   0  0  0  0  0  0  0  0  0  0  0  0
    8.0703    2.2057   -5.9053 C   0  0  0  0  0  0  0  0  0  0  0  0
    2.5477    2.0347   -2.1390 C   0  0  0  0  0  0  0  0  0  0  0  0
    0.9435    1.9615   -3.1415 Br  0  0  0  0  0  0  0  0  0  0  0  0
    0.5550   -0.2263    1.0944 H   0  0  0  0  0  0  0  0  0  0  0  0
    2.2112   -0.6116    0.5581 H   0  0  0  0  0  0  0  0  0  0  0  0
    0.9187   -0.3679   -0.6427 H   0  0  0  0  0  0  0  0  0  0  0  0
    2.0206    1.8100    1.2616 H   0  0  0  0  0  0  0  0  0  0  0  0
    0.7331    2.0577    0.0681 H   0  0  0  0  0  0  0  0  0  0  0  0
    6.5073    2.2900   -2.4747 H   0  0  0  0  0  0  0  0  0  0  0  0
    6.4912    1.7456   -0.7847 H   0  0  0  0  0  0  0  0  0  0  0  0
    6.0171    4.6576   -1.7185 H   0  0  0  0  0  0  0  0  0  0  0  0
    7.4892    4.0361   -0.9261 H   0  0  0  0  0  0  0  0  0  0  0  0
    5.9464    4.0922   -0.0272 H   0  0  0  0  0  0  0  0  0  0  0  0
    5.1542    3.2487   -4.0172 H   0  0  0  0  0  0  0  0  0  0  0  0
    3.4916    3.0488   -4.6028 H   0  0  0  0  0  0  0  0  0  0  0  0
    5.2847    0.6418   -4.0573 H   0  0  0  0  0  0  0  0  0  0  0  0
    2.9425    0.4787   -4.5561 H   0  0  0  0  0  0  0  0  0  0  0  0
    5.1751   -0.3608   -6.8823 H   0  0  0  0  0  0  0  0  0  0  0  0
    6.6105   -0.4541   -5.8381 H   0  0  0  0  0  0  0  0  0  0  0  0
    6.7291    0.2976   -7.4559 H   0  0  0  0  0  0  0  0  0  0  0  0
    6.0503    2.7826   -7.6510 H   0  0  0  0  0  0  0  0  0  0  0  0
    4.9433    3.4693   -6.4763 H   0  0  0  0  0  0  0  0  0  0  0  0
    4.2761    1.2175   -8.4936 H   0  0  0  0  0  0  0  0  0  0  0  0
    3.7542    2.9106   -8.5776 H   0  0  0  0  0  0  0  0  0  0  0  0
    3.1378    1.8402   -7.2868 H   0  0  0  0  0  0  0  0  0  0  0  0
    8.7408    2.7615   -5.2328 H   0  0  0  0  0  0  0  0  0  0  0  0
    8.0137    2.7597   -6.8608 H   0  0  0  0  0  0  0  0  0  0  0  0
    8.5284    1.2196   -6.1061 H   0  0  0  0  0  0  0  0  0  0  0  0
  1  2  1  0
  1 20  1  0
  1 21  1  0
  1 22  1  0
  2  3  1  0
  2 23  1  0
  2 24  1  0
  3  4  2  0
  3 18  1  0
  4  5  1  0
  5  6  1  0
  5  8  1  0
  6  7  1  0
  6 25  1  0
  6 26  1  0
  7 27  1  0
  7 28  1  0
  7 29  1  0
  8  9  1  0
  8 18  2  0
  9 10  1  0
  9 30  1  0
  9 31  1  0
 10 11  1  0
 10 12  1  0
 10 32  1  1
 11 33  1  0
 12 13  1  0
 12 14  1  0
 12 16  1  1
 13 34  1  0
 13 35  1  0
 13 36  1  0
 14 15  1  0
 14 37  1  0
 14 38  1  0
 15 39  1  0
 15 40  1  0
 15 41  1  0
 16 17  1  0
 17 42  1  0
 17 43  1  0
 17 44  1  0
 18 19  1  0
M  END

