
     RDKit          3D

 39 40  0  0  0  0  0  0  0  0999 V2000
    0.8866    0.0972    2.5489 C   0  0  0  0  0  0  0  0  0  0  0  0
    2.4038    0.1727    2.6735 C   0  0  0  0  0  0  0  0  0  0  0  0
    3.0471    0.0419    1.3710 N   0  0  0  0  0  0  0  0  0  0  0  0
    4.4950    0.1450    1.3858 C   0  0  1  0  0  0  0  0  0  0  0  0
    5.1898   -1.0864    2.0055 C   0  0  0  0  0  0  0  0  0  0  0  0
    6.4752   -1.1046    1.4367 O   0  0  0  0  0  0  0  0  0  0  0  0
    6.3123   -0.8120    0.0598 C   0  0  0  0  0  0  0  0  0  0  0  0
    5.1155    0.1615   -0.0453 C   0  0  2  0  0  0  0  0  0  0  0  0
    5.5041    1.5697   -0.5065 C   0  0  0  0  0  0  0  0  0  0  0  0
    6.6538    1.8882   -0.7162 O   0  0  0  0  0  0  0  0  0  0  0  0
    4.3610    2.5581   -0.7047 C   0  0  0  0  0  0  0  0  0  0  0  0
    4.8151    3.9546   -1.1499 C   0  0  0  0  0  0  0  0  0  0  0  0
    3.6593    4.9121   -1.3395 C   0  0  0  0  0  0  0  0  0  0  0  0
    3.1860    5.6913   -0.2710 C   0  0  0  0  0  0  0  0  0  0  0  0
    2.0956    6.5506   -0.4334 C   0  0  0  0  0  0  0  0  0  0  0  0
    1.4562    6.6467   -1.6729 C   0  0  0  0  0  0  0  0  0  0  0  0
    1.9177    5.8796   -2.7468 C   0  0  0  0  0  0  0  0  0  0  0  0
    3.0085    5.0219   -2.5792 C   0  0  0  0  0  0  0  0  0  0  0  0
    0.4055    0.1640    3.5369 H   0  0  0  0  0  0  0  0  0  0  0  0
    0.5826   -0.8482    2.0736 H   0  0  0  0  0  0  0  0  0  0  0  0
    0.4957    0.9258    1.9335 H   0  0  0  0  0  0  0  0  0  0  0  0
    2.7571   -0.6487    3.3206 H   0  0  0  0  0  0  0  0  0  0  0  0
    2.6912    1.1144    3.1956 H   0  0  0  0  0  0  0  0  0  0  0  0
    2.6493    0.7279    0.7310 H   0  0  0  0  0  0  0  0  0  0  0  0
    4.8497    1.0426    1.9424 H   0  0  0  0  0  0  0  0  0  0  0  0
    4.6006   -1.9899    1.7403 H   0  0  0  0  0  0  0  0  0  0  0  0
    5.2958   -1.0375    3.0995 H   0  0  0  0  0  0  0  0  0  0  0  0
    6.1007   -1.7375   -0.5104 H   0  0  0  0  0  0  0  0  0  0  0  0
    7.2409   -0.3619   -0.3151 H   0  0  0  0  0  0  0  0  0  0  0  0
    4.3496   -0.2263   -0.7385 H   0  0  0  0  0  0  0  0  0  0  0  0
    3.7829    2.6220    0.2350 H   0  0  0  0  0  0  0  0  0  0  0  0
    3.6606    2.1219   -1.4409 H   0  0  0  0  0  0  0  0  0  0  0  0
    5.3894    3.8571   -2.0841 H   0  0  0  0  0  0  0  0  0  0  0  0
    5.5206    4.3507   -0.4029 H   0  0  0  0  0  0  0  0  0  0  0  0
    3.6859    5.6299    0.7007 H   0  0  0  0  0  0  0  0  0  0  0  0
    1.7477    7.1523    0.4106 H   0  0  0  0  0  0  0  0  0  0  0  0
    0.6059    7.3210   -1.8031 H   0  0  0  0  0  0  0  0  0  0  0  0
    1.4295    5.9534   -3.7222 H   0  0  0  0  0  0  0  0  0  0  0  0
    3.3678    4.4321   -3.4281 H   0  0  0  0  0  0  0  0  0  0  0  0
  1  2  1  0
  1 19  1  0
  1 20  1  0
  1 21  1  0
  2  3  1  0
  2 22  1  0
  2 23  1  0
  3  4  1  0
  3 24  1  0
  4  5  1  0
  4  8  1  0
  4 25  1  1
  5  6  1  0
  5 26  1  0
  5 27  1  0
  6  7  1  0
  7  8  1  0
  7 28  1  0
  7 29  1  0
  8  9  1  0
  8 30  1  6
  9 10  2  0
  9 11  1  0
 11 12  1  0
 11 31  1  0
 11 32  1  0
 12 13  1  0
 12 33  1  0
 12 34  1  0
 13 14  2  0
 13 18  1  0
 14 15  1  0
 14 35  1  0
 15 16  2  0
 15 36  1  0
 16 17  1  0
 16 37  1  0
 17 18  2  0
 17 38  1  0
 18 39  1  0
M  END

