
     RDKit          3D

 51 55  0  0  0  0  0  0  0  0999 V2000
    0.6704   -0.1321    0.5239 O   0  0  0  0  0  0  0  0  0  0  0  0
    1.8240   -0.0331    0.1708 C   0  0  0  0  0  0  0  0  0  0  0  0
    2.4323    1.1465    0.0674 O   0  0  0  0  0  0  0  0  0  0  0  0
    2.6534   -1.2540   -0.1775 C   0  0  0  0  0  0  0  0  0  0  0  0
    1.9871   -2.4872   -0.0617 C   0  0  0  0  0  0  0  0  0  0  0  0
    2.6859   -3.6430   -0.3679 C   0  0  0  0  0  0  0  0  0  0  0  0
    2.3437   -4.9904   -0.3592 N   0  0  0  0  0  0  0  0  0  0  0  0
    1.4258   -5.3743   -0.1763 H   0  0  0  0  0  0  0  0  0  0  0  0
    3.4665   -5.6875   -0.7665 C   0  0  0  0  0  0  0  0  0  0  0  0
    3.4537   -7.0455   -0.9054 N   0  0  0  0  0  0  0  0  0  0  0  0
    4.6977   -7.7610   -1.1796 C   0  0  2  0  0  0  0  0  0  0  0  0
    5.2549   -7.5672   -2.6284 C   0  0  0  0  0  0  0  0  0  0  0  0
    5.4431   -9.0159   -3.1324 C   0  0  2  0  0  0  0  0  0  0  0  0
    4.0535   -9.6135   -3.4439 C   0  0  0  0  0  0  0  0  0  0  0  0
    3.4199   -9.7844   -2.0270 C   0  0  0  0  0  0  0  0  0  0  0  0
    4.5404   -9.2963   -1.0761 C   0  0  1  0  0  0  0  0  0  0  0  0
    5.8073   -9.7561   -1.8266 C   0  0  0  0  0  0  0  0  0  0  0  0
    4.4969   -4.9092   -1.0214 N   0  0  0  0  0  0  0  0  0  0  0  0
    4.0434   -3.6266   -0.7894 C   0  0  0  0  0  0  0  0  0  0  0  0
    4.7046   -2.3992   -0.9010 C   0  0  0  0  0  0  0  0  0  0  0  0
    4.0125   -1.2201   -0.5970 C   0  0  0  0  0  0  0  0  0  0  0  0
    4.6863    0.0619   -0.7092 N   0  0  0  0  0  0  0  0  0  0  0  0
    5.0878    0.4129   -2.0844 C   0  0  0  0  0  0  0  0  0  0  0  0
    5.6225    1.8424   -2.1251 C   0  0  0  0  0  0  0  0  0  0  0  0
    6.7304    1.9704   -1.1896 N   0  0  0  0  0  0  0  0  0  0  0  0
    6.3178    1.6770    0.1752 C   0  0  0  0  0  0  0  0  0  0  0  0
    5.7926    0.2452    0.2491 C   0  0  0  0  0  0  0  0  0  0  0  0
    3.3739    0.9688   -0.2400 H   0  0  0  0  0  0  0  0  0  0  0  0
    0.9458   -2.4769    0.2642 H   0  0  0  0  0  0  0  0  0  0  0  0
    2.7739   -7.5419   -0.3399 H   0  0  0  0  0  0  0  0  0  0  0  0
    5.4625   -7.4302   -0.4553 H   0  0  0  0  0  0  0  0  0  0  0  0
    6.2024   -7.0107   -2.6033 H   0  0  0  0  0  0  0  0  0  0  0  0
    4.5569   -6.9908   -3.2526 H   0  0  0  0  0  0  0  0  0  0  0  0
    6.1628   -9.1099   -3.9588 H   0  0  0  0  0  0  0  0  0  0  0  0
    4.1495  -10.5844   -3.9553 H   0  0  0  0  0  0  0  0  0  0  0  0
    3.4593   -8.9576   -4.0987 H   0  0  0  0  0  0  0  0  0  0  0  0
    3.1785  -10.8379   -1.8170 H   0  0  0  0  0  0  0  0  0  0  0  0
    2.4869   -9.2124   -1.9140 H   0  0  0  0  0  0  0  0  0  0  0  0
    4.4361   -9.6525   -0.0389 H   0  0  0  0  0  0  0  0  0  0  0  0
    5.8659  -10.8502   -1.9409 H   0  0  0  0  0  0  0  0  0  0  0  0
    6.7415   -9.3995   -1.3640 H   0  0  0  0  0  0  0  0  0  0  0  0
    5.7471   -2.3749   -1.2228 H   0  0  0  0  0  0  0  0  0  0  0  0
    4.2071    0.3143   -2.7369 H   0  0  0  0  0  0  0  0  0  0  0  0
    5.8700   -0.2771   -2.4574 H   0  0  0  0  0  0  0  0  0  0  0  0
    4.7829    2.5400   -1.9042 H   0  0  0  0  0  0  0  0  0  0  0  0
    5.9759    2.0642   -3.1450 H   0  0  0  0  0  0  0  0  0  0  0  0
    7.1533    2.8940   -1.2510 H   0  0  0  0  0  0  0  0  0  0  0  0
    5.5241    2.3638    0.5476 H   0  0  0  0  0  0  0  0  0  0  0  0
    7.1833    1.7767    0.8499 H   0  0  0  0  0  0  0  0  0  0  0  0
    5.4137    0.0278    1.2592 H   0  0  0  0  0  0  0  0  0  0  0  0
    6.6222   -0.4571    0.0353 H   0  0  0  0  0  0  0  0  0  0  0  0
  1  2  2  0
  2  3  1  0
  2  4  1  0
  3 28  1  0
  4  5  1  0
  4 21  2  0
  5  6  2  0
  5 29  1  0
  6  7  1  0
  6 19  1  0
  7  8  1  0
  7  9  1  0
  9 10  1  0
  9 18  2  0
 10 11  1  0
 10 30  1  0
 11 12  1  0
 11 16  1  0
 11 31  1  1
 12 13  1  0
 12 32  1  0
 12 33  1  0
 13 14  1  0
 13 17  1  0
 13 34  1  6
 14 15  1  0
 14 35  1  0
 14 36  1  0
 15 16  1  0
 15 37  1  0
 15 38  1  0
 16 17  1  0
 16 39  1  1
 17 40  1  0
 17 41  1  0
 18 19  1  0
 19 20  2  0
 20 21  1  0
 20 42  1  0
 21 22  1  0
 22 23  1  0
 22 27  1  0
 23 24  1  0
 23 43  1  0
 23 44  1  0
 24 25  1  0
 24 45  1  0
 24 46  1  0
 25 26  1  0
 25 47  1  0
 26 27  1  0
 26 48  1  0
 26 49  1  0
 27 50  1  0
 27 51  1  0
M  END

