
     RDKit          3D

 26 27  0  0  0  0  0  0  0  0999 V2000
    3.8652   -3.4663   -2.9663 C   0  0  0  0  0  0  0  0  0  0  0  0
    3.3726   -1.7384   -3.1085 S   0  0  1  0  0  0  0  0  0  0  0  0
    4.2083   -1.1026   -4.1315 O   0  0  0  0  0  0  0  0  0  0  0  0
    1.9092   -1.6730   -3.1621 O   0  0  0  0  0  0  0  0  0  0  0  0
    3.8529   -0.9997   -1.4811 C   0  0  0  0  0  0  0  0  0  0  0  0
    5.3189   -0.8559   -1.3276 C   0  0  0  0  0  0  0  0  0  0  0  0
    6.2050   -1.7830   -1.1209 N   0  0  0  0  0  0  0  0  0  0  0  0
    7.3888   -1.0740   -1.1123 C   0  0  0  0  0  0  0  0  0  0  0  0
    8.7051   -1.6936   -0.9080 C   0  0  0  0  0  0  0  0  0  0  0  0
    8.8015   -3.0710   -0.6541 C   0  0  0  0  0  0  0  0  0  0  0  0
   10.0448   -3.6709   -0.4570 C   0  0  0  0  0  0  0  0  0  0  0  0
   11.2012   -2.8870   -0.5146 C   0  0  0  0  0  0  0  0  0  0  0  0
   12.7608   -3.6312   -0.2699 Cl  0  0  0  0  0  0  0  0  0  0  0  0
   11.1239   -1.5118   -0.7667 C   0  0  0  0  0  0  0  0  0  0  0  0
    9.8784   -0.9205   -0.9621 C   0  0  0  0  0  0  0  0  0  0  0  0
    7.2240    0.2179   -1.2980 N   0  0  0  0  0  0  0  0  0  0  0  0
    5.8571    0.3623   -1.4461 O   0  0  0  0  0  0  0  0  0  0  0  0
    3.7055   -3.8879   -3.9684 H   0  0  0  0  0  0  0  0  0  0  0  0
    3.2186   -3.9598   -2.2294 H   0  0  0  0  0  0  0  0  0  0  0  0
    4.9239   -3.5135   -2.6805 H   0  0  0  0  0  0  0  0  0  0  0  0
    3.4137   -1.6296   -0.6954 H   0  0  0  0  0  0  0  0  0  0  0  0
    3.3529   -0.0221   -1.4989 H   0  0  0  0  0  0  0  0  0  0  0  0
    7.8905   -3.6700   -0.6096 H   0  0  0  0  0  0  0  0  0  0  0  0
   10.1240   -4.7409   -0.2587 H   0  0  0  0  0  0  0  0  0  0  0  0
   12.0371   -0.9163   -0.8090 H   0  0  0  0  0  0  0  0  0  0  0  0
    9.8065    0.1504   -1.1607 H   0  0  0  0  0  0  0  0  0  0  0  0
  2  1  1  1
  1 18  1  0
  1 19  1  0
  1 20  1  0
  2  3  2  0
  2  4  2  0
  2  5  1  0
  5  6  1  0
  5 21  1  0
  5 22  1  0
  6  7  2  0
  6 17  1  0
  7  8  1  0
  8  9  1  0
  8 16  2  0
  9 10  2  0
  9 15  1  0
 10 11  1  0
 10 23  1  0
 11 12  2  0
 11 24  1  0
 12 13  1  0
 12 14  1  0
 14 15  2  0
 14 25  1  0
 15 26  1  0
 16 17  1  0
M  END

