
     RDKit          3D

 48 48  0  0  0  0  0  0  0  0999 V2000
    3.4907    1.6670    0.4448 C   0  0  0  0  0  0  0  0  0  0  0  0
    3.4025    0.2745    0.6455 O   0  0  0  0  0  0  0  0  0  0  0  0
    3.8928   -0.5723   -0.2907 C   0  0  0  0  0  0  0  0  0  0  0  0
    3.7885   -1.9391   -0.0024 C   0  0  0  0  0  0  0  0  0  0  0  0
    4.2541   -2.9103   -0.8929 C   0  0  0  0  0  0  0  0  0  0  0  0
    4.1493   -4.3633   -0.4987 C   0  0  0  0  0  0  0  0  0  0  0  0
    4.8452   -2.4996   -2.1116 C   0  0  0  0  0  0  0  0  0  0  0  0
    5.4575   -3.4450   -3.1133 C   0  0  0  0  0  0  0  0  0  0  0  0
    6.6461   -3.5008   -3.3181 O   0  0  0  0  0  0  0  0  0  0  0  0
    4.4049   -4.6592   -4.1708 P   0  0  0  0  0  0  0  0  0  0  0  0
    4.3610   -6.4593   -3.3553 S   0  0  0  0  0  0  0  0  0  0  0  0
    5.1612   -4.5729   -5.8636 C   0  0  2  0  0  0  0  0  0  0  0  0
    5.2053   -3.1116   -6.3665 C   0  0  0  0  0  0  0  0  0  0  0  0
    3.8522   -2.3795   -6.4658 C   0  0  0  0  0  0  0  0  0  0  0  0
    2.9334   -2.5172   -5.2351 C   0  0  0  0  0  0  0  0  0  0  0  0
    2.7584   -3.9395   -4.6534 C   0  0  0  0  0  0  0  0  0  0  0  0
    2.0948   -4.9771   -5.5946 C   0  0  0  0  0  0  0  0  0  0  0  0
    2.8589   -5.3120   -6.8959 C   0  0  0  0  0  0  0  0  0  0  0  0
    4.3753   -5.5731   -6.7463 C   0  0  0  0  0  0  0  0  0  0  0  0
    4.9635   -1.1177   -2.3856 C   0  0  0  0  0  0  0  0  0  0  0  0
    5.5298   -0.7908   -3.5780 O   0  0  0  0  0  0  0  0  0  0  0  0
    5.7930    0.5590   -3.8917 C   0  0  0  0  0  0  0  0  0  0  0  0
    4.4843   -0.1514   -1.4902 C   0  0  0  0  0  0  0  0  0  0  0  0
    3.0412    2.1393    1.3285 H   0  0  0  0  0  0  0  0  0  0  0  0
    2.9334    1.9900   -0.4532 H   0  0  0  0  0  0  0  0  0  0  0  0
    4.5390    2.0043    0.3547 H   0  0  0  0  0  0  0  0  0  0  0  0
    3.3460   -2.2295    0.9519 H   0  0  0  0  0  0  0  0  0  0  0  0
    3.8796   -4.4551    0.5630 H   0  0  0  0  0  0  0  0  0  0  0  0
    5.0934   -4.9031   -0.6662 H   0  0  0  0  0  0  0  0  0  0  0  0
    3.3945   -4.8999   -1.0934 H   0  0  0  0  0  0  0  0  0  0  0  0
    6.1949   -4.9368   -5.7554 H   0  0  0  0  0  0  0  0  0  0  0  0
    5.6869   -3.1075   -7.3605 H   0  0  0  0  0  0  0  0  0  0  0  0
    5.8762   -2.5422   -5.7046 H   0  0  0  0  0  0  0  0  0  0  0  0
    3.3163   -2.7074   -7.3673 H   0  0  0  0  0  0  0  0  0  0  0  0
    4.0521   -1.3062   -6.6244 H   0  0  0  0  0  0  0  0  0  0  0  0
    1.9316   -2.1283   -5.4907 H   0  0  0  0  0  0  0  0  0  0  0  0
    3.3115   -1.8629   -4.4349 H   0  0  0  0  0  0  0  0  0  0  0  0
    2.1456   -3.8700   -3.7398 H   0  0  0  0  0  0  0  0  0  0  0  0
    1.0858   -4.6109   -5.8543 H   0  0  0  0  0  0  0  0  0  0  0  0
    1.9532   -5.9008   -5.0116 H   0  0  0  0  0  0  0  0  0  0  0  0
    2.6905   -4.5182   -7.6377 H   0  0  0  0  0  0  0  0  0  0  0  0
    2.4006   -6.2144   -7.3341 H   0  0  0  0  0  0  0  0  0  0  0  0
    4.8381   -5.5888   -7.7487 H   0  0  0  0  0  0  0  0  0  0  0  0
    4.5270   -6.5754   -6.3156 H   0  0  0  0  0  0  0  0  0  0  0  0
    6.3042    0.5572   -4.8634 H   0  0  0  0  0  0  0  0  0  0  0  0
    6.4516    1.0301   -3.1414 H   0  0  0  0  0  0  0  0  0  0  0  0
    4.8646    1.1516   -3.9785 H   0  0  0  0  0  0  0  0  0  0  0  0
    4.5717    0.9051   -1.7273 H   0  0  0  0  0  0  0  0  0  0  0  0
  1  2  1  0
  1 24  1  0
  1 25  1  0
  1 26  1  0
  2  3  1  0
  3  4  1  0
  3 23  2  0
  4  5  2  0
  4 27  1  0
  5  6  1  0
  5  7  1  0
  6 28  1  0
  6 29  1  0
  6 30  1  0
  7  8  2  0
  7 20  1  0
  8  9  1  0
 10 11  1  0
 10 12  1  0
 12 13  1  0
 12 19  1  0
 12 31  1  1
 13 14  1  0
 13 32  1  0
 13 33  1  0
 14 15  1  0
 14 34  1  0
 14 35  1  0
 15 16  1  0
 15 36  1  0
 15 37  1  0
 16 17  1  0
 16 38  1  0
 17 18  1  0
 17 39  1  0
 17 40  1  0
 18 19  1  0
 18 41  1  0
 18 42  1  0
 19 43  1  0
 19 44  1  0
 20 21  2  0
 20 23  1  0
 21 22  1  0
 22 45  1  0
 22 46  1  0
 22 47  1  0
 23 48  1  0
M  CHG  5   8  -1   9  -1  11   2  16  -1  21   1
M  END

