
     RDKit          3D

 38 39  0  0  0  0  0  0  0  0999 V2000
    0.9530    2.9697    0.5378 C   0  0  0  0  0  0  0  0  0  0  0  0
    2.3732    2.9279   -0.0159 C   0  0  0  0  0  0  0  0  0  0  0  0
    2.9486    1.5933    0.0779 N   0  0  0  0  0  0  0  0  0  0  0  0
    4.2525    1.3613    0.3637 C   0  0  0  0  0  0  0  0  0  0  0  0
    5.1119    2.2918    0.6843 N   0  0  0  0  0  0  0  0  0  0  0  0
    6.3468    1.7618    0.9493 C   0  0  0  0  0  0  0  0  0  0  0  0
    7.3372    2.5918    1.3363 N   0  0  0  0  0  0  0  0  0  0  0  0
    6.4880    0.3700    0.7865 C   0  0  0  0  0  0  0  0  0  0  0  0
    7.7025   -0.3437    1.1520 C   0  0  0  0  0  0  0  0  0  0  0  0
    8.6270    0.2685    1.7113 O   0  0  0  0  0  0  0  0  0  0  0  0
    7.8386   -1.7124    0.9247 N   0  0  0  0  0  0  0  0  0  0  0  0
    9.0028   -2.3892    1.4910 C   0  0  0  0  0  0  0  0  0  0  0  0
    8.6016   -3.7661    2.0268 C   0  0  0  0  0  0  0  0  0  0  0  0
    7.9080   -4.6118    0.9530 C   0  0  0  0  0  0  0  0  0  0  0  0
    6.7466   -3.8322    0.3150 C   0  0  2  0  0  0  0  0  0  0  0  0
    6.0923   -4.6120   -0.8113 C   0  0  1  0  0  0  0  0  0  0  0  0
    6.9489   -4.8624   -1.8220 F   0  0  0  0  0  0  0  0  0  0  0  0
    5.6241   -5.7993   -0.3851 F   0  0  0  0  0  0  0  0  0  0  0  0
    5.0488   -3.9403   -1.3379 F   0  0  0  0  0  0  0  0  0  0  0  0
    7.2232   -2.4486   -0.1663 C   0  0  0  0  0  0  0  0  0  0  0  0
    4.8901   -0.2809    0.3346 S   0  0  0  0  0  0  0  0  0  0  0  0
    0.5356    3.9843    0.4439 H   0  0  0  0  0  0  0  0  0  0  0  0
    0.9322    2.6832    1.6008 H   0  0  0  0  0  0  0  0  0  0  0  0
    0.2831    2.2873   -0.0129 H   0  0  0  0  0  0  0  0  0  0  0  0
    3.0378    3.5988    0.5453 H   0  0  0  0  0  0  0  0  0  0  0  0
    2.3835    3.2786   -1.0661 H   0  0  0  0  0  0  0  0  0  0  0  0
    2.3944    0.8130   -0.2538 H   0  0  0  0  0  0  0  0  0  0  0  0
    7.1024    3.5530    1.5406 H   0  0  0  0  0  0  0  0  0  0  0  0
    8.1824    2.1407    1.6842 H   0  0  0  0  0  0  0  0  0  0  0  0
    9.4181   -1.7482    2.2767 H   0  0  0  0  0  0  0  0  0  0  0  0
    9.7891   -2.5017    0.7161 H   0  0  0  0  0  0  0  0  0  0  0  0
    7.9243   -3.6292    2.8875 H   0  0  0  0  0  0  0  0  0  0  0  0
    9.4955   -4.2918    2.4006 H   0  0  0  0  0  0  0  0  0  0  0  0
    7.5413   -5.5608    1.3736 H   0  0  0  0  0  0  0  0  0  0  0  0
    8.6323   -4.8719    0.1613 H   0  0  0  0  0  0  0  0  0  0  0  0
    5.9543   -3.6751    1.0667 H   0  0  0  0  0  0  0  0  0  0  0  0
    6.3874   -1.8903   -0.6001 H   0  0  0  0  0  0  0  0  0  0  0  0
    7.9608   -2.5931   -0.9819 H   0  0  0  0  0  0  0  0  0  0  0  0
  1  2  1  0
  1 22  1  0
  1 23  1  0
  1 24  1  0
  2  3  1  0
  2 25  1  0
  2 26  1  0
  3  4  1  0
  3 27  1  0
  4  5  2  0
  4 21  1  0
  5  6  1  0
  6  7  1  0
  6  8  2  0
  7 28  1  0
  7 29  1  0
  8  9  1  0
  8 21  1  0
  9 10  2  0
  9 11  1  0
 11 12  1  0
 11 20  1  0
 12 13  1  0
 12 30  1  0
 12 31  1  0
 13 14  1  0
 13 32  1  0
 13 33  1  0
 14 15  1  0
 14 34  1  0
 14 35  1  0
 15 16  1  0
 15 20  1  0
 15 36  1  1
 16 17  1  6
 16 18  1  0
 16 19  1  0
 20 37  1  0
 20 38  1  0
M  END

