
     RDKit          3D

 55 57  0  0  0  0  0  0  0  0999 V2000
    3.4052    2.2283    0.1825 C   0  0  0  0  0  0  0  0  0  0  0  0
    4.1294    0.9023    0.1089 C   0  0  0  0  0  0  0  0  0  0  0  0
    4.1220    0.0713    1.0087 O   0  0  0  0  0  0  0  0  0  0  0  0
    4.8227    0.6801   -1.0408 N   0  0  0  0  0  0  0  0  0  0  0  0
    5.4573   -0.5388   -1.1872 N   0  0  0  0  0  0  0  0  0  0  0  0
    5.8458   -0.9169   -2.4412 C   0  0  0  0  0  0  0  0  0  0  0  0
    5.6579   -0.0903   -3.4159 N   0  0  0  0  0  0  0  0  0  0  0  0
    6.2066   -0.2995   -4.6768 C   0  0  0  0  0  0  0  0  0  0  0  0
    6.6570    0.8304   -5.3860 C   0  0  0  0  0  0  0  0  0  0  0  0
    7.2386    0.7140   -6.6448 C   0  0  0  0  0  0  0  0  0  0  0  0
    7.3792   -0.5353   -7.2721 C   0  0  0  0  0  0  0  0  0  0  0  0
    8.0489   -0.6662   -8.6355 C   0  0  1  0  0  0  0  0  0  0  0  0
    9.3452   -1.4905   -8.5182 C   0  0  0  0  0  0  0  0  0  0  0  0
    7.0785   -1.2051   -9.7280 C   0  0  1  0  0  0  0  0  0  0  0  0
    5.8348   -0.3162   -9.8644 C   0  0  0  0  0  0  0  0  0  0  0  0
    7.7608   -1.3645  -11.0945 C   0  0  0  0  0  0  0  0  0  0  0  0
    6.8854   -1.6525   -6.5888 C   0  0  0  0  0  0  0  0  0  0  0  0
    6.3028   -1.5647   -5.3105 C   0  0  0  0  0  0  0  0  0  0  0  0
    5.7809   -2.7988   -4.6615 C   0  0  0  0  0  0  0  0  0  0  0  0
    5.1137   -3.8470   -5.4962 C   0  0  0  0  0  0  0  0  0  0  0  0
    5.2335   -5.2057   -5.1494 C   0  0  0  0  0  0  0  0  0  0  0  0
    4.5888   -6.1906   -5.8968 C   0  0  0  0  0  0  0  0  0  0  0  0
    3.8001   -5.8374   -6.9980 C   0  0  0  0  0  0  0  0  0  0  0  0
    3.6636   -4.4908   -7.3450 C   0  0  0  0  0  0  0  0  0  0  0  0
    4.3180   -3.5031   -6.6036 C   0  0  0  0  0  0  0  0  0  0  0  0
    5.8643   -3.0827   -3.4071 N   0  0  0  0  0  0  0  0  0  0  0  0
    6.4845   -2.1658   -2.5355 N   0  0  0  0  0  0  0  0  0  0  0  0
    6.9021   -2.8389   -1.3129 C   0  0  0  0  0  0  0  0  0  0  0  0
    3.7739    2.7846    1.0576 H   0  0  0  0  0  0  0  0  0  0  0  0
    2.3334    2.0386    0.3454 H   0  0  0  0  0  0  0  0  0  0  0  0
    3.5333    2.8459   -0.7180 H   0  0  0  0  0  0  0  0  0  0  0  0
    4.7585    1.1973   -1.9165 H   0  0  0  0  0  0  0  0  0  0  0  0
    5.2206   -1.1851   -0.4363 H   0  0  0  0  0  0  0  0  0  0  0  0
    6.5483    1.8066   -4.9087 H   0  0  0  0  0  0  0  0  0  0  0  0
    7.5931    1.6142   -7.1557 H   0  0  0  0  0  0  0  0  0  0  0  0
    8.3366    0.3549   -8.9473 H   0  0  0  0  0  0  0  0  0  0  0  0
    9.1303   -2.5505   -8.3024 H   0  0  0  0  0  0  0  0  0  0  0  0
    9.9738   -1.1073   -7.6996 H   0  0  0  0  0  0  0  0  0  0  0  0
    9.9413   -1.4510   -9.4420 H   0  0  0  0  0  0  0  0  0  0  0  0
    6.7429   -2.2087   -9.4043 H   0  0  0  0  0  0  0  0  0  0  0  0
    6.1118    0.6991  -10.1984 H   0  0  0  0  0  0  0  0  0  0  0  0
    5.2919   -0.2156   -8.9128 H   0  0  0  0  0  0  0  0  0  0  0  0
    5.1365   -0.7292  -10.6101 H   0  0  0  0  0  0  0  0  0  0  0  0
    8.1877   -0.4061  -11.4385 H   0  0  0  0  0  0  0  0  0  0  0  0
    7.0329   -1.6915  -11.8545 H   0  0  0  0  0  0  0  0  0  0  0  0
    8.5719   -2.1072  -11.0790 H   0  0  0  0  0  0  0  0  0  0  0  0
    6.9570   -2.6382   -7.0532 H   0  0  0  0  0  0  0  0  0  0  0  0
    5.8400   -5.4730   -4.2828 H   0  0  0  0  0  0  0  0  0  0  0  0
    4.7017   -7.2420   -5.6197 H   0  0  0  0  0  0  0  0  0  0  0  0
    3.2936   -6.6100   -7.5823 H   0  0  0  0  0  0  0  0  0  0  0  0
    3.0415   -4.2041   -8.1968 H   0  0  0  0  0  0  0  0  0  0  0  0
    4.1980   -2.4535   -6.8785 H   0  0  0  0  0  0  0  0  0  0  0  0
    7.5692   -3.6665   -1.5875 H   0  0  0  0  0  0  0  0  0  0  0  0
    6.0536   -3.2655   -0.7427 H   0  0  0  0  0  0  0  0  0  0  0  0
    7.4584   -2.1354   -0.6796 H   0  0  0  0  0  0  0  0  0  0  0  0
  1  2  1  0
  1 29  1  0
  1 30  1  0
  1 31  1  0
  2  3  2  0
  2  4  1  0
  4  5  1  0
  4 32  1  0
  5  6  1  0
  5 33  1  0
  6  7  2  0
  6 27  1  0
  7  8  1  0
  8  9  2  0
  8 18  1  0
  9 10  1  0
  9 34  1  0
 10 11  2  0
 10 35  1  0
 11 12  1  0
 11 17  1  0
 12 13  1  0
 12 14  1  0
 12 36  1  6
 13 37  1  0
 13 38  1  0
 13 39  1  0
 14 15  1  0
 14 16  1  0
 14 40  1  1
 15 41  1  0
 15 42  1  0
 15 43  1  0
 16 44  1  0
 16 45  1  0
 16 46  1  0
 17 18  2  0
 17 47  1  0
 18 19  1  0
 19 20  1  0
 19 26  2  0
 20 21  2  0
 20 25  1  0
 21 22  1  0
 21 48  1  0
 22 23  2  0
 22 49  1  0
 23 24  1  0
 23 50  1  0
 24 25  2  0
 24 51  1  0
 25 52  1  0
 26 27  1  0
 27 28  1  0
 28 53  1  0
 28 54  1  0
 28 55  1  0
M  END

