
     RDKit          3D

 37 38  0  0  0  0  0  0  0  0999 V2000
    1.2409    1.3771    0.8471 C   0  0  0  0  0  0  0  0  0  0  0  0
    1.7438    0.0638    0.9068 O   0  0  0  0  0  0  0  0  0  0  0  0
    2.9111   -0.1837    1.5456 C   0  0  0  0  0  0  0  0  0  0  0  0
    3.6776    0.8134    2.1689 C   0  0  0  0  0  0  0  0  0  0  0  0
    4.8905    0.5006    2.8240 C   0  0  0  0  0  0  0  0  0  0  0  0
    5.6407    1.4651    3.4482 N   0  0  0  0  0  0  0  0  0  0  0  0
    5.3658    2.8753    3.4038 C   0  0  0  0  0  0  0  0  0  0  0  0
    6.4470    3.6525    4.1070 C   0  0  0  0  0  0  0  0  0  0  0  0
    6.4756    5.0342    4.4203 C   0  0  0  0  0  0  0  0  0  0  0  0
    7.6990    5.2189    5.0430 C   0  0  0  0  0  0  0  0  0  0  0  0
    8.3168    4.0089    5.0757 N   0  0  0  0  0  0  0  0  0  0  0  0
    9.6318    3.6838    5.6427 C   0  0  1  0  0  0  0  0  0  0  0  0
    9.4896    2.7095    6.8151 C   0  0  0  0  0  0  0  0  0  0  0  0
   10.5762    3.1668    4.5544 C   0  0  0  0  0  0  0  0  0  0  0  0
    7.5653    3.0522    4.5095 N   0  0  0  0  0  0  0  0  0  0  0  0
    5.3200   -0.8455    2.8354 C   0  0  0  0  0  0  0  0  0  0  0  0
    4.5582   -1.8308    2.2156 C   0  0  0  0  0  0  0  0  0  0  0  0
    3.3602   -1.5186    1.5715 C   0  0  0  0  0  0  0  0  0  0  0  0
    2.3377   -2.8896    0.7310 Br  0  0  0  0  0  0  0  0  0  0  0  0
    0.2979    1.3231    0.2865 H   0  0  0  0  0  0  0  0  0  0  0  0
    1.9311    2.0602    0.3194 H   0  0  0  0  0  0  0  0  0  0  0  0
    1.0353    1.7870    1.8526 H   0  0  0  0  0  0  0  0  0  0  0  0
    3.3290    1.8434    2.1495 H   0  0  0  0  0  0  0  0  0  0  0  0
    6.5477    1.2113    3.8220 H   0  0  0  0  0  0  0  0  0  0  0  0
    4.3912    3.1102    3.8774 H   0  0  0  0  0  0  0  0  0  0  0  0
    5.2831    3.2401    2.3571 H   0  0  0  0  0  0  0  0  0  0  0  0
    5.7146    5.7856    4.2227 H   0  0  0  0  0  0  0  0  0  0  0  0
    8.1671    6.1082    5.4606 H   0  0  0  0  0  0  0  0  0  0  0  0
   10.0176    4.6439    6.0224 H   0  0  0  0  0  0  0  0  0  0  0  0
    9.0649    1.7545    6.4718 H   0  0  0  0  0  0  0  0  0  0  0  0
    8.8276    3.1210    7.5924 H   0  0  0  0  0  0  0  0  0  0  0  0
   10.4736    2.5116    7.2676 H   0  0  0  0  0  0  0  0  0  0  0  0
   10.1901    2.2310    4.1239 H   0  0  0  0  0  0  0  0  0  0  0  0
   11.5740    2.9718    4.9770 H   0  0  0  0  0  0  0  0  0  0  0  0
   10.6818    3.9015    3.7416 H   0  0  0  0  0  0  0  0  0  0  0  0
    6.2546   -1.1118    3.3353 H   0  0  0  0  0  0  0  0  0  0  0  0
    4.8975   -2.8684    2.2288 H   0  0  0  0  0  0  0  0  0  0  0  0
  1  2  1  0
  1 20  1  0
  1 21  1  0
  1 22  1  0
  2  3  1  0
  3  4  2  0
  3 18  1  0
  4  5  1  0
  4 23  1  0
  5  6  1  0
  5 16  2  0
  6  7  1  0
  6 24  1  0
  7  8  1  0
  7 25  1  0
  7 26  1  0
  8  9  1  0
  8 15  2  0
  9 10  2  0
  9 27  1  0
 10 11  1  0
 10 28  1  0
 11 12  1  0
 11 15  1  0
 12 13  1  0
 12 14  1  0
 12 29  1  1
 13 30  1  0
 13 31  1  0
 13 32  1  0
 14 33  1  0
 14 34  1  0
 14 35  1  0
 16 17  1  0
 16 36  1  0
 17 18  2  0
 17 37  1  0
 18 19  1  0
M  END

