
     RDKit          3D

 34 36  0  0  0  0  0  0  0  0999 V2000
    0.1456   -6.2862    0.2656 C   0  0  0  0  0  0  0  0  0  0  0  0
    1.3078   -5.5173   -0.3789 C   0  0  0  0  0  0  0  0  0  0  0  0
    0.8888   -4.1970   -0.9607 C   0  0  0  0  0  0  0  0  0  0  0  0
    0.1342   -4.1816   -2.1106 N   0  0  0  0  0  0  0  0  0  0  0  0
   -0.1857   -3.0454   -2.5641 N   0  0  0  0  0  0  0  0  0  0  0  0
    0.4361   -1.7797   -1.5398 S   0  0  0  0  0  0  0  0  0  0  0  0
    1.1450   -2.9258   -0.4711 C   0  0  0  0  0  0  0  0  0  0  0  0
    2.0317   -2.5969    0.7002 C   0  0  0  0  0  0  0  0  0  0  0  0
    3.1390   -3.1116    0.7832 O   0  0  0  0  0  0  0  0  0  0  0  0
    1.5760   -1.7066    1.6269 N   0  0  0  0  0  0  0  0  0  0  0  0
    2.4268   -1.3670    2.7698 C   0  0  0  0  0  0  0  0  0  0  0  0
    1.7378   -0.1589    3.4536 C   0  0  1  0  0  0  0  0  0  0  0  0
    2.4817    1.1764    3.2559 C   0  0  0  0  0  0  0  0  0  0  0  0
    2.0401    1.6439    1.8631 C   0  0  0  0  0  0  0  0  0  0  0  0
    0.5382    1.3104    1.8439 C   0  0  0  0  0  0  0  0  0  0  0  0
    0.3726    0.0189    2.6973 C   0  0  1  0  0  0  0  0  0  0  0  0
    0.2026   -1.2753    1.8886 C   0  0  0  0  0  0  0  0  0  0  0  0
    0.4859   -7.2664    0.6347 H   0  0  0  0  0  0  0  0  0  0  0  0
   -0.6639   -6.4564   -0.4612 H   0  0  0  0  0  0  0  0  0  0  0  0
   -0.2777   -5.7318    1.1189 H   0  0  0  0  0  0  0  0  0  0  0  0
    1.7323   -6.1194   -1.1992 H   0  0  0  0  0  0  0  0  0  0  0  0
    2.1184   -5.3455    0.3421 H   0  0  0  0  0  0  0  0  0  0  0  0
    3.4456   -1.1531    2.4151 H   0  0  0  0  0  0  0  0  0  0  0  0
    2.5080   -2.2308    3.4545 H   0  0  0  0  0  0  0  0  0  0  0  0
    1.5897   -0.3772    4.5212 H   0  0  0  0  0  0  0  0  0  0  0  0
    3.5733    1.0771    3.3661 H   0  0  0  0  0  0  0  0  0  0  0  0
    2.1445    1.9020    4.0164 H   0  0  0  0  0  0  0  0  0  0  0  0
    2.5711    1.0694    1.0851 H   0  0  0  0  0  0  0  0  0  0  0  0
    2.2477    2.7091    1.6753 H   0  0  0  0  0  0  0  0  0  0  0  0
    0.1367    1.1958    0.8247 H   0  0  0  0  0  0  0  0  0  0  0  0
   -0.0270    2.1311    2.3153 H   0  0  0  0  0  0  0  0  0  0  0  0
   -0.4706    0.1282    3.3948 H   0  0  0  0  0  0  0  0  0  0  0  0
   -0.3650   -1.1301    0.9614 H   0  0  0  0  0  0  0  0  0  0  0  0
   -0.3291   -2.0402    2.4878 H   0  0  0  0  0  0  0  0  0  0  0  0
  1  2  1  0
  1 18  1  0
  1 19  1  0
  1 20  1  0
  2  3  1  0
  2 21  1  0
  2 22  1  0
  3  4  2  0
  3  7  1  0
  4  5  1  0
  5  6  2  0
  6  7  1  0
  7  8  2  0
  8  9  1  0
  8 10  1  0
 10 11  1  0
 10 17  1  0
 11 12  1  0
 11 23  1  0
 11 24  1  0
 12 13  1  0
 12 16  1  0
 12 25  1  1
 13 14  1  0
 13 26  1  0
 13 27  1  0
 14 15  1  0
 14 28  1  0
 14 29  1  0
 15 16  1  0
 15 30  1  0
 15 31  1  0
 16 17  1  0
 16 32  1  1
 17 33  1  0
 17 34  1  0
M  CHG  2   6   1   9  -1
M  END

