
     RDKit          3D

 40 41  0  0  0  0  0  0  0  0999 V2000
    3.1793  -11.3363   -0.7725 C   0  0  0  0  0  0  0  0  0  0  0  0
    4.1840  -10.2567    0.2781 S   0  0  0  0  0  0  0  0  0  0  0  0
    4.4684   -8.8498   -0.7983 C   0  0  0  0  0  0  0  0  0  0  0  0
    3.8981   -8.6850   -2.3303 S   0  0  0  0  0  0  0  0  0  0  0  0
    5.2412   -7.9389   -0.1246 N   0  0  0  0  0  0  0  0  0  0  0  0
    5.6254   -6.7604   -0.6596 N   0  0  0  0  0  0  0  0  0  0  0  0
    6.3557   -5.9916    0.0537 C   0  0  0  0  0  0  0  0  0  0  0  0
    6.8446   -4.6748   -0.4779 C   0  0  0  0  0  0  0  0  0  0  0  0
    8.3577   -4.6316   -0.6226 C   0  0  0  0  0  0  0  0  0  0  0  0
    9.0089   -5.4687   -1.5378 C   0  0  0  0  0  0  0  0  0  0  0  0
   10.3989   -5.4501   -1.6898 C   0  0  0  0  0  0  0  0  0  0  0  0
   11.1715   -4.5779   -0.9073 C   0  0  0  0  0  0  0  0  0  0  0  0
   12.5271   -4.4792   -0.9745 O   0  0  0  0  0  0  0  0  0  0  0  0
   13.2376   -5.2905   -1.8825 C   0  0  0  0  0  0  0  0  0  0  0  0
   14.7142   -4.9974   -1.7709 C   0  0  0  0  0  0  0  0  0  0  0  0
   15.2490   -4.0415   -0.8995 C   0  0  0  0  0  0  0  0  0  0  0  0
   16.6257   -3.8063   -0.8345 C   0  0  0  0  0  0  0  0  0  0  0  0
   17.4740   -4.5427   -1.6570 C   0  0  0  0  0  0  0  0  0  0  0  0
   18.7945   -4.3276   -1.6047 F   0  0  0  0  0  0  0  0  0  0  0  0
   16.9866   -5.5050   -2.5404 C   0  0  0  0  0  0  0  0  0  0  0  0
   15.6118   -5.7088   -2.5749 C   0  0  0  0  0  0  0  0  0  0  0  0
   15.1145   -6.6315   -3.4183 F   0  0  0  0  0  0  0  0  0  0  0  0
   10.5335   -3.7357    0.0171 C   0  0  0  0  0  0  0  0  0  0  0  0
    9.1480   -3.7678    0.1531 C   0  0  0  0  0  0  0  0  0  0  0  0
    2.9718  -12.2260   -0.1606 H   0  0  0  0  0  0  0  0  0  0  0  0
    3.7325  -11.6122   -1.6799 H   0  0  0  0  0  0  0  0  0  0  0  0
    2.2443  -10.8348   -1.0546 H   0  0  0  0  0  0  0  0  0  0  0  0
    5.5447   -8.1697    0.8266 H   0  0  0  0  0  0  0  0  0  0  0  0
    6.6793   -6.2808    1.0739 H   0  0  0  0  0  0  0  0  0  0  0  0
    6.5240   -3.8688    0.2045 H   0  0  0  0  0  0  0  0  0  0  0  0
    6.3516   -4.5027   -1.4474 H   0  0  0  0  0  0  0  0  0  0  0  0
    8.4188   -6.1545   -2.1524 H   0  0  0  0  0  0  0  0  0  0  0  0
   10.8622   -6.1156   -2.4182 H   0  0  0  0  0  0  0  0  0  0  0  0
   12.8957   -5.1060   -2.9195 H   0  0  0  0  0  0  0  0  0  0  0  0
   13.0515   -6.3623   -1.6763 H   0  0  0  0  0  0  0  0  0  0  0  0
   14.5657   -3.4772   -0.2649 H   0  0  0  0  0  0  0  0  0  0  0  0
   17.0475   -3.0623   -0.1569 H   0  0  0  0  0  0  0  0  0  0  0  0
   17.6559   -6.0786   -3.1820 H   0  0  0  0  0  0  0  0  0  0  0  0
   11.1455   -3.0607    0.6188 H   0  0  0  0  0  0  0  0  0  0  0  0
    8.6694   -3.1001    0.8756 H   0  0  0  0  0  0  0  0  0  0  0  0
  1  2  1  0
  1 25  1  0
  1 26  1  0
  1 27  1  0
  2  3  1  0
  3  4  2  0
  3  5  1  0
  5  6  1  0
  5 28  1  0
  6  7  2  0
  7  8  1  0
  7 29  1  0
  8  9  1  0
  8 30  1  0
  8 31  1  0
  9 10  2  0
  9 24  1  0
 10 11  1  0
 10 32  1  0
 11 12  2  0
 11 33  1  0
 12 13  1  0
 12 23  1  0
 13 14  1  0
 14 15  1  0
 14 34  1  0
 14 35  1  0
 15 16  2  0
 15 21  1  0
 16 17  1  0
 16 36  1  0
 17 18  2  0
 17 37  1  0
 18 19  1  0
 18 20  1  0
 20 21  2  0
 20 38  1  0
 21 22  1  0
 23 24  2  0
 23 39  1  0
 24 40  1  0
M  END

