
     RDKit          3D

 45 45  0  0  0  0  0  0  0  0999 V2000
    2.8604    2.4328    3.2151 C   0  0  0  0  0  0  0  0  0  0  0  0
    2.9683    1.4467    2.0510 C   0  0  0  0  0  0  0  0  0  0  0  0
    3.7895    1.9787    0.8719 C   0  0  0  0  0  0  0  0  0  0  0  0
    3.8905    0.9932   -0.2956 C   0  0  0  0  0  0  0  0  0  0  0  0
    4.6950    1.5016   -1.5123 C   0  0  0  0  0  0  0  0  0  0  0  0
    6.1796    1.7117   -1.2624 C   0  0  0  0  0  0  0  0  0  0  0  0
    6.6217    2.9982   -0.9156 C   0  0  0  0  0  0  0  0  0  0  0  0
    7.9657    3.2538   -0.6511 C   0  0  0  0  0  0  0  0  0  0  0  0
    8.8866    2.2107   -0.7276 C   0  0  0  0  0  0  0  0  0  0  0  0
    8.4863    0.9098   -1.0711 C   0  0  0  0  0  0  0  0  0  0  0  0
    9.5410   -0.1837   -1.1067 C   0  0  0  0  0  0  0  0  0  0  0  0
    9.6706   -1.0077    0.1943 C   0  0  0  0  0  0  0  0  0  0  0  0
   10.1647   -0.2162    1.4059 C   0  0  0  0  0  0  0  0  0  0  0  0
    7.1190    0.6527   -1.3466 C   0  0  0  0  0  0  0  0  0  0  0  0
    6.6768   -0.7286   -1.8030 C   0  0  0  0  0  0  0  0  0  0  0  0
    6.7369   -0.9204   -3.3316 C   0  0  0  0  0  0  0  0  0  0  0  0
    6.2885   -2.3117   -3.7807 C   0  0  0  0  0  0  0  0  0  0  0  0
    2.2666    2.0176    4.0452 H   0  0  0  0  0  0  0  0  0  0  0  0
    2.3786    3.3739    2.9001 H   0  0  0  0  0  0  0  0  0  0  0  0
    3.8555    2.6915    3.6144 H   0  0  0  0  0  0  0  0  0  0  0  0
    1.9549    1.1790    1.6991 H   0  0  0  0  0  0  0  0  0  0  0  0
    3.4188    0.5027    2.4086 H   0  0  0  0  0  0  0  0  0  0  0  0
    4.8022    2.2420    1.2249 H   0  0  0  0  0  0  0  0  0  0  0  0
    3.3401    2.9242    0.5131 H   0  0  0  0  0  0  0  0  0  0  0  0
    2.8710    0.7396   -0.6392 H   0  0  0  0  0  0  0  0  0  0  0  0
    4.3299    0.0473    0.0684 H   0  0  0  0  0  0  0  0  0  0  0  0
    4.2569    2.4591   -1.8415 H   0  0  0  0  0  0  0  0  0  0  0  0
    4.5426    0.8031   -2.3491 H   0  0  0  0  0  0  0  0  0  0  0  0
    5.8946    3.8134   -0.8638 H   0  0  0  0  0  0  0  0  0  0  0  0
    8.2951    4.2632   -0.3912 H   0  0  0  0  0  0  0  0  0  0  0  0
    9.9439    2.4055   -0.5274 H   0  0  0  0  0  0  0  0  0  0  0  0
   10.5192    0.2797   -1.3214 H   0  0  0  0  0  0  0  0  0  0  0  0
    9.3503   -0.8748   -1.9419 H   0  0  0  0  0  0  0  0  0  0  0  0
   10.3642   -1.8452    0.0001 H   0  0  0  0  0  0  0  0  0  0  0  0
    8.6972   -1.4702    0.4336 H   0  0  0  0  0  0  0  0  0  0  0  0
   11.1579    0.2264    1.2179 H   0  0  0  0  0  0  0  0  0  0  0  0
   10.2541   -0.8651    2.2920 H   0  0  0  0  0  0  0  0  0  0  0  0
    9.4789    0.6064    1.6629 H   0  0  0  0  0  0  0  0  0  0  0  0
    5.6504   -0.9334   -1.4633 H   0  0  0  0  0  0  0  0  0  0  0  0
    7.2952   -1.5051   -1.3280 H   0  0  0  0  0  0  0  0  0  0  0  0
    7.7661   -0.7279   -3.6811 H   0  0  0  0  0  0  0  0  0  0  0  0
    6.1134   -0.1511   -3.8192 H   0  0  0  0  0  0  0  0  0  0  0  0
    6.9199   -3.1001   -3.3373 H   0  0  0  0  0  0  0  0  0  0  0  0
    6.3422   -2.4196   -4.8758 H   0  0  0  0  0  0  0  0  0  0  0  0
    5.2480   -2.5161   -3.4768 H   0  0  0  0  0  0  0  0  0  0  0  0
  1  2  1  0
  1 18  1  0
  1 19  1  0
  1 20  1  0
  2  3  1  0
  2 21  1  0
  2 22  1  0
  3  4  1  0
  3 23  1  0
  3 24  1  0
  4  5  1  0
  4 25  1  0
  4 26  1  0
  5  6  1  0
  5 27  1  0
  5 28  1  0
  6  7  2  0
  6 14  1  0
  7  8  1  0
  7 29  1  0
  8  9  2  0
  8 30  1  0
  9 10  1  0
  9 31  1  0
 10 11  1  0
 10 14  2  0
 11 12  1  0
 11 32  1  0
 11 33  1  0
 12 13  1  0
 12 34  1  0
 12 35  1  0
 13 36  1  0
 13 37  1  0
 13 38  1  0
 14 15  1  0
 15 16  1  0
 15 39  1  0
 15 40  1  0
 16 17  1  0
 16 41  1  0
 16 42  1  0
 17 43  1  0
 17 44  1  0
 17 45  1  0
M  END

