
     RDKit          3D

 33 35  0  0  0  0  0  0  0  0999 V2000
    1.2939   -0.5909   -0.3107 O   0  0  0  0  0  0  0  0  0  0  0  0
    2.3718   -0.2013    0.0715 C   0  0  0  0  0  0  0  0  0  0  0  0
    3.0607    1.0471   -0.5050 C   0  0  0  0  0  0  0  0  0  0  0  0
    2.2085    1.6737   -1.9412 Cl  0  0  0  0  0  0  0  0  0  0  0  0
    3.0984   -0.8527    1.0696 N   0  0  0  0  0  0  0  0  0  0  0  0
    4.3770   -0.3920    1.5290 C   0  0  0  0  0  0  0  0  0  0  0  0
    4.4850    0.6999    2.3970 C   0  0  0  0  0  0  0  0  0  0  0  0
    5.7373    1.1361    2.8337 C   0  0  0  0  0  0  0  0  0  0  0  0
    6.8793    0.4540    2.4049 C   0  0  0  0  0  0  0  0  0  0  0  0
    8.4540    0.9841    2.9429 Cl  0  0  0  0  0  0  0  0  0  0  0  0
    6.7803   -0.6532    1.5560 C   0  0  0  0  0  0  0  0  0  0  0  0
    5.5271   -1.0846    1.1071 C   0  0  0  0  0  0  0  0  0  0  0  0
    5.3473   -2.2977    0.2314 C   0  0  0  0  0  0  0  0  0  0  0  0
    4.6964   -3.4718    0.9813 C   0  0  0  0  0  0  0  0  0  0  0  0
    3.3208   -3.2740    1.6073 C   0  0  0  0  0  0  0  0  0  0  0  0
    2.7528   -4.4078    2.2167 C   0  0  0  0  0  0  0  0  0  0  0  0
    1.4957   -4.3607    2.8113 C   0  0  0  0  0  0  0  0  0  0  0  0
    0.8302   -5.8018    3.5444 Cl  0  0  0  0  0  0  0  0  0  0  0  0
    0.7617   -3.1710    2.8262 C   0  0  0  0  0  0  0  0  0  0  0  0
    1.3183   -2.0382    2.2445 C   0  0  0  0  0  0  0  0  0  0  0  0
    2.5845   -2.0722    1.6371 C   0  0  0  0  0  0  0  0  0  0  0  0
    4.0988    0.8277   -0.7888 H   0  0  0  0  0  0  0  0  0  0  0  0
    3.0895    1.8480    0.2463 H   0  0  0  0  0  0  0  0  0  0  0  0
    3.5799    1.2072    2.7386 H   0  0  0  0  0  0  0  0  0  0  0  0
    5.8307    1.9890    3.5072 H   0  0  0  0  0  0  0  0  0  0  0  0
    7.6873   -1.1746    1.2436 H   0  0  0  0  0  0  0  0  0  0  0  0
    6.3231   -2.6306   -0.1531 H   0  0  0  0  0  0  0  0  0  0  0  0
    4.7335   -2.0344   -0.6463 H   0  0  0  0  0  0  0  0  0  0  0  0
    5.3856   -3.7948    1.7817 H   0  0  0  0  0  0  0  0  0  0  0  0
    4.6277   -4.3276    0.2885 H   0  0  0  0  0  0  0  0  0  0  0  0
    3.3044   -5.3505    2.2153 H   0  0  0  0  0  0  0  0  0  0  0  0
   -0.2244   -3.1367    3.2911 H   0  0  0  0  0  0  0  0  0  0  0  0
    0.7604   -1.1017    2.2469 H   0  0  0  0  0  0  0  0  0  0  0  0
  1  2  2  0
  2  3  1  0
  2  5  1  0
  3  4  1  0
  3 22  1  0
  3 23  1  0
  5  6  1  0
  5 21  1  0
  6  7  2  0
  6 12  1  0
  7  8  1  0
  7 24  1  0
  8  9  2  0
  8 25  1  0
  9 10  1  0
  9 11  1  0
 11 12  2  0
 11 26  1  0
 12 13  1  0
 13 14  1  0
 13 27  1  0
 13 28  1  0
 14 15  1  0
 14 29  1  0
 14 30  1  0
 15 16  2  0
 15 21  1  0
 16 17  1  0
 16 31  1  0
 17 18  1  0
 17 19  2  0
 19 20  1  0
 19 32  1  0
 20 21  2  0
 20 33  1  0
M  END

