
     RDKit          3D

 46 47  0  0  0  0  0  0  0  0999 V2000
    6.4432   -3.1616    5.7463 C   0  0  0  0  0  0  0  0  0  0  0  0
    6.5856   -1.9665    4.8232 C   0  0  0  0  0  0  0  0  0  0  0  0
    5.8225   -2.2168    3.6533 O   0  0  0  0  0  0  0  0  0  0  0  0
    5.8203   -1.3094    2.6414 C   0  0  0  0  0  0  0  0  0  0  0  0
    6.4869   -0.0764    2.6812 C   0  0  0  0  0  0  0  0  0  0  0  0
    6.4680    0.8032    1.5854 C   0  0  0  0  0  0  0  0  0  0  0  0
    7.1666    2.1553    1.6552 C   0  0  0  0  0  0  0  0  0  0  0  0
    6.3037    3.3184    1.8606 N   0  0  0  0  0  0  0  0  0  0  0  0
    5.5341    3.3810    3.1066 C   0  0  1  0  0  0  0  0  0  0  0  0
    6.4469    3.7182    4.3060 C   0  0  0  0  0  0  0  0  0  0  0  0
    6.9851    5.1581    4.2179 C   0  0  0  0  0  0  0  0  0  0  0  0
    5.9393    6.1697    4.0900 N   0  0  0  0  0  0  0  0  0  0  0  0
    5.2505    6.4994    5.3214 C   0  0  0  0  0  0  0  0  0  0  0  0
    5.0699    5.8873    2.9522 C   0  0  0  0  0  0  0  0  0  0  0  0
    4.4553    4.4744    2.9817 C   0  0  0  0  0  0  0  0  0  0  0  0
    5.7665    0.4256    0.4345 C   0  0  0  0  0  0  0  0  0  0  0  0
    5.0868   -0.7948    0.3883 C   0  0  0  0  0  0  0  0  0  0  0  0
    5.0996   -1.6695    1.4756 C   0  0  0  0  0  0  0  0  0  0  0  0
    4.4774   -2.8804    1.3599 O   0  0  0  0  0  0  0  0  0  0  0  0
    3.3553   -3.1192    2.1947 C   0  0  0  0  0  0  0  0  0  0  0  0
    7.0383   -3.0084    6.6599 H   0  0  0  0  0  0  0  0  0  0  0  0
    6.7948   -4.0790    5.2502 H   0  0  0  0  0  0  0  0  0  0  0  0
    5.3920   -3.3089    6.0385 H   0  0  0  0  0  0  0  0  0  0  0  0
    7.6461   -1.8064    4.5519 H   0  0  0  0  0  0  0  0  0  0  0  0
    6.2295   -1.0437    5.3194 H   0  0  0  0  0  0  0  0  0  0  0  0
    7.0482    0.2087    3.5720 H   0  0  0  0  0  0  0  0  0  0  0  0
    7.7165    2.3232    0.7138 H   0  0  0  0  0  0  0  0  0  0  0  0
    7.9274    2.1320    2.4518 H   0  0  0  0  0  0  0  0  0  0  0  0
    5.6697    3.4084    1.0678 H   0  0  0  0  0  0  0  0  0  0  0  0
    5.0249    2.4166    3.3170 H   0  0  0  0  0  0  0  0  0  0  0  0
    7.2878    3.0073    4.3708 H   0  0  0  0  0  0  0  0  0  0  0  0
    5.8639    3.5836    5.2336 H   0  0  0  0  0  0  0  0  0  0  0  0
    7.6414    5.2307    3.3342 H   0  0  0  0  0  0  0  0  0  0  0  0
    7.6018    5.3937    5.1012 H   0  0  0  0  0  0  0  0  0  0  0  0
    5.9831    6.8132    6.0834 H   0  0  0  0  0  0  0  0  0  0  0  0
    4.6431    5.6806    5.7706 H   0  0  0  0  0  0  0  0  0  0  0  0
    4.5699    7.3499    5.1500 H   0  0  0  0  0  0  0  0  0  0  0  0
    5.6667    5.9957    2.0303 H   0  0  0  0  0  0  0  0  0  0  0  0
    4.2744    6.6499    2.9125 H   0  0  0  0  0  0  0  0  0  0  0  0
    3.8481    4.3029    2.0742 H   0  0  0  0  0  0  0  0  0  0  0  0
    3.7625    4.3819    3.8352 H   0  0  0  0  0  0  0  0  0  0  0  0
    5.7520    1.0848   -0.4387 H   0  0  0  0  0  0  0  0  0  0  0  0
    4.5422   -1.1086   -0.5051 H   0  0  0  0  0  0  0  0  0  0  0  0
    2.9609   -4.1073    1.9179 H   0  0  0  0  0  0  0  0  0  0  0  0
    2.5660   -2.3625    2.0289 H   0  0  0  0  0  0  0  0  0  0  0  0
    3.6297   -3.1259    3.2613 H   0  0  0  0  0  0  0  0  0  0  0  0
  1  2  1  0
  1 21  1  0
  1 22  1  0
  1 23  1  0
  2  3  1  0
  2 24  1  0
  2 25  1  0
  3  4  1  0
  4  5  2  0
  4 18  1  0
  5  6  1  0
  5 26  1  0
  6  7  1  0
  6 16  2  0
  7  8  1  0
  7 27  1  0
  7 28  1  0
  8  9  1  0
  8 29  1  0
  9 10  1  0
  9 15  1  0
  9 30  1  1
 10 11  1  0
 10 31  1  0
 10 32  1  0
 11 12  1  0
 11 33  1  0
 11 34  1  0
 12 13  1  0
 12 14  1  0
 13 35  1  0
 13 36  1  0
 13 37  1  0
 14 15  1  0
 14 38  1  0
 14 39  1  0
 15 40  1  0
 15 41  1  0
 16 17  1  0
 16 42  1  0
 17 18  2  0
 17 43  1  0
 18 19  1  0
 19 20  1  0
 20 44  1  0
 20 45  1  0
 20 46  1  0
M  END

