
     RDKit          3D

 66 68  0  0  0  0  0  0  0  0999 V2000
    5.7485   -0.8612   -3.9278 C   0  0  0  0  0  0  0  0  0  0  0  0
    3.9893   -1.0627   -3.4984 S   0  0  0  0  0  0  0  0  0  0  0  0
    4.1849   -1.5013   -1.7434 C   0  0  2  0  0  0  0  0  0  0  0  0
    4.7977   -0.7254   -1.2525 H   0  0  0  0  0  0  0  0  0  0  0  0
    4.8284   -2.7588   -1.6341 O   0  0  0  0  0  0  0  0  0  0  0  0
    5.1204   -3.1290   -0.2945 C   0  0  2  0  0  0  0  0  0  0  0  0
    5.7444   -2.3515    0.1880 H   0  0  0  0  0  0  0  0  0  0  0  0
    5.9287   -4.4223   -0.4040 C   0  0  0  0  0  0  0  0  0  0  0  0
    6.1472   -5.0338    0.8687 O   0  0  0  0  0  0  0  0  0  0  0  0
    7.1700   -4.5660    1.6243 C   0  0  0  0  0  0  0  0  0  0  0  0
    7.2907   -5.3509    2.9053 C   0  0  0  0  0  0  0  0  0  0  0  0
    7.8724   -3.6460    1.2879 O   0  0  0  0  0  0  0  0  0  0  0  0
    3.8388   -3.2668    0.5319 C   0  0  2  0  0  0  0  0  0  0  0  0
    4.0897   -3.4543    1.5851 H   0  0  0  0  0  0  0  0  0  0  0  0
    3.0827   -4.3801    0.0415 O   0  0  0  0  0  0  0  0  0  0  0  0
    2.4394   -5.1575    0.9468 C   0  0  0  0  0  0  0  0  0  0  0  0
    1.5715   -6.1755    0.2546 C   0  0  0  0  0  0  0  0  0  0  0  0
    2.5544   -5.0327    2.1407 O   0  0  0  0  0  0  0  0  0  0  0  0
    2.9827   -1.9853    0.4214 C   0  0  2  0  0  0  0  0  0  0  0  0
    3.5260   -1.1735    0.9363 H   0  0  0  0  0  0  0  0  0  0  0  0
    1.7010   -2.1482    0.9723 O   0  0  0  0  0  0  0  0  0  0  0  0
    1.5653   -1.9116    2.3632 C   0  0  0  0  0  0  0  0  0  0  0  0
    0.1066   -1.7138    2.7068 C   0  0  0  0  0  0  0  0  0  0  0  0
   -0.8088   -1.2460    1.7537 C   0  0  0  0  0  0  0  0  0  0  0  0
   -2.1460   -1.0310    2.0923 C   0  0  0  0  0  0  0  0  0  0  0  0
   -2.5835   -1.2709    3.3988 C   0  0  0  0  0  0  0  0  0  0  0  0
   -3.8914   -0.9661    3.6936 O   0  0  0  0  0  0  0  0  0  0  0  0
   -4.6686   -1.7752    4.4851 C   0  0  0  0  0  0  0  0  0  0  0  0
   -5.6436   -1.1430    5.2670 C   0  0  0  0  0  0  0  0  0  0  0  0
   -6.5136   -1.9104    6.0435 C   0  0  0  0  0  0  0  0  0  0  0  0
   -6.4140   -3.3058    6.0509 C   0  0  0  0  0  0  0  0  0  0  0  0
   -5.4387   -3.9284    5.2659 C   0  0  0  0  0  0  0  0  0  0  0  0
   -4.5656   -3.1730    4.4782 C   0  0  0  0  0  0  0  0  0  0  0  0
   -1.6811   -1.7335    4.3653 C   0  0  0  0  0  0  0  0  0  0  0  0
   -0.3508   -1.9607    4.0092 C   0  0  0  0  0  0  0  0  0  0  0  0
    2.8071   -1.5995   -1.0571 C   0  0  1  0  0  0  0  0  0  0  0  0
    2.2457   -2.4051   -1.5508 H   0  0  0  0  0  0  0  0  0  0  0  0
    1.9836   -0.4422   -1.2388 O   0  0  0  0  0  0  0  0  0  0  0  0
    2.3675    0.7656   -0.7730 C   0  0  0  0  0  0  0  0  0  0  0  0
    1.3375    1.8140   -1.1064 C   0  0  0  0  0  0  0  0  0  0  0  0
    3.3946    0.9623   -0.1686 O   0  0  0  0  0  0  0  0  0  0  0  0
    5.7875   -0.6413   -5.0039 H   0  0  0  0  0  0  0  0  0  0  0  0
    6.2991   -1.7901   -3.7266 H   0  0  0  0  0  0  0  0  0  0  0  0
    6.2018   -0.0251   -3.3737 H   0  0  0  0  0  0  0  0  0  0  0  0
    6.8879   -4.2058   -0.8945 H   0  0  0  0  0  0  0  0  0  0  0  0
    5.3592   -5.1489   -0.9964 H   0  0  0  0  0  0  0  0  0  0  0  0
    6.3305   -5.3443    3.4432 H   0  0  0  0  0  0  0  0  0  0  0  0
    8.0823   -4.9197    3.5292 H   0  0  0  0  0  0  0  0  0  0  0  0
    7.5242   -6.4021    2.6751 H   0  0  0  0  0  0  0  0  0  0  0  0
    0.6978   -5.6604   -0.1759 H   0  0  0  0  0  0  0  0  0  0  0  0
    1.2311   -6.9245    0.9794 H   0  0  0  0  0  0  0  0  0  0  0  0
    2.1141   -6.6530   -0.5738 H   0  0  0  0  0  0  0  0  0  0  0  0
    2.1420   -1.0041    2.6385 H   0  0  0  0  0  0  0  0  0  0  0  0
    1.9766   -2.7572    2.9435 H   0  0  0  0  0  0  0  0  0  0  0  0
   -0.4651   -1.0698    0.7330 H   0  0  0  0  0  0  0  0  0  0  0  0
   -2.8677   -0.6732    1.3551 H   0  0  0  0  0  0  0  0  0  0  0  0
   -5.7039   -0.0530    5.2476 H   0  0  0  0  0  0  0  0  0  0  0  0
   -7.2731   -1.4117    6.6512 H   0  0  0  0  0  0  0  0  0  0  0  0
   -7.0934   -3.9041    6.6625 H   0  0  0  0  0  0  0  0  0  0  0  0
   -5.3571   -5.0186    5.2574 H   0  0  0  0  0  0  0  0  0  0  0  0
   -3.8126   -3.6628    3.8583 H   0  0  0  0  0  0  0  0  0  0  0  0
   -2.0205   -1.9191    5.3860 H   0  0  0  0  0  0  0  0  0  0  0  0
    0.3453   -2.3344    4.7661 H   0  0  0  0  0  0  0  0  0  0  0  0
    1.1415    1.8127   -2.1890 H   0  0  0  0  0  0  0  0  0  0  0  0
    1.6975    2.7978   -0.7834 H   0  0  0  0  0  0  0  0  0  0  0  0
    0.3889    1.5780   -0.5994 H   0  0  0  0  0  0  0  0  0  0  0  0
  1  2  1  0
  1 42  1  0
  1 43  1  0
  1 44  1  0
  2  3  1  0
  3  4  1  1
  3  5  1  0
  3 36  1  0
  5  6  1  0
  6  7  1  1
  6  8  1  0
  6 13  1  0
  8  9  1  0
  8 45  1  0
  8 46  1  0
  9 10  1  0
 10 11  1  0
 10 12  2  0
 11 47  1  0
 11 48  1  0
 11 49  1  0
 13 14  1  1
 13 15  1  0
 13 19  1  0
 15 16  1  0
 16 17  1  0
 16 18  2  0
 17 50  1  0
 17 51  1  0
 17 52  1  0
 19 20  1  1
 19 21  1  0
 19 36  1  0
 21 22  1  0
 22 23  1  0
 22 53  1  0
 22 54  1  0
 23 24  2  0
 23 35  1  0
 24 25  1  0
 24 55  1  0
 25 26  2  0
 25 56  1  0
 26 27  1  0
 26 34  1  0
 27 28  1  0
 28 29  2  0
 28 33  1  0
 29 30  1  0
 29 57  1  0
 30 31  2  0
 30 58  1  0
 31 32  1  0
 31 59  1  0
 32 33  2  0
 32 60  1  0
 33 61  1  0
 34 35  2  0
 34 62  1  0
 35 63  1  0
 36 37  1  6
 36 38  1  0
 38 39  1  0
 39 40  1  0
 39 41  2  0
 40 64  1  0
 40 65  1  0
 40 66  1  0
M  END

