
     RDKit          3D

 49 50  0  0  0  0  0  0  0  0999 V2000
    0.1673    2.6143   -4.0407 C   0  0  0  0  0  0  0  0  0  0  0  0
    1.6650    2.9420   -4.0652 C   0  0  1  0  0  0  0  0  0  0  0  0
    1.9005    4.4111   -4.4401 C   0  0  0  0  0  0  0  0  0  0  0  0
    2.3151    2.5683   -2.7242 C   0  0  0  0  0  0  0  0  0  0  0  0
    3.7602    2.7206   -2.7298 N   0  0  0  0  0  0  0  0  0  0  0  0
    4.4236    2.2583   -1.5229 C   0  0  0  0  0  0  0  0  0  0  0  0
    5.9291    2.3962   -1.6020 C   0  0  0  0  0  0  0  0  0  0  0  0
    6.7022    2.7260   -0.4818 C   0  0  0  0  0  0  0  0  0  0  0  0
    8.0897    2.8006   -0.5951 C   0  0  0  0  0  0  0  0  0  0  0  0
    8.6814    2.5453   -1.8405 C   0  0  0  0  0  0  0  0  0  0  0  0
   10.1831    2.6581   -2.0577 C   0  0  0  0  0  0  0  0  0  0  0  0
   10.9720    2.3928   -0.8759 N   0  0  0  0  0  0  0  0  0  0  0  0
   11.0479    1.0034   -0.4534 C   0  0  0  0  0  0  0  0  0  0  0  0
   11.9799    1.0751    0.7531 C   0  0  0  0  0  0  0  0  0  0  0  0
   13.0272    2.1093    0.3059 C   0  0  0  0  0  0  0  0  0  0  0  0
   12.3161    3.0206   -0.7493 C   0  0  1  0  0  0  0  0  0  0  0  0
   13.1137    3.0133   -2.0710 C   0  0  0  0  0  0  0  0  0  0  0  0
   12.1611    4.4626   -0.2429 C   0  0  0  0  0  0  0  0  0  0  0  0
    7.9510    2.2343   -2.9186 N   0  0  0  0  0  0  0  0  0  0  0  0
    6.6241    2.1665   -2.8006 C   0  0  0  0  0  0  0  0  0  0  0  0
   -0.3038    2.8312   -5.0128 H   0  0  0  0  0  0  0  0  0  0  0  0
   -0.3595    3.2123   -3.2770 H   0  0  0  0  0  0  0  0  0  0  0  0
   -0.0110    1.5507   -3.8125 H   0  0  0  0  0  0  0  0  0  0  0  0
    2.1482    2.3138   -4.8353 H   0  0  0  0  0  0  0  0  0  0  0  0
    1.4873    5.0891   -3.6724 H   0  0  0  0  0  0  0  0  0  0  0  0
    1.4119    4.6574   -5.3966 H   0  0  0  0  0  0  0  0  0  0  0  0
    2.9714    4.6412   -4.5594 H   0  0  0  0  0  0  0  0  0  0  0  0
    2.0923    1.5083   -2.5072 H   0  0  0  0  0  0  0  0  0  0  0  0
    1.8226    3.1526   -1.9095 H   0  0  0  0  0  0  0  0  0  0  0  0
    4.0176    3.6907   -2.9066 H   0  0  0  0  0  0  0  0  0  0  0  0
    4.1642    1.1905   -1.3871 H   0  0  0  0  0  0  0  0  0  0  0  0
    4.0649    2.7660   -0.5977 H   0  0  0  0  0  0  0  0  0  0  0  0
    6.2165    2.9268    0.4787 H   0  0  0  0  0  0  0  0  0  0  0  0
    8.7251    3.0535    0.2553 H   0  0  0  0  0  0  0  0  0  0  0  0
   10.3843    3.6898   -2.3955 H   0  0  0  0  0  0  0  0  0  0  0  0
   10.4333    2.0039   -2.9196 H   0  0  0  0  0  0  0  0  0  0  0  0
   11.4709    0.3377   -1.2429 H   0  0  0  0  0  0  0  0  0  0  0  0
   10.0469    0.6108   -0.2099 H   0  0  0  0  0  0  0  0  0  0  0  0
   12.4221    0.1024    1.0174 H   0  0  0  0  0  0  0  0  0  0  0  0
   11.4190    1.4388    1.6288 H   0  0  0  0  0  0  0  0  0  0  0  0
   13.8854    1.6004   -0.1607 H   0  0  0  0  0  0  0  0  0  0  0  0
   13.4259    2.6966    1.1469 H   0  0  0  0  0  0  0  0  0  0  0  0
   13.1729    1.9985   -2.4964 H   0  0  0  0  0  0  0  0  0  0  0  0
   14.1439    3.3651   -1.9000 H   0  0  0  0  0  0  0  0  0  0  0  0
   12.6618    3.6726   -2.8285 H   0  0  0  0  0  0  0  0  0  0  0  0
   11.6531    4.4751    0.7335 H   0  0  0  0  0  0  0  0  0  0  0  0
   11.5622    5.0685   -0.9426 H   0  0  0  0  0  0  0  0  0  0  0  0
   13.1421    4.9537   -0.1352 H   0  0  0  0  0  0  0  0  0  0  0  0
    6.0564    1.9197   -3.7044 H   0  0  0  0  0  0  0  0  0  0  0  0
  1  2  1  0
  1 21  1  0
  1 22  1  0
  1 23  1  0
  2  3  1  0
  2  4  1  0
  2 24  1  6
  3 25  1  0
  3 26  1  0
  3 27  1  0
  4  5  1  0
  4 28  1  0
  4 29  1  0
  5  6  1  0
  5 30  1  0
  6  7  1  0
  6 31  1  0
  6 32  1  0
  7  8  2  0
  7 20  1  0
  8  9  1  0
  8 33  1  0
  9 10  2  0
  9 34  1  0
 10 11  1  0
 10 19  1  0
 11 12  1  0
 11 35  1  0
 11 36  1  0
 12 13  1  0
 12 16  1  0
 13 14  1  0
 13 37  1  0
 13 38  1  0
 14 15  1  0
 14 39  1  0
 14 40  1  0
 15 16  1  0
 15 41  1  0
 15 42  1  0
 16 17  1  6
 16 18  1  0
 17 43  1  0
 17 44  1  0
 17 45  1  0
 18 46  1  0
 18 47  1  0
 18 48  1  0
 19 20  2  0
 20 49  1  0
M  END

