
     RDKit          3D

 56 58  0  0  0  0  0  0  0  0999 V2000
    4.3971    1.1511   -5.8754 C   0  0  0  0  0  0  0  0  0  0  0  0
    5.7869    1.3411   -5.2651 C   0  0  0  0  0  0  0  0  0  0  0  0
    6.4131    2.6962   -5.6096 C   0  0  0  0  0  0  0  0  0  0  0  0
    7.7447    3.0146   -4.8976 C   0  0  2  0  0  0  0  0  0  0  0  0
    8.0905    3.9960   -5.2975 H   0  0  0  0  0  0  0  0  0  0  0  0
    8.8639    1.9997   -5.1892 C   0  0  0  0  0  0  0  0  0  0  0  0
    9.2129    1.8227   -6.6668 C   0  0  0  0  0  0  0  0  0  0  0  0
    7.5545    3.0975   -3.4444 N   0  0  0  0  0  0  0  0  0  0  0  0
    6.9807    4.3375   -2.9485 C   0  0  0  0  0  0  0  0  0  0  0  0
    6.7133    4.2961   -1.4384 C   0  0  2  0  0  0  0  0  0  0  0  0
    6.1384    3.3837   -1.2273 H   0  0  0  0  0  0  0  0  0  0  0  0
    5.9951    5.5637   -0.9471 C   0  0  0  0  0  0  0  0  0  0  0  0
    7.1022    6.4745   -0.4235 C   0  0  0  0  0  0  0  0  0  0  0  0
    7.0220    7.6595   -0.1689 O   0  0  0  0  0  0  0  0  0  0  0  0
    8.2262    5.6967   -0.2664 N   0  0  0  0  0  0  0  0  0  0  0  0
    9.4773    6.2228    0.2265 C   0  0  0  0  0  0  0  0  0  0  0  0
    8.0333    4.2896   -0.5920 C   0  0  1  0  0  0  0  0  0  0  0  0
    8.8810    3.9437   -1.2122 H   0  0  0  0  0  0  0  0  0  0  0  0
    7.9709    3.4023    0.6284 C   0  0  0  0  0  0  0  0  0  0  0  0
    8.2233    2.0051    0.7040 C   0  0  0  0  0  0  0  0  0  0  0  0
    8.0320    1.5330    1.9268 N   0  0  0  0  0  0  0  0  0  0  0  0
    7.6591    2.5940    2.6680 N   0  0  0  0  0  0  0  0  0  0  0  0
    7.3728    2.4340    4.0505 C   0  0  0  0  0  0  0  0  0  0  0  0
    7.1576    1.1459    4.5633 C   0  0  0  0  0  0  0  0  0  0  0  0
    6.8703    0.9715    5.9161 C   0  0  0  0  0  0  0  0  0  0  0  0
    6.7933    2.0866    6.7485 C   0  0  0  0  0  0  0  0  0  0  0  0
    6.5121    1.9193    8.0484 F   0  0  0  0  0  0  0  0  0  0  0  0
    7.0068    3.3717    6.2569 C   0  0  0  0  0  0  0  0  0  0  0  0
    7.3041    3.5445    4.9038 C   0  0  0  0  0  0  0  0  0  0  0  0
    7.6066    3.7403    1.9204 C   0  0  0  0  0  0  0  0  0  0  0  0
    3.9723    0.1680   -5.6162 H   0  0  0  0  0  0  0  0  0  0  0  0
    4.4251    1.2200   -6.9763 H   0  0  0  0  0  0  0  0  0  0  0  0
    3.6925    1.9211   -5.5180 H   0  0  0  0  0  0  0  0  0  0  0  0
    6.4462    0.5245   -5.6089 H   0  0  0  0  0  0  0  0  0  0  0  0
    5.7351    1.2481   -4.1678 H   0  0  0  0  0  0  0  0  0  0  0  0
    5.6899    3.4950   -5.3671 H   0  0  0  0  0  0  0  0  0  0  0  0
    6.5677    2.7746   -6.7000 H   0  0  0  0  0  0  0  0  0  0  0  0
    8.5919    1.0269   -4.7447 H   0  0  0  0  0  0  0  0  0  0  0  0
    9.7677    2.3365   -4.6479 H   0  0  0  0  0  0  0  0  0  0  0  0
    8.3840    1.3757   -7.2377 H   0  0  0  0  0  0  0  0  0  0  0  0
   10.0855    1.1612   -6.7863 H   0  0  0  0  0  0  0  0  0  0  0  0
    9.4607    2.7871   -7.1410 H   0  0  0  0  0  0  0  0  0  0  0  0
    8.4464    2.9229   -2.9854 H   0  0  0  0  0  0  0  0  0  0  0  0
    6.0143    4.5000   -3.4522 H   0  0  0  0  0  0  0  0  0  0  0  0
    7.6023    5.2323   -3.1888 H   0  0  0  0  0  0  0  0  0  0  0  0
    5.3016    5.3544   -0.1160 H   0  0  0  0  0  0  0  0  0  0  0  0
    5.4173    6.0843   -1.7248 H   0  0  0  0  0  0  0  0  0  0  0  0
    9.3374    7.2969    0.4108 H   0  0  0  0  0  0  0  0  0  0  0  0
   10.2863    6.0862   -0.5129 H   0  0  0  0  0  0  0  0  0  0  0  0
    9.7843    5.7304    1.1651 H   0  0  0  0  0  0  0  0  0  0  0  0
    8.5345    1.3323   -0.0960 H   0  0  0  0  0  0  0  0  0  0  0  0
    7.2245    0.2942    3.8874 H   0  0  0  0  0  0  0  0  0  0  0  0
    6.6997   -0.0225    6.3342 H   0  0  0  0  0  0  0  0  0  0  0  0
    6.9495    4.2240    6.9362 H   0  0  0  0  0  0  0  0  0  0  0  0
    7.4944    4.5505    4.5282 H   0  0  0  0  0  0  0  0  0  0  0  0
    7.3106    4.6964    2.3424 H   0  0  0  0  0  0  0  0  0  0  0  0
  1  2  1  0
  1 31  1  0
  1 32  1  0
  1 33  1  0
  2  3  1  0
  2 34  1  0
  2 35  1  0
  3  4  1  0
  3 36  1  0
  3 37  1  0
  4  5  1  6
  4  6  1  0
  4  8  1  0
  6  7  1  0
  6 38  1  0
  6 39  1  0
  7 40  1  0
  7 41  1  0
  7 42  1  0
  8  9  1  0
  8 43  1  0
  9 10  1  0
  9 44  1  0
  9 45  1  0
 10 11  1  6
 10 12  1  0
 10 17  1  0
 12 13  1  0
 12 46  1  0
 12 47  1  0
 13 14  2  0
 13 15  1  0
 15 16  1  0
 15 17  1  0
 16 48  1  0
 16 49  1  0
 16 50  1  0
 17 18  1  6
 17 19  1  0
 19 20  1  0
 19 30  2  0
 20 21  2  0
 20 51  1  0
 21 22  1  0
 22 23  1  0
 22 30  1  0
 23 24  2  0
 23 29  1  0
 24 25  1  0
 24 52  1  0
 25 26  2  0
 25 53  1  0
 26 27  1  0
 26 28  1  0
 28 29  2  0
 28 54  1  0
 29 55  1  0
 30 56  1  0
M  END

