
     RDKit          3D

 34 35  0  0  0  0  0  0  0  0999 V2000
    1.4775    0.8286   -0.6863 C   0  0  0  0  0  0  0  0  0  0  0  0
    2.9133    1.0962   -1.1013 C   0  0  0  0  0  0  0  0  0  0  0  0
    3.5221   -0.0821   -1.6786 O   0  0  0  0  0  0  0  0  0  0  0  0
    4.1019   -0.9538   -0.8546 C   0  0  0  0  0  0  0  0  0  0  0  0
    4.1827   -0.8381    0.3392 O   0  0  0  0  0  0  0  0  0  0  0  0
    4.7098   -2.0852   -1.6932 C   0  0  1  0  0  0  0  0  0  0  0  0
    5.7994   -1.5917   -2.5118 C   0  0  0  0  0  0  0  0  0  0  0  0
    6.6858   -1.1827   -3.1372 N   0  0  0  0  0  0  0  0  0  0  0  0
    4.7798   -3.5766   -1.2993 C   0  0  1  0  0  0  0  0  0  0  0  0
    4.4414   -4.2520   -0.0055 C   0  0  0  0  0  0  0  0  0  0  0  0
    4.7371   -3.6992    1.2486 C   0  0  0  0  0  0  0  0  0  0  0  0
    4.4994   -4.3862    2.4439 C   0  0  0  0  0  0  0  0  0  0  0  0
    4.8248   -3.7723    3.7848 C   0  0  0  0  0  0  0  0  0  0  0  0
    3.9535   -5.6770    2.3492 C   0  0  0  0  0  0  0  0  0  0  0  0
    3.6681   -6.2560    1.1180 C   0  0  0  0  0  0  0  0  0  0  0  0
    3.9109   -5.5656   -0.0869 C   0  0  0  0  0  0  0  0  0  0  0  0
    3.6011   -6.1569   -1.2986 N   0  0  0  0  0  0  0  0  0  0  0  0
    3.7610   -3.1164   -2.3081 C   0  0  1  0  0  0  0  0  0  0  0  0
    2.0700   -3.0165   -1.8134 Cl  0  0  0  0  0  0  0  0  0  0  0  0
    3.9522   -3.5886   -4.0047 Cl  0  0  0  0  0  0  0  0  0  0  0  0
    1.0152    1.7634   -0.3315 H   0  0  0  0  0  0  0  0  0  0  0  0
    1.4336    0.0933    0.1306 H   0  0  0  0  0  0  0  0  0  0  0  0
    0.8877    0.4498   -1.5347 H   0  0  0  0  0  0  0  0  0  0  0  0
    3.5236    1.4255   -0.2479 H   0  0  0  0  0  0  0  0  0  0  0  0
    2.9707    1.8492   -1.8995 H   0  0  0  0  0  0  0  0  0  0  0  0
    5.6357   -4.0393   -1.8114 H   0  0  0  0  0  0  0  0  0  0  0  0
    5.1479   -2.6910    1.2860 H   0  0  0  0  0  0  0  0  0  0  0  0
    5.1465   -2.7256    3.6792 H   0  0  0  0  0  0  0  0  0  0  0  0
    5.6353   -4.3196    4.2971 H   0  0  0  0  0  0  0  0  0  0  0  0
    3.9526   -3.7871    4.4598 H   0  0  0  0  0  0  0  0  0  0  0  0
    3.7500   -6.2463    3.2615 H   0  0  0  0  0  0  0  0  0  0  0  0
    3.2485   -7.2653    1.0737 H   0  0  0  0  0  0  0  0  0  0  0  0
    3.4467   -7.1565   -1.3027 H   0  0  0  0  0  0  0  0  0  0  0  0
    3.9858   -5.7883   -2.1582 H   0  0  0  0  0  0  0  0  0  0  0  0
  1  2  1  0
  1 21  1  0
  1 22  1  0
  1 23  1  0
  2  3  1  0
  2 24  1  0
  2 25  1  0
  3  4  1  0
  4  5  2  0
  4  6  1  0
  6  7  1  6
  6  9  1  0
  6 18  1  0
  7  8  3  0
  9 10  1  0
  9 18  1  0
  9 26  1  6
 10 11  2  0
 10 16  1  0
 11 12  1  0
 11 27  1  0
 12 13  1  0
 12 14  2  0
 13 28  1  0
 13 29  1  0
 13 30  1  0
 14 15  1  0
 14 31  1  0
 15 16  2  0
 15 32  1  0
 16 17  1  0
 17 33  1  0
 17 34  1  0
 18 19  1  1
 18 20  1  0
M  END

