
     RDKit          3D

 88 94  0  0  0  0  0  0  0  0999 V2000
    4.5541    2.3662    2.6990 O   0  0  0  0  0  0  0  0  0  0  0  0
    4.4153    1.6455    3.6498 C   0  0  0  0  0  0  0  0  0  0  0  0
    3.1951    1.4949    4.2167 O   0  0  0  0  0  0  0  0  0  0  0  0
    5.5321    0.8296    4.2908 C   0  0  0  0  0  0  0  0  0  0  0  0
    6.9214    1.1493    3.7385 C   0  0  0  0  0  0  0  0  0  0  0  0
    7.4433    2.5203    4.1762 C   0  0  0  0  0  0  0  0  0  0  0  0
    7.4823    2.6800    5.5904 O   0  0  0  0  0  0  0  0  0  0  0  0
    8.4562    2.0840    6.3336 C   0  0  0  0  0  0  0  0  0  0  0  0
    8.3299    2.2167    7.7289 C   0  0  0  0  0  0  0  0  0  0  0  0
    9.2811    1.6360    8.5636 C   0  0  0  0  0  0  0  0  0  0  0  0
   10.3559    0.9139    8.0368 C   0  0  0  0  0  0  0  0  0  0  0  0
   10.4988    0.7759    6.6425 C   0  0  0  0  0  0  0  0  0  0  0  0
   11.6162    0.0198    6.0425 C   0  0  0  0  0  0  0  0  0  0  0  0
   11.5254   -0.6174    4.8109 C   0  0  0  0  0  0  0  0  0  0  0  0
   10.3502   -1.2025    4.3323 N   0  0  0  0  0  0  0  0  0  0  0  0
   10.6719   -2.2356    3.5928 C   0  0  0  0  0  0  0  0  0  0  0  0
    9.7523   -3.3161    3.2616 C   0  0  0  0  0  0  0  0  0  0  0  0
   10.0564   -4.6323    3.5357 C   0  0  0  0  0  0  0  0  0  0  0  0
    9.3502   -5.8642    3.2252 C   0  0  0  0  0  0  0  0  0  0  0  0
   10.0006   -6.9149    3.8121 C   0  0  0  0  0  0  0  0  0  0  0  0
   11.1481   -6.4103    4.5518 C   0  0  0  0  0  0  0  0  0  0  0  0
   11.1582   -5.0375    4.2876 N   0  0  0  0  0  0  0  0  0  0  0  0
   11.5949   -4.3998    4.9370 H   0  0  0  0  0  0  0  0  0  0  0  0
   12.0824   -7.0014    5.3897 C   0  0  0  0  0  0  0  0  0  0  0  0
   11.9704   -8.3596    5.9463 C   0  0  0  0  0  0  0  0  0  0  0  0
   13.1388   -9.0861    6.2463 C   0  0  0  0  0  0  0  0  0  0  0  0
   13.0534  -10.3814    6.7612 C   0  0  0  0  0  0  0  0  0  0  0  0
   11.8167  -10.9759    6.9972 C   0  0  0  0  0  0  0  0  0  0  0  0
   10.6393  -10.2568    6.7263 C   0  0  0  0  0  0  0  0  0  0  0  0
    9.4731  -10.8934    7.0160 O   0  0  0  0  0  0  0  0  0  0  0  0
    8.2320  -10.2416    6.7985 C   0  0  0  0  0  0  0  0  0  0  0  0
    7.1148  -11.1866    7.2098 C   0  0  0  0  0  0  0  0  0  0  0  0
    7.1721  -11.5846    8.6824 C   0  0  0  0  0  0  0  0  0  0  0  0
    6.0398  -12.5170    9.0917 C   0  0  0  0  0  0  0  0  0  0  0  0
    5.1392  -12.8507    8.3726 O   0  0  0  0  0  0  0  0  0  0  0  0
    6.0963  -12.9627   10.3696 O   0  0  0  0  0  0  0  0  0  0  0  0
   10.7164   -8.9580    6.2088 C   0  0  0  0  0  0  0  0  0  0  0  0
   13.1811   -6.1011    5.8253 C   0  0  0  0  0  0  0  0  0  0  0  0
   13.3001   -5.6797    7.0492 N   0  0  0  0  0  0  0  0  0  0  0  0
   14.0298   -4.4790    7.0434 C   0  0  0  0  0  0  0  0  0  0  0  0
   13.9526   -3.5975    8.0820 C   0  0  0  0  0  0  0  0  0  0  0  0
   13.8871   -2.1476    7.8550 C   0  0  0  0  0  0  0  0  0  0  0  0
   14.3239   -0.9591    8.4489 C   0  0  0  0  0  0  0  0  0  0  0  0
   13.6267    0.1241    7.8392 C   0  0  0  0  0  0  0  0  0  0  0  0
   12.7580   -0.4022    6.8770 C   0  0  0  0  0  0  0  0  0  0  0  0
   12.9757   -1.7647    6.8963 N   0  0  0  0  0  0  0  0  0  0  0  0
   12.3073   -2.4137    6.5033 H   0  0  0  0  0  0  0  0  0  0  0  0
   14.6611   -4.2408    5.6699 C   0  0  0  0  0  0  0  0  0  0  0  0
   14.1389   -5.4313    4.8447 C   0  0  0  0  0  0  0  0  0  0  0  0
   12.1569   -2.2832    3.2230 C   0  0  0  0  0  0  0  0  0  0  0  0
   12.6980   -1.0365    3.9336 C   0  0  0  0  0  0  0  0  0  0  0  0
    9.5451    1.3899    5.8008 C   0  0  0  0  0  0  0  0  0  0  0  0
    3.2492    0.9017    4.9797 H   0  0  0  0  0  0  0  0  0  0  0  0
    5.2912   -0.2370    4.1310 H   0  0  0  0  0  0  0  0  0  0  0  0
    5.5095    0.9898    5.3831 H   0  0  0  0  0  0  0  0  0  0  0  0
    6.8831    1.1431    2.6372 H   0  0  0  0  0  0  0  0  0  0  0  0
    7.6245    0.3593    4.0456 H   0  0  0  0  0  0  0  0  0  0  0  0
    6.7639    3.3075    3.8208 H   0  0  0  0  0  0  0  0  0  0  0  0
    8.4355    2.7161    3.7341 H   0  0  0  0  0  0  0  0  0  0  0  0
    7.4845    2.7826    8.1257 H   0  0  0  0  0  0  0  0  0  0  0  0
    9.1794    1.7391    9.6472 H   0  0  0  0  0  0  0  0  0  0  0  0
   11.0762    0.4425    8.7058 H   0  0  0  0  0  0  0  0  0  0  0  0
    8.7441   -3.0793    2.9130 H   0  0  0  0  0  0  0  0  0  0  0  0
    8.4736   -5.9187    2.5810 H   0  0  0  0  0  0  0  0  0  0  0  0
    9.7486   -7.9681    3.7127 H   0  0  0  0  0  0  0  0  0  0  0  0
   14.1173   -8.6381    6.0634 H   0  0  0  0  0  0  0  0  0  0  0  0
   13.9681  -10.9378    6.9811 H   0  0  0  0  0  0  0  0  0  0  0  0
   11.7324  -11.9857    7.4033 H   0  0  0  0  0  0  0  0  0  0  0  0
    8.1255   -9.9698    5.7319 H   0  0  0  0  0  0  0  0  0  0  0  0
    8.1883   -9.3040    7.3863 H   0  0  0  0  0  0  0  0  0  0  0  0
    7.1541  -12.0928    6.5851 H   0  0  0  0  0  0  0  0  0  0  0  0
    6.1473  -10.7067    6.9933 H   0  0  0  0  0  0  0  0  0  0  0  0
    7.1261  -10.6898    9.3319 H   0  0  0  0  0  0  0  0  0  0  0  0
    8.1376  -12.0705    8.9061 H   0  0  0  0  0  0  0  0  0  0  0  0
    6.8833  -12.6182   10.8155 H   0  0  0  0  0  0  0  0  0  0  0  0
    9.8118   -8.3747    6.0505 H   0  0  0  0  0  0  0  0  0  0  0  0
   13.6092   -3.9849    9.0479 H   0  0  0  0  0  0  0  0  0  0  0  0
   15.0811   -0.8807    9.2273 H   0  0  0  0  0  0  0  0  0  0  0  0
   13.7530    1.1810    8.0670 H   0  0  0  0  0  0  0  0  0  0  0  0
   15.7581   -4.2398    5.7637 H   0  0  0  0  0  0  0  0  0  0  0  0
   14.3916   -3.2686    5.2350 H   0  0  0  0  0  0  0  0  0  0  0  0
   14.9372   -6.1560    4.6064 H   0  0  0  0  0  0  0  0  0  0  0  0
   13.6757   -5.1668    3.8840 H   0  0  0  0  0  0  0  0  0  0  0  0
   12.2614   -2.2439    2.1269 H   0  0  0  0  0  0  0  0  0  0  0  0
   12.6534   -3.2134    3.5324 H   0  0  0  0  0  0  0  0  0  0  0  0
   12.8704   -0.2202    3.2096 H   0  0  0  0  0  0  0  0  0  0  0  0
   13.6444   -1.1835    4.4670 H   0  0  0  0  0  0  0  0  0  0  0  0
    9.6738    1.3012    4.7251 H   0  0  0  0  0  0  0  0  0  0  0  0
  1  2  2  0
  2  3  1  0
  2  4  1  0
  3 53  1  0
  4  5  1  0
  4 54  1  0
  4 55  1  0
  5  6  1  0
  5 56  1  0
  5 57  1  0
  6  7  1  0
  6 58  1  0
  6 59  1  0
  7  8  1  0
  8  9  2  0
  8 52  1  0
  9 10  1  0
  9 60  1  0
 10 11  2  0
 10 61  1  0
 11 12  1  0
 11 62  1  0
 12 13  1  0
 12 52  2  0
 13 14  1  0
 13 45  2  0
 14 15  2  0
 14 51  1  0
 15 16  1  0
 16 17  2  0
 16 50  1  0
 17 18  1  0
 17 63  1  0
 18 19  2  0
 18 22  1  0
 19 20  1  0
 19 64  1  0
 20 21  2  0
 20 65  1  0
 21 22  1  0
 21 24  1  0
 22 23  1  0
 24 25  1  0
 24 38  2  0
 25 26  2  0
 25 37  1  0
 26 27  1  0
 26 66  1  0
 27 28  2  0
 27 67  1  0
 28 29  1  0
 28 68  1  0
 29 30  1  0
 29 37  2  0
 30 31  1  0
 31 32  1  0
 31 69  1  0
 31 70  1  0
 32 33  1  0
 32 71  1  0
 32 72  1  0
 33 34  1  0
 33 73  1  0
 33 74  1  0
 34 35  2  0
 34 36  1  0
 36 75  1  0
 37 76  1  0
 38 39  1  0
 38 49  1  0
 39 40  2  0
 40 41  1  0
 40 48  1  0
 41 42  2  0
 41 77  1  0
 42 43  1  0
 42 46  1  0
 43 44  2  0
 43 78  1  0
 44 45  1  0
 44 79  1  0
 45 46  1  0
 46 47  1  0
 48 49  1  0
 48 80  1  0
 48 81  1  0
 49 82  1  0
 49 83  1  0
 50 51  1  0
 50 84  1  0
 50 85  1  0
 51 86  1  0
 51 87  1  0
 52 88  1  0
M  END

