
     RDKit          3D

 32 33  0  0  0  0  0  0  0  0999 V2000
    2.7954   -0.3303    1.8222 C   0  0  0  0  0  0  0  0  0  0  0  0
    2.8095   -0.0881    0.5039 C   0  0  0  0  0  0  0  0  0  0  0  0
    3.7072   -0.8505   -0.4549 C   0  0  0  0  0  0  0  0  0  0  0  0
    3.0083   -1.5610   -1.5244 N   0  0  0  0  0  0  0  0  0  0  0  0
    3.0820   -1.1553   -2.8560 C   0  0  0  0  0  0  0  0  0  0  0  0
    3.7905   -0.2952   -3.3104 O   0  0  0  0  0  0  0  0  0  0  0  0
    2.0675   -2.0456   -3.6399 C   0  0  0  0  0  0  0  0  0  0  0  0
    1.8436   -1.9381   -4.8178 O   0  0  0  0  0  0  0  0  0  0  0  0
    1.5157   -2.9708   -2.6273 C   0  0  0  0  0  0  0  0  0  0  0  0
    0.6063   -4.0277   -2.7228 C   0  0  0  0  0  0  0  0  0  0  0  0
   -0.1486   -4.4195   -4.2347 Cl  0  0  0  0  0  0  0  0  0  0  0  0
    0.3042   -4.7826   -1.5816 C   0  0  0  0  0  0  0  0  0  0  0  0
    0.9305   -4.4762   -0.3718 C   0  0  0  0  0  0  0  0  0  0  0  0
    1.8456   -3.4264   -0.2730 C   0  0  0  0  0  0  0  0  0  0  0  0
    2.4536   -3.2002    0.9040 F   0  0  0  0  0  0  0  0  0  0  0  0
    2.1322   -2.6469   -1.3923 C   0  0  0  0  0  0  0  0  0  0  0  0
    1.9442    1.0350    0.0004 C   0  0  0  0  0  0  0  0  0  0  0  0
    1.1945    1.6860    0.6900 O   0  0  0  0  0  0  0  0  0  0  0  0
    2.1221    1.2368   -1.3150 O   0  0  0  0  0  0  0  0  0  0  0  0
    1.4029    2.3154   -1.9460 C   0  0  0  0  0  0  0  0  0  0  0  0
    0.0181    1.8816   -2.3956 C   0  0  0  0  0  0  0  0  0  0  0  0
    3.3991   -1.1250    2.2655 H   0  0  0  0  0  0  0  0  0  0  0  0
    2.1685    0.2771    2.4794 H   0  0  0  0  0  0  0  0  0  0  0  0
    4.3270   -1.5577    0.1146 H   0  0  0  0  0  0  0  0  0  0  0  0
    4.3747   -0.1517   -0.9809 H   0  0  0  0  0  0  0  0  0  0  0  0
   -0.4064   -5.6069   -1.6474 H   0  0  0  0  0  0  0  0  0  0  0  0
    0.7238   -5.0606    0.5275 H   0  0  0  0  0  0  0  0  0  0  0  0
    2.0321    2.5976   -2.8015 H   0  0  0  0  0  0  0  0  0  0  0  0
    1.3434    3.1573   -1.2407 H   0  0  0  0  0  0  0  0  0  0  0  0
    0.0753    1.0255   -3.0858 H   0  0  0  0  0  0  0  0  0  0  0  0
   -0.4760    2.7117   -2.9254 H   0  0  0  0  0  0  0  0  0  0  0  0
   -0.6073    1.6074   -1.5332 H   0  0  0  0  0  0  0  0  0  0  0  0
  1  2  2  0
  1 22  1  0
  1 23  1  0
  2  3  1  0
  2 17  1  0
  3  4  1  0
  3 24  1  0
  3 25  1  0
  4  5  1  0
  4 16  1  0
  5  6  2  0
  5  7  1  0
  7  8  2  0
  7  9  1  0
  9 10  2  0
  9 16  1  0
 10 11  1  0
 10 12  1  0
 12 13  2  0
 12 26  1  0
 13 14  1  0
 13 27  1  0
 14 15  1  0
 14 16  2  0
 17 18  2  0
 17 19  1  0
 19 20  1  0
 20 21  1  0
 20 28  1  0
 20 29  1  0
 21 30  1  0
 21 31  1  0
 21 32  1  0
M  END

