
     RDKit          3D

 53 55  0  0  0  0  0  0  0  0999 V2000
    3.4400    0.3033   -1.5909 C   0  0  0  0  0  0  0  0  0  0  0  0
    3.1161    0.1981   -0.0898 C   0  0  1  0  0  0  0  0  0  0  0  0
    1.7394    0.8132    0.2237 C   0  0  0  0  0  0  0  0  0  0  0  0
    3.2963   -1.2081    0.4595 C   0  0  0  0  0  0  0  0  0  0  0  0
    4.2161   -1.5720    1.5120 C   0  0  0  0  0  0  0  0  0  0  0  0
    5.1145   -0.6841    2.3384 C   0  0  0  0  0  0  0  0  0  0  0  0
    4.6222   -0.3974    3.6961 N   0  0  0  0  0  0  0  0  0  0  0  0
    3.5984    0.6167    3.8662 C   0  0  0  0  0  0  0  0  0  0  0  0
    4.9019   -1.3403    4.6645 C   0  0  0  0  0  0  0  0  0  0  0  0
    5.6117   -2.3037    4.4855 O   0  0  0  0  0  0  0  0  0  0  0  0
    4.3333   -1.1323    5.8789 O   0  0  0  0  0  0  0  0  0  0  0  0
    4.1396   -2.9367    1.6830 C   0  0  0  0  0  0  0  0  0  0  0  0
    3.1963   -3.4268    0.8025 N   0  0  0  0  0  0  0  0  0  0  0  0
    2.8815   -5.1218    0.5140 S   0  0  1  0  0  0  0  0  0  0  0  0
    1.4331   -5.2658    0.4189 O   0  0  0  0  0  0  0  0  0  0  0  0
    3.7635   -5.5565   -0.5673 O   0  0  0  0  0  0  0  0  0  0  0  0
    3.4399   -5.8632    2.0429 C   0  0  0  0  0  0  0  0  0  0  0  0
    2.5689   -5.8906    3.1366 C   0  0  0  0  0  0  0  0  0  0  0  0
    2.9979   -6.5005    4.3164 C   0  0  0  0  0  0  0  0  0  0  0  0
    4.2720   -7.0762    4.3861 C   0  0  0  0  0  0  0  0  0  0  0  0
    5.1235   -7.0527    3.2768 C   0  0  0  0  0  0  0  0  0  0  0  0
    4.7100   -6.4443    2.0891 C   0  0  0  0  0  0  0  0  0  0  0  0
    2.6809   -2.3791    0.0267 C   0  0  0  0  0  0  0  0  0  0  0  0
    1.7019   -2.6213   -1.0675 C   0  0  0  0  0  0  0  0  0  0  0  0
    0.3425   -2.3037   -0.9061 C   0  0  0  0  0  0  0  0  0  0  0  0
   -0.5693   -2.5192   -1.9419 C   0  0  0  0  0  0  0  0  0  0  0  0
   -0.1374   -3.0652   -3.1541 C   0  0  0  0  0  0  0  0  0  0  0  0
    1.2094   -3.3993   -3.3220 C   0  0  0  0  0  0  0  0  0  0  0  0
    2.1221   -3.1803   -2.2875 C   0  0  0  0  0  0  0  0  0  0  0  0
    3.4042    1.3547   -1.9215 H   0  0  0  0  0  0  0  0  0  0  0  0
    2.7196   -0.2638   -2.1995 H   0  0  0  0  0  0  0  0  0  0  0  0
    4.4458   -0.0882   -1.8095 H   0  0  0  0  0  0  0  0  0  0  0  0
    3.8612    0.8228    0.4318 H   0  0  0  0  0  0  0  0  0  0  0  0
    0.9384    0.3039   -0.3322 H   0  0  0  0  0  0  0  0  0  0  0  0
    1.7171    1.8782   -0.0620 H   0  0  0  0  0  0  0  0  0  0  0  0
    1.4999    0.7441    1.2968 H   0  0  0  0  0  0  0  0  0  0  0  0
    5.2804    0.2807    1.8370 H   0  0  0  0  0  0  0  0  0  0  0  0
    6.0930   -1.1646    2.4603 H   0  0  0  0  0  0  0  0  0  0  0  0
    3.6785    1.3506    3.0527 H   0  0  0  0  0  0  0  0  0  0  0  0
    3.7433    1.1872    4.8013 H   0  0  0  0  0  0  0  0  0  0  0  0
    2.5681    0.2132    3.8500 H   0  0  0  0  0  0  0  0  0  0  0  0
    3.8099   -0.3210    5.8971 H   0  0  0  0  0  0  0  0  0  0  0  0
    4.6632   -3.5675    2.3949 H   0  0  0  0  0  0  0  0  0  0  0  0
    1.5748   -5.4482    3.0532 H   0  0  0  0  0  0  0  0  0  0  0  0
    2.3351   -6.5288    5.1842 H   0  0  0  0  0  0  0  0  0  0  0  0
    4.6029   -7.5490    5.3139 H   0  0  0  0  0  0  0  0  0  0  0  0
    6.1142   -7.5091    3.3351 H   0  0  0  0  0  0  0  0  0  0  0  0
    5.3504   -6.4186    1.2060 H   0  0  0  0  0  0  0  0  0  0  0  0
   -0.0014   -1.9000    0.0484 H   0  0  0  0  0  0  0  0  0  0  0  0
   -1.6235   -2.2685   -1.7979 H   0  0  0  0  0  0  0  0  0  0  0  0
   -0.8510   -3.2367   -3.9642 H   0  0  0  0  0  0  0  0  0  0  0  0
    1.5533   -3.8347   -4.2637 H   0  0  0  0  0  0  0  0  0  0  0  0
    3.1712   -3.4523   -2.4193 H   0  0  0  0  0  0  0  0  0  0  0  0
  1  2  1  0
  1 30  1  0
  1 31  1  0
  1 32  1  0
  2  3  1  0
  2  4  1  0
  2 33  1  1
  3 34  1  0
  3 35  1  0
  3 36  1  0
  4  5  1  0
  4 23  2  0
  5  6  1  0
  5 12  2  0
  6  7  1  0
  6 37  1  0
  6 38  1  0
  7  8  1  0
  7  9  1  0
  8 39  1  0
  8 40  1  0
  8 41  1  0
  9 10  2  0
  9 11  1  0
 11 42  1  0
 12 13  1  0
 12 43  1  0
 13 14  1  0
 13 23  1  0
 14 15  2  0
 14 16  2  0
 14 17  1  1
 17 18  2  0
 17 22  1  0
 18 19  1  0
 18 44  1  0
 19 20  2  0
 19 45  1  0
 20 21  1  0
 20 46  1  0
 21 22  2  0
 21 47  1  0
 22 48  1  0
 23 24  1  0
 24 25  2  0
 24 29  1  0
 25 26  1  0
 25 49  1  0
 26 27  2  0
 26 50  1  0
 27 28  1  0
 27 51  1  0
 28 29  2  0
 28 52  1  0
 29 53  1  0
M  END

