
     RDKit          3D

 47 47  0  0  0  0  0  0  0  0999 V2000
    3.1974   -0.9543    1.7383 C   0  0  0  0  0  0  0  0  0  0  0  0
    2.6293   -0.4364    0.4095 C   0  0  1  0  0  0  0  0  0  0  0  0
    1.1162   -0.2045    0.5229 C   0  0  0  0  0  0  0  0  0  0  0  0
    3.3230    0.8541   -0.0739 C   0  0  0  0  0  0  0  0  0  0  0  0
    4.8469    0.7908   -0.3172 C   0  0  1  0  0  0  0  0  0  0  0  0
    5.1763   -0.2904   -1.3690 C   0  0  0  0  0  0  0  0  0  0  0  0
    6.4974   -0.1757   -1.9699 N   0  0  0  0  0  0  0  0  0  0  0  0
    7.5849   -0.3254   -1.0199 C   0  0  0  0  0  0  0  0  0  0  0  0
    6.6492   -1.0449   -3.1207 C   0  0  0  0  0  0  0  0  0  0  0  0
    5.4359    2.0568   -0.7534 N   0  0  0  0  0  0  0  0  0  0  0  0
    4.9262    3.3305   -0.3105 C   0  0  0  0  0  0  0  0  0  0  0  0
    5.2313    3.6018    1.1345 C   0  0  0  0  0  0  0  0  0  0  0  0
    6.2252    3.1953    1.9808 C   0  0  0  0  0  0  0  0  0  0  0  0
    5.9760    3.8379    3.2391 C   0  0  0  0  0  0  0  0  0  0  0  0
    4.8437    4.5885    3.0771 C   0  0  0  0  0  0  0  0  0  0  0  0
    4.0741    5.4805    3.9764 C   0  0  0  0  0  0  0  0  0  0  0  0
    4.2014    7.2945    3.5983 S   0  0  0  0  0  0  0  0  0  0  0  0
    2.9867    7.3609    2.2366 C   0  0  1  0  0  0  0  0  0  0  0  0
    1.7439    7.0185    2.6632 F   0  0  0  0  0  0  0  0  0  0  0  0
    2.9464    8.6353    1.7966 F   0  0  0  0  0  0  0  0  0  0  0  0
    4.3850    4.4440    1.7963 O   0  0  0  0  0  0  0  0  0  0  0  0
    2.6492   -1.8483    2.0777 H   0  0  0  0  0  0  0  0  0  0  0  0
    3.1095   -0.1898    2.5295 H   0  0  0  0  0  0  0  0  0  0  0  0
    4.2603   -1.2311    1.6614 H   0  0  0  0  0  0  0  0  0  0  0  0
    2.7812   -1.2230   -0.3519 H   0  0  0  0  0  0  0  0  0  0  0  0
    0.8903    0.5688    1.2774 H   0  0  0  0  0  0  0  0  0  0  0  0
    0.5908   -1.1256    0.8235 H   0  0  0  0  0  0  0  0  0  0  0  0
    0.6854    0.1310   -0.4346 H   0  0  0  0  0  0  0  0  0  0  0  0
    3.1184    1.6387    0.6755 H   0  0  0  0  0  0  0  0  0  0  0  0
    2.8385    1.1902   -1.0094 H   0  0  0  0  0  0  0  0  0  0  0  0
    5.3198    0.5004    0.6408 H   0  0  0  0  0  0  0  0  0  0  0  0
    4.4398   -0.2090   -2.1885 H   0  0  0  0  0  0  0  0  0  0  0  0
    5.0232   -1.2932   -0.9086 H   0  0  0  0  0  0  0  0  0  0  0  0
    7.5178    0.4521   -0.2459 H   0  0  0  0  0  0  0  0  0  0  0  0
    8.5494   -0.1994   -1.5367 H   0  0  0  0  0  0  0  0  0  0  0  0
    7.5966   -1.3233   -0.5227 H   0  0  0  0  0  0  0  0  0  0  0  0
    5.8579   -0.8414   -3.8599 H   0  0  0  0  0  0  0  0  0  0  0  0
    6.5994   -2.1294   -2.8654 H   0  0  0  0  0  0  0  0  0  0  0  0
    7.6210   -0.8622   -3.6065 H   0  0  0  0  0  0  0  0  0  0  0  0
    5.7015    2.0328   -1.7319 H   0  0  0  0  0  0  0  0  0  0  0  0
    3.8345    3.4828   -0.4512 H   0  0  0  0  0  0  0  0  0  0  0  0
    5.4109    4.1084   -0.9286 H   0  0  0  0  0  0  0  0  0  0  0  0
    7.0379    2.5202    1.7258 H   0  0  0  0  0  0  0  0  0  0  0  0
    6.5618    3.7519    4.1523 H   0  0  0  0  0  0  0  0  0  0  0  0
    4.4517    5.3834    5.0030 H   0  0  0  0  0  0  0  0  0  0  0  0
    3.0019    5.2325    3.9884 H   0  0  0  0  0  0  0  0  0  0  0  0
    3.2590    6.6871    1.4088 H   0  0  0  0  0  0  0  0  0  0  0  0
  1  2  1  0
  1 22  1  0
  1 23  1  0
  1 24  1  0
  2  3  1  0
  2  4  1  0
  2 25  1  6
  3 26  1  0
  3 27  1  0
  3 28  1  0
  4  5  1  0
  4 29  1  0
  4 30  1  0
  5  6  1  0
  5 10  1  0
  5 31  1  1
  6  7  1  0
  6 32  1  0
  6 33  1  0
  7  8  1  0
  7  9  1  0
  8 34  1  0
  8 35  1  0
  8 36  1  0
  9 37  1  0
  9 38  1  0
  9 39  1  0
 10 11  1  0
 10 40  1  0
 11 12  1  0
 11 41  1  0
 11 42  1  0
 12 13  2  0
 12 21  1  0
 13 14  1  0
 13 43  1  0
 14 15  2  0
 14 44  1  0
 15 16  1  0
 15 21  1  0
 16 17  1  0
 16 45  1  0
 16 46  1  0
 17 18  1  0
 18 19  1  0
 18 20  1  0
 18 47  1  6
M  END

