
     RDKit          3D

 44 46  0  0  0  0  0  0  0  0999 V2000
    3.4249   -6.2710    2.9095 C   0  0  0  0  0  0  0  0  0  0  0  0
    3.1714   -4.9746    3.6282 C   0  0  0  0  0  0  0  0  0  0  0  0
    3.4771   -4.7764    5.0121 C   0  0  0  0  0  0  0  0  0  0  0  0
    3.1840   -3.5165    5.4694 C   0  0  0  0  0  0  0  0  0  0  0  0
    2.5294   -2.5261    4.2223 S   0  0  0  0  0  0  0  0  0  0  0  0
    2.6297   -3.8300    3.0588 C   0  0  0  0  0  0  0  0  0  0  0  0
    2.1918   -3.6761    1.6474 C   0  0  0  0  0  0  0  0  0  0  0  0
    2.5051   -4.4947    0.7884 O   0  0  0  0  0  0  0  0  0  0  0  0
    1.4321   -2.5714    1.3629 N   0  0  0  0  0  0  0  0  0  0  0  0
    0.9299   -2.3084    0.0182 C   0  0  0  0  0  0  0  0  0  0  0  0
   -0.4582   -2.8460   -0.2508 C   0  0  0  0  0  0  0  0  0  0  0  0
   -0.7130   -4.2241   -0.3803 C   0  0  0  0  0  0  0  0  0  0  0  0
   -2.0013   -4.6810   -0.6126 C   0  0  0  0  0  0  0  0  0  0  0  0
   -3.0569   -3.7356   -0.7302 C   0  0  0  0  0  0  0  0  0  0  0  0
   -4.3647   -4.1017   -1.0052 N   0  0  0  0  0  0  0  0  0  0  0  0
   -5.4478   -3.1438   -0.8035 C   0  0  0  0  0  0  0  0  0  0  0  0
   -6.5711   -3.4081   -1.7960 C   0  0  0  0  0  0  0  0  0  0  0  0
   -7.0155   -4.7489   -1.7285 O   0  0  0  0  0  0  0  0  0  0  0  0
   -5.9763   -5.6690   -2.0153 C   0  0  2  0  0  0  0  0  0  0  0  0
   -6.5657   -7.0683   -1.9589 C   0  0  0  0  0  0  0  0  0  0  0  0
   -4.8004   -5.4877   -1.0422 C   0  0  0  0  0  0  0  0  0  0  0  0
   -2.8133   -2.4233   -0.5909 N   0  0  0  0  0  0  0  0  0  0  0  0
   -1.5689   -2.0065   -0.3649 C   0  0  0  0  0  0  0  0  0  0  0  0
    3.7183   -7.0570    3.6211 H   0  0  0  0  0  0  0  0  0  0  0  0
    4.2230   -6.1553    2.1602 H   0  0  0  0  0  0  0  0  0  0  0  0
    2.5380   -6.6033    2.3509 H   0  0  0  0  0  0  0  0  0  0  0  0
    3.9074   -5.5558    5.6437 H   0  0  0  0  0  0  0  0  0  0  0  0
    3.3312   -3.1125    6.4702 H   0  0  0  0  0  0  0  0  0  0  0  0
    1.0133   -2.0561    2.1291 H   0  0  0  0  0  0  0  0  0  0  0  0
    1.6533   -2.7634   -0.6731 H   0  0  0  0  0  0  0  0  0  0  0  0
    0.9439   -1.2191   -0.1490 H   0  0  0  0  0  0  0  0  0  0  0  0
    0.1141   -4.9335   -0.2897 H   0  0  0  0  0  0  0  0  0  0  0  0
   -2.1801   -5.7520   -0.6960 H   0  0  0  0  0  0  0  0  0  0  0  0
   -5.0425   -2.1322   -0.9216 H   0  0  0  0  0  0  0  0  0  0  0  0
   -5.8470   -3.2321    0.2284 H   0  0  0  0  0  0  0  0  0  0  0  0
   -6.2240   -3.1714   -2.8230 H   0  0  0  0  0  0  0  0  0  0  0  0
   -7.4389   -2.7702   -1.5687 H   0  0  0  0  0  0  0  0  0  0  0  0
   -5.5912   -5.4656   -3.0380 H   0  0  0  0  0  0  0  0  0  0  0  0
   -6.9485   -7.2844   -0.9490 H   0  0  0  0  0  0  0  0  0  0  0  0
   -5.8111   -7.8265   -2.2203 H   0  0  0  0  0  0  0  0  0  0  0  0
   -7.4041   -7.1507   -2.6659 H   0  0  0  0  0  0  0  0  0  0  0  0
   -3.9803   -6.1342   -1.3794 H   0  0  0  0  0  0  0  0  0  0  0  0
   -5.1103   -5.8350   -0.0333 H   0  0  0  0  0  0  0  0  0  0  0  0
   -1.4400   -0.9192   -0.2692 H   0  0  0  0  0  0  0  0  0  0  0  0
  1  2  1  0
  1 24  1  0
  1 25  1  0
  1 26  1  0
  2  3  2  0
  2  6  1  0
  3  4  1  0
  3 27  1  0
  4  5  2  0
  4 28  1  0
  5  6  1  0
  6  7  2  0
  7  8  1  0
  7  9  1  0
  9 10  1  0
  9 29  1  0
 10 11  1  0
 10 30  1  0
 10 31  1  0
 11 12  2  0
 11 23  1  0
 12 13  1  0
 12 32  1  0
 13 14  2  0
 13 33  1  0
 14 15  1  0
 14 22  1  0
 15 16  1  0
 15 21  1  0
 16 17  1  0
 16 34  1  0
 16 35  1  0
 17 18  1  0
 17 36  1  0
 17 37  1  0
 18 19  1  0
 19 20  1  0
 19 21  1  0
 19 38  1  6
 20 39  1  0
 20 40  1  0
 20 41  1  0
 21 42  1  0
 21 43  1  0
 22 23  2  0
 23 44  1  0
M  CHG  2   5   1   8  -1
M  END

