
     RDKit          3D

 60 63  0  0  0  0  0  0  0  0999 V2000
    1.5736   -0.6564   -0.8752 C   0  0  0  0  0  0  0  0  0  0  0  0
    2.2437    0.2177   -0.1186 C   0  0  0  0  0  0  0  0  0  0  0  0
    2.9504   -0.0999    1.1717 C   0  0  0  0  0  0  0  0  0  0  0  0
    4.4670    0.1873    1.1211 C   0  0  0  0  0  0  0  0  0  0  0  0
    5.4357   -0.1538    2.7291 Si  0  0  1  0  0  4  0  0  0  0  0  0
    4.8591    1.0242    4.0952 C   0  0  0  0  0  0  0  0  0  0  0  0
    5.0968   -1.9376    3.2782 C   0  0  0  0  0  0  0  0  0  0  0  0
    7.3182    0.0085    2.3659 C   0  0  1  0  0  0  0  0  0  0  0  0
    7.7366    1.2285    1.4898 C   0  0  0  0  0  0  0  0  0  0  0  0
    7.6450    2.6808    2.1282 B   0  0  0  0  0  0  0  0  0  0  0  0
    8.6729    3.2133    2.9625 N   0  0  0  0  0  0  0  0  0  0  0  0
    8.6402    4.4863    3.5299 C   0  0  0  0  0  0  0  0  0  0  0  0
    9.6665    4.9647    4.3374 C   0  0  0  0  0  0  0  0  0  0  0  0
    9.5890    6.2606    4.8913 C   0  0  0  0  0  0  0  0  0  0  0  0
    8.5048    7.0795    4.6479 C   0  0  0  0  0  0  0  0  0  0  0  0
    7.4339    6.6311    3.8241 C   0  0  0  0  0  0  0  0  0  0  0  0
    6.2973    7.4394    3.5373 C   0  0  0  0  0  0  0  0  0  0  0  0
    5.2864    6.9626    2.7277 C   0  0  0  0  0  0  0  0  0  0  0  0
    5.3483    5.6689    2.1662 C   0  0  0  0  0  0  0  0  0  0  0  0
    6.4396    4.8466    2.4231 C   0  0  0  0  0  0  0  0  0  0  0  0
    7.5039    5.3160    3.2590 C   0  0  0  0  0  0  0  0  0  0  0  0
    6.5438    3.5603    1.8910 N   0  0  0  0  0  0  0  0  0  0  0  0
    8.1451   -0.1358    3.6669 C   0  0  0  0  0  0  0  0  0  0  0  0
    9.6554   -0.2349    3.5128 C   0  0  0  0  0  0  0  0  0  0  0  0
   10.5050    0.4866    4.3692 C   0  0  0  0  0  0  0  0  0  0  0  0
   11.8971    0.3838    4.2692 C   0  0  0  0  0  0  0  0  0  0  0  0
   12.4706   -0.4477    3.3043 C   0  0  0  0  0  0  0  0  0  0  0  0
   11.6394   -1.1763    2.4473 C   0  0  0  0  0  0  0  0  0  0  0  0
   10.2500   -1.0704    2.5519 C   0  0  0  0  0  0  0  0  0  0  0  0
    1.0897   -0.3551   -1.8086 H   0  0  0  0  0  0  0  0  0  0  0  0
    1.4805   -1.7095   -0.5876 H   0  0  0  0  0  0  0  0  0  0  0  0
    2.3109    1.2626   -0.4526 H   0  0  0  0  0  0  0  0  0  0  0  0
    2.7712   -1.1565    1.4329 H   0  0  0  0  0  0  0  0  0  0  0  0
    2.4951    0.4995    1.9827 H   0  0  0  0  0  0  0  0  0  0  0  0
    4.6254    1.2426    0.8314 H   0  0  0  0  0  0  0  0  0  0  0  0
    4.9218   -0.4079    0.3079 H   0  0  0  0  0  0  0  0  0  0  0  0
    3.7775    0.9119    4.2784 H   0  0  0  0  0  0  0  0  0  0  0  0
    5.0493    2.0775    3.8355 H   0  0  0  0  0  0  0  0  0  0  0  0
    5.3738    0.8158    5.0476 H   0  0  0  0  0  0  0  0  0  0  0  0
    4.0252   -2.0900    3.4876 H   0  0  0  0  0  0  0  0  0  0  0  0
    5.6461   -2.1938    4.1988 H   0  0  0  0  0  0  0  0  0  0  0  0
    5.3907   -2.6623    2.5003 H   0  0  0  0  0  0  0  0  0  0  0  0
    7.5110   -0.8956    1.7550 H   0  0  0  0  0  0  0  0  0  0  0  0
    7.1456    1.2106    0.5574 H   0  0  0  0  0  0  0  0  0  0  0  0
    8.7830    1.0760    1.1657 H   0  0  0  0  0  0  0  0  0  0  0  0
    9.5032    2.6663    3.1644 H   0  0  0  0  0  0  0  0  0  0  0  0
   10.5344    4.3310    4.5379 H   0  0  0  0  0  0  0  0  0  0  0  0
   10.4077    6.6153    5.5234 H   0  0  0  0  0  0  0  0  0  0  0  0
    8.4548    8.0814    5.0810 H   0  0  0  0  0  0  0  0  0  0  0  0
    6.2403    8.4424    3.9670 H   0  0  0  0  0  0  0  0  0  0  0  0
    4.4185    7.5917    2.5124 H   0  0  0  0  0  0  0  0  0  0  0  0
    4.5380    5.3077    1.5270 H   0  0  0  0  0  0  0  0  0  0  0  0
    5.7814    3.2818    1.2849 H   0  0  0  0  0  0  0  0  0  0  0  0
    7.8051   -1.0412    4.2028 H   0  0  0  0  0  0  0  0  0  0  0  0
    7.9246    0.7055    4.3443 H   0  0  0  0  0  0  0  0  0  0  0  0
   10.0671    1.1307    5.1384 H   0  0  0  0  0  0  0  0  0  0  0  0
   12.5339    0.9544    4.9506 H   0  0  0  0  0  0  0  0  0  0  0  0
   13.5572   -0.5297    3.2209 H   0  0  0  0  0  0  0  0  0  0  0  0
   12.0764   -1.8336    1.6907 H   0  0  0  0  0  0  0  0  0  0  0  0
    9.6184   -1.6505    1.8739 H   0  0  0  0  0  0  0  0  0  0  0  0
  1  2  2  0
  1 30  1  0
  1 31  1  0
  2  3  1  0
  2 32  1  0
  3  4  1  0
  3 33  1  0
  3 34  1  0
  5  4  1  6
  4 35  1  0
  4 36  1  0
  5  6  1  0
  5  7  1  0
  5  8  1  0
  6 37  1  0
  6 38  1  0
  6 39  1  0
  7 40  1  0
  7 41  1  0
  7 42  1  0
  8  9  1  0
  8 23  1  0
  8 43  1  6
  9 10  1  0
  9 44  1  0
  9 45  1  0
 10 11  1  0
 10 22  1  0
 11 12  1  0
 11 46  1  0
 12 13  2  0
 12 21  1  0
 13 14  1  0
 13 47  1  0
 14 15  2  0
 14 48  1  0
 15 16  1  0
 15 49  1  0
 16 17  1  0
 16 21  2  0
 17 18  2  0
 17 50  1  0
 18 19  1  0
 18 51  1  0
 19 20  2  0
 19 52  1  0
 20 21  1  0
 20 22  1  0
 22 53  1  0
 23 24  1  0
 23 54  1  0
 23 55  1  0
 24 25  2  0
 24 29  1  0
 25 26  1  0
 25 56  1  0
 26 27  2  0
 26 57  1  0
 27 28  1  0
 27 58  1  0
 28 29  2  0
 28 59  1  0
 29 60  1  0
M  END

