
     RDKit          3D

 48 50  0  0  0  0  0  0  0  0999 V2000
    1.6928    0.7855    0.1415 C   0  0  0  0  0  0  0  0  0  0  0  0
    2.9706   -0.0355   -0.0457 C   0  0  0  0  0  0  0  0  0  0  0  0
    3.2579   -1.0336    1.0949 C   0  0  1  0  0  0  0  0  0  0  0  0
    2.2520   -2.2067    1.1513 C   0  0  0  0  0  0  0  0  0  0  0  0
    2.4290   -3.1836    0.0814 N   0  0  0  0  0  0  0  0  0  0  0  0
    3.8068   -3.6981   -0.0497 C   0  0  2  0  0  0  0  0  0  0  0  0
    3.8962   -4.5249   -1.3473 C   0  0  0  0  0  0  0  0  0  0  0  0
    3.1803   -5.8592   -1.0446 C   0  0  0  0  0  0  0  0  0  0  0  0
    3.2224   -6.0106    0.5018 C   0  0  0  0  0  0  0  0  0  0  0  0
    4.0326   -4.8027    1.0130 C   0  0  0  0  0  0  0  0  0  0  0  0
    4.8322   -2.5387   -0.0352 C   0  0  0  0  0  0  0  0  0  0  0  0
    4.6402   -1.5395    1.0189 N   0  0  0  0  0  0  0  0  0  0  0  0
    5.3095   -1.8111    2.2878 C   0  0  0  0  0  0  0  0  0  0  0  0
    6.8198   -1.5344    2.2483 C   0  0  0  0  0  0  0  0  0  0  0  0
    7.1459   -0.0740    1.9228 C   0  0  0  0  0  0  0  0  0  0  0  0
    8.5706    0.1956    1.8027 N   0  0  0  0  0  0  0  0  0  0  0  0
    9.4861    0.3079    2.8289 C   0  0  0  0  0  0  0  0  0  0  0  0
   10.7057    0.5116    2.2192 C   0  0  0  0  0  0  0  0  0  0  0  0
   10.5631    0.5233    0.8554 N   0  0  0  0  0  0  0  0  0  0  0  0
    9.2811    0.3307    0.6403 C   0  0  0  0  0  0  0  0  0  0  0  0
    1.5732    1.5193   -0.6712 H   0  0  0  0  0  0  0  0  0  0  0  0
    1.7102    1.3455    1.0919 H   0  0  0  0  0  0  0  0  0  0  0  0
    0.7871    0.1576    0.1468 H   0  0  0  0  0  0  0  0  0  0  0  0
    3.8390    0.6397   -0.1163 H   0  0  0  0  0  0  0  0  0  0  0  0
    2.9241   -0.5666   -1.0127 H   0  0  0  0  0  0  0  0  0  0  0  0
    3.1770   -0.4683    2.0394 H   0  0  0  0  0  0  0  0  0  0  0  0
    1.2128   -1.8403    1.1238 H   0  0  0  0  0  0  0  0  0  0  0  0
    2.3652   -2.7214    2.1211 H   0  0  0  0  0  0  0  0  0  0  0  0
    2.1297   -2.7857   -0.8081 H   0  0  0  0  0  0  0  0  0  0  0  0
    4.9612   -4.6988   -1.5772 H   0  0  0  0  0  0  0  0  0  0  0  0
    3.4712   -3.9861   -2.2112 H   0  0  0  0  0  0  0  0  0  0  0  0
    3.6673   -6.7007   -1.5615 H   0  0  0  0  0  0  0  0  0  0  0  0
    2.1395   -5.8288   -1.3992 H   0  0  0  0  0  0  0  0  0  0  0  0
    3.6679   -6.9654    0.8221 H   0  0  0  0  0  0  0  0  0  0  0  0
    2.2030   -5.9753    0.9117 H   0  0  0  0  0  0  0  0  0  0  0  0
    5.1089   -5.0429    1.0496 H   0  0  0  0  0  0  0  0  0  0  0  0
    3.7373   -4.4990    2.0284 H   0  0  0  0  0  0  0  0  0  0  0  0
    4.7727   -2.0292   -1.0148 H   0  0  0  0  0  0  0  0  0  0  0  0
    5.8562   -2.9389    0.0334 H   0  0  0  0  0  0  0  0  0  0  0  0
    5.1578   -2.8457    2.6577 H   0  0  0  0  0  0  0  0  0  0  0  0
    4.8573   -1.1526    3.0485 H   0  0  0  0  0  0  0  0  0  0  0  0
    7.3128   -2.1835    1.5050 H   0  0  0  0  0  0  0  0  0  0  0  0
    7.2528   -1.8078    3.2257 H   0  0  0  0  0  0  0  0  0  0  0  0
    6.7261    0.5914    2.6964 H   0  0  0  0  0  0  0  0  0  0  0  0
    6.6655    0.2001    0.9729 H   0  0  0  0  0  0  0  0  0  0  0  0
    9.1921    0.2428    3.8741 H   0  0  0  0  0  0  0  0  0  0  0  0
   11.6744    0.6556    2.6975 H   0  0  0  0  0  0  0  0  0  0  0  0
    8.7928    0.2844   -0.3344 H   0  0  0  0  0  0  0  0  0  0  0  0
  1  2  1  0
  1 21  1  0
  1 22  1  0
  1 23  1  0
  2  3  1  0
  2 24  1  0
  2 25  1  0
  3  4  1  0
  3 12  1  0
  3 26  1  1
  4  5  1  0
  4 27  1  0
  4 28  1  0
  6  5  1  1
  5 29  1  0
  6  7  1  0
  6 10  1  0
  6 11  1  0
  7  8  1  0
  7 30  1  0
  7 31  1  0
  8  9  1  0
  8 32  1  0
  8 33  1  0
  9 10  1  0
  9 34  1  0
  9 35  1  0
 10 36  1  0
 10 37  1  0
 11 12  1  0
 11 38  1  0
 11 39  1  0
 12 13  1  0
 13 14  1  0
 13 40  1  0
 13 41  1  0
 14 15  1  0
 14 42  1  0
 14 43  1  0
 15 16  1  0
 15 44  1  0
 15 45  1  0
 16 17  1  0
 16 20  1  0
 17 18  2  0
 17 46  1  0
 18 19  1  0
 18 47  1  0
 19 20  2  0
 20 48  1  0
M  END

