
     RDKit          3D

 35 35  0  0  0  0  0  0  0  0999 V2000
    2.4625   -0.8364   -1.3929 C   0  0  0  0  0  0  0  0  0  0  0  0
    1.9968   -1.1438   -0.0553 N   0  0  0  0  0  0  0  0  0  0  0  0
    2.9994   -1.0601    0.9990 C   0  0  1  0  0  0  0  0  0  0  0  0
    2.3314   -1.1843    2.3982 C   0  0  0  0  0  0  0  0  0  0  0  0
    2.8120   -2.5360    2.9647 C   0  0  0  0  0  0  0  0  0  0  0  0
    3.3400   -3.2438    1.8014 N   0  0  0  0  0  0  0  0  0  0  0  0
    4.1130   -4.4399    2.0735 C   0  0  0  0  0  0  0  0  0  0  0  0
    3.2905   -5.5856    2.6781 C   0  0  0  0  0  0  0  0  0  0  0  0
    2.0401   -5.9878    1.8825 C   0  0  0  0  0  0  0  0  0  0  0  0
    2.3356   -6.4910    0.4691 C   0  0  0  0  0  0  0  0  0  0  0  0
    0.7890   -7.0531   -0.3383 S   0  0  0  0  0  0  0  0  0  0  0  0
    1.4470   -7.5342   -1.9651 C   0  0  0  0  0  0  0  0  0  0  0  0
    4.0194   -2.2226    1.0163 C   0  0  0  0  0  0  0  0  0  0  0  0
    1.6339   -0.9512   -2.1096 H   0  0  0  0  0  0  0  0  0  0  0  0
    3.3088   -1.4593   -1.7616 H   0  0  0  0  0  0  0  0  0  0  0  0
    2.7929    0.2157   -1.4419 H   0  0  0  0  0  0  0  0  0  0  0  0
    1.5655   -2.0683   -0.0282 H   0  0  0  0  0  0  0  0  0  0  0  0
    3.5167   -0.0934    0.8839 H   0  0  0  0  0  0  0  0  0  0  0  0
    1.2400   -1.1501    2.2706 H   0  0  0  0  0  0  0  0  0  0  0  0
    2.6087   -0.3509    3.0602 H   0  0  0  0  0  0  0  0  0  0  0  0
    2.0057   -3.1064    3.4518 H   0  0  0  0  0  0  0  0  0  0  0  0
    3.6088   -2.3781    3.7290 H   0  0  0  0  0  0  0  0  0  0  0  0
    4.9718   -4.2208    2.7530 H   0  0  0  0  0  0  0  0  0  0  0  0
    4.5603   -4.7712    1.1209 H   0  0  0  0  0  0  0  0  0  0  0  0
    2.9814   -5.3160    3.7025 H   0  0  0  0  0  0  0  0  0  0  0  0
    3.9593   -6.4575    2.7909 H   0  0  0  0  0  0  0  0  0  0  0  0
    1.3548   -5.1272    1.8167 H   0  0  0  0  0  0  0  0  0  0  0  0
    1.5056   -6.7774    2.4383 H   0  0  0  0  0  0  0  0  0  0  0  0
    3.0515   -7.3313    0.4973 H   0  0  0  0  0  0  0  0  0  0  0  0
    2.7780   -5.6894   -0.1445 H   0  0  0  0  0  0  0  0  0  0  0  0
    0.5971   -7.8962   -2.5615 H   0  0  0  0  0  0  0  0  0  0  0  0
    2.1868   -8.3459   -1.8786 H   0  0  0  0  0  0  0  0  0  0  0  0
    1.9033   -6.6778   -2.4866 H   0  0  0  0  0  0  0  0  0  0  0  0
    4.2687   -2.5931    0.0084 H   0  0  0  0  0  0  0  0  0  0  0  0
    4.9746   -1.8968    1.4951 H   0  0  0  0  0  0  0  0  0  0  0  0
  1  2  1  0
  1 14  1  0
  1 15  1  0
  1 16  1  0
  2  3  1  0
  2 17  1  0
  3  4  1  0
  3 13  1  0
  3 18  1  1
  4  5  1  0
  4 19  1  0
  4 20  1  0
  5  6  1  0
  5 21  1  0
  5 22  1  0
  6  7  1  0
  6 13  1  0
  7  8  1  0
  7 23  1  0
  7 24  1  0
  8  9  1  0
  8 25  1  0
  8 26  1  0
  9 10  1  0
  9 27  1  0
  9 28  1  0
 10 11  1  0
 10 29  1  0
 10 30  1  0
 11 12  1  0
 12 31  1  0
 12 32  1  0
 12 33  1  0
 13 34  1  0
 13 35  1  0
M  END

