
     RDKit          3D

 35 36  0  0  0  0  0  0  0  0999 V2000
    1.3588   -0.1908    1.6870 C   0  0  0  0  0  0  0  0  0  0  0  0
    2.5803   -0.0609    0.8370 C   0  0  0  0  0  0  0  0  0  0  0  0
    3.1975   -1.1211    0.3830 N   0  0  0  0  0  0  0  0  0  0  0  0
    4.2922   -0.7029   -0.3769 O   0  0  0  0  0  0  0  0  0  0  0  0
    4.3242    0.6427   -0.3729 C   0  0  0  0  0  0  0  0  0  0  0  0
    5.2317    1.3507   -1.0186 N   0  0  0  0  0  0  0  0  0  0  0  0
    5.1039    2.6708   -0.8809 C   0  0  0  0  0  0  0  0  0  0  0  0
    4.0905    3.3113   -0.1241 C   0  0  0  0  0  0  0  0  0  0  0  0
    3.8877    4.8081   -0.0916 C   0  0  0  0  0  0  0  0  0  0  0  0
    2.7482    5.2492   -0.2062 O   0  0  0  0  0  0  0  0  0  0  0  0
    4.9643    5.6406    0.0677 N   0  0  0  0  0  0  0  0  0  0  0  0
    6.3287    5.2217    0.3715 C   0  0  0  0  0  0  0  0  0  0  0  0
    4.7287    7.0806   -0.1051 C   0  0  0  0  0  0  0  0  0  0  0  0
    3.9845    7.7689    1.0524 C   0  0  0  0  0  0  0  0  0  0  0  0
    4.5534    7.5710    2.4615 C   0  0  0  0  0  0  0  0  0  0  0  0
    5.9275    8.1792    2.7070 C   0  0  0  0  0  0  0  0  0  0  0  0
    6.7309    8.4259    1.8457 O   0  0  0  0  0  0  0  0  0  0  0  0
    6.2424    8.4004    4.0032 O   0  0  0  0  0  0  0  0  0  0  0  0
    3.1205    2.5214    0.5065 C   0  0  0  0  0  0  0  0  0  0  0  0
    3.2524    1.1362    0.3931 C   0  0  0  0  0  0  0  0  0  0  0  0
    1.1143   -1.2515    1.8327 H   0  0  0  0  0  0  0  0  0  0  0  0
    0.4983    0.3105    1.2151 H   0  0  0  0  0  0  0  0  0  0  0  0
    1.5146    0.2763    2.6729 H   0  0  0  0  0  0  0  0  0  0  0  0
    5.8332    3.2750   -1.4289 H   0  0  0  0  0  0  0  0  0  0  0  0
    6.3387    4.2463    0.8739 H   0  0  0  0  0  0  0  0  0  0  0  0
    6.7946    5.9597    1.0391 H   0  0  0  0  0  0  0  0  0  0  0  0
    6.9603    5.1567   -0.5329 H   0  0  0  0  0  0  0  0  0  0  0  0
    4.1264    7.2240   -1.0154 H   0  0  0  0  0  0  0  0  0  0  0  0
    5.7055    7.5561   -0.2570 H   0  0  0  0  0  0  0  0  0  0  0  0
    2.9484    7.4020    1.0520 H   0  0  0  0  0  0  0  0  0  0  0  0
    3.9478    8.8474    0.8238 H   0  0  0  0  0  0  0  0  0  0  0  0
    4.6352    6.4919    2.6919 H   0  0  0  0  0  0  0  0  0  0  0  0
    3.8411    7.9766    3.2014 H   0  0  0  0  0  0  0  0  0  0  0  0
    5.4974    8.1730    4.5775 H   0  0  0  0  0  0  0  0  0  0  0  0
    2.2980    2.9985    1.0433 H   0  0  0  0  0  0  0  0  0  0  0  0
  1  2  1  0
  1 21  1  0
  1 22  1  0
  1 23  1  0
  2  3  2  0
  2 20  1  0
  3  4  1  0
  4  5  1  0
  5  6  1  0
  5 20  2  0
  6  7  2  0
  7  8  1  0
  7 24  1  0
  8  9  1  0
  8 19  2  0
  9 10  2  0
  9 11  1  0
 11 12  1  0
 11 13  1  0
 12 25  1  0
 12 26  1  0
 12 27  1  0
 13 14  1  0
 13 28  1  0
 13 29  1  0
 14 15  1  0
 14 30  1  0
 14 31  1  0
 15 16  1  0
 15 32  1  0
 15 33  1  0
 16 17  2  0
 16 18  1  0
 18 34  1  0
 19 20  1  0
 19 35  1  0
M  END

