
     RDKit          3D

 78 84  0  0  0  0  0  0  0  0999 V2000
    0.9516    2.1784    2.5333 C   0  0  0  0  0  0  0  0  0  0  0  0
    1.4107    2.2989    1.0794 C   0  0  0  0  0  0  0  0  0  0  0  0
    2.9125    2.0595    0.8963 C   0  0  0  0  0  0  0  0  0  0  0  0
    3.3491    2.1751   -0.5709 C   0  0  0  0  0  0  0  0  0  0  0  0
    4.7762    1.9469   -0.7798 N   0  0  0  0  0  0  0  0  0  0  0  0
    5.7109    2.8546   -0.3025 C   0  0  0  0  0  0  0  0  0  0  0  0
    5.5109    4.2183   -0.0529 C   0  0  0  0  0  0  0  0  0  0  0  0
    6.5797    4.9712    0.4255 C   0  0  0  0  0  0  0  0  0  0  0  0
    7.8194    4.3575    0.6582 C   0  0  0  0  0  0  0  0  0  0  0  0
    8.0072    2.9968    0.4179 C   0  0  0  0  0  0  0  0  0  0  0  0
    6.9533    2.1959   -0.0705 C   0  0  0  0  0  0  0  0  0  0  0  0
    6.7412    0.7857   -0.4244 C   0  0  0  0  0  0  0  0  0  0  0  0
    5.3891    0.7034   -0.8913 C   0  0  0  0  0  0  0  0  0  0  0  0
    4.8030   -0.5041   -1.3573 C   0  0  0  0  0  0  0  0  0  0  0  0
    3.5796   -0.8912   -2.0521 C   0  0  0  0  0  0  0  0  0  0  0  0
    2.5700   -0.2219   -2.7703 C   0  0  0  0  0  0  0  0  0  0  0  0
    1.5318   -0.9493   -3.3557 C   0  0  0  0  0  0  0  0  0  0  0  0
    1.4837   -2.3486   -3.2521 C   0  0  0  0  0  0  0  0  0  0  0  0
    2.5036   -3.0474   -2.6042 C   0  0  0  0  0  0  0  0  0  0  0  0
    3.5577   -2.3160   -2.0464 C   0  0  0  0  0  0  0  0  0  0  0  0
    4.7274   -2.7989   -1.4658 N   0  0  0  0  0  0  0  0  0  0  0  0
    4.7633   -4.0930   -0.7880 C   0  0  0  0  0  0  0  0  0  0  0  0
    3.8450   -4.1742    0.4398 C   0  0  0  0  0  0  0  0  0  0  0  0
    3.9235   -5.5345    1.1396 C   0  0  0  0  0  0  0  0  0  0  0  0
    3.0203   -5.6352    2.3698 C   0  0  0  0  0  0  0  0  0  0  0  0
    5.5272   -1.7019   -1.1386 C   0  0  0  0  0  0  0  0  0  0  0  0
    6.8953   -1.6786   -0.7723 C   0  0  0  0  0  0  0  0  0  0  0  0
    7.9517   -2.6712   -0.8256 C   0  0  0  0  0  0  0  0  0  0  0  0
    8.0622   -3.9939   -1.2980 C   0  0  0  0  0  0  0  0  0  0  0  0
    9.2907   -4.6511   -1.2464 C   0  0  0  0  0  0  0  0  0  0  0  0
   10.4300   -4.0030   -0.7412 C   0  0  0  0  0  0  0  0  0  0  0  0
   10.3659   -2.6761   -0.3185 C   0  0  0  0  0  0  0  0  0  0  0  0
    9.1326   -2.0118   -0.3894 C   0  0  0  0  0  0  0  0  0  0  0  0
    8.8454   -0.6763   -0.1364 N   0  0  0  0  0  0  0  0  0  0  0  0
    9.8617    0.2616    0.3090 C   0  0  0  0  0  0  0  0  0  0  0  0
    9.8824    0.5182    1.8241 C   0  0  0  0  0  0  0  0  0  0  0  0
   10.2931   -0.6801    2.6861 C   0  0  0  0  0  0  0  0  0  0  0  0
   10.2768   -0.3673    4.1833 C   0  0  0  0  0  0  0  0  0  0  0  0
    7.4965   -0.4327   -0.4085 C   0  0  0  0  0  0  0  0  0  0  0  0
   -0.1311    2.3568    2.6309 H   0  0  0  0  0  0  0  0  0  0  0  0
    1.4694    2.9073    3.1790 H   0  0  0  0  0  0  0  0  0  0  0  0
    1.1615    1.1739    2.9369 H   0  0  0  0  0  0  0  0  0  0  0  0
    1.1508    3.3021    0.6939 H   0  0  0  0  0  0  0  0  0  0  0  0
    0.8475    1.5821    0.4546 H   0  0  0  0  0  0  0  0  0  0  0  0
    3.1766    1.0527    1.2645 H   0  0  0  0  0  0  0  0  0  0  0  0
    3.4820    2.7762    1.5124 H   0  0  0  0  0  0  0  0  0  0  0  0
    3.0977    3.1717   -0.9686 H   0  0  0  0  0  0  0  0  0  0  0  0
    2.7836    1.4552   -1.1655 H   0  0  0  0  0  0  0  0  0  0  0  0
    4.5425    4.6861   -0.2371 H   0  0  0  0  0  0  0  0  0  0  0  0
    6.4502    6.0392    0.6171 H   0  0  0  0  0  0  0  0  0  0  0  0
    8.6565    4.9503    1.0352 H   0  0  0  0  0  0  0  0  0  0  0  0
    8.9878    2.5865    0.6269 H   0  0  0  0  0  0  0  0  0  0  0  0
    2.6066    0.8568   -2.9213 H   0  0  0  0  0  0  0  0  0  0  0  0
    0.7551   -0.4209   -3.9138 H   0  0  0  0  0  0  0  0  0  0  0  0
    0.6588   -2.9003   -3.7097 H   0  0  0  0  0  0  0  0  0  0  0  0
    2.4914   -4.1384   -2.5666 H   0  0  0  0  0  0  0  0  0  0  0  0
    5.7916   -4.2879   -0.4701 H   0  0  0  0  0  0  0  0  0  0  0  0
    4.5014   -4.8812   -1.5147 H   0  0  0  0  0  0  0  0  0  0  0  0
    2.8026   -3.9694    0.1424 H   0  0  0  0  0  0  0  0  0  0  0  0
    4.1294   -3.3742    1.1459 H   0  0  0  0  0  0  0  0  0  0  0  0
    4.9699   -5.7353    1.4334 H   0  0  0  0  0  0  0  0  0  0  0  0
    3.6560   -6.3311    0.4211 H   0  0  0  0  0  0  0  0  0  0  0  0
    3.2868   -4.8770    3.1248 H   0  0  0  0  0  0  0  0  0  0  0  0
    3.0995   -6.6241    2.8487 H   0  0  0  0  0  0  0  0  0  0  0  0
    1.9617   -5.4771    2.1040 H   0  0  0  0  0  0  0  0  0  0  0  0
    7.2102   -4.5039   -1.7445 H   0  0  0  0  0  0  0  0  0  0  0  0
    9.3685   -5.6768   -1.6148 H   0  0  0  0  0  0  0  0  0  0  0  0
   11.3843   -4.5338   -0.6983 H   0  0  0  0  0  0  0  0  0  0  0  0
   11.2648   -2.1756    0.0428 H   0  0  0  0  0  0  0  0  0  0  0  0
    9.7303    1.1970   -0.2469 H   0  0  0  0  0  0  0  0  0  0  0  0
   10.8363   -0.1329   -0.0135 H   0  0  0  0  0  0  0  0  0  0  0  0
    8.8881    0.8738    2.1429 H   0  0  0  0  0  0  0  0  0  0  0  0
   10.5792    1.3561    2.0112 H   0  0  0  0  0  0  0  0  0  0  0  0
   11.3038   -1.0157    2.3912 H   0  0  0  0  0  0  0  0  0  0  0  0
    9.6205   -1.5299    2.4807 H   0  0  0  0  0  0  0  0  0  0  0  0
   10.9655    0.4582    4.4306 H   0  0  0  0  0  0  0  0  0  0  0  0
   10.5785   -1.2424    4.7805 H   0  0  0  0  0  0  0  0  0  0  0  0
    9.2700   -0.0668    4.5182 H   0  0  0  0  0  0  0  0  0  0  0  0
  1  2  1  0
  1 40  1  0
  1 41  1  0
  1 42  1  0
  2  3  1  0
  2 43  1  0
  2 44  1  0
  3  4  1  0
  3 45  1  0
  3 46  1  0
  4  5  1  0
  4 47  1  0
  4 48  1  0
  5  6  1  0
  5 13  1  0
  6  7  2  0
  6 11  1  0
  7  8  1  0
  7 49  1  0
  8  9  2  0
  8 50  1  0
  9 10  1  0
  9 51  1  0
 10 11  2  0
 10 52  1  0
 11 12  1  0
 12 13  2  0
 12 39  1  0
 13 14  1  0
 14 15  1  0
 14 26  2  0
 15 16  2  0
 15 20  1  0
 16 17  1  0
 16 53  1  0
 17 18  2  0
 17 54  1  0
 18 19  1  0
 18 55  1  0
 19 20  2  0
 19 56  1  0
 20 21  1  0
 21 22  1  0
 21 26  1  0
 22 23  1  0
 22 57  1  0
 22 58  1  0
 23 24  1  0
 23 59  1  0
 23 60  1  0
 24 25  1  0
 24 61  1  0
 24 62  1  0
 25 63  1  0
 25 64  1  0
 25 65  1  0
 26 27  1  0
 27 28  1  0
 27 39  2  0
 28 29  2  0
 28 33  1  0
 29 30  1  0
 29 66  1  0
 30 31  2  0
 30 67  1  0
 31 32  1  0
 31 68  1  0
 32 33  2  0
 32 69  1  0
 33 34  1  0
 34 35  1  0
 34 39  1  0
 35 36  1  0
 35 70  1  0
 35 71  1  0
 36 37  1  0
 36 72  1  0
 36 73  1  0
 37 38  1  0
 37 74  1  0
 37 75  1  0
 38 76  1  0
 38 77  1  0
 38 78  1  0
M  END

