
     RDKit          3D

 55 59  0  0  0  0  0  0  0  0999 V2000
    3.7418   -0.2960    2.5076 O   0  0  0  0  0  0  0  0  0  0  0  0
    3.7311   -0.1410    1.2939 C   0  0  0  0  0  0  0  0  0  0  0  0
    3.8399   -1.3568    0.3646 C   0  0  1  0  0  0  0  0  0  0  0  0
    3.2357   -1.2112   -0.5427 H   0  0  0  0  0  0  0  0  0  0  0  0
    5.2879   -1.6907   -0.0490 C   0  0  0  0  0  0  0  0  0  0  0  0
    5.3080   -3.2125   -0.2084 C   0  0  0  0  0  0  0  0  0  0  0  0
    6.1844   -3.8704   -0.7234 O   0  0  0  0  0  0  0  0  0  0  0  0
    4.1495   -3.6974    0.3713 N   0  0  0  0  0  0  0  0  0  0  0  0
    3.9064   -5.0841    0.5918 C   0  0  0  0  0  0  0  0  0  0  0  0
    4.7686   -5.8192    1.3843 C   0  0  0  0  0  0  0  0  0  0  0  0
    4.5284   -7.1900    1.6387 C   0  0  0  0  0  0  0  0  0  0  0  0
    3.4175   -7.8113    1.1113 C   0  0  0  0  0  0  0  0  0  0  0  0
    2.5120   -7.0952    0.2801 C   0  0  0  0  0  0  0  0  0  0  0  0
    1.3689   -7.7197   -0.2946 C   0  0  0  0  0  0  0  0  0  0  0  0
    0.5201   -7.0221   -1.1271 C   0  0  0  0  0  0  0  0  0  0  0  0
    0.7851   -5.6637   -1.4322 C   0  0  0  0  0  0  0  0  0  0  0  0
    1.8797   -5.0255   -0.8863 C   0  0  0  0  0  0  0  0  0  0  0  0
    2.7643   -5.7103   -0.0064 C   0  0  0  0  0  0  0  0  0  0  0  0
    3.3714   -2.6550    1.0497 C   0  0  0  0  0  0  0  0  0  0  0  0
    3.6630    1.1071    0.7191 N   0  0  0  0  0  0  0  0  0  0  0  0
    3.5505    2.2718    1.5941 C   0  0  0  0  0  0  0  0  0  0  0  0
    2.2274    3.0328    1.4557 C   0  0  0  0  0  0  0  0  0  0  0  0
    1.9981    3.7250    0.1079 C   0  0  0  0  0  0  0  0  0  0  0  0
    1.5575    2.8658   -0.9711 N   0  0  0  0  0  0  0  0  0  0  0  0
    1.1738    3.5620   -2.1920 C   0  0  0  0  0  0  0  0  0  0  0  0
    1.0514    2.4467   -3.2289 C   0  0  0  0  0  0  0  0  0  0  0  0
    2.2092    1.5266   -2.8304 C   0  0  0  0  0  0  0  0  0  0  0  0
    2.2132    1.5823   -1.2889 C   0  0  1  0  0  0  0  0  0  0  0  0
    1.5961    0.7492   -0.8929 H   0  0  0  0  0  0  0  0  0  0  0  0
    3.6265    1.3713   -0.7133 C   0  0  0  0  0  0  0  0  0  0  0  0
    6.0029   -1.4314    0.7508 H   0  0  0  0  0  0  0  0  0  0  0  0
    5.6356   -1.2055   -0.9720 H   0  0  0  0  0  0  0  0  0  0  0  0
    5.6436   -5.3296    1.8153 H   0  0  0  0  0  0  0  0  0  0  0  0
    5.2264   -7.7483    2.2672 H   0  0  0  0  0  0  0  0  0  0  0  0
    3.2210   -8.8668    1.3176 H   0  0  0  0  0  0  0  0  0  0  0  0
    1.1791   -8.7723   -0.0676 H   0  0  0  0  0  0  0  0  0  0  0  0
   -0.3521   -7.5162   -1.5623 H   0  0  0  0  0  0  0  0  0  0  0  0
    0.1211   -5.1224   -2.1110 H   0  0  0  0  0  0  0  0  0  0  0  0
    2.0921   -3.9868   -1.1440 H   0  0  0  0  0  0  0  0  0  0  0  0
    3.5968   -2.6203    2.1280 H   0  0  0  0  0  0  0  0  0  0  0  0
    2.2907   -2.8256    0.9332 H   0  0  0  0  0  0  0  0  0  0  0  0
    4.3901    2.9587    1.3760 H   0  0  0  0  0  0  0  0  0  0  0  0
    3.6716    1.9065    2.6208 H   0  0  0  0  0  0  0  0  0  0  0  0
    2.2242    3.8128    2.2360 H   0  0  0  0  0  0  0  0  0  0  0  0
    1.3803    2.3617    1.6769 H   0  0  0  0  0  0  0  0  0  0  0  0
    2.9190    4.3029   -0.1556 H   0  0  0  0  0  0  0  0  0  0  0  0
    1.2117    4.4882    0.2442 H   0  0  0  0  0  0  0  0  0  0  0  0
    1.9425    4.3036   -2.5156 H   0  0  0  0  0  0  0  0  0  0  0  0
    0.2341    4.1256   -2.0492 H   0  0  0  0  0  0  0  0  0  0  0  0
    1.1180    2.8110   -4.2650 H   0  0  0  0  0  0  0  0  0  0  0  0
    0.0872    1.9250   -3.1131 H   0  0  0  0  0  0  0  0  0  0  0  0
    3.1585    1.9379   -3.2182 H   0  0  0  0  0  0  0  0  0  0  0  0
    2.1158    0.4987   -3.2136 H   0  0  0  0  0  0  0  0  0  0  0  0
    4.2508    2.2582   -0.9192 H   0  0  0  0  0  0  0  0  0  0  0  0
    4.0980    0.5411   -1.2538 H   0  0  0  0  0  0  0  0  0  0  0  0
  1  2  2  0
  2  3  1  0
  2 20  1  0
  3  4  1  6
  3  5  1  0
  3 19  1  0
  5  6  1  0
  5 31  1  0
  5 32  1  0
  6  7  2  0
  6  8  1  0
  8  9  1  0
  8 19  1  0
  9 10  2  0
  9 18  1  0
 10 11  1  0
 10 33  1  0
 11 12  2  0
 11 34  1  0
 12 13  1  0
 12 35  1  0
 13 14  1  0
 13 18  2  0
 14 15  2  0
 14 36  1  0
 15 16  1  0
 15 37  1  0
 16 17  2  0
 16 38  1  0
 17 18  1  0
 17 39  1  0
 19 40  1  0
 19 41  1  0
 20 21  1  0
 20 30  1  0
 21 22  1  0
 21 42  1  0
 21 43  1  0
 22 23  1  0
 22 44  1  0
 22 45  1  0
 23 24  1  0
 23 46  1  0
 23 47  1  0
 24 25  1  0
 24 28  1  0
 25 26  1  0
 25 48  1  0
 25 49  1  0
 26 27  1  0
 26 50  1  0
 26 51  1  0
 27 28  1  0
 27 52  1  0
 27 53  1  0
 28 29  1  1
 28 30  1  0
 30 54  1  0
 30 55  1  0
M  END

