
     RDKit          3D

 35 36  0  0  0  0  0  0  0  0999 V2000
    0.8076    0.1860    0.8117 C   0  0  0  0  0  0  0  0  0  0  0  0
    2.2354    0.2448    0.5864 N   0  0  0  0  0  0  0  0  0  0  0  0
    3.0280    1.3615    0.5881 C   0  0  0  0  0  0  0  0  0  0  0  0
    4.3274    0.8960    0.4299 C   0  0  0  0  0  0  0  0  0  0  0  0
    5.4992    1.5762    0.3628 O   0  0  0  0  0  0  0  0  0  0  0  0
    5.4385    2.9741    0.2175 C   0  0  0  0  0  0  0  0  0  0  0  0
    6.8651    3.4831    0.0006 C   0  0  1  0  0  0  0  0  0  0  0  0
    7.5360    2.9129   -1.2626 C   0  0  0  0  0  0  0  0  0  0  0  0
    7.9904    1.1348   -1.1581 S   0  0  1  0  0  0  0  0  0  0  0  0
    8.5881    0.8634    0.1411 O   0  0  0  0  0  0  0  0  0  0  0  0
    6.9917    0.2693   -1.7638 O   0  0  0  0  0  0  0  0  0  0  0  0
    9.6238    1.1966   -2.5847 Cl  0  0  0  0  0  0  0  0  0  0  0  0
    6.9029    5.0055   -0.0396 C   0  0  0  0  0  0  0  0  0  0  0  0
    7.5766    5.7208    0.9623 C   0  0  0  0  0  0  0  0  0  0  0  0
    7.6100    7.1181    0.9458 C   0  0  0  0  0  0  0  0  0  0  0  0
    6.9693    7.8231   -0.0767 C   0  0  0  0  0  0  0  0  0  0  0  0
    6.2960    7.1225   -1.0819 C   0  0  0  0  0  0  0  0  0  0  0  0
    6.2635    5.7256   -1.0632 C   0  0  0  0  0  0  0  0  0  0  0  0
    4.2112   -0.5124    0.3451 C   0  0  0  0  0  0  0  0  0  0  0  0
    2.9384   -0.8835    0.4501 N   0  0  0  0  0  0  0  0  0  0  0  0
    0.3152    1.0476    0.3372 H   0  0  0  0  0  0  0  0  0  0  0  0
    0.5648    0.1828    1.8881 H   0  0  0  0  0  0  0  0  0  0  0  0
    0.4310   -0.7409    0.3608 H   0  0  0  0  0  0  0  0  0  0  0  0
    2.6163    2.3615    0.6967 H   0  0  0  0  0  0  0  0  0  0  0  0
    5.0138    3.4479    1.1229 H   0  0  0  0  0  0  0  0  0  0  0  0
    4.7867    3.2446   -0.6367 H   0  0  0  0  0  0  0  0  0  0  0  0
    7.4641    3.1474    0.8616 H   0  0  0  0  0  0  0  0  0  0  0  0
    8.5019    3.4037   -1.4333 H   0  0  0  0  0  0  0  0  0  0  0  0
    6.9245    2.9869   -2.1732 H   0  0  0  0  0  0  0  0  0  0  0  0
    8.0813    5.1755    1.7647 H   0  0  0  0  0  0  0  0  0  0  0  0
    8.1401    7.6567    1.7352 H   0  0  0  0  0  0  0  0  0  0  0  0
    6.9958    8.9155   -0.0917 H   0  0  0  0  0  0  0  0  0  0  0  0
    5.7939    7.6655   -1.8866 H   0  0  0  0  0  0  0  0  0  0  0  0
    5.7339    5.1961   -1.8601 H   0  0  0  0  0  0  0  0  0  0  0  0
    5.0088   -1.2373    0.1941 H   0  0  0  0  0  0  0  0  0  0  0  0
  1  2  1  0
  1 21  1  0
  1 22  1  0
  1 23  1  0
  2  3  1  0
  2 20  1  0
  3  4  2  0
  3 24  1  0
  4  5  1  0
  4 19  1  0
  5  6  1  0
  6  7  1  0
  6 25  1  0
  6 26  1  0
  7  8  1  0
  7 13  1  0
  7 27  1  1
  8  9  1  0
  8 28  1  0
  8 29  1  0
  9 10  2  0
  9 11  2  0
  9 12  1  6
 13 14  2  0
 13 18  1  0
 14 15  1  0
 14 30  1  0
 15 16  2  0
 15 31  1  0
 16 17  1  0
 16 32  1  0
 17 18  2  0
 17 33  1  0
 18 34  1  0
 19 20  2  0
 19 35  1  0
M  END

