
     RDKit          3D

 43 43  0  0  0  0  0  0  0  0999 V2000
    2.4669   -0.9509    3.1309 C   0  0  0  0  0  0  0  0  0  0  0  0
    2.2884   -1.7111    1.8089 C   0  0  1  0  0  0  0  0  0  0  0  0
    0.8205   -1.6643    1.3582 C   0  0  0  0  0  0  0  0  0  0  0  0
    3.1926   -1.1911    0.6704 C   0  0  0  0  0  0  0  0  0  0  0  0
    4.7266   -1.3799    0.7486 C   0  0  1  0  0  0  0  0  0  0  0  0
    5.3769   -0.7782   -0.5054 C   0  0  0  0  0  0  0  0  0  0  0  0
    5.2851   -0.7556    1.9169 O   0  0  0  0  0  0  0  0  0  0  0  0
    5.1042   -2.8665    0.9076 C   0  0  0  0  0  0  0  0  0  0  0  0
    6.5319   -3.0446    1.0801 N   0  0  0  0  0  0  0  0  0  0  0  0
    7.3215   -3.6413    0.1495 C   0  0  0  0  0  0  0  0  0  0  0  0
    6.9104   -4.1885   -0.8584 O   0  0  0  0  0  0  0  0  0  0  0  0
    8.8248   -3.6165    0.4836 C   0  0  0  0  0  0  0  0  0  0  0  0
    9.6085   -3.6071   -0.7231 N   0  0  0  0  0  0  0  0  0  0  0  0
    9.5845   -2.5774   -1.6366 C   0  0  0  0  0  0  0  0  0  0  0  0
    9.0491   -1.5019   -1.4926 O   0  0  0  0  0  0  0  0  0  0  0  0
   10.3684   -3.0799   -2.8486 C   0  0  0  0  0  0  0  0  0  0  0  0
   10.7360   -4.4247   -2.4685 N   0  0  0  0  0  0  0  0  0  0  0  0
   11.4638   -5.3405   -3.3122 C   0  0  0  0  0  0  0  0  0  0  0  0
   10.2679   -4.7573   -1.2231 C   0  0  0  0  0  0  0  0  0  0  0  0
   10.3919   -5.8032   -0.6282 O   0  0  0  0  0  0  0  0  0  0  0  0
    1.7910   -1.3497    3.9052 H   0  0  0  0  0  0  0  0  0  0  0  0
    2.2205    0.1182    2.9999 H   0  0  0  0  0  0  0  0  0  0  0  0
    3.4990   -1.0129    3.4991 H   0  0  0  0  0  0  0  0  0  0  0  0
    2.5351   -2.7722    1.9934 H   0  0  0  0  0  0  0  0  0  0  0  0
    0.5087   -0.6289    1.1357 H   0  0  0  0  0  0  0  0  0  0  0  0
    0.1505   -2.0497    2.1436 H   0  0  0  0  0  0  0  0  0  0  0  0
    0.6528   -2.2643    0.4489 H   0  0  0  0  0  0  0  0  0  0  0  0
    2.9990   -0.1086    0.5408 H   0  0  0  0  0  0  0  0  0  0  0  0
    2.8637   -1.6590   -0.2740 H   0  0  0  0  0  0  0  0  0  0  0  0
    5.1379    0.2968   -0.5778 H   0  0  0  0  0  0  0  0  0  0  0  0
    5.0081   -1.2642   -1.4213 H   0  0  0  0  0  0  0  0  0  0  0  0
    6.4708   -0.8859   -0.4818 H   0  0  0  0  0  0  0  0  0  0  0  0
    5.2012    0.2025    1.8209 H   0  0  0  0  0  0  0  0  0  0  0  0
    4.8038   -3.4390    0.0199 H   0  0  0  0  0  0  0  0  0  0  0  0
    4.5785   -3.2810    1.7821 H   0  0  0  0  0  0  0  0  0  0  0  0
    6.9586   -2.4668    1.7965 H   0  0  0  0  0  0  0  0  0  0  0  0
    9.0844   -4.5384    1.0268 H   0  0  0  0  0  0  0  0  0  0  0  0
    9.0828   -2.7484    1.1102 H   0  0  0  0  0  0  0  0  0  0  0  0
   11.2410   -2.4276   -3.0368 H   0  0  0  0  0  0  0  0  0  0  0  0
    9.7212   -3.0455   -3.7439 H   0  0  0  0  0  0  0  0  0  0  0  0
   10.9213   -5.5379   -4.2537 H   0  0  0  0  0  0  0  0  0  0  0  0
   11.5796   -6.2863   -2.7663 H   0  0  0  0  0  0  0  0  0  0  0  0
   12.4652   -4.9484   -3.5632 H   0  0  0  0  0  0  0  0  0  0  0  0
  1  2  1  0
  1 21  1  0
  1 22  1  0
  1 23  1  0
  2  3  1  0
  2  4  1  0
  2 24  1  1
  3 25  1  0
  3 26  1  0
  3 27  1  0
  4  5  1  0
  4 28  1  0
  4 29  1  0
  5  6  1  0
  5  7  1  1
  5  8  1  0
  6 30  1  0
  6 31  1  0
  6 32  1  0
  7 33  1  0
  8  9  1  0
  8 34  1  0
  8 35  1  0
  9 10  1  0
  9 36  1  0
 10 11  2  0
 10 12  1  0
 12 13  1  0
 12 37  1  0
 12 38  1  0
 13 14  1  0
 13 19  1  0
 14 15  2  0
 14 16  1  0
 16 17  1  0
 16 39  1  0
 16 40  1  0
 17 18  1  0
 17 19  1  0
 18 41  1  0
 18 42  1  0
 18 43  1  0
 19 20  2  0
M  END

