
     RDKit          3D

 35 37  0  0  0  0  0  0  0  0999 V2000
    0.9777    0.0840    0.2222 C   0  0  0  0  0  0  0  0  0  0  0  0
    2.4847   -0.0853   -0.0175 C   0  0  1  0  0  0  0  0  0  0  0  0
    2.7770   -0.1846   -1.5269 C   0  0  0  0  0  0  0  0  0  0  0  0
    3.2912    1.0611    0.6440 C   0  0  0  0  0  0  0  0  0  0  0  0
    4.6219    0.4252    1.0570 C   0  0  0  0  0  0  0  0  0  0  0  0
    4.2014   -0.9741    1.5190 C   0  0  0  0  0  0  0  0  0  0  0  0
    3.0289   -1.2700    0.7051 N   0  0  0  0  0  0  0  0  0  0  0  0
    2.5530   -2.5405    0.5472 C   0  0  0  0  0  0  0  0  0  0  0  0
    1.6233   -2.9309   -0.2954 N   0  0  0  0  0  0  0  0  0  0  0  0
    1.4808   -4.2947   -0.0808 C   0  0  0  0  0  0  0  0  0  0  0  0
    0.6397   -5.2347   -0.6866 C   0  0  0  0  0  0  0  0  0  0  0  0
    0.7052   -6.5666   -0.2739 C   0  0  0  0  0  0  0  0  0  0  0  0
    1.5964   -6.9963    0.7391 C   0  0  0  0  0  0  0  0  0  0  0  0
    1.6679   -8.3525    1.0822 N   0  0  0  0  0  0  0  0  0  0  0  0
    2.4492   -6.0606    1.3555 C   0  0  0  0  0  0  0  0  0  0  0  0
    2.3705   -4.7350    0.9306 C   0  0  0  0  0  0  0  0  0  0  0  0
    3.0506   -3.5883    1.3178 N   0  0  0  0  0  0  0  0  0  0  0  0
    3.7371   -3.5218    2.0558 H   0  0  0  0  0  0  0  0  0  0  0  0
    0.6321    1.0288   -0.2277 H   0  0  0  0  0  0  0  0  0  0  0  0
    0.7568    0.1158    1.3010 H   0  0  0  0  0  0  0  0  0  0  0  0
    0.4181   -0.7489   -0.2233 H   0  0  0  0  0  0  0  0  0  0  0  0
    2.3726    0.6948   -2.0534 H   0  0  0  0  0  0  0  0  0  0  0  0
    2.3095   -1.0889   -1.9401 H   0  0  0  0  0  0  0  0  0  0  0  0
    3.8601   -0.2336   -1.7228 H   0  0  0  0  0  0  0  0  0  0  0  0
    2.7549    1.4185    1.5392 H   0  0  0  0  0  0  0  0  0  0  0  0
    3.4098    1.9190   -0.0344 H   0  0  0  0  0  0  0  0  0  0  0  0
    5.1491    0.9864    1.8428 H   0  0  0  0  0  0  0  0  0  0  0  0
    5.3001    0.3474    0.1924 H   0  0  0  0  0  0  0  0  0  0  0  0
    3.9600   -0.9775    2.6028 H   0  0  0  0  0  0  0  0  0  0  0  0
    5.0012   -1.7195    1.3591 H   0  0  0  0  0  0  0  0  0  0  0  0
   -0.0568   -4.9251   -1.4689 H   0  0  0  0  0  0  0  0  0  0  0  0
    0.0537   -7.3077   -0.7462 H   0  0  0  0  0  0  0  0  0  0  0  0
    0.8268   -8.8841    0.8836 H   0  0  0  0  0  0  0  0  0  0  0  0
    2.0062   -8.5397    2.0203 H   0  0  0  0  0  0  0  0  0  0  0  0
    3.1490   -6.3751    2.1347 H   0  0  0  0  0  0  0  0  0  0  0  0
  2  1  1  6
  1 19  1  0
  1 20  1  0
  1 21  1  0
  2  3  1  0
  2  4  1  0
  2  7  1  0
  3 22  1  0
  3 23  1  0
  3 24  1  0
  4  5  1  0
  4 25  1  0
  4 26  1  0
  5  6  1  0
  5 27  1  0
  5 28  1  0
  6  7  1  0
  6 29  1  0
  6 30  1  0
  7  8  1  0
  8  9  2  0
  8 17  1  0
  9 10  1  0
 10 11  2  0
 10 16  1  0
 11 12  1  0
 11 31  1  0
 12 13  2  0
 12 32  1  0
 13 14  1  0
 13 15  1  0
 14 33  1  0
 14 34  1  0
 15 16  2  0
 15 35  1  0
 16 17  1  0
 17 18  1  0
M  END

