
     RDKit          3D

 24 25  0  0  0  0  0  0  0  0999 V2000
    5.6864   -0.9716   -0.3821 C   0  0  0  0  0  0  0  0  0  0  0  0
    4.3963   -0.3334    0.0376 C   0  0  0  0  0  0  0  0  0  0  0  0
    4.1873    0.9871    0.3208 C   0  0  0  0  0  0  0  0  0  0  0  0
    2.8890    1.2197    0.6444 O   0  0  0  0  0  0  0  0  0  0  0  0
    2.2393    0.0402    0.5614 C   0  0  0  0  0  0  0  0  0  0  0  0
    3.0972   -0.9653    0.1915 C   0  0  0  0  0  0  0  0  0  0  0  0
    2.7670   -2.3994    0.0323 C   0  0  0  0  0  0  0  0  0  0  0  0
    3.5123   -3.3474    0.7556 C   0  0  0  0  0  0  0  0  0  0  0  0
    3.1949   -4.6983    0.6697 C   0  0  0  0  0  0  0  0  0  0  0  0
    3.9159   -5.5756    1.3763 F   0  0  0  0  0  0  0  0  0  0  0  0
    2.1405   -5.1659   -0.1177 C   0  0  0  0  0  0  0  0  0  0  0  0
    1.4084   -4.2358   -0.8436 C   0  0  0  0  0  0  0  0  0  0  0  0
    1.7106   -2.8612   -0.7958 C   0  0  0  0  0  0  0  0  0  0  0  0
    0.9282   -1.9630   -1.6872 C   0  0  0  0  0  0  0  0  0  0  0  0
   -0.0363   -2.3241   -2.3271 O   0  0  0  0  0  0  0  0  0  0  0  0
    6.4505   -0.2087   -0.5925 H   0  0  0  0  0  0  0  0  0  0  0  0
    5.5564   -1.5806   -1.2912 H   0  0  0  0  0  0  0  0  0  0  0  0
    6.0924   -1.6394    0.3955 H   0  0  0  0  0  0  0  0  0  0  0  0
    4.8459    1.8523    0.3226 H   0  0  0  0  0  0  0  0  0  0  0  0
    1.1821    0.0485    0.8159 H   0  0  0  0  0  0  0  0  0  0  0  0
    4.3228   -3.0395    1.4175 H   0  0  0  0  0  0  0  0  0  0  0  0
    1.9212   -6.2347   -0.1492 H   0  0  0  0  0  0  0  0  0  0  0  0
    0.5827   -4.5473   -1.4872 H   0  0  0  0  0  0  0  0  0  0  0  0
    1.2997   -0.9145   -1.7611 H   0  0  0  0  0  0  0  0  0  0  0  0
  1  2  1  0
  1 16  1  0
  1 17  1  0
  1 18  1  0
  2  3  2  0
  2  6  1  0
  3  4  1  0
  3 19  1  0
  4  5  1  0
  5  6  2  0
  5 20  1  0
  6  7  1  0
  7  8  2  0
  7 13  1  0
  8  9  1  0
  8 21  1  0
  9 10  1  0
  9 11  2  0
 11 12  1  0
 11 22  1  0
 12 13  2  0
 12 23  1  0
 13 14  1  0
 14 15  2  0
 14 24  1  0
M  END

