
     RDKit          3D

 35 37  0  0  0  0  0  0  0  0999 V2000
    1.1920   -0.0570    0.4899 C   0  0  0  0  0  0  0  0  0  0  0  0
    2.5349   -0.1914   -0.0498 N   0  0  0  0  0  0  0  0  0  0  0  0
    3.2623    0.9332   -0.2217 N   0  0  0  0  0  0  0  0  0  0  0  0
    4.4317    0.5305   -0.6818 C   0  0  0  0  0  0  0  0  0  0  0  0
    4.4874   -0.8847   -0.8114 C   0  0  0  0  0  0  0  0  0  0  0  0
    5.6009   -1.6859   -1.3210 C   0  0  0  0  0  0  0  0  0  0  0  0
    5.6122   -2.8993   -1.3976 O   0  0  0  0  0  0  0  0  0  0  0  0
    6.8355   -0.9197   -1.7806 C   0  0  0  0  0  0  0  0  0  0  0  0
    7.0234   -0.4820   -3.1014 C   0  0  0  0  0  0  0  0  0  0  0  0
    5.7361   -0.6916   -4.2579 Cl  0  0  0  0  0  0  0  0  0  0  0  0
    8.1313    0.0976   -3.5289 N   0  0  0  0  0  0  0  0  0  0  0  0
    9.1031    0.2599   -2.6325 C   0  0  0  0  0  0  0  0  0  0  0  0
    9.0522   -0.0995   -1.3506 N   0  0  0  0  0  0  0  0  0  0  0  0
    7.9363   -0.6774   -0.9435 C   0  0  0  0  0  0  0  0  0  0  0  0
    7.8456   -1.1394    0.7365 Cl  0  0  0  0  0  0  0  0  0  0  0  0
    3.2136   -1.3219   -0.3912 C   0  0  0  0  0  0  0  0  0  0  0  0
    2.6253   -2.6744   -0.3111 C   0  0  0  0  0  0  0  0  0  0  0  0
    3.2996   -3.7071    0.3640 C   0  0  0  0  0  0  0  0  0  0  0  0
    2.7399   -4.9796    0.4514 C   0  0  0  0  0  0  0  0  0  0  0  0
    1.5003   -5.2453   -0.1428 C   0  0  0  0  0  0  0  0  0  0  0  0
    0.8704   -6.6096    0.0004 C   0  0  1  0  0  0  0  0  0  0  0  0
    1.7944   -7.5806    0.0850 F   0  0  0  0  0  0  0  0  0  0  0  0
    0.1162   -6.6865    1.1148 F   0  0  0  0  0  0  0  0  0  0  0  0
    0.0665   -6.9003   -1.0369 F   0  0  0  0  0  0  0  0  0  0  0  0
    0.8271   -4.2321   -0.8328 C   0  0  0  0  0  0  0  0  0  0  0  0
    1.3863   -2.9571   -0.9143 C   0  0  0  0  0  0  0  0  0  0  0  0
    1.2015    0.7696    1.2114 H   0  0  0  0  0  0  0  0  0  0  0  0
    0.8938   -0.9862    0.9901 H   0  0  0  0  0  0  0  0  0  0  0  0
    0.4676    0.1766   -0.3060 H   0  0  0  0  0  0  0  0  0  0  0  0
    5.2102    1.2588   -0.9074 H   0  0  0  0  0  0  0  0  0  0  0  0
   10.0273    0.7345   -2.9802 H   0  0  0  0  0  0  0  0  0  0  0  0
    4.2715   -3.5109    0.8165 H   0  0  0  0  0  0  0  0  0  0  0  0
    3.2735   -5.7745    0.9752 H   0  0  0  0  0  0  0  0  0  0  0  0
   -0.1274   -4.4437   -1.3178 H   0  0  0  0  0  0  0  0  0  0  0  0
    0.8647   -2.1804   -1.4772 H   0  0  0  0  0  0  0  0  0  0  0  0
  1  2  1  0
  1 27  1  0
  1 28  1  0
  1 29  1  0
  2  3  1  0
  2 16  1  0
  3  4  2  0
  4  5  1  0
  4 30  1  0
  5  6  1  0
  5 16  2  0
  6  7  2  0
  6  8  1  0
  8  9  2  0
  8 14  1  0
  9 10  1  0
  9 11  1  0
 11 12  2  0
 12 13  1  0
 12 31  1  0
 13 14  2  0
 14 15  1  0
 16 17  1  0
 17 18  2  0
 17 26  1  0
 18 19  1  0
 18 32  1  0
 19 20  2  0
 19 33  1  0
 20 21  1  0
 20 25  1  0
 21 22  1  1
 21 23  1  0
 21 24  1  0
 25 26  2  0
 25 34  1  0
 26 35  1  0
M  END

