
     RDKit          3D

 78 77  0  0  0  0  0  0  0  0999 V2000
    1.1261    0.6403    1.0221 C   0  0  0  0  0  0  0  0  0  0  0  0
    2.6545    0.6667    0.9788 C   0  0  0  0  0  0  0  0  0  0  0  0
    3.2218    1.3476   -0.2708 C   0  0  0  0  0  0  0  0  0  0  0  0
    4.7519    1.3784   -0.3220 C   0  0  0  0  0  0  0  0  0  0  0  0
    5.3183    2.0593   -1.5714 C   0  0  0  0  0  0  0  0  0  0  0  0
    6.8487    2.0900   -1.6220 C   0  0  0  0  0  0  0  0  0  0  0  0
    7.4136    2.7705   -2.8720 C   0  0  0  0  0  0  0  0  0  0  0  0
    8.9509    2.7947   -2.9199 C   0  0  0  0  0  0  0  0  0  0  0  0
    9.5028    3.5052   -4.1244 C   0  0  0  0  0  0  0  0  0  0  0  0
   10.2655    2.9517   -5.0756 C   0  0  0  0  0  0  0  0  0  0  0  0
   10.8177    3.6621   -6.2800 C   0  0  0  0  0  0  0  0  0  0  0  0
   12.3550    3.6862   -6.3277 C   0  0  0  0  0  0  0  0  0  0  0  0
   12.9203    4.3656   -7.5781 C   0  0  0  0  0  0  0  0  0  0  0  0
   14.4507    4.3962   -7.6283 C   0  0  0  0  0  0  0  0  0  0  0  0
   15.0177    5.0750   -8.8787 C   0  0  0  0  0  0  0  0  0  0  0  0
   16.5481    5.1055   -8.9287 C   0  0  0  0  0  0  0  0  0  0  0  0
   17.1157    5.7827  -10.1796 C   0  0  0  0  0  0  0  0  0  0  0  0
   18.6461    5.8129  -10.2295 C   0  0  0  0  0  0  0  0  0  0  0  0
   19.2142    6.4885  -11.4811 C   0  0  0  0  0  0  0  0  0  0  0  0
   20.7446    6.5182  -11.5307 C   0  0  0  0  0  0  0  0  0  0  0  0
   21.3130    7.1925  -12.7828 C   0  0  0  0  0  0  0  0  0  0  0  0
   22.8435    7.2217  -12.8324 C   0  0  0  0  0  0  0  0  0  0  0  0
   23.4121    7.8952  -14.0848 C   0  0  0  0  0  0  0  0  0  0  0  0
   24.9424    7.9242  -14.1348 C   0  0  0  0  0  0  0  0  0  0  0  0
   25.5116    8.5973  -15.3877 C   0  0  0  0  0  0  0  0  0  0  0  0
   27.0402    8.6219  -15.4296 C   0  0  0  0  0  0  0  0  0  0  0  0
    0.7541    0.1440    1.9329 H   0  0  0  0  0  0  0  0  0  0  0  0
    0.7095    0.0997    0.1554 H   0  0  0  0  0  0  0  0  0  0  0  0
    0.7065    1.6603    1.0046 H   0  0  0  0  0  0  0  0  0  0  0  0
    3.0432   -0.3665    1.0365 H   0  0  0  0  0  0  0  0  0  0  0  0
    3.0403    1.1808    1.8782 H   0  0  0  0  0  0  0  0  0  0  0  0
    2.8336    2.3819   -0.3294 H   0  0  0  0  0  0  0  0  0  0  0  0
    2.8365    0.8338   -1.1716 H   0  0  0  0  0  0  0  0  0  0  0  0
    5.1395    0.3440   -0.2633 H   0  0  0  0  0  0  0  0  0  0  0  0
    5.1366    1.8918    0.5791 H   0  0  0  0  0  0  0  0  0  0  0  0
    4.9309    3.0936   -1.6303 H   0  0  0  0  0  0  0  0  0  0  0  0
    4.9342    1.5459   -2.4725 H   0  0  0  0  0  0  0  0  0  0  0  0
    7.2363    1.0558   -1.5631 H   0  0  0  0  0  0  0  0  0  0  0  0
    7.2337    2.6040   -0.7214 H   0  0  0  0  0  0  0  0  0  0  0  0
    7.0309    3.8065   -2.9294 H   0  0  0  0  0  0  0  0  0  0  0  0
    7.0342    2.2607   -3.7759 H   0  0  0  0  0  0  0  0  0  0  0  0
    9.3387    1.7615   -2.8874 H   0  0  0  0  0  0  0  0  0  0  0  0
    9.3202    3.2918   -2.0021 H   0  0  0  0  0  0  0  0  0  0  0  0
    9.2316    4.5664   -4.2221 H   0  0  0  0  0  0  0  0  0  0  0  0
   10.5368    1.8904   -4.9778 H   0  0  0  0  0  0  0  0  0  0  0  0
   10.4299    4.6953   -6.3128 H   0  0  0  0  0  0  0  0  0  0  0  0
   10.4486    3.1648   -7.1979 H   0  0  0  0  0  0  0  0  0  0  0  0
   12.7376    2.6503   -6.2694 H   0  0  0  0  0  0  0  0  0  0  0  0
   12.7343    4.1967   -5.4242 H   0  0  0  0  0  0  0  0  0  0  0  0
   12.5327    5.3997   -7.6382 H   0  0  0  0  0  0  0  0  0  0  0  0
   12.5356    3.8507   -8.4784 H   0  0  0  0  0  0  0  0  0  0  0  0
   14.8382    3.3621   -7.5676 H   0  0  0  0  0  0  0  0  0  0  0  0
   14.8345    4.9111   -6.7279 H   0  0  0  0  0  0  0  0  0  0  0  0
   14.6302    6.1092   -8.9396 H   0  0  0  0  0  0  0  0  0  0  0  0
   14.6336    4.5600   -9.7791 H   0  0  0  0  0  0  0  0  0  0  0  0
   16.9355    4.0714   -8.8666 H   0  0  0  0  0  0  0  0  0  0  0  0
   16.9320    5.6214   -8.0288 H   0  0  0  0  0  0  0  0  0  0  0  0
   16.7284    6.8169  -10.2419 H   0  0  0  0  0  0  0  0  0  0  0  0
   16.7318    5.2667  -11.0795 H   0  0  0  0  0  0  0  0  0  0  0  0
   19.0333    4.7787  -10.1661 H   0  0  0  0  0  0  0  0  0  0  0  0
   19.0301    6.3297   -9.3301 H   0  0  0  0  0  0  0  0  0  0  0  0
   18.8272    7.5227  -11.5446 H   0  0  0  0  0  0  0  0  0  0  0  0
   18.8302    5.9716  -12.3804 H   0  0  0  0  0  0  0  0  0  0  0  0
   21.1315    5.4839  -11.4664 H   0  0  0  0  0  0  0  0  0  0  0  0
   21.1286    7.0357  -10.6318 H   0  0  0  0  0  0  0  0  0  0  0  0
   20.9263    8.2268  -12.8473 H   0  0  0  0  0  0  0  0  0  0  0  0
   20.9290    6.6749  -13.6818 H   0  0  0  0  0  0  0  0  0  0  0  0
   23.2300    6.1874  -12.7673 H   0  0  0  0  0  0  0  0  0  0  0  0
   23.2274    7.7397  -11.9337 H   0  0  0  0  0  0  0  0  0  0  0  0
   23.0256    8.9295  -14.1498 H   0  0  0  0  0  0  0  0  0  0  0  0
   23.0279    7.3771  -14.9834 H   0  0  0  0  0  0  0  0  0  0  0  0
   25.3295    6.8899  -14.0697 H   0  0  0  0  0  0  0  0  0  0  0  0
   25.3273    8.4428  -13.2365 H   0  0  0  0  0  0  0  0  0  0  0  0
   25.1241    9.6306  -15.4517 H   0  0  0  0  0  0  0  0  0  0  0  0
   25.1263    8.0784  -16.2845 H   0  0  0  0  0  0  0  0  0  0  0  0
   27.4564    9.1671  -14.5656 H   0  0  0  0  0  0  0  0  0  0  0  0
   27.4136    9.1125  -16.3428 H   0  0  0  0  0  0  0  0  0  0  0  0
   27.4587    7.6016  -15.4057 H   0  0  0  0  0  0  0  0  0  0  0  0
  1  2  1  0
  1 27  1  0
  1 28  1  0
  1 29  1  0
  2  3  1  0
  2 30  1  0
  2 31  1  0
  3  4  1  0
  3 32  1  0
  3 33  1  0
  4  5  1  0
  4 34  1  0
  4 35  1  0
  5  6  1  0
  5 36  1  0
  5 37  1  0
  6  7  1  0
  6 38  1  0
  6 39  1  0
  7  8  1  0
  7 40  1  0
  7 41  1  0
  8  9  1  0
  8 42  1  0
  8 43  1  0
  9 10  2  0
  9 44  1  0
 10 11  1  0
 10 45  1  0
 11 12  1  0
 11 46  1  0
 11 47  1  0
 12 13  1  0
 12 48  1  0
 12 49  1  0
 13 14  1  0
 13 50  1  0
 13 51  1  0
 14 15  1  0
 14 52  1  0
 14 53  1  0
 15 16  1  0
 15 54  1  0
 15 55  1  0
 16 17  1  0
 16 56  1  0
 16 57  1  0
 17 18  1  0
 17 58  1  0
 17 59  1  0
 18 19  1  0
 18 60  1  0
 18 61  1  0
 19 20  1  0
 19 62  1  0
 19 63  1  0
 20 21  1  0
 20 64  1  0
 20 65  1  0
 21 22  1  0
 21 66  1  0
 21 67  1  0
 22 23  1  0
 22 68  1  0
 22 69  1  0
 23 24  1  0
 23 70  1  0
 23 71  1  0
 24 25  1  0
 24 72  1  0
 24 73  1  0
 25 26  1  0
 25 74  1  0
 25 75  1  0
 26 76  1  0
 26 77  1  0
 26 78  1  0
M  END

