
     RDKit          3D

 70 73  0  0  0  0  0  0  0  0999 V2000
    4.1839   -5.7392    1.4099 C   0  0  0  0  0  0  0  0  0  0  0  0
    3.9636   -5.1782    0.0043 C   0  0  0  0  0  0  0  0  0  0  0  0
    4.8453   -3.9670   -0.3152 C   0  0  0  0  0  0  0  0  0  0  0  0
    4.6328   -3.4077   -1.7240 C   0  0  0  0  0  0  0  0  0  0  0  0
    5.4678   -2.1600   -2.0476 C   0  0  0  0  0  0  0  0  0  0  0  0
    6.9032   -2.3536   -1.9647 N   0  0  0  0  0  0  0  0  0  0  0  0
    7.6644   -1.7841   -0.9549 C   0  0  0  0  0  0  0  0  0  0  0  0
    7.2617   -1.0890   -0.0402 O   0  0  0  0  0  0  0  0  0  0  0  0
    9.0355   -2.2355   -1.2713 C   0  0  0  0  0  0  0  0  0  0  0  0
   10.2887   -2.1573   -0.7772 N   0  0  0  0  0  0  0  0  0  0  0  0
   10.6135   -1.6628    0.0451 H   0  0  0  0  0  0  0  0  0  0  0  0
   11.1537   -2.8534   -1.5287 N   0  0  0  0  0  0  0  0  0  0  0  0
   10.4455   -3.3994   -2.5347 C   0  0  0  0  0  0  0  0  0  0  0  0
   11.1141   -4.2532   -3.5316 C   0  0  0  0  0  0  0  0  0  0  0  0
   10.4274   -4.7619   -4.6510 C   0  0  0  0  0  0  0  0  0  0  0  0
   11.0673   -5.5734   -5.5812 C   0  0  0  0  0  0  0  0  0  0  0  0
   12.4234   -5.9046   -5.4230 C   0  0  0  0  0  0  0  0  0  0  0  0
   12.9632   -6.7030   -6.3796 O   0  0  0  0  0  0  0  0  0  0  0  0
   14.3201   -7.0704   -6.2864 C   0  0  0  0  0  0  0  0  0  0  0  0
   13.1242   -5.4030   -4.3140 C   0  0  0  0  0  0  0  0  0  0  0  0
   12.4699   -4.5898   -3.3871 C   0  0  0  0  0  0  0  0  0  0  0  0
    9.0767   -3.0166   -2.4010 C   0  0  0  0  0  0  0  0  0  0  0  0
    7.6745   -3.1504   -2.9528 C   0  0  2  0  0  0  0  0  0  0  0  0
    7.4580   -2.6695   -4.3830 C   0  0  0  0  0  0  0  0  0  0  0  0
    7.9261   -1.4276   -4.8072 C   0  0  0  0  0  0  0  0  0  0  0  0
    7.6959   -0.9888   -6.1179 C   0  0  0  0  0  0  0  0  0  0  0  0
    6.9958   -1.7854   -7.0287 C   0  0  0  0  0  0  0  0  0  0  0  0
    6.7293   -1.4516   -8.3115 O   0  0  0  0  0  0  0  0  0  0  0  0
    7.1790   -0.2080   -8.8216 C   0  0  0  0  0  0  0  0  0  0  0  0
    6.7440   -0.1052  -10.2752 C   0  0  0  0  0  0  0  0  0  0  0  0
    7.1773    1.2051  -10.9384 C   0  0  0  0  0  0  0  0  0  0  0  0
    6.7408    1.3130  -12.4002 C   0  0  0  0  0  0  0  0  0  0  0  0
    6.5126   -3.0546   -6.6052 C   0  0  0  0  0  0  0  0  0  0  0  0
    5.8424   -3.7704   -7.5399 O   0  0  0  0  0  0  0  0  0  0  0  0
    5.3384   -5.0401   -7.2007 C   0  0  0  0  0  0  0  0  0  0  0  0
    6.7474   -3.4747   -5.2934 C   0  0  0  0  0  0  0  0  0  0  0  0
    3.5349   -6.6076    1.6066 H   0  0  0  0  0  0  0  0  0  0  0  0
    3.9691   -4.9810    2.1813 H   0  0  0  0  0  0  0  0  0  0  0  0
    5.2282   -6.0645    1.5523 H   0  0  0  0  0  0  0  0  0  0  0  0
    2.9013   -4.8977   -0.1183 H   0  0  0  0  0  0  0  0  0  0  0  0
    4.1502   -5.9718   -0.7429 H   0  0  0  0  0  0  0  0  0  0  0  0
    5.9065   -4.2474   -0.1883 H   0  0  0  0  0  0  0  0  0  0  0  0
    4.6611   -3.1680    0.4255 H   0  0  0  0  0  0  0  0  0  0  0  0
    3.5702   -3.1367   -1.8599 H   0  0  0  0  0  0  0  0  0  0  0  0
    4.8340   -4.1967   -2.4722 H   0  0  0  0  0  0  0  0  0  0  0  0
    5.2325   -1.3567   -1.3329 H   0  0  0  0  0  0  0  0  0  0  0  0
    5.2121   -1.7949   -3.0572 H   0  0  0  0  0  0  0  0  0  0  0  0
    9.3784   -4.5080   -4.8098 H   0  0  0  0  0  0  0  0  0  0  0  0
   10.5357   -5.9635   -6.4514 H   0  0  0  0  0  0  0  0  0  0  0  0
   14.5339   -7.7055   -7.1568 H   0  0  0  0  0  0  0  0  0  0  0  0
   14.5302   -7.6447   -5.3657 H   0  0  0  0  0  0  0  0  0  0  0  0
   14.9890   -6.1909   -6.3141 H   0  0  0  0  0  0  0  0  0  0  0  0
   14.1773   -5.6401   -4.1610 H   0  0  0  0  0  0  0  0  0  0  0  0
   13.0163   -4.2028   -2.5255 H   0  0  0  0  0  0  0  0  0  0  0  0
    7.3461   -4.2050   -2.8972 H   0  0  0  0  0  0  0  0  0  0  0  0
    8.4824   -0.7879   -4.1184 H   0  0  0  0  0  0  0  0  0  0  0  0
    8.0763   -0.0150   -6.4257 H   0  0  0  0  0  0  0  0  0  0  0  0
    8.2812   -0.1388   -8.7396 H   0  0  0  0  0  0  0  0  0  0  0  0
    6.7525    0.6240   -8.2281 H   0  0  0  0  0  0  0  0  0  0  0  0
    5.6461   -0.2101  -10.3201 H   0  0  0  0  0  0  0  0  0  0  0  0
    7.1594   -0.9668  -10.8261 H   0  0  0  0  0  0  0  0  0  0  0  0
    8.2766    1.3026  -10.8753 H   0  0  0  0  0  0  0  0  0  0  0  0
    6.7667    2.0586  -10.3686 H   0  0  0  0  0  0  0  0  0  0  0  0
    7.1653    0.4951  -13.0058 H   0  0  0  0  0  0  0  0  0  0  0  0
    7.0670    2.2644  -12.8492 H   0  0  0  0  0  0  0  0  0  0  0  0
    5.6436    1.2577  -12.4952 H   0  0  0  0  0  0  0  0  0  0  0  0
    4.8433   -5.4308   -8.0999 H   0  0  0  0  0  0  0  0  0  0  0  0
    4.5982   -4.9860   -6.3812 H   0  0  0  0  0  0  0  0  0  0  0  0
    6.1426   -5.7385   -6.9043 H   0  0  0  0  0  0  0  0  0  0  0  0
    6.3773   -4.4461   -4.9623 H   0  0  0  0  0  0  0  0  0  0  0  0
  1  2  1  0
  1 37  1  0
  1 38  1  0
  1 39  1  0
  2  3  1  0
  2 40  1  0
  2 41  1  0
  3  4  1  0
  3 42  1  0
  3 43  1  0
  4  5  1  0
  4 44  1  0
  4 45  1  0
  5  6  1  0
  5 46  1  0
  5 47  1  0
  6  7  1  0
  6 23  1  0
  7  8  2  0
  7  9  1  0
  9 10  1  0
  9 22  2  0
 10 11  1  0
 10 12  1  0
 12 13  2  0
 13 14  1  0
 13 22  1  0
 14 15  2  0
 14 21  1  0
 15 16  1  0
 15 48  1  0
 16 17  2  0
 16 49  1  0
 17 18  1  0
 17 20  1  0
 18 19  1  0
 19 50  1  0
 19 51  1  0
 19 52  1  0
 20 21  2  0
 20 53  1  0
 21 54  1  0
 22 23  1  0
 23 24  1  0
 23 55  1  6
 24 25  2  0
 24 36  1  0
 25 26  1  0
 25 56  1  0
 26 27  2  0
 26 57  1  0
 27 28  1  0
 27 33  1  0
 28 29  1  0
 29 30  1  0
 29 58  1  0
 29 59  1  0
 30 31  1  0
 30 60  1  0
 30 61  1  0
 31 32  1  0
 31 62  1  0
 31 63  1  0
 32 64  1  0
 32 65  1  0
 32 66  1  0
 33 34  1  0
 33 36  2  0
 34 35  1  0
 35 67  1  0
 35 68  1  0
 35 69  1  0
 36 70  1  0
M  END

