
     RDKit          3D

 80 83  0  0  0  0  0  0  0  0999 V2000
   -1.8974   -1.7270   -2.5644 C   0  0  0  0  0  0  0  0  0  0  0  0
   -0.7886   -0.7807   -3.0192 C   0  0  0  0  0  0  0  0  0  0  0  0
    0.3652   -1.4854   -3.7634 C   0  0  1  0  0  0  0  0  0  0  0  0
   -0.1337   -2.0236   -4.9989 N   0  0  0  0  0  0  0  0  0  0  0  0
   -0.0536   -3.2666   -5.3061 C   0  0  0  0  0  0  0  0  0  0  0  0
    0.6535   -4.2654   -4.6442 N   0  0  0  0  0  0  0  0  0  0  0  0
   -0.7178   -3.7338   -6.4318 N   0  0  0  0  0  0  0  0  0  0  0  0
    1.4547   -0.5129   -4.0089 N   0  0  0  0  0  0  0  0  0  0  0  0
    2.3613   -0.3007   -2.8923 C   0  0  0  0  0  0  0  0  0  0  0  0
    3.5233   -1.3088   -2.8548 C   0  0  0  0  0  0  0  0  0  0  0  0
    4.2289   -1.3299   -4.1400 N   0  0  0  0  0  0  0  0  0  0  0  0
    5.5610   -1.0695   -4.1682 C   0  0  0  0  0  0  0  0  0  0  0  0
    6.1949   -0.7651   -3.1507 O   0  0  0  0  0  0  0  0  0  0  0  0
    6.3194   -1.1562   -5.4979 C   0  0  0  0  0  0  0  0  0  0  0  0
    6.7281    0.2155   -6.0050 C   0  0  0  0  0  0  0  0  0  0  0  0
    6.6027    0.7133   -7.2754 C   0  0  0  0  0  0  0  0  0  0  0  0
    6.0877   -0.0055   -8.4476 C   0  0  0  0  0  0  0  0  0  0  0  0
    6.1650    0.4200   -9.5823 O   0  0  0  0  0  0  0  0  0  0  0  0
    5.4782   -1.2090   -8.2278 O   0  0  0  0  0  0  0  0  0  0  0  0
    7.0936    2.1307   -7.6045 C   0  0  1  0  0  0  0  0  0  0  0  0
    5.9427    3.0516   -8.0759 C   0  0  0  0  0  0  0  0  0  0  0  0
    4.8493    3.4086   -7.2595 C   0  0  0  0  0  0  0  0  0  0  0  0
    4.7212    2.8380   -5.6018 Cl  0  0  0  0  0  0  0  0  0  0  0  0
    3.8047    4.2301   -7.6941 C   0  0  0  0  0  0  0  0  0  0  0  0
    3.8223    4.7376   -8.9900 C   0  0  0  0  0  0  0  0  0  0  0  0
    4.8836    4.4264   -9.8370 C   0  0  0  0  0  0  0  0  0  0  0  0
    5.9129    3.6027   -9.3777 C   0  0  0  0  0  0  0  0  0  0  0  0
    7.2115    3.3028  -10.5312 Cl  0  0  0  0  0  0  0  0  0  0  0  0
    7.9232    2.7541   -6.4751 C   0  0  0  0  0  0  0  0  0  0  0  0
    8.6597    4.0246   -6.7265 C   0  0  0  0  0  0  0  0  0  0  0  0
    9.0616    4.7715   -5.8605 O   0  0  0  0  0  0  0  0  0  0  0  0
    8.8993    4.3577   -8.0146 O   0  0  0  0  0  0  0  0  0  0  0  0
    7.9725    2.1711   -5.2386 C   0  0  0  0  0  0  0  0  0  0  0  0
    8.6625    2.7359   -4.0131 C   0  0  0  0  0  0  0  0  0  0  0  0
    9.0454    1.7404   -2.9001 C   0  0  0  0  0  0  0  0  0  0  0  0
   10.0807    0.6959   -3.2791 C   0  0  0  0  0  0  0  0  0  0  0  0
   11.3410    1.0768   -3.7702 C   0  0  0  0  0  0  0  0  0  0  0  0
   12.3028    0.1193   -4.1011 C   0  0  0  0  0  0  0  0  0  0  0  0
   12.0229   -1.2425   -3.9468 C   0  0  0  0  0  0  0  0  0  0  0  0
   10.7742   -1.6354   -3.4586 C   0  0  0  0  0  0  0  0  0  0  0  0
    9.8119   -0.6745   -3.1290 C   0  0  0  0  0  0  0  0  0  0  0  0
    7.3344    0.9660   -5.0346 N   0  0  0  0  0  0  0  0  0  0  0  0
    3.3479   -1.5535   -5.2916 C   0  0  0  0  0  0  0  0  0  0  0  0
    2.1807   -0.5459   -5.2658 C   0  0  0  0  0  0  0  0  0  0  0  0
   -2.6906   -1.1827   -2.0280 H   0  0  0  0  0  0  0  0  0  0  0  0
   -1.5138   -2.5050   -1.8809 H   0  0  0  0  0  0  0  0  0  0  0  0
   -2.3618   -2.2344   -3.4245 H   0  0  0  0  0  0  0  0  0  0  0  0
   -0.3751   -0.2427   -2.1495 H   0  0  0  0  0  0  0  0  0  0  0  0
   -1.1854   -0.0161   -3.7059 H   0  0  0  0  0  0  0  0  0  0  0  0
    0.7414   -2.2866   -3.0730 H   0  0  0  0  0  0  0  0  0  0  0  0
    0.9841   -4.0242   -3.7169 H   0  0  0  0  0  0  0  0  0  0  0  0
    0.2387   -5.1915   -4.6837 H   0  0  0  0  0  0  0  0  0  0  0  0
   -1.1104   -2.9810   -6.9881 H   0  0  0  0  0  0  0  0  0  0  0  0
   -0.2254   -4.4325   -6.9807 H   0  0  0  0  0  0  0  0  0  0  0  0
    1.8096   -0.3474   -1.9409 H   0  0  0  0  0  0  0  0  0  0  0  0
    2.7869    0.7170   -2.9631 H   0  0  0  0  0  0  0  0  0  0  0  0
    3.1384   -2.3259   -2.6534 H   0  0  0  0  0  0  0  0  0  0  0  0
    4.2510   -1.0564   -2.0743 H   0  0  0  0  0  0  0  0  0  0  0  0
    7.2471   -1.6988   -5.2496 H   0  0  0  0  0  0  0  0  0  0  0  0
    5.8030   -1.7186   -6.2709 H   0  0  0  0  0  0  0  0  0  0  0  0
    5.2196   -1.5195   -9.1124 H   0  0  0  0  0  0  0  0  0  0  0  0
    7.7313    2.0138   -8.4934 H   0  0  0  0  0  0  0  0  0  0  0  0
    2.9913    4.4634   -7.0061 H   0  0  0  0  0  0  0  0  0  0  0  0
    3.0120    5.3815   -9.3391 H   0  0  0  0  0  0  0  0  0  0  0  0
    4.9272    4.8172  -10.8541 H   0  0  0  0  0  0  0  0  0  0  0  0
    8.5806    3.7033   -8.6540 H   0  0  0  0  0  0  0  0  0  0  0  0
    7.9934    3.5070   -3.5918 H   0  0  0  0  0  0  0  0  0  0  0  0
    9.5389    3.3061   -4.3398 H   0  0  0  0  0  0  0  0  0  0  0  0
    8.1563    1.2404   -2.4813 H   0  0  0  0  0  0  0  0  0  0  0  0
    9.4430    2.3488   -2.0696 H   0  0  0  0  0  0  0  0  0  0  0  0
   11.5779    2.1376   -3.8916 H   0  0  0  0  0  0  0  0  0  0  0  0
   13.2775    0.4387   -4.4794 H   0  0  0  0  0  0  0  0  0  0  0  0
   12.7758   -1.9920   -4.2044 H   0  0  0  0  0  0  0  0  0  0  0  0
   10.5450   -2.6970   -3.3311 H   0  0  0  0  0  0  0  0  0  0  0  0
    8.8340   -0.9909   -2.7546 H   0  0  0  0  0  0  0  0  0  0  0  0
    7.3213    0.5613   -4.0984 H   0  0  0  0  0  0  0  0  0  0  0  0
    2.9588   -2.5876   -5.2463 H   0  0  0  0  0  0  0  0  0  0  0  0
    3.9047   -1.4413   -6.2285 H   0  0  0  0  0  0  0  0  0  0  0  0
    1.4812   -0.7703   -6.0805 H   0  0  0  0  0  0  0  0  0  0  0  0
    2.6026    0.4597   -5.4457 H   0  0  0  0  0  0  0  0  0  0  0  0
  1  2  1  0
  1 45  1  0
  1 46  1  0
  1 47  1  0
  2  3  1  0
  2 48  1  0
  2 49  1  0
  3  4  1  0
  3  8  1  0
  3 50  1  1
  4  5  2  0
  5  6  1  0
  5  7  1  0
  6 51  1  0
  6 52  1  0
  7 53  1  0
  7 54  1  0
  8  9  1  0
  8 44  1  0
  9 10  1  0
  9 55  1  0
  9 56  1  0
 10 11  1  0
 10 57  1  0
 10 58  1  0
 11 12  1  0
 11 43  1  0
 12 13  2  0
 12 14  1  0
 14 15  1  0
 14 59  1  0
 14 60  1  0
 15 16  2  0
 15 42  1  0
 16 17  1  0
 16 20  1  0
 17 18  2  0
 17 19  1  0
 19 61  1  0
 20 21  1  0
 20 29  1  0
 20 62  1  6
 21 22  2  0
 21 27  1  0
 22 23  1  0
 22 24  1  0
 24 25  2  0
 24 63  1  0
 25 26  1  0
 25 64  1  0
 26 27  2  0
 26 65  1  0
 27 28  1  0
 29 30  1  0
 29 33  2  0
 30 31  2  0
 30 32  1  0
 32 66  1  0
 33 34  1  0
 33 42  1  0
 34 35  1  0
 34 67  1  0
 34 68  1  0
 35 36  1  0
 35 69  1  0
 35 70  1  0
 36 37  2  0
 36 41  1  0
 37 38  1  0
 37 71  1  0
 38 39  2  0
 38 72  1  0
 39 40  1  0
 39 73  1  0
 40 41  2  0
 40 74  1  0
 41 75  1  0
 42 76  1  0
 43 44  1  0
 43 77  1  0
 43 78  1  0
 44 79  1  0
 44 80  1  0
M  END

