
     RDKit          3D

 54 58  0  0  0  0  0  0  0  0999 V2000
    5.0219  -14.3585   -3.3378 C   0  0  0  0  0  0  0  0  0  0  0  0
    4.7172  -13.8348   -2.0656 O   0  0  0  0  0  0  0  0  0  0  0  0
    5.2630  -12.6511   -1.6869 C   0  0  0  0  0  0  0  0  0  0  0  0
    4.9222  -12.1932   -0.4011 C   0  0  0  0  0  0  0  0  0  0  0  0
    5.4340  -10.9920    0.0758 C   0  0  0  0  0  0  0  0  0  0  0  0
    6.2992  -10.1993   -0.7037 C   0  0  0  0  0  0  0  0  0  0  0  0
    6.8613   -8.8834   -0.1928 C   0  0  2  0  0  0  0  0  0  0  0  0
    7.5190   -8.4803   -0.9823 H   0  0  0  0  0  0  0  0  0  0  0  0
    7.7062   -9.0218    1.0786 C   0  0  0  0  0  0  0  0  0  0  0  0
    8.2325   -7.6849    1.5833 C   0  0  0  0  0  0  0  0  0  0  0  0
    9.3398   -7.6155    2.0938 O   0  0  0  0  0  0  0  0  0  0  0  0
    7.3805   -6.4803    1.4453 C   0  0  0  0  0  0  0  0  0  0  0  0
    6.3059   -6.5143    0.5905 C   0  0  0  0  0  0  0  0  0  0  0  0
    5.7675   -7.8333    0.0583 C   0  0  0  0  0  0  0  0  0  0  0  0
    5.5856   -5.4327    0.1139 N   0  0  0  0  0  0  0  0  0  0  0  0
    6.0081   -4.0996   -0.0379 C   0  0  0  0  0  0  0  0  0  0  0  0
    5.6659   -3.4039   -1.2107 C   0  0  0  0  0  0  0  0  0  0  0  0
    6.0843   -2.0873   -1.3989 C   0  0  0  0  0  0  0  0  0  0  0  0
    6.8611   -1.4522   -0.4241 C   0  0  0  0  0  0  0  0  0  0  0  0
    7.1859   -2.1384    0.7475 C   0  0  0  0  0  0  0  0  0  0  0  0
    6.7551   -3.4539    0.9668 C   0  0  0  0  0  0  0  0  0  0  0  0
    7.0079   -4.0749    2.2196 N   0  0  0  0  0  0  0  0  0  0  0  0
    7.8525   -5.2749    2.2715 C   0  0  1  0  0  0  0  0  0  0  0  0
    8.8618   -4.9884    1.9349 H   0  0  0  0  0  0  0  0  0  0  0  0
    7.9903   -5.6512    3.7337 C   0  0  0  0  0  0  0  0  0  0  0  0
    8.9835   -5.3271    4.6170 C   0  0  0  0  0  0  0  0  0  0  0  0
    8.7227   -5.7674    5.9519 C   0  0  0  0  0  0  0  0  0  0  0  0
    7.5260   -6.4250    6.0942 C   0  0  0  0  0  0  0  0  0  0  0  0
    6.9294   -7.0302    7.3291 C   0  0  0  0  0  0  0  0  0  0  0  0
    6.7050   -6.5138    4.5538 S   0  0  0  0  0  0  0  0  0  0  0  0
    6.6267  -10.6703   -1.9797 C   0  0  0  0  0  0  0  0  0  0  0  0
    6.1239  -11.8789   -2.4785 C   0  0  0  0  0  0  0  0  0  0  0  0
    4.4789  -15.3093   -3.4241 H   0  0  0  0  0  0  0  0  0  0  0  0
    6.1035  -14.5533   -3.4552 H   0  0  0  0  0  0  0  0  0  0  0  0
    4.6936  -13.6852   -4.1506 H   0  0  0  0  0  0  0  0  0  0  0  0
    4.2531  -12.8064    0.2061 H   0  0  0  0  0  0  0  0  0  0  0  0
    5.1541  -10.6695    1.0827 H   0  0  0  0  0  0  0  0  0  0  0  0
    8.5667   -9.6900    0.9310 H   0  0  0  0  0  0  0  0  0  0  0  0
    7.0956   -9.4538    1.8933 H   0  0  0  0  0  0  0  0  0  0  0  0
    5.2097   -7.6600   -0.8773 H   0  0  0  0  0  0  0  0  0  0  0  0
    5.0359   -8.2306    0.7856 H   0  0  0  0  0  0  0  0  0  0  0  0
    4.8561   -5.6952   -0.5381 H   0  0  0  0  0  0  0  0  0  0  0  0
    5.0771   -3.9081   -1.9831 H   0  0  0  0  0  0  0  0  0  0  0  0
    5.8117   -1.5610   -2.3170 H   0  0  0  0  0  0  0  0  0  0  0  0
    7.1997   -0.4240   -0.5715 H   0  0  0  0  0  0  0  0  0  0  0  0
    7.7628   -1.6626    1.5433 H   0  0  0  0  0  0  0  0  0  0  0  0
    6.1393   -4.2395    2.7271 H   0  0  0  0  0  0  0  0  0  0  0  0
    9.8858   -4.7926    4.3156 H   0  0  0  0  0  0  0  0  0  0  0  0
    9.4079   -5.6083    6.7875 H   0  0  0  0  0  0  0  0  0  0  0  0
    7.6075   -6.8804    8.1826 H   0  0  0  0  0  0  0  0  0  0  0  0
    6.7624   -8.1153    7.2198 H   0  0  0  0  0  0  0  0  0  0  0  0
    5.9583   -6.5748    7.5877 H   0  0  0  0  0  0  0  0  0  0  0  0
    7.2993  -10.0822   -2.6112 H   0  0  0  0  0  0  0  0  0  0  0  0
    6.4126  -12.2031   -3.4786 H   0  0  0  0  0  0  0  0  0  0  0  0
  1  2  1  0
  1 33  1  0
  1 34  1  0
  1 35  1  0
  2  3  1  0
  3  4  2  0
  3 32  1  0
  4  5  1  0
  4 36  1  0
  5  6  2  0
  5 37  1  0
  6  7  1  0
  6 31  1  0
  7  8  1  6
  7  9  1  0
  7 14  1  0
  9 10  1  0
  9 38  1  0
  9 39  1  0
 10 11  2  0
 10 12  1  0
 12 13  2  0
 12 23  1  0
 13 14  1  0
 13 15  1  0
 14 40  1  0
 14 41  1  0
 15 16  1  0
 15 42  1  0
 16 17  1  0
 16 21  2  0
 17 18  2  0
 17 43  1  0
 18 19  1  0
 18 44  1  0
 19 20  2  0
 19 45  1  0
 20 21  1  0
 20 46  1  0
 21 22  1  0
 22 23  1  0
 22 47  1  0
 23 24  1  6
 23 25  1  0
 25 26  2  0
 25 30  1  0
 26 27  1  0
 26 48  1  0
 27 28  2  0
 27 49  1  0
 28 29  1  0
 28 30  1  0
 29 50  1  0
 29 51  1  0
 29 52  1  0
 31 32  2  0
 31 53  1  0
 32 54  1  0
M  END

