
     RDKit          3D

 27 28  0  0  0  0  0  0  0  0999 V2000
    1.1831   -0.5050   -0.7333 N   0  0  0  0  0  0  0  0  0  0  0  0
    2.3132   -0.3325   -0.5336 C   0  0  0  0  0  0  0  0  0  0  0  0
    3.7053   -0.0742   -0.2927 C   0  0  0  0  0  0  0  0  0  0  0  0
    4.1704    1.2521   -0.3593 C   0  0  0  0  0  0  0  0  0  0  0  0
    5.5245    1.5368   -0.1280 C   0  0  0  0  0  0  0  0  0  0  0  0
    6.0551    2.8345   -0.1796 N   0  0  0  0  0  0  0  0  0  0  0  0
    5.4129    4.0184   -0.4558 C   0  0  0  0  0  0  0  0  0  0  0  0
    4.2256    4.1351   -0.6907 O   0  0  0  0  0  0  0  0  0  0  0  0
    6.3669    5.2179   -0.4880 C   0  0  1  0  0  0  0  0  0  0  0  0
    5.6757    6.5668   -0.2068 C   0  0  0  0  0  0  0  0  0  0  0  0
    7.0412    7.7168    0.2503 S   0  0  0  0  0  0  0  0  0  0  0  0
    8.2662    6.2873    0.3636 C   0  0  0  0  0  0  0  0  0  0  0  0
    7.5019    5.0636    0.4269 N   0  0  0  0  0  0  0  0  0  0  0  0
    6.4022    0.4770    0.1693 C   0  0  0  0  0  0  0  0  0  0  0  0
    5.9455   -0.8355    0.2358 C   0  0  0  0  0  0  0  0  0  0  0  0
    4.5981   -1.1233    0.0069 C   0  0  0  0  0  0  0  0  0  0  0  0
    4.0403   -2.7677    0.0940 Cl  0  0  0  0  0  0  0  0  0  0  0  0
    3.4804    2.0602   -0.5905 H   0  0  0  0  0  0  0  0  0  0  0  0
    7.0509    2.9356    0.0071 H   0  0  0  0  0  0  0  0  0  0  0  0
    6.7822    5.2547   -1.5132 H   0  0  0  0  0  0  0  0  0  0  0  0
    4.9520    6.4781    0.6177 H   0  0  0  0  0  0  0  0  0  0  0  0
    5.1414    6.9399   -1.0907 H   0  0  0  0  0  0  0  0  0  0  0  0
    8.9002    6.4128    1.2516 H   0  0  0  0  0  0  0  0  0  0  0  0
    8.8994    6.3000   -0.5362 H   0  0  0  0  0  0  0  0  0  0  0  0
    7.1370    4.9576    1.3772 H   0  0  0  0  0  0  0  0  0  0  0  0
    7.4607    0.6841    0.3501 H   0  0  0  0  0  0  0  0  0  0  0  0
    6.6347   -1.6491    0.4665 H   0  0  0  0  0  0  0  0  0  0  0  0
  1  2  3  0
  2  3  1  0
  3  4  2  0
  3 16  1  0
  4  5  1  0
  4 18  1  0
  5  6  1  0
  5 14  2  0
  6  7  1  0
  6 19  1  0
  7  8  2  0
  7  9  1  0
  9 10  1  0
  9 13  1  0
  9 20  1  6
 10 11  1  0
 10 21  1  0
 10 22  1  0
 11 12  1  0
 12 13  1  0
 12 23  1  0
 12 24  1  0
 13 25  1  0
 14 15  1  0
 14 26  1  0
 15 16  2  0
 15 27  1  0
 16 17  1  0
M  END

