
     RDKit          3D

 32 34  0  0  0  0  0  0  0  0999 V2000
    1.2129   -0.6221   -0.6086 Cl  0  0  0  0  0  0  0  0  0  0  0  0
    2.8992   -0.2827   -0.2745 C   0  0  0  0  0  0  0  0  0  0  0  0
    3.8028   -1.3433   -0.1470 C   0  0  0  0  0  0  0  0  0  0  0  0
    5.1562   -1.0940    0.1142 C   0  0  0  0  0  0  0  0  0  0  0  0
    5.5612    0.2321    0.2421 C   0  0  0  0  0  0  0  0  0  0  0  0
    4.6606    1.2968    0.1175 C   0  0  0  0  0  0  0  0  0  0  0  0
    3.3164    1.0503   -0.1403 C   0  0  0  0  0  0  0  0  0  0  0  0
    5.4198    2.5804    0.3606 C   0  0  0  0  0  0  0  0  0  0  0  0
    6.8878    2.0866    0.3870 C   0  0  1  0  0  0  0  0  0  0  0  0
    7.7293    2.6255    1.5325 C   0  0  0  0  0  0  0  0  0  0  0  0
    9.0403    2.0237    1.5159 N   0  0  0  0  0  0  0  0  0  0  0  0
   10.0637    2.4040    2.3677 C   0  0  0  0  0  0  0  0  0  0  0  0
   11.2256    1.6036    2.4618 C   0  0  0  0  0  0  0  0  0  0  0  0
   12.2832    1.9821    3.2814 C   0  0  0  0  0  0  0  0  0  0  0  0
   12.2349    3.1619    4.0358 C   0  0  0  0  0  0  0  0  0  0  0  0
   11.0845    3.9437    3.9424 C   0  0  0  0  0  0  0  0  0  0  0  0
   10.9673    5.5578    4.9619 Br  0  0  0  0  0  0  0  0  0  0  0  0
   10.0026    3.5870    3.1340 C   0  0  0  0  0  0  0  0  0  0  0  0
    6.8341    0.6384    0.4967 O   0  0  0  0  0  0  0  0  0  0  0  0
    3.4446   -2.3681   -0.2576 H   0  0  0  0  0  0  0  0  0  0  0  0
    5.8733   -1.9108    0.2126 H   0  0  0  0  0  0  0  0  0  0  0  0
    2.5925    1.8615   -0.2381 H   0  0  0  0  0  0  0  0  0  0  0  0
    5.1307    3.0372    1.3242 H   0  0  0  0  0  0  0  0  0  0  0  0
    5.2592    3.3369   -0.4224 H   0  0  0  0  0  0  0  0  0  0  0  0
    7.3957    2.3094   -0.5679 H   0  0  0  0  0  0  0  0  0  0  0  0
    7.1905    2.4541    2.4890 H   0  0  0  0  0  0  0  0  0  0  0  0
    7.8129    3.7182    1.4025 H   0  0  0  0  0  0  0  0  0  0  0  0
    9.0303    1.0394    1.2692 H   0  0  0  0  0  0  0  0  0  0  0  0
   11.2880    0.6828    1.8755 H   0  0  0  0  0  0  0  0  0  0  0  0
   13.1715    1.3473    3.3373 H   0  0  0  0  0  0  0  0  0  0  0  0
   13.0649    3.4600    4.6765 H   0  0  0  0  0  0  0  0  0  0  0  0
    9.1233    4.2287    3.1081 H   0  0  0  0  0  0  0  0  0  0  0  0
  1  2  1  0
  2  3  2  0
  2  7  1  0
  3  4  1  0
  3 20  1  0
  4  5  2  0
  4 21  1  0
  5  6  1  0
  5 19  1  0
  6  7  2  0
  6  8  1  0
  7 22  1  0
  8  9  1  0
  8 23  1  0
  8 24  1  0
  9 10  1  0
  9 19  1  0
  9 25  1  6
 10 11  1  0
 10 26  1  0
 10 27  1  0
 11 12  1  0
 11 28  1  0
 12 13  2  0
 12 18  1  0
 13 14  1  0
 13 29  1  0
 14 15  2  0
 14 30  1  0
 15 16  1  0
 15 31  1  0
 16 17  1  0
 16 18  2  0
 18 32  1  0
M  END

