
     RDKit          3D

 24 26  0  0  0  0  0  0  0  0999 V2000
    3.3054    1.4757    0.9424 Br  0  0  0  0  0  0  0  0  0  0  0  0
    4.6657    0.1283    1.1320 C   0  0  0  0  0  0  0  0  0  0  0  0
    5.5216   -0.0997    0.0868 C   0  0  0  0  0  0  0  0  0  0  0  0
    6.2853   -1.3217    0.4440 C   0  0  0  0  0  0  0  0  0  0  0  0
    6.7559   -1.1943    1.7200 C   0  0  0  0  0  0  0  0  0  0  0  0
    5.8096   -1.6368    2.7031 N   0  0  0  0  0  0  0  0  0  0  0  0
    4.6467   -0.7758    2.4811 B   0  0  0  0  0  0  0  0  0  0  0  0
    3.5971   -0.8057    3.5851 C   0  0  0  0  0  0  0  0  0  0  0  0
    3.8289   -1.5943    4.6806 C   0  0  0  0  0  0  0  0  0  0  0  0
    5.0282   -2.3783    4.8575 C   0  0  0  0  0  0  0  0  0  0  0  0
    5.2515   -3.1516    6.0204 C   0  0  0  0  0  0  0  0  0  0  0  0
    6.4246   -3.8709    6.1938 C   0  0  0  0  0  0  0  0  0  0  0  0
    7.4181   -3.8384    5.1959 C   0  0  0  0  0  0  0  0  0  0  0  0
    7.2288   -3.1013    4.0352 C   0  0  0  0  0  0  0  0  0  0  0  0
    6.0401   -2.3670    3.8523 C   0  0  0  0  0  0  0  0  0  0  0  0
    5.4433    0.4006   -0.8845 H   0  0  0  0  0  0  0  0  0  0  0  0
    5.7815   -2.2665    0.1884 H   0  0  0  0  0  0  0  0  0  0  0  0
    7.3085   -0.2913    2.0176 H   0  0  0  0  0  0  0  0  0  0  0  0
    2.6736   -0.2211    3.5462 H   0  0  0  0  0  0  0  0  0  0  0  0
    3.0963   -1.6456    5.4953 H   0  0  0  0  0  0  0  0  0  0  0  0
    4.4775   -3.1667    6.7928 H   0  0  0  0  0  0  0  0  0  0  0  0
    6.5799   -4.4595    7.1007 H   0  0  0  0  0  0  0  0  0  0  0  0
    8.3444   -4.4025    5.3316 H   0  0  0  0  0  0  0  0  0  0  0  0
    7.9851   -3.0841    3.2463 H   0  0  0  0  0  0  0  0  0  0  0  0
  1  2  1  0
  2  3  2  0
  2  7  1  0
  3  4  1  0
  3 16  1  0
  4  5  2  0
  4 17  1  0
  5  6  1  0
  5 18  1  0
  6  7  1  0
  6 15  1  0
  7  8  1  0
  8  9  2  0
  8 19  1  0
  9 10  1  0
  9 20  1  0
 10 11  2  0
 10 15  1  0
 11 12  1  0
 11 21  1  0
 12 13  2  0
 12 22  1  0
 13 14  1  0
 13 23  1  0
 14 15  2  0
 14 24  1  0
M  END

