
     RDKit          3D

 43 44  0  0  0  0  0  0  0  0999 V2000
    6.2867   -1.2519   -2.8848 C   0  0  0  0  0  0  0  0  0  0  0  0
    6.6174   -1.5365   -1.4324 C   0  0  0  0  0  0  0  0  0  0  0  0
    7.5756   -1.0190   -0.8930 O   0  0  0  0  0  0  0  0  0  0  0  0
    5.7304   -2.4807   -0.6638 C   0  0  0  0  0  0  0  0  0  0  0  0
    6.0466   -2.7453    0.6799 C   0  0  0  0  0  0  0  0  0  0  0  0
    5.2566   -3.6060    1.4422 C   0  0  0  0  0  0  0  0  0  0  0  0
    4.1373   -4.2284    0.8791 C   0  0  0  0  0  0  0  0  0  0  0  0
    3.8308   -3.9621   -0.4596 C   0  0  0  0  0  0  0  0  0  0  0  0
    2.4553   -4.8112   -1.2570 S   0  0  1  0  0  0  0  0  0  0  0  0
    2.1464   -4.0419   -2.4717 O   0  0  0  0  0  0  0  0  0  0  0  0
    2.7813   -6.2385   -1.3558 O   0  0  0  0  0  0  0  0  0  0  0  0
    1.2068   -4.6774   -0.1520 N   0  0  0  0  0  0  0  0  0  0  0  0
    0.5424   -3.3769   -0.0280 C   0  0  0  0  0  0  0  0  0  0  0  0
   -0.8246   -3.3709   -0.7149 C   0  0  0  0  0  0  0  0  0  0  0  0
   -1.6754   -4.5567   -0.2470 C   0  0  0  0  0  0  0  0  0  0  0  0
   -0.9312   -5.8906   -0.4336 C   0  0  2  0  0  0  0  0  0  0  0  0
   -1.7983   -7.0978   -0.0632 C   0  0  0  0  0  0  0  0  0  0  0  0
    0.4566   -5.8745    0.2654 C   0  0  2  0  0  0  0  0  0  0  0  0
    0.4277   -6.0000    1.7995 C   0  0  0  0  0  0  0  0  0  0  0  0
    1.7740   -6.1918    2.3341 N   0  0  0  0  0  0  0  0  0  0  0  0
    4.6067   -3.0985   -1.2346 C   0  0  0  0  0  0  0  0  0  0  0  0
    7.0302   -0.5516   -3.2857 H   0  0  0  0  0  0  0  0  0  0  0  0
    5.2800   -0.8146   -2.9833 H   0  0  0  0  0  0  0  0  0  0  0  0
    6.2963   -2.1787   -3.4810 H   0  0  0  0  0  0  0  0  0  0  0  0
    6.9236   -2.2520    1.1039 H   0  0  0  0  0  0  0  0  0  0  0  0
    5.5096   -3.7955    2.4885 H   0  0  0  0  0  0  0  0  0  0  0  0
    3.4889   -4.8892    1.4666 H   0  0  0  0  0  0  0  0  0  0  0  0
    1.1977   -2.6058   -0.4568 H   0  0  0  0  0  0  0  0  0  0  0  0
    0.4366   -3.1393    1.0463 H   0  0  0  0  0  0  0  0  0  0  0  0
   -0.6637   -3.4341   -1.8041 H   0  0  0  0  0  0  0  0  0  0  0  0
   -1.3366   -2.4151   -0.5129 H   0  0  0  0  0  0  0  0  0  0  0  0
   -2.6264   -4.5860   -0.8051 H   0  0  0  0  0  0  0  0  0  0  0  0
   -1.9505   -4.4265    0.8167 H   0  0  0  0  0  0  0  0  0  0  0  0
   -0.6934   -5.9753   -1.5096 H   0  0  0  0  0  0  0  0  0  0  0  0
   -2.1914   -7.0316    0.9642 H   0  0  0  0  0  0  0  0  0  0  0  0
   -1.2370   -8.0428   -0.1504 H   0  0  0  0  0  0  0  0  0  0  0  0
   -2.6663   -7.1658   -0.7383 H   0  0  0  0  0  0  0  0  0  0  0  0
    1.0236   -6.7367   -0.1152 H   0  0  0  0  0  0  0  0  0  0  0  0
   -0.2656   -6.8226    2.0604 H   0  0  0  0  0  0  0  0  0  0  0  0
    0.0049   -5.0882    2.2532 H   0  0  0  0  0  0  0  0  0  0  0  0
    2.1578   -7.0845    2.0193 H   0  0  0  0  0  0  0  0  0  0  0  0
    1.7556   -6.2268    3.3529 H   0  0  0  0  0  0  0  0  0  0  0  0
    4.3121   -2.9196   -2.2689 H   0  0  0  0  0  0  0  0  0  0  0  0
  1  2  1  0
  1 22  1  0
  1 23  1  0
  1 24  1  0
  2  3  2  0
  2  4  1  0
  4  5  2  0
  4 21  1  0
  5  6  1  0
  5 25  1  0
  6  7  2  0
  6 26  1  0
  7  8  1  0
  7 27  1  0
  9  8  1  1
  8 21  2  0
  9 10  2  0
  9 11  2  0
  9 12  1  0
 12 13  1  0
 12 18  1  0
 13 14  1  0
 13 28  1  0
 13 29  1  0
 14 15  1  0
 14 30  1  0
 14 31  1  0
 15 16  1  0
 15 32  1  0
 15 33  1  0
 16 17  1  0
 16 18  1  0
 16 34  1  6
 17 35  1  0
 17 36  1  0
 17 37  1  0
 18 19  1  0
 18 38  1  6
 19 20  1  0
 19 39  1  0
 19 40  1  0
 20 41  1  0
 20 42  1  0
 21 43  1  0
M  END

