
     RDKit          3D

 46 48  0  0  0  0  0  0  0  0999 V2000
    2.9030   -0.4996    0.8677 C   0  0  0  0  0  0  0  0  0  0  0  0
    3.0127    0.4387   -0.3224 C   0  0  0  0  0  0  0  0  0  0  0  0
    3.6151    1.6928    0.0388 O   0  0  0  0  0  0  0  0  0  0  0  0
    4.9697    1.7405    0.0320 C   0  0  0  0  0  0  0  0  0  0  0  0
    5.7039    0.8356   -0.2669 O   0  0  0  0  0  0  0  0  0  0  0  0
    5.3475    3.0132    0.4239 N   0  0  0  0  0  0  0  0  0  0  0  0
    6.6501    3.3409    0.4897 N   0  0  0  0  0  0  0  0  0  0  0  0
    7.0042    4.5200    0.8703 C   0  0  0  0  0  0  0  0  0  0  0  0
    6.0606    5.6508    1.2682 C   0  0  0  0  0  0  0  0  0  0  0  0
    6.6927    6.6649    2.2409 C   0  0  0  0  0  0  0  0  0  0  0  0
    8.0275    7.2377    1.7323 C   0  0  0  0  0  0  0  0  0  0  0  0
    8.8618    6.1030    1.2551 C   0  0  0  0  0  0  0  0  0  0  0  0
   10.2009    6.1933    1.1406 O   0  0  0  0  0  0  0  0  0  0  0  0
   10.6562    4.9703    0.6746 C   0  0  0  0  0  0  0  0  0  0  0  0
   12.1158    4.8131    0.4686 C   0  0  0  0  0  0  0  0  0  0  0  0
   12.6046    3.7791    0.0654 O   0  0  0  0  0  0  0  0  0  0  0  0
   12.8252    5.9720    0.7886 N   0  0  0  0  0  0  0  0  0  0  0  0
   14.1958    6.2284    0.7340 C   0  0  0  0  0  0  0  0  0  0  0  0
   14.6442    7.5149    1.1146 C   0  0  0  0  0  0  0  0  0  0  0  0
   16.0041    7.7908    1.0684 C   0  0  0  0  0  0  0  0  0  0  0  0
   16.8766    6.7819    0.6458 C   0  0  0  0  0  0  0  0  0  0  0  0
   18.5970    7.0613    0.5641 Cl  0  0  0  0  0  0  0  0  0  0  0  0
   16.3398    5.5417    0.2892 C   0  0  0  0  0  0  0  0  0  0  0  0
   15.0365    5.2774    0.3338 N   0  0  0  0  0  0  0  0  0  0  0  0
    9.6024    4.1024    0.4925 C   0  0  0  0  0  0  0  0  0  0  0  0
    9.6460    2.6900    0.0061 C   0  0  0  0  0  0  0  0  0  0  0  0
    8.4273    4.8559    0.8750 C   0  0  0  0  0  0  0  0  0  0  0  0
    2.3688   -1.4174    0.5737 H   0  0  0  0  0  0  0  0  0  0  0  0
    2.3471   -0.0273    1.6929 H   0  0  0  0  0  0  0  0  0  0  0  0
    3.9014   -0.7866    1.2296 H   0  0  0  0  0  0  0  0  0  0  0  0
    2.0202    0.7078   -0.7128 H   0  0  0  0  0  0  0  0  0  0  0  0
    3.6027   -0.0195   -1.1301 H   0  0  0  0  0  0  0  0  0  0  0  0
    4.6008    3.6746    0.6310 H   0  0  0  0  0  0  0  0  0  0  0  0
    5.1500    5.2428    1.7374 H   0  0  0  0  0  0  0  0  0  0  0  0
    5.7282    6.1721    0.3496 H   0  0  0  0  0  0  0  0  0  0  0  0
    6.8701    6.1638    3.2072 H   0  0  0  0  0  0  0  0  0  0  0  0
    5.9805    7.4822    2.4323 H   0  0  0  0  0  0  0  0  0  0  0  0
    8.5458    7.7943    2.5305 H   0  0  0  0  0  0  0  0  0  0  0  0
    7.8538    7.9601    0.9116 H   0  0  0  0  0  0  0  0  0  0  0  0
   12.2528    6.7449    1.1085 H   0  0  0  0  0  0  0  0  0  0  0  0
   13.9358    8.2812    1.4397 H   0  0  0  0  0  0  0  0  0  0  0  0
   16.3900    8.7712    1.3540 H   0  0  0  0  0  0  0  0  0  0  0  0
   17.0021    4.7354   -0.0451 H   0  0  0  0  0  0  0  0  0  0  0  0
   10.6760    2.3876   -0.2136 H   0  0  0  0  0  0  0  0  0  0  0  0
    9.0188    2.5737   -0.8914 H   0  0  0  0  0  0  0  0  0  0  0  0
    9.2071    2.0123    0.7550 H   0  0  0  0  0  0  0  0  0  0  0  0
  1  2  1  0
  1 28  1  0
  1 29  1  0
  1 30  1  0
  2  3  1  0
  2 31  1  0
  2 32  1  0
  3  4  1  0
  4  5  2  0
  4  6  1  0
  6  7  1  0
  6 33  1  0
  7  8  2  0
  8  9  1  0
  8 27  1  0
  9 10  1  0
  9 34  1  0
  9 35  1  0
 10 11  1  0
 10 36  1  0
 10 37  1  0
 11 12  1  0
 11 38  1  0
 11 39  1  0
 12 13  1  0
 12 27  2  0
 13 14  1  0
 14 15  1  0
 14 25  2  0
 15 16  2  0
 15 17  1  0
 17 18  1  0
 17 40  1  0
 18 19  2  0
 18 24  1  0
 19 20  1  0
 19 41  1  0
 20 21  2  0
 20 42  1  0
 21 22  1  0
 21 23  1  0
 23 24  2  0
 23 43  1  0
 25 26  1  0
 25 27  1  0
 26 44  1  0
 26 45  1  0
 26 46  1  0
M  END

