
     RDKit          3D

 34 34  0  0  0  0  0  0  0  0999 V2000
    1.0234   -0.0004    0.1088 C   0  0  0  0  0  0  0  0  0  0  0  0
    2.5070   -0.0467   -0.1685 C   0  0  0  0  0  0  0  0  0  0  0  0
    3.2399    1.1506   -0.1875 C   0  0  0  0  0  0  0  0  0  0  0  0
    4.6219    1.2019   -0.4225 C   0  0  0  0  0  0  0  0  0  0  0  0
    5.4231    2.5184   -0.4418 C   0  0  1  0  0  0  0  0  0  0  0  0
    4.5359    3.7475   -0.1736 C   0  0  0  0  0  0  0  0  0  0  0  0
    6.5191    2.4677    0.6480 C   0  0  0  0  0  0  0  0  0  0  0  0
    6.0860    2.6955   -1.8277 C   0  0  0  0  0  0  0  0  0  0  0  0
    5.2686   -0.0238   -0.6478 C   0  0  0  0  0  0  0  0  0  0  0  0
    4.5618   -1.2254   -0.6387 C   0  0  0  0  0  0  0  0  0  0  0  0
    3.1795   -1.2692   -0.3992 C   0  0  0  0  0  0  0  0  0  0  0  0
    2.4360   -2.5924   -0.3762 C   0  0  1  0  0  0  0  0  0  0  0  0
    3.0424   -3.7094   -1.2273 C   0  0  0  0  0  0  0  0  0  0  0  0
    2.1421   -3.1777    1.3759 S   0  0  0  0  0  0  0  0  0  0  0  0
    0.6861    1.0311    0.2854 H   0  0  0  0  0  0  0  0  0  0  0  0
    0.7661   -0.6034    0.9948 H   0  0  0  0  0  0  0  0  0  0  0  0
    0.4335   -0.4004   -0.7342 H   0  0  0  0  0  0  0  0  0  0  0  0
    2.6881    2.0740   -0.0076 H   0  0  0  0  0  0  0  0  0  0  0  0
    4.0527    3.6983    0.8147 H   0  0  0  0  0  0  0  0  0  0  0  0
    3.7478    3.8600   -0.9346 H   0  0  0  0  0  0  0  0  0  0  0  0
    5.1494    4.6621   -0.1961 H   0  0  0  0  0  0  0  0  0  0  0  0
    6.0749    2.3473    1.6489 H   0  0  0  0  0  0  0  0  0  0  0  0
    7.1083    3.3997    0.6464 H   0  0  0  0  0  0  0  0  0  0  0  0
    7.2174    1.6319    0.4894 H   0  0  0  0  0  0  0  0  0  0  0  0
    5.3273    2.7393   -2.6253 H   0  0  0  0  0  0  0  0  0  0  0  0
    6.7716    1.8675   -2.0639 H   0  0  0  0  0  0  0  0  0  0  0  0
    6.6689    3.6309   -1.8600 H   0  0  0  0  0  0  0  0  0  0  0  0
    6.3438   -0.0529   -0.8396 H   0  0  0  0  0  0  0  0  0  0  0  0
    5.1093   -2.1512   -0.8262 H   0  0  0  0  0  0  0  0  0  0  0  0
    1.4053   -2.4225   -0.7217 H   0  0  0  0  0  0  0  0  0  0  0  0
    4.0184   -4.0404   -0.8408 H   0  0  0  0  0  0  0  0  0  0  0  0
    3.1832   -3.3737   -2.2685 H   0  0  0  0  0  0  0  0  0  0  0  0
    2.3790   -4.5862   -1.2280 H   0  0  0  0  0  0  0  0  0  0  0  0
    3.4372   -3.1131    1.7637 H   0  0  0  0  0  0  0  0  0  0  0  0
  1  2  1  0
  1 15  1  0
  1 16  1  0
  1 17  1  0
  2  3  2  0
  2 11  1  0
  3  4  1  0
  3 18  1  0
  4  5  1  0
  4  9  2  0
  5  6  1  1
  5  7  1  0
  5  8  1  0
  6 19  1  0
  6 20  1  0
  6 21  1  0
  7 22  1  0
  7 23  1  0
  7 24  1  0
  8 25  1  0
  8 26  1  0
  8 27  1  0
  9 10  1  0
  9 28  1  0
 10 11  2  0
 10 29  1  0
 11 12  1  0
 12 13  1  0
 12 14  1  0
 12 30  1  6
 13 31  1  0
 13 32  1  0
 13 33  1  0
 14 34  1  0
M  END

