
     RDKit          3D

 54 56  0  0  0  0  0  0  0  0999 V2000
    6.2271   -2.6541   -0.2512 C   0  0  0  0  0  0  0  0  0  0  0  0
    5.3843   -1.5636    0.1951 N   0  0  0  0  0  0  0  0  0  0  0  0
    4.1262   -1.8506    0.8535 C   0  0  0  0  0  0  0  0  0  0  0  0
    5.7948   -0.2573    0.0211 C   0  0  0  0  0  0  0  0  0  0  0  0
    7.0268    0.0575   -0.6065 C   0  0  0  0  0  0  0  0  0  0  0  0
    7.4243    1.3783   -0.7762 C   0  0  0  0  0  0  0  0  0  0  0  0
    6.6399    2.4661   -0.3407 C   0  0  0  0  0  0  0  0  0  0  0  0
    7.1186    3.8259   -0.5512 C   0  0  0  0  0  0  0  0  0  0  0  0
    6.5141    4.9870   -0.2049 C   0  0  0  0  0  0  0  0  0  0  0  0
    7.0954    6.3032   -0.4700 C   0  0  0  0  0  0  0  0  0  0  0  0
    6.4243    7.4770   -0.0877 C   0  0  0  0  0  0  0  0  0  0  0  0
    7.0243    8.7171   -0.3645 C   0  0  0  0  0  0  0  0  0  0  0  0
    6.3674    9.9687    0.0127 C   0  0  0  0  0  0  0  0  0  0  0  0
    6.9011   11.1891   -0.2308 C   0  0  0  0  0  0  0  0  0  0  0  0
    6.3441   12.4949    0.0962 C   0  0  0  0  0  0  0  0  0  0  0  0
    7.0596   13.6607   -0.2461 C   0  0  0  0  0  0  0  0  0  0  0  0
    6.5857   14.9362    0.0366 C   0  0  0  0  0  0  0  0  0  0  0  0
    5.3417   15.1222    0.6914 C   0  0  0  0  0  0  0  0  0  0  0  0
    4.8558   16.3820    0.9775 N   0  0  0  0  0  0  0  0  0  0  0  0
    3.5874   16.5360    1.6603 C   0  0  0  0  0  0  0  0  0  0  0  0
    5.6279   17.5550    0.6216 C   0  0  0  0  0  0  0  0  0  0  0  0
    4.6159   13.9509    1.0406 C   0  0  0  0  0  0  0  0  0  0  0  0
    5.1071   12.6866    0.7490 C   0  0  0  0  0  0  0  0  0  0  0  0
    8.2224    8.7647   -0.9863 N   0  0  0  0  0  0  0  0  0  0  0  0
    8.7770    7.5996   -1.3077 C   0  0  0  0  0  0  0  0  0  0  0  0
    8.2928    6.3804   -1.0903 N   0  0  0  0  0  0  0  0  0  0  0  0
    5.4152    2.1462    0.2847 C   0  0  0  0  0  0  0  0  0  0  0  0
    4.9999    0.8348    0.4638 C   0  0  0  0  0  0  0  0  0  0  0  0
    5.7346   -3.6098   -0.0308 H   0  0  0  0  0  0  0  0  0  0  0  0
    7.2108   -2.6574    0.2545 H   0  0  0  0  0  0  0  0  0  0  0  0
    6.4146   -2.6165   -1.3401 H   0  0  0  0  0  0  0  0  0  0  0  0
    3.9726   -2.9367    0.8887 H   0  0  0  0  0  0  0  0  0  0  0  0
    3.2657   -1.4080    0.3188 H   0  0  0  0  0  0  0  0  0  0  0  0
    4.1004   -1.4734    1.8931 H   0  0  0  0  0  0  0  0  0  0  0  0
    7.6820   -0.7347   -0.9664 H   0  0  0  0  0  0  0  0  0  0  0  0
    8.3812    1.5817   -1.2654 H   0  0  0  0  0  0  0  0  0  0  0  0
    8.0878    3.9242   -1.0516 H   0  0  0  0  0  0  0  0  0  0  0  0
    5.5432    4.9888    0.2993 H   0  0  0  0  0  0  0  0  0  0  0  0
    5.4553    7.4265    0.4147 H   0  0  0  0  0  0  0  0  0  0  0  0
    5.4000    9.8659    0.5133 H   0  0  0  0  0  0  0  0  0  0  0  0
    7.8724   11.1918   -0.7368 H   0  0  0  0  0  0  0  0  0  0  0  0
    8.0235   13.5573   -0.7526 H   0  0  0  0  0  0  0  0  0  0  0  0
    7.1901   15.7940   -0.2554 H   0  0  0  0  0  0  0  0  0  0  0  0
    2.7504   16.0926    1.0899 H   0  0  0  0  0  0  0  0  0  0  0  0
    3.3714   17.6039    1.7914 H   0  0  0  0  0  0  0  0  0  0  0  0
    3.5906   16.0680    2.6625 H   0  0  0  0  0  0  0  0  0  0  0  0
    6.6143   17.5750    1.1218 H   0  0  0  0  0  0  0  0  0  0  0  0
    5.0814   18.4574    0.9241 H   0  0  0  0  0  0  0  0  0  0  0  0
    5.8074   17.6206   -0.4674 H   0  0  0  0  0  0  0  0  0  0  0  0
    3.6547   14.0309    1.5469 H   0  0  0  0  0  0  0  0  0  0  0  0
    4.5080   11.8204    1.0397 H   0  0  0  0  0  0  0  0  0  0  0  0
    9.7512    7.6504   -1.8129 H   0  0  0  0  0  0  0  0  0  0  0  0
    4.7649    2.9473    0.6439 H   0  0  0  0  0  0  0  0  0  0  0  0
    4.0441    0.6551    0.9547 H   0  0  0  0  0  0  0  0  0  0  0  0
  1  2  1  0
  1 29  1  0
  1 30  1  0
  1 31  1  0
  2  3  1  0
  2  4  1  0
  3 32  1  0
  3 33  1  0
  3 34  1  0
  4  5  2  0
  4 28  1  0
  5  6  1  0
  5 35  1  0
  6  7  2  0
  6 36  1  0
  7  8  1  0
  7 27  1  0
  8  9  2  0
  8 37  1  0
  9 10  1  0
  9 38  1  0
 10 11  2  0
 10 26  1  0
 11 12  1  0
 11 39  1  0
 12 13  1  0
 12 24  2  0
 13 14  2  0
 13 40  1  0
 14 15  1  0
 14 41  1  0
 15 16  2  0
 15 23  1  0
 16 17  1  0
 16 42  1  0
 17 18  2  0
 17 43  1  0
 18 19  1  0
 18 22  1  0
 19 20  1  0
 19 21  1  0
 20 44  1  0
 20 45  1  0
 20 46  1  0
 21 47  1  0
 21 48  1  0
 21 49  1  0
 22 23  2  0
 22 50  1  0
 23 51  1  0
 24 25  1  0
 25 26  2  0
 25 52  1  0
 27 28  2  0
 27 53  1  0
 28 54  1  0
M  END

