
     RDKit          3D

 29 29  0  0  0  0  0  0  0  0999 V2000
    1.8089    0.3417    1.0007 C   0  0  0  0  0  0  0  0  0  0  0  0
    2.4118   -0.2818   -0.2774 C   0  0  1  0  0  0  0  0  0  0  0  0
    3.0155    0.8275   -1.1469 C   0  0  0  0  0  0  0  0  0  0  0  0
    4.0056    1.4645   -0.7965 O   0  0  0  0  0  0  0  0  0  0  0  0
    2.3630    1.0812   -2.3129 N   0  0  0  0  0  0  0  0  0  0  0  0
    2.8388    2.0479   -3.2611 C   0  0  1  0  0  0  0  0  0  0  0  0
    1.8430    2.7359   -4.1594 C   0  0  0  0  0  0  0  0  0  0  0  0
    2.5574    3.5289   -3.0859 C   0  0  1  0  0  0  0  0  0  0  0  0
    1.7617    3.9895   -1.8793 C   0  0  0  0  0  0  0  0  0  0  0  0
    3.6613    4.4810   -3.5077 C   0  0  0  0  0  0  0  0  0  0  0  0
    3.4314   -1.3662    0.0998 C   0  0  0  0  0  0  0  0  0  0  0  0
    4.6444   -0.9067    0.4372 N   0  0  0  0  0  0  0  0  0  0  0  0
    2.9907   -2.9660    0.1546 S   0  0  0  0  0  0  0  0  0  0  0  0
    1.0058    1.0503    0.7443 H   0  0  0  0  0  0  0  0  0  0  0  0
    2.5797    0.8836    1.5677 H   0  0  0  0  0  0  0  0  0  0  0  0
    1.3890   -0.4517    1.6355 H   0  0  0  0  0  0  0  0  0  0  0  0
    1.6133   -0.8002   -0.8247 H   0  0  0  0  0  0  0  0  0  0  0  0
    1.6164    0.4546   -2.5918 H   0  0  0  0  0  0  0  0  0  0  0  0
    3.8172    1.7995   -3.6899 H   0  0  0  0  0  0  0  0  0  0  0  0
    0.7830    2.5126   -4.0001 H   0  0  0  0  0  0  0  0  0  0  0  0
    2.1168    2.8842   -5.2079 H   0  0  0  0  0  0  0  0  0  0  0  0
    0.9824    3.2655   -1.5999 H   0  0  0  0  0  0  0  0  0  0  0  0
    1.2676    4.9531   -2.0872 H   0  0  0  0  0  0  0  0  0  0  0  0
    2.4239    4.1244   -1.0090 H   0  0  0  0  0  0  0  0  0  0  0  0
    4.2155    4.1027   -4.3812 H   0  0  0  0  0  0  0  0  0  0  0  0
    4.3833    4.6231   -2.6868 H   0  0  0  0  0  0  0  0  0  0  0  0
    3.2494    5.4686   -3.7754 H   0  0  0  0  0  0  0  0  0  0  0  0
    4.8676    0.0771    0.2666 H   0  0  0  0  0  0  0  0  0  0  0  0
    5.3604   -1.5757    0.6970 H   0  0  0  0  0  0  0  0  0  0  0  0
  1  2  1  0
  1 14  1  0
  1 15  1  0
  1 16  1  0
  2  3  1  0
  2 11  1  0
  2 17  1  6
  3  4  2  0
  3  5  1  0
  5  6  1  0
  5 18  1  0
  6  7  1  0
  6  8  1  0
  6 19  1  6
  7  8  1  0
  7 20  1  0
  7 21  1  0
  8  9  1  1
  8 10  1  0
  9 22  1  0
  9 23  1  0
  9 24  1  0
 10 25  1  0
 10 26  1  0
 10 27  1  0
 11 12  1  0
 11 13  2  0
 12 28  1  0
 12 29  1  0
M  END

