
     RDKit          3D

 40 42  0  0  0  0  0  0  0  0999 V2000
    0.2527   -1.7043    1.8203 C   0  0  0  0  0  0  0  0  0  0  0  0
    1.5165   -2.2786    1.5566 O   0  0  0  0  0  0  0  0  0  0  0  0
    1.7181   -2.9614    0.4159 C   0  0  0  0  0  0  0  0  0  0  0  0
    0.7396   -3.1522   -0.5764 C   0  0  0  0  0  0  0  0  0  0  0  0
    1.0336   -3.8743   -1.7308 C   0  0  0  0  0  0  0  0  0  0  0  0
    2.3068   -4.4229   -1.9266 C   0  0  0  0  0  0  0  0  0  0  0  0
    2.5643   -5.1838   -3.1762 C   0  0  0  0  0  0  0  0  0  0  0  0
    1.7447   -5.3896   -4.0406 O   0  0  0  0  0  0  0  0  0  0  0  0
    3.8522   -5.6017   -3.2703 O   0  0  0  0  0  0  0  0  0  0  0  0
    4.1602   -6.4316   -4.3683 C   0  0  0  0  0  0  0  0  0  0  0  0
    3.7309   -7.8817   -4.0829 C   0  0  0  0  0  0  0  0  0  0  0  0
    3.1966   -8.1834   -3.0336 O   0  0  0  0  0  0  0  0  0  0  0  0
    4.0029   -8.7738   -5.0916 N   0  0  0  0  0  0  0  0  0  0  0  0
    4.6544   -8.4117   -6.3693 C   0  0  0  0  0  0  0  0  0  0  0  0
    4.7029   -9.7213   -7.1950 C   0  0  0  0  0  0  0  0  0  0  0  0
    4.1254  -10.7607   -6.2628 C   0  0  0  0  0  0  0  0  0  0  0  0
    3.9530  -12.1275   -6.4584 C   0  0  0  0  0  0  0  0  0  0  0  0
    3.3742  -12.8969   -5.4396 C   0  0  0  0  0  0  0  0  0  0  0  0
    2.9755  -12.2889   -4.2447 C   0  0  0  0  0  0  0  0  0  0  0  0
    3.1415  -10.9143   -4.0319 C   0  0  0  0  0  0  0  0  0  0  0  0
    3.7237  -10.1616   -5.0580 C   0  0  0  0  0  0  0  0  0  0  0  0
    3.2914   -4.2414   -0.9395 C   0  0  0  0  0  0  0  0  0  0  0  0
    3.0020   -3.5208    0.2118 C   0  0  0  0  0  0  0  0  0  0  0  0
    4.3446   -3.2811    1.5383 Br  0  0  0  0  0  0  0  0  0  0  0  0
    0.3372   -1.2114    2.7974 H   0  0  0  0  0  0  0  0  0  0  0  0
   -0.5408   -2.4703    1.8706 H   0  0  0  0  0  0  0  0  0  0  0  0
   -0.0204   -0.9519    1.0597 H   0  0  0  0  0  0  0  0  0  0  0  0
   -0.2589   -2.7351   -0.4465 H   0  0  0  0  0  0  0  0  0  0  0  0
    0.2744   -4.0248   -2.5004 H   0  0  0  0  0  0  0  0  0  0  0  0
    5.2507   -6.3734   -4.5056 H   0  0  0  0  0  0  0  0  0  0  0  0
    3.6643   -6.0654   -5.2809 H   0  0  0  0  0  0  0  0  0  0  0  0
    5.6656   -8.0138   -6.1834 H   0  0  0  0  0  0  0  0  0  0  0  0
    4.0809   -7.6254   -6.8840 H   0  0  0  0  0  0  0  0  0  0  0  0
    5.7324   -9.9666   -7.5015 H   0  0  0  0  0  0  0  0  0  0  0  0
    4.1089   -9.6340   -8.1196 H   0  0  0  0  0  0  0  0  0  0  0  0
    4.2648  -12.5954   -7.3964 H   0  0  0  0  0  0  0  0  0  0  0  0
    3.2338  -13.9712   -5.5803 H   0  0  0  0  0  0  0  0  0  0  0  0
    2.5232  -12.8942   -3.4548 H   0  0  0  0  0  0  0  0  0  0  0  0
    2.8326  -10.4333   -3.1072 H   0  0  0  0  0  0  0  0  0  0  0  0
    4.2825   -4.6719   -1.0767 H   0  0  0  0  0  0  0  0  0  0  0  0
  1  2  1  0
  1 25  1  0
  1 26  1  0
  1 27  1  0
  2  3  1  0
  3  4  2  0
  3 23  1  0
  4  5  1  0
  4 28  1  0
  5  6  2  0
  5 29  1  0
  6  7  1  0
  6 22  1  0
  7  8  2  0
  7  9  1  0
  9 10  1  0
 10 11  1  0
 10 30  1  0
 10 31  1  0
 11 12  2  0
 11 13  1  0
 13 14  1  0
 13 21  1  0
 14 15  1  0
 14 32  1  0
 14 33  1  0
 15 16  1  0
 15 34  1  0
 15 35  1  0
 16 17  1  0
 16 21  2  0
 17 18  2  0
 17 36  1  0
 18 19  1  0
 18 37  1  0
 19 20  2  0
 19 38  1  0
 20 21  1  0
 20 39  1  0
 22 23  2  0
 22 40  1  0
 23 24  1  0
M  END

