
     RDKit          3D

 34 34  0  0  0  0  0  0  0  0999 V2000
    0.3681    0.6901    0.3507 C   0  0  0  0  0  0  0  0  0  0  0  0
    1.8053    0.1652    0.3325 C   0  0  0  0  0  0  0  0  0  0  0  0
    2.8316    1.0389    1.1011 C   0  0  1  0  0  0  0  0  0  0  0  0
    2.4922    1.0913    2.5940 C   0  0  0  0  0  0  0  0  0  0  0  0
    4.2777    0.4953    0.9531 C   0  0  0  0  0  0  0  0  0  0  0  0
    5.0250    0.8058   -0.3764 C   0  0  2  0  0  0  0  0  0  0  0  0
    4.5204   -0.0451   -1.4977 C   0  0  0  0  0  0  0  0  0  0  0  0
    4.2350   -0.7276   -2.3917 N   0  0  0  0  0  0  0  0  0  0  0  0
    6.4705    0.5553   -0.2008 N   0  0  0  0  0  0  0  0  0  0  0  0
    6.8163   -0.7954    0.2276 C   0  0  0  0  0  0  0  0  0  0  0  0
    7.3103    0.9752   -1.3167 C   0  0  0  0  0  0  0  0  0  0  0  0
    4.7672    2.2953   -0.7162 C   0  0  0  0  0  0  0  0  0  0  0  0
    3.2897    2.6595   -0.6149 C   0  0  0  0  0  0  0  0  0  0  0  0
    2.7704    2.4045    0.6703 O   0  0  0  0  0  0  0  0  0  0  0  0
   -0.2746    0.0753   -0.2988 H   0  0  0  0  0  0  0  0  0  0  0  0
    0.3222    1.7290   -0.0099 H   0  0  0  0  0  0  0  0  0  0  0  0
   -0.0724    0.6714    1.3597 H   0  0  0  0  0  0  0  0  0  0  0  0
    2.1273    0.0463   -0.7126 H   0  0  0  0  0  0  0  0  0  0  0  0
    1.8429   -0.8507    0.7621 H   0  0  0  0  0  0  0  0  0  0  0  0
    2.5279    0.0864    3.0423 H   0  0  0  0  0  0  0  0  0  0  0  0
    1.4882    1.5097    2.7494 H   0  0  0  0  0  0  0  0  0  0  0  0
    3.2099    1.7393    3.1187 H   0  0  0  0  0  0  0  0  0  0  0  0
    4.2598   -0.5872    1.1420 H   0  0  0  0  0  0  0  0  0  0  0  0
    4.9030    0.9560    1.7336 H   0  0  0  0  0  0  0  0  0  0  0  0
    6.3260   -1.0534    1.1755 H   0  0  0  0  0  0  0  0  0  0  0  0
    7.9016   -0.8419    0.4024 H   0  0  0  0  0  0  0  0  0  0  0  0
    6.5612   -1.5764   -0.5208 H   0  0  0  0  0  0  0  0  0  0  0  0
    7.1990    2.0483   -1.5203 H   0  0  0  0  0  0  0  0  0  0  0  0
    7.1103    0.4183   -2.2576 H   0  0  0  0  0  0  0  0  0  0  0  0
    8.3631    0.8056   -1.0461 H   0  0  0  0  0  0  0  0  0  0  0  0
    5.1282    2.5388   -1.7260 H   0  0  0  0  0  0  0  0  0  0  0  0
    5.3452    2.8916    0.0079 H   0  0  0  0  0  0  0  0  0  0  0  0
    2.7109    2.1341   -1.3999 H   0  0  0  0  0  0  0  0  0  0  0  0
    3.1619    3.7388   -0.7900 H   0  0  0  0  0  0  0  0  0  0  0  0
  1  2  1  0
  1 15  1  0
  1 16  1  0
  1 17  1  0
  3  2  1  6
  2 18  1  0
  2 19  1  0
  3  4  1  0
  3  5  1  0
  3 14  1  0
  4 20  1  0
  4 21  1  0
  4 22  1  0
  5  6  1  0
  5 23  1  0
  5 24  1  0
  6  7  1  6
  6  9  1  0
  6 12  1  0
  7  8  3  0
  9 10  1  0
  9 11  1  0
 10 25  1  0
 10 26  1  0
 10 27  1  0
 11 28  1  0
 11 29  1  0
 11 30  1  0
 12 13  1  0
 12 31  1  0
 12 32  1  0
 13 14  1  0
 13 33  1  0
 13 34  1  0
M  END

