
     RDKit          3D

 43 43  0  0  0  0  0  0  0  0999 V2000
    6.6137    2.5549   -0.9935 C   0  0  0  0  0  0  0  0  0  0  0  0
    6.2645    1.1477   -1.4709 C   0  0  0  0  0  0  0  0  0  0  0  0
    4.9281    0.7797   -1.0376 N   0  0  0  0  0  0  0  0  0  0  0  0
    4.4572   -0.5868   -1.2575 C   0  0  1  0  0  0  0  0  0  0  0  0
    4.7820   -1.1490   -2.6693 C   0  0  0  0  0  0  0  0  0  0  0  0
    5.0288   -1.5416   -0.1790 C   0  0  0  0  0  0  0  0  0  0  0  0
    4.6707   -1.1414    1.2648 C   0  0  0  0  0  0  0  0  0  0  0  0
    5.2835   -1.9220    2.3344 N   0  0  0  0  0  0  0  0  0  0  0  0
    4.9040   -3.3198    2.3616 C   0  0  0  0  0  0  0  0  0  0  0  0
    6.7019   -1.7096    2.5218 C   0  0  1  0  0  0  0  0  0  0  0  0
    7.1900   -0.2671    2.8101 C   0  0  0  0  0  0  0  0  0  0  0  0
    8.1815   -0.8539    3.8460 C   0  0  0  0  0  0  0  0  0  0  0  0
    7.3218   -2.1424    3.8779 C   0  0  0  0  0  0  0  0  0  0  0  0
    2.9210   -0.5176   -1.1866 C   0  0  0  0  0  0  0  0  0  0  0  0
    2.2729    0.4912   -1.3339 O   0  0  0  0  0  0  0  0  0  0  0  0
    2.3620   -1.7264   -1.0123 O   0  0  0  0  0  0  0  0  0  0  0  0
    0.9339   -1.7716   -1.0114 C   0  0  0  0  0  0  0  0  0  0  0  0
    7.6269    2.8420   -1.3168 H   0  0  0  0  0  0  0  0  0  0  0  0
    6.5609    2.6209    0.1042 H   0  0  0  0  0  0  0  0  0  0  0  0
    5.9099    3.2970   -1.4073 H   0  0  0  0  0  0  0  0  0  0  0  0
    6.9889    0.4322   -1.0438 H   0  0  0  0  0  0  0  0  0  0  0  0
    6.4051    1.0987   -2.5733 H   0  0  0  0  0  0  0  0  0  0  0  0
    4.2270    1.4353   -1.3800 H   0  0  0  0  0  0  0  0  0  0  0  0
    5.8688   -1.2613   -2.7979 H   0  0  0  0  0  0  0  0  0  0  0  0
    4.4101   -0.4701   -3.4534 H   0  0  0  0  0  0  0  0  0  0  0  0
    4.3198   -2.1364   -2.8142 H   0  0  0  0  0  0  0  0  0  0  0  0
    6.1252   -1.5556   -0.3000 H   0  0  0  0  0  0  0  0  0  0  0  0
    4.6789   -2.5622   -0.3942 H   0  0  0  0  0  0  0  0  0  0  0  0
    3.5755   -1.2074    1.3938 H   0  0  0  0  0  0  0  0  0  0  0  0
    4.9356   -0.0830    1.4021 H   0  0  0  0  0  0  0  0  0  0  0  0
    3.8074   -3.4119    2.2974 H   0  0  0  0  0  0  0  0  0  0  0  0
    5.2211   -3.7810    3.3108 H   0  0  0  0  0  0  0  0  0  0  0  0
    5.3401   -3.9322    1.5392 H   0  0  0  0  0  0  0  0  0  0  0  0
    7.3133   -2.1465    1.6967 H   0  0  0  0  0  0  0  0  0  0  0  0
    6.3919    0.3100    3.3022 H   0  0  0  0  0  0  0  0  0  0  0  0
    7.5949    0.3225    1.9732 H   0  0  0  0  0  0  0  0  0  0  0  0
    8.3111   -0.3059    4.7913 H   0  0  0  0  0  0  0  0  0  0  0  0
    9.1773   -1.0325    3.4106 H   0  0  0  0  0  0  0  0  0  0  0  0
    6.5584   -2.0970    4.6704 H   0  0  0  0  0  0  0  0  0  0  0  0
    7.8397   -3.1126    3.9280 H   0  0  0  0  0  0  0  0  0  0  0  0
    0.6618   -2.8257   -0.8773 H   0  0  0  0  0  0  0  0  0  0  0  0
    0.5303   -1.3893   -1.9610 H   0  0  0  0  0  0  0  0  0  0  0  0
    0.5256   -1.1642   -0.1898 H   0  0  0  0  0  0  0  0  0  0  0  0
  1  2  1  0
  1 18  1  0
  1 19  1  0
  1 20  1  0
  2  3  1  0
  2 21  1  0
  2 22  1  0
  3  4  1  0
  3 23  1  0
  4  5  1  0
  4  6  1  0
  4 14  1  1
  5 24  1  0
  5 25  1  0
  5 26  1  0
  6  7  1  0
  6 27  1  0
  6 28  1  0
  7  8  1  0
  7 29  1  0
  7 30  1  0
  8  9  1  0
  8 10  1  0
  9 31  1  0
  9 32  1  0
  9 33  1  0
 10 11  1  0
 10 13  1  0
 10 34  1  6
 11 12  1  0
 11 35  1  0
 11 36  1  0
 12 13  1  0
 12 37  1  0
 12 38  1  0
 13 39  1  0
 13 40  1  0
 14 15  2  0
 14 16  1  0
 16 17  1  0
 17 41  1  0
 17 42  1  0
 17 43  1  0
M  END

