
     RDKit          3D

 29 31  0  0  0  0  0  0  0  0999 V2000
    0.7877   -0.1042   -0.0861 C   0  0  0  0  0  0  0  0  0  0  0  0
   -0.4276   -0.2023   -0.0765 C   0  0  0  0  0  0  0  0  0  0  0  0
   -1.8350   -0.3202   -0.0659 C   0  0  0  0  0  0  0  0  0  0  0  0
   -2.5650   -1.4043   -0.0102 N   0  0  0  0  0  0  0  0  0  0  0  0
   -3.8596   -0.9607   -0.0278 C   0  0  0  0  0  0  0  0  0  0  0  0
   -3.8815    0.4159   -0.0954 C   0  0  0  0  0  0  0  0  0  0  0  0
   -4.9320    1.4245   -0.1408 C   0  0  0  0  0  0  0  0  0  0  0  0
   -6.2885    1.0420   -0.1276 C   0  0  0  0  0  0  0  0  0  0  0  0
   -7.2953    2.0047   -0.1703 C   0  0  0  0  0  0  0  0  0  0  0  0
   -6.9702    3.3650   -0.2271 C   0  0  0  0  0  0  0  0  0  0  0  0
   -5.6272    3.7539   -0.2409 C   0  0  0  0  0  0  0  0  0  0  0  0
   -4.6142    2.7955   -0.1982 C   0  0  0  0  0  0  0  0  0  0  0  0
   -2.5802    0.8231   -0.1194 O   0  0  0  0  0  0  0  0  0  0  0  0
    2.2077   -0.0039   -0.0970 C   0  0  0  0  0  0  0  0  0  0  0  0
    2.8654    1.2411   -0.1680 C   0  0  0  0  0  0  0  0  0  0  0  0
    4.2571    1.2660   -0.1748 C   0  0  0  0  0  0  0  0  0  0  0  0
    4.9519    0.0527   -0.1109 C   0  0  0  0  0  0  0  0  0  0  0  0
    4.3441   -1.1356   -0.0432 N   0  0  0  0  0  0  0  0  0  0  0  0
    3.0157   -1.1646   -0.0365 C   0  0  0  0  0  0  0  0  0  0  0  0
   -4.7020   -1.6487    0.0092 H   0  0  0  0  0  0  0  0  0  0  0  0
   -6.5562   -0.0161   -0.0841 H   0  0  0  0  0  0  0  0  0  0  0  0
   -8.3423    1.6916   -0.1594 H   0  0  0  0  0  0  0  0  0  0  0  0
   -7.7616    4.1178   -0.2605 H   0  0  0  0  0  0  0  0  0  0  0  0
   -5.3650    4.8140   -0.2852 H   0  0  0  0  0  0  0  0  0  0  0  0
   -3.5667    3.1014   -0.2088 H   0  0  0  0  0  0  0  0  0  0  0  0
    2.2824    2.1634   -0.2164 H   0  0  0  0  0  0  0  0  0  0  0  0
    4.8012    2.2116   -0.2289 H   0  0  0  0  0  0  0  0  0  0  0  0
    6.0481    0.0428   -0.1146 H   0  0  0  0  0  0  0  0  0  0  0  0
    2.5367   -2.1485    0.0195 H   0  0  0  0  0  0  0  0  0  0  0  0
  1  2  3  0
  1 14  1  0
  2  3  1  0
  3  4  2  0
  3 13  1  0
  4  5  1  0
  5  6  2  0
  5 20  1  0
  6  7  1  0
  6 13  1  0
  7  8  2  0
  7 12  1  0
  8  9  1  0
  8 21  1  0
  9 10  2  0
  9 22  1  0
 10 11  1  0
 10 23  1  0
 11 12  2  0
 11 24  1  0
 12 25  1  0
 14 15  2  0
 14 19  1  0
 15 16  1  0
 15 26  1  0
 16 17  2  0
 16 27  1  0
 17 18  1  0
 17 28  1  0
 18 19  2  0
 19 29  1  0
M  END

