
     RDKit          3D

 54 57  0  0  0  0  0  0  0  0999 V2000
    0.4345    0.0894   -0.0410 C   0  0  0  0  0  0  0  0  0  0  0  0
    1.9565    0.2817   -0.0912 C   0  0  1  0  0  0  0  0  0  0  0  0
    2.2480    1.6760   -0.4134 N   0  0  0  0  0  0  0  0  0  0  0  0
    2.9129    2.0838   -1.5068 C   0  0  0  0  0  0  0  0  0  0  0  0
    3.4075    1.3751   -2.3769 O   0  0  0  0  0  0  0  0  0  0  0  0
    3.0146    3.6338   -1.5799 C   0  0  0  0  0  0  0  0  0  0  0  0
    2.5179    4.3435   -0.7333 O   0  0  0  0  0  0  0  0  0  0  0  0
    3.7090    3.9991   -2.7046 N   0  0  0  0  0  0  0  0  0  0  0  0
    4.0577    5.2948   -3.1336 C   0  0  0  0  0  0  0  0  0  0  0  0
    3.8375    6.2761   -2.4587 O   0  0  0  0  0  0  0  0  0  0  0  0
    4.7266    5.3564   -4.4670 C   0  0  0  0  0  0  0  0  0  0  0  0
    4.8303    4.2811   -5.3693 C   0  0  0  0  0  0  0  0  0  0  0  0
    5.4647    4.4290   -6.5975 C   0  0  0  0  0  0  0  0  0  0  0  0
    6.0261    5.6686   -6.9761 C   0  0  0  0  0  0  0  0  0  0  0  0
    6.6265    5.8285   -8.2015 N   0  0  0  0  0  0  0  0  0  0  0  0
    5.9158    6.7519   -6.0736 C   0  0  0  0  0  0  0  0  0  0  0  0
    5.2766    6.5936   -4.8537 C   0  0  0  0  0  0  0  0  0  0  0  0
    2.7389   -0.1973    1.1728 C   0  0  2  0  0  0  0  0  0  0  0  0
    2.5037   -1.7121    1.4054 C   0  0  0  0  0  0  0  0  0  0  0  0
    3.3140   -2.2151    2.6168 C   0  0  1  0  0  0  0  0  0  0  0  0
    4.8160   -1.9850    2.3696 C   0  0  0  0  0  0  0  0  0  0  0  0
    5.0712   -0.4806    2.1640 C   0  0  2  0  0  0  0  0  0  0  0  0
    4.6363    0.2942    3.4226 C   0  0  0  0  0  0  0  0  0  0  0  0
    3.1339    0.0622    3.6721 C   0  0  2  0  0  0  0  0  0  0  0  0
    2.8751   -1.4430    3.8764 C   0  0  0  0  0  0  0  0  0  0  0  0
    2.3232    0.5622    2.4580 C   0  0  0  0  0  0  0  0  0  0  0  0
    4.2594    0.0181    0.9540 C   0  0  0  0  0  0  0  0  0  0  0  0
   -0.0108    0.3996   -0.9983 H   0  0  0  0  0  0  0  0  0  0  0  0
   -0.0299    0.6935    0.7549 H   0  0  0  0  0  0  0  0  0  0  0  0
    0.1627   -0.9617    0.1296 H   0  0  0  0  0  0  0  0  0  0  0  0
    2.3514   -0.2921   -0.9444 H   0  0  0  0  0  0  0  0  0  0  0  0
    1.8938    2.4286    0.1743 H   0  0  0  0  0  0  0  0  0  0  0  0
    4.0175    3.1866   -3.2373 H   0  0  0  0  0  0  0  0  0  0  0  0
    4.3961    3.3046   -5.1397 H   0  0  0  0  0  0  0  0  0  0  0  0
    5.5239    3.5794   -7.2831 H   0  0  0  0  0  0  0  0  0  0  0  0
    6.8885    5.0050   -8.7274 H   0  0  0  0  0  0  0  0  0  0  0  0
    7.2014    6.6460   -8.3580 H   0  0  0  0  0  0  0  0  0  0  0  0
    6.3378    7.7231   -6.3470 H   0  0  0  0  0  0  0  0  0  0  0  0
    5.1874    7.4316   -4.1597 H   0  0  0  0  0  0  0  0  0  0  0  0
    2.7886   -2.2739    0.4979 H   0  0  0  0  0  0  0  0  0  0  0  0
    1.4341   -1.9121    1.5812 H   0  0  0  0  0  0  0  0  0  0  0  0
    3.1203   -3.2925    2.7563 H   0  0  0  0  0  0  0  0  0  0  0  0
    5.1467   -2.5515    1.4817 H   0  0  0  0  0  0  0  0  0  0  0  0
    5.4044   -2.3602    3.2249 H   0  0  0  0  0  0  0  0  0  0  0  0
    6.1444   -0.3078    1.9744 H   0  0  0  0  0  0  0  0  0  0  0  0
    4.8385    1.3718    3.2944 H   0  0  0  0  0  0  0  0  0  0  0  0
    5.2219   -0.0380    4.2974 H   0  0  0  0  0  0  0  0  0  0  0  0
    2.8163    0.6184    4.5706 H   0  0  0  0  0  0  0  0  0  0  0  0
    1.8043   -1.6213    4.0783 H   0  0  0  0  0  0  0  0  0  0  0  0
    3.4299   -1.8074    4.7583 H   0  0  0  0  0  0  0  0  0  0  0  0
    2.4882    1.6462    2.3281 H   0  0  0  0  0  0  0  0  0  0  0  0
    1.2467    0.4224    2.6544 H   0  0  0  0  0  0  0  0  0  0  0  0
    4.5783   -0.5058    0.0364 H   0  0  0  0  0  0  0  0  0  0  0  0
    4.4621    1.0889    0.7914 H   0  0  0  0  0  0  0  0  0  0  0  0
  1  2  1  0
  1 28  1  0
  1 29  1  0
  1 30  1  0
  2  3  1  0
  2 18  1  0
  2 31  1  6
  3  4  1  0
  3 32  1  0
  4  5  2  0
  4  6  1  0
  6  7  2  0
  6  8  1  0
  8  9  1  0
  8 33  1  0
  9 10  2  0
  9 11  1  0
 11 12  2  0
 11 17  1  0
 12 13  1  0
 12 34  1  0
 13 14  2  0
 13 35  1  0
 14 15  1  0
 14 16  1  0
 15 36  1  0
 15 37  1  0
 16 17  2  0
 16 38  1  0
 17 39  1  0
 18 19  1  1
 18 26  1  0
 18 27  1  0
 19 20  1  0
 19 40  1  0
 19 41  1  0
 20 21  1  0
 20 25  1  0
 20 42  1  1
 21 22  1  0
 21 43  1  0
 21 44  1  0
 22 23  1  0
 22 27  1  0
 22 45  1  6
 23 24  1  0
 23 46  1  0
 23 47  1  0
 24 25  1  0
 24 26  1  0
 24 48  1  1
 25 49  1  0
 25 50  1  0
 26 51  1  0
 26 52  1  0
 27 53  1  0
 27 54  1  0
M  END

