
     RDKit          3D

 39 42  0  0  0  0  0  0  0  0999 V2000
    2.8856    1.2718   -0.1070 O   0  0  0  0  0  0  0  0  0  0  0  0
    2.4443    0.1429    0.0832 C   0  0  0  0  0  0  0  0  0  0  0  0
    1.2489   -0.0766    0.6820 N   0  0  0  0  0  0  0  0  0  0  0  0
    0.5043    1.0038    1.0900 N   0  0  0  0  0  0  0  0  0  0  0  0
   -0.7010    0.7956    1.6903 C   0  0  0  0  0  0  0  0  0  0  0  0
   -1.1280   -0.3386    1.8731 O   0  0  0  0  0  0  0  0  0  0  0  0
   -1.4271    2.0380    2.0910 C   0  0  1  0  0  0  0  0  0  0  0  0
   -2.9423    2.0087    2.0160 C   0  0  0  0  0  0  0  0  0  0  0  0
   -2.2719    1.9713    3.3497 C   0  0  0  0  0  0  0  0  0  0  0  0
    3.1663   -1.0951   -0.3176 C   0  0  0  0  0  0  0  0  0  0  0  0
    4.4182   -1.1500   -0.9520 C   0  0  0  0  0  0  0  0  0  0  0  0
    4.6697   -2.5131   -1.1179 C   0  0  0  0  0  0  0  0  0  0  0  0
    5.6857   -3.2030   -1.6504 N   0  0  0  0  0  0  0  0  0  0  0  0
    5.6311   -4.5244   -1.6597 C   0  0  0  0  0  0  0  0  0  0  0  0
    6.7592   -5.2458   -2.2498 C   0  0  0  0  0  0  0  0  0  0  0  0
    7.8948   -4.6865   -2.8070 C   0  0  0  0  0  0  0  0  0  0  0  0
    8.8103   -5.6549   -3.2971 C   0  0  0  0  0  0  0  0  0  0  0  0
    8.3678   -6.9443   -3.1111 C   0  0  0  0  0  0  0  0  0  0  0  0
    6.8293   -6.9903   -2.3343 S   0  0  0  0  0  0  0  0  0  0  0  0
    4.5025   -5.2313   -1.1100 C   0  0  0  0  0  0  0  0  0  0  0  0
    3.4629   -4.5294   -0.5665 C   0  0  0  0  0  0  0  0  0  0  0  0
    2.2325   -5.1855    0.0338 C   0  0  1  0  0  0  0  0  0  0  0  0
    1.1228   -4.8145   -0.6105 F   0  0  0  0  0  0  0  0  0  0  0  0
    2.3369   -6.5202   -0.0597 F   0  0  0  0  0  0  0  0  0  0  0  0
    2.0967   -4.8736    1.3248 F   0  0  0  0  0  0  0  0  0  0  0  0
    3.5383   -3.1638   -0.5655 N   0  0  0  0  0  0  0  0  0  0  0  0
    2.6358   -2.3087   -0.0858 N   0  0  0  0  0  0  0  0  0  0  0  0
    0.8354   -0.9890    0.8650 H   0  0  0  0  0  0  0  0  0  0  0  0
    0.9431    1.8987    0.8918 H   0  0  0  0  0  0  0  0  0  0  0  0
   -0.9263    2.9842    1.8657 H   0  0  0  0  0  0  0  0  0  0  0  0
   -3.3843    1.0789    1.6488 H   0  0  0  0  0  0  0  0  0  0  0  0
   -3.4447    2.9268    1.7000 H   0  0  0  0  0  0  0  0  0  0  0  0
   -2.2620    1.0163    3.8812 H   0  0  0  0  0  0  0  0  0  0  0  0
   -2.2972    2.8627    3.9821 H   0  0  0  0  0  0  0  0  0  0  0  0
    5.0505   -0.3191   -1.2466 H   0  0  0  0  0  0  0  0  0  0  0  0
    8.0385   -3.6071   -2.8486 H   0  0  0  0  0  0  0  0  0  0  0  0
    9.7623   -5.4116   -3.7710 H   0  0  0  0  0  0  0  0  0  0  0  0
    8.8630   -7.8741   -3.3881 H   0  0  0  0  0  0  0  0  0  0  0  0
    4.4564   -6.3190   -1.1177 H   0  0  0  0  0  0  0  0  0  0  0  0
  1  2  2  0
  2  3  1  0
  2 10  1  0
  3  4  1  0
  3 28  1  0
  4  5  1  0
  4 29  1  0
  5  6  2  0
  5  7  1  0
  7  8  1  0
  7  9  1  0
  7 30  1  1
  8  9  1  0
  8 31  1  0
  8 32  1  0
  9 33  1  0
  9 34  1  0
 10 11  1  0
 10 27  2  0
 11 12  2  0
 11 35  1  0
 12 13  1  0
 12 26  1  0
 13 14  2  0
 14 15  1  0
 14 20  1  0
 15 16  2  0
 15 19  1  0
 16 17  1  0
 16 36  1  0
 17 18  2  0
 17 37  1  0
 18 19  1  0
 18 38  1  0
 20 21  2  0
 20 39  1  0
 21 22  1  0
 21 26  1  0
 22 23  1  6
 22 24  1  0
 22 25  1  0
 26 27  1  0
M  END

