
     RDKit          3D

 54 57  0  0  0  0  0  0  0  0999 V2000
    2.3375    0.3745    1.3750 O   0  0  0  0  0  0  0  0  0  0  0  0
    2.2161   -0.0641    0.2402 C   0  0  0  0  0  0  0  0  0  0  0  0
    2.9680   -1.3368   -0.1758 C   0  0  0  0  0  0  0  0  0  0  0  0
    2.0939   -2.4437   -0.4426 O   0  0  0  0  0  0  0  0  0  0  0  0
    1.6119   -2.5800   -1.6957 C   0  0  0  0  0  0  0  0  0  0  0  0
    1.8133   -1.7715   -2.5698 O   0  0  0  0  0  0  0  0  0  0  0  0
    0.7614   -3.8113   -1.8095 C   0  0  0  0  0  0  0  0  0  0  0  0
   -0.0728   -4.1251   -0.7271 C   0  0  0  0  0  0  0  0  0  0  0  0
   -0.9484   -5.1988   -0.7978 C   0  0  0  0  0  0  0  0  0  0  0  0
   -0.9927   -5.9914   -1.9472 C   0  0  0  0  0  0  0  0  0  0  0  0
   -0.1441   -5.7280   -3.0522 C   0  0  0  0  0  0  0  0  0  0  0  0
    0.7416   -4.6224   -2.9675 C   0  0  0  0  0  0  0  0  0  0  0  0
    1.8679   -4.2540   -4.2340 Cl  0  0  0  0  0  0  0  0  0  0  0  0
   -0.2189   -6.6249   -4.2630 C   0  0  0  0  0  0  0  0  0  0  0  0
    0.4819   -6.4713   -5.2441 O   0  0  0  0  0  0  0  0  0  0  0  0
   -1.2124   -7.7496   -4.2378 C   0  0  0  0  0  0  0  0  0  0  0  0
   -1.2981   -8.5813   -5.3646 C   0  0  0  0  0  0  0  0  0  0  0  0
   -2.2053   -9.6395   -5.3882 C   0  0  0  0  0  0  0  0  0  0  0  0
   -3.0386   -9.8810   -4.2862 C   0  0  0  0  0  0  0  0  0  0  0  0
   -2.9608   -9.0612   -3.1627 C   0  0  0  0  0  0  0  0  0  0  0  0
   -2.0496   -7.9944   -3.1345 C   0  0  0  0  0  0  0  0  0  0  0  0
   -1.9775   -7.1298   -1.9323 C   0  0  0  0  0  0  0  0  0  0  0  0
   -2.6846   -7.3219   -0.9580 O   0  0  0  0  0  0  0  0  0  0  0  0
    1.4531    0.5061   -0.7398 N   0  0  0  0  0  0  0  0  0  0  0  0
    0.6311    1.6790   -0.6801 C   0  0  0  0  0  0  0  0  0  0  0  0
    0.0501    2.0300   -1.6889 O   0  0  0  0  0  0  0  0  0  0  0  0
    0.5820    2.2830    0.5290 N   0  0  0  0  0  0  0  0  0  0  0  0
   -0.1802    3.5110    0.7494 C   0  0  1  0  0  0  0  0  0  0  0  0
   -0.8928    3.4622    2.1132 C   0  0  0  0  0  0  0  0  0  0  0  0
    0.0825    3.5772    3.2949 C   0  0  0  0  0  0  0  0  0  0  0  0
    0.9727    4.8225    3.1741 C   0  0  0  0  0  0  0  0  0  0  0  0
    1.7000    4.8678    1.8226 C   0  0  0  0  0  0  0  0  0  0  0  0
    0.7139    4.7651    0.6516 C   0  0  0  0  0  0  0  0  0  0  0  0
    3.5828   -1.6390    0.6786 H   0  0  0  0  0  0  0  0  0  0  0  0
    3.5962   -1.1416   -1.0588 H   0  0  0  0  0  0  0  0  0  0  0  0
   -0.0306   -3.5045    0.1687 H   0  0  0  0  0  0  0  0  0  0  0  0
   -1.6153   -5.4496    0.0279 H   0  0  0  0  0  0  0  0  0  0  0  0
   -0.6400   -8.3750   -6.2101 H   0  0  0  0  0  0  0  0  0  0  0  0
   -2.2665  -10.2827   -6.2696 H   0  0  0  0  0  0  0  0  0  0  0  0
   -3.7484  -10.7115   -4.3089 H   0  0  0  0  0  0  0  0  0  0  0  0
   -3.5953   -9.2230   -2.2894 H   0  0  0  0  0  0  0  0  0  0  0  0
    1.4625    0.0753   -1.6653 H   0  0  0  0  0  0  0  0  0  0  0  0
    1.1626    1.8813    1.2651 H   0  0  0  0  0  0  0  0  0  0  0  0
   -0.9263    3.5468   -0.0570 H   0  0  0  0  0  0  0  0  0  0  0  0
   -1.4898    2.5383    2.1853 H   0  0  0  0  0  0  0  0  0  0  0  0
   -1.6055    4.3046    2.1516 H   0  0  0  0  0  0  0  0  0  0  0  0
    0.7199    2.6746    3.3462 H   0  0  0  0  0  0  0  0  0  0  0  0
   -0.4805    3.5972    4.2429 H   0  0  0  0  0  0  0  0  0  0  0  0
    1.6990    4.8549    4.0035 H   0  0  0  0  0  0  0  0  0  0  0  0
    0.3440    5.7268    3.2763 H   0  0  0  0  0  0  0  0  0  0  0  0
    2.4227    4.0331    1.7671 H   0  0  0  0  0  0  0  0  0  0  0  0
    2.2948    5.7924    1.7369 H   0  0  0  0  0  0  0  0  0  0  0  0
    1.2434    4.7589   -0.3148 H   0  0  0  0  0  0  0  0  0  0  0  0
    0.0574    5.6539    0.6456 H   0  0  0  0  0  0  0  0  0  0  0  0
  1  2  2  0
  2  3  1  0
  2 24  1  0
  3  4  1  0
  3 34  1  0
  3 35  1  0
  4  5  1  0
  5  6  2  0
  5  7  1  0
  7  8  2  0
  7 12  1  0
  8  9  1  0
  8 36  1  0
  9 10  2  0
  9 37  1  0
 10 11  1  0
 10 22  1  0
 11 12  2  0
 11 14  1  0
 12 13  1  0
 14 15  2  0
 14 16  1  0
 16 17  2  0
 16 21  1  0
 17 18  1  0
 17 38  1  0
 18 19  2  0
 18 39  1  0
 19 20  1  0
 19 40  1  0
 20 21  2  0
 20 41  1  0
 21 22  1  0
 22 23  2  0
 24 25  1  0
 24 42  1  0
 25 26  2  0
 25 27  1  0
 27 28  1  0
 27 43  1  0
 28 29  1  0
 28 33  1  0
 28 44  1  6
 29 30  1  0
 29 45  1  0
 29 46  1  0
 30 31  1  0
 30 47  1  0
 30 48  1  0
 31 32  1  0
 31 49  1  0
 31 50  1  0
 32 33  1  0
 32 51  1  0
 32 52  1  0
 33 53  1  0
 33 54  1  0
M  END

