
     RDKit          3D

 40 41  0  0  0  0  0  0  0  0999 V2000
    0.7815   -0.0029    1.0837 C   0  0  0  0  0  0  0  0  0  0  0  0
    2.1761    0.0076    0.4944 C   0  0  0  0  0  0  0  0  0  0  0  0
    2.8761    1.2267    0.4654 C   0  0  0  0  0  0  0  0  0  0  0  0
    4.1775    1.3211   -0.0283 C   0  0  0  0  0  0  0  0  0  0  0  0
    4.8292    0.1741   -0.4885 C   0  0  0  0  0  0  0  0  0  0  0  0
    4.1616   -1.0476   -0.4548 C   0  0  0  0  0  0  0  0  0  0  0  0
    2.8367   -1.1458    0.0056 C   0  0  0  0  0  0  0  0  0  0  0  0
    2.2595   -2.5424   -0.0275 C   0  0  0  0  0  0  0  0  0  0  0  0
    2.9563   -3.5250    0.1799 O   0  0  0  0  0  0  0  0  0  0  0  0
    0.9309   -2.6596   -0.3416 N   0  0  0  0  0  0  0  0  0  0  0  0
    0.3092   -3.9560   -0.5147 C   0  0  0  0  0  0  0  0  0  0  0  0
   -1.1970   -3.8880   -0.2940 C   0  0  0  0  0  0  0  0  0  0  0  0
   -1.8053   -2.9657   -1.2615 N   0  0  0  0  0  0  0  0  0  0  0  0
   -3.4433   -2.5602   -1.0789 S   0  0  1  0  0  0  0  0  0  0  0  0
   -3.9020   -2.2583   -2.4359 O   0  0  0  0  0  0  0  0  0  0  0  0
   -4.1080   -3.5553   -0.2332 O   0  0  0  0  0  0  0  0  0  0  0  0
   -3.3826   -1.0258   -0.1502 C   0  0  0  0  0  0  0  0  0  0  0  0
   -3.0759    0.1631   -0.8208 C   0  0  0  0  0  0  0  0  0  0  0  0
   -3.0376    1.3603   -0.1067 C   0  0  0  0  0  0  0  0  0  0  0  0
   -3.3131    1.3501    1.2671 C   0  0  0  0  0  0  0  0  0  0  0  0
   -3.2519    2.9825    2.2417 Br  0  0  0  0  0  0  0  0  0  0  0  0
   -3.6374    0.1638    1.9321 C   0  0  0  0  0  0  0  0  0  0  0  0
   -3.6766   -1.0350    1.2146 C   0  0  0  0  0  0  0  0  0  0  0  0
    0.6343    0.8747    1.7300 H   0  0  0  0  0  0  0  0  0  0  0  0
    0.5876   -0.9047    1.6811 H   0  0  0  0  0  0  0  0  0  0  0  0
   -0.0031    0.0465    0.3079 H   0  0  0  0  0  0  0  0  0  0  0  0
    2.3851    2.1229    0.8552 H   0  0  0  0  0  0  0  0  0  0  0  0
    4.6867    2.2884   -0.0380 H   0  0  0  0  0  0  0  0  0  0  0  0
    5.8545    0.2297   -0.8620 H   0  0  0  0  0  0  0  0  0  0  0  0
    4.6566   -1.9638   -0.7824 H   0  0  0  0  0  0  0  0  0  0  0  0
    0.4230   -1.8574   -0.6951 H   0  0  0  0  0  0  0  0  0  0  0  0
    0.7649   -4.6544    0.2018 H   0  0  0  0  0  0  0  0  0  0  0  0
    0.5208   -4.3723   -1.5207 H   0  0  0  0  0  0  0  0  0  0  0  0
   -1.4049   -3.5074    0.7178 H   0  0  0  0  0  0  0  0  0  0  0  0
   -1.6305   -4.9012   -0.3572 H   0  0  0  0  0  0  0  0  0  0  0  0
   -1.6855   -3.2418   -2.2386 H   0  0  0  0  0  0  0  0  0  0  0  0
   -2.8839    0.1497   -1.8953 H   0  0  0  0  0  0  0  0  0  0  0  0
   -2.8031    2.2983   -0.6124 H   0  0  0  0  0  0  0  0  0  0  0  0
   -3.8636    0.1757    2.9994 H   0  0  0  0  0  0  0  0  0  0  0  0
   -3.9471   -1.9725    1.7036 H   0  0  0  0  0  0  0  0  0  0  0  0
  1  2  1  0
  1 24  1  0
  1 25  1  0
  1 26  1  0
  2  3  2  0
  2  7  1  0
  3  4  1  0
  3 27  1  0
  4  5  2  0
  4 28  1  0
  5  6  1  0
  5 29  1  0
  6  7  2  0
  6 30  1  0
  7  8  1  0
  8  9  2  0
  8 10  1  0
 10 11  1  0
 10 31  1  0
 11 12  1  0
 11 32  1  0
 11 33  1  0
 12 13  1  0
 12 34  1  0
 12 35  1  0
 14 13  1  6
 13 36  1  0
 14 15  2  0
 14 16  2  0
 14 17  1  0
 17 18  2  0
 17 23  1  0
 18 19  1  0
 18 37  1  0
 19 20  2  0
 19 38  1  0
 20 21  1  0
 20 22  1  0
 22 23  2  0
 22 39  1  0
 23 40  1  0
M  END

