
     RDKit          3D

 29 29  0  0  0  0  0  0  0  0999 V2000
    0.5417    0.1895   -0.3424 C   0  0  0  0  0  0  0  0  0  0  0  0
    2.0601    0.1730   -0.1633 C   0  0  0  0  0  0  0  0  0  0  0  0
    2.7577    1.3542   -0.8430 C   0  0  0  0  0  0  0  0  0  0  0  0
    4.2820    1.3239   -0.6876 C   0  0  1  0  0  0  0  0  0  0  0  0
    4.9140    0.1584   -1.2006 O   0  0  0  0  0  0  0  0  0  0  0  0
    4.6912   -0.1431   -2.5609 C   0  0  0  0  0  0  0  0  0  0  0  0
    4.9415    2.5796   -1.2254 C   0  0  0  0  0  0  0  0  0  0  0  0
    4.3635    3.7246   -1.4202 N   0  0  0  0  0  0  0  0  0  0  0  0
    5.2569    4.6824   -1.8342 C   0  0  0  0  0  0  0  0  0  0  0  0
    6.5600    4.2751   -1.9700 C   0  0  0  0  0  0  0  0  0  0  0  0
    7.7534    5.0881   -2.3976 C   0  0  0  0  0  0  0  0  0  0  0  0
    7.3321    6.2902   -3.1039 N   0  0  0  0  0  0  0  0  0  0  0  0
    6.6745    2.5868   -1.5532 S   0  0  0  0  0  0  0  0  0  0  0  0
    0.0657   -0.6649    0.1648 H   0  0  0  0  0  0  0  0  0  0  0  0
    0.2626    0.1407   -1.4084 H   0  0  0  0  0  0  0  0  0  0  0  0
    0.0986    1.1116    0.0698 H   0  0  0  0  0  0  0  0  0  0  0  0
    2.4744   -0.7724   -0.5529 H   0  0  0  0  0  0  0  0  0  0  0  0
    2.3066    0.1804    0.9140 H   0  0  0  0  0  0  0  0  0  0  0  0
    2.4040    2.3084   -0.4218 H   0  0  0  0  0  0  0  0  0  0  0  0
    2.4931    1.3962   -1.9137 H   0  0  0  0  0  0  0  0  0  0  0  0
    4.5091    1.2764    0.3931 H   0  0  0  0  0  0  0  0  0  0  0  0
    5.3810   -0.9588   -2.8227 H   0  0  0  0  0  0  0  0  0  0  0  0
    4.9009    0.7156   -3.2254 H   0  0  0  0  0  0  0  0  0  0  0  0
    3.6589   -0.4887   -2.7536 H   0  0  0  0  0  0  0  0  0  0  0  0
    4.9193    5.6975   -2.0438 H   0  0  0  0  0  0  0  0  0  0  0  0
    8.4495    4.4329   -2.9655 H   0  0  0  0  0  0  0  0  0  0  0  0
    8.3138    5.4031   -1.4981 H   0  0  0  0  0  0  0  0  0  0  0  0
    6.9412    6.0500   -4.0154 H   0  0  0  0  0  0  0  0  0  0  0  0
    8.1278    6.9041   -3.2718 H   0  0  0  0  0  0  0  0  0  0  0  0
  1  2  1  0
  1 14  1  0
  1 15  1  0
  1 16  1  0
  2  3  1  0
  2 17  1  0
  2 18  1  0
  3  4  1  0
  3 19  1  0
  3 20  1  0
  4  5  1  0
  4  7  1  0
  4 21  1  1
  5  6  1  0
  6 22  1  0
  6 23  1  0
  6 24  1  0
  7  8  2  0
  7 13  1  0
  8  9  1  0
  9 10  2  0
  9 25  1  0
 10 11  1  0
 10 13  1  0
 11 12  1  0
 11 26  1  0
 11 27  1  0
 12 28  1  0
 12 29  1  0
M  END

