
     RDKit          3D

 50 51  0  0  0  0  0  0  0  0999 V2000
    4.7264    2.3693   -2.1130 C   0  0  0  0  0  0  0  0  0  0  0  0
    3.4979    1.6368   -1.5951 C   0  0  0  0  0  0  0  0  0  0  0  0
    2.3800    2.1130   -1.6965 O   0  0  0  0  0  0  0  0  0  0  0  0
    3.7190    0.4034   -1.0037 N   0  0  0  0  0  0  0  0  0  0  0  0
    2.5850   -0.3487   -0.4786 C   0  0  0  0  0  0  0  0  0  0  0  0
    5.0155   -0.1876   -0.8708 C   0  0  0  0  0  0  0  0  0  0  0  0
    5.7894    0.0245    0.2781 C   0  0  0  0  0  0  0  0  0  0  0  0
    7.0433   -0.5662    0.4377 C   0  0  0  0  0  0  0  0  0  0  0  0
    7.5535   -1.4043   -0.5723 C   0  0  0  0  0  0  0  0  0  0  0  0
    8.8028   -2.0385   -0.5020 N   0  0  0  0  0  0  0  0  0  0  0  0
    9.7429   -1.9888    0.5242 C   0  0  0  0  0  0  0  0  0  0  0  0
    9.5868   -1.3541    1.5552 O   0  0  0  0  0  0  0  0  0  0  0  0
   10.8715   -2.7309    0.2626 N   0  0  0  0  0  0  0  0  0  0  0  0
   11.9829   -2.8165    1.1957 C   0  0  0  0  0  0  0  0  0  0  0  0
   13.2933   -2.2138    0.6705 C   0  0  0  0  0  0  0  0  0  0  0  0
   13.2437   -0.7229    0.2788 C   0  0  1  0  0  0  0  0  0  0  0  0
   12.8624    0.2234    1.4394 C   0  0  0  0  0  0  0  0  0  0  0  0
   13.9805    0.3734    2.4811 C   0  0  0  0  0  0  0  0  0  0  0  0
   15.2951    0.8276    1.8316 C   0  0  0  0  0  0  0  0  0  0  0  0
   15.7069   -0.0990    0.6791 C   0  0  0  0  0  0  0  0  0  0  0  0
   14.5765   -0.2585   -0.3495 C   0  0  0  0  0  0  0  0  0  0  0  0
    6.7744   -1.6262   -1.7248 C   0  0  0  0  0  0  0  0  0  0  0  0
    5.5243   -1.0298   -1.8692 C   0  0  0  0  0  0  0  0  0  0  0  0
    4.3905    3.3209   -2.5421 H   0  0  0  0  0  0  0  0  0  0  0  0
    5.2512    1.7828   -2.8822 H   0  0  0  0  0  0  0  0  0  0  0  0
    5.4506    2.5623   -1.3072 H   0  0  0  0  0  0  0  0  0  0  0  0
    1.6776    0.2419   -0.6548 H   0  0  0  0  0  0  0  0  0  0  0  0
    2.7004   -0.5321    0.6030 H   0  0  0  0  0  0  0  0  0  0  0  0
    2.4911   -1.3254   -0.9832 H   0  0  0  0  0  0  0  0  0  0  0  0
    5.3991    0.6730    1.0667 H   0  0  0  0  0  0  0  0  0  0  0  0
    7.6362   -0.3917    1.3320 H   0  0  0  0  0  0  0  0  0  0  0  0
    9.0279   -2.6122   -1.3058 H   0  0  0  0  0  0  0  0  0  0  0  0
   10.9584   -3.2203   -0.6200 H   0  0  0  0  0  0  0  0  0  0  0  0
   12.1563   -3.8749    1.4619 H   0  0  0  0  0  0  0  0  0  0  0  0
   11.6508   -2.3091    2.1111 H   0  0  0  0  0  0  0  0  0  0  0  0
   13.6234   -2.7935   -0.2124 H   0  0  0  0  0  0  0  0  0  0  0  0
   14.0632   -2.3935    1.4398 H   0  0  0  0  0  0  0  0  0  0  0  0
   12.4617   -0.6282   -0.4957 H   0  0  0  0  0  0  0  0  0  0  0  0
   11.9205   -0.0978    1.9110 H   0  0  0  0  0  0  0  0  0  0  0  0
   12.6527    1.2189    1.0071 H   0  0  0  0  0  0  0  0  0  0  0  0
   14.1428   -0.5862    3.0054 H   0  0  0  0  0  0  0  0  0  0  0  0
   13.6716    1.0917    3.2590 H   0  0  0  0  0  0  0  0  0  0  0  0
   16.0999    0.8846    2.5842 H   0  0  0  0  0  0  0  0  0  0  0  0
   15.1651    1.8536    1.4392 H   0  0  0  0  0  0  0  0  0  0  0  0
   15.9870   -1.0871    1.0871 H   0  0  0  0  0  0  0  0  0  0  0  0
   16.6120    0.2889    0.1816 H   0  0  0  0  0  0  0  0  0  0  0  0
   14.8836   -0.9559   -1.1487 H   0  0  0  0  0  0  0  0  0  0  0  0
   14.4079    0.7170   -0.8407 H   0  0  0  0  0  0  0  0  0  0  0  0
    7.1547   -2.2766   -2.5188 H   0  0  0  0  0  0  0  0  0  0  0  0
    4.9316   -1.2141   -2.7686 H   0  0  0  0  0  0  0  0  0  0  0  0
  1  2  1  0
  1 24  1  0
  1 25  1  0
  1 26  1  0
  2  3  2  0
  2  4  1  0
  4  5  1  0
  4  6  1  0
  5 27  1  0
  5 28  1  0
  5 29  1  0
  6  7  2  0
  6 23  1  0
  7  8  1  0
  7 30  1  0
  8  9  2  0
  8 31  1  0
  9 10  1  0
  9 22  1  0
 10 11  1  0
 10 32  1  0
 11 12  2  0
 11 13  1  0
 13 14  1  0
 13 33  1  0
 14 15  1  0
 14 34  1  0
 14 35  1  0
 15 16  1  0
 15 36  1  0
 15 37  1  0
 16 17  1  0
 16 21  1  0
 16 38  1  6
 17 18  1  0
 17 39  1  0
 17 40  1  0
 18 19  1  0
 18 41  1  0
 18 42  1  0
 19 20  1  0
 19 43  1  0
 19 44  1  0
 20 21  1  0
 20 45  1  0
 20 46  1  0
 21 47  1  0
 21 48  1  0
 22 23  2  0
 22 49  1  0
 23 50  1  0
M  END

