
     RDKit          3D

 37 37  0  0  0  0  0  0  0  0999 V2000
    2.9888   -1.5133    0.0942 C   0  0  0  0  0  0  0  0  0  0  0  0
    2.4833   -0.0678   -0.0155 C   0  0  1  0  0  0  0  0  0  0  0  0
    0.9524   -0.0310   -0.1152 C   0  0  0  0  0  0  0  0  0  0  0  0
    2.9972    0.8599    1.1214 C   0  0  1  0  0  0  0  0  0  0  0  0
    2.4509    0.4634    2.4172 N   0  0  0  0  0  0  0  0  0  0  0  0
    1.4908    1.1772    3.0801 C   0  0  0  0  0  0  0  0  0  0  0  0
    0.9971    2.2018    2.6301 O   0  0  0  0  0  0  0  0  0  0  0  0
    1.0514    0.6261    4.4148 C   0  0  0  0  0  0  0  0  0  0  0  0
    1.8003   -0.2836    5.1792 C   0  0  0  0  0  0  0  0  0  0  0  0
    1.3341   -0.7375    6.4146 C   0  0  0  0  0  0  0  0  0  0  0  0
    0.1074   -0.2702    6.8819 C   0  0  0  0  0  0  0  0  0  0  0  0
   -0.3469   -0.7042    8.0644 F   0  0  0  0  0  0  0  0  0  0  0  0
   -0.6541    0.6432    6.1536 C   0  0  0  0  0  0  0  0  0  0  0  0
   -0.1714    1.0915    4.9257 C   0  0  0  0  0  0  0  0  0  0  0  0
    4.5410    1.0101    1.2098 C   0  0  1  0  0  0  0  0  0  0  0  0
    5.1725    1.3819   -0.1392 C   0  0  0  0  0  0  0  0  0  0  0  0
    4.9329    2.0432    2.2761 C   0  0  0  0  0  0  0  0  0  0  0  0
    2.6160   -2.1187   -0.7474 H   0  0  0  0  0  0  0  0  0  0  0  0
    2.6283   -1.9997    1.0174 H   0  0  0  0  0  0  0  0  0  0  0  0
    4.0880   -1.5801    0.0847 H   0  0  0  0  0  0  0  0  0  0  0  0
    2.8780    0.3541   -0.9549 H   0  0  0  0  0  0  0  0  0  0  0  0
    0.4823   -0.4932    0.7680 H   0  0  0  0  0  0  0  0  0  0  0  0
    0.6071   -0.5857   -1.0025 H   0  0  0  0  0  0  0  0  0  0  0  0
    0.5752    1.0005   -0.1851 H   0  0  0  0  0  0  0  0  0  0  0  0
    2.5745    1.8598    0.9369 H   0  0  0  0  0  0  0  0  0  0  0  0
    2.7387   -0.4293    2.7969 H   0  0  0  0  0  0  0  0  0  0  0  0
    2.7770   -0.6329    4.8352 H   0  0  0  0  0  0  0  0  0  0  0  0
    1.9091   -1.4377    7.0234 H   0  0  0  0  0  0  0  0  0  0  0  0
   -1.6063    0.9906    6.5591 H   0  0  0  0  0  0  0  0  0  0  0  0
   -0.7308    1.8182    4.3339 H   0  0  0  0  0  0  0  0  0  0  0  0
    4.9597    0.0332    1.5204 H   0  0  0  0  0  0  0  0  0  0  0  0
    4.7243    2.3060   -0.5430 H   0  0  0  0  0  0  0  0  0  0  0  0
    5.0571    0.5933   -0.8974 H   0  0  0  0  0  0  0  0  0  0  0  0
    6.2522    1.5651   -0.0202 H   0  0  0  0  0  0  0  0  0  0  0  0
    4.5574    3.0454    2.0094 H   0  0  0  0  0  0  0  0  0  0  0  0
    6.0284    2.1097    2.3720 H   0  0  0  0  0  0  0  0  0  0  0  0
    4.5228    1.7888    3.2643 H   0  0  0  0  0  0  0  0  0  0  0  0
  1  2  1  0
  1 18  1  0
  1 19  1  0
  1 20  1  0
  2  3  1  0
  2  4  1  0
  2 21  1  6
  3 22  1  0
  3 23  1  0
  3 24  1  0
  4  5  1  0
  4 15  1  0
  4 25  1  6
  5  6  1  0
  5 26  1  0
  6  7  2  0
  6  8  1  0
  8  9  2  0
  8 14  1  0
  9 10  1  0
  9 27  1  0
 10 11  2  0
 10 28  1  0
 11 12  1  0
 11 13  1  0
 13 14  2  0
 13 29  1  0
 14 30  1  0
 15 16  1  0
 15 17  1  0
 15 31  1  1
 16 32  1  0
 16 33  1  0
 16 34  1  0
 17 35  1  0
 17 36  1  0
 17 37  1  0
M  END

