
     RDKit          3D

 53 55  0  0  0  0  0  0  0  0999 V2000
    3.3417    0.9278    2.1967 C   0  0  0  0  0  0  0  0  0  0  0  0
    4.4155    1.4805    1.4695 O   0  0  0  0  0  0  0  0  0  0  0  0
    4.1752    2.0686    0.2714 C   0  0  0  0  0  0  0  0  0  0  0  0
    2.9092    2.1697   -0.3279 C   0  0  0  0  0  0  0  0  0  0  0  0
    2.7772    2.8021   -1.5655 C   0  0  0  0  0  0  0  0  0  0  0  0
    3.8843    3.3253   -2.2527 C   0  0  0  0  0  0  0  0  0  0  0  0
    3.6744    4.0248   -3.5538 C   0  0  0  0  0  0  0  0  0  0  0  0
    2.5512    4.7559   -3.6033 N   0  0  0  0  0  0  0  0  0  0  0  0
    2.2469    5.4574   -4.6917 C   0  0  0  0  0  0  0  0  0  0  0  0
    1.0687    6.1449   -4.6839 N   0  0  0  0  0  0  0  0  0  0  0  0
    3.1177    5.4823   -5.8204 C   0  0  0  0  0  0  0  0  0  0  0  0
    2.7699    6.3231   -6.9212 C   0  0  0  0  0  0  0  0  0  0  0  0
    2.3977    7.0340   -7.7646 N   0  0  0  0  0  0  0  0  0  0  0  0
    4.2847    4.6857   -5.7982 C   0  0  0  0  0  0  0  0  0  0  0  0
    5.1556    4.6574   -7.0083 C   0  0  0  0  0  0  0  0  0  0  0  0
    4.6366    4.1970   -8.2350 C   0  0  0  0  0  0  0  0  0  0  0  0
    5.3956    4.1677   -9.4027 C   0  0  0  0  0  0  0  0  0  0  0  0
    4.9544    3.7351  -10.6110 O   0  0  0  0  0  0  0  0  0  0  0  0
    3.5996    3.3756  -10.7462 C   0  0  0  0  0  0  0  0  0  0  0  0
    6.7385    4.6218   -9.3520 C   0  0  0  0  0  0  0  0  0  0  0  0
    7.4260    4.5672  -10.5157 O   0  0  0  0  0  0  0  0  0  0  0  0
    8.7605    5.0124  -10.5530 C   0  0  0  0  0  0  0  0  0  0  0  0
    7.2661    5.0919   -8.1453 C   0  0  0  0  0  0  0  0  0  0  0  0
    6.4837    5.1156   -6.9766 C   0  0  0  0  0  0  0  0  0  0  0  0
    6.9474    5.5833   -5.7832 O   0  0  0  0  0  0  0  0  0  0  0  0
    8.2324    6.1531   -5.7064 C   0  0  0  0  0  0  0  0  0  0  0  0
    4.5664    3.9081   -4.6539 C   0  0  0  0  0  0  0  0  0  0  0  0
    5.7282    2.9422   -4.6613 C   0  0  0  0  0  0  0  0  0  0  0  0
    5.1444    3.2237   -1.6292 C   0  0  0  0  0  0  0  0  0  0  0  0
    5.2902    2.6125   -0.3891 C   0  0  0  0  0  0  0  0  0  0  0  0
    3.7685    0.5170    3.1217 H   0  0  0  0  0  0  0  0  0  0  0  0
    2.8435    0.1130    1.6408 H   0  0  0  0  0  0  0  0  0  0  0  0
    2.5864    1.6904    2.4597 H   0  0  0  0  0  0  0  0  0  0  0  0
    2.0221    1.7656    0.1604 H   0  0  0  0  0  0  0  0  0  0  0  0
    1.7894    2.9013   -2.0184 H   0  0  0  0  0  0  0  0  0  0  0  0
    0.5857    6.2158   -3.7980 H   0  0  0  0  0  0  0  0  0  0  0  0
    0.8664    6.8237   -5.4059 H   0  0  0  0  0  0  0  0  0  0  0  0
    3.6042    3.8501   -8.2550 H   0  0  0  0  0  0  0  0  0  0  0  0
    3.4491    3.1139  -11.8024 H   0  0  0  0  0  0  0  0  0  0  0  0
    2.9248    4.2102  -10.4820 H   0  0  0  0  0  0  0  0  0  0  0  0
    3.3393    2.4993  -10.1235 H   0  0  0  0  0  0  0  0  0  0  0  0
    9.1063    4.8775  -11.5867 H   0  0  0  0  0  0  0  0  0  0  0  0
    9.4114    4.4242   -9.8800 H   0  0  0  0  0  0  0  0  0  0  0  0
    8.8468    6.0815  -10.2852 H   0  0  0  0  0  0  0  0  0  0  0  0
    8.2916    5.4502   -8.1162 H   0  0  0  0  0  0  0  0  0  0  0  0
    8.3626    6.4921   -4.6697 H   0  0  0  0  0  0  0  0  0  0  0  0
    8.3378    7.0222   -6.3806 H   0  0  0  0  0  0  0  0  0  0  0  0
    9.0270    5.4215   -5.9421 H   0  0  0  0  0  0  0  0  0  0  0  0
    5.9032    2.5630   -5.6785 H   0  0  0  0  0  0  0  0  0  0  0  0
    5.5414    2.0825   -4.0039 H   0  0  0  0  0  0  0  0  0  0  0  0
    6.6670    3.4196   -4.3377 H   0  0  0  0  0  0  0  0  0  0  0  0
    6.0245    3.6586   -2.1045 H   0  0  0  0  0  0  0  0  0  0  0  0
    6.2646    2.5476    0.0994 H   0  0  0  0  0  0  0  0  0  0  0  0
  1  2  1  0
  1 31  1  0
  1 32  1  0
  1 33  1  0
  2  3  1  0
  3  4  2  0
  3 30  1  0
  4  5  1  0
  4 34  1  0
  5  6  2  0
  5 35  1  0
  6  7  1  0
  6 29  1  0
  7  8  2  0
  7 27  1  0
  8  9  1  0
  9 10  1  0
  9 11  2  0
 10 36  1  0
 10 37  1  0
 11 12  1  0
 11 14  1  0
 12 13  3  0
 14 15  1  0
 14 27  2  0
 15 16  2  0
 15 24  1  0
 16 17  1  0
 16 38  1  0
 17 18  1  0
 17 20  2  0
 18 19  1  0
 19 39  1  0
 19 40  1  0
 19 41  1  0
 20 21  1  0
 20 23  1  0
 21 22  1  0
 22 42  1  0
 22 43  1  0
 22 44  1  0
 23 24  2  0
 23 45  1  0
 24 25  1  0
 25 26  1  0
 26 46  1  0
 26 47  1  0
 26 48  1  0
 27 28  1  0
 28 49  1  0
 28 50  1  0
 28 51  1  0
 29 30  2  0
 29 52  1  0
 30 53  1  0
M  END

