
     RDKit          3D

 29 31  0  0  0  0  0  0  0  0999 V2000
    4.6742   -2.8216    0.2629 F   0  0  0  0  0  0  0  0  0  0  0  0
    3.9818   -2.5208    1.3777 C   0  0  0  0  0  0  0  0  0  0  0  0
    4.6618   -2.3673    2.5799 C   0  0  0  0  0  0  0  0  0  0  0  0
    3.9398   -2.0580    3.7359 C   0  0  0  0  0  0  0  0  0  0  0  0
    2.5532   -1.9108    3.6533 C   0  0  0  0  0  0  0  0  0  0  0  0
    1.5580   -1.4888    5.2237 Br  0  0  0  0  0  0  0  0  0  0  0  0
    1.8805   -2.0671    2.4368 C   0  0  0  0  0  0  0  0  0  0  0  0
    2.5934   -2.3773    1.2734 C   0  0  0  0  0  0  0  0  0  0  0  0
    1.9323   -2.5776   -0.0821 C   0  0  0  0  0  0  0  0  0  0  0  0
    0.5184   -2.2838   -0.1243 N   0  0  0  0  0  0  0  0  0  0  0  0
   -0.5021   -3.2076    0.0325 C   0  0  0  0  0  0  0  0  0  0  0  0
   -1.7239   -2.5856   -0.0379 C   0  0  0  0  0  0  0  0  0  0  0  0
   -1.4665   -1.1873   -0.2491 C   0  0  0  0  0  0  0  0  0  0  0  0
   -2.2903   -0.0568   -0.4092 C   0  0  0  0  0  0  0  0  0  0  0  0
   -1.6831    1.1780   -0.6038 C   0  0  0  0  0  0  0  0  0  0  0  0
   -2.6821    2.6070   -0.8060 Cl  0  0  0  0  0  0  0  0  0  0  0  0
   -0.2797    1.3262   -0.6428 C   0  0  0  0  0  0  0  0  0  0  0  0
    0.5503    0.2206   -0.4856 C   0  0  0  0  0  0  0  0  0  0  0  0
   -0.0499   -1.0319   -0.2939 C   0  0  0  0  0  0  0  0  0  0  0  0
    5.7463   -2.4904    2.6013 H   0  0  0  0  0  0  0  0  0  0  0  0
    4.4537   -1.9327    4.6899 H   0  0  0  0  0  0  0  0  0  0  0  0
    0.7978   -1.9452    2.3893 H   0  0  0  0  0  0  0  0  0  0  0  0
    2.0768   -3.6210   -0.4070 H   0  0  0  0  0  0  0  0  0  0  0  0
    2.4505   -1.9620   -0.8352 H   0  0  0  0  0  0  0  0  0  0  0  0
   -0.2638   -4.2601    0.1790 H   0  0  0  0  0  0  0  0  0  0  0  0
   -2.6948   -3.0697    0.0428 H   0  0  0  0  0  0  0  0  0  0  0  0
   -3.3781   -0.1387   -0.3823 H   0  0  0  0  0  0  0  0  0  0  0  0
    0.1455    2.3194   -0.7941 H   0  0  0  0  0  0  0  0  0  0  0  0
    1.6352    0.3419   -0.5068 H   0  0  0  0  0  0  0  0  0  0  0  0
  1  2  1  0
  2  3  2  0
  2  8  1  0
  3  4  1  0
  3 20  1  0
  4  5  2  0
  4 21  1  0
  5  6  1  0
  5  7  1  0
  7  8  2  0
  7 22  1  0
  8  9  1  0
  9 10  1  0
  9 23  1  0
  9 24  1  0
 10 11  1  0
 10 19  1  0
 11 12  2  0
 11 25  1  0
 12 13  1  0
 12 26  1  0
 13 14  1  0
 13 19  2  0
 14 15  2  0
 14 27  1  0
 15 16  1  0
 15 17  1  0
 17 18  2  0
 17 28  1  0
 18 19  1  0
 18 29  1  0
M  END

