
     RDKit          3D

 35 37  0  0  0  0  0  0  0  0999 V2000
    1.8376    0.2801   -2.0065 C   0  0  0  0  0  0  0  0  0  0  0  0
    2.9800    0.0771   -1.2070 O   0  0  0  0  0  0  0  0  0  0  0  0
    3.4975    1.1219   -0.5209 C   0  0  0  0  0  0  0  0  0  0  0  0
    2.9973    2.4186   -0.5270 C   0  0  0  0  0  0  0  0  0  0  0  0
    3.6020    3.4641    0.2246 C   0  0  0  0  0  0  0  0  0  0  0  0
    2.9701    4.7714    0.1225 C   0  0  0  0  0  0  0  0  0  0  0  0
    3.2095    6.0068    0.6537 C   0  0  0  0  0  0  0  0  0  0  0  0
    2.1353    7.3578    0.2309 S   0  0  0  0  0  0  0  0  0  0  0  0
    3.1100    8.4243    1.2677 C   0  0  0  0  0  0  0  0  0  0  0  0
    2.7564    9.8462    1.4067 C   0  0  0  0  0  0  0  0  0  0  0  0
    3.5483   10.6621    2.2380 C   0  0  0  0  0  0  0  0  0  0  0  0
    3.2415   12.0125    2.3921 C   0  0  0  0  0  0  0  0  0  0  0  0
    2.1444   12.5664    1.7214 C   0  0  0  0  0  0  0  0  0  0  0  0
    1.3528   11.7630    0.8938 C   0  0  0  0  0  0  0  0  0  0  0  0
    1.6561   10.4107    0.7367 C   0  0  0  0  0  0  0  0  0  0  0  0
    4.1143    7.8824    1.8688 N   0  0  0  0  0  0  0  0  0  0  0  0
    4.2690    6.5168    1.5959 C   0  0  0  0  0  0  0  0  0  0  0  0
    5.1644    5.8505    2.0795 O   0  0  0  0  0  0  0  0  0  0  0  0
    4.7423    3.1612    0.9941 C   0  0  0  0  0  0  0  0  0  0  0  0
    5.2348    1.8603    0.9933 C   0  0  0  0  0  0  0  0  0  0  0  0
    6.7851    1.4263    2.0333 Br  0  0  0  0  0  0  0  0  0  0  0  0
    4.6492    0.8184    0.2572 C   0  0  0  0  0  0  0  0  0  0  0  0
    5.1047   -0.4403    0.2409 O   0  0  0  0  0  0  0  0  0  0  0  0
    1.5995   -0.6903   -2.4617 H   0  0  0  0  0  0  0  0  0  0  0  0
    2.0234    1.0164   -2.8097 H   0  0  0  0  0  0  0  0  0  0  0  0
    0.9715    0.6171   -1.4081 H   0  0  0  0  0  0  0  0  0  0  0  0
    2.1149    2.6490   -1.1237 H   0  0  0  0  0  0  0  0  0  0  0  0
    2.0975    4.7433   -0.5408 H   0  0  0  0  0  0  0  0  0  0  0  0
    4.3981   10.2086    2.7505 H   0  0  0  0  0  0  0  0  0  0  0  0
    3.8605   12.6390    3.0389 H   0  0  0  0  0  0  0  0  0  0  0  0
    1.9058   13.6260    1.8439 H   0  0  0  0  0  0  0  0  0  0  0  0
    0.4960   12.1920    0.3689 H   0  0  0  0  0  0  0  0  0  0  0  0
    1.0316    9.7914    0.0877 H   0  0  0  0  0  0  0  0  0  0  0  0
    5.2236    3.9437    1.5783 H   0  0  0  0  0  0  0  0  0  0  0  0
    5.8890   -0.4905    0.8153 H   0  0  0  0  0  0  0  0  0  0  0  0
  1  2  1  0
  1 24  1  0
  1 25  1  0
  1 26  1  0
  2  3  1  0
  3  4  2  0
  3 22  1  0
  4  5  1  0
  4 27  1  0
  5  6  1  0
  5 19  2  0
  6  7  2  0
  6 28  1  0
  7  8  1  0
  7 17  1  0
  8  9  2  0
  9 10  1  0
  9 16  1  0
 10 11  2  0
 10 15  1  0
 11 12  1  0
 11 29  1  0
 12 13  2  0
 12 30  1  0
 13 14  1  0
 13 31  1  0
 14 15  2  0
 14 32  1  0
 15 33  1  0
 16 17  2  0
 17 18  1  0
 19 20  1  0
 19 34  1  0
 20 21  1  0
 20 22  2  0
 22 23  1  0
 23 35  1  0
M  CHG  2   8   1  18  -1
M  END

