
     RDKit          3D

 37 40  0  0  0  0  0  0  0  0999 V2000
    1.0558   -0.1828    0.7610 C   0  0  0  0  0  0  0  0  0  0  0  0
    2.5141   -0.1166    0.3761 C   0  0  0  0  0  0  0  0  0  0  0  0
    3.1859    1.1086    0.2581 C   0  0  0  0  0  0  0  0  0  0  0  0
    4.5374    1.1532   -0.1032 C   0  0  0  0  0  0  0  0  0  0  0  0
    5.2379   -0.0228   -0.3559 C   0  0  0  0  0  0  0  0  0  0  0  0
    4.5860   -1.2674   -0.2524 C   0  0  0  0  0  0  0  0  0  0  0  0
    5.2787   -2.5508   -0.5170 C   0  0  0  0  0  0  0  0  0  0  0  0
    6.5244   -2.6365   -1.1147 C   0  0  0  0  0  0  0  0  0  0  0  0
    7.2227   -3.8747   -1.2035 C   0  0  0  0  0  0  0  0  0  0  0  0
    8.6104   -3.9748   -1.6205 C   0  0  0  0  0  0  0  0  0  0  0  0
    9.3643   -2.8502   -2.0420 C   0  0  0  0  0  0  0  0  0  0  0  0
   10.6828   -2.9849   -2.4364 C   0  0  0  0  0  0  0  0  0  0  0  0
   11.3050   -4.2528   -2.4193 C   0  0  0  0  0  0  0  0  0  0  0  0
   10.5985   -5.3664   -2.0085 C   0  0  0  0  0  0  0  0  0  0  0  0
    9.2441   -5.2560   -1.6020 C   0  0  0  0  0  0  0  0  0  0  0  0
    8.4889   -6.3878   -1.1679 C   0  0  0  0  0  0  0  0  0  0  0  0
    7.1848   -6.2225   -0.8053 C   0  0  0  0  0  0  0  0  0  0  0  0
    6.5673   -5.0038   -0.8444 N   0  0  0  0  0  0  0  0  0  0  0  0
    4.9878   -4.9745   -0.5967 B   0  0  1  0  0  0  0  0  0  0  0  0
    4.3726   -5.2303   -1.8026 F   0  0  0  0  0  0  0  0  0  0  0  0
    4.6800   -5.9032    0.3667 F   0  0  0  0  0  0  0  0  0  0  0  0
    4.6353   -3.6213   -0.1223 O   0  0  0  0  0  0  0  0  0  0  0  0
    3.2315   -1.2938    0.1200 C   0  0  0  0  0  0  0  0  0  0  0  0
    0.6525    0.8130    0.9963 H   0  0  0  0  0  0  0  0  0  0  0  0
    0.9047   -0.8279    1.6419 H   0  0  0  0  0  0  0  0  0  0  0  0
    0.4483   -0.6083   -0.0552 H   0  0  0  0  0  0  0  0  0  0  0  0
    2.6478    2.0401    0.4553 H   0  0  0  0  0  0  0  0  0  0  0  0
    5.0481    2.1164   -0.1795 H   0  0  0  0  0  0  0  0  0  0  0  0
    6.2968    0.0305   -0.6131 H   0  0  0  0  0  0  0  0  0  0  0  0
    7.0115   -1.7288   -1.4513 H   0  0  0  0  0  0  0  0  0  0  0  0
    8.9049   -1.8622   -2.0625 H   0  0  0  0  0  0  0  0  0  0  0  0
   11.2454   -2.1069   -2.7619 H   0  0  0  0  0  0  0  0  0  0  0  0
   12.3478   -4.3502   -2.7316 H   0  0  0  0  0  0  0  0  0  0  0  0
   11.0736   -6.3505   -1.9912 H   0  0  0  0  0  0  0  0  0  0  0  0
    8.9489   -7.3763   -1.1298 H   0  0  0  0  0  0  0  0  0  0  0  0
    6.5503   -7.0423   -0.4682 H   0  0  0  0  0  0  0  0  0  0  0  0
    2.7374   -2.2633    0.2033 H   0  0  0  0  0  0  0  0  0  0  0  0
  1  2  1  0
  1 24  1  0
  1 25  1  0
  1 26  1  0
  2  3  2  0
  2 23  1  0
  3  4  1  0
  3 27  1  0
  4  5  2  0
  4 28  1  0
  5  6  1  0
  5 29  1  0
  6  7  1  0
  6 23  2  0
  7  8  1  0
  7 22  2  0
  8  9  2  0
  8 30  1  0
  9 10  1  0
  9 18  1  0
 10 11  2  0
 10 15  1  0
 11 12  1  0
 11 31  1  0
 12 13  2  0
 12 32  1  0
 13 14  1  0
 13 33  1  0
 14 15  2  0
 14 34  1  0
 15 16  1  0
 16 17  2  0
 16 35  1  0
 17 18  1  0
 17 36  1  0
 18 19  1  0
 19 20  1  6
 19 21  1  0
 19 22  1  0
 23 37  1  0
M  CHG  2  19  -1  22   1
M  END

