
     RDKit          3D

 46 49  0  0  0  0  0  0  0  0999 V2000
    2.4255   -0.8953    0.7088 C   0  0  0  0  0  0  0  0  0  0  0  0
    2.8709    0.5336    0.9725 C   0  0  0  0  0  0  0  0  0  0  0  0
    3.2766    1.1997   -0.2361 O   0  0  0  0  0  0  0  0  0  0  0  0
    4.5499    1.0268   -0.6512 C   0  0  0  0  0  0  0  0  0  0  0  0
    5.3707    0.3512   -0.0394 O   0  0  0  0  0  0  0  0  0  0  0  0
    4.8329    1.7296   -1.8790 C   0  0  0  0  0  0  0  0  0  0  0  0
    6.0917    1.7226   -2.4440 C   0  0  0  0  0  0  0  0  0  0  0  0
    7.1961    1.0920   -2.0396 N   0  0  0  0  0  0  0  0  0  0  0  0
    6.0985    2.5305   -3.5924 N   0  0  0  0  0  0  0  0  0  0  0  0
    7.1733    2.8248   -4.4137 C   0  0  0  0  0  0  0  0  0  0  0  0
    8.2676    2.2990   -4.2388 O   0  0  0  0  0  0  0  0  0  0  0  0
    6.8837    3.8244   -5.4660 C   0  0  0  0  0  0  0  0  0  0  0  0
    7.9023    4.1730   -6.3671 C   0  0  0  0  0  0  0  0  0  0  0  0
    7.6602    5.1316   -7.3472 C   0  0  0  0  0  0  0  0  0  0  0  0
    6.4044    5.7536   -7.4326 C   0  0  0  0  0  0  0  0  0  0  0  0
    5.3904    5.4162   -6.5391 C   0  0  0  0  0  0  0  0  0  0  0  0
    5.6225    4.4474   -5.5530 C   0  0  0  0  0  0  0  0  0  0  0  0
    4.5202    4.0981   -4.6165 C   0  0  0  0  0  0  0  0  0  0  0  0
    3.4196    4.6282   -4.6155 O   0  0  0  0  0  0  0  0  0  0  0  0
    4.8171    3.0855   -3.7398 N   0  0  0  0  0  0  0  0  0  0  0  0
    3.8881    2.5664   -2.7083 C   0  0  1  0  0  0  0  0  0  0  0  0
    2.7103    1.8142   -3.3344 C   0  0  0  0  0  0  0  0  0  0  0  0
    2.8784    0.5230   -3.8570 C   0  0  0  0  0  0  0  0  0  0  0  0
    1.8092   -0.1560   -4.4385 C   0  0  0  0  0  0  0  0  0  0  0  0
    0.5639    0.4730   -4.4851 C   0  0  0  0  0  0  0  0  0  0  0  0
   -0.5779   -0.2422   -5.0928 N   0  0  0  0  0  0  0  0  0  0  0  0
   -0.3715   -1.3598   -5.5387 O   0  0  0  0  0  0  0  0  0  0  0  0
   -1.6568    0.3282   -5.1114 O   0  0  0  0  0  0  0  0  0  0  0  0
    0.3664    1.7557   -3.9738 C   0  0  0  0  0  0  0  0  0  0  0  0
    1.4497    2.4222   -3.4026 C   0  0  0  0  0  0  0  0  0  0  0  0
    2.0453   -1.3469    1.6393 H   0  0  0  0  0  0  0  0  0  0  0  0
    3.2676   -1.5063    0.3518 H   0  0  0  0  0  0  0  0  0  0  0  0
    1.6209   -0.9253   -0.0423 H   0  0  0  0  0  0  0  0  0  0  0  0
    3.7034    0.5590    1.6909 H   0  0  0  0  0  0  0  0  0  0  0  0
    2.0423    1.1437    1.3611 H   0  0  0  0  0  0  0  0  0  0  0  0
    7.0988    0.5458   -1.1853 H   0  0  0  0  0  0  0  0  0  0  0  0
    8.0522    1.2060   -2.5744 H   0  0  0  0  0  0  0  0  0  0  0  0
    8.8712    3.6794   -6.2733 H   0  0  0  0  0  0  0  0  0  0  0  0
    8.4512    5.4019   -8.0508 H   0  0  0  0  0  0  0  0  0  0  0  0
    6.2214    6.5061   -8.2035 H   0  0  0  0  0  0  0  0  0  0  0  0
    4.4049    5.8835   -6.5812 H   0  0  0  0  0  0  0  0  0  0  0  0
    3.4791    3.4292   -2.1554 H   0  0  0  0  0  0  0  0  0  0  0  0
    3.8547    0.0366   -3.7975 H   0  0  0  0  0  0  0  0  0  0  0  0
    1.9168   -1.1596   -4.8488 H   0  0  0  0  0  0  0  0  0  0  0  0
   -0.6220    2.2098   -4.0355 H   0  0  0  0  0  0  0  0  0  0  0  0
    1.3213    3.4358   -3.0183 H   0  0  0  0  0  0  0  0  0  0  0  0
  1  2  1  0
  1 31  1  0
  1 32  1  0
  1 33  1  0
  2  3  1  0
  2 34  1  0
  2 35  1  0
  3  4  1  0
  4  5  2  0
  4  6  1  0
  6  7  2  0
  6 21  1  0
  7  8  1  0
  7  9  1  0
  8 36  1  0
  8 37  1  0
  9 10  1  0
  9 20  1  0
 10 11  2  0
 10 12  1  0
 12 13  2  0
 12 17  1  0
 13 14  1  0
 13 38  1  0
 14 15  2  0
 14 39  1  0
 15 16  1  0
 15 40  1  0
 16 17  2  0
 16 41  1  0
 17 18  1  0
 18 19  2  0
 18 20  1  0
 20 21  1  0
 21 22  1  0
 21 42  1  1
 22 23  2  0
 22 30  1  0
 23 24  1  0
 23 43  1  0
 24 25  2  0
 24 44  1  0
 25 26  1  0
 25 29  1  0
 26 27  2  0
 26 28  1  0
 29 30  2  0
 29 45  1  0
 30 46  1  0
M  CHG  2  26   1  28  -1
M  END

