
     RDKit          3D

 36 37  0  0  0  0  0  0  0  0999 V2000
    1.1435    0.0985    0.2853 C   0  0  0  0  0  0  0  0  0  0  0  0
    2.4791   -0.1773   -0.2125 N   0  0  0  0  0  0  0  0  0  0  0  0
    2.6360   -1.5007   -0.8198 C   0  0  0  0  0  0  0  0  0  0  0  0
    2.1536   -1.5856   -2.2771 C   0  0  0  0  0  0  0  0  0  0  0  0
    2.8474   -0.5116   -3.1244 C   0  0  0  0  0  0  0  0  0  0  0  0
    2.6642    0.8770   -2.4952 C   0  0  0  0  0  0  0  0  0  0  0  0
    3.0695    0.9095   -1.0029 C   0  0  2  0  0  0  0  0  0  0  0  0
    4.5893    0.9236   -0.7878 C   0  0  0  0  0  0  0  0  0  0  0  0
    5.1120    2.0894   -1.4025 O   0  0  0  0  0  0  0  0  0  0  0  0
    6.4594    2.3041   -1.4142 C   0  0  0  0  0  0  0  0  0  0  0  0
    7.3995    1.4907   -0.7806 C   0  0  0  0  0  0  0  0  0  0  0  0
    8.7587    1.8080   -0.8500 C   0  0  0  0  0  0  0  0  0  0  0  0
    9.6599    1.0217   -0.2410 F   0  0  0  0  0  0  0  0  0  0  0  0
    9.1733    2.9392   -1.5429 C   0  0  0  0  0  0  0  0  0  0  0  0
   10.4771    3.2441   -1.6044 F   0  0  0  0  0  0  0  0  0  0  0  0
    8.2390    3.7612   -2.1740 C   0  0  0  0  0  0  0  0  0  0  0  0
    6.8708    3.4642   -2.1255 C   0  0  0  0  0  0  0  0  0  0  0  0
    5.9139    4.2231   -2.7827 N   0  0  0  0  0  0  0  0  0  0  0  0
    0.8310   -0.7054    0.9713 H   0  0  0  0  0  0  0  0  0  0  0  0
    0.3560    0.1900   -0.4955 H   0  0  0  0  0  0  0  0  0  0  0  0
    1.1451    1.0385    0.8604 H   0  0  0  0  0  0  0  0  0  0  0  0
    2.1079   -2.2325   -0.1876 H   0  0  0  0  0  0  0  0  0  0  0  0
    3.7037   -1.7857   -0.7849 H   0  0  0  0  0  0  0  0  0  0  0  0
    1.0589   -1.4420   -2.3191 H   0  0  0  0  0  0  0  0  0  0  0  0
    2.3525   -2.5943   -2.6778 H   0  0  0  0  0  0  0  0  0  0  0  0
    2.4571   -0.5124   -4.1556 H   0  0  0  0  0  0  0  0  0  0  0  0
    3.9235   -0.7508   -3.2081 H   0  0  0  0  0  0  0  0  0  0  0  0
    1.6016    1.1670   -2.5717 H   0  0  0  0  0  0  0  0  0  0  0  0
    3.2390    1.6377   -3.0465 H   0  0  0  0  0  0  0  0  0  0  0  0
    2.7064    1.8569   -0.5715 H   0  0  0  0  0  0  0  0  0  0  0  0
    5.0739    0.0289   -1.2181 H   0  0  0  0  0  0  0  0  0  0  0  0
    4.7920    0.9274    0.2977 H   0  0  0  0  0  0  0  0  0  0  0  0
    7.1109    0.6033   -0.2185 H   0  0  0  0  0  0  0  0  0  0  0  0
    8.6016    4.6395   -2.7122 H   0  0  0  0  0  0  0  0  0  0  0  0
    6.1666    5.1827   -2.9863 H   0  0  0  0  0  0  0  0  0  0  0  0
    4.9707    4.1135   -2.4276 H   0  0  0  0  0  0  0  0  0  0  0  0
  1  2  1  0
  1 19  1  0
  1 20  1  0
  1 21  1  0
  2  3  1  0
  2  7  1  0
  3  4  1  0
  3 22  1  0
  3 23  1  0
  4  5  1  0
  4 24  1  0
  4 25  1  0
  5  6  1  0
  5 26  1  0
  5 27  1  0
  6  7  1  0
  6 28  1  0
  6 29  1  0
  7  8  1  0
  7 30  1  1
  8  9  1  0
  8 31  1  0
  8 32  1  0
  9 10  1  0
 10 11  2  0
 10 17  1  0
 11 12  1  0
 11 33  1  0
 12 13  1  0
 12 14  2  0
 14 15  1  0
 14 16  1  0
 16 17  2  0
 16 34  1  0
 17 18  1  0
 18 35  1  0
 18 36  1  0
M  END

