
     RDKit          3D

 36 37  0  0  0  0  0  0  0  0999 V2000
    6.6013    2.8385   -4.4073 C   0  0  0  0  0  0  0  0  0  0  0  0
    6.1525    3.0216   -3.0443 N   0  0  0  0  0  0  0  0  0  0  0  0
    4.9185    3.5194   -2.7695 C   0  0  0  0  0  0  0  0  0  0  0  0
    4.1197    3.8402   -3.6372 O   0  0  0  0  0  0  0  0  0  0  0  0
    4.5931    3.6989   -1.2812 C   0  0  0  0  0  0  0  0  0  0  0  0
    5.2211    2.7131   -0.2873 C   0  0  0  0  0  0  0  0  0  0  0  0
    6.6854    2.7314   -0.2278 N   0  0  0  0  0  0  0  0  0  0  0  0
    7.2322    1.5775    0.4856 C   0  0  0  0  0  0  0  0  0  0  0  0
    8.7348    1.4603    0.2437 C   0  0  0  0  0  0  0  0  0  0  0  0
    9.4470    2.7772    0.4606 C   0  0  0  0  0  0  0  0  0  0  0  0
   10.8380    2.8424    0.6359 C   0  0  0  0  0  0  0  0  0  0  0  0
   11.5005    4.0531    0.8092 C   0  0  0  0  0  0  0  0  0  0  0  0
   10.7797    5.2657    0.8098 C   0  0  0  0  0  0  0  0  0  0  0  0
   11.4218    6.4775    1.0294 N   0  0  0  0  0  0  0  0  0  0  0  0
    9.3874    5.2026    0.6307 C   0  0  0  0  0  0  0  0  0  0  0  0
    8.7240    3.9813    0.4593 C   0  0  0  0  0  0  0  0  0  0  0  0
    7.2150    3.9798    0.3154 C   0  0  0  0  0  0  0  0  0  0  0  0
    7.6110    2.4040   -4.4013 H   0  0  0  0  0  0  0  0  0  0  0  0
    6.6305    3.7949   -4.9568 H   0  0  0  0  0  0  0  0  0  0  0  0
    5.9282    2.1671   -4.9664 H   0  0  0  0  0  0  0  0  0  0  0  0
    6.7497    2.7885   -2.2464 H   0  0  0  0  0  0  0  0  0  0  0  0
    3.4981    3.6299   -1.2044 H   0  0  0  0  0  0  0  0  0  0  0  0
    4.8385    4.7414   -1.0133 H   0  0  0  0  0  0  0  0  0  0  0  0
    4.9193    1.6908   -0.5679 H   0  0  0  0  0  0  0  0  0  0  0  0
    4.7859    2.9025    0.7199 H   0  0  0  0  0  0  0  0  0  0  0  0
    6.7205    0.6705    0.1282 H   0  0  0  0  0  0  0  0  0  0  0  0
    7.0263    1.6530    1.5780 H   0  0  0  0  0  0  0  0  0  0  0  0
    8.9015    1.1108   -0.7923 H   0  0  0  0  0  0  0  0  0  0  0  0
    9.1554    0.6824    0.9030 H   0  0  0  0  0  0  0  0  0  0  0  0
   11.4191    1.9148    0.6369 H   0  0  0  0  0  0  0  0  0  0  0  0
   12.5850    4.0690    0.9504 H   0  0  0  0  0  0  0  0  0  0  0  0
   12.4142    6.5035    0.8254 H   0  0  0  0  0  0  0  0  0  0  0  0
   10.9343    7.3092    0.7170 H   0  0  0  0  0  0  0  0  0  0  0  0
    8.8081    6.1320    0.6279 H   0  0  0  0  0  0  0  0  0  0  0  0
    6.9172    4.8131   -0.3398 H   0  0  0  0  0  0  0  0  0  0  0  0
    6.7606    4.1925    1.3130 H   0  0  0  0  0  0  0  0  0  0  0  0
  1  2  1  0
  1 18  1  0
  1 19  1  0
  1 20  1  0
  2  3  1  0
  2 21  1  0
  3  4  2  0
  3  5  1  0
  5  6  1  0
  5 22  1  0
  5 23  1  0
  6  7  1  0
  6 24  1  0
  6 25  1  0
  7  8  1  0
  7 17  1  0
  8  9  1  0
  8 26  1  0
  8 27  1  0
  9 10  1  0
  9 28  1  0
  9 29  1  0
 10 11  1  0
 10 16  2  0
 11 12  2  0
 11 30  1  0
 12 13  1  0
 12 31  1  0
 13 14  1  0
 13 15  2  0
 14 32  1  0
 14 33  1  0
 15 16  1  0
 15 34  1  0
 16 17  1  0
 17 35  1  0
 17 36  1  0
M  END

