
     RDKit          3D

 52 56  0  0  0  0  0  0  0  0999 V2000
   -0.5974    4.3662    1.6429 O   0  0  0  0  0  0  0  0  0  0  0  0
   -0.0965    4.6112    0.5529 C   0  0  0  0  0  0  0  0  0  0  0  0
    0.2475    3.4599   -0.3877 C   0  0  0  0  0  0  0  0  0  0  0  0
    1.5254    2.6894   -0.0233 C   0  0  1  0  0  0  0  0  0  0  0  0
    1.5050    1.6770    1.1162 C   0  0  0  0  0  0  0  0  0  0  0  0
    2.4199    0.8716    1.2511 O   0  0  0  0  0  0  0  0  0  0  0  0
    0.4303    1.7030    1.9497 N   0  0  0  0  0  0  0  0  0  0  0  0
    0.3802    0.8044    3.1117 C   0  0  2  0  0  0  0  0  0  0  0  0
    1.3780    0.7911    3.5723 H   0  0  0  0  0  0  0  0  0  0  0  0
    0.0267   -0.6509    2.7027 C   0  0  0  0  0  0  0  0  0  0  0  0
   -1.4785   -0.9845    2.7005 C   0  0  0  0  0  0  0  0  0  0  0  0
   -2.3822    0.0456    2.0614 C   0  0  0  0  0  0  0  0  0  0  0  0
   -3.0650   -0.2047    0.8637 C   0  0  0  0  0  0  0  0  0  0  0  0
   -3.9422    0.7338    0.3119 C   0  0  0  0  0  0  0  0  0  0  0  0
   -4.1474    1.9565    0.9563 C   0  0  0  0  0  0  0  0  0  0  0  0
   -3.4663    2.2390    2.1421 C   0  0  0  0  0  0  0  0  0  0  0  0
   -2.5945    1.2908    2.6901 C   0  0  0  0  0  0  0  0  0  0  0  0
   -1.8987    1.5827    3.8980 N   0  0  0  0  0  0  0  0  0  0  0  0
   -2.4206    2.1581    5.0449 C   0  0  0  0  0  0  0  0  0  0  0  0
   -1.3688    2.2503    5.9248 C   0  0  0  0  0  0  0  0  0  0  0  0
   -0.2188    1.7663    5.3529 N   0  0  0  0  0  0  0  0  0  0  0  0
   -0.5523    1.3715    4.1451 C   0  0  0  0  0  0  0  0  0  0  0  0
    2.4363    2.2810   -1.1701 C   0  0  0  0  0  0  0  0  0  0  0  0
    2.8789    3.3581   -0.2354 C   0  0  0  0  0  0  0  0  0  0  0  0
    0.1785    6.0337    0.1691 C   0  0  0  0  0  0  0  0  0  0  0  0
   -0.1081    7.0309    1.1222 C   0  0  0  0  0  0  0  0  0  0  0  0
    0.1232    8.3740    0.8368 C   0  0  0  0  0  0  0  0  0  0  0  0
    0.6449    8.7458   -0.4087 C   0  0  0  0  0  0  0  0  0  0  0  0
    0.9332    7.7675   -1.3641 C   0  0  0  0  0  0  0  0  0  0  0  0
    0.7019    6.4196   -1.0783 C   0  0  0  0  0  0  0  0  0  0  0  0
    0.3375    3.8162   -1.4209 H   0  0  0  0  0  0  0  0  0  0  0  0
   -0.6087    2.7667   -0.3640 H   0  0  0  0  0  0  0  0  0  0  0  0
   -0.1656    2.5334    1.9508 H   0  0  0  0  0  0  0  0  0  0  0  0
    0.5268   -1.3394    3.4027 H   0  0  0  0  0  0  0  0  0  0  0  0
    0.4753   -0.8352    1.7162 H   0  0  0  0  0  0  0  0  0  0  0  0
   -1.8072   -1.1194    3.7459 H   0  0  0  0  0  0  0  0  0  0  0  0
   -1.6291   -1.9550    2.2026 H   0  0  0  0  0  0  0  0  0  0  0  0
   -2.9153   -1.1658    0.3640 H   0  0  0  0  0  0  0  0  0  0  0  0
   -4.4673    0.5073   -0.6193 H   0  0  0  0  0  0  0  0  0  0  0  0
   -4.8284    2.6983    0.5319 H   0  0  0  0  0  0  0  0  0  0  0  0
   -3.5863    3.2045    2.6367 H   0  0  0  0  0  0  0  0  0  0  0  0
   -3.4739    2.4121    5.1289 H   0  0  0  0  0  0  0  0  0  0  0  0
   -1.3842    2.6383    6.9427 H   0  0  0  0  0  0  0  0  0  0  0  0
    2.1197    2.5558   -2.1804 H   0  0  0  0  0  0  0  0  0  0  0  0
    2.9137    1.3043   -1.0689 H   0  0  0  0  0  0  0  0  0  0  0  0
    2.8814    4.3960   -0.5801 H   0  0  0  0  0  0  0  0  0  0  0  0
    3.6592    3.1083    0.4876 H   0  0  0  0  0  0  0  0  0  0  0  0
   -0.5117    6.7183    2.0868 H   0  0  0  0  0  0  0  0  0  0  0  0
   -0.1010    9.1374    1.5860 H   0  0  0  0  0  0  0  0  0  0  0  0
    0.8270    9.7997   -0.6339 H   0  0  0  0  0  0  0  0  0  0  0  0
    1.3394    8.0538   -2.3371 H   0  0  0  0  0  0  0  0  0  0  0  0
    0.9305    5.6745   -1.8413 H   0  0  0  0  0  0  0  0  0  0  0  0
  1  2  2  0
  2  3  1  0
  2 25  1  0
  3  4  1  0
  3 31  1  0
  3 32  1  0
  4  5  1  1
  4 23  1  0
  4 24  1  0
  5  6  2  0
  5  7  1  0
  7  8  1  0
  7 33  1  0
  8  9  1  1
  8 10  1  0
  8 22  1  0
 10 11  1  0
 10 34  1  0
 10 35  1  0
 11 12  1  0
 11 36  1  0
 11 37  1  0
 12 13  1  0
 12 17  2  0
 13 14  2  0
 13 38  1  0
 14 15  1  0
 14 39  1  0
 15 16  2  0
 15 40  1  0
 16 17  1  0
 16 41  1  0
 17 18  1  0
 18 19  1  0
 18 22  1  0
 19 20  2  0
 19 42  1  0
 20 21  1  0
 20 43  1  0
 21 22  2  0
 23 24  1  0
 23 44  1  0
 23 45  1  0
 24 46  1  0
 24 47  1  0
 25 26  2  0
 25 30  1  0
 26 27  1  0
 26 48  1  0
 27 28  2  0
 27 49  1  0
 28 29  1  0
 28 50  1  0
 29 30  2  0
 29 51  1  0
 30 52  1  0
M  END

