
     RDKit          3D

 51 54  0  0  0  0  0  0  0  0999 V2000
    6.0835   -1.5592    0.2616 C   0  0  0  0  0  0  0  0  0  0  0  0
    4.8572   -1.3471   -0.6112 C   0  0  0  0  0  0  0  0  0  0  0  0
    5.0608   -0.2942   -1.5687 O   0  0  0  0  0  0  0  0  0  0  0  0
    4.8058    0.9601   -1.1676 C   0  0  0  0  0  0  0  0  0  0  0  0
    4.4218    1.2592   -0.0583 O   0  0  0  0  0  0  0  0  0  0  0  0
    5.0415    1.9647   -2.2334 C   0  0  0  0  0  0  0  0  0  0  0  0
    4.8892    3.3632   -2.0805 C   0  0  0  0  0  0  0  0  0  0  0  0
    5.2244    3.9007   -3.3140 C   0  0  0  0  0  0  0  0  0  0  0  0
    5.2917    5.3166   -3.7202 C   0  0  0  0  0  0  0  0  0  0  0  0
    6.3302    5.8240   -4.5232 C   0  0  0  0  0  0  0  0  0  0  0  0
    6.3663    7.1832   -4.8331 C   0  0  0  0  0  0  0  0  0  0  0  0
    5.3944    8.0687   -4.3627 C   0  0  0  0  0  0  0  0  0  0  0  0
    4.3557    7.5724   -3.5552 C   0  0  0  0  0  0  0  0  0  0  0  0
    3.3300    8.3828   -3.0339 N   0  0  0  0  0  0  0  0  0  0  0  0
    3.1373    9.7305   -3.1949 C   0  0  0  0  0  0  0  0  0  0  0  0
    3.8436   10.4877   -3.8370 O   0  0  0  0  0  0  0  0  0  0  0  0
    1.9290   10.2467   -2.4880 C   0  0  0  0  0  0  0  0  0  0  0  0
    1.4155   11.5105   -2.4073 C   0  0  0  0  0  0  0  0  0  0  0  0
    0.2612   11.3368   -1.5919 C   0  0  0  0  0  0  0  0  0  0  0  0
    0.0994   10.0881   -1.2202 N   0  0  0  0  0  0  0  0  0  0  0  0
    1.1520    9.3969   -1.7850 O   0  0  0  0  0  0  0  0  0  0  0  0
    4.3134    6.2030   -3.2449 C   0  0  0  0  0  0  0  0  0  0  0  0
    5.5439    2.8173   -4.1163 N   0  0  0  0  0  0  0  0  0  0  0  0
    5.8445    2.7999   -5.5186 C   0  0  0  0  0  0  0  0  0  0  0  0
    4.9108    3.3349   -6.4123 C   0  0  0  0  0  0  0  0  0  0  0  0
    5.1694    3.3277   -7.7834 C   0  0  0  0  0  0  0  0  0  0  0  0
    6.3608    2.7716   -8.2544 C   0  0  0  0  0  0  0  0  0  0  0  0
    7.2827    2.2316   -7.3544 C   0  0  0  0  0  0  0  0  0  0  0  0
    7.0542    2.2325   -5.9696 C   0  0  0  0  0  0  0  0  0  0  0  0
    8.0653    1.6475   -5.0170 C   0  0  0  0  0  0  0  0  0  0  0  0
    5.4312    1.6505   -3.4677 N   0  0  0  0  0  0  0  0  0  0  0  0
    5.9262   -2.4245    0.9256 H   0  0  0  0  0  0  0  0  0  0  0  0
    6.2729   -0.6764    0.8898 H   0  0  0  0  0  0  0  0  0  0  0  0
    6.9751   -1.7549   -0.3543 H   0  0  0  0  0  0  0  0  0  0  0  0
    3.9758   -1.1090    0.0029 H   0  0  0  0  0  0  0  0  0  0  0  0
    4.6424   -2.2379   -1.2192 H   0  0  0  0  0  0  0  0  0  0  0  0
    4.6149    3.8952   -1.1741 H   0  0  0  0  0  0  0  0  0  0  0  0
    7.1141    5.1611   -4.8906 H   0  0  0  0  0  0  0  0  0  0  0  0
    7.1779    7.5710   -5.4539 H   0  0  0  0  0  0  0  0  0  0  0  0
    5.4266    9.1275   -4.6072 H   0  0  0  0  0  0  0  0  0  0  0  0
    2.6387    7.9064   -2.4623 H   0  0  0  0  0  0  0  0  0  0  0  0
    1.8124   12.4119   -2.8645 H   0  0  0  0  0  0  0  0  0  0  0  0
   -0.4612   12.0837   -1.2614 H   0  0  0  0  0  0  0  0  0  0  0  0
    3.4960    5.8148   -2.6313 H   0  0  0  0  0  0  0  0  0  0  0  0
    3.9801    3.7525   -6.0242 H   0  0  0  0  0  0  0  0  0  0  0  0
    4.4386    3.7478   -8.4781 H   0  0  0  0  0  0  0  0  0  0  0  0
    6.5749    2.7563   -9.3259 H   0  0  0  0  0  0  0  0  0  0  0  0
    8.2135    1.7987   -7.7308 H   0  0  0  0  0  0  0  0  0  0  0  0
    9.0010    1.4064   -5.5413 H   0  0  0  0  0  0  0  0  0  0  0  0
    7.6764    0.7331   -4.5436 H   0  0  0  0  0  0  0  0  0  0  0  0
    8.2984    2.3456   -4.1967 H   0  0  0  0  0  0  0  0  0  0  0  0
  1  2  1  0
  1 32  1  0
  1 33  1  0
  1 34  1  0
  2  3  1  0
  2 35  1  0
  2 36  1  0
  3  4  1  0
  4  5  2  0
  4  6  1  0
  6  7  1  0
  6 31  2  0
  7  8  2  0
  7 37  1  0
  8  9  1  0
  8 23  1  0
  9 10  2  0
  9 22  1  0
 10 11  1  0
 10 38  1  0
 11 12  2  0
 11 39  1  0
 12 13  1  0
 12 40  1  0
 13 14  1  0
 13 22  2  0
 14 15  1  0
 14 41  1  0
 15 16  2  0
 15 17  1  0
 17 18  2  0
 17 21  1  0
 18 19  1  0
 18 42  1  0
 19 20  2  0
 19 43  1  0
 20 21  1  0
 22 44  1  0
 23 24  1  0
 23 31  1  0
 24 25  2  0
 24 29  1  0
 25 26  1  0
 25 45  1  0
 26 27  2  0
 26 46  1  0
 27 28  1  0
 27 47  1  0
 28 29  2  0
 28 48  1  0
 29 30  1  0
 30 49  1  0
 30 50  1  0
 30 51  1  0
M  END

