
     RDKit          3D

 36 38  0  0  0  0  0  0  0  0999 V2000
    3.0322    1.5721    1.4118 O   0  0  0  0  0  0  0  0  0  0  0  0
    3.5040    1.0936    0.4133 C   0  0  0  0  0  0  0  0  0  0  0  0
    4.4773    0.1700    0.4824 O   0  0  0  0  0  0  0  0  0  0  0  0
    3.0943    1.5545   -0.9704 C   0  0  0  0  0  0  0  0  0  0  0  0
    2.4064    2.7765   -1.0319 C   0  0  0  0  0  0  0  0  0  0  0  0
    2.0550    3.3507   -2.2517 C   0  0  0  0  0  0  0  0  0  0  0  0
    2.3798    2.6962   -3.4436 C   0  0  0  0  0  0  0  0  0  0  0  0
    3.0305    1.4629   -3.4016 C   0  0  0  0  0  0  0  0  0  0  0  0
    3.3875    0.8842   -2.1768 C   0  0  0  0  0  0  0  0  0  0  0  0
    4.0420   -0.3933   -2.1811 N   0  0  0  0  0  0  0  0  0  0  0  0
    3.3428   -1.5702   -1.8341 C   0  0  0  0  0  0  0  0  0  0  0  0
    2.2833   -1.5232   -1.2547 O   0  0  0  0  0  0  0  0  0  0  0  0
    4.0923   -2.8570   -2.1486 C   0  0  2  0  0  0  0  0  0  0  0  0
    4.6938   -3.0099   -3.5917 C   0  0  0  0  0  0  0  0  0  0  0  0
    4.2411   -4.4318   -4.0036 C   0  0  2  0  0  0  0  0  0  0  0  0
    2.7334   -4.3827   -4.3371 C   0  0  0  0  0  0  0  0  0  0  0  0
    2.0710   -4.1792   -2.9377 C   0  0  0  0  0  0  0  0  0  0  0  0
    3.2786   -4.1613   -1.9703 C   0  0  1  0  0  0  0  0  0  0  0  0
    4.2308   -5.1701   -2.6475 C   0  0  0  0  0  0  0  0  0  0  0  0
    4.7152   -0.1139   -0.4208 H   0  0  0  0  0  0  0  0  0  0  0  0
    2.1706    3.2664   -0.0855 H   0  0  0  0  0  0  0  0  0  0  0  0
    1.5307    4.3088   -2.2745 H   0  0  0  0  0  0  0  0  0  0  0  0
    2.1131    3.1362   -4.4076 H   0  0  0  0  0  0  0  0  0  0  0  0
    3.2553    0.9281   -4.3282 H   0  0  0  0  0  0  0  0  0  0  0  0
    4.7496   -0.5082   -2.9013 H   0  0  0  0  0  0  0  0  0  0  0  0
    4.9226   -2.8739   -1.4191 H   0  0  0  0  0  0  0  0  0  0  0  0
    5.7919   -2.9244   -3.5804 H   0  0  0  0  0  0  0  0  0  0  0  0
    4.3124   -2.2538   -4.2982 H   0  0  0  0  0  0  0  0  0  0  0  0
    4.8626   -4.8738   -4.7962 H   0  0  0  0  0  0  0  0  0  0  0  0
    2.4095   -5.3269   -4.8025 H   0  0  0  0  0  0  0  0  0  0  0  0
    2.4935   -3.5759   -5.0482 H   0  0  0  0  0  0  0  0  0  0  0  0
    1.4064   -5.0202   -2.6866 H   0  0  0  0  0  0  0  0  0  0  0  0
    1.4681   -3.2649   -2.8632 H   0  0  0  0  0  0  0  0  0  0  0  0
    3.0116   -4.3574   -0.9236 H   0  0  0  0  0  0  0  0  0  0  0  0
    3.8101   -6.1859   -2.7116 H   0  0  0  0  0  0  0  0  0  0  0  0
    5.2226   -5.2301   -2.1703 H   0  0  0  0  0  0  0  0  0  0  0  0
  1  2  2  0
  2  3  1  0
  2  4  1  0
  3 20  1  0
  4  5  2  0
  4  9  1  0
  5  6  1  0
  5 21  1  0
  6  7  2  0
  6 22  1  0
  7  8  1  0
  7 23  1  0
  8  9  2  0
  8 24  1  0
  9 10  1  0
 10 11  1  0
 10 25  1  0
 11 12  2  0
 11 13  1  0
 13 14  1  0
 13 18  1  0
 13 26  1  1
 14 15  1  0
 14 27  1  0
 14 28  1  0
 15 16  1  0
 15 19  1  0
 15 29  1  6
 16 17  1  0
 16 30  1  0
 16 31  1  0
 17 18  1  0
 17 32  1  0
 17 33  1  0
 18 19  1  0
 18 34  1  1
 19 35  1  0
 19 36  1  0
M  END

