
     RDKit          3D

 63 66  0  0  0  0  0  0  0  0999 V2000
   11.4000   -5.5455   -1.6848 C   0  0  0  0  0  0  0  0  0  0  0  0
   10.4973   -4.5345   -0.9780 C   0  0  0  0  0  0  0  0  0  0  0  0
    9.0725   -5.0401   -0.8079 C   0  0  0  0  0  0  0  0  0  0  0  0
    8.3202   -4.0340   -0.1512 O   0  0  0  0  0  0  0  0  0  0  0  0
    7.0156   -4.2526    0.1530 C   0  0  0  0  0  0  0  0  0  0  0  0
    6.3522   -3.2130    0.8271 C   0  0  0  0  0  0  0  0  0  0  0  0
    5.0153   -3.3669    1.1792 C   0  0  0  0  0  0  0  0  0  0  0  0
    4.3160   -4.5414    0.8818 C   0  0  0  0  0  0  0  0  0  0  0  0
    4.9780   -5.5704    0.2014 C   0  0  0  0  0  0  0  0  0  0  0  0
    4.2892   -6.7760   -0.1202 N   0  0  0  0  0  0  0  0  0  0  0  0
    2.9222   -6.8601   -0.5189 C   0  0  0  0  0  0  0  0  0  0  0  0
    2.1921   -5.9042   -0.6447 O   0  0  0  0  0  0  0  0  0  0  0  0
    2.6068   -8.2898   -0.7526 C   0  0  0  0  0  0  0  0  0  0  0  0
    1.3013   -8.6811   -1.3115 C   0  0  0  0  0  0  0  0  0  0  0  0
    0.1019   -8.0823   -0.8644 C   0  0  0  0  0  0  0  0  0  0  0  0
   -1.1242   -8.4233   -1.4203 C   0  0  0  0  0  0  0  0  0  0  0  0
   -1.2021   -9.3706   -2.4566 C   0  0  0  0  0  0  0  0  0  0  0  0
   -2.4428   -9.6378   -2.9343 O   0  0  0  0  0  0  0  0  0  0  0  0
   -2.5950  -10.5616   -3.9875 C   0  0  0  0  0  0  0  0  0  0  0  0
   -0.0212   -9.9662   -2.9272 C   0  0  0  0  0  0  0  0  0  0  0  0
    1.2056   -9.6166   -2.3563 C   0  0  0  0  0  0  0  0  0  0  0  0
    3.7406   -9.0251   -0.4859 C   0  0  0  0  0  0  0  0  0  0  0  0
    3.9334  -10.3774   -0.4483 N   0  0  0  0  0  0  0  0  0  0  0  0
    2.8628  -11.2767   -0.0019 C   0  0  0  0  0  0  0  0  0  0  0  0
    2.8233  -12.5737   -0.8118 C   0  0  0  0  0  0  0  0  0  0  0  0
    4.1953  -13.2533   -0.8478 C   0  0  0  0  0  0  0  0  0  0  0  0
    5.2748  -12.2694   -1.3136 C   0  0  2  0  0  0  0  0  0  0  0  0
    6.6702  -12.9026   -1.3288 C   0  0  0  0  0  0  0  0  0  0  0  0
    7.6807  -12.0297   -1.7880 O   0  0  0  0  0  0  0  0  0  0  0  0
    5.2612  -10.9976   -0.4511 C   0  0  0  0  0  0  0  0  0  0  0  0
    4.8416   -8.0526   -0.0743 C   0  0  0  0  0  0  0  0  0  0  0  0
    5.9735   -8.3246    0.2605 O   0  0  0  0  0  0  0  0  0  0  0  0
    6.3260   -5.4282   -0.1711 C   0  0  0  0  0  0  0  0  0  0  0  0
   12.4235   -5.1547   -1.7926 H   0  0  0  0  0  0  0  0  0  0  0  0
   11.0288   -5.7835   -2.6958 H   0  0  0  0  0  0  0  0  0  0  0  0
   11.4645   -6.4931   -1.1242 H   0  0  0  0  0  0  0  0  0  0  0  0
   10.4657   -3.5864   -1.5410 H   0  0  0  0  0  0  0  0  0  0  0  0
   10.9005   -4.2896    0.0191 H   0  0  0  0  0  0  0  0  0  0  0  0
    9.0594   -5.9751   -0.2157 H   0  0  0  0  0  0  0  0  0  0  0  0
    8.6239   -5.2699   -1.7942 H   0  0  0  0  0  0  0  0  0  0  0  0
    6.9091   -2.3043    1.0628 H   0  0  0  0  0  0  0  0  0  0  0  0
    4.5007   -2.5578    1.7039 H   0  0  0  0  0  0  0  0  0  0  0  0
    3.2690   -4.6484    1.1569 H   0  0  0  0  0  0  0  0  0  0  0  0
    0.1403   -7.3329   -0.0735 H   0  0  0  0  0  0  0  0  0  0  0  0
   -2.0503   -7.9626   -1.0703 H   0  0  0  0  0  0  0  0  0  0  0  0
   -3.6699  -10.6125   -4.2071 H   0  0  0  0  0  0  0  0  0  0  0  0
   -2.2403  -11.5700   -3.7062 H   0  0  0  0  0  0  0  0  0  0  0  0
   -2.0594  -10.2393   -4.8989 H   0  0  0  0  0  0  0  0  0  0  0  0
   -0.0418  -10.6915   -3.7409 H   0  0  0  0  0  0  0  0  0  0  0  0
    2.1171  -10.0729   -2.7488 H   0  0  0  0  0  0  0  0  0  0  0  0
    1.9005  -10.7570   -0.0547 H   0  0  0  0  0  0  0  0  0  0  0  0
    3.0450  -11.5190    1.0656 H   0  0  0  0  0  0  0  0  0  0  0  0
    2.4925  -12.3482   -1.8395 H   0  0  0  0  0  0  0  0  0  0  0  0
    2.0658  -13.2443   -0.3737 H   0  0  0  0  0  0  0  0  0  0  0  0
    4.1694  -14.1409   -1.5025 H   0  0  0  0  0  0  0  0  0  0  0  0
    4.4534  -13.6174    0.1646 H   0  0  0  0  0  0  0  0  0  0  0  0
    5.0328  -11.9659   -2.3524 H   0  0  0  0  0  0  0  0  0  0  0  0
    6.6371  -13.8395   -1.9217 H   0  0  0  0  0  0  0  0  0  0  0  0
    6.9586  -13.1881   -0.3026 H   0  0  0  0  0  0  0  0  0  0  0  0
    7.5008  -11.8175   -2.7135 H   0  0  0  0  0  0  0  0  0  0  0  0
    6.0085  -10.2896   -0.8150 H   0  0  0  0  0  0  0  0  0  0  0  0
    5.5589  -11.2599    0.5846 H   0  0  0  0  0  0  0  0  0  0  0  0
    6.8246   -6.2445   -0.6850 H   0  0  0  0  0  0  0  0  0  0  0  0
  1  2  1  0
  1 34  1  0
  1 35  1  0
  1 36  1  0
  2  3  1  0
  2 37  1  0
  2 38  1  0
  3  4  1  0
  3 39  1  0
  3 40  1  0
  4  5  1  0
  5  6  2  0
  5 33  1  0
  6  7  1  0
  6 41  1  0
  7  8  2  0
  7 42  1  0
  8  9  1  0
  8 43  1  0
  9 10  1  0
  9 33  2  0
 10 11  1  0
 10 31  1  0
 11 12  2  0
 11 13  1  0
 13 14  1  0
 13 22  2  0
 14 15  2  0
 14 21  1  0
 15 16  1  0
 15 44  1  0
 16 17  2  0
 16 45  1  0
 17 18  1  0
 17 20  1  0
 18 19  1  0
 19 46  1  0
 19 47  1  0
 19 48  1  0
 20 21  2  0
 20 49  1  0
 21 50  1  0
 22 23  1  0
 22 31  1  0
 23 24  1  0
 23 30  1  0
 24 25  1  0
 24 51  1  0
 24 52  1  0
 25 26  1  0
 25 53  1  0
 25 54  1  0
 26 27  1  0
 26 55  1  0
 26 56  1  0
 27 28  1  0
 27 30  1  0
 27 57  1  6
 28 29  1  0
 28 58  1  0
 28 59  1  0
 29 60  1  0
 30 61  1  0
 30 62  1  0
 31 32  2  0
 33 63  1  0
M  END

