
     RDKit          3D

 30 31  0  0  0  0  0  0  0  0999 V2000
    7.3411   -0.7675   -4.3284 C   0  0  0  0  0  0  0  0  0  0  0  0
    6.0468   -0.4190   -3.8296 O   0  0  0  0  0  0  0  0  0  0  0  0
    5.9185   -0.3746   -2.4986 C   0  0  0  0  0  0  0  0  0  0  0  0
    6.8042   -0.6234   -1.7172 O   0  0  0  0  0  0  0  0  0  0  0  0
    4.5169    0.0108   -2.1023 C   0  0  1  0  0  0  0  0  0  0  0  0
    4.0380   -0.5228   -0.7682 C   0  0  0  0  0  0  0  0  0  0  0  0
    4.3540    0.8598   -0.9500 N   0  0  0  0  0  0  0  0  0  0  0  0
    5.3740    1.5937   -0.3531 C   0  0  0  0  0  0  0  0  0  0  0  0
    6.1133    2.3336   -0.9570 O   0  0  0  0  0  0  0  0  0  0  0  0
    5.3557    1.4133    0.9779 O   0  0  0  0  0  0  0  0  0  0  0  0
    6.2978    2.1840    1.7571 C   0  0  0  0  0  0  0  0  0  0  0  0
    5.7162    3.4982    2.2202 C   0  0  0  0  0  0  0  0  0  0  0  0
    5.1068    3.6005    3.4796 C   0  0  0  0  0  0  0  0  0  0  0  0
    4.5542    4.8101    3.9092 C   0  0  0  0  0  0  0  0  0  0  0  0
    4.6040    5.9339    3.0793 C   0  0  0  0  0  0  0  0  0  0  0  0
    5.2083    5.8422    1.8211 C   0  0  0  0  0  0  0  0  0  0  0  0
    5.7618    4.6331    1.3933 C   0  0  0  0  0  0  0  0  0  0  0  0
    7.2606   -0.7529   -5.4219 H   0  0  0  0  0  0  0  0  0  0  0  0
    7.6367   -1.7680   -3.9784 H   0  0  0  0  0  0  0  0  0  0  0  0
    8.0932   -0.0403   -3.9884 H   0  0  0  0  0  0  0  0  0  0  0  0
    3.8188    0.1668   -2.9304 H   0  0  0  0  0  0  0  0  0  0  0  0
    4.7520   -1.1408   -0.2128 H   0  0  0  0  0  0  0  0  0  0  0  0
    2.9781   -0.7682   -0.6394 H   0  0  0  0  0  0  0  0  0  0  0  0
    7.2029    2.3406    1.1547 H   0  0  0  0  0  0  0  0  0  0  0  0
    6.5359    1.5409    2.6151 H   0  0  0  0  0  0  0  0  0  0  0  0
    5.0674    2.7232    4.1321 H   0  0  0  0  0  0  0  0  0  0  0  0
    4.0852    4.8758    4.8945 H   0  0  0  0  0  0  0  0  0  0  0  0
    4.1739    6.8817    3.4137 H   0  0  0  0  0  0  0  0  0  0  0  0
    5.2506    6.7189    1.1694 H   0  0  0  0  0  0  0  0  0  0  0  0
    6.2253    4.5538    0.4073 H   0  0  0  0  0  0  0  0  0  0  0  0
  1  2  1  0
  1 18  1  0
  1 19  1  0
  1 20  1  0
  2  3  1  0
  3  4  2  0
  3  5  1  0
  5  6  1  0
  5  7  1  0
  5 21  1  6
  6  7  1  0
  6 22  1  0
  6 23  1  0
  7  8  1  0
  8  9  2  0
  8 10  1  0
 10 11  1  0
 11 12  1  0
 11 24  1  0
 11 25  1  0
 12 13  2  0
 12 17  1  0
 13 14  1  0
 13 26  1  0
 14 15  2  0
 14 27  1  0
 15 16  1  0
 15 28  1  0
 16 17  2  0
 16 29  1  0
 17 30  1  0
M  END

