
     RDKit          3D

 46 46  0  0  0  0  0  0  0  0999 V2000
    1.4327    4.8139    2.2403 C   0  0  0  0  0  0  0  0  0  0  0  0
    2.9269    4.4915    2.2362 C   0  0  0  0  0  0  0  0  0  0  0  0
    3.2242    3.0067    1.9501 C   0  0  0  0  0  0  0  0  0  0  0  0
    4.6996    2.6806    1.9477 C   0  0  0  0  0  0  0  0  0  0  0  0
    5.3649    2.3285    3.1360 C   0  0  0  0  0  0  0  0  0  0  0  0
    6.7315    2.0658    3.1437 C   0  0  0  0  0  0  0  0  0  0  0  0
    7.4861    2.1464    1.9596 C   0  0  0  0  0  0  0  0  0  0  0  0
    8.9552    1.8462    2.0342 C   0  0  0  0  0  0  0  0  0  0  0  0
    9.4646    1.5389    3.0995 O   0  0  0  0  0  0  0  0  0  0  0  0
    9.7884    1.9386    0.7613 C   0  0  0  0  0  0  0  0  0  0  0  0
   11.2916    1.6373    0.9531 C   0  0  1  0  0  0  0  0  0  0  0  0
   11.5662    0.2875    1.4376 N   0  0  0  0  0  0  0  0  0  0  0  0
   12.0454    1.9485   -0.3529 C   0  0  0  0  0  0  0  0  0  0  0  0
   13.5999    1.8710   -0.3707 C   0  0  1  0  0  0  0  0  0  0  0  0
   14.0929    0.4115   -0.4333 C   0  0  0  0  0  0  0  0  0  0  0  0
   14.0835    2.6054   -1.6379 C   0  0  0  0  0  0  0  0  0  0  0  0
   14.1994    2.5600    0.8687 C   0  0  0  0  0  0  0  0  0  0  0  0
    6.8269    2.4972    0.7690 C   0  0  0  0  0  0  0  0  0  0  0  0
    5.4562    2.7587    0.7674 C   0  0  0  0  0  0  0  0  0  0  0  0
    1.2531    5.8808    2.4472 H   0  0  0  0  0  0  0  0  0  0  0  0
    0.8978    4.2310    3.0087 H   0  0  0  0  0  0  0  0  0  0  0  0
    0.9682    4.5805    1.2675 H   0  0  0  0  0  0  0  0  0  0  0  0
    3.3733    4.7657    3.2081 H   0  0  0  0  0  0  0  0  0  0  0  0
    3.4435    5.1119    1.4831 H   0  0  0  0  0  0  0  0  0  0  0  0
    2.7849    2.7348    0.9749 H   0  0  0  0  0  0  0  0  0  0  0  0
    2.7123    2.3873    2.7068 H   0  0  0  0  0  0  0  0  0  0  0  0
    4.7959    2.2550    4.0675 H   0  0  0  0  0  0  0  0  0  0  0  0
    7.2485    1.7883    4.0644 H   0  0  0  0  0  0  0  0  0  0  0  0
    9.6475    2.9510    0.3411 H   0  0  0  0  0  0  0  0  0  0  0  0
    9.3588    1.2501    0.0092 H   0  0  0  0  0  0  0  0  0  0  0  0
   11.6522    2.3253    1.7354 H   0  0  0  0  0  0  0  0  0  0  0  0
   11.2031   -0.4101    0.7851 H   0  0  0  0  0  0  0  0  0  0  0  0
   11.0886    0.1513    2.3280 H   0  0  0  0  0  0  0  0  0  0  0  0
   11.7578    2.9727   -0.6503 H   0  0  0  0  0  0  0  0  0  0  0  0
   11.6552    1.2910   -1.1542 H   0  0  0  0  0  0  0  0  0  0  0  0
   13.7103   -0.0944   -1.3366 H   0  0  0  0  0  0  0  0  0  0  0  0
   13.7543   -0.1522    0.4460 H   0  0  0  0  0  0  0  0  0  0  0  0
   15.1946    0.3769   -0.4779 H   0  0  0  0  0  0  0  0  0  0  0  0
   13.6393    2.1669   -2.5475 H   0  0  0  0  0  0  0  0  0  0  0  0
   15.1794    2.5399   -1.7381 H   0  0  0  0  0  0  0  0  0  0  0  0
   13.8119    3.6743   -1.6145 H   0  0  0  0  0  0  0  0  0  0  0  0
   13.9481    2.0155    1.7914 H   0  0  0  0  0  0  0  0  0  0  0  0
   13.8367    3.5972    0.9704 H   0  0  0  0  0  0  0  0  0  0  0  0
   15.2987    2.6001    0.7943 H   0  0  0  0  0  0  0  0  0  0  0  0
    7.3777    2.5657   -0.1708 H   0  0  0  0  0  0  0  0  0  0  0  0
    4.9612    3.0246   -0.1712 H   0  0  0  0  0  0  0  0  0  0  0  0
  1  2  1  0
  1 20  1  0
  1 21  1  0
  1 22  1  0
  2  3  1  0
  2 23  1  0
  2 24  1  0
  3  4  1  0
  3 25  1  0
  3 26  1  0
  4  5  2  0
  4 19  1  0
  5  6  1  0
  5 27  1  0
  6  7  2  0
  6 28  1  0
  7  8  1  0
  7 18  1  0
  8  9  2  0
  8 10  1  0
 10 11  1  0
 10 29  1  0
 10 30  1  0
 11 12  1  0
 11 13  1  0
 11 31  1  1
 12 32  1  0
 12 33  1  0
 14 13  1  1
 13 34  1  0
 13 35  1  0
 14 15  1  0
 14 16  1  0
 14 17  1  0
 15 36  1  0
 15 37  1  0
 15 38  1  0
 16 39  1  0
 16 40  1  0
 16 41  1  0
 17 42  1  0
 17 43  1  0
 17 44  1  0
 18 19  2  0
 18 45  1  0
 19 46  1  0
M  END

