
     RDKit          3D

 22 23  0  0  0  0  0  0  0  0999 V2000
    2.5226   -0.1791   -1.3364 O   0  0  0  0  0  0  0  0  0  0  0  0
    2.3177   -0.0260    0.0502 C   0  0  0  0  0  0  0  0  0  0  0  0
    2.7825   -1.3076    0.7239 C   0  0  2  0  0  0  0  0  0  0  0  0
    3.8505   -1.4741    0.4848 H   0  0  0  0  0  0  0  0  0  0  0  0
    1.9955   -2.5383    0.2938 C   0  0  0  0  0  0  0  0  0  0  0  0
    2.4643   -3.6916    0.9774 O   0  0  0  0  0  0  0  0  0  0  0  0
    2.6580   -3.5217    2.3154 C   0  0  0  0  0  0  0  0  0  0  0  0
    2.7862   -4.6570    3.1231 C   0  0  0  0  0  0  0  0  0  0  0  0
    2.9777   -4.5054    4.4961 C   0  0  0  0  0  0  0  0  0  0  0  0
    3.1525   -6.0599    5.5913 Br  0  0  0  0  0  0  0  0  0  0  0  0
    3.0363   -3.2368    5.0826 C   0  0  0  0  0  0  0  0  0  0  0  0
    2.9172   -2.1087    4.2697 C   0  0  0  0  0  0  0  0  0  0  0  0
    2.7343   -2.2365    2.8903 C   0  0  0  0  0  0  0  0  0  0  0  0
    2.6365   -1.1079    2.1274 O   0  0  0  0  0  0  0  0  0  0  0  0
    2.2516    0.6313   -1.7835 H   0  0  0  0  0  0  0  0  0  0  0  0
    1.2514    0.1425    0.3047 H   0  0  0  0  0  0  0  0  0  0  0  0
    2.8960    0.8151    0.4782 H   0  0  0  0  0  0  0  0  0  0  0  0
    2.1243   -2.7194   -0.7806 H   0  0  0  0  0  0  0  0  0  0  0  0
    0.9201   -2.3833    0.5063 H   0  0  0  0  0  0  0  0  0  0  0  0
    2.7257   -5.6397    2.6544 H   0  0  0  0  0  0  0  0  0  0  0  0
    3.1812   -3.1305    6.1582 H   0  0  0  0  0  0  0  0  0  0  0  0
    2.9717   -1.1026    4.6913 H   0  0  0  0  0  0  0  0  0  0  0  0
  1  2  1  0
  1 15  1  0
  2  3  1  0
  2 16  1  0
  2 17  1  0
  3  4  1  1
  3  5  1  0
  3 14  1  0
  5  6  1  0
  5 18  1  0
  5 19  1  0
  6  7  1  0
  7  8  1  0
  7 13  2  0
  8  9  2  0
  8 20  1  0
  9 10  1  0
  9 11  1  0
 11 12  2  0
 11 21  1  0
 12 13  1  0
 12 22  1  0
 13 14  1  0
M  END

