
     RDKit          3D

 38 41  0  0  0  0  0  0  0  0999 V2000
    0.0799   -0.5459    1.3457 O   0  0  0  0  0  0  0  0  0  0  0  0
    0.8712    0.3494    1.2136 C   0  0  0  0  0  0  0  0  0  0  0  0
    0.5145    1.4925    0.5843 O   0  0  0  0  0  0  0  0  0  0  0  0
    2.2843    0.2795    1.7260 C   0  0  0  0  0  0  0  0  0  0  0  0
    3.3164    1.0982    1.2432 C   0  0  0  0  0  0  0  0  0  0  0  0
    4.6124    0.9786    1.7450 C   0  0  0  0  0  0  0  0  0  0  0  0
    4.8832    0.0356    2.7408 C   0  0  0  0  0  0  0  0  0  0  0  0
    6.2077   -0.0550    3.2824 N   0  0  0  0  0  0  0  0  0  0  0  0
    6.7958    1.0778    3.9063 C   0  0  0  0  0  0  0  0  0  0  0  0
    6.2464    2.1523    4.0006 O   0  0  0  0  0  0  0  0  0  0  0  0
    8.1455    0.7316    4.4044 C   0  0  0  0  0  0  0  0  0  0  0  0
    8.9017    1.6551    5.0609 C   0  0  0  0  0  0  0  0  0  0  0  0
   10.2043    1.4937    5.6065 C   0  0  0  0  0  0  0  0  0  0  0  0
   11.0386    2.3681    6.2858 C   0  0  0  0  0  0  0  0  0  0  0  0
   12.2208    1.6540    6.5917 C   0  0  0  0  0  0  0  0  0  0  0  0
   12.0521    0.3757    6.0831 C   0  0  0  0  0  0  0  0  0  0  0  0
   12.8798   -0.8020    6.0681 C   0  0  0  0  0  0  0  0  0  0  0  0
   12.5877   -2.0374    5.5167 C   0  0  0  0  0  0  0  0  0  0  0  0
   13.6303   -2.9887    5.6775 C   0  0  0  0  0  0  0  0  0  0  0  0
   14.7086   -2.4670    6.3515 C   0  0  0  0  0  0  0  0  0  0  0  0
   16.1740   -3.2730    6.7570 Cl  0  0  0  0  0  0  0  0  0  0  0  0
   14.4698   -0.8023    6.8021 S   0  0  0  0  0  0  0  0  0  0  0  0
   10.8338    0.2826    5.4898 O   0  0  0  0  0  0  0  0  0  0  0  0
    8.5367   -0.9410    4.0196 S   0  0  0  0  0  0  0  0  0  0  0  0
    6.9743   -1.2109    3.2250 C   0  0  0  0  0  0  0  0  0  0  0  0
    6.5887   -2.6463    2.5330 S   0  0  0  0  0  0  0  0  0  0  0  0
    3.8639   -0.7938    3.2254 C   0  0  0  0  0  0  0  0  0  0  0  0
    2.5765   -0.6780    2.7094 C   0  0  0  0  0  0  0  0  0  0  0  0
    1.2019    2.1655    0.6857 H   0  0  0  0  0  0  0  0  0  0  0  0
    3.1340    1.8213    0.4430 H   0  0  0  0  0  0  0  0  0  0  0  0
    5.4116    1.6150    1.3643 H   0  0  0  0  0  0  0  0  0  0  0  0
    8.4429    2.6409    5.1812 H   0  0  0  0  0  0  0  0  0  0  0  0
   10.8086    3.4030    6.5299 H   0  0  0  0  0  0  0  0  0  0  0  0
   13.0969    2.0230    7.1204 H   0  0  0  0  0  0  0  0  0  0  0  0
   11.6446   -2.2450    5.0112 H   0  0  0  0  0  0  0  0  0  0  0  0
   13.5961   -4.0159    5.3156 H   0  0  0  0  0  0  0  0  0  0  0  0
    4.0849   -1.5291    3.9994 H   0  0  0  0  0  0  0  0  0  0  0  0
    1.7704   -1.3232    3.0631 H   0  0  0  0  0  0  0  0  0  0  0  0
  1  2  2  0
  2  3  1  0
  2  4  1  0
  3 29  1  0
  4  5  2  0
  4 28  1  0
  5  6  1  0
  5 30  1  0
  6  7  2  0
  6 31  1  0
  7  8  1  0
  7 27  1  0
  8  9  1  0
  8 25  1  0
  9 10  2  0
  9 11  1  0
 11 12  2  0
 11 24  1  0
 12 13  1  0
 12 32  1  0
 13 14  2  0
 13 23  1  0
 14 15  1  0
 14 33  1  0
 15 16  2  0
 15 34  1  0
 16 17  1  0
 16 23  1  0
 17 18  2  0
 17 22  1  0
 18 19  1  0
 18 35  1  0
 19 20  2  0
 19 36  1  0
 20 21  1  0
 20 22  1  0
 24 25  1  0
 25 26  2  0
 27 28  2  0
 27 37  1  0
 28 38  1  0
M  END

