
     RDKit          3D

 49 52  0  0  0  0  0  0  0  0999 V2000
    5.1880    5.0582    0.3433 C   0  0  0  0  0  0  0  0  0  0  0  0
    5.7269    3.8733    1.0596 C   0  0  0  0  0  0  0  0  0  0  0  0
    6.9467    3.4240    1.1030 N   0  0  0  0  0  0  0  0  0  0  0  0
    6.8367    2.3197    1.9151 C   0  0  0  0  0  0  0  0  0  0  0  0
    7.9749    1.4061    2.2725 C   0  0  0  0  0  0  0  0  0  0  0  0
    8.1990    0.3988    1.2987 O   0  0  0  0  0  0  0  0  0  0  0  0
    9.1551    0.5495    0.3280 C   0  0  0  0  0  0  0  0  0  0  0  0
    9.6126    1.7939   -0.1250 C   0  0  0  0  0  0  0  0  0  0  0  0
   10.5990    1.8490   -1.1150 C   0  0  0  0  0  0  0  0  0  0  0  0
   11.1306    0.6764   -1.6547 C   0  0  0  0  0  0  0  0  0  0  0  0
   10.6653   -0.5597   -1.1997 C   0  0  0  0  0  0  0  0  0  0  0  0
    9.6635   -0.6435   -0.2254 C   0  0  0  0  0  0  0  0  0  0  0  0
    9.2917   -2.0098    0.3128 C   0  0  0  0  0  0  0  0  0  0  0  0
   10.1469   -2.6848    0.8680 O   0  0  0  0  0  0  0  0  0  0  0  0
    8.0058   -2.4537    0.1320 N   0  0  0  0  0  0  0  0  0  0  0  0
    7.6171   -3.7521    0.6729 C   0  0  0  0  0  0  0  0  0  0  0  0
    6.3400   -3.6305    1.5094 C   0  0  0  0  0  0  0  0  0  0  0  0
    5.1747   -2.9626    0.7375 C   0  0  2  0  0  0  0  0  0  0  0  0
    5.6774   -1.6315    0.1514 C   0  0  0  0  0  0  0  0  0  0  0  0
    6.9728   -1.7914   -0.6527 C   0  0  0  0  0  0  0  0  0  0  0  0
    3.9625   -2.7402    1.6877 C   0  0  0  0  0  0  0  0  0  0  0  0
    3.1974   -3.9642    1.5540 N   0  0  0  0  0  0  0  0  0  0  0  0
    3.4490   -4.6723    0.4090 C   0  0  0  0  0  0  0  0  0  0  0  0
    2.8697   -5.6721    0.0411 O   0  0  0  0  0  0  0  0  0  0  0  0
    4.5825   -3.9364   -0.3125 C   0  0  0  0  0  0  0  0  0  0  0  0
    5.6226    2.0986    2.3518 N   0  0  0  0  0  0  0  0  0  0  0  0
    4.8816    3.1256    1.7870 O   0  0  0  0  0  0  0  0  0  0  0  0
    6.0015    5.5547   -0.1989 H   0  0  0  0  0  0  0  0  0  0  0  0
    4.7354    5.7669    1.0542 H   0  0  0  0  0  0  0  0  0  0  0  0
    4.4048    4.7558   -0.3692 H   0  0  0  0  0  0  0  0  0  0  0  0
    7.7102    0.8787    3.1997 H   0  0  0  0  0  0  0  0  0  0  0  0
    8.8873    1.9978    2.4465 H   0  0  0  0  0  0  0  0  0  0  0  0
    9.1772    2.7146    0.2651 H   0  0  0  0  0  0  0  0  0  0  0  0
   10.9477    2.8239   -1.4654 H   0  0  0  0  0  0  0  0  0  0  0  0
   11.9072    0.7215   -2.4214 H   0  0  0  0  0  0  0  0  0  0  0  0
   11.0893   -1.4868   -1.5927 H   0  0  0  0  0  0  0  0  0  0  0  0
    8.4553   -4.1235    1.2749 H   0  0  0  0  0  0  0  0  0  0  0  0
    7.4706   -4.4668   -0.1596 H   0  0  0  0  0  0  0  0  0  0  0  0
    6.5680   -3.0211    2.4003 H   0  0  0  0  0  0  0  0  0  0  0  0
    6.0362   -4.6276    1.8694 H   0  0  0  0  0  0  0  0  0  0  0  0
    5.8623   -0.9183    0.9712 H   0  0  0  0  0  0  0  0  0  0  0  0
    4.9010   -1.1881   -0.4955 H   0  0  0  0  0  0  0  0  0  0  0  0
    7.3366   -0.8146   -0.9917 H   0  0  0  0  0  0  0  0  0  0  0  0
    6.7737   -2.3917   -1.5629 H   0  0  0  0  0  0  0  0  0  0  0  0
    3.3774   -1.8531    1.3747 H   0  0  0  0  0  0  0  0  0  0  0  0
    4.2847   -2.5707    2.7280 H   0  0  0  0  0  0  0  0  0  0  0  0
    2.4067   -4.2045    2.1413 H   0  0  0  0  0  0  0  0  0  0  0  0
    4.1359   -3.3964   -1.1660 H   0  0  0  0  0  0  0  0  0  0  0  0
    5.2926   -4.6634   -0.7302 H   0  0  0  0  0  0  0  0  0  0  0  0
  1  2  1  0
  1 28  1  0
  1 29  1  0
  1 30  1  0
  2  3  2  0
  2 27  1  0
  3  4  1  0
  4  5  1  0
  4 26  2  0
  5  6  1  0
  5 31  1  0
  5 32  1  0
  6  7  1  0
  7  8  2  0
  7 12  1  0
  8  9  1  0
  8 33  1  0
  9 10  2  0
  9 34  1  0
 10 11  1  0
 10 35  1  0
 11 12  2  0
 11 36  1  0
 12 13  1  0
 13 14  2  0
 13 15  1  0
 15 16  1  0
 15 20  1  0
 16 17  1  0
 16 37  1  0
 16 38  1  0
 18 17  1  1
 17 39  1  0
 17 40  1  0
 18 19  1  0
 18 21  1  0
 18 25  1  0
 19 20  1  0
 19 41  1  0
 19 42  1  0
 20 43  1  0
 20 44  1  0
 21 22  1  0
 21 45  1  0
 21 46  1  0
 22 23  1  0
 22 47  1  0
 23 24  2  0
 23 25  1  0
 25 48  1  0
 25 49  1  0
 26 27  1  0
M  END

