
     RDKit          3D

 21 21  0  0  0  0  0  0  0  0999 V2000
    1.4583    0.2812   -0.1527 C   0  0  0  0  0  0  0  0  0  0  0  0
    2.9255   -0.0868   -0.4086 C   0  0  0  0  0  0  0  0  0  0  0  0
    3.1090   -1.5180   -0.8011 C   0  0  0  0  0  0  0  0  0  0  0  0
    3.6146   -1.8792   -1.9536 N   0  0  0  0  0  0  0  0  0  0  0  0
    3.6030   -3.2706   -1.9012 O   0  0  0  0  0  0  0  0  0  0  0  0
    3.0821   -3.6112   -0.7227 C   0  0  0  0  0  0  0  0  0  0  0  0
    2.9720   -5.0503   -0.3732 C   0  0  0  0  0  0  0  0  0  0  0  0
    3.8118   -5.4252    1.2265 S   0  0  1  0  0  0  0  0  0  0  0  0
    3.0034   -4.5321    2.3756 N   0  0  0  0  0  0  0  0  0  0  0  0
    3.5390   -6.8304    1.5089 O   0  0  0  0  0  0  0  0  0  0  0  0
    5.1576   -4.8798    1.1020 O   0  0  0  0  0  0  0  0  0  0  0  0
    2.7540   -2.5823    0.0031 N   0  0  0  0  0  0  0  0  0  0  0  0
    1.3754    1.3298    0.1708 H   0  0  0  0  0  0  0  0  0  0  0  0
    1.0237   -0.3547    0.6337 H   0  0  0  0  0  0  0  0  0  0  0  0
    0.8525    0.1575   -1.0641 H   0  0  0  0  0  0  0  0  0  0  0  0
    3.5192    0.0916    0.5042 H   0  0  0  0  0  0  0  0  0  0  0  0
    3.3569    0.5380   -1.2043 H   0  0  0  0  0  0  0  0  0  0  0  0
    3.4721   -5.6783   -1.1226 H   0  0  0  0  0  0  0  0  0  0  0  0
    1.9259   -5.3725   -0.2654 H   0  0  0  0  0  0  0  0  0  0  0  0
    2.1058   -4.9479    2.6207 H   0  0  0  0  0  0  0  0  0  0  0  0
    2.9315   -3.5446    2.1137 H   0  0  0  0  0  0  0  0  0  0  0  0
  1  2  1  0
  1 13  1  0
  1 14  1  0
  1 15  1  0
  2  3  1  0
  2 16  1  0
  2 17  1  0
  3  4  2  0
  3 12  1  0
  4  5  1  0
  5  6  1  0
  6  7  1  0
  6 12  2  0
  7  8  1  0
  7 18  1  0
  7 19  1  0
  8  9  1  1
  8 10  2  0
  8 11  2  0
  9 20  1  0
  9 21  1  0
M  END

