
     RDKit          3D

 41 42  0  0  0  0  0  0  0  0999 V2000
    2.5992    1.6064    0.0127 C   0  0  0  0  0  0  0  0  0  0  0  0
    2.4821    0.2515   -0.3481 O   0  0  0  0  0  0  0  0  0  0  0  0
    3.1042   -0.1877   -1.4677 C   0  0  0  0  0  0  0  0  0  0  0  0
    3.8739    0.6019   -2.3214 C   0  0  0  0  0  0  0  0  0  0  0  0
    4.4819    0.0487   -3.4650 C   0  0  0  0  0  0  0  0  0  0  0  0
    4.3187   -1.2939   -3.7528 C   0  0  0  0  0  0  0  0  0  0  0  0
    3.5428   -2.1220   -2.9050 C   0  0  0  0  0  0  0  0  0  0  0  0
    3.3871   -3.5284   -3.2294 C   0  0  0  0  0  0  0  0  0  0  0  0
    2.6909   -4.3236   -2.4893 N   0  0  0  0  0  0  0  0  0  0  0  0
    2.5814   -5.6214   -2.8402 N   0  0  0  0  0  0  0  0  0  0  0  0
    1.8575   -6.5037   -2.0957 C   0  0  0  0  0  0  0  0  0  0  0  0
    1.2465   -6.2590   -1.0732 O   0  0  0  0  0  0  0  0  0  0  0  0
    1.9052   -7.9091   -2.7314 C   0  0  0  0  0  0  0  0  0  0  0  0
    2.5114   -8.1182   -3.7770 O   0  0  0  0  0  0  0  0  0  0  0  0
    1.2277   -8.8135   -2.0030 N   0  0  0  0  0  0  0  0  0  0  0  0
    1.0807  -10.2094   -2.3883 C   0  0  0  0  0  0  0  0  0  0  0  0
   -0.2780  -10.5353   -2.9819 C   0  0  0  0  0  0  0  0  0  0  0  0
   -0.6221  -10.0600   -4.2587 C   0  0  0  0  0  0  0  0  0  0  0  0
   -1.8754  -10.3411   -4.8052 C   0  0  0  0  0  0  0  0  0  0  0  0
   -2.8024  -11.1039   -4.0851 C   0  0  0  0  0  0  0  0  0  0  0  0
   -2.4680  -11.5838   -2.8168 C   0  0  0  0  0  0  0  0  0  0  0  0
   -1.2121  -11.2990   -2.2696 C   0  0  0  0  0  0  0  0  0  0  0  0
    2.9266   -1.5731   -1.7506 C   0  0  0  0  0  0  0  0  0  0  0  0
    2.1834   -2.2875   -0.9073 O   0  0  0  0  0  0  0  0  0  0  0  0
    2.0225    1.7346    0.9386 H   0  0  0  0  0  0  0  0  0  0  0  0
    2.1849    2.2777   -0.7622 H   0  0  0  0  0  0  0  0  0  0  0  0
    3.6498    1.8939    0.2034 H   0  0  0  0  0  0  0  0  0  0  0  0
    4.0107    1.6619   -2.1063 H   0  0  0  0  0  0  0  0  0  0  0  0
    5.0800    0.6874   -4.1184 H   0  0  0  0  0  0  0  0  0  0  0  0
    4.7862   -1.7338   -4.6378 H   0  0  0  0  0  0  0  0  0  0  0  0
    3.8897   -3.8991   -4.1406 H   0  0  0  0  0  0  0  0  0  0  0  0
    3.0307   -5.9983   -3.6808 H   0  0  0  0  0  0  0  0  0  0  0  0
    0.7366   -8.4421   -1.1924 H   0  0  0  0  0  0  0  0  0  0  0  0
    1.2667  -10.8414   -1.5056 H   0  0  0  0  0  0  0  0  0  0  0  0
    1.8747  -10.4111   -3.1221 H   0  0  0  0  0  0  0  0  0  0  0  0
    0.1044   -9.4697   -4.8241 H   0  0  0  0  0  0  0  0  0  0  0  0
   -2.1301   -9.9679   -5.8006 H   0  0  0  0  0  0  0  0  0  0  0  0
   -3.7828  -11.3251   -4.5149 H   0  0  0  0  0  0  0  0  0  0  0  0
   -3.1856  -12.1819   -2.2493 H   0  0  0  0  0  0  0  0  0  0  0  0
   -0.9549  -11.6790   -1.2762 H   0  0  0  0  0  0  0  0  0  0  0  0
    2.1488   -3.2229   -1.2281 H   0  0  0  0  0  0  0  0  0  0  0  0
  1  2  1  0
  1 25  1  0
  1 26  1  0
  1 27  1  0
  2  3  1  0
  3  4  2  0
  3 23  1  0
  4  5  1  0
  4 28  1  0
  5  6  2  0
  5 29  1  0
  6  7  1  0
  6 30  1  0
  7  8  1  0
  7 23  2  0
  8  9  2  0
  8 31  1  0
  9 10  1  0
 10 11  1  0
 10 32  1  0
 11 12  2  0
 11 13  1  0
 13 14  2  0
 13 15  1  0
 15 16  1  0
 15 33  1  0
 16 17  1  0
 16 34  1  0
 16 35  1  0
 17 18  2  0
 17 22  1  0
 18 19  1  0
 18 36  1  0
 19 20  2  0
 19 37  1  0
 20 21  1  0
 20 38  1  0
 21 22  2  0
 21 39  1  0
 22 40  1  0
 23 24  1  0
 24 41  1  0
M  END

