
     RDKit          3D

 46 47  0  0  0  0  0  0  0  0999 V2000
   12.0526   -3.1610   -2.3403 C   0  0  0  0  0  0  0  0  0  0  0  0
   10.7740   -2.4160   -2.0425 C   0  0  0  0  0  0  0  0  0  0  0  0
   10.1581   -2.5059   -0.7812 C   0  0  0  0  0  0  0  0  0  0  0  0
    8.9797   -1.8084   -0.5343 C   0  0  0  0  0  0  0  0  0  0  0  0
    8.3954   -1.0042   -1.5218 C   0  0  0  0  0  0  0  0  0  0  0  0
    6.9156   -0.0971   -1.0657 S   0  0  1  0  0  0  0  0  0  0  0  0
    6.1498    0.1656   -2.2971 O   0  0  0  0  0  0  0  0  0  0  0  0
    6.2959   -0.7899    0.0646 O   0  0  0  0  0  0  0  0  0  0  0  0
    7.3841    1.4109   -0.4845 N   0  0  0  0  0  0  0  0  0  0  0  0
    7.9236    2.3935   -1.4312 C   0  0  0  0  0  0  0  0  0  0  0  0
    7.7018    3.8091   -0.8918 C   0  0  0  0  0  0  0  0  0  0  0  0
    8.2575    4.0035    0.5314 C   0  0  2  0  0  0  0  0  0  0  0  0
    9.7958    4.1050    0.5702 C   0  0  0  0  0  0  0  0  0  0  0  0
   10.3524    5.1455   -0.2841 N   0  0  0  0  0  0  0  0  0  0  0  0
   10.0843    6.4916    0.1855 C   0  0  0  0  0  0  0  0  0  0  0  0
   11.7614    4.9450   -0.5635 C   0  0  0  0  0  0  0  0  0  0  0  0
    7.7381    2.8771    1.4466 C   0  0  0  0  0  0  0  0  0  0  0  0
    7.9527    1.4756    0.8645 C   0  0  0  0  0  0  0  0  0  0  0  0
    8.9783   -0.9128   -2.8175 C   0  0  0  0  0  0  0  0  0  0  0  0
    8.4379   -0.1504   -3.8233 N   0  0  0  0  0  0  0  0  0  0  0  0
   10.1755   -1.6320   -3.0308 C   0  0  0  0  0  0  0  0  0  0  0  0
   12.3857   -3.7540   -1.4764 H   0  0  0  0  0  0  0  0  0  0  0  0
   12.8657   -2.4653   -2.6070 H   0  0  0  0  0  0  0  0  0  0  0  0
   11.9247   -3.8478   -3.1934 H   0  0  0  0  0  0  0  0  0  0  0  0
   10.5967   -3.1298    0.0008 H   0  0  0  0  0  0  0  0  0  0  0  0
    8.4778   -1.8915    0.4311 H   0  0  0  0  0  0  0  0  0  0  0  0
    7.4047    2.2721   -2.3897 H   0  0  0  0  0  0  0  0  0  0  0  0
    9.0018    2.2107   -1.6140 H   0  0  0  0  0  0  0  0  0  0  0  0
    6.6172    4.0088   -0.8855 H   0  0  0  0  0  0  0  0  0  0  0  0
    8.1762    4.5297   -1.5753 H   0  0  0  0  0  0  0  0  0  0  0  0
    7.8515    4.9510    0.9240 H   0  0  0  0  0  0  0  0  0  0  0  0
   10.2343    3.1480    0.2448 H   0  0  0  0  0  0  0  0  0  0  0  0
   10.1129    4.2363    1.6328 H   0  0  0  0  0  0  0  0  0  0  0  0
    9.0030    6.6671    0.2851 H   0  0  0  0  0  0  0  0  0  0  0  0
   10.4703    7.2260   -0.5390 H   0  0  0  0  0  0  0  0  0  0  0  0
   10.5551    6.7107    1.1730 H   0  0  0  0  0  0  0  0  0  0  0  0
   11.9252    3.9502   -1.0073 H   0  0  0  0  0  0  0  0  0  0  0  0
   12.4082    5.0223    0.3420 H   0  0  0  0  0  0  0  0  0  0  0  0
   12.1142    5.6979   -1.2866 H   0  0  0  0  0  0  0  0  0  0  0  0
    6.6561    3.0169    1.6046 H   0  0  0  0  0  0  0  0  0  0  0  0
    8.2182    2.9299    2.4387 H   0  0  0  0  0  0  0  0  0  0  0  0
    7.4423    0.7303    1.4874 H   0  0  0  0  0  0  0  0  0  0  0  0
    9.0322    1.2185    0.8483 H   0  0  0  0  0  0  0  0  0  0  0  0
    7.4465    0.0675   -3.7379 H   0  0  0  0  0  0  0  0  0  0  0  0
    8.7882   -0.3155   -4.7583 H   0  0  0  0  0  0  0  0  0  0  0  0
   10.6376   -1.5737   -4.0217 H   0  0  0  0  0  0  0  0  0  0  0  0
  1  2  1  0
  1 22  1  0
  1 23  1  0
  1 24  1  0
  2  3  2  0
  2 21  1  0
  3  4  1  0
  3 25  1  0
  4  5  2  0
  4 26  1  0
  6  5  1  6
  5 19  1  0
  6  7  2  0
  6  8  2  0
  6  9  1  0
  9 10  1  0
  9 18  1  0
 10 11  1  0
 10 27  1  0
 10 28  1  0
 11 12  1  0
 11 29  1  0
 11 30  1  0
 12 13  1  0
 12 17  1  0
 12 31  1  1
 13 14  1  0
 13 32  1  0
 13 33  1  0
 14 15  1  0
 14 16  1  0
 15 34  1  0
 15 35  1  0
 15 36  1  0
 16 37  1  0
 16 38  1  0
 16 39  1  0
 17 18  1  0
 17 40  1  0
 17 41  1  0
 18 42  1  0
 18 43  1  0
 19 20  1  0
 19 21  2  0
 20 44  1  0
 20 45  1  0
 21 46  1  0
M  END

