
     RDKit          3D

 54 55  0  0  0  0  0  0  0  0999 V2000
    0.7542   -0.6691    1.9021 C   0  0  0  0  0  0  0  0  0  0  0  0
    2.0787   -0.4918    1.1819 C   0  0  0  0  0  0  0  0  0  0  0  0
    3.0471   -1.3208    1.7858 O   0  0  0  0  0  0  0  0  0  0  0  0
    4.3169   -1.2676    1.1831 C   0  0  1  0  0  0  0  0  0  0  0  0
    5.2108   -0.0370    1.4706 C   0  0  0  0  0  0  0  0  0  0  0  0
    6.3890   -0.9976    1.8417 C   0  0  2  0  0  0  0  0  0  0  0  0
    7.0636   -0.7055    3.2109 C   0  0  0  0  0  0  0  0  0  0  0  0
    6.0986   -0.4450    4.2458 N   0  0  0  0  0  0  0  0  0  0  0  0
    6.1730   -0.9681    5.4166 C   0  0  0  0  0  0  0  0  0  0  0  0
    7.3107   -1.5654    5.9830 N   0  0  0  0  0  0  0  0  0  0  0  0
    8.6174   -0.9548    5.8737 C   0  0  0  0  0  0  0  0  0  0  0  0
    7.2463   -2.8106    6.7186 C   0  0  0  0  0  0  0  0  0  0  0  0
    5.0385   -0.9967    6.2304 N   0  0  0  0  0  0  0  0  0  0  0  0
    3.7582   -0.6726    5.6261 C   0  0  0  0  0  0  0  0  0  0  0  0
    5.1386   -0.6183    7.6304 C   0  0  0  0  0  0  0  0  0  0  0  0
    7.3384   -1.1474    0.7395 N   0  0  0  0  0  0  0  0  0  0  0  0
    7.9963    0.0160    0.1634 C   0  0  0  0  0  0  0  0  0  0  0  0
    9.4662    0.1484    0.5799 C   0  0  0  0  0  0  0  0  0  0  0  0
   10.1789   -1.0481    0.3306 O   0  0  0  0  0  0  0  0  0  0  0  0
    9.6079   -2.1472    1.0139 C   0  0  0  0  0  0  0  0  0  0  0  0
    8.1441   -2.3520    0.6071 C   0  0  0  0  0  0  0  0  0  0  0  0
    5.3518   -2.1675    1.8676 C   0  0  0  0  0  0  0  0  0  0  0  0
   -0.0281   -0.0510    1.4338 H   0  0  0  0  0  0  0  0  0  0  0  0
    0.8426   -0.3741    2.9594 H   0  0  0  0  0  0  0  0  0  0  0  0
    0.4351   -1.7225    1.8674 H   0  0  0  0  0  0  0  0  0  0  0  0
    2.3967    0.5708    1.2175 H   0  0  0  0  0  0  0  0  0  0  0  0
    1.9713   -0.7534    0.1073 H   0  0  0  0  0  0  0  0  0  0  0  0
    4.2293   -1.4704    0.0979 H   0  0  0  0  0  0  0  0  0  0  0  0
    4.8620    0.4981    2.3633 H   0  0  0  0  0  0  0  0  0  0  0  0
    5.3800    0.6671    0.6439 H   0  0  0  0  0  0  0  0  0  0  0  0
    7.7173    0.1778    3.0724 H   0  0  0  0  0  0  0  0  0  0  0  0
    7.7313   -1.5598    3.4439 H   0  0  0  0  0  0  0  0  0  0  0  0
    8.5339    0.0385    5.4151 H   0  0  0  0  0  0  0  0  0  0  0  0
    9.3249   -1.5547    5.2692 H   0  0  0  0  0  0  0  0  0  0  0  0
    9.0685   -0.8266    6.8774 H   0  0  0  0  0  0  0  0  0  0  0  0
    6.2231   -3.2063    6.6908 H   0  0  0  0  0  0  0  0  0  0  0  0
    7.5434   -2.6935    7.7803 H   0  0  0  0  0  0  0  0  0  0  0  0
    7.9225   -3.5645    6.2715 H   0  0  0  0  0  0  0  0  0  0  0  0
    3.6858   -1.0949    4.6167 H   0  0  0  0  0  0  0  0  0  0  0  0
    3.6039    0.4209    5.5370 H   0  0  0  0  0  0  0  0  0  0  0  0
    2.9506   -1.0844    6.2539 H   0  0  0  0  0  0  0  0  0  0  0  0
    6.1536   -0.7885    8.0082 H   0  0  0  0  0  0  0  0  0  0  0  0
    4.4359   -1.2060    8.2455 H   0  0  0  0  0  0  0  0  0  0  0  0
    4.8979    0.4544    7.7791 H   0  0  0  0  0  0  0  0  0  0  0  0
    7.4530    0.9330    0.4344 H   0  0  0  0  0  0  0  0  0  0  0  0
    7.9716   -0.0608   -0.9436 H   0  0  0  0  0  0  0  0  0  0  0  0
    9.5379    0.4159    1.6552 H   0  0  0  0  0  0  0  0  0  0  0  0
    9.9630    0.9415   -0.0023 H   0  0  0  0  0  0  0  0  0  0  0  0
    9.6817   -1.9931    2.1113 H   0  0  0  0  0  0  0  0  0  0  0  0
   10.2103   -3.0323    0.7518 H   0  0  0  0  0  0  0  0  0  0  0  0
    7.7083   -3.1691    1.2002 H   0  0  0  0  0  0  0  0  0  0  0  0
    8.1385   -2.6814   -0.4529 H   0  0  0  0  0  0  0  0  0  0  0  0
    5.0330   -2.4003    2.8924 H   0  0  0  0  0  0  0  0  0  0  0  0
    5.6222   -3.0979    1.3494 H   0  0  0  0  0  0  0  0  0  0  0  0
  1  2  1  0
  1 23  1  0
  1 24  1  0
  1 25  1  0
  2  3  1  0
  2 26  1  0
  2 27  1  0
  3  4  1  0
  4  5  1  0
  4 22  1  0
  4 28  1  6
  5  6  1  0
  5 29  1  0
  5 30  1  0
  6  7  1  1
  6 16  1  0
  6 22  1  0
  7  8  1  0
  7 31  1  0
  7 32  1  0
  8  9  2  0
  9 10  1  0
  9 13  1  0
 10 11  1  0
 10 12  1  0
 11 33  1  0
 11 34  1  0
 11 35  1  0
 12 36  1  0
 12 37  1  0
 12 38  1  0
 13 14  1  0
 13 15  1  0
 14 39  1  0
 14 40  1  0
 14 41  1  0
 15 42  1  0
 15 43  1  0
 15 44  1  0
 16 17  1  0
 16 21  1  0
 17 18  1  0
 17 45  1  0
 17 46  1  0
 18 19  1  0
 18 47  1  0
 18 48  1  0
 19 20  1  0
 20 21  1  0
 20 49  1  0
 20 50  1  0
 21 51  1  0
 21 52  1  0
 22 53  1  0
 22 54  1  0
M  END

