
     RDKit          3D

 38 39  0  0  0  0  0  0  0  0999 V2000
   14.0936    3.3346    2.8415 C   0  0  0  0  0  0  0  0  0  0  0  0
   13.5573    1.8986    2.9602 C   0  0  0  0  0  0  0  0  0  0  0  0
   12.1554    1.7188    2.4588 C   0  0  0  0  0  0  0  0  0  0  0  0
   11.6691    1.0359    1.3492 C   0  0  0  0  0  0  0  0  0  0  0  0
   10.2586    1.1730    1.3386 C   0  0  0  0  0  0  0  0  0  0  0  0
    9.9027    1.9555    2.4300 C   0  0  0  0  0  0  0  0  0  0  0  0
    8.5257    2.2861    2.8592 C   0  0  0  0  0  0  0  0  0  0  0  0
    7.5956    1.5628    2.5304 O   0  0  0  0  0  0  0  0  0  0  0  0
    8.3133    3.4056    3.6758 N   0  0  0  0  0  0  0  0  0  0  0  0
    9.1340    4.6152    3.5201 C   0  0  0  0  0  0  0  0  0  0  0  0
    9.8595    5.0836    4.7841 C   0  0  0  0  0  0  0  0  0  0  0  0
    6.9234    3.5107    4.1702 C   0  0  2  0  0  0  0  0  0  0  0  0
    6.2247    3.3550    3.3349 H   0  0  0  0  0  0  0  0  0  0  0  0
    6.5998    4.7752    4.9687 C   0  0  0  0  0  0  0  0  0  0  0  0
    7.0144    4.5331    6.3123 O   0  0  0  0  0  0  0  0  0  0  0  0
    7.2229    3.1295    6.5032 C   0  0  0  0  0  0  0  0  0  0  0  0
    6.6351    2.4467    5.2672 C   0  0  1  0  0  0  0  0  0  0  0  0
    7.1094    1.4866    5.0307 H   0  0  0  0  0  0  0  0  0  0  0  0
    5.2527    2.1856    5.3885 O   0  0  0  0  0  0  0  0  0  0  0  0
   11.0754    2.2800    3.0920 N   0  0  0  0  0  0  0  0  0  0  0  0
   11.1181    2.7635    3.9796 H   0  0  0  0  0  0  0  0  0  0  0  0
   15.1259    3.4023    3.2202 H   0  0  0  0  0  0  0  0  0  0  0  0
   13.4811    4.0456    3.4201 H   0  0  0  0  0  0  0  0  0  0  0  0
   14.0900    3.6716    1.7931 H   0  0  0  0  0  0  0  0  0  0  0  0
   13.6210    1.5714    4.0148 H   0  0  0  0  0  0  0  0  0  0  0  0
   14.2069    1.2135    2.3939 H   0  0  0  0  0  0  0  0  0  0  0  0
   12.2800    0.4919    0.6307 H   0  0  0  0  0  0  0  0  0  0  0  0
    9.5511    0.7573    0.6252 H   0  0  0  0  0  0  0  0  0  0  0  0
    8.4990    5.4336    3.1384 H   0  0  0  0  0  0  0  0  0  0  0  0
    9.8615    4.4257    2.7204 H   0  0  0  0  0  0  0  0  0  0  0  0
    9.1621    5.2804    5.6108 H   0  0  0  0  0  0  0  0  0  0  0  0
   10.4236    6.0072    4.5761 H   0  0  0  0  0  0  0  0  0  0  0  0
   10.5809    4.3310    5.1459 H   0  0  0  0  0  0  0  0  0  0  0  0
    5.5053    4.9394    4.9270 H   0  0  0  0  0  0  0  0  0  0  0  0
    7.0698    5.7006    4.6095 H   0  0  0  0  0  0  0  0  0  0  0  0
    6.7204    2.8007    7.4276 H   0  0  0  0  0  0  0  0  0  0  0  0
    8.3038    2.9212    6.5988 H   0  0  0  0  0  0  0  0  0  0  0  0
    4.8178    2.9535    5.7820 H   0  0  0  0  0  0  0  0  0  0  0  0
  1  2  1  0
  1 22  1  0
  1 23  1  0
  1 24  1  0
  2  3  1  0
  2 25  1  0
  2 26  1  0
  3  4  2  0
  3 20  1  0
  4  5  1  0
  4 27  1  0
  5  6  2  0
  5 28  1  0
  6  7  1  0
  6 20  1  0
  7  8  2  0
  7  9  1  0
  9 10  1  0
  9 12  1  0
 10 11  1  0
 10 29  1  0
 10 30  1  0
 11 31  1  0
 11 32  1  0
 11 33  1  0
 12 13  1  6
 12 14  1  0
 12 17  1  0
 14 15  1  0
 14 34  1  0
 14 35  1  0
 15 16  1  0
 16 17  1  0
 16 36  1  0
 16 37  1  0
 17 18  1  6
 17 19  1  0
 19 38  1  0
 20 21  1  0
M  END

