
     RDKit          3D

 60 63  0  0  0  0  0  0  0  0999 V2000
    2.1385    1.2710    3.5928 C   0  0  0  0  0  0  0  0  0  0  0  0
    3.1423    0.8610    2.5433 C   0  0  0  0  0  0  0  0  0  0  0  0
    3.4123   -0.4902    2.2938 C   0  0  0  0  0  0  0  0  0  0  0  0
    4.3334   -0.9161    1.3344 C   0  0  0  0  0  0  0  0  0  0  0  0
    5.0245    0.0437    0.5786 C   0  0  0  0  0  0  0  0  0  0  0  0
    5.9685   -0.2661   -0.4161 N   0  0  0  0  0  0  0  0  0  0  0  0
    6.4056   -1.5218   -0.8264 C   0  0  0  0  0  0  0  0  0  0  0  0
    6.0286   -2.5724   -0.3281 O   0  0  0  0  0  0  0  0  0  0  0  0
    7.3137   -1.4944   -1.8600 N   0  0  0  0  0  0  0  0  0  0  0  0
    7.7720   -0.3248   -2.6040 C   0  0  0  0  0  0  0  0  0  0  0  0
    8.5128   -0.9335   -3.8015 C   0  0  0  0  0  0  0  0  0  0  0  0
    9.0528   -2.2663   -3.2543 C   0  0  2  0  0  0  0  0  0  0  0  0
    9.4660   -3.2579   -4.3429 C   0  0  0  0  0  0  0  0  0  0  0  0
   10.1526   -4.4799   -3.8020 C   0  0  0  0  0  0  0  0  0  0  0  0
   10.4791   -4.6811   -2.5447 N   0  0  0  0  0  0  0  0  0  0  0  0
   11.0989   -5.9048   -2.5032 C   0  0  0  0  0  0  0  0  0  0  0  0
   11.1572   -6.4698   -3.7574 C   0  0  0  0  0  0  0  0  0  0  0  0
   11.7090   -7.7726   -4.2328 C   0  0  0  0  0  0  0  0  0  0  0  0
   10.5391   -5.5432   -4.5930 N   0  0  0  0  0  0  0  0  0  0  0  0
   10.4033   -5.6466   -6.0323 C   0  0  0  0  0  0  0  0  0  0  0  0
   11.5491   -5.0507   -6.8416 C   0  0  0  0  0  0  0  0  0  0  0  0
   12.7035   -4.5347   -6.2397 C   0  0  0  0  0  0  0  0  0  0  0  0
   13.7365   -4.0061   -7.0233 C   0  0  0  0  0  0  0  0  0  0  0  0
   13.6278   -3.9876   -8.4150 C   0  0  0  0  0  0  0  0  0  0  0  0
   12.4768   -4.5010   -9.0237 C   0  0  0  0  0  0  0  0  0  0  0  0
   11.4472   -5.0269   -8.2422 C   0  0  0  0  0  0  0  0  0  0  0  0
    7.9147   -2.7426   -2.3365 C   0  0  0  0  0  0  0  0  0  0  0  0
    4.7611    1.4054    0.8206 C   0  0  0  0  0  0  0  0  0  0  0  0
    3.8398    1.8282    1.7828 C   0  0  0  0  0  0  0  0  0  0  0  0
    3.5968    3.3018    2.0022 C   0  0  0  0  0  0  0  0  0  0  0  0
    1.6951    0.3919    4.0831 H   0  0  0  0  0  0  0  0  0  0  0  0
    1.3125    1.8653    3.1644 H   0  0  0  0  0  0  0  0  0  0  0  0
    2.5960    1.8957    4.3799 H   0  0  0  0  0  0  0  0  0  0  0  0
    2.8815   -1.2502    2.8755 H   0  0  0  0  0  0  0  0  0  0  0  0
    4.5279   -1.9720    1.1645 H   0  0  0  0  0  0  0  0  0  0  0  0
    6.3985    0.5395   -0.8505 H   0  0  0  0  0  0  0  0  0  0  0  0
    8.4545    0.3044   -1.9969 H   0  0  0  0  0  0  0  0  0  0  0  0
    6.9287    0.3126   -2.9243 H   0  0  0  0  0  0  0  0  0  0  0  0
    9.3001   -0.2709   -4.1926 H   0  0  0  0  0  0  0  0  0  0  0  0
    7.8002   -1.1261   -4.6223 H   0  0  0  0  0  0  0  0  0  0  0  0
    9.9341   -2.0646   -2.6228 H   0  0  0  0  0  0  0  0  0  0  0  0
   10.1353   -2.7498   -5.0619 H   0  0  0  0  0  0  0  0  0  0  0  0
    8.5716   -3.5514   -4.9250 H   0  0  0  0  0  0  0  0  0  0  0  0
   11.4694   -6.3305   -1.5709 H   0  0  0  0  0  0  0  0  0  0  0  0
   12.1677   -8.3057   -3.3880 H   0  0  0  0  0  0  0  0  0  0  0  0
   12.4838   -7.6445   -5.0079 H   0  0  0  0  0  0  0  0  0  0  0  0
   10.9286   -8.4323   -4.6522 H   0  0  0  0  0  0  0  0  0  0  0  0
    9.4583   -5.1649   -6.3291 H   0  0  0  0  0  0  0  0  0  0  0  0
   10.2903   -6.7117   -6.2909 H   0  0  0  0  0  0  0  0  0  0  0  0
   12.7993   -4.5451   -5.1517 H   0  0  0  0  0  0  0  0  0  0  0  0
   14.6309   -3.6071   -6.5380 H   0  0  0  0  0  0  0  0  0  0  0  0
   14.4347   -3.5745   -9.0254 H   0  0  0  0  0  0  0  0  0  0  0  0
   12.3810   -4.4900  -10.1126 H   0  0  0  0  0  0  0  0  0  0  0  0
   10.5499   -5.4250   -8.7267 H   0  0  0  0  0  0  0  0  0  0  0  0
    8.2726   -3.3579   -1.5015 H   0  0  0  0  0  0  0  0  0  0  0  0
    7.1737   -3.3478   -2.8945 H   0  0  0  0  0  0  0  0  0  0  0  0
    5.2953    2.1621    0.2354 H   0  0  0  0  0  0  0  0  0  0  0  0
    4.2155    3.9178    1.3331 H   0  0  0  0  0  0  0  0  0  0  0  0
    3.8244    3.6012    3.0397 H   0  0  0  0  0  0  0  0  0  0  0  0
    2.5412    3.5707    1.8253 H   0  0  0  0  0  0  0  0  0  0  0  0
  1  2  1  0
  1 31  1  0
  1 32  1  0
  1 33  1  0
  2  3  2  0
  2 29  1  0
  3  4  1  0
  3 34  1  0
  4  5  2  0
  4 35  1  0
  5  6  1  0
  5 28  1  0
  6  7  1  0
  6 36  1  0
  7  8  2  0
  7  9  1  0
  9 10  1  0
  9 27  1  0
 10 11  1  0
 10 37  1  0
 10 38  1  0
 11 12  1  0
 11 39  1  0
 11 40  1  0
 12 13  1  0
 12 27  1  0
 12 41  1  1
 13 14  1  0
 13 42  1  0
 13 43  1  0
 14 15  2  0
 14 19  1  0
 15 16  1  0
 16 17  2  0
 16 44  1  0
 17 18  1  0
 17 19  1  0
 18 45  1  0
 18 46  1  0
 18 47  1  0
 19 20  1  0
 20 21  1  0
 20 48  1  0
 20 49  1  0
 21 22  2  0
 21 26  1  0
 22 23  1  0
 22 50  1  0
 23 24  2  0
 23 51  1  0
 24 25  1  0
 24 52  1  0
 25 26  2  0
 25 53  1  0
 26 54  1  0
 27 55  1  0
 27 56  1  0
 28 29  2  0
 28 57  1  0
 29 30  1  0
 30 58  1  0
 30 59  1  0
 30 60  1  0
M  END

