
     RDKit          3D

 37 39  0  0  0  0  0  0  0  0999 V2000
    5.2854   -2.2424    0.3284 C   0  0  0  0  0  0  0  0  0  0  0  0
    4.5274   -0.9544    0.5135 C   0  0  0  0  0  0  0  0  0  0  0  0
    5.1560    0.2051    0.9746 C   0  0  0  0  0  0  0  0  0  0  0  0
    4.4395    1.3956    1.1400 C   0  0  0  0  0  0  0  0  0  0  0  0
    5.2644    2.8276    1.7216 Cl  0  0  0  0  0  0  0  0  0  0  0  0
    3.0808    1.4476    0.8409 C   0  0  0  0  0  0  0  0  0  0  0  0
    2.4331    0.2975    0.3760 C   0  0  0  0  0  0  0  0  0  0  0  0
    3.1456   -0.8974    0.2190 C   0  0  0  0  0  0  0  0  0  0  0  0
    2.5933   -2.0717   -0.2178 O   0  0  0  0  0  0  0  0  0  0  0  0
    1.1951   -2.1752   -0.4514 C   0  0  1  0  0  0  0  0  0  0  0  0
    0.8103   -1.5451   -1.7717 C   0  0  0  0  0  0  0  0  0  0  0  0
   -0.3657   -1.0458   -2.0147 N   0  0  0  0  0  0  0  0  0  0  0  0
   -0.4591   -0.5916   -3.3054 C   0  0  0  0  0  0  0  0  0  0  0  0
    0.6698   -0.7394   -4.0674 C   0  0  0  0  0  0  0  0  0  0  0  0
    1.9179   -1.4879   -3.1315 S   0  0  0  0  0  0  0  0  0  0  0  0
    0.7917   -3.6556   -0.3638 C   0  0  1  0  0  0  0  0  0  0  0  0
    1.5585   -4.6442   -1.2567 C   0  0  0  0  0  0  0  0  0  0  0  0
    1.2209   -5.9878   -0.5941 C   0  0  0  0  0  0  0  0  0  0  0  0
    1.0853   -5.7064    0.8430 N   0  0  0  0  0  0  0  0  0  0  0  0
    0.9686   -4.2575    1.0487 C   0  0  0  0  0  0  0  0  0  0  0  0
    6.3444   -2.1204    0.5969 H   0  0  0  0  0  0  0  0  0  0  0  0
    5.2294   -2.5909   -0.7159 H   0  0  0  0  0  0  0  0  0  0  0  0
    4.8604   -3.0487    0.9486 H   0  0  0  0  0  0  0  0  0  0  0  0
    6.2218    0.1844    1.2111 H   0  0  0  0  0  0  0  0  0  0  0  0
    2.5271    2.3798    0.9629 H   0  0  0  0  0  0  0  0  0  0  0  0
    1.3739    0.3573    0.1264 H   0  0  0  0  0  0  0  0  0  0  0  0
    0.6342   -1.6322    0.3293 H   0  0  0  0  0  0  0  0  0  0  0  0
   -1.3901   -0.1400   -3.6532 H   0  0  0  0  0  0  0  0  0  0  0  0
    0.8346   -0.4417   -5.1015 H   0  0  0  0  0  0  0  0  0  0  0  0
   -0.2776   -3.6883   -0.6332 H   0  0  0  0  0  0  0  0  0  0  0  0
    2.6397   -4.4401   -1.1914 H   0  0  0  0  0  0  0  0  0  0  0  0
    1.2645   -4.5951   -2.3160 H   0  0  0  0  0  0  0  0  0  0  0  0
    1.9842   -6.7606   -0.7800 H   0  0  0  0  0  0  0  0  0  0  0  0
    0.2696   -6.3794   -1.0036 H   0  0  0  0  0  0  0  0  0  0  0  0
    1.8557   -6.0963    1.3757 H   0  0  0  0  0  0  0  0  0  0  0  0
    1.8716   -3.8305    1.5221 H   0  0  0  0  0  0  0  0  0  0  0  0
    0.1094   -3.9998    1.6950 H   0  0  0  0  0  0  0  0  0  0  0  0
  1  2  1  0
  1 21  1  0
  1 22  1  0
  1 23  1  0
  2  3  2  0
  2  8  1  0
  3  4  1  0
  3 24  1  0
  4  5  1  0
  4  6  2  0
  6  7  1  0
  6 25  1  0
  7  8  2  0
  7 26  1  0
  8  9  1  0
  9 10  1  0
 10 11  1  0
 10 16  1  0
 10 27  1  1
 11 12  2  0
 11 15  1  0
 12 13  1  0
 13 14  2  0
 13 28  1  0
 14 15  1  0
 14 29  1  0
 16 17  1  0
 16 20  1  0
 16 30  1  6
 17 18  1  0
 17 31  1  0
 17 32  1  0
 18 19  1  0
 18 33  1  0
 18 34  1  0
 19 20  1  0
 19 35  1  0
 20 36  1  0
 20 37  1  0
M  END

