
     RDKit          3D

 54 57  0  0  0  0  0  0  0  0999 V2000
    0.7204   -0.8318    0.4919 C   0  0  0  0  0  0  0  0  0  0  0  0
    1.8847    0.0655    0.0810 C   0  0  0  0  0  0  0  0  0  0  0  0
    2.1986    1.0761    1.0824 N   0  0  0  0  0  0  0  0  0  0  0  0
    1.9897    2.4093    1.0127 C   0  0  0  0  0  0  0  0  0  0  0  0
    2.4170    2.9480    2.2260 C   0  0  0  0  0  0  0  0  0  0  0  0
    2.4061    4.3391    2.6331 C   0  0  0  0  0  0  0  0  0  0  0  0
    1.9619    5.2714    1.8689 N   0  0  0  0  0  0  0  0  0  0  0  0
    1.9883    6.5376    2.3427 N   0  0  0  0  0  0  0  0  0  0  0  0
    1.6193    7.6113    1.5509 C   0  0  0  0  0  0  0  0  0  0  0  0
    1.2699    7.5105    0.3952 O   0  0  0  0  0  0  0  0  0  0  0  0
    1.7617    8.9552    2.2354 C   0  0  0  0  0  0  0  0  0  0  0  0
    2.3758    9.9503    1.5031 C   0  0  0  0  0  0  0  0  0  0  0  0
    2.5839   11.2452    2.0665 C   0  0  0  0  0  0  0  0  0  0  0  0
    3.3486   12.2740    1.3045 C   0  0  0  0  0  0  0  0  0  0  0  0
    4.5353   11.8643    0.6592 C   0  0  0  0  0  0  0  0  0  0  0  0
    5.3987   12.7648    0.0420 C   0  0  0  0  0  0  0  0  0  0  0  0
    5.0828   14.1280    0.0539 C   0  0  0  0  0  0  0  0  0  0  0  0
    3.9032   14.5589    0.6514 C   0  0  0  0  0  0  0  0  0  0  0  0
    3.0183   13.6534    1.2650 C   0  0  0  0  0  0  0  0  0  0  0  0
    1.8963   14.2198    1.7739 O   0  0  0  0  0  0  0  0  0  0  0  0
    0.6290   13.5960    1.6722 C   0  0  0  0  0  0  0  0  0  0  0  0
    2.1714   11.5422    3.2862 N   0  0  0  0  0  0  0  0  0  0  0  0
    1.5236   10.6020    4.0221 C   0  0  0  0  0  0  0  0  0  0  0  0
    1.0652   10.9749    5.3182 C   0  0  0  0  0  0  0  0  0  0  0  0
    0.3700   10.0827    6.1053 C   0  0  0  0  0  0  0  0  0  0  0  0
    0.0914    8.7791    5.6256 C   0  0  0  0  0  0  0  0  0  0  0  0
    0.5304    8.3805    4.3786 C   0  0  0  0  0  0  0  0  0  0  0  0
    1.2763    9.2665    3.5483 C   0  0  0  0  0  0  0  0  0  0  0  0
    2.8742    1.8152    2.9710 C   0  0  0  0  0  0  0  0  0  0  0  0
    3.4535    1.7779    4.3520 C   0  0  0  0  0  0  0  0  0  0  0  0
    2.7307    0.6993    2.2620 N   0  0  0  0  0  0  0  0  0  0  0  0
    0.5430   -1.5989   -0.2781 H   0  0  0  0  0  0  0  0  0  0  0  0
   -0.2049   -0.2483    0.6189 H   0  0  0  0  0  0  0  0  0  0  0  0
    0.9459   -1.3365    1.4426 H   0  0  0  0  0  0  0  0  0  0  0  0
    1.6653    0.5979   -0.8566 H   0  0  0  0  0  0  0  0  0  0  0  0
    2.7943   -0.5339   -0.0817 H   0  0  0  0  0  0  0  0  0  0  0  0
    1.5681    2.8965    0.1362 H   0  0  0  0  0  0  0  0  0  0  0  0
    2.8019    4.5680    3.6417 H   0  0  0  0  0  0  0  0  0  0  0  0
    2.3759    6.7220    3.2710 H   0  0  0  0  0  0  0  0  0  0  0  0
    2.6952    9.7353    0.4826 H   0  0  0  0  0  0  0  0  0  0  0  0
    4.8040   10.8056    0.6889 H   0  0  0  0  0  0  0  0  0  0  0  0
    6.3168   12.4084   -0.4302 H   0  0  0  0  0  0  0  0  0  0  0  0
    5.7489   14.8550   -0.4179 H   0  0  0  0  0  0  0  0  0  0  0  0
    3.6148   15.6119    0.6475 H   0  0  0  0  0  0  0  0  0  0  0  0
   -0.1109   14.3991    1.5332 H   0  0  0  0  0  0  0  0  0  0  0  0
    0.3861   13.0323    2.5845 H   0  0  0  0  0  0  0  0  0  0  0  0
    0.5798   12.9147    0.8058 H   0  0  0  0  0  0  0  0  0  0  0  0
    1.2835   11.9917    5.6501 H   0  0  0  0  0  0  0  0  0  0  0  0
    0.0203   10.3815    7.0967 H   0  0  0  0  0  0  0  0  0  0  0  0
   -0.4851    8.0862    6.2436 H   0  0  0  0  0  0  0  0  0  0  0  0
    0.2817    7.3822    4.0156 H   0  0  0  0  0  0  0  0  0  0  0  0
    2.7464    2.1689    5.1026 H   0  0  0  0  0  0  0  0  0  0  0  0
    4.3755    2.3786    4.4247 H   0  0  0  0  0  0  0  0  0  0  0  0
    3.6983    0.7406    4.6188 H   0  0  0  0  0  0  0  0  0  0  0  0
  1  2  1  0
  1 32  1  0
  1 33  1  0
  1 34  1  0
  2  3  1  0
  2 35  1  0
  2 36  1  0
  3  4  1  0
  3 31  1  0
  4  5  2  0
  4 37  1  0
  5  6  1  0
  5 29  1  0
  6  7  2  0
  6 38  1  0
  7  8  1  0
  8  9  1  0
  8 39  1  0
  9 10  2  0
  9 11  1  0
 11 12  2  0
 11 28  1  0
 12 13  1  0
 12 40  1  0
 13 14  1  0
 13 22  2  0
 14 15  2  0
 14 19  1  0
 15 16  1  0
 15 41  1  0
 16 17  2  0
 16 42  1  0
 17 18  1  0
 17 43  1  0
 18 19  2  0
 18 44  1  0
 19 20  1  0
 20 21  1  0
 21 45  1  0
 21 46  1  0
 21 47  1  0
 22 23  1  0
 23 24  1  0
 23 28  2  0
 24 25  2  0
 24 48  1  0
 25 26  1  0
 25 49  1  0
 26 27  2  0
 26 50  1  0
 27 28  1  0
 27 51  1  0
 29 30  1  0
 29 31  2  0
 30 52  1  0
 30 53  1  0
 30 54  1  0
M  END

