
     RDKit          3D

 65 69  0  0  0  0  0  0  0  0999 V2000
    1.9819   -1.7561   -0.9929 O   0  0  0  0  0  0  0  0  0  0  0  0
    2.8011   -0.9179   -0.6494 C   0  0  0  0  0  0  0  0  0  0  0  0
    3.0723   -0.7451    0.6855 N   0  0  0  0  0  0  0  0  0  0  0  0
    4.1418   -0.0413    1.3685 C   0  0  0  0  0  0  0  0  0  0  0  0
    3.6997    0.5649    2.6885 C   0  0  0  0  0  0  0  0  0  0  0  0
    2.3883    1.0180    2.8823 C   0  0  0  0  0  0  0  0  0  0  0  0
    2.0364    1.6037    4.0961 C   0  0  0  0  0  0  0  0  0  0  0  0
    0.7779    2.0263    4.2686 F   0  0  0  0  0  0  0  0  0  0  0  0
    2.9465    1.7600    5.1363 C   0  0  0  0  0  0  0  0  0  0  0  0
    4.2546    1.3064    4.9374 C   0  0  0  0  0  0  0  0  0  0  0  0
    5.2831    1.5064    6.0259 C   0  0  1  0  0  0  0  0  0  0  0  0
    4.7256    1.4943    7.2483 F   0  0  0  0  0  0  0  0  0  0  0  0
    6.2288    0.5517    6.0006 F   0  0  0  0  0  0  0  0  0  0  0  0
    5.9142    2.6884    5.8928 F   0  0  0  0  0  0  0  0  0  0  0  0
    4.6279    0.7078    3.7304 C   0  0  0  0  0  0  0  0  0  0  0  0
    3.5528   -0.0789   -1.7343 C   0  0  1  0  0  0  0  0  0  0  0  0
    4.8752   -0.7948   -2.0319 C   0  0  1  0  0  0  0  0  0  0  0  0
    5.9524   -0.1257   -2.8445 C   0  0  0  0  0  0  0  0  0  0  0  0
    6.1894   -0.4304   -1.3879 C   0  0  0  0  0  0  0  0  0  0  0  0
    2.6971   -0.0280   -3.0149 C   0  0  0  0  0  0  0  0  0  0  0  0
    1.4794    0.8938   -2.8895 C   0  0  0  0  0  0  0  0  0  0  0  0
    1.9179    2.2897   -2.4320 C   0  0  1  0  0  0  0  0  0  0  0  0
    2.5991    2.6940   -3.2150 H   0  0  0  0  0  0  0  0  0  0  0  0
    0.8260    3.2334   -2.1636 N   0  0  0  0  0  0  0  0  0  0  0  0
   -0.4033    3.0724   -2.9441 C   0  0  0  0  0  0  0  0  0  0  0  0
   -1.5225    3.9440   -2.3646 C   0  0  0  0  0  0  0  0  0  0  0  0
   -1.1518    5.4315   -2.2318 C   0  0  2  0  0  0  0  0  0  0  0  0
   -1.2789    6.1692   -3.4936 N   0  0  0  0  0  0  0  0  0  0  0  0
   -2.1322    7.2025   -3.7382 C   0  0  0  0  0  0  0  0  0  0  0  0
   -1.9233    7.5997   -5.0489 C   0  0  0  0  0  0  0  0  0  0  0  0
   -0.9100    6.7311   -5.5139 C   0  0  0  0  0  0  0  0  0  0  0  0
   -0.5297    5.8737   -4.5688 N   0  0  0  0  0  0  0  0  0  0  0  0
    0.2416    5.5689   -1.5931 C   0  0  0  0  0  0  0  0  0  0  0  0
    1.2811    4.6269   -2.2042 C   0  0  0  0  0  0  0  0  0  0  0  0
    2.7383    2.1102   -1.1427 C   0  0  0  0  0  0  0  0  0  0  0  0
    3.8558    1.2451   -1.3032 O   0  0  0  0  0  0  0  0  0  0  0  0
    2.5587   -1.4241    1.2443 H   0  0  0  0  0  0  0  0  0  0  0  0
    4.5019    0.7553    0.7047 H   0  0  0  0  0  0  0  0  0  0  0  0
    5.0009   -0.7107    1.5581 H   0  0  0  0  0  0  0  0  0  0  0  0
    1.6334    0.9167    2.1010 H   0  0  0  0  0  0  0  0  0  0  0  0
    2.6299    2.2133    6.0761 H   0  0  0  0  0  0  0  0  0  0  0  0
    5.6487    0.3414    3.6048 H   0  0  0  0  0  0  0  0  0  0  0  0
    4.7139   -1.8589   -2.2319 H   0  0  0  0  0  0  0  0  0  0  0  0
    5.8001    0.9251   -3.1042 H   0  0  0  0  0  0  0  0  0  0  0  0
    6.4702   -0.7169   -3.6049 H   0  0  0  0  0  0  0  0  0  0  0  0
    6.2124    0.4261   -0.7120 H   0  0  0  0  0  0  0  0  0  0  0  0
    6.8710   -1.2431   -1.1203 H   0  0  0  0  0  0  0  0  0  0  0  0
    2.3755   -1.0464   -3.2673 H   0  0  0  0  0  0  0  0  0  0  0  0
    3.3506    0.3344   -3.8238 H   0  0  0  0  0  0  0  0  0  0  0  0
    0.7637    0.4683   -2.1658 H   0  0  0  0  0  0  0  0  0  0  0  0
    0.9666    0.9402   -3.8622 H   0  0  0  0  0  0  0  0  0  0  0  0
   -0.7358    2.0274   -2.8909 H   0  0  0  0  0  0  0  0  0  0  0  0
   -0.2548    3.3237   -4.0141 H   0  0  0  0  0  0  0  0  0  0  0  0
   -1.7546    3.5746   -1.3515 H   0  0  0  0  0  0  0  0  0  0  0  0
   -2.4356    3.8393   -2.9721 H   0  0  0  0  0  0  0  0  0  0  0  0
   -1.8867    5.9139   -1.5698 H   0  0  0  0  0  0  0  0  0  0  0  0
   -2.8129    7.5712   -2.9734 H   0  0  0  0  0  0  0  0  0  0  0  0
   -2.4288    8.3983   -5.5866 H   0  0  0  0  0  0  0  0  0  0  0  0
   -0.4429    6.6959   -6.4983 H   0  0  0  0  0  0  0  0  0  0  0  0
    0.1373    5.3255   -0.5224 H   0  0  0  0  0  0  0  0  0  0  0  0
    0.5853    6.6133   -1.6636 H   0  0  0  0  0  0  0  0  0  0  0  0
    2.2139    4.7209   -1.6281 H   0  0  0  0  0  0  0  0  0  0  0  0
    1.5068    4.9441   -3.2427 H   0  0  0  0  0  0  0  0  0  0  0  0
    2.0546    1.7348   -0.3576 H   0  0  0  0  0  0  0  0  0  0  0  0
    3.1579    3.0633   -0.7921 H   0  0  0  0  0  0  0  0  0  0  0  0
  1  2  2  0
  2  3  1  0
 16  2  1  1
  3  4  1  0
  3 37  1  0
  4  5  1  0
  4 38  1  0
  4 39  1  0
  5  6  2  0
  5 15  1  0
  6  7  1  0
  6 40  1  0
  7  8  1  0
  7  9  2  0
  9 10  1  0
  9 41  1  0
 10 11  1  0
 10 15  2  0
 11 12  1  1
 11 13  1  0
 11 14  1  0
 15 42  1  0
 16 17  1  0
 16 20  1  0
 16 36  1  0
 17 18  1  0
 17 19  1  0
 17 43  1  6
 18 19  1  0
 18 44  1  0
 18 45  1  0
 19 46  1  0
 19 47  1  0
 20 21  1  0
 20 48  1  0
 20 49  1  0
 21 22  1  0
 21 50  1  0
 21 51  1  0
 22 23  1  6
 22 24  1  0
 22 35  1  0
 24 25  1  0
 24 34  1  0
 25 26  1  0
 25 52  1  0
 25 53  1  0
 26 27  1  0
 26 54  1  0
 26 55  1  0
 27 28  1  0
 27 33  1  0
 27 56  1  1
 28 29  1  0
 28 32  1  0
 29 30  2  0
 29 57  1  0
 30 31  1  0
 30 58  1  0
 31 32  2  0
 31 59  1  0
 33 34  1  0
 33 60  1  0
 33 61  1  0
 34 62  1  0
 34 63  1  0
 35 36  1  0
 35 64  1  0
 35 65  1  0
M  END

