
     RDKit          3D

 44 44  0  0  0  0  0  0  0  0999 V2000
    2.6552   -4.5962   -2.0895 C   0  0  0  0  0  0  0  0  0  0  0  0
    3.8164   -3.9203   -1.5346 N   0  0  0  0  0  0  0  0  0  0  0  0
    3.5335   -2.7704   -0.6792 C   0  0  1  0  0  0  0  0  0  0  0  0
    2.8152   -3.1857    0.6060 C   0  0  0  0  0  0  0  0  0  0  0  0
    4.8574   -2.0731   -0.3224 C   0  0  0  0  0  0  0  0  0  0  0  0
    5.6390   -1.6411   -1.4724 N   0  0  0  0  0  0  0  0  0  0  0  0
    5.4501   -0.4289   -2.0686 C   0  0  0  0  0  0  0  0  0  0  0  0
    4.5959    0.3645   -1.7153 O   0  0  0  0  0  0  0  0  0  0  0  0
    6.3535   -0.1453   -3.2965 C   0  0  1  0  0  0  0  0  0  0  0  0
    6.4327    1.3494   -3.6153 C   0  0  0  0  0  0  0  0  0  0  0  0
    7.6467   -0.8366   -3.2454 N   0  0  0  0  0  0  0  0  0  0  0  0
    8.7324   -0.6366   -2.4253 C   0  0  0  0  0  0  0  0  0  0  0  0
    9.7855   -1.2131   -2.6428 O   0  0  0  0  0  0  0  0  0  0  0  0
    8.5844    0.3074   -1.2183 C   0  0  0  0  0  0  0  0  0  0  0  0
    8.9445    1.6411   -1.5249 O   0  0  0  0  0  0  0  0  0  0  0  0
   10.2348    2.0821   -1.3668 C   0  0  0  0  0  0  0  0  0  0  0  0
   11.3557    1.2423   -1.3256 C   0  0  0  0  0  0  0  0  0  0  0  0
   12.6247    1.8089   -1.1538 C   0  0  0  0  0  0  0  0  0  0  0  0
   12.7876    3.1905   -1.0376 C   0  0  0  0  0  0  0  0  0  0  0  0
   11.6608    4.0199   -1.0958 C   0  0  0  0  0  0  0  0  0  0  0  0
   10.3887    3.4728   -1.2560 C   0  0  0  0  0  0  0  0  0  0  0  0
    2.9840   -5.3379   -2.8342 H   0  0  0  0  0  0  0  0  0  0  0  0
    1.9235   -3.9179   -2.5838 H   0  0  0  0  0  0  0  0  0  0  0  0
    2.1100   -5.1497   -1.3084 H   0  0  0  0  0  0  0  0  0  0  0  0
    4.4015   -3.5989   -2.3044 H   0  0  0  0  0  0  0  0  0  0  0  0
    2.8978   -2.0187   -1.2006 H   0  0  0  0  0  0  0  0  0  0  0  0
    3.3995   -3.9511    1.1429 H   0  0  0  0  0  0  0  0  0  0  0  0
    1.8184   -3.6028    0.3999 H   0  0  0  0  0  0  0  0  0  0  0  0
    2.6750   -2.3180    1.2697 H   0  0  0  0  0  0  0  0  0  0  0  0
    5.4777   -2.7639    0.2704 H   0  0  0  0  0  0  0  0  0  0  0  0
    4.6356   -1.1854    0.2884 H   0  0  0  0  0  0  0  0  0  0  0  0
    6.4076   -2.2140   -1.7995 H   0  0  0  0  0  0  0  0  0  0  0  0
    5.8171   -0.6338   -4.1288 H   0  0  0  0  0  0  0  0  0  0  0  0
    6.9829    1.9031   -2.8431 H   0  0  0  0  0  0  0  0  0  0  0  0
    5.4174    1.7622   -3.6798 H   0  0  0  0  0  0  0  0  0  0  0  0
    6.9461    1.4991   -4.5771 H   0  0  0  0  0  0  0  0  0  0  0  0
    7.8958   -1.4006   -4.0540 H   0  0  0  0  0  0  0  0  0  0  0  0
    9.2160   -0.1030   -0.4144 H   0  0  0  0  0  0  0  0  0  0  0  0
    7.5473    0.3511   -0.8585 H   0  0  0  0  0  0  0  0  0  0  0  0
   11.2458    0.1670   -1.4699 H   0  0  0  0  0  0  0  0  0  0  0  0
   13.4973    1.1508   -1.1250 H   0  0  0  0  0  0  0  0  0  0  0  0
   13.7835    3.6208   -0.9085 H   0  0  0  0  0  0  0  0  0  0  0  0
   11.7719    5.1039   -1.0079 H   0  0  0  0  0  0  0  0  0  0  0  0
    9.4973    4.1025   -1.2906 H   0  0  0  0  0  0  0  0  0  0  0  0
  1  2  1  0
  1 22  1  0
  1 23  1  0
  1 24  1  0
  2  3  1  0
  2 25  1  0
  3  4  1  0
  3  5  1  0
  3 26  1  6
  4 27  1  0
  4 28  1  0
  4 29  1  0
  5  6  1  0
  5 30  1  0
  5 31  1  0
  6  7  1  0
  6 32  1  0
  7  8  2  0
  7  9  1  0
  9 10  1  0
  9 11  1  0
  9 33  1  6
 10 34  1  0
 10 35  1  0
 10 36  1  0
 11 12  1  0
 11 37  1  0
 12 13  2  0
 12 14  1  0
 14 15  1  0
 14 38  1  0
 14 39  1  0
 15 16  1  0
 16 17  2  0
 16 21  1  0
 17 18  1  0
 17 40  1  0
 18 19  2  0
 18 41  1  0
 19 20  1  0
 19 42  1  0
 20 21  2  0
 20 43  1  0
 21 44  1  0
M  END

