
     RDKit          3D

 43 43  0  0  0  0  0  0  0  0999 V2000
   10.8804    2.1114   -1.1751 C   0  0  0  0  0  0  0  0  0  0  0  0
    9.8407    1.0730   -1.4353 C   0  0  0  0  0  0  0  0  0  0  0  0
    8.7721    1.2203   -2.2352 C   0  0  0  0  0  0  0  0  0  0  0  0
    7.8010    0.1218   -2.4161 C   0  0  0  0  0  0  0  0  0  0  0  0
    7.8650   -0.9756   -1.8901 O   0  0  0  0  0  0  0  0  0  0  0  0
    6.8120    0.4800   -3.2544 O   0  0  0  0  0  0  0  0  0  0  0  0
    5.7163   -0.4268   -3.4569 C   0  0  0  0  0  0  0  0  0  0  0  0
    5.9807   -1.4793   -4.5500 C   0  0  0  0  0  0  0  0  0  0  0  0
    5.3251   -1.4872   -5.5782 O   0  0  0  0  0  0  0  0  0  0  0  0
    6.9626   -2.3728   -4.2510 N   0  0  0  0  0  0  0  0  0  0  0  0
    7.3865   -3.4192   -5.1769 C   0  0  1  0  0  0  0  0  0  0  0  0
    8.9194   -3.4443   -5.3194 C   0  0  0  0  0  0  0  0  0  0  0  0
    9.6084   -3.9822   -4.0597 C   0  0  0  0  0  0  0  0  0  0  0  0
    9.0568   -5.2786   -3.6787 N   0  0  0  0  0  0  0  0  0  0  0  0
    9.9093   -6.3227   -3.4423 C   0  0  0  0  0  0  0  0  0  0  0  0
   11.1186   -6.2704   -3.5600 O   0  0  0  0  0  0  0  0  0  0  0  0
    9.2442   -7.4417   -3.0578 O   0  0  0  0  0  0  0  0  0  0  0  0
   10.0391   -8.6114   -2.8140 C   0  0  0  0  0  0  0  0  0  0  0  0
   10.3276   -9.3806   -4.0926 C   0  0  0  0  0  0  0  0  0  0  0  0
    7.6085   -5.3249   -3.4935 C   0  0  0  0  0  0  0  0  0  0  0  0
    6.8846   -4.8114   -4.7434 C   0  0  0  0  0  0  0  0  0  0  0  0
   11.8799    1.7386   -1.4602 H   0  0  0  0  0  0  0  0  0  0  0  0
   10.9372    2.3410   -0.0965 H   0  0  0  0  0  0  0  0  0  0  0  0
   10.6854    3.0454   -1.7222 H   0  0  0  0  0  0  0  0  0  0  0  0
    9.9557    0.1059   -0.9303 H   0  0  0  0  0  0  0  0  0  0  0  0
    8.5731    2.1478   -2.7784 H   0  0  0  0  0  0  0  0  0  0  0  0
    4.8795    0.1901   -3.8013 H   0  0  0  0  0  0  0  0  0  0  0  0
    5.4679   -0.9183   -2.5028 H   0  0  0  0  0  0  0  0  0  0  0  0
    7.4121   -2.2745   -3.3419 H   0  0  0  0  0  0  0  0  0  0  0  0
    6.9239   -3.1590   -6.1392 H   0  0  0  0  0  0  0  0  0  0  0  0
    9.2921   -2.4330   -5.5484 H   0  0  0  0  0  0  0  0  0  0  0  0
    9.1815   -4.0927   -6.1721 H   0  0  0  0  0  0  0  0  0  0  0  0
    9.4838   -3.2683   -3.2210 H   0  0  0  0  0  0  0  0  0  0  0  0
   10.6860   -4.1104   -4.2174 H   0  0  0  0  0  0  0  0  0  0  0  0
    9.4408   -9.2134   -2.1138 H   0  0  0  0  0  0  0  0  0  0  0  0
   10.9751   -8.3118   -2.3200 H   0  0  0  0  0  0  0  0  0  0  0  0
    9.3939   -9.6506   -4.6108 H   0  0  0  0  0  0  0  0  0  0  0  0
   10.8719  -10.3099   -3.8584 H   0  0  0  0  0  0  0  0  0  0  0  0
   10.9514   -8.7803   -4.7711 H   0  0  0  0  0  0  0  0  0  0  0  0
    7.3324   -4.7038   -2.6181 H   0  0  0  0  0  0  0  0  0  0  0  0
    7.3130   -6.3538   -3.2650 H   0  0  0  0  0  0  0  0  0  0  0  0
    5.7988   -4.7751   -4.5615 H   0  0  0  0  0  0  0  0  0  0  0  0
    7.0563   -5.5200   -5.5716 H   0  0  0  0  0  0  0  0  0  0  0  0
  1  2  1  0
  1 22  1  0
  1 23  1  0
  1 24  1  0
  2  3  2  0
  2 25  1  0
  3  4  1  0
  3 26  1  0
  4  5  2  0
  4  6  1  0
  6  7  1  0
  7  8  1  0
  7 27  1  0
  7 28  1  0
  8  9  2  0
  8 10  1  0
 10 11  1  0
 10 29  1  0
 11 12  1  0
 11 21  1  0
 11 30  1  6
 12 13  1  0
 12 31  1  0
 12 32  1  0
 13 14  1  0
 13 33  1  0
 13 34  1  0
 14 15  1  0
 14 20  1  0
 15 16  2  0
 15 17  1  0
 17 18  1  0
 18 19  1  0
 18 35  1  0
 18 36  1  0
 19 37  1  0
 19 38  1  0
 19 39  1  0
 20 21  1  0
 20 40  1  0
 20 41  1  0
 21 42  1  0
 21 43  1  0
M  END

