
     RDKit          3D

 59 62  0  0  0  0  0  0  0  0999 V2000
    1.4386    0.9202    2.2515 C   0  0  0  0  0  0  0  0  0  0  0  0
    1.4810   -0.2931    1.5122 O   0  0  0  0  0  0  0  0  0  0  0  0
    2.4709   -1.1979    1.7258 C   0  0  0  0  0  0  0  0  0  0  0  0
    3.5369   -0.9372    2.6020 C   0  0  0  0  0  0  0  0  0  0  0  0
    4.5417   -1.8834    2.8015 C   0  0  0  0  0  0  0  0  0  0  0  0
    4.4795   -3.0975    2.1197 C   0  0  0  0  0  0  0  0  0  0  0  0
    5.7373   -4.3430    2.4164 S   0  0  1  0  0  0  0  0  0  0  0  0
    6.7057   -3.7401    3.3436 O   0  0  0  0  0  0  0  0  0  0  0  0
    5.0674   -5.6052    2.7396 O   0  0  0  0  0  0  0  0  0  0  0  0
    6.4501   -4.5511    0.9052 N   0  0  0  0  0  0  0  0  0  0  0  0
    7.5606   -3.6635    0.5391 C   0  0  0  0  0  0  0  0  0  0  0  0
    8.9029   -4.3484    0.8003 C   0  0  0  0  0  0  0  0  0  0  0  0
    8.9652   -5.6059    0.1548 O   0  0  0  0  0  0  0  0  0  0  0  0
    7.9476   -6.4848    0.5976 C   0  0  0  0  0  0  0  0  0  0  0  0
    6.5597   -5.9012    0.3365 C   0  0  0  0  0  0  0  0  0  0  0  0
    3.4192   -3.3724    1.2575 C   0  0  0  0  0  0  0  0  0  0  0  0
    2.4023   -2.4382    1.0322 C   0  0  0  0  0  0  0  0  0  0  0  0
    1.3307   -2.9026    0.0570 C   0  0  0  0  0  0  0  0  0  0  0  0
    1.4054   -4.0237   -0.4230 O   0  0  0  0  0  0  0  0  0  0  0  0
    0.3307   -2.0114   -0.2391 N   0  0  0  0  0  0  0  0  0  0  0  0
   -0.7620   -2.1942   -1.1149 C   0  0  0  0  0  0  0  0  0  0  0  0
   -1.1601   -3.4714   -1.5559 C   0  0  0  0  0  0  0  0  0  0  0  0
   -2.2654   -3.6144   -2.3937 C   0  0  0  0  0  0  0  0  0  0  0  0
   -2.9913   -2.4965   -2.8103 C   0  0  0  0  0  0  0  0  0  0  0  0
   -2.5888   -1.2308   -2.3842 C   0  0  0  0  0  0  0  0  0  0  0  0
   -1.4797   -1.0490   -1.5461 C   0  0  0  0  0  0  0  0  0  0  0  0
   -1.0799    0.3586   -1.1528 C   0  0  0  0  0  0  0  0  0  0  0  0
   -1.6870    0.9170    0.1319 C   0  0  0  0  0  0  0  0  0  0  0  0
   -2.2785    0.1014    1.1073 C   0  0  0  0  0  0  0  0  0  0  0  0
   -2.7942    0.6521    2.2866 C   0  0  0  0  0  0  0  0  0  0  0  0
   -2.7331    2.0295    2.5092 C   0  0  0  0  0  0  0  0  0  0  0  0
   -2.1534    2.8562    1.5398 C   0  0  0  0  0  0  0  0  0  0  0  0
   -1.6372    2.3032    0.3658 C   0  0  0  0  0  0  0  0  0  0  0  0
    0.5235    1.4363    1.9381 H   0  0  0  0  0  0  0  0  0  0  0  0
    2.3138    1.5532    2.0293 H   0  0  0  0  0  0  0  0  0  0  0  0
    1.3938    0.7223    3.3349 H   0  0  0  0  0  0  0  0  0  0  0  0
    3.5902    0.0093    3.1378 H   0  0  0  0  0  0  0  0  0  0  0  0
    5.3692   -1.6883    3.4853 H   0  0  0  0  0  0  0  0  0  0  0  0
    7.4890   -2.7242    1.1049 H   0  0  0  0  0  0  0  0  0  0  0  0
    7.4631   -3.4256   -0.5349 H   0  0  0  0  0  0  0  0  0  0  0  0
    9.0381   -4.4624    1.8942 H   0  0  0  0  0  0  0  0  0  0  0  0
    9.7326   -3.7421    0.4042 H   0  0  0  0  0  0  0  0  0  0  0  0
    8.0586   -6.6919    1.6819 H   0  0  0  0  0  0  0  0  0  0  0  0
    8.0792   -7.4309    0.0497 H   0  0  0  0  0  0  0  0  0  0  0  0
    5.7763   -6.5382    0.7663 H   0  0  0  0  0  0  0  0  0  0  0  0
    6.3883   -5.8189   -0.7513 H   0  0  0  0  0  0  0  0  0  0  0  0
    3.3427   -4.3241    0.7295 H   0  0  0  0  0  0  0  0  0  0  0  0
    0.3937   -1.1207    0.2449 H   0  0  0  0  0  0  0  0  0  0  0  0
   -0.5866   -4.3384   -1.2397 H   0  0  0  0  0  0  0  0  0  0  0  0
   -2.5578   -4.6151   -2.7221 H   0  0  0  0  0  0  0  0  0  0  0  0
   -3.8570   -2.6064   -3.4678 H   0  0  0  0  0  0  0  0  0  0  0  0
   -3.1419   -0.3473   -2.7159 H   0  0  0  0  0  0  0  0  0  0  0  0
   -1.3499    1.0372   -1.9776 H   0  0  0  0  0  0  0  0  0  0  0  0
    0.0204    0.4290   -1.0786 H   0  0  0  0  0  0  0  0  0  0  0  0
   -2.3478   -0.9760    0.9418 H   0  0  0  0  0  0  0  0  0  0  0  0
   -3.2526   -0.0032    3.0319 H   0  0  0  0  0  0  0  0  0  0  0  0
   -3.1420    2.4592    3.4272 H   0  0  0  0  0  0  0  0  0  0  0  0
   -2.1101    3.9375    1.6960 H   0  0  0  0  0  0  0  0  0  0  0  0
   -1.1912    2.9586   -0.3889 H   0  0  0  0  0  0  0  0  0  0  0  0
  1  2  1  0
  1 34  1  0
  1 35  1  0
  1 36  1  0
  2  3  1  0
  3  4  2  0
  3 17  1  0
  4  5  1  0
  4 37  1  0
  5  6  2  0
  5 38  1  0
  7  6  1  6
  6 16  1  0
  7  8  2  0
  7  9  2  0
  7 10  1  0
 10 11  1  0
 10 15  1  0
 11 12  1  0
 11 39  1  0
 11 40  1  0
 12 13  1  0
 12 41  1  0
 12 42  1  0
 13 14  1  0
 14 15  1  0
 14 43  1  0
 14 44  1  0
 15 45  1  0
 15 46  1  0
 16 17  2  0
 16 47  1  0
 17 18  1  0
 18 19  2  0
 18 20  1  0
 20 21  1  0
 20 48  1  0
 21 22  2  0
 21 26  1  0
 22 23  1  0
 22 49  1  0
 23 24  2  0
 23 50  1  0
 24 25  1  0
 24 51  1  0
 25 26  2  0
 25 52  1  0
 26 27  1  0
 27 28  1  0
 27 53  1  0
 27 54  1  0
 28 29  2  0
 28 33  1  0
 29 30  1  0
 29 55  1  0
 30 31  2  0
 30 56  1  0
 31 32  1  0
 31 57  1  0
 32 33  2  0
 32 58  1  0
 33 59  1  0
M  END

