
     RDKit          3D

 59 61  0  0  0  0  0  0  0  0999 V2000
    3.3276    1.3380   -0.6056 C   0  0  0  0  0  0  0  0  0  0  0  0
    3.1181    0.9296   -1.9935 N   0  0  0  0  0  0  0  0  0  0  0  0
    3.7671   -0.1679   -2.4821 C   0  0  0  0  0  0  0  0  0  0  0  0
    3.7761   -0.5339   -3.6458 O   0  0  0  0  0  0  0  0  0  0  0  0
    4.5365   -1.0181   -1.4382 C   0  0  0  0  0  0  0  0  0  0  0  0
    4.9255   -2.2439   -2.0343 O   0  0  0  0  0  0  0  0  0  0  0  0
    3.9390   -3.1209   -2.2809 C   0  0  0  0  0  0  0  0  0  0  0  0
    2.8155   -2.9834   -1.8388 O   0  0  0  0  0  0  0  0  0  0  0  0
    4.3789   -4.2148   -3.1969 C   0  0  0  0  0  0  0  0  0  0  0  0
    5.0140   -3.8290   -4.3880 C   0  0  0  0  0  0  0  0  0  0  0  0
    5.3745   -4.7838   -5.3406 C   0  0  0  0  0  0  0  0  0  0  0  0
    5.1110   -6.1338   -5.1013 C   0  0  0  0  0  0  0  0  0  0  0  0
    4.4890   -6.5258   -3.9122 C   0  0  0  0  0  0  0  0  0  0  0  0
    4.1134   -5.5805   -2.9460 C   0  0  0  0  0  0  0  0  0  0  0  0
    3.5283   -6.2290   -1.3756 S   0  0  0  0  0  0  0  0  0  0  0  0
    1.7243   -5.8269   -1.3008 C   0  0  0  0  0  0  0  0  0  0  0  0
    0.9994   -5.9698   -2.6356 C   0  0  0  0  0  0  0  0  0  0  0  0
    0.5767   -7.0377   -3.0490 O   0  0  0  0  0  0  0  0  0  0  0  0
    0.8867   -4.7984   -3.3221 N   0  0  0  0  0  0  0  0  0  0  0  0
    0.2323   -4.7445   -4.6211 C   0  0  0  0  0  0  0  0  0  0  0  0
   -1.2428   -4.4968   -4.5614 C   0  0  0  0  0  0  0  0  0  0  0  0
   -2.3229   -5.3351   -4.5128 C   0  0  0  0  0  0  0  0  0  0  0  0
   -3.4842   -4.4983   -4.4143 C   0  0  0  0  0  0  0  0  0  0  0  0
   -3.0223   -3.2138   -4.4079 C   0  0  0  0  0  0  0  0  0  0  0  0
   -1.6668   -3.2000   -4.4957 O   0  0  0  0  0  0  0  0  0  0  0  0
    2.1686    1.8023   -2.7477 C   0  0  1  0  0  0  0  0  0  0  0  0
    2.0323    1.5832   -4.2696 C   0  0  0  0  0  0  0  0  0  0  0  0
    1.1474    0.4004   -4.6945 C   0  0  0  0  0  0  0  0  0  0  0  0
   -0.2007    0.3648   -3.9646 C   0  0  0  0  0  0  0  0  0  0  0  0
   -0.0090    0.4848   -2.4481 C   0  0  0  0  0  0  0  0  0  0  0  0
    0.7654    1.7601   -2.0989 C   0  0  0  0  0  0  0  0  0  0  0  0
    4.3722    1.1950   -0.2964 H   0  0  0  0  0  0  0  0  0  0  0  0
    2.6772    0.8044    0.1089 H   0  0  0  0  0  0  0  0  0  0  0  0
    3.1172    2.4127   -0.5133 H   0  0  0  0  0  0  0  0  0  0  0  0
    3.9231   -1.2047   -0.5454 H   0  0  0  0  0  0  0  0  0  0  0  0
    5.4726   -0.5242   -1.1396 H   0  0  0  0  0  0  0  0  0  0  0  0
    5.1952   -2.7662   -4.5590 H   0  0  0  0  0  0  0  0  0  0  0  0
    5.8599   -4.4706   -6.2680 H   0  0  0  0  0  0  0  0  0  0  0  0
    5.3888   -6.8897   -5.8402 H   0  0  0  0  0  0  0  0  0  0  0  0
    4.2868   -7.5800   -3.7139 H   0  0  0  0  0  0  0  0  0  0  0  0
    1.5985   -4.8242   -0.8745 H   0  0  0  0  0  0  0  0  0  0  0  0
    1.3227   -6.5858   -0.6157 H   0  0  0  0  0  0  0  0  0  0  0  0
    1.2923   -3.9575   -2.9167 H   0  0  0  0  0  0  0  0  0  0  0  0
    0.3977   -5.7123   -5.1147 H   0  0  0  0  0  0  0  0  0  0  0  0
    0.7129   -3.9582   -5.2236 H   0  0  0  0  0  0  0  0  0  0  0  0
   -2.2793   -6.4218   -4.5287 H   0  0  0  0  0  0  0  0  0  0  0  0
   -4.5245   -4.8125   -4.3579 H   0  0  0  0  0  0  0  0  0  0  0  0
   -3.5092   -2.2434   -4.3569 H   0  0  0  0  0  0  0  0  0  0  0  0
    2.5708    2.8228   -2.6122 H   0  0  0  0  0  0  0  0  0  0  0  0
    3.0206    1.5095   -4.7411 H   0  0  0  0  0  0  0  0  0  0  0  0
    1.5709    2.5177   -4.6388 H   0  0  0  0  0  0  0  0  0  0  0  0
    1.6948   -0.5337   -4.5039 H   0  0  0  0  0  0  0  0  0  0  0  0
    0.9879    0.4505   -5.7850 H   0  0  0  0  0  0  0  0  0  0  0  0
   -0.7329   -0.5681   -4.2116 H   0  0  0  0  0  0  0  0  0  0  0  0
   -0.8410    1.1987   -4.3101 H   0  0  0  0  0  0  0  0  0  0  0  0
    0.5411   -0.3971   -2.0720 H   0  0  0  0  0  0  0  0  0  0  0  0
   -0.9832    0.4862   -1.9312 H   0  0  0  0  0  0  0  0  0  0  0  0
    0.8335    1.8933   -1.0077 H   0  0  0  0  0  0  0  0  0  0  0  0
    0.2079    2.6371   -2.4736 H   0  0  0  0  0  0  0  0  0  0  0  0
  1  2  1  0
  1 32  1  0
  1 33  1  0
  1 34  1  0
  2  3  1  0
  2 26  1  0
  3  4  2  0
  3  5  1  0
  5  6  1  0
  5 35  1  0
  5 36  1  0
  6  7  1  0
  7  8  2  0
  7  9  1  0
  9 10  2  0
  9 14  1  0
 10 11  1  0
 10 37  1  0
 11 12  2  0
 11 38  1  0
 12 13  1  0
 12 39  1  0
 13 14  2  0
 13 40  1  0
 14 15  1  0
 15 16  1  0
 16 17  1  0
 16 41  1  0
 16 42  1  0
 17 18  2  0
 17 19  1  0
 19 20  1  0
 19 43  1  0
 20 21  1  0
 20 44  1  0
 20 45  1  0
 21 22  2  0
 21 25  1  0
 22 23  1  0
 22 46  1  0
 23 24  2  0
 23 47  1  0
 24 25  1  0
 24 48  1  0
 26 27  1  0
 26 31  1  0
 26 49  1  6
 27 28  1  0
 27 50  1  0
 27 51  1  0
 28 29  1  0
 28 52  1  0
 28 53  1  0
 29 30  1  0
 29 54  1  0
 29 55  1  0
 30 31  1  0
 30 56  1  0
 30 57  1  0
 31 58  1  0
 31 59  1  0
M  END

