
     RDKit          3D

 49 49  0  0  0  0  0  0  0  0999 V2000
    0.9854    0.8083    0.3511 C   0  0  0  0  0  0  0  0  0  0  0  0
    2.4228    0.3693    0.0620 C   0  0  0  0  0  0  0  0  0  0  0  0
    3.0692   -0.5020    1.1597 C   0  0  1  0  0  0  0  0  0  0  0  0
    2.3493   -1.8441    1.4013 C   0  0  0  0  0  0  0  0  0  0  0  0
    2.4944   -2.8045    0.2155 C   0  0  0  0  0  0  0  0  0  0  0  0
    3.9778   -3.1133   -0.1404 C   0  0  2  0  0  0  0  0  0  0  0  0
    4.0447   -3.8699   -1.4141 N   0  0  0  0  0  0  0  0  0  0  0  0
    3.5880   -3.4565   -2.6341 C   0  0  0  0  0  0  0  0  0  0  0  0
    2.9975   -2.4000   -2.8159 O   0  0  0  0  0  0  0  0  0  0  0  0
    3.8752   -4.4237   -3.7966 C   0  0  1  0  0  0  0  0  0  0  0  0
    5.3904   -4.5530   -4.0298 C   0  0  0  0  0  0  0  0  0  0  0  0
    3.1473   -5.7853   -3.6278 C   0  0  1  0  0  0  0  0  0  0  0  0
    1.6471   -5.5922   -3.3647 C   0  0  0  0  0  0  0  0  0  0  0  0
    3.3595   -6.7042   -4.8394 C   0  0  0  0  0  0  0  0  0  0  0  0
    4.5803   -4.0622    0.9018 C   0  0  0  0  0  0  0  0  0  0  0  0
    4.0603   -5.3375    0.9680 N   0  0  0  0  0  0  0  0  0  0  0  0
    5.5838   -3.6746    1.6085 N   0  0  0  0  0  0  0  0  0  0  0  0
    5.9820   -4.6935    2.4954 O   0  0  0  0  0  0  0  0  0  0  0  0
    4.7767   -1.7908   -0.2679 C   0  0  0  0  0  0  0  0  0  0  0  0
    4.5562   -0.7903    0.8774 C   0  0  0  0  0  0  0  0  0  0  0  0
    0.6215    1.5034   -0.4225 H   0  0  0  0  0  0  0  0  0  0  0  0
    0.9083    1.3243    1.3238 H   0  0  0  0  0  0  0  0  0  0  0  0
    0.2860   -0.0432    0.3730 H   0  0  0  0  0  0  0  0  0  0  0  0
    3.0513    1.2697   -0.0600 H   0  0  0  0  0  0  0  0  0  0  0  0
    2.4573   -0.1491   -0.9112 H   0  0  0  0  0  0  0  0  0  0  0  0
    3.0143    0.0766    2.1006 H   0  0  0  0  0  0  0  0  0  0  0  0
    1.2784   -1.6837    1.6072 H   0  0  0  0  0  0  0  0  0  0  0  0
    2.7671   -2.3089    2.3117 H   0  0  0  0  0  0  0  0  0  0  0  0
    2.0326   -2.3727   -0.6823 H   0  0  0  0  0  0  0  0  0  0  0  0
    1.9528   -3.7447    0.4182 H   0  0  0  0  0  0  0  0  0  0  0  0
    4.5459   -4.7496   -1.3790 H   0  0  0  0  0  0  0  0  0  0  0  0
    3.4324   -3.9108   -4.6658 H   0  0  0  0  0  0  0  0  0  0  0  0
    5.8832   -5.1405   -3.2366 H   0  0  0  0  0  0  0  0  0  0  0  0
    5.8674   -3.5609   -4.0560 H   0  0  0  0  0  0  0  0  0  0  0  0
    5.6080   -5.0468   -4.9883 H   0  0  0  0  0  0  0  0  0  0  0  0
    3.5831   -6.2958   -2.7464 H   0  0  0  0  0  0  0  0  0  0  0  0
    1.1639   -5.0713   -4.2082 H   0  0  0  0  0  0  0  0  0  0  0  0
    1.4577   -4.9959   -2.4592 H   0  0  0  0  0  0  0  0  0  0  0  0
    1.1432   -6.5639   -3.2382 H   0  0  0  0  0  0  0  0  0  0  0  0
    2.9904   -6.2270   -5.7635 H   0  0  0  0  0  0  0  0  0  0  0  0
    2.8073   -7.6490   -4.7112 H   0  0  0  0  0  0  0  0  0  0  0  0
    4.4180   -6.9620   -4.9933 H   0  0  0  0  0  0  0  0  0  0  0  0
    3.0982   -5.4654    0.6802 H   0  0  0  0  0  0  0  0  0  0  0  0
    4.3535   -5.8726    1.7792 H   0  0  0  0  0  0  0  0  0  0  0  0
    6.6986   -4.2772    2.9885 H   0  0  0  0  0  0  0  0  0  0  0  0
    4.4652   -1.3370   -1.2189 H   0  0  0  0  0  0  0  0  0  0  0  0
    5.8457   -2.0349   -0.3522 H   0  0  0  0  0  0  0  0  0  0  0  0
    5.0797    0.1495    0.6297 H   0  0  0  0  0  0  0  0  0  0  0  0
    5.0272   -1.1833    1.7906 H   0  0  0  0  0  0  0  0  0  0  0  0
  1  2  1  0
  1 21  1  0
  1 22  1  0
  1 23  1  0
  2  3  1  0
  2 24  1  0
  2 25  1  0
  3  4  1  0
  3 20  1  0
  3 26  1  1
  4  5  1  0
  4 27  1  0
  4 28  1  0
  5  6  1  0
  5 29  1  0
  5 30  1  0
  6  7  1  0
  6 15  1  1
  6 19  1  0
  7  8  1  0
  7 31  1  0
  8  9  2  0
  8 10  1  0
 10 11  1  0
 10 12  1  0
 10 32  1  6
 11 33  1  0
 11 34  1  0
 11 35  1  0
 12 13  1  0
 12 14  1  0
 12 36  1  1
 13 37  1  0
 13 38  1  0
 13 39  1  0
 14 40  1  0
 14 41  1  0
 14 42  1  0
 15 16  1  0
 15 17  2  0
 16 43  1  0
 16 44  1  0
 17 18  1  0
 18 45  1  0
 19 20  1  0
 19 46  1  0
 19 47  1  0
 20 48  1  0
 20 49  1  0
M  END

