
     RDKit          3D

 28 29  0  0  0  0  0  0  0  0999 V2000
    0.9959    0.1086    0.9038 O   0  0  0  0  0  0  0  0  0  0  0  0
    2.1768    0.1276    0.5727 C   0  0  0  0  0  0  0  0  0  0  0  0
    2.6726    0.9397   -0.5607 C   0  0  0  0  0  0  0  0  0  0  0  0
    2.0143    1.8520   -1.3240 C   0  0  0  0  0  0  0  0  0  0  0  0
    0.6641    2.4072   -1.3492 C   0  0  0  0  0  0  0  0  0  0  0  0
    0.3619    3.4072   -2.2740 C   0  0  0  0  0  0  0  0  0  0  0  0
   -1.2536    3.9727   -2.1927 S   0  0  0  0  0  0  0  0  0  0  0  0
   -1.5649    2.8571   -0.8956 C   0  0  0  0  0  0  0  0  0  0  0  0
   -2.8831    2.8098   -0.3064 N   0  0  0  0  0  0  0  0  0  0  0  0
   -3.0704    2.0144    0.5985 O   0  0  0  0  0  0  0  0  0  0  0  0
   -3.7165    3.5811   -0.7674 O   0  0  0  0  0  0  0  0  0  0  0  0
   -0.4844    2.0934   -0.5464 C   0  0  0  0  0  0  0  0  0  0  0  0
    3.1407   -0.7481    1.3295 C   0  0  0  0  0  0  0  0  0  0  0  0
    2.5693   -1.6969    2.2038 C   0  0  0  0  0  0  0  0  0  0  0  0
    3.3313   -2.5684    2.9678 C   0  0  0  0  0  0  0  0  0  0  0  0
    4.7349   -2.5135    2.8927 C   0  0  0  0  0  0  0  0  0  0  0  0
    5.5392   -3.3276    3.6064 O   0  0  0  0  0  0  0  0  0  0  0  0
    5.3425   -1.5761    2.0484 C   0  0  0  0  0  0  0  0  0  0  0  0
    4.5490   -0.7219    1.2934 C   0  0  0  0  0  0  0  0  0  0  0  0
    5.2052    0.1642    0.5239 F   0  0  0  0  0  0  0  0  0  0  0  0
    3.7161    0.7842   -0.8267 H   0  0  0  0  0  0  0  0  0  0  0  0
    2.6411    2.2955   -2.1068 H   0  0  0  0  0  0  0  0  0  0  0  0
    1.0459    3.8368   -3.0065 H   0  0  0  0  0  0  0  0  0  0  0  0
   -0.4919    1.3384    0.2354 H   0  0  0  0  0  0  0  0  0  0  0  0
    1.4795   -1.7191    2.2577 H   0  0  0  0  0  0  0  0  0  0  0  0
    2.8459   -3.2943    3.6267 H   0  0  0  0  0  0  0  0  0  0  0  0
    5.0053   -3.9211    4.1520 H   0  0  0  0  0  0  0  0  0  0  0  0
    6.4289   -1.5072    1.9862 H   0  0  0  0  0  0  0  0  0  0  0  0
  1  2  2  0
  2  3  1  0
  2 13  1  0
  3  4  2  0
  3 21  1  0
  4  5  1  0
  4 22  1  0
  5  6  1  0
  5 12  2  0
  6  7  2  0
  6 23  1  0
  7  8  1  0
  8  9  2  0
  8 12  1  0
  9 10  1  0
  9 11  1  0
 12 24  1  0
 13 14  2  0
 13 19  1  0
 14 15  1  0
 14 25  1  0
 15 16  2  0
 15 26  1  0
 16 17  1  0
 16 18  1  0
 17 27  1  0
 18 19  2  0
 18 28  1  0
 19 20  1  0
M  CHG  4   7   1   9   1  10  -1  11  -1
M  END

