
     RDKit          3D

 46 47  0  0  0  0  0  0  0  0999 V2000
    3.0747    0.5309   -1.2450 O   0  0  0  0  0  0  0  0  0  0  0  0
    2.4115   -0.0611   -0.4370 C   0  0  0  0  0  0  0  0  0  0  0  0
    1.0955   -0.2385   -0.5166 O   0  0  0  0  0  0  0  0  0  0  0  0
    3.0061   -0.7158    0.8394 C   0  0  0  0  0  0  0  0  0  0  0  0
    2.2360   -1.2884    1.5845 O   0  0  0  0  0  0  0  0  0  0  0  0
    4.4851   -0.5886    1.0503 C   0  0  0  0  0  0  0  0  0  0  0  0
    5.0027   -1.2537    2.3225 C   0  0  0  0  0  0  0  0  0  0  0  0
    6.5155   -1.1025    2.5040 C   0  0  0  0  0  0  0  0  0  0  0  0
    7.0454   -1.7668    3.7783 C   0  0  0  0  0  0  0  0  0  0  0  0
    8.5598   -1.6149    3.9598 C   0  0  0  0  0  0  0  0  0  0  0  0
    9.0741   -2.2826    5.2342 C   0  0  0  0  0  0  0  0  0  0  0  0
   10.9002   -2.0551    5.3685 S   0  0  0  0  0  0  0  0  0  0  0  0
   11.2342   -2.8840    6.9216 C   0  0  0  0  0  0  0  0  0  0  0  0
   11.8575   -4.1404    6.9288 C   0  0  0  0  0  0  0  0  0  0  0  0
   12.1615   -4.7741    8.1348 C   0  0  0  0  0  0  0  0  0  0  0  0
   11.8473   -4.1797    9.3711 C   0  0  0  0  0  0  0  0  0  0  0  0
   12.1661   -4.8591   10.6550 C   0  0  0  0  0  0  0  0  0  0  0  0
   13.3461   -5.6129   10.8038 C   0  0  0  0  0  0  0  0  0  0  0  0
   13.6451   -6.2510   12.0092 C   0  0  0  0  0  0  0  0  0  0  0  0
   12.7707   -6.1512   13.0955 C   0  0  0  0  0  0  0  0  0  0  0  0
   11.5947   -5.4066   12.9644 C   0  0  0  0  0  0  0  0  0  0  0  0
   11.2966   -4.7681   11.7589 C   0  0  0  0  0  0  0  0  0  0  0  0
   11.2237   -2.9167    9.3512 C   0  0  0  0  0  0  0  0  0  0  0  0
   10.9305   -2.2740    8.1490 C   0  0  0  0  0  0  0  0  0  0  0  0
    0.8411   -0.7530    0.2784 H   0  0  0  0  0  0  0  0  0  0  0  0
    4.7240    0.4911    1.0173 H   0  0  0  0  0  0  0  0  0  0  0  0
    4.9759   -0.9866    0.1423 H   0  0  0  0  0  0  0  0  0  0  0  0
    4.7305   -2.3230    2.3080 H   0  0  0  0  0  0  0  0  0  0  0  0
    4.4749   -0.8283    3.1933 H   0  0  0  0  0  0  0  0  0  0  0  0
    6.7791   -0.0288    2.5149 H   0  0  0  0  0  0  0  0  0  0  0  0
    7.0356   -1.5290    1.6264 H   0  0  0  0  0  0  0  0  0  0  0  0
    6.7828   -2.8405    3.7661 H   0  0  0  0  0  0  0  0  0  0  0  0
    6.5256   -1.3396    4.6554 H   0  0  0  0  0  0  0  0  0  0  0  0
    8.8254   -0.5429    3.9782 H   0  0  0  0  0  0  0  0  0  0  0  0
    9.0820   -2.0454    3.0868 H   0  0  0  0  0  0  0  0  0  0  0  0
    8.8542   -3.3622    5.2280 H   0  0  0  0  0  0  0  0  0  0  0  0
    8.5944   -1.8451    6.1244 H   0  0  0  0  0  0  0  0  0  0  0  0
   12.0954   -4.6239    5.9787 H   0  0  0  0  0  0  0  0  0  0  0  0
   12.6259   -5.7627    8.1139 H   0  0  0  0  0  0  0  0  0  0  0  0
   14.0511   -5.6791    9.9719 H   0  0  0  0  0  0  0  0  0  0  0  0
   14.5719   -6.8231   12.1027 H   0  0  0  0  0  0  0  0  0  0  0  0
   13.0046   -6.6507   14.0391 H   0  0  0  0  0  0  0  0  0  0  0  0
   10.8994   -5.3282   13.8042 H   0  0  0  0  0  0  0  0  0  0  0  0
   10.3622   -4.2102   11.6635 H   0  0  0  0  0  0  0  0  0  0  0  0
   10.9975   -2.4125   10.2936 H   0  0  0  0  0  0  0  0  0  0  0  0
   10.4764   -1.2802    8.1575 H   0  0  0  0  0  0  0  0  0  0  0  0
  1  2  2  0
  2  3  1  0
  2  4  1  0
  3 25  1  0
  4  5  2  0
  4  6  1  0
  6  7  1  0
  6 26  1  0
  6 27  1  0
  7  8  1  0
  7 28  1  0
  7 29  1  0
  8  9  1  0
  8 30  1  0
  8 31  1  0
  9 10  1  0
  9 32  1  0
  9 33  1  0
 10 11  1  0
 10 34  1  0
 10 35  1  0
 11 12  1  0
 11 36  1  0
 11 37  1  0
 12 13  1  0
 13 14  2  0
 13 24  1  0
 14 15  1  0
 14 38  1  0
 15 16  2  0
 15 39  1  0
 16 17  1  0
 16 23  1  0
 17 18  2  0
 17 22  1  0
 18 19  1  0
 18 40  1  0
 19 20  2  0
 19 41  1  0
 20 21  1  0
 20 42  1  0
 21 22  2  0
 21 43  1  0
 22 44  1  0
 23 24  2  0
 23 45  1  0
 24 46  1  0
M  END

