
     RDKit          3D

 47 49  0  0  0  0  0  0  0  0999 V2000
    1.6328    0.5801    0.8044 N   0  0  0  0  0  0  0  0  0  0  0  0
    2.9777    0.5178    0.5017 C   0  0  0  0  0  0  0  0  0  0  0  0
    3.7665    1.6846    0.4617 C   0  0  0  0  0  0  0  0  0  0  0  0
    5.1344    1.6109    0.2178 C   0  0  0  0  0  0  0  0  0  0  0  0
    5.7518    0.3776    0.0075 C   0  0  0  0  0  0  0  0  0  0  0  0
    4.9632   -0.7767    0.0424 C   0  0  0  0  0  0  0  0  0  0  0  0
    5.8145   -2.3082   -0.1828 Cl  0  0  0  0  0  0  0  0  0  0  0  0
    3.5780   -0.7562    0.2703 C   0  0  0  0  0  0  0  0  0  0  0  0
    2.7378   -2.0154    0.3986 C   0  0  0  0  0  0  0  0  0  0  0  0
    1.4755   -2.0015   -0.3685 N   0  0  0  0  0  0  0  0  0  0  0  0
    1.6406   -1.7056   -1.8080 C   0  0  0  0  0  0  0  0  0  0  0  0
    1.9889   -2.8589   -2.7450 C   0  0  0  0  0  0  0  0  0  0  0  0
    1.0424   -3.3383   -3.6654 C   0  0  0  0  0  0  0  0  0  0  0  0
    1.3440   -4.3855   -4.5414 C   0  0  0  0  0  0  0  0  0  0  0  0
    2.6087   -4.9779   -4.5131 C   0  0  0  0  0  0  0  0  0  0  0  0
    3.5676   -4.5044   -3.6124 C   0  0  0  0  0  0  0  0  0  0  0  0
    3.2633   -3.4535   -2.7426 C   0  0  0  0  0  0  0  0  0  0  0  0
    0.5643   -3.1398   -0.0900 C   0  0  1  0  0  0  0  0  0  0  0  0
    0.4279   -3.4974    1.4057 C   0  0  0  0  0  0  0  0  0  0  0  0
   -0.3292   -2.4379    2.2114 C   0  0  0  0  0  0  0  0  0  0  0  0
   -1.6506   -2.2341    1.6269 N   0  0  0  0  0  0  0  0  0  0  0  0
   -1.6015   -1.8125    0.2340 C   0  0  0  0  0  0  0  0  0  0  0  0
   -0.8654   -2.8588   -0.6064 C   0  0  0  0  0  0  0  0  0  0  0  0
    1.1976    1.4933    0.7556 H   0  0  0  0  0  0  0  0  0  0  0  0
    1.0844   -0.2037    0.4384 H   0  0  0  0  0  0  0  0  0  0  0  0
    3.2886    2.6530    0.6332 H   0  0  0  0  0  0  0  0  0  0  0  0
    5.7315    2.5261    0.1919 H   0  0  0  0  0  0  0  0  0  0  0  0
    6.8232    0.2977   -0.1758 H   0  0  0  0  0  0  0  0  0  0  0  0
    2.4673   -2.0920    1.4624 H   0  0  0  0  0  0  0  0  0  0  0  0
    3.3585   -2.9000    0.1745 H   0  0  0  0  0  0  0  0  0  0  0  0
    2.4240   -0.9370   -1.8851 H   0  0  0  0  0  0  0  0  0  0  0  0
    0.7165   -1.2325   -2.1753 H   0  0  0  0  0  0  0  0  0  0  0  0
    0.0515   -2.8771   -3.7077 H   0  0  0  0  0  0  0  0  0  0  0  0
    0.5883   -4.7364   -5.2493 H   0  0  0  0  0  0  0  0  0  0  0  0
    2.8495   -5.7974   -5.1952 H   0  0  0  0  0  0  0  0  0  0  0  0
    4.5664   -4.9486   -3.5921 H   0  0  0  0  0  0  0  0  0  0  0  0
    4.0387   -3.0854   -2.0688 H   0  0  0  0  0  0  0  0  0  0  0  0
    0.9447   -4.0438   -0.6079 H   0  0  0  0  0  0  0  0  0  0  0  0
    1.3994   -3.7191    1.8698 H   0  0  0  0  0  0  0  0  0  0  0  0
   -0.1518   -4.4338    1.4501 H   0  0  0  0  0  0  0  0  0  0  0  0
    0.2714   -1.5026    2.2579 H   0  0  0  0  0  0  0  0  0  0  0  0
   -0.4534   -2.7875    3.2498 H   0  0  0  0  0  0  0  0  0  0  0  0
   -2.1919   -1.5761    2.1837 H   0  0  0  0  0  0  0  0  0  0  0  0
   -1.1096   -0.8215    0.0942 H   0  0  0  0  0  0  0  0  0  0  0  0
   -2.6335   -1.7027   -0.1391 H   0  0  0  0  0  0  0  0  0  0  0  0
   -0.8657   -2.5565   -1.6620 H   0  0  0  0  0  0  0  0  0  0  0  0
   -1.4278   -3.8054   -0.5534 H   0  0  0  0  0  0  0  0  0  0  0  0
  1  2  1  0
  1 24  1  0
  1 25  1  0
  2  3  2  0
  2  8  1  0
  3  4  1  0
  3 26  1  0
  4  5  2  0
  4 27  1  0
  5  6  1  0
  5 28  1  0
  6  7  1  0
  6  8  2  0
  8  9  1  0
  9 10  1  0
  9 29  1  0
  9 30  1  0
 10 11  1  0
 10 18  1  0
 11 12  1  0
 11 31  1  0
 11 32  1  0
 12 13  2  0
 12 17  1  0
 13 14  1  0
 13 33  1  0
 14 15  2  0
 14 34  1  0
 15 16  1  0
 15 35  1  0
 16 17  2  0
 16 36  1  0
 17 37  1  0
 18 19  1  0
 18 23  1  0
 18 38  1  6
 19 20  1  0
 19 39  1  0
 19 40  1  0
 20 21  1  0
 20 41  1  0
 20 42  1  0
 21 22  1  0
 21 43  1  0
 22 23  1  0
 22 44  1  0
 22 45  1  0
 23 46  1  0
 23 47  1  0
M  END

