
     RDKit          3D

 36 36  0  0  0  0  0  0  0  0999 V2000
    5.7608   -0.7107    2.8738 C   0  0  0  0  0  0  0  0  0  0  0  0
    5.1094   -0.1650    1.6141 C   0  0  0  0  0  0  0  0  0  0  0  0
    5.1827   -1.1611    0.6152 O   0  0  0  0  0  0  0  0  0  0  0  0
    4.5225   -0.9601   -0.6423 C   0  0  1  0  0  0  0  0  0  0  0  0
    2.9994   -1.0203   -0.4442 C   0  0  0  0  0  0  0  0  0  0  0  0
    4.9247    0.3705   -1.2940 C   0  0  0  0  0  0  0  0  0  0  0  0
    4.9886   -2.1985   -1.4898 C   0  0  1  0  0  0  0  0  0  0  0  0
    4.3524   -2.3685   -2.7826 N   0  0  0  0  0  0  0  0  0  0  0  0
    6.5238   -2.2357   -1.6590 C   0  0  0  0  0  0  0  0  0  0  0  0
    7.0268   -3.5404   -2.2291 C   0  0  0  0  0  0  0  0  0  0  0  0
    7.1657   -4.6515   -1.3809 C   0  0  0  0  0  0  0  0  0  0  0  0
    7.6027   -5.8846   -1.8645 C   0  0  0  0  0  0  0  0  0  0  0  0
    7.7592   -7.2374   -0.7648 Cl  0  0  0  0  0  0  0  0  0  0  0  0
    7.9224   -6.0499   -3.2140 C   0  0  0  0  0  0  0  0  0  0  0  0
    7.7988   -4.9578   -4.0718 C   0  0  0  0  0  0  0  0  0  0  0  0
    7.3558   -3.7246   -3.5840 C   0  0  0  0  0  0  0  0  0  0  0  0
    7.2456   -2.3953   -4.7295 Cl  0  0  0  0  0  0  0  0  0  0  0  0
    5.7278    0.0371    3.6818 H   0  0  0  0  0  0  0  0  0  0  0  0
    6.8138   -0.9716    2.6847 H   0  0  0  0  0  0  0  0  0  0  0  0
    5.2410   -1.6191    3.2157 H   0  0  0  0  0  0  0  0  0  0  0  0
    5.6274    0.7600    1.2933 H   0  0  0  0  0  0  0  0  0  0  0  0
    4.0588    0.1137    1.8273 H   0  0  0  0  0  0  0  0  0  0  0  0
    2.6454   -0.2028    0.2018 H   0  0  0  0  0  0  0  0  0  0  0  0
    2.7095   -1.9757    0.0209 H   0  0  0  0  0  0  0  0  0  0  0  0
    2.4705   -0.9216   -1.4038 H   0  0  0  0  0  0  0  0  0  0  0  0
    4.4714    1.2306   -0.7779 H   0  0  0  0  0  0  0  0  0  0  0  0
    4.5777    0.4012   -2.3385 H   0  0  0  0  0  0  0  0  0  0  0  0
    6.0162    0.5073   -1.2901 H   0  0  0  0  0  0  0  0  0  0  0  0
    4.7105   -3.0693   -0.8695 H   0  0  0  0  0  0  0  0  0  0  0  0
    4.5916   -1.6298   -3.4417 H   0  0  0  0  0  0  0  0  0  0  0  0
    3.3404   -2.4417   -2.7215 H   0  0  0  0  0  0  0  0  0  0  0  0
    6.9714   -2.0718   -0.6698 H   0  0  0  0  0  0  0  0  0  0  0  0
    6.8431   -1.4078   -2.3086 H   0  0  0  0  0  0  0  0  0  0  0  0
    6.9274   -4.5468   -0.3202 H   0  0  0  0  0  0  0  0  0  0  0  0
    8.2664   -7.0162   -3.5855 H   0  0  0  0  0  0  0  0  0  0  0  0
    8.0460   -5.0578   -5.1298 H   0  0  0  0  0  0  0  0  0  0  0  0
  1  2  1  0
  1 18  1  0
  1 19  1  0
  1 20  1  0
  2  3  1  0
  2 21  1  0
  2 22  1  0
  4  3  1  1
  4  5  1  0
  4  6  1  0
  4  7  1  0
  5 23  1  0
  5 24  1  0
  5 25  1  0
  6 26  1  0
  6 27  1  0
  6 28  1  0
  7  8  1  0
  7  9  1  0
  7 29  1  1
  8 30  1  0
  8 31  1  0
  9 10  1  0
  9 32  1  0
  9 33  1  0
 10 11  2  0
 10 16  1  0
 11 12  1  0
 11 34  1  0
 12 13  1  0
 12 14  2  0
 14 15  1  0
 14 35  1  0
 15 16  2  0
 15 36  1  0
 16 17  1  0
M  END

