
     RDKit          3D

 65 67  0  0  0  0  0  0  0  0999 V2000
    1.2700   -1.4370   -2.2366 C   0  0  0  0  0  0  0  0  0  0  0  0
    0.8665   -0.2916   -1.2983 C   0  0  1  0  0  0  0  0  0  0  0  0
    0.9643    1.0653   -2.0293 C   0  0  0  0  0  0  0  0  0  0  0  0
   -0.0092    1.6326   -2.5083 O   0  0  0  0  0  0  0  0  0  0  0  0
    2.2228    1.5721   -2.1299 N   0  0  0  0  0  0  0  0  0  0  0  0
    2.4909    2.8486   -2.7693 C   0  0  0  0  0  0  0  0  0  0  0  0
    2.5781    2.7287   -4.2899 C   0  0  0  0  0  0  0  0  0  0  0  0
    2.8913    4.0175   -4.7850 O   0  0  0  0  0  0  0  0  0  0  0  0
    3.0043    4.2248   -6.1182 C   0  0  0  0  0  0  0  0  0  0  0  0
    2.8185    3.2296   -7.0918 C   0  0  0  0  0  0  0  0  0  0  0  0
    2.9618    3.5480   -8.4454 C   0  0  0  0  0  0  0  0  0  0  0  0
    3.2800    4.8516   -8.8292 C   0  0  0  0  0  0  0  0  0  0  0  0
    3.4337    5.2577  -10.5743 S   0  0  1  0  0  0  0  0  0  0  0  0
    4.3409    6.4051  -10.6580 O   0  0  0  0  0  0  0  0  0  0  0  0
    3.6963    3.9975  -11.2745 O   0  0  0  0  0  0  0  0  0  0  0  0
    1.9463    5.7940  -11.1094 N   0  0  0  0  0  0  0  0  0  0  0  0
    0.9021    4.8570  -11.5221 C   0  0  0  0  0  0  0  0  0  0  0  0
   -0.3239    4.9417  -10.6046 C   0  0  0  0  0  0  0  0  0  0  0  0
   -0.8137    6.3907  -10.4730 C   0  0  0  0  0  0  0  0  0  0  0  0
    0.3235    7.3212  -10.0280 C   0  0  0  0  0  0  0  0  0  0  0  0
    1.5365    7.1896  -10.9571 C   0  0  0  0  0  0  0  0  0  0  0  0
    3.4876    5.8442   -7.8598 C   0  0  0  0  0  0  0  0  0  0  0  0
    3.3451    5.5325   -6.5134 C   0  0  0  0  0  0  0  0  0  0  0  0
   -0.4663   -0.5012   -0.7225 N   0  0  0  0  0  0  0  0  0  0  0  0
   -1.4763   -1.2884   -1.3474 C   0  0  0  0  0  0  0  0  0  0  0  0
   -2.2360   -0.7500   -2.3987 C   0  0  0  0  0  0  0  0  0  0  0  0
   -3.2438   -1.5051   -2.9998 C   0  0  0  0  0  0  0  0  0  0  0  0
   -4.1762   -0.8163   -4.3075 Cl  0  0  0  0  0  0  0  0  0  0  0  0
   -3.5152   -2.8051   -2.5640 C   0  0  0  0  0  0  0  0  0  0  0  0
   -2.7541   -3.3542   -1.5322 C   0  0  0  0  0  0  0  0  0  0  0  0
   -1.7347   -2.6109   -0.9296 C   0  0  0  0  0  0  0  0  0  0  0  0
   -0.7661   -3.3587    0.3068 Cl  0  0  0  0  0  0  0  0  0  0  0  0
   -0.8868    0.3911    0.6661 S   0  0  1  0  0  0  0  0  0  0  0  0
   -1.9135    1.7565    0.0984 C   0  0  0  0  0  0  0  0  0  0  0  0
   -1.7333   -0.4484    1.5081 O   0  0  0  0  0  0  0  0  0  0  0  0
    0.3767    0.9544    1.1542 O   0  0  0  0  0  0  0  0  0  0  0  0
    2.3085   -1.2936   -2.5698 H   0  0  0  0  0  0  0  0  0  0  0  0
    0.6287   -1.4758   -3.1288 H   0  0  0  0  0  0  0  0  0  0  0  0
    1.2034   -2.3994   -1.7102 H   0  0  0  0  0  0  0  0  0  0  0  0
    1.5732   -0.2680   -0.4553 H   0  0  0  0  0  0  0  0  0  0  0  0
    2.9747    1.1111   -1.6316 H   0  0  0  0  0  0  0  0  0  0  0  0
    3.4364    3.2525   -2.3788 H   0  0  0  0  0  0  0  0  0  0  0  0
    1.6878    3.5570   -2.5163 H   0  0  0  0  0  0  0  0  0  0  0  0
    1.6109    2.3767   -4.6889 H   0  0  0  0  0  0  0  0  0  0  0  0
    3.3599    2.0001   -4.5757 H   0  0  0  0  0  0  0  0  0  0  0  0
    2.5731    2.2058   -6.8098 H   0  0  0  0  0  0  0  0  0  0  0  0
    2.8472    2.7748   -9.2071 H   0  0  0  0  0  0  0  0  0  0  0  0
    1.3283    3.8460  -11.5553 H   0  0  0  0  0  0  0  0  0  0  0  0
    0.6078    5.1083  -12.5599 H   0  0  0  0  0  0  0  0  0  0  0  0
   -0.0576    4.5479   -9.6079 H   0  0  0  0  0  0  0  0  0  0  0  0
   -1.1241    4.2951  -11.0026 H   0  0  0  0  0  0  0  0  0  0  0  0
   -1.6586    6.4495   -9.7674 H   0  0  0  0  0  0  0  0  0  0  0  0
   -1.2005    6.7331  -11.4513 H   0  0  0  0  0  0  0  0  0  0  0  0
    0.6284    7.0680   -8.9973 H   0  0  0  0  0  0  0  0  0  0  0  0
   -0.0151    8.3709  -10.0147 H   0  0  0  0  0  0  0  0  0  0  0  0
    2.3969    7.7728  -10.6046 H   0  0  0  0  0  0  0  0  0  0  0  0
    1.2800    7.5818  -11.9607 H   0  0  0  0  0  0  0  0  0  0  0  0
    3.7823    6.8489   -8.1679 H   0  0  0  0  0  0  0  0  0  0  0  0
    3.5060    6.2836   -5.7377 H   0  0  0  0  0  0  0  0  0  0  0  0
   -2.0012    0.2589   -2.7405 H   0  0  0  0  0  0  0  0  0  0  0  0
   -4.3101   -3.3854   -3.0352 H   0  0  0  0  0  0  0  0  0  0  0  0
   -2.9434   -4.3729   -1.1903 H   0  0  0  0  0  0  0  0  0  0  0  0
   -2.8482    1.3465   -0.3037 H   0  0  0  0  0  0  0  0  0  0  0  0
   -1.3671    2.3258   -0.6623 H   0  0  0  0  0  0  0  0  0  0  0  0
   -2.1156    2.3578    0.9954 H   0  0  0  0  0  0  0  0  0  0  0  0
  1  2  1  0
  1 37  1  0
  1 38  1  0
  1 39  1  0
  2  3  1  0
  2 24  1  0
  2 40  1  1
  3  4  2  0
  3  5  1  0
  5  6  1  0
  5 41  1  0
  6  7  1  0
  6 42  1  0
  6 43  1  0
  7  8  1  0
  7 44  1  0
  7 45  1  0
  8  9  1  0
  9 10  2  0
  9 23  1  0
 10 11  1  0
 10 46  1  0
 11 12  2  0
 11 47  1  0
 13 12  1  1
 12 22  1  0
 13 14  2  0
 13 15  2  0
 13 16  1  0
 16 17  1  0
 16 21  1  0
 17 18  1  0
 17 48  1  0
 17 49  1  0
 18 19  1  0
 18 50  1  0
 18 51  1  0
 19 20  1  0
 19 52  1  0
 19 53  1  0
 20 21  1  0
 20 54  1  0
 20 55  1  0
 21 56  1  0
 21 57  1  0
 22 23  2  0
 22 58  1  0
 23 59  1  0
 24 25  1  0
 33 24  1  6
 25 26  2  0
 25 31  1  0
 26 27  1  0
 26 60  1  0
 27 28  1  0
 27 29  2  0
 29 30  1  0
 29 61  1  0
 30 31  2  0
 30 62  1  0
 31 32  1  0
 33 34  1  0
 33 35  2  0
 33 36  2  0
 34 63  1  0
 34 64  1  0
 34 65  1  0
M  END

