
     RDKit          3D

 44 46  0  0  0  0  0  0  0  0999 V2000
    2.5849   -1.1924    2.4027 C   0  0  0  0  0  0  0  0  0  0  0  0
    3.4611   -0.3392    1.5493 C   0  0  0  0  0  0  0  0  0  0  0  0
    4.7785   -0.3003    1.5757 N   0  0  0  0  0  0  0  0  0  0  0  0
    5.1014    0.6028    0.6058 C   0  0  0  0  0  0  0  0  0  0  0  0
    6.4975    1.0834    0.3113 C   0  0  0  0  0  0  0  0  0  0  0  0
    6.7151    2.2731    0.1645 O   0  0  0  0  0  0  0  0  0  0  0  0
    7.4912    0.1216    0.2685 N   0  0  0  0  0  0  0  0  0  0  0  0
    7.1994   -1.2706    0.0928 C   0  0  0  0  0  0  0  0  0  0  0  0
    6.7487   -1.7447   -1.1484 C   0  0  0  0  0  0  0  0  0  0  0  0
    6.4697   -3.1005   -1.3392 C   0  0  0  0  0  0  0  0  0  0  0  0
    6.6582   -3.9797   -0.2765 C   0  0  0  0  0  0  0  0  0  0  0  0
    6.3979   -5.2840   -0.4514 F   0  0  0  0  0  0  0  0  0  0  0  0
    7.1053   -3.5371    0.9676 C   0  0  0  0  0  0  0  0  0  0  0  0
    7.3670   -2.1794    1.1484 C   0  0  0  0  0  0  0  0  0  0  0  0
    8.8861    0.5988    0.0868 C   0  0  1  0  0  0  0  0  0  0  0  0
    9.8591   -0.0694    1.0607 C   0  0  0  0  0  0  0  0  0  0  0  0
    9.3466    0.4770   -1.3700 C   0  0  0  0  0  0  0  0  0  0  0  0
    4.0625    1.1276   -0.0222 N   0  0  0  0  0  0  0  0  0  0  0  0
    3.0127    0.5247    0.5830 N   0  0  0  0  0  0  0  0  0  0  0  0
    1.6842    0.7831    0.1418 C   0  0  0  0  0  0  0  0  0  0  0  0
    1.3007    0.3676   -1.1400 C   0  0  0  0  0  0  0  0  0  0  0  0
    0.0113    0.6128   -1.6101 C   0  0  0  0  0  0  0  0  0  0  0  0
   -0.9104    1.2763   -0.7942 C   0  0  0  0  0  0  0  0  0  0  0  0
   -0.5397    1.7053    0.4809 C   0  0  0  0  0  0  0  0  0  0  0  0
    0.7577    1.4684    0.9470 C   0  0  0  0  0  0  0  0  0  0  0  0
    1.2143    2.0694    2.5199 Cl  0  0  0  0  0  0  0  0  0  0  0  0
    3.2130   -1.9271    2.9219 H   0  0  0  0  0  0  0  0  0  0  0  0
    1.8312   -1.7249    1.8017 H   0  0  0  0  0  0  0  0  0  0  0  0
    2.0498   -0.5900    3.1535 H   0  0  0  0  0  0  0  0  0  0  0  0
    6.6102   -1.0396   -1.9706 H   0  0  0  0  0  0  0  0  0  0  0  0
    6.1155   -3.4835   -2.2982 H   0  0  0  0  0  0  0  0  0  0  0  0
    7.2266   -4.2561    1.7801 H   0  0  0  0  0  0  0  0  0  0  0  0
    7.6786   -1.8081    2.1246 H   0  0  0  0  0  0  0  0  0  0  0  0
    8.8256    1.6683    0.3289 H   0  0  0  0  0  0  0  0  0  0  0  0
    9.9824   -1.1447    0.8556 H   0  0  0  0  0  0  0  0  0  0  0  0
    9.5253    0.0500    2.1029 H   0  0  0  0  0  0  0  0  0  0  0  0
   10.8508    0.4009    0.9682 H   0  0  0  0  0  0  0  0  0  0  0  0
    9.4054   -0.5746   -1.6946 H   0  0  0  0  0  0  0  0  0  0  0  0
   10.3486    0.9197   -1.4880 H   0  0  0  0  0  0  0  0  0  0  0  0
    8.6602    1.0143   -2.0421 H   0  0  0  0  0  0  0  0  0  0  0  0
    2.0396   -0.1438   -1.7593 H   0  0  0  0  0  0  0  0  0  0  0  0
   -0.2740    0.2845   -2.6119 H   0  0  0  0  0  0  0  0  0  0  0  0
   -1.9242    1.4699   -1.1524 H   0  0  0  0  0  0  0  0  0  0  0  0
   -1.2436    2.2384    1.1219 H   0  0  0  0  0  0  0  0  0  0  0  0
  1  2  1  0
  1 27  1  0
  1 28  1  0
  1 29  1  0
  2  3  2  0
  2 19  1  0
  3  4  1  0
  4  5  1  0
  4 18  2  0
  5  6  2  0
  5  7  1  0
  7  8  1  0
  7 15  1  0
  8  9  2  0
  8 14  1  0
  9 10  1  0
  9 30  1  0
 10 11  2  0
 10 31  1  0
 11 12  1  0
 11 13  1  0
 13 14  2  0
 13 32  1  0
 14 33  1  0
 15 16  1  0
 15 17  1  0
 15 34  1  1
 16 35  1  0
 16 36  1  0
 16 37  1  0
 17 38  1  0
 17 39  1  0
 17 40  1  0
 18 19  1  0
 19 20  1  0
 20 21  2  0
 20 25  1  0
 21 22  1  0
 21 41  1  0
 22 23  2  0
 22 42  1  0
 23 24  1  0
 23 43  1  0
 24 25  2  0
 24 44  1  0
 25 26  1  0
M  END

