
     RDKit          3D

 24 23  0  0  0  0  0  0  0  0999 V2000
    4.7247    1.6838    3.1122 C   0  0  0  0  0  0  0  0  0  0  0  0
    4.3235    0.5275    2.2498 C   0  0  0  0  0  0  0  0  0  0  0  0
    2.6328    0.0446    2.4815 Cl  0  0  0  0  0  0  0  0  0  0  0  0
    5.1120   -0.1136    1.3776 C   0  0  0  0  0  0  0  0  0  0  0  0
    4.7241   -1.2539    0.4790 C   0  0  0  0  0  0  0  0  0  0  0  0
    5.3741   -2.6275    0.8009 C   0  0  1  0  0  0  0  0  0  0  0  0
    5.1749   -3.0092    2.2943 C   0  0  0  0  0  0  0  0  0  0  0  0
    4.7598   -3.7799   -0.0247 C   0  0  0  0  0  0  0  0  0  0  0  0
    5.2612   -4.8850   -0.0347 O   0  0  0  0  0  0  0  0  0  0  0  0
    3.6397   -3.5588   -0.7099 O   0  0  0  0  0  0  0  0  0  0  0  0
    6.9124   -2.5749    0.5291 C   0  0  0  0  0  0  0  0  0  0  0  0
    7.5004   -1.5308    0.4048 O   0  0  0  0  0  0  0  0  0  0  0  0
    7.5370   -3.7469    0.5135 O   0  0  0  0  0  0  0  0  0  0  0  0
    4.0995    2.5666    2.8993 H   0  0  0  0  0  0  0  0  0  0  0  0
    5.7783    1.9448    2.9360 H   0  0  0  0  0  0  0  0  0  0  0  0
    4.5918    1.4426    4.1797 H   0  0  0  0  0  0  0  0  0  0  0  0
    6.1457    0.2299    1.2959 H   0  0  0  0  0  0  0  0  0  0  0  0
    4.9817   -0.9818   -0.5594 H   0  0  0  0  0  0  0  0  0  0  0  0
    3.6279   -1.3566    0.5532 H   0  0  0  0  0  0  0  0  0  0  0  0
    4.1053   -2.9970    2.5541 H   0  0  0  0  0  0  0  0  0  0  0  0
    5.6899   -2.2830    2.9382 H   0  0  0  0  0  0  0  0  0  0  0  0
    5.5763   -4.0108    2.4983 H   0  0  0  0  0  0  0  0  0  0  0  0
    3.3565   -2.6361   -0.6209 H   0  0  0  0  0  0  0  0  0  0  0  0
    6.8648   -4.4690    0.4379 H   0  0  0  0  0  0  0  0  0  0  0  0
  1  2  1  0
  1 14  1  0
  1 15  1  0
  1 16  1  0
  2  3  1  0
  2  4  2  0
  4  5  1  0
  4 17  1  0
  5  6  1  0
  5 18  1  0
  5 19  1  0
  6  7  1  0
  6  8  1  6
  6 11  1  0
  7 20  1  0
  7 21  1  0
  7 22  1  0
  8  9  2  0
  8 10  1  0
 10 23  1  0
 11 12  2  0
 11 13  1  0
 13 24  1  0
M  END

