
     RDKit          3D

 55 58  0  0  0  0  0  0  0  0999 V2000
   -0.8940   -3.8233    1.1635 C   0  0  0  0  0  0  0  0  0  0  0  0
   -0.0900   -3.4904    2.3731 N   0  0  1  0  0  0  0  0  0  0  0  0
   -0.7523   -3.3808    3.1492 H   0  0  0  0  0  0  0  0  0  0  0  0
    0.8552   -4.6183    2.7919 C   0  0  0  0  0  0  0  0  0  0  0  0
    2.0696   -4.6935    1.8835 C   0  0  0  0  0  0  0  0  0  0  0  0
    2.8455   -3.3332    1.8217 C   0  0  2  0  0  0  0  0  0  0  0  0
    1.8623   -2.2443    1.3508 C   0  0  0  0  0  0  0  0  0  0  0  0
    0.6422   -2.1557    2.2596 C   0  0  0  0  0  0  0  0  0  0  0  0
    4.0464   -3.4057    1.0302 N   0  0  0  0  0  0  0  0  0  0  0  0
    5.1453   -3.9785    1.8804 C   0  0  0  0  0  0  0  0  0  0  0  0
    6.3394   -3.3417    1.4913 O   0  0  0  0  0  0  0  0  0  0  0  0
    4.6915   -3.4338    3.1805 N   0  0  0  0  0  0  0  0  0  0  0  0
    5.5129   -3.5148    4.3753 C   0  0  0  0  0  0  0  0  0  0  0  0
    6.2486   -2.2994    4.6693 N   0  0  0  0  0  0  0  0  0  0  0  0
    6.1264   -2.3949    1.3272 H   0  0  0  0  0  0  0  0  0  0  0  0
    6.0044   -1.6989    5.9638 C   0  0  0  0  0  0  0  0  0  0  0  0
    6.5552   -0.2733    6.0128 C   0  0  0  0  0  0  0  0  0  0  0  0
    7.9623   -0.2412    5.6416 N   0  0  0  0  0  0  0  0  0  0  0  0
    8.7329    0.8751    5.9996 C   0  0  0  0  0  0  0  0  0  0  0  0
   10.1373    0.8698    5.8198 C   0  0  0  0  0  0  0  0  0  0  0  0
   10.9269    1.9521    6.2001 C   0  0  0  0  0  0  0  0  0  0  0  0
   10.3298    3.0695    6.7811 C   0  0  0  0  0  0  0  0  0  0  0  0
   11.0948    4.1137    7.1554 F   0  0  0  0  0  0  0  0  0  0  0  0
    8.9559    3.1140    6.9769 C   0  0  0  0  0  0  0  0  0  0  0  0
    8.1645    2.0312    6.5801 C   0  0  0  0  0  0  0  0  0  0  0  0
    8.2186   -0.8933    4.3541 C   0  0  0  0  0  0  0  0  0  0  0  0
    7.6580   -2.3102    4.3229 C   0  0  0  0  0  0  0  0  0  0  0  0
    3.4128   -3.0677    3.2279 C   0  0  0  0  0  0  0  0  0  0  0  0
    2.7169   -2.7713    4.2324 O   0  0  0  0  0  0  0  0  0  0  0  0
   -1.4460   -4.7552    1.3435 H   0  0  0  0  0  0  0  0  0  0  0  0
   -0.2262   -3.9529    0.3054 H   0  0  0  0  0  0  0  0  0  0  0  0
   -1.5966   -3.0044    0.9609 H   0  0  0  0  0  0  0  0  0  0  0  0
    0.2471   -5.5369    2.8016 H   0  0  0  0  0  0  0  0  0  0  0  0
    1.1777   -4.3560    3.8094 H   0  0  0  0  0  0  0  0  0  0  0  0
    1.7938   -5.0098    0.8604 H   0  0  0  0  0  0  0  0  0  0  0  0
    2.7626   -5.4601    2.2688 H   0  0  0  0  0  0  0  0  0  0  0  0
    1.5810   -2.4242    0.2972 H   0  0  0  0  0  0  0  0  0  0  0  0
    2.3725   -1.2692    1.3723 H   0  0  0  0  0  0  0  0  0  0  0  0
   -0.1034   -1.4208    1.9208 H   0  0  0  0  0  0  0  0  0  0  0  0
    0.9900   -1.9315    3.2784 H   0  0  0  0  0  0  0  0  0  0  0  0
    3.9260   -3.9711    0.1914 H   0  0  0  0  0  0  0  0  0  0  0  0
    6.1888   -4.3721    4.2173 H   0  0  0  0  0  0  0  0  0  0  0  0
    4.8413   -3.7425    5.2179 H   0  0  0  0  0  0  0  0  0  0  0  0
    6.4682   -2.2812    6.7960 H   0  0  0  0  0  0  0  0  0  0  0  0
    4.9183   -1.6637    6.1431 H   0  0  0  0  0  0  0  0  0  0  0  0
    6.4458    0.1075    7.0390 H   0  0  0  0  0  0  0  0  0  0  0  0
    5.9429    0.3711    5.3443 H   0  0  0  0  0  0  0  0  0  0  0  0
   10.6264   -0.0089    5.3977 H   0  0  0  0  0  0  0  0  0  0  0  0
   12.0103    1.9334    6.0634 H   0  0  0  0  0  0  0  0  0  0  0  0
    8.5063    4.0024    7.4259 H   0  0  0  0  0  0  0  0  0  0  0  0
    7.0867    2.1044    6.7195 H   0  0  0  0  0  0  0  0  0  0  0  0
    9.2981   -0.9309    4.1619 H   0  0  0  0  0  0  0  0  0  0  0  0
    7.7545   -0.3081    3.5314 H   0  0  0  0  0  0  0  0  0  0  0  0
    8.2506   -2.9459    5.0232 H   0  0  0  0  0  0  0  0  0  0  0  0
    7.7633   -2.7231    3.3088 H   0  0  0  0  0  0  0  0  0  0  0  0
  1  2  1  0
  1 30  1  0
  1 31  1  0
  1 32  1  0
  2  3  1  1
  2  4  1  0
  2  8  1  0
  4  5  1  0
  4 33  1  0
  4 34  1  0
  5  6  1  0
  5 35  1  0
  5 36  1  0
  6  7  1  0
  6  9  1  0
  6 28  1  1
  7  8  1  0
  7 37  1  0
  7 38  1  0
  8 39  1  0
  8 40  1  0
  9 10  1  0
  9 41  1  0
 10 11  2  0
 10 12  1  0
 11 15  1  0
 12 13  1  0
 12 28  1  0
 13 14  1  0
 13 42  1  0
 13 43  1  0
 14 16  1  0
 14 27  1  0
 16 17  1  0
 16 44  1  0
 16 45  1  0
 17 18  1  0
 17 46  1  0
 17 47  1  0
 18 19  1  0
 18 26  1  0
 19 20  2  0
 19 25  1  0
 20 21  1  0
 20 48  1  0
 21 22  2  0
 21 49  1  0
 22 23  1  0
 22 24  1  0
 24 25  2  0
 24 50  1  0
 25 51  1  0
 26 27  1  0
 26 52  1  0
 26 53  1  0
 27 54  1  0
 27 55  1  0
 28 29  1  0
M  CHG  4   2   1  11   1  28  -1  29  -1
M  END

