
     RDKit          3D

154164  0  0  0  0  0  0  0  0999 V2000
    2.0464    6.7059    3.3790 C   0  0  0  0  0  0  0  0  0  0  0  0
    3.2392    5.8076    3.7114 C   0  0  0  0  0  0  0  0  0  0  0  0
    4.5677    6.3354    3.1574 C   0  0  0  0  0  0  0  0  0  0  0  0
    5.8087    5.5151    3.5416 C   0  0  0  0  0  0  0  0  0  0  0  0
    5.8451    4.0611    3.0457 C   0  0  0  0  0  0  0  0  0  0  0  0
    5.8268    3.8736    1.5157 C   0  0  0  0  0  0  0  0  0  0  0  0
    6.9733    4.5164    0.7669 C   0  0  0  0  0  0  0  0  0  0  0  0
    6.7578    5.5438   -0.2081 C   0  0  0  0  0  0  0  0  0  0  0  0
    7.9071    6.0478   -0.7599 C   0  0  0  0  0  0  0  0  0  0  0  0
    9.3011    5.2828   -0.1028 S   0  0  0  0  0  0  0  0  0  0  0  0
    8.3282    4.2573    0.9377 C   0  0  0  0  0  0  0  0  0  0  0  0
    9.0526    3.3415    1.8391 C   0  0  0  0  0  0  0  0  0  0  0  0
   10.0965    3.8093    2.6126 C   0  0  0  0  0  0  0  0  0  0  0  0
   10.8900    2.9885    3.4733 C   0  0  0  0  0  0  0  0  0  0  0  0
   11.9713    3.5061    4.2553 C   0  0  0  0  0  0  0  0  0  0  0  0
   12.3264    4.8914    4.2642 C   0  0  0  0  0  0  0  0  0  0  0  0
   13.3771    5.4155    4.9898 C   0  0  0  0  0  0  0  0  0  0  0  0
   13.6643    6.8579    4.9477 C   0  0  0  0  0  0  0  0  0  0  0  0
   13.8214    7.7680    6.4340 S   0  0  0  0  0  0  0  0  0  0  0  0
   13.9590    9.2504    5.5737 C   0  0  0  0  0  0  0  0  0  0  0  0
   13.9131    9.0602    4.2164 C   0  0  0  0  0  0  0  0  0  0  0  0
   13.7421    7.6903    3.8355 C   0  0  0  0  0  0  0  0  0  0  0  0
   13.6976    7.2326    2.3933 C   0  0  0  0  0  0  0  0  0  0  0  0
   14.7285    7.9038    1.4645 C   0  0  0  0  0  0  0  0  0  0  0  0
   16.2049    7.7056    1.8362 C   0  0  0  0  0  0  0  0  0  0  0  0
   16.6952    6.2536    1.8110 C   0  0  0  0  0  0  0  0  0  0  0  0
   18.2134    6.1224    1.9761 C   0  0  0  0  0  0  0  0  0  0  0  0
   18.7072    4.6754    1.9865 C   0  0  0  0  0  0  0  0  0  0  0  0
   14.1688    4.4984    5.7901 C   0  0  0  0  0  0  0  0  0  0  0  0
   15.2435    4.9433    6.4630 N   0  0  0  0  0  0  0  0  0  0  0  0
   15.9371    4.0529    7.1556 C   0  0  0  0  0  0  0  0  0  0  0  0
   17.1642    4.5507    7.9164 C   0  0  1  0  0  0  0  0  0  0  0  0
   16.8814    4.5427    9.2472 F   0  0  0  0  0  0  0  0  0  0  0  0
   18.2042    3.7127    7.7186 F   0  0  0  0  0  0  0  0  0  0  0  0
   17.6675    5.9917    7.5912 C   0  0  1  0  0  0  0  0  0  0  0  0
   16.7661    6.8950    8.0042 F   0  0  0  0  0  0  0  0  0  0  0  0
   18.7944    6.1701    8.3114 F   0  0  0  0  0  0  0  0  0  0  0  0
   18.0214    6.2667    6.0784 C   0  0  1  0  0  0  0  0  0  0  0  0
   18.0352    5.1236    5.3763 F   0  0  0  0  0  0  0  0  0  0  0  0
   17.1448    7.0952    5.5229 F   0  0  0  0  0  0  0  0  0  0  0  0
   19.2310    6.8178    5.9855 F   0  0  0  0  0  0  0  0  0  0  0  0
   15.6836    2.7599    7.2978 N   0  0  0  0  0  0  0  0  0  0  0  0
   14.6140    2.2692    6.6555 C   0  0  0  0  0  0  0  0  0  0  0  0
   14.2800    0.8588    6.7593 C   0  0  0  0  0  0  0  0  0  0  0  0
   15.0879   -0.0747    7.5664 C   0  0  0  0  0  0  0  0  0  0  0  0
   15.6343   -1.5433    6.7766 S   0  0  0  0  0  0  0  0  0  0  0  0
   16.3959   -2.1078    8.2122 C   0  0  0  0  0  0  0  0  0  0  0  0
   16.2373   -1.2172    9.2426 C   0  0  0  0  0  0  0  0  0  0  0  0
   15.4919   -0.0441    8.8966 C   0  0  0  0  0  0  0  0  0  0  0  0
   15.1577    1.0218    9.9160 C   0  0  0  0  0  0  0  0  0  0  0  0
   13.6732    1.0897   10.3243 C   0  0  0  0  0  0  0  0  0  0  0  0
   13.1596   -0.1519   11.0595 C   0  0  0  0  0  0  0  0  0  0  0  0
   11.6842   -0.0560   11.4631 C   0  0  0  0  0  0  0  0  0  0  0  0
   11.1562   -1.2447   12.2797 C   0  0  0  0  0  0  0  0  0  0  0  0
   11.1381   -2.5824   11.5351 C   0  0  0  0  0  0  0  0  0  0  0  0
   13.2178    0.3945    6.0084 C   0  0  0  0  0  0  0  0  0  0  0  0
   12.4177    1.2155    5.1526 C   0  0  0  0  0  0  0  0  0  0  0  0
   11.3284    0.7003    4.3799 C   0  0  0  0  0  0  0  0  0  0  0  0
   10.9444   -0.6774    4.4034 C   0  0  0  0  0  0  0  0  0  0  0  0
    9.9065   -1.2030    3.6602 C   0  0  0  0  0  0  0  0  0  0  0  0
    9.6025   -2.6437    3.7038 C   0  0  0  0  0  0  0  0  0  0  0  0
   10.9285   -3.7693    3.4797 S   0  0  0  0  0  0  0  0  0  0  0  0
    9.8796   -5.1242    3.6535 C   0  0  0  0  0  0  0  0  0  0  0  0
    8.5842   -4.7332    3.8716 C   0  0  0  0  0  0  0  0  0  0  0  0
    8.4030   -3.3113    3.9063 C   0  0  0  0  0  0  0  0  0  0  0  0
    7.0654   -2.6553    4.1619 C   0  0  0  0  0  0  0  0  0  0  0  0
    6.2277   -3.2902    5.2872 C   0  0  0  0  0  0  0  0  0  0  0  0
    6.8425   -3.2375    6.6933 C   0  0  0  0  0  0  0  0  0  0  0  0
    7.0239   -1.8274    7.2656 C   0  0  0  0  0  0  0  0  0  0  0  0
    7.5446   -1.8119    8.7065 C   0  0  0  0  0  0  0  0  0  0  0  0
    7.7273   -0.4048    9.2772 C   0  0  0  0  0  0  0  0  0  0  0  0
    9.1772   -0.3039    2.7822 C   0  0  0  0  0  0  0  0  0  0  0  0
    8.2107   -0.7797    1.9812 N   0  0  0  0  0  0  0  0  0  0  0  0
    7.5842    0.0934    1.2077 C   0  0  0  0  0  0  0  0  0  0  0  0
    6.4891   -0.4783    0.2997 C   0  0  1  0  0  0  0  0  0  0  0  0
    5.8301   -1.4699    0.9446 F   0  0  0  0  0  0  0  0  0  0  0  0
    5.5892    0.4779   -0.0167 F   0  0  0  0  0  0  0  0  0  0  0  0
    6.9981   -1.1080   -1.0329 C   0  0  1  0  0  0  0  0  0  0  0  0
    7.8241   -2.1294   -0.7371 F   0  0  0  0  0  0  0  0  0  0  0  0
    5.9301   -1.5910   -1.6983 F   0  0  0  0  0  0  0  0  0  0  0  0
    7.7582   -0.1642   -2.0032 C   0  0  1  0  0  0  0  0  0  0  0  0
    8.8980    0.2560   -1.4442 F   0  0  0  0  0  0  0  0  0  0  0  0
    8.0586   -0.8356   -3.1155 F   0  0  0  0  0  0  0  0  0  0  0  0
    7.0193    0.8924   -2.3285 F   0  0  0  0  0  0  0  0  0  0  0  0
    7.7939    1.3992    1.1173 N   0  0  0  0  0  0  0  0  0  0  0  0
    8.7555    1.9210    1.8946 C   0  0  0  0  0  0  0  0  0  0  0  0
    9.5159    1.0824    2.7654 C   0  0  0  0  0  0  0  0  0  0  0  0
   10.5866    1.5964    3.5516 C   0  0  0  0  0  0  0  0  0  0  0  0
   12.7194    2.6085    5.0750 C   0  0  0  0  0  0  0  0  0  0  0  0
   13.8101    3.1187    5.8353 C   0  0  0  0  0  0  0  0  0  0  0  0
    1.1069    6.3021    3.7892 H   0  0  0  0  0  0  0  0  0  0  0  0
    1.9147    6.8100    2.2887 H   0  0  0  0  0  0  0  0  0  0  0  0
    2.1808    7.7203    3.7909 H   0  0  0  0  0  0  0  0  0  0  0  0
    3.0457    4.7922    3.3230 H   0  0  0  0  0  0  0  0  0  0  0  0
    3.3237    5.6973    4.8084 H   0  0  0  0  0  0  0  0  0  0  0  0
    4.7137    7.3701    3.5171 H   0  0  0  0  0  0  0  0  0  0  0  0
    4.4952    6.4186    2.0577 H   0  0  0  0  0  0  0  0  0  0  0  0
    5.8990    5.5066    4.6431 H   0  0  0  0  0  0  0  0  0  0  0  0
    6.7061    6.0411    3.1716 H   0  0  0  0  0  0  0  0  0  0  0  0
    4.9935    3.4991    3.4667 H   0  0  0  0  0  0  0  0  0  0  0  0
    6.7463    3.5774    3.4593 H   0  0  0  0  0  0  0  0  0  0  0  0
    4.8866    4.2782    1.1082 H   0  0  0  0  0  0  0  0  0  0  0  0
    5.8188    2.7974    1.2888 H   0  0  0  0  0  0  0  0  0  0  0  0
    5.7611    5.8920   -0.4859 H   0  0  0  0  0  0  0  0  0  0  0  0
    8.0067    6.8156   -1.5259 H   0  0  0  0  0  0  0  0  0  0  0  0
   10.3141    4.8749    2.5582 H   0  0  0  0  0  0  0  0  0  0  0  0
   11.7224    5.5903    3.6891 H   0  0  0  0  0  0  0  0  0  0  0  0
   14.0843   10.1877    6.1146 H   0  0  0  0  0  0  0  0  0  0  0  0
   14.0072    9.8779    3.5008 H   0  0  0  0  0  0  0  0  0  0  0  0
   12.6912    7.4301    1.9789 H   0  0  0  0  0  0  0  0  0  0  0  0
   13.8248    6.1401    2.3535 H   0  0  0  0  0  0  0  0  0  0  0  0
   14.5171    8.9855    1.4079 H   0  0  0  0  0  0  0  0  0  0  0  0
   14.5583    7.5184    0.4432 H   0  0  0  0  0  0  0  0  0  0  0  0
   16.3990    8.1331    2.8355 H   0  0  0  0  0  0  0  0  0  0  0  0
   16.8146    8.2984    1.1307 H   0  0  0  0  0  0  0  0  0  0  0  0
   16.3928    5.7778    0.8584 H   0  0  0  0  0  0  0  0  0  0  0  0
   16.1991    5.6762    2.6117 H   0  0  0  0  0  0  0  0  0  0  0  0
   18.5209    6.6221    2.9116 H   0  0  0  0  0  0  0  0  0  0  0  0
   18.7134    6.6785    1.1620 H   0  0  0  0  0  0  0  0  0  0  0  0
   18.2733    4.1126    2.8289 H   0  0  0  0  0  0  0  0  0  0  0  0
   19.8034    4.6234    2.0850 H   0  0  0  0  0  0  0  0  0  0  0  0
   18.4316    4.1498    1.0565 H   0  0  0  0  0  0  0  0  0  0  0  0
   16.9317   -3.0561    8.2173 H   0  0  0  0  0  0  0  0  0  0  0  0
   16.6429   -1.3831   10.2424 H   0  0  0  0  0  0  0  0  0  0  0  0
   15.4771    1.9999    9.5298 H   0  0  0  0  0  0  0  0  0  0  0  0
   15.7641    0.8343   10.8178 H   0  0  0  0  0  0  0  0  0  0  0  0
   13.0518    1.2684    9.4283 H   0  0  0  0  0  0  0  0  0  0  0  0
   13.5334    1.9766   10.9681 H   0  0  0  0  0  0  0  0  0  0  0  0
   13.7734   -0.3138   11.9660 H   0  0  0  0  0  0  0  0  0  0  0  0
   13.3195   -1.0408   10.4253 H   0  0  0  0  0  0  0  0  0  0  0  0
   11.0647    0.0640   10.5541 H   0  0  0  0  0  0  0  0  0  0  0  0
   11.5355    0.8690   12.0493 H   0  0  0  0  0  0  0  0  0  0  0  0
   10.1316   -1.0099   12.6181 H   0  0  0  0  0  0  0  0  0  0  0  0
   11.7588   -1.3459   13.2012 H   0  0  0  0  0  0  0  0  0  0  0  0
   12.1497   -2.9104   11.2467 H   0  0  0  0  0  0  0  0  0  0  0  0
   10.7022   -3.3793   12.1588 H   0  0  0  0  0  0  0  0  0  0  0  0
   10.5359   -2.5177   10.6127 H   0  0  0  0  0  0  0  0  0  0  0  0
   12.9813   -0.6657    6.0875 H   0  0  0  0  0  0  0  0  0  0  0  0
   11.4891   -1.3644    5.0498 H   0  0  0  0  0  0  0  0  0  0  0  0
   10.2709   -6.1376    3.5738 H   0  0  0  0  0  0  0  0  0  0  0  0
    7.7692   -5.4455    4.0070 H   0  0  0  0  0  0  0  0  0  0  0  0
    6.4839   -2.6770    3.2252 H   0  0  0  0  0  0  0  0  0  0  0  0
    7.2185   -1.5878    4.3757 H   0  0  0  0  0  0  0  0  0  0  0  0
    6.0069   -4.3410    5.0323 H   0  0  0  0  0  0  0  0  0  0  0  0
    5.2470   -2.7820    5.3037 H   0  0  0  0  0  0  0  0  0  0  0  0
    7.8165   -3.7593    6.6920 H   0  0  0  0  0  0  0  0  0  0  0  0
    6.1949   -3.8154    7.3771 H   0  0  0  0  0  0  0  0  0  0  0  0
    6.0577   -1.2895    7.2234 H   0  0  0  0  0  0  0  0  0  0  0  0
    7.7181   -1.2481    6.6304 H   0  0  0  0  0  0  0  0  0  0  0  0
    8.5059   -2.3559    8.7505 H   0  0  0  0  0  0  0  0  0  0  0  0
    6.8500   -2.3831    9.3492 H   0  0  0  0  0  0  0  0  0  0  0  0
    8.4468    0.1806    8.6800 H   0  0  0  0  0  0  0  0  0  0  0  0
    8.1013   -0.4325   10.3132 H   0  0  0  0  0  0  0  0  0  0  0  0
    6.7756    0.1529    9.2824 H   0  0  0  0  0  0  0  0  0  0  0  0
  1  2  1  0
  1 91  1  0
  1 92  1  0
  1 93  1  0
  2  3  1  0
  2 94  1  0
  2 95  1  0
  3  4  1  0
  3 96  1  0
  3 97  1  0
  4  5  1  0
  4 98  1  0
  4 99  1  0
  5  6  1  0
  5100  1  0
  5101  1  0
  6  7  1  0
  6102  1  0
  6103  1  0
  7  8  1  0
  7 11  2  0
  8  9  2  0
  8104  1  0
  9 10  1  0
  9105  1  0
 10 11  1  0
 11 12  1  0
 12 13  2  0
 12 86  1  0
 13 14  1  0
 13106  1  0
 14 15  2  0
 14 88  1  0
 15 16  1  0
 15 89  1  0
 16 17  2  0
 16107  1  0
 17 18  1  0
 17 29  1  0
 18 19  1  0
 18 22  2  0
 19 20  1  0
 20 21  2  0
 20108  1  0
 21 22  1  0
 21109  1  0
 22 23  1  0
 23 24  1  0
 23110  1  0
 23111  1  0
 24 25  1  0
 24112  1  0
 24113  1  0
 25 26  1  0
 25114  1  0
 25115  1  0
 26 27  1  0
 26116  1  0
 26117  1  0
 27 28  1  0
 27118  1  0
 27119  1  0
 28120  1  0
 28121  1  0
 28122  1  0
 29 30  1  0
 29 90  2  0
 30 31  2  0
 31 32  1  0
 31 42  1  0
 32 33  1  1
 32 34  1  0
 32 35  1  0
 35 36  1  1
 35 37  1  0
 35 38  1  0
 38 39  1  6
 38 40  1  0
 38 41  1  0
 42 43  2  0
 43 44  1  0
 43 90  1  0
 44 45  1  0
 44 56  2  0
 45 46  1  0
 45 49  2  0
 46 47  1  0
 47 48  2  0
 47123  1  0
 48 49  1  0
 48124  1  0
 49 50  1  0
 50 51  1  0
 50125  1  0
 50126  1  0
 51 52  1  0
 51127  1  0
 51128  1  0
 52 53  1  0
 52129  1  0
 52130  1  0
 53 54  1  0
 53131  1  0
 53132  1  0
 54 55  1  0
 54133  1  0
 54134  1  0
 55135  1  0
 55136  1  0
 55137  1  0
 56 57  1  0
 56138  1  0
 57 58  1  0
 57 89  2  0
 58 59  1  0
 58 88  2  0
 59 60  2  0
 59139  1  0
 60 61  1  0
 60 72  1  0
 61 62  1  0
 61 65  2  0
 62 63  1  0
 63 64  2  0
 63140  1  0
 64 65  1  0
 64141  1  0
 65 66  1  0
 66 67  1  0
 66142  1  0
 66143  1  0
 67 68  1  0
 67144  1  0
 67145  1  0
 68 69  1  0
 68146  1  0
 68147  1  0
 69 70  1  0
 69148  1  0
 69149  1  0
 70 71  1  0
 70150  1  0
 70151  1  0
 71152  1  0
 71153  1  0
 71154  1  0
 72 73  1  0
 72 87  2  0
 73 74  2  0
 74 75  1  0
 74 85  1  0
 75 76  1  1
 75 77  1  0
 75 78  1  0
 78 79  1  1
 78 80  1  0
 78 81  1  0
 81 82  1  1
 81 83  1  0
 81 84  1  0
 85 86  2  0
 86 87  1  0
 87 88  1  0
 89 90  1  0
M  END

