
     RDKit          3D

 56 59  0  0  0  0  0  0  0  0999 V2000
    6.0206    1.4452    0.3813 C   0  0  0  0  0  0  0  0  0  0  0  0
    4.9361    0.6539   -0.2937 C   0  0  0  0  0  0  0  0  0  0  0  0
    3.6239    1.0113   -0.4440 C   0  0  0  0  0  0  0  0  0  0  0  0
    3.0898    2.2996    0.0396 C   0  0  0  0  0  0  0  0  0  0  0  0
    3.6818    3.1587    0.6658 O   0  0  0  0  0  0  0  0  0  0  0  0
    1.7852    2.4372   -0.3069 O   0  0  0  0  0  0  0  0  0  0  0  0
    1.0961    3.6317    0.1129 C   0  0  0  0  0  0  0  0  0  0  0  0
    1.1078    4.6990   -0.9571 C   0  0  0  0  0  0  0  0  0  0  0  0
    0.0206    4.8334   -1.8379 C   0  0  0  0  0  0  0  0  0  0  0  0
    0.0484    5.8108   -2.8312 C   0  0  0  0  0  0  0  0  0  0  0  0
    1.1479    6.6659   -2.9696 C   0  0  0  0  0  0  0  0  0  0  0  0
    2.2352    6.5348   -2.0914 C   0  0  0  0  0  0  0  0  0  0  0  0
    3.3513    7.3089   -2.1319 O   0  0  0  0  0  0  0  0  0  0  0  0
    3.4552    8.3404   -3.0906 C   0  0  0  0  0  0  0  0  0  0  0  0
    4.7622    9.0811   -2.9179 C   0  0  0  0  0  0  0  0  0  0  0  0
    5.2404    9.8815   -3.9665 C   0  0  0  0  0  0  0  0  0  0  0  0
    6.4211   10.6132   -3.8225 C   0  0  0  0  0  0  0  0  0  0  0  0
    7.1446   10.5475   -2.6272 C   0  0  0  0  0  0  0  0  0  0  0  0
    6.6773    9.7466   -1.5820 C   0  0  0  0  0  0  0  0  0  0  0  0
    5.4918    9.0182   -1.7238 C   0  0  0  0  0  0  0  0  0  0  0  0
    2.2076    5.5514   -1.0887 C   0  0  0  0  0  0  0  0  0  0  0  0
    2.6472    0.0486   -1.1138 C   0  0  2  0  0  0  0  0  0  0  0  0
    1.7021   -0.6441   -0.1250 C   0  0  0  0  0  0  0  0  0  0  0  0
    0.3150   -0.5762   -0.3093 C   0  0  0  0  0  0  0  0  0  0  0  0
   -0.5575   -1.2350    0.5634 C   0  0  0  0  0  0  0  0  0  0  0  0
   -0.0490   -1.9735    1.6346 C   0  0  0  0  0  0  0  0  0  0  0  0
    1.3351   -2.0479    1.8281 C   0  0  0  0  0  0  0  0  0  0  0  0
    2.2023   -1.3874    0.9556 C   0  0  0  0  0  0  0  0  0  0  0  0
    3.3833   -0.9266   -1.9254 N   0  0  0  0  0  0  0  0  0  0  0  0
    4.6537   -1.3621   -1.6979 C   0  0  0  0  0  0  0  0  0  0  0  0
    5.1660   -2.3317   -2.2231 O   0  0  0  0  0  0  0  0  0  0  0  0
    5.3717   -0.5529   -0.8069 N   0  0  0  0  0  0  0  0  0  0  0  0
    5.6271    2.3569    0.8365 H   0  0  0  0  0  0  0  0  0  0  0  0
    6.7979    1.7113   -0.3556 H   0  0  0  0  0  0  0  0  0  0  0  0
    6.5020    0.8236    1.1555 H   0  0  0  0  0  0  0  0  0  0  0  0
    1.5589    3.9969    1.0393 H   0  0  0  0  0  0  0  0  0  0  0  0
    0.0678    3.3043    0.3189 H   0  0  0  0  0  0  0  0  0  0  0  0
   -0.8456    4.1740   -1.7399 H   0  0  0  0  0  0  0  0  0  0  0  0
   -0.7978    5.9178   -3.5150 H   0  0  0  0  0  0  0  0  0  0  0  0
    1.1440    7.4213   -3.7552 H   0  0  0  0  0  0  0  0  0  0  0  0
    2.6079    9.0465   -2.9775 H   0  0  0  0  0  0  0  0  0  0  0  0
    3.3921    7.9251   -4.1146 H   0  0  0  0  0  0  0  0  0  0  0  0
    4.6850    9.9312   -4.9085 H   0  0  0  0  0  0  0  0  0  0  0  0
    6.7812   11.2315   -4.6489 H   0  0  0  0  0  0  0  0  0  0  0  0
    8.0714   11.1157   -2.5140 H   0  0  0  0  0  0  0  0  0  0  0  0
    7.2394    9.6858   -0.6463 H   0  0  0  0  0  0  0  0  0  0  0  0
    5.1287    8.3884   -0.9107 H   0  0  0  0  0  0  0  0  0  0  0  0
    3.0651    5.4561   -0.4202 H   0  0  0  0  0  0  0  0  0  0  0  0
    2.0180    0.6313   -1.8013 H   0  0  0  0  0  0  0  0  0  0  0  0
   -0.0868    0.0068   -1.1430 H   0  0  0  0  0  0  0  0  0  0  0  0
   -1.6373   -1.1696    0.4057 H   0  0  0  0  0  0  0  0  0  0  0  0
   -0.7277   -2.4895    2.3186 H   0  0  0  0  0  0  0  0  0  0  0  0
    1.7403   -2.6229    2.6649 H   0  0  0  0  0  0  0  0  0  0  0  0
    3.2814   -1.4491    1.1189 H   0  0  0  0  0  0  0  0  0  0  0  0
    2.8398   -1.5483   -2.5144 H   0  0  0  0  0  0  0  0  0  0  0  0
    6.3453   -0.8172   -0.7066 H   0  0  0  0  0  0  0  0  0  0  0  0
  1  2  1  0
  1 33  1  0
  1 34  1  0
  1 35  1  0
  2  3  2  0
  2 32  1  0
  3  4  1  0
  3 22  1  0
  4  5  2  0
  4  6  1  0
  6  7  1  0
  7  8  1  0
  7 36  1  0
  7 37  1  0
  8  9  2  0
  8 21  1  0
  9 10  1  0
  9 38  1  0
 10 11  2  0
 10 39  1  0
 11 12  1  0
 11 40  1  0
 12 13  1  0
 12 21  2  0
 13 14  1  0
 14 15  1  0
 14 41  1  0
 14 42  1  0
 15 16  2  0
 15 20  1  0
 16 17  1  0
 16 43  1  0
 17 18  2  0
 17 44  1  0
 18 19  1  0
 18 45  1  0
 19 20  2  0
 19 46  1  0
 20 47  1  0
 21 48  1  0
 22 23  1  0
 22 29  1  0
 22 49  1  6
 23 24  2  0
 23 28  1  0
 24 25  1  0
 24 50  1  0
 25 26  2  0
 25 51  1  0
 26 27  1  0
 26 52  1  0
 27 28  2  0
 27 53  1  0
 28 54  1  0
 29 30  1  0
 29 55  1  0
 30 31  2  0
 30 32  1  0
 32 56  1  0
M  END

