
     RDKit          3D

 47 51  0  0  0  0  0  0  0  0999 V2000
    4.0228    0.2402    1.0476 C   0  0  0  0  0  0  0  0  0  0  0  0
    2.7708    0.1213    0.1620 C   0  0  0  0  0  0  0  0  0  0  0  0
    3.0541   -0.3285   -1.2363 C   0  0  0  0  0  0  0  0  0  0  0  0
    3.6193    0.5159   -2.1805 N   0  0  0  0  0  0  0  0  0  0  0  0
    3.8312    1.4926   -2.0250 H   0  0  0  0  0  0  0  0  0  0  0  0
    3.7857   -0.1356   -3.3725 C   0  0  0  0  0  0  0  0  0  0  0  0
    4.2570    0.3720   -4.5925 C   0  0  0  0  0  0  0  0  0  0  0  0
    4.2601   -0.5469   -5.6337 C   0  0  0  0  0  0  0  0  0  0  0  0
    4.7599   -0.1072   -6.8339 O   0  0  0  0  0  0  0  0  0  0  0  0
    4.3962   -0.6332   -8.0463 C   0  0  0  0  0  0  0  0  0  0  0  0
    5.4090   -0.6020   -9.0431 C   0  0  0  0  0  0  0  0  0  0  0  0
    5.1449   -1.0322  -10.3227 C   0  0  0  0  0  0  0  0  0  0  0  0
    3.8553   -1.5212  -10.6736 C   0  0  0  0  0  0  0  0  0  0  0  0
    3.6328   -1.9419  -11.9486 N   0  0  0  0  0  0  0  0  0  0  0  0
    2.4356   -2.3875  -12.2597 C   0  0  0  0  0  0  0  0  0  0  0  0
    1.3545   -2.4558  -11.3405 C   0  0  0  0  0  0  0  0  0  0  0  0
    1.5582   -2.0368  -10.0445 C   0  0  0  0  0  0  0  0  0  0  0  0
    2.8375   -1.5487   -9.6612 C   0  0  0  0  0  0  0  0  0  0  0  0
    3.1288   -1.0941   -8.3477 C   0  0  0  0  0  0  0  0  0  0  0  0
    3.8832   -1.8147   -5.5278 N   0  0  0  0  0  0  0  0  0  0  0  0
    3.4409   -2.3191   -4.3668 C   0  0  0  0  0  0  0  0  0  0  0  0
    3.1123   -3.6449   -4.4219 N   0  0  0  0  0  0  0  0  0  0  0  0
    3.3913   -4.5233   -5.5601 C   0  0  0  0  0  0  0  0  0  0  0  0
    3.3687   -5.7381   -4.5907 C   0  0  2  0  0  0  0  0  0  0  0  0
    2.4238   -6.7425   -4.8151 O   0  0  0  0  0  0  0  0  0  0  0  0
    3.0936   -4.7322   -3.4373 C   0  0  0  0  0  0  0  0  0  0  0  0
    3.3426   -1.4814   -3.2080 C   0  0  0  0  0  0  0  0  0  0  0  0
    2.8773   -1.5552   -1.8382 C   0  0  0  0  0  0  0  0  0  0  0  0
    2.1601   -2.8969   -0.9938 Cl  0  0  0  0  0  0  0  0  0  0  0  0
    3.7549    0.5856    2.0586 H   0  0  0  0  0  0  0  0  0  0  0  0
    4.7496    0.9562    0.6307 H   0  0  0  0  0  0  0  0  0  0  0  0
    4.5299   -0.7325    1.1404 H   0  0  0  0  0  0  0  0  0  0  0  0
    2.2456    1.0935    0.1316 H   0  0  0  0  0  0  0  0  0  0  0  0
    2.0675   -0.5961    0.6097 H   0  0  0  0  0  0  0  0  0  0  0  0
    4.5866    1.4005   -4.7352 H   0  0  0  0  0  0  0  0  0  0  0  0
    6.3939   -0.2257   -8.7591 H   0  0  0  0  0  0  0  0  0  0  0  0
    5.9098   -1.0154  -11.1014 H   0  0  0  0  0  0  0  0  0  0  0  0
    2.2846   -2.7201  -13.2948 H   0  0  0  0  0  0  0  0  0  0  0  0
    0.3843   -2.8361  -11.6686 H   0  0  0  0  0  0  0  0  0  0  0  0
    0.7525   -2.0726   -9.3054 H   0  0  0  0  0  0  0  0  0  0  0  0
    2.3502   -1.1211   -7.5856 H   0  0  0  0  0  0  0  0  0  0  0  0
    4.3490   -4.3096   -6.0616 H   0  0  0  0  0  0  0  0  0  0  0  0
    2.5979   -4.5383   -6.3296 H   0  0  0  0  0  0  0  0  0  0  0  0
    4.3411   -6.2439   -4.5047 H   0  0  0  0  0  0  0  0  0  0  0  0
    1.5554   -6.3308   -4.9266 H   0  0  0  0  0  0  0  0  0  0  0  0
    3.8698   -4.6577   -2.6569 H   0  0  0  0  0  0  0  0  0  0  0  0
    2.1202   -4.8869   -2.9434 H   0  0  0  0  0  0  0  0  0  0  0  0
  1  2  1  0
  1 30  1  0
  1 31  1  0
  1 32  1  0
  2  3  1  0
  2 33  1  0
  2 34  1  0
  3  4  1  0
  3 28  2  0
  4  5  1  0
  4  6  1  0
  6  7  2  0
  6 27  1  0
  7  8  1  0
  7 35  1  0
  8  9  1  0
  8 20  2  0
  9 10  1  0
 10 11  2  0
 10 19  1  0
 11 12  1  0
 11 36  1  0
 12 13  2  0
 12 37  1  0
 13 14  1  0
 13 18  1  0
 14 15  2  0
 15 16  1  0
 15 38  1  0
 16 17  2  0
 16 39  1  0
 17 18  1  0
 17 40  1  0
 18 19  2  0
 19 41  1  0
 20 21  1  0
 21 22  1  0
 21 27  2  0
 22 23  1  0
 22 26  1  0
 23 24  1  0
 23 42  1  0
 23 43  1  0
 24 25  1  0
 24 26  1  0
 24 44  1  1
 25 45  1  0
 26 46  1  0
 26 47  1  0
 27 28  1  0
 28 29  1  0
M  END

