
     RDKit          3D

 57 59  0  0  0  0  0  0  0  0999 V2000
   10.2877   -1.0202    2.0500 C   0  0  0  0  0  0  0  0  0  0  0  0
    9.0605   -0.9880    1.3184 O   0  0  0  0  0  0  0  0  0  0  0  0
    9.1394   -1.2890    0.0104 C   0  0  0  0  0  0  0  0  0  0  0  0
   10.1726   -1.5794   -0.5416 O   0  0  0  0  0  0  0  0  0  0  0  0
    7.7819   -1.1823   -0.6691 C   0  0  0  0  0  0  0  0  0  0  0  0
    7.4154   -2.3921   -1.5048 C   0  0  0  0  0  0  0  0  0  0  0  0
    6.2568   -3.1283   -1.2261 C   0  0  0  0  0  0  0  0  0  0  0  0
    5.8831   -4.2411   -1.9838 C   0  0  0  0  0  0  0  0  0  0  0  0
    6.6907   -4.6463   -3.0587 C   0  0  0  0  0  0  0  0  0  0  0  0
    6.4036   -5.7595   -3.8749 N   0  0  0  0  0  0  0  0  0  0  0  0
    5.3210   -6.6047   -3.8329 C   0  0  0  0  0  0  0  0  0  0  0  0
    4.3822   -6.4795   -3.0643 O   0  0  0  0  0  0  0  0  0  0  0  0
    5.3466   -7.7314   -4.8394 C   0  0  0  0  0  0  0  0  0  0  0  0
    4.1224   -8.3315   -5.1688 C   0  0  0  0  0  0  0  0  0  0  0  0
    4.0775   -9.3852   -6.0744 C   0  0  0  0  0  0  0  0  0  0  0  0
    5.2350   -9.9047   -6.6867 C   0  0  0  0  0  0  0  0  0  0  0  0
    5.1638  -11.0880   -7.6491 C   0  0  1  0  0  0  0  0  0  0  0  0
    4.2986  -12.2310   -7.0935 C   0  0  0  0  0  0  0  0  0  0  0  0
    4.8902  -10.6581   -9.1522 C   0  0  1  0  0  0  0  0  0  0  0  0
    5.7845   -9.6321   -9.5183 O   0  0  0  0  0  0  0  0  0  0  0  0
    5.1901  -11.8440  -10.0773 C   0  0  0  0  0  0  0  0  0  0  0  0
    6.4920  -11.9964  -10.5795 C   0  0  0  0  0  0  0  0  0  0  0  0
    6.7770  -13.0985  -11.3839 C   0  0  0  0  0  0  0  0  0  0  0  0
    5.8723  -14.0282  -11.7096 N   0  0  0  0  0  0  0  0  0  0  0  0
    4.6532  -13.8749  -11.2375 C   0  0  0  0  0  0  0  0  0  0  0  0
    3.4643  -15.0919  -11.6667 Cl  0  0  0  0  0  0  0  0  0  0  0  0
    4.2419  -12.8135  -10.4185 C   0  0  0  0  0  0  0  0  0  0  0  0
    3.4686  -10.0893   -9.4297 C   0  0  1  0  0  0  0  0  0  0  0  0
    2.4759  -10.8627   -8.9428 F   0  0  0  0  0  0  0  0  0  0  0  0
    3.3323   -8.8753   -8.8618 F   0  0  0  0  0  0  0  0  0  0  0  0
    3.2523   -9.9372  -10.7379 F   0  0  0  0  0  0  0  0  0  0  0  0
    6.4577   -9.3061   -6.3180 C   0  0  0  0  0  0  0  0  0  0  0  0
    7.9938   -9.8937   -6.9392 Cl  0  0  0  0  0  0  0  0  0  0  0  0
    6.5169   -8.2400   -5.4128 C   0  0  0  0  0  0  0  0  0  0  0  0
    7.8588   -3.9154   -3.3457 C   0  0  0  0  0  0  0  0  0  0  0  0
    8.2140   -2.8070   -2.5833 C   0  0  0  0  0  0  0  0  0  0  0  0
   10.0365   -0.7408    3.0806 H   0  0  0  0  0  0  0  0  0  0  0  0
   11.0144   -0.3102    1.6269 H   0  0  0  0  0  0  0  0  0  0  0  0
   10.7307   -2.0273    2.0241 H   0  0  0  0  0  0  0  0  0  0  0  0
    7.8395   -0.2854   -1.3126 H   0  0  0  0  0  0  0  0  0  0  0  0
    7.0147   -0.9859    0.0908 H   0  0  0  0  0  0  0  0  0  0  0  0
    5.6165   -2.8269   -0.3921 H   0  0  0  0  0  0  0  0  0  0  0  0
    4.9757   -4.7946   -1.7558 H   0  0  0  0  0  0  0  0  0  0  0  0
    7.0617   -5.9092   -4.6296 H   0  0  0  0  0  0  0  0  0  0  0  0
    3.2140   -7.9551   -4.6963 H   0  0  0  0  0  0  0  0  0  0  0  0
    3.1092   -9.8240   -6.3191 H   0  0  0  0  0  0  0  0  0  0  0  0
    6.1882  -11.4769   -7.7233 H   0  0  0  0  0  0  0  0  0  0  0  0
    3.2420  -11.9598   -6.9743 H   0  0  0  0  0  0  0  0  0  0  0  0
    4.6853  -12.5264   -6.1066 H   0  0  0  0  0  0  0  0  0  0  0  0
    4.3468  -13.1147   -7.7451 H   0  0  0  0  0  0  0  0  0  0  0  0
    5.6970   -8.9067   -8.8835 H   0  0  0  0  0  0  0  0  0  0  0  0
    7.2587  -11.2577  -10.3497 H   0  0  0  0  0  0  0  0  0  0  0  0
    7.7851  -13.2387  -11.7897 H   0  0  0  0  0  0  0  0  0  0  0  0
    3.2084  -12.7662  -10.0814 H   0  0  0  0  0  0  0  0  0  0  0  0
    7.5016   -7.8536   -5.1442 H   0  0  0  0  0  0  0  0  0  0  0  0
    8.4989   -4.2224   -4.1789 H   0  0  0  0  0  0  0  0  0  0  0  0
    9.1332   -2.2656   -2.8130 H   0  0  0  0  0  0  0  0  0  0  0  0
  1  2  1  0
  1 37  1  0
  1 38  1  0
  1 39  1  0
  2  3  1  0
  3  4  2  0
  3  5  1  0
  5  6  1  0
  5 40  1  0
  5 41  1  0
  6  7  2  0
  6 36  1  0
  7  8  1  0
  7 42  1  0
  8  9  2  0
  8 43  1  0
  9 10  1  0
  9 35  1  0
 10 11  1  0
 10 44  1  0
 11 12  2  0
 11 13  1  0
 13 14  2  0
 13 34  1  0
 14 15  1  0
 14 45  1  0
 15 16  2  0
 15 46  1  0
 16 17  1  0
 16 32  1  0
 17 18  1  0
 17 19  1  0
 17 47  1  6
 18 48  1  0
 18 49  1  0
 18 50  1  0
 19 20  1  6
 19 21  1  0
 19 28  1  0
 20 51  1  0
 21 22  2  0
 21 27  1  0
 22 23  1  0
 22 52  1  0
 23 24  2  0
 23 53  1  0
 24 25  1  0
 25 26  1  0
 25 27  2  0
 27 54  1  0
 28 29  1  1
 28 30  1  0
 28 31  1  0
 32 33  1  0
 32 34  2  0
 34 55  1  0
 35 36  2  0
 35 56  1  0
 36 57  1  0
M  END

