
     RDKit          3D

 53 55  0  0  0  0  0  0  0  0999 V2000
   14.3004    3.1316   -1.0760 C   0  0  0  0  0  0  0  0  0  0  0  0
   13.2660    2.2006   -1.6606 C   0  0  0  0  0  0  0  0  0  0  0  0
   13.5880    1.2920   -2.6770 C   0  0  0  0  0  0  0  0  0  0  0  0
   12.6220    0.4287   -3.2067 C   0  0  0  0  0  0  0  0  0  0  0  0
   11.3042    0.4490   -2.7372 C   0  0  0  0  0  0  0  0  0  0  0  0
   10.2535   -0.4946   -3.2906 C   0  0  0  0  0  0  0  0  0  0  0  0
    9.8674   -1.5526   -2.3623 N   0  0  0  0  0  0  0  0  0  0  0  0
    8.7455   -1.4800   -1.5991 C   0  0  0  0  0  0  0  0  0  0  0  0
    7.9577   -0.5454   -1.6736 O   0  0  0  0  0  0  0  0  0  0  0  0
    8.5004   -2.6090   -0.5656 C   0  0  2  0  0  0  0  0  0  0  0  0
    7.0550   -2.8300   -0.5810 N   0  0  0  0  0  0  0  0  0  0  0  0
    9.0510   -2.1003    0.7989 C   0  0  0  0  0  0  0  0  0  0  0  0
    8.9006   -3.1515    1.8973 C   0  0  0  0  0  0  0  0  0  0  0  0
    9.4724   -4.4472    1.5222 N   0  0  0  0  0  0  0  0  0  0  0  0
   10.2667   -5.1317    2.4074 C   0  0  0  0  0  0  0  0  0  0  0  0
   10.9271   -4.3738    3.3090 N   0  0  0  0  0  0  0  0  0  0  0  0
   11.8172   -4.9763    4.0793 C   0  0  0  0  0  0  0  0  0  0  0  0
   12.1666   -6.2572    4.0660 N   0  0  0  0  0  0  0  0  0  0  0  0
   11.4672   -7.0553    3.2384 C   0  0  0  0  0  0  0  0  0  0  0  0
   11.8031   -8.3780    3.2957 N   0  0  0  0  0  0  0  0  0  0  0  0
   10.4436   -6.5485    2.3845 C   0  0  0  0  0  0  0  0  0  0  0  0
    9.4351   -7.4598    1.7582 C   0  0  0  0  0  0  0  0  0  0  0  0
    9.9406   -8.5949    1.1426 N   0  0  0  0  0  0  0  0  0  0  0  0
    8.2330   -7.2701    1.8269 O   0  0  0  0  0  0  0  0  0  0  0  0
    9.0274   -4.9743    0.2388 C   0  0  0  0  0  0  0  0  0  0  0  0
    9.2186   -3.9367   -0.8771 C   0  0  0  0  0  0  0  0  0  0  0  0
   10.9738    1.3628   -1.7205 C   0  0  0  0  0  0  0  0  0  0  0  0
   11.9386    2.2193   -1.1940 C   0  0  0  0  0  0  0  0  0  0  0  0
   15.2640    3.0478   -1.5999 H   0  0  0  0  0  0  0  0  0  0  0  0
   14.4787    2.9120   -0.0095 H   0  0  0  0  0  0  0  0  0  0  0  0
   13.9735    4.1830   -1.1355 H   0  0  0  0  0  0  0  0  0  0  0  0
   14.6104    1.2576   -3.0644 H   0  0  0  0  0  0  0  0  0  0  0  0
   12.9026   -0.2675   -4.0035 H   0  0  0  0  0  0  0  0  0  0  0  0
   10.6185   -0.9592   -4.2205 H   0  0  0  0  0  0  0  0  0  0  0  0
    9.3318    0.0562   -3.5248 H   0  0  0  0  0  0  0  0  0  0  0  0
   10.5192   -2.3100   -2.2069 H   0  0  0  0  0  0  0  0  0  0  0  0
    6.6008   -1.9220   -0.6925 H   0  0  0  0  0  0  0  0  0  0  0  0
    6.7270   -3.2344    0.2935 H   0  0  0  0  0  0  0  0  0  0  0  0
    8.5090   -1.1853    1.0857 H   0  0  0  0  0  0  0  0  0  0  0  0
   10.1170   -1.8347    0.6938 H   0  0  0  0  0  0  0  0  0  0  0  0
    7.8266   -3.2994    2.1301 H   0  0  0  0  0  0  0  0  0  0  0  0
    9.3958   -2.8208    2.8160 H   0  0  0  0  0  0  0  0  0  0  0  0
   12.3371   -4.3410    4.8091 H   0  0  0  0  0  0  0  0  0  0  0  0
   12.3872   -8.6349    4.0829 H   0  0  0  0  0  0  0  0  0  0  0  0
   11.1713   -9.0709    2.9134 H   0  0  0  0  0  0  0  0  0  0  0  0
   10.8828   -8.5795    0.7660 H   0  0  0  0  0  0  0  0  0  0  0  0
    9.2576   -9.1577    0.6439 H   0  0  0  0  0  0  0  0  0  0  0  0
    7.9767   -5.3097    0.2888 H   0  0  0  0  0  0  0  0  0  0  0  0
    9.6264   -5.8590   -0.0097 H   0  0  0  0  0  0  0  0  0  0  0  0
    8.8322   -4.3508   -1.8211 H   0  0  0  0  0  0  0  0  0  0  0  0
   10.3055   -3.7731   -0.9815 H   0  0  0  0  0  0  0  0  0  0  0  0
    9.9457    1.3988   -1.3500 H   0  0  0  0  0  0  0  0  0  0  0  0
   11.6570    2.9250   -0.4065 H   0  0  0  0  0  0  0  0  0  0  0  0
  1  2  1  0
  1 29  1  0
  1 30  1  0
  1 31  1  0
  2  3  2  0
  2 28  1  0
  3  4  1  0
  3 32  1  0
  4  5  2  0
  4 33  1  0
  5  6  1  0
  5 27  1  0
  6  7  1  0
  6 34  1  0
  6 35  1  0
  7  8  1  0
  7 36  1  0
  8  9  2  0
 10  8  1  6
 10 11  1  0
 10 12  1  0
 10 26  1  0
 11 37  1  0
 11 38  1  0
 12 13  1  0
 12 39  1  0
 12 40  1  0
 13 14  1  0
 13 41  1  0
 13 42  1  0
 14 15  1  0
 14 25  1  0
 15 16  2  0
 15 21  1  0
 16 17  1  0
 17 18  2  0
 17 43  1  0
 18 19  1  0
 19 20  1  0
 19 21  2  0
 20 44  1  0
 20 45  1  0
 21 22  1  0
 22 23  1  0
 22 24  2  0
 23 46  1  0
 23 47  1  0
 25 26  1  0
 25 48  1  0
 25 49  1  0
 26 50  1  0
 26 51  1  0
 27 28  2  0
 27 52  1  0
 28 53  1  0
M  END

