
     RDKit          3D

 51 53  0  0  0  0  0  0  0  0999 V2000
    0.5903   -0.0203    0.4755 C   0  0  0  0  0  0  0  0  0  0  0  0
    1.9667   -0.6707    0.6219 C   0  0  0  0  0  0  0  0  0  0  0  0
    2.7794   -0.6316   -0.6865 C   0  0  0  0  0  0  0  0  0  0  0  0
    4.1945   -1.1772   -0.5647 C   0  0  0  0  0  0  0  0  0  0  0  0
    5.3128   -0.3715   -0.9024 C   0  0  0  0  0  0  0  0  0  0  0  0
    5.2336    0.7393   -1.7160 N   0  0  0  0  0  0  0  0  0  0  0  0
    4.4160    0.8408   -2.9117 C   0  0  0  0  0  0  0  0  0  0  0  0
    6.5485   -0.6036   -0.4114 N   0  0  0  0  0  0  0  0  0  0  0  0
    6.6837   -1.6706    0.3605 C   0  0  0  0  0  0  0  0  0  0  0  0
    5.7704   -2.6045    0.5881 N   0  0  0  0  0  0  0  0  0  0  0  0
    4.5339   -2.3972    0.0923 C   0  0  0  0  0  0  0  0  0  0  0  0
    3.6176   -3.4134    0.3091 N   0  0  0  0  0  0  0  0  0  0  0  0
    2.6353   -3.8167   -0.6923 C   0  0  0  0  0  0  0  0  0  0  0  0
    3.0394   -5.1619   -1.3320 C   0  0  0  0  0  0  0  0  0  0  0  0
    3.3049   -6.2241   -0.3731 N   0  0  0  0  0  0  0  0  0  0  0  0
    2.1342   -6.9056    0.1628 C   0  0  0  0  0  0  0  0  0  0  0  0
    2.4419   -8.2930    0.7042 C   0  0  0  0  0  0  0  0  0  0  0  0
    1.7968   -8.7717    1.8531 C   0  0  0  0  0  0  0  0  0  0  0  0
    2.0341  -10.0680    2.3221 C   0  0  0  0  0  0  0  0  0  0  0  0
    2.9295  -10.9028    1.6486 C   0  0  0  0  0  0  0  0  0  0  0  0
    3.5850  -10.4317    0.5054 C   0  0  0  0  0  0  0  0  0  0  0  0
    3.3428   -9.1383    0.0376 C   0  0  0  0  0  0  0  0  0  0  0  0
    4.2830   -5.7829    0.6241 C   0  0  0  0  0  0  0  0  0  0  0  0
    3.8904   -4.4599    1.2972 C   0  0  0  0  0  0  0  0  0  0  0  0
    0.0300   -0.0469    1.4238 H   0  0  0  0  0  0  0  0  0  0  0  0
   -0.0209   -0.5363   -0.2845 H   0  0  0  0  0  0  0  0  0  0  0  0
    0.6721    1.0362    0.1682 H   0  0  0  0  0  0  0  0  0  0  0  0
    1.8524   -1.7083    0.9709 H   0  0  0  0  0  0  0  0  0  0  0  0
    2.5436   -0.1519    1.4071 H   0  0  0  0  0  0  0  0  0  0  0  0
    2.8531    0.4237   -0.9833 H   0  0  0  0  0  0  0  0  0  0  0  0
    2.1893   -1.1141   -1.4876 H   0  0  0  0  0  0  0  0  0  0  0  0
    6.1376    1.1978   -1.7645 H   0  0  0  0  0  0  0  0  0  0  0  0
    4.0897   -0.1542   -3.2561 H   0  0  0  0  0  0  0  0  0  0  0  0
    5.0081    1.2941   -3.7221 H   0  0  0  0  0  0  0  0  0  0  0  0
    3.5134    1.4625   -2.7763 H   0  0  0  0  0  0  0  0  0  0  0  0
    7.6644   -1.8169    0.8329 H   0  0  0  0  0  0  0  0  0  0  0  0
    2.5645   -3.0570   -1.4781 H   0  0  0  0  0  0  0  0  0  0  0  0
    1.6360   -3.9017   -0.2237 H   0  0  0  0  0  0  0  0  0  0  0  0
    3.9587   -4.9934   -1.9227 H   0  0  0  0  0  0  0  0  0  0  0  0
    2.2544   -5.4892   -2.0340 H   0  0  0  0  0  0  0  0  0  0  0  0
    1.4126   -7.0098   -0.6674 H   0  0  0  0  0  0  0  0  0  0  0  0
    1.5980   -6.3338    0.9517 H   0  0  0  0  0  0  0  0  0  0  0  0
    1.0996   -8.1208    2.3898 H   0  0  0  0  0  0  0  0  0  0  0  0
    1.5225  -10.4233    3.2206 H   0  0  0  0  0  0  0  0  0  0  0  0
    3.1205  -11.9147    2.0151 H   0  0  0  0  0  0  0  0  0  0  0  0
    4.2905  -11.0774   -0.0247 H   0  0  0  0  0  0  0  0  0  0  0  0
    3.8591   -8.7590   -0.8472 H   0  0  0  0  0  0  0  0  0  0  0  0
    5.2563   -5.6408    0.1239 H   0  0  0  0  0  0  0  0  0  0  0  0
    4.4130   -6.5738    1.3790 H   0  0  0  0  0  0  0  0  0  0  0  0
    4.6948   -4.1163    1.9566 H   0  0  0  0  0  0  0  0  0  0  0  0
    2.9758   -4.6006    1.9041 H   0  0  0  0  0  0  0  0  0  0  0  0
  1  2  1  0
  1 25  1  0
  1 26  1  0
  1 27  1  0
  2  3  1  0
  2 28  1  0
  2 29  1  0
  3  4  1  0
  3 30  1  0
  3 31  1  0
  4  5  2  0
  4 11  1  0
  5  6  1  0
  5  8  1  0
  6  7  1  0
  6 32  1  0
  7 33  1  0
  7 34  1  0
  7 35  1  0
  8  9  2  0
  9 10  1  0
  9 36  1  0
 10 11  2  0
 11 12  1  0
 12 13  1  0
 12 24  1  0
 13 14  1  0
 13 37  1  0
 13 38  1  0
 14 15  1  0
 14 39  1  0
 14 40  1  0
 15 16  1  0
 15 23  1  0
 16 17  1  0
 16 41  1  0
 16 42  1  0
 17 18  2  0
 17 22  1  0
 18 19  1  0
 18 43  1  0
 19 20  2  0
 19 44  1  0
 20 21  1  0
 20 45  1  0
 21 22  2  0
 21 46  1  0
 22 47  1  0
 23 24  1  0
 23 48  1  0
 23 49  1  0
 24 50  1  0
 24 51  1  0
M  END

