
     RDKit          3D

 59 65  0  0  0  0  0  0  0  0999 V2000
   -1.3175   -0.1345    0.2947 C   0  0  0  0  0  0  0  0  0  0  0  0
   -0.7043    1.1231    0.2851 C   0  0  0  0  0  0  0  0  0  0  0  0
    0.6716    1.2301    0.0820 C   0  0  0  0  0  0  0  0  0  0  0  0
    1.4528    0.0776   -0.1147 C   0  0  0  0  0  0  0  0  0  0  0  0
    2.9185    0.1902   -0.3316 C   0  0  0  0  0  0  0  0  0  0  0  0
    3.4660    1.4124   -0.3317 N   0  0  0  0  0  0  0  0  0  0  0  0
    4.7889    1.4732   -0.5312 C   0  0  0  0  0  0  0  0  0  0  0  0
    5.4372    2.8102   -0.5380 C   0  0  0  0  0  0  0  0  0  0  0  0
    4.6726    3.9732   -0.3383 C   0  0  0  0  0  0  0  0  0  0  0  0
    5.2823    5.2278   -0.3450 C   0  0  0  0  0  0  0  0  0  0  0  0
    6.6619    5.3374   -0.5510 C   0  0  0  0  0  0  0  0  0  0  0  0
    7.4300    4.1851   -0.7506 C   0  0  0  0  0  0  0  0  0  0  0  0
    6.8230    2.9291   -0.7444 C   0  0  0  0  0  0  0  0  0  0  0  0
    5.5598    0.3948   -0.7245 N   0  0  0  0  0  0  0  0  0  0  0  0
    4.9367   -0.7902   -0.7088 C   0  0  0  0  0  0  0  0  0  0  0  0
    5.7528   -2.0126   -0.9190 C   0  0  0  0  0  0  0  0  0  0  0  0
    7.1426   -1.9225   -1.1092 C   0  0  0  0  0  0  0  0  0  0  0  0
    7.9112   -3.0677   -1.2996 C   0  0  0  0  0  0  0  0  0  0  0  0
    7.3027   -4.3340   -1.3187 C   0  0  0  0  0  0  0  0  0  0  0  0
    8.0812   -5.4997   -1.5199 N   0  0  0  0  0  0  0  0  0  0  0  0
    8.0963   -6.6288   -0.6907 C   0  0  0  0  0  0  0  0  0  0  0  0
    7.4169   -6.8637    0.5118 C   0  0  0  0  0  0  0  0  0  0  0  0
    7.6363   -8.0811    1.1580 C   0  0  0  0  0  0  0  0  0  0  0  0
    8.5146   -9.0453    0.6294 C   0  0  0  0  0  0  0  0  0  0  0  0
    9.2011   -8.8013   -0.5591 C   0  0  0  0  0  0  0  0  0  0  0  0
    8.9987   -7.5857   -1.2284 C   0  0  0  0  0  0  0  0  0  0  0  0
    9.5498   -7.0085   -2.4390 C   0  0  0  0  0  0  0  0  0  0  0  0
   10.4608   -7.4692   -3.4005 C   0  0  0  0  0  0  0  0  0  0  0  0
   10.7690   -6.6554   -4.4896 C   0  0  0  0  0  0  0  0  0  0  0  0
   10.1675   -5.3909   -4.6295 C   0  0  0  0  0  0  0  0  0  0  0  0
    9.2582   -4.9087   -3.6868 C   0  0  0  0  0  0  0  0  0  0  0  0
    8.9631   -5.7227   -2.5855 C   0  0  0  0  0  0  0  0  0  0  0  0
    5.9129   -4.4300   -1.1361 C   0  0  0  0  0  0  0  0  0  0  0  0
    5.1509   -3.2828   -0.9319 C   0  0  0  0  0  0  0  0  0  0  0  0
    3.6198   -0.9363   -0.5157 N   0  0  0  0  0  0  0  0  0  0  0  0
    0.8288   -1.1825   -0.1035 C   0  0  0  0  0  0  0  0  0  0  0  0
   -0.5473   -1.2863    0.1000 C   0  0  0  0  0  0  0  0  0  0  0  0
   -2.3958   -0.2171    0.4540 H   0  0  0  0  0  0  0  0  0  0  0  0
   -1.3028    2.0249    0.4370 H   0  0  0  0  0  0  0  0  0  0  0  0
    1.1616    2.2039    0.0723 H   0  0  0  0  0  0  0  0  0  0  0  0
    3.5986    3.8740   -0.1789 H   0  0  0  0  0  0  0  0  0  0  0  0
    4.6793    6.1258   -0.1888 H   0  0  0  0  0  0  0  0  0  0  0  0
    7.1386    6.3212   -0.5560 H   0  0  0  0  0  0  0  0  0  0  0  0
    8.5078    4.2670   -0.9118 H   0  0  0  0  0  0  0  0  0  0  0  0
    7.4103    2.0237   -0.8988 H   0  0  0  0  0  0  0  0  0  0  0  0
    7.6125   -0.9390   -1.0900 H   0  0  0  0  0  0  0  0  0  0  0  0
    8.9932   -2.9899   -1.4197 H   0  0  0  0  0  0  0  0  0  0  0  0
    6.7421   -6.1203    0.9382 H   0  0  0  0  0  0  0  0  0  0  0  0
    7.1152   -8.2855    2.0968 H   0  0  0  0  0  0  0  0  0  0  0  0
    8.6628   -9.9888    1.1599 H   0  0  0  0  0  0  0  0  0  0  0  0
    9.8922   -9.5454   -0.9631 H   0  0  0  0  0  0  0  0  0  0  0  0
   10.9191   -8.4562   -3.2984 H   0  0  0  0  0  0  0  0  0  0  0  0
   11.4779   -7.0024   -5.2451 H   0  0  0  0  0  0  0  0  0  0  0  0
   10.4130   -4.7714   -5.4958 H   0  0  0  0  0  0  0  0  0  0  0  0
    8.7904   -3.9314   -3.8132 H   0  0  0  0  0  0  0  0  0  0  0  0
    5.4330   -5.4097   -1.1709 H   0  0  0  0  0  0  0  0  0  0  0  0
    4.0718   -3.3540   -0.7939 H   0  0  0  0  0  0  0  0  0  0  0  0
    1.4400   -2.0723   -0.2562 H   0  0  0  0  0  0  0  0  0  0  0  0
   -1.0229   -2.2702    0.1069 H   0  0  0  0  0  0  0  0  0  0  0  0
  1  2  2  0
  1 37  1  0
  1 38  1  0
  2  3  1  0
  2 39  1  0
  3  4  2  0
  3 40  1  0
  4  5  1  0
  4 36  1  0
  5  6  2  0
  5 35  1  0
  6  7  1  0
  7  8  1  0
  7 14  2  0
  8  9  2  0
  8 13  1  0
  9 10  1  0
  9 41  1  0
 10 11  2  0
 10 42  1  0
 11 12  1  0
 11 43  1  0
 12 13  2  0
 12 44  1  0
 13 45  1  0
 14 15  1  0
 15 16  1  0
 15 35  2  0
 16 17  2  0
 16 34  1  0
 17 18  1  0
 17 46  1  0
 18 19  2  0
 18 47  1  0
 19 20  1  0
 19 33  1  0
 20 21  1  0
 20 32  1  0
 21 22  2  0
 21 26  1  0
 22 23  1  0
 22 48  1  0
 23 24  2  0
 23 49  1  0
 24 25  1  0
 24 50  1  0
 25 26  2  0
 25 51  1  0
 26 27  1  0
 27 28  1  0
 27 32  2  0
 28 29  2  0
 28 52  1  0
 29 30  1  0
 29 53  1  0
 30 31  2  0
 30 54  1  0
 31 32  1  0
 31 55  1  0
 33 34  2  0
 33 56  1  0
 34 57  1  0
 36 37  2  0
 36 58  1  0
 37 59  1  0
M  END

