
     RDKit          3D

 45 46  0  0  0  0  0  0  0  0999 V2000
    5.6988   -1.6696   -2.9035 C   0  0  0  0  0  0  0  0  0  0  0  0
    4.7178   -0.5298   -2.5938 C   0  0  1  0  0  0  0  0  0  0  0  0
    3.3458   -0.7178   -3.2865 C   0  0  0  0  0  0  0  0  0  0  0  0
    2.5007   -1.8097   -2.6148 C   0  0  0  0  0  0  0  0  0  0  0  0
    2.3878   -1.5497   -1.1071 C   0  0  0  0  0  0  0  0  0  0  0  0
    3.7820   -1.3553   -0.4850 C   0  0  0  0  0  0  0  0  0  0  0  0
    4.5849   -0.3206   -1.1404 N   0  0  0  0  0  0  0  0  0  0  0  0
    4.2683    1.0424   -0.7199 C   0  0  0  0  0  0  0  0  0  0  0  0
    4.8970    1.4312    0.6252 C   0  0  0  0  0  0  0  0  0  0  0  0
    6.4237    1.4174    0.6202 C   0  0  0  0  0  0  0  0  0  0  0  0
    6.9637    1.8126    1.9149 N   0  0  0  0  0  0  0  0  0  0  0  0
    8.4120    1.8165    1.9890 C   0  0  0  0  0  0  0  0  0  0  0  0
    8.9313    2.3414    3.3128 C   0  0  0  0  0  0  0  0  0  0  0  0
   10.1536    1.8863    3.8321 C   0  0  0  0  0  0  0  0  0  0  0  0
   10.6616    2.3926    5.0266 C   0  0  0  0  0  0  0  0  0  0  0  0
    9.9417    3.3715    5.7368 C   0  0  0  0  0  0  0  0  0  0  0  0
   10.4549    3.8943    6.9723 C   0  0  0  0  0  0  0  0  0  0  0  0
   10.8698    4.3176    7.9712 N   0  0  0  0  0  0  0  0  0  0  0  0
    8.7117    3.8284    5.2267 C   0  0  0  0  0  0  0  0  0  0  0  0
    8.2183    3.3166    4.0287 C   0  0  0  0  0  0  0  0  0  0  0  0
    5.8738   -1.7424   -3.9889 H   0  0  0  0  0  0  0  0  0  0  0  0
    5.3328   -2.6514   -2.5656 H   0  0  0  0  0  0  0  0  0  0  0  0
    6.6630   -1.4839   -2.4067 H   0  0  0  0  0  0  0  0  0  0  0  0
    5.1720    0.3910   -2.9956 H   0  0  0  0  0  0  0  0  0  0  0  0
    3.4912   -0.9394   -4.3576 H   0  0  0  0  0  0  0  0  0  0  0  0
    2.7951    0.2389   -3.2399 H   0  0  0  0  0  0  0  0  0  0  0  0
    2.9612   -2.8000   -2.7825 H   0  0  0  0  0  0  0  0  0  0  0  0
    1.5008   -1.8568   -3.0779 H   0  0  0  0  0  0  0  0  0  0  0  0
    1.8672   -2.3810   -0.6015 H   0  0  0  0  0  0  0  0  0  0  0  0
    1.7731   -0.6479   -0.9347 H   0  0  0  0  0  0  0  0  0  0  0  0
    4.3307   -2.3130   -0.5291 H   0  0  0  0  0  0  0  0  0  0  0  0
    3.6949   -1.1112    0.5853 H   0  0  0  0  0  0  0  0  0  0  0  0
    3.1750    1.2354   -0.6635 H   0  0  0  0  0  0  0  0  0  0  0  0
    4.6516    1.7302   -1.4922 H   0  0  0  0  0  0  0  0  0  0  0  0
    4.5294    0.7531    1.4176 H   0  0  0  0  0  0  0  0  0  0  0  0
    4.5467    2.4391    0.9058 H   0  0  0  0  0  0  0  0  0  0  0  0
    6.7924    2.1362   -0.1355 H   0  0  0  0  0  0  0  0  0  0  0  0
    6.7741    0.4172    0.2885 H   0  0  0  0  0  0  0  0  0  0  0  0
    6.5847    1.2110    2.6473 H   0  0  0  0  0  0  0  0  0  0  0  0
    8.7865    2.4759    1.1819 H   0  0  0  0  0  0  0  0  0  0  0  0
    8.8729    0.8225    1.7891 H   0  0  0  0  0  0  0  0  0  0  0  0
   10.7165    1.1191    3.2930 H   0  0  0  0  0  0  0  0  0  0  0  0
   11.6129    2.0301    5.4209 H   0  0  0  0  0  0  0  0  0  0  0  0
    8.1494    4.5862    5.7762 H   0  0  0  0  0  0  0  0  0  0  0  0
    7.2627    3.6605    3.6288 H   0  0  0  0  0  0  0  0  0  0  0  0
  1  2  1  0
  1 21  1  0
  1 22  1  0
  1 23  1  0
  2  3  1  0
  2  7  1  0
  2 24  1  6
  3  4  1  0
  3 25  1  0
  3 26  1  0
  4  5  1  0
  4 27  1  0
  4 28  1  0
  5  6  1  0
  5 29  1  0
  5 30  1  0
  6  7  1  0
  6 31  1  0
  6 32  1  0
  7  8  1  0
  8  9  1  0
  8 33  1  0
  8 34  1  0
  9 10  1  0
  9 35  1  0
  9 36  1  0
 10 11  1  0
 10 37  1  0
 10 38  1  0
 11 12  1  0
 11 39  1  0
 12 13  1  0
 12 40  1  0
 12 41  1  0
 13 14  2  0
 13 20  1  0
 14 15  1  0
 14 42  1  0
 15 16  2  0
 15 43  1  0
 16 17  1  0
 16 19  1  0
 17 18  3  0
 19 20  2  0
 19 44  1  0
 20 45  1  0
M  END

