
     RDKit          3D

 25 26  0  0  0  0  0  0  0  0999 V2000
    1.0538    0.5805   -1.5470 C   0  0  0  0  0  0  0  0  0  0  0  0
    2.4798    0.5285   -1.5479 O   0  0  0  0  0  0  0  0  0  0  0  0
    3.0351   -0.5840   -1.0319 C   0  0  0  0  0  0  0  0  0  0  0  0
    2.3882   -1.5033   -0.5869 O   0  0  0  0  0  0  0  0  0  0  0  0
    4.5266   -0.5455   -1.0753 C   0  0  0  0  0  0  0  0  0  0  0  0
    5.2421   -1.6465   -0.5738 C   0  0  0  0  0  0  0  0  0  0  0  0
    6.5732   -1.7122   -0.5653 N   0  0  0  0  0  0  0  0  0  0  0  0
    7.2549   -0.6767   -1.0590 C   0  0  0  0  0  0  0  0  0  0  0  0
    6.6477    0.4781   -1.5873 C   0  0  0  0  0  0  0  0  0  0  0  0
    7.4629    1.5987   -2.1225 C   0  0  0  0  0  0  0  0  0  0  0  0
    8.7985    1.4714   -2.0848 N   0  0  0  0  0  0  0  0  0  0  0  0
    9.5224    2.4792   -2.5656 C   0  0  0  0  0  0  0  0  0  0  0  0
    8.9365    3.6324   -3.0929 C   0  0  0  0  0  0  0  0  0  0  0  0
    7.5402    3.6672   -3.0866 C   0  0  0  0  0  0  0  0  0  0  0  0
    6.8071    2.6648   -2.6080 N   0  0  0  0  0  0  0  0  0  0  0  0
    5.2481    0.5350   -1.5910 C   0  0  0  0  0  0  0  0  0  0  0  0
    0.7827    1.5455   -1.9925 H   0  0  0  0  0  0  0  0  0  0  0  0
    0.6603    0.5083   -0.5217 H   0  0  0  0  0  0  0  0  0  0  0  0
    0.6319   -0.2460   -2.1389 H   0  0  0  0  0  0  0  0  0  0  0  0
    4.6887   -2.4993   -0.1670 H   0  0  0  0  0  0  0  0  0  0  0  0
    8.3468   -0.7426   -1.0461 H   0  0  0  0  0  0  0  0  0  0  0  0
   10.6126    2.3652   -2.5301 H   0  0  0  0  0  0  0  0  0  0  0  0
    9.5339    4.4568   -3.4861 H   0  0  0  0  0  0  0  0  0  0  0  0
    6.9952    4.5335   -3.4809 H   0  0  0  0  0  0  0  0  0  0  0  0
    4.7419    1.4127   -1.9919 H   0  0  0  0  0  0  0  0  0  0  0  0
  1  2  1  0
  1 17  1  0
  1 18  1  0
  1 19  1  0
  2  3  1  0
  3  4  2  0
  3  5  1  0
  5  6  2  0
  5 16  1  0
  6  7  1  0
  6 20  1  0
  7  8  2  0
  8  9  1  0
  8 21  1  0
  9 10  1  0
  9 16  2  0
 10 11  2  0
 10 15  1  0
 11 12  1  0
 12 13  2  0
 12 22  1  0
 13 14  1  0
 13 23  1  0
 14 15  2  0
 14 24  1  0
 16 25  1  0
M  END

