
     RDKit          3D

 48 48  0  0  0  0  0  0  0  0999 V2000
    9.5645   -4.1508   -1.3171 C   0  0  0  0  0  0  0  0  0  0  0  0
    8.5659   -4.3799   -0.4589 C   0  0  0  0  0  0  0  0  0  0  0  0
    7.0877   -4.0779   -0.6348 C   0  0  1  0  0  0  0  0  0  0  0  0
    6.7798   -3.4065   -1.9827 C   0  0  0  0  0  0  0  0  0  0  0  0
    6.3242   -5.4211   -0.5588 C   0  0  0  0  0  0  0  0  0  0  0  0
    6.6091   -3.1964    0.5553 C   0  0  0  0  0  0  0  0  0  0  0  0
    7.2216   -1.7944    0.6419 C   0  0  0  0  0  0  0  0  0  0  0  0
    6.8450   -1.0188    1.9294 C   0  0  2  0  0  0  0  0  0  0  0  0
    5.7637   -1.1222    2.1050 H   0  0  0  0  0  0  0  0  0  0  0  0
    7.1886    0.4686    1.7953 C   0  0  0  0  0  0  0  0  0  0  0  0
    6.7760    1.2739    3.0271 C   0  0  0  0  0  0  0  0  0  0  0  0
    6.2533    0.7265    3.9880 O   0  0  0  0  0  0  0  0  0  0  0  0
    7.0139    2.6279    3.0100 N   0  0  0  0  0  0  0  0  0  0  0  0
    6.5837    3.4497    4.1392 C   0  0  0  0  0  0  0  0  0  0  0  0
    7.7163    4.3776    4.5691 C   0  0  0  0  0  0  0  0  0  0  0  0
    8.1952    5.1457    3.4797 O   0  0  0  0  0  0  0  0  0  0  0  0
    8.6738    4.3302    2.4341 C   0  0  0  0  0  0  0  0  0  0  0  0
    7.5838    3.3917    1.9074 C   0  0  0  0  0  0  0  0  0  0  0  0
    7.4981   -1.6735    3.1390 C   0  0  0  0  0  0  0  0  0  0  0  0
    7.0531   -2.6236    3.7341 O   0  0  0  0  0  0  0  0  0  0  0  0
    8.6993   -1.1265    3.4264 O   0  0  0  0  0  0  0  0  0  0  0  0
    9.3875   -1.6773    4.5476 C   0  0  0  0  0  0  0  0  0  0  0  0
   10.5925   -4.4329   -1.0722 H   0  0  0  0  0  0  0  0  0  0  0  0
    9.4077   -3.6818   -2.2924 H   0  0  0  0  0  0  0  0  0  0  0  0
    8.8085   -4.8582    0.5002 H   0  0  0  0  0  0  0  0  0  0  0  0
    7.0364   -4.0691   -2.8244 H   0  0  0  0  0  0  0  0  0  0  0  0
    7.3364   -2.4668   -2.1193 H   0  0  0  0  0  0  0  0  0  0  0  0
    5.7049   -3.1747   -2.0580 H   0  0  0  0  0  0  0  0  0  0  0  0
    6.6333   -6.0977   -1.3712 H   0  0  0  0  0  0  0  0  0  0  0  0
    5.2373   -5.2567   -0.6428 H   0  0  0  0  0  0  0  0  0  0  0  0
    6.5114   -5.9330    0.3989 H   0  0  0  0  0  0  0  0  0  0  0  0
    6.8083   -3.7390    1.4936 H   0  0  0  0  0  0  0  0  0  0  0  0
    5.5098   -3.1032    0.4959 H   0  0  0  0  0  0  0  0  0  0  0  0
    6.8905   -1.1908   -0.2199 H   0  0  0  0  0  0  0  0  0  0  0  0
    8.3213   -1.8549    0.5664 H   0  0  0  0  0  0  0  0  0  0  0  0
    6.6785    0.8760    0.9055 H   0  0  0  0  0  0  0  0  0  0  0  0
    8.2698    0.5871    1.6203 H   0  0  0  0  0  0  0  0  0  0  0  0
    6.2794    2.7774    4.9514 H   0  0  0  0  0  0  0  0  0  0  0  0
    5.7076    4.0572    3.8418 H   0  0  0  0  0  0  0  0  0  0  0  0
    8.5416    3.7783    5.0063 H   0  0  0  0  0  0  0  0  0  0  0  0
    7.3640    5.0884    5.3317 H   0  0  0  0  0  0  0  0  0  0  0  0
    9.5378    3.7241    2.7796 H   0  0  0  0  0  0  0  0  0  0  0  0
    9.0198    5.0003    1.6321 H   0  0  0  0  0  0  0  0  0  0  0  0
    8.0094    2.7237    1.1491 H   0  0  0  0  0  0  0  0  0  0  0  0
    6.7934    3.9965    1.4209 H   0  0  0  0  0  0  0  0  0  0  0  0
   10.3415   -1.1396    4.6187 H   0  0  0  0  0  0  0  0  0  0  0  0
    9.5652   -2.7547    4.4104 H   0  0  0  0  0  0  0  0  0  0  0  0
    8.8009   -1.5355    5.4680 H   0  0  0  0  0  0  0  0  0  0  0  0
  1  2  2  0
  1 23  1  0
  1 24  1  0
  3  2  1  1
  2 25  1  0
  3  4  1  0
  3  5  1  0
  3  6  1  0
  4 26  1  0
  4 27  1  0
  4 28  1  0
  5 29  1  0
  5 30  1  0
  5 31  1  0
  6  7  1  0
  6 32  1  0
  6 33  1  0
  7  8  1  0
  7 34  1  0
  7 35  1  0
  8  9  1  1
  8 10  1  0
  8 19  1  0
 10 11  1  0
 10 36  1  0
 10 37  1  0
 11 12  2  0
 11 13  1  0
 13 14  1  0
 13 18  1  0
 14 15  1  0
 14 38  1  0
 14 39  1  0
 15 16  1  0
 15 40  1  0
 15 41  1  0
 16 17  1  0
 17 18  1  0
 17 42  1  0
 17 43  1  0
 18 44  1  0
 18 45  1  0
 19 20  2  0
 19 21  1  0
 21 22  1  0
 22 46  1  0
 22 47  1  0
 22 48  1  0
M  END

