
     RDKit          3D

 76 81  0  0  0  0  0  0  0  0999 V2000
    3.6519    3.1308    3.4793 O   0  0  0  0  0  0  0  0  0  0  0  0
    3.0355    2.1032    3.5962 C   0  0  0  0  0  0  0  0  0  0  0  0
    1.6933    2.1030    3.5865 O   0  0  0  0  0  0  0  0  0  0  0  0
    3.7350    0.7722    3.7576 C   0  0  0  0  0  0  0  0  0  0  0  0
    5.1376    0.7818    3.7663 C   0  0  0  0  0  0  0  0  0  0  0  0
    5.9109   -0.3793    3.9116 C   0  0  0  0  0  0  0  0  0  0  0  0
    7.4366   -0.2505    3.9529 C   0  0  1  0  0  0  0  0  0  0  0  0
    8.2190   -1.5578    4.1781 C   0  0  0  0  0  0  0  0  0  0  0  0
    8.3572   -2.4360    2.9263 C   0  0  0  0  0  0  0  0  0  0  0  0
    8.9388   -1.6835    1.8191 N   0  0  0  0  0  0  0  0  0  0  0  0
    9.3155   -2.4427    0.6201 C   0  0  2  0  0  0  0  0  0  0  0  0
    8.4595   -2.4986   -0.0913 H   0  0  0  0  0  0  0  0  0  0  0  0
    9.7879   -3.8768    0.8851 C   0  0  0  0  0  0  0  0  0  0  0  0
   10.2771   -4.5383   -0.4098 C   0  0  0  0  0  0  0  0  0  0  0  0
   11.3360   -3.7030   -1.1513 C   0  0  1  0  0  0  0  0  0  0  0  0
   12.6854   -3.7833   -0.3572 C   0  0  0  0  0  0  0  0  0  0  0  0
   12.8608   -4.7035    0.4298 O   0  0  0  0  0  0  0  0  0  0  0  0
   13.6757   -2.8489   -0.5736 N   0  0  0  0  0  0  0  0  0  0  0  0
   14.9362   -3.0521    0.1365 C   0  0  0  0  0  0  0  0  0  0  0  0
   15.6404   -1.7603    0.4918 C   0  0  0  0  0  0  0  0  0  0  0  0
   16.7646   -1.8114    1.3303 C   0  0  0  0  0  0  0  0  0  0  0  0
   17.4555   -0.6493    1.6696 C   0  0  0  0  0  0  0  0  0  0  0  0
   18.6627   -0.6979    2.5726 C   0  0  1  0  0  0  0  0  0  0  0  0
   18.9489   -1.9462    2.9786 F   0  0  0  0  0  0  0  0  0  0  0  0
   19.7585   -0.2164    1.9544 F   0  0  0  0  0  0  0  0  0  0  0  0
   18.4829    0.0519    3.6766 F   0  0  0  0  0  0  0  0  0  0  0  0
   17.0307    0.5903    1.1688 C   0  0  0  0  0  0  0  0  0  0  0  0
   15.9190    0.6469    0.3355 C   0  0  0  0  0  0  0  0  0  0  0  0
   15.2152   -0.5192   -0.0100 C   0  0  0  0  0  0  0  0  0  0  0  0
   14.0046   -0.4350   -0.9240 C   0  0  1  0  0  0  0  0  0  0  0  0
   13.1247   -0.1550   -0.3194 H   0  0  0  0  0  0  0  0  0  0  0  0
   14.1184    0.5863   -1.8941 O   0  0  0  0  0  0  0  0  0  0  0  0
   13.7099   -1.7933   -1.5776 C   0  0  0  0  0  0  0  0  0  0  0  0
   11.6188   -4.2021   -2.5719 C   0  0  2  0  0  0  0  0  0  0  0  0
   10.5205   -4.5437   -3.5460 C   0  0  0  0  0  0  0  0  0  0  0  0
   11.4133   -5.6311   -3.0093 C   0  0  0  0  0  0  0  0  0  0  0  0
   10.8605   -2.3600   -1.2947 O   0  0  0  0  0  0  0  0  0  0  0  0
   10.4683   -1.7154   -0.0932 C   0  0  0  0  0  0  0  0  0  0  0  0
    8.1133   -0.5175    1.5060 C   0  0  0  0  0  0  0  0  0  0  0  0
    8.0191    0.4368    2.6956 C   0  0  0  0  0  0  0  0  0  0  0  0
    5.2218   -1.5940    4.0674 C   0  0  0  0  0  0  0  0  0  0  0  0
    3.8251   -1.6462    4.0627 C   0  0  0  0  0  0  0  0  0  0  0  0
    3.1069   -0.4710    3.9057 C   0  0  0  0  0  0  0  0  0  0  0  0
    1.7487   -0.5508    3.9029 F   0  0  0  0  0  0  0  0  0  0  0  0
    1.3428    1.2041    3.6907 H   0  0  0  0  0  0  0  0  0  0  0  0
    5.6075    1.7620    3.6613 H   0  0  0  0  0  0  0  0  0  0  0  0
    7.6482    0.4103    4.8121 H   0  0  0  0  0  0  0  0  0  0  0  0
    7.7826   -2.1489    4.9995 H   0  0  0  0  0  0  0  0  0  0  0  0
    9.2365   -1.2835    4.5011 H   0  0  0  0  0  0  0  0  0  0  0  0
    7.3693   -2.8702    2.6467 H   0  0  0  0  0  0  0  0  0  0  0  0
    9.0099   -3.2814    3.1803 H   0  0  0  0  0  0  0  0  0  0  0  0
    8.9767   -4.4909    1.3049 H   0  0  0  0  0  0  0  0  0  0  0  0
   10.6053   -3.8684    1.6250 H   0  0  0  0  0  0  0  0  0  0  0  0
    9.4186   -4.6730   -1.0860 H   0  0  0  0  0  0  0  0  0  0  0  0
   10.6920   -5.5261   -0.1776 H   0  0  0  0  0  0  0  0  0  0  0  0
   15.6153   -3.6795   -0.4768 H   0  0  0  0  0  0  0  0  0  0  0  0
   14.7196   -3.6405    1.0380 H   0  0  0  0  0  0  0  0  0  0  0  0
   17.1024   -2.7725    1.7236 H   0  0  0  0  0  0  0  0  0  0  0  0
   17.5694    1.5030    1.4330 H   0  0  0  0  0  0  0  0  0  0  0  0
   15.5804    1.6028   -0.0694 H   0  0  0  0  0  0  0  0  0  0  0  0
   14.9365    0.4422   -2.3913 H   0  0  0  0  0  0  0  0  0  0  0  0
   14.5095   -2.0114   -2.3155 H   0  0  0  0  0  0  0  0  0  0  0  0
   12.7562   -1.7278   -2.1039 H   0  0  0  0  0  0  0  0  0  0  0  0
   12.4808   -3.7072   -3.0275 H   0  0  0  0  0  0  0  0  0  0  0  0
   10.6484   -4.2168   -4.5815 H   0  0  0  0  0  0  0  0  0  0  0  0
    9.4856   -4.5076   -3.1971 H   0  0  0  0  0  0  0  0  0  0  0  0
   12.1648   -6.0722   -3.6696 H   0  0  0  0  0  0  0  0  0  0  0  0
   10.9825   -6.3377   -2.2964 H   0  0  0  0  0  0  0  0  0  0  0  0
   10.1873   -0.6953   -0.3899 H   0  0  0  0  0  0  0  0  0  0  0  0
   11.3116   -1.6384    0.6207 H   0  0  0  0  0  0  0  0  0  0  0  0
    7.0901   -0.8276    1.1870 H   0  0  0  0  0  0  0  0  0  0  0  0
    8.5491    0.0212    0.6522 H   0  0  0  0  0  0  0  0  0  0  0  0
    7.4255    1.3205    2.4157 H   0  0  0  0  0  0  0  0  0  0  0  0
    9.0348    0.7940    2.9330 H   0  0  0  0  0  0  0  0  0  0  0  0
    5.7684   -2.5277    4.1991 H   0  0  0  0  0  0  0  0  0  0  0  0
    3.2866   -2.5884    4.1801 H   0  0  0  0  0  0  0  0  0  0  0  0
  1  2  2  0
  2  3  1  0
  2  4  1  0
  3 45  1  0
  4  5  2  0
  4 43  1  0
  5  6  1  0
  5 46  1  0
  6  7  1  0
  6 41  2  0
  7  8  1  0
  7 40  1  0
  7 47  1  1
  8  9  1  0
  8 48  1  0
  8 49  1  0
  9 10  1  0
  9 50  1  0
  9 51  1  0
 10 11  1  0
 10 39  1  0
 11 12  1  6
 11 13  1  0
 11 38  1  0
 13 14  1  0
 13 52  1  0
 13 53  1  0
 14 15  1  0
 14 54  1  0
 14 55  1  0
 15 16  1  1
 15 34  1  0
 15 37  1  0
 16 17  2  0
 16 18  1  0
 18 19  1  0
 18 33  1  0
 19 20  1  0
 19 56  1  0
 19 57  1  0
 20 21  2  0
 20 29  1  0
 21 22  1  0
 21 58  1  0
 22 23  1  0
 22 27  2  0
 23 24  1  1
 23 25  1  0
 23 26  1  0
 27 28  1  0
 27 59  1  0
 28 29  2  0
 28 60  1  0
 29 30  1  0
 30 31  1  1
 30 32  1  0
 30 33  1  0
 32 61  1  0
 33 62  1  0
 33 63  1  0
 34 35  1  0
 34 36  1  0
 34 64  1  6
 35 36  1  0
 35 65  1  0
 35 66  1  0
 36 67  1  0
 36 68  1  0
 37 38  1  0
 38 69  1  0
 38 70  1  0
 39 40  1  0
 39 71  1  0
 39 72  1  0
 40 73  1  0
 40 74  1  0
 41 42  1  0
 41 75  1  0
 42 43  2  0
 42 76  1  0
 43 44  1  0
M  END

