
     RDKit          3D

 64 68  0  0  0  0  0  0  0  0999 V2000
    3.2399   -0.8637   -1.1754 O   0  0  0  0  0  0  0  0  0  0  0  0
    2.6426   -0.0429   -0.5443 C   0  0  0  0  0  0  0  0  0  0  0  0
    1.3501   -0.1185   -0.1548 O   0  0  0  0  0  0  0  0  0  0  0  0
    0.5572   -1.1772   -0.6176 C   0  0  0  0  0  0  0  0  0  0  0  0
    0.0595   -2.0796    0.3204 C   0  0  0  0  0  0  0  0  0  0  0  0
   -0.7903   -3.1023   -0.1111 C   0  0  0  0  0  0  0  0  0  0  0  0
   -1.1274   -3.2136   -1.4635 C   0  0  0  0  0  0  0  0  0  0  0  0
   -0.6163   -2.2966   -2.3884 C   0  0  0  0  0  0  0  0  0  0  0  0
    0.2313   -1.2668   -1.9716 C   0  0  0  0  0  0  0  0  0  0  0  0
    3.2711    1.2462   -0.0751 C   0  0  0  0  0  0  0  0  0  0  0  0
    2.8636    2.4576   -0.5169 C   0  0  0  0  0  0  0  0  0  0  0  0
    1.6662    2.5869   -1.4264 C   0  0  0  0  0  0  0  0  0  0  0  0
    1.5168    1.9366   -2.4262 O   0  0  0  0  0  0  0  0  0  0  0  0
    0.8099    3.4981   -0.9408 O   0  0  0  0  0  0  0  0  0  0  0  0
   -0.3463    3.8458   -1.6482 C   0  0  0  0  0  0  0  0  0  0  0  0
   -1.3530    2.9119   -1.8925 C   0  0  0  0  0  0  0  0  0  0  0  0
   -2.5136    3.3348   -2.5462 C   0  0  0  0  0  0  0  0  0  0  0  0
   -2.6594    4.6684   -2.9421 C   0  0  0  0  0  0  0  0  0  0  0  0
   -1.6387    5.5888   -2.6837 C   0  0  0  0  0  0  0  0  0  0  0  0
   -0.4715    5.1800   -2.0332 C   0  0  0  0  0  0  0  0  0  0  0  0
    3.6305    3.6990   -0.1808 C   0  0  0  0  0  0  0  0  0  0  0  0
    3.3273    4.7838   -0.6368 O   0  0  0  0  0  0  0  0  0  0  0  0
    4.8000    3.5529    0.7394 C   0  0  0  0  0  0  0  0  0  0  0  0
    5.5517    4.8091    1.1128 C   0  0  0  0  0  0  0  0  0  0  0  0
    5.5889    5.2486    2.2288 O   0  0  0  0  0  0  0  0  0  0  0  0
    6.1629    5.3210    0.0342 O   0  0  0  0  0  0  0  0  0  0  0  0
    7.0029    6.4325    0.1784 C   0  0  0  0  0  0  0  0  0  0  0  0
    6.6034    7.6353   -0.3994 C   0  0  0  0  0  0  0  0  0  0  0  0
    7.4626    8.7357   -0.3243 C   0  0  0  0  0  0  0  0  0  0  0  0
    8.6970    8.6222    0.3227 C   0  0  0  0  0  0  0  0  0  0  0  0
    9.0775    7.4033    0.8950 C   0  0  0  0  0  0  0  0  0  0  0  0
    8.2311    6.2941    0.8247 C   0  0  0  0  0  0  0  0  0  0  0  0
    5.1397    2.3573    1.2672 C   0  0  0  0  0  0  0  0  0  0  0  0
    6.3028    2.2478    2.2236 C   0  0  0  0  0  0  0  0  0  0  0  0
    7.4061    2.6507    1.9725 O   0  0  0  0  0  0  0  0  0  0  0  0
    5.9095    1.6788    3.3727 O   0  0  0  0  0  0  0  0  0  0  0  0
    6.8182    1.5298    4.4274 C   0  0  0  0  0  0  0  0  0  0  0  0
    7.3250    2.6506    5.0849 C   0  0  0  0  0  0  0  0  0  0  0  0
    8.1764    2.4571    6.1757 C   0  0  0  0  0  0  0  0  0  0  0  0
    8.5062    1.1642    6.5969 C   0  0  0  0  0  0  0  0  0  0  0  0
    7.9826    0.0554    5.9248 C   0  0  0  0  0  0  0  0  0  0  0  0
    7.1319    0.2333    4.8298 C   0  0  0  0  0  0  0  0  0  0  0  0
    4.4251    1.1061    0.8708 C   0  0  0  0  0  0  0  0  0  0  0  0
    4.7621    0.0194    1.2941 O   0  0  0  0  0  0  0  0  0  0  0  0
    0.3382   -1.9718    1.3703 H   0  0  0  0  0  0  0  0  0  0  0  0
   -1.1878   -3.8155    0.6150 H   0  0  0  0  0  0  0  0  0  0  0  0
   -1.7894   -4.0160   -1.7977 H   0  0  0  0  0  0  0  0  0  0  0  0
   -0.8784   -2.3807   -3.4460 H   0  0  0  0  0  0  0  0  0  0  0  0
    0.6347   -0.5367   -2.6754 H   0  0  0  0  0  0  0  0  0  0  0  0
   -1.2302    1.8754   -1.5757 H   0  0  0  0  0  0  0  0  0  0  0  0
   -3.3101    2.6137   -2.7450 H   0  0  0  0  0  0  0  0  0  0  0  0
   -3.5708    4.9908   -3.4513 H   0  0  0  0  0  0  0  0  0  0  0  0
   -1.7488    6.6321   -2.9892 H   0  0  0  0  0  0  0  0  0  0  0  0
    0.3438    5.8726   -1.8167 H   0  0  0  0  0  0  0  0  0  0  0  0
    5.6343    7.6928   -0.8985 H   0  0  0  0  0  0  0  0  0  0  0  0
    7.1635    9.6854   -0.7745 H   0  0  0  0  0  0  0  0  0  0  0  0
    9.3654    9.4846    0.3795 H   0  0  0  0  0  0  0  0  0  0  0  0
   10.0432    7.3115    1.3981 H   0  0  0  0  0  0  0  0  0  0  0  0
    8.5093    5.3308    1.2567 H   0  0  0  0  0  0  0  0  0  0  0  0
    7.0516    3.6513    4.7453 H   0  0  0  0  0  0  0  0  0  0  0  0
    8.5821    3.3252    6.7009 H   0  0  0  0  0  0  0  0  0  0  0  0
    9.1713    1.0213    7.4518 H   0  0  0  0  0  0  0  0  0  0  0  0
    8.2363   -0.9559    6.2519 H   0  0  0  0  0  0  0  0  0  0  0  0
    6.7070   -0.6117    4.2849 H   0  0  0  0  0  0  0  0  0  0  0  0
  1  2  2  0
  2  3  1  0
  2 10  1  0
  3  4  1  0
  4  5  2  0
  4  9  1  0
  5  6  1  0
  5 45  1  0
  6  7  2  0
  6 46  1  0
  7  8  1  0
  7 47  1  0
  8  9  2  0
  8 48  1  0
  9 49  1  0
 10 11  2  0
 10 43  1  0
 11 12  1  0
 11 21  1  0
 12 13  2  0
 12 14  1  0
 14 15  1  0
 15 16  2  0
 15 20  1  0
 16 17  1  0
 16 50  1  0
 17 18  2  0
 17 51  1  0
 18 19  1  0
 18 52  1  0
 19 20  2  0
 19 53  1  0
 20 54  1  0
 21 22  2  0
 21 23  1  0
 23 24  1  0
 23 33  2  0
 24 25  2  0
 24 26  1  0
 26 27  1  0
 27 28  2  0
 27 32  1  0
 28 29  1  0
 28 55  1  0
 29 30  2  0
 29 56  1  0
 30 31  1  0
 30 57  1  0
 31 32  2  0
 31 58  1  0
 32 59  1  0
 33 34  1  0
 33 43  1  0
 34 35  2  0
 34 36  1  0
 36 37  1  0
 37 38  2  0
 37 42  1  0
 38 39  1  0
 38 60  1  0
 39 40  2  0
 39 61  1  0
 40 41  1  0
 40 62  1  0
 41 42  2  0
 41 63  1  0
 42 64  1  0
 43 44  2  0
M  END

