
     RDKit          3D

 26 26  0  0  0  0  0  0  0  0999 V2000
    1.7613    0.7087   -1.0151 C   0  0  0  0  0  0  0  0  0  0  0  0
    2.6742    0.2384    0.1026 C   0  0  1  0  0  0  0  0  0  0  0  0
    1.9851   -0.7373    0.8834 O   0  0  0  0  0  0  0  0  0  0  0  0
    2.0886   -0.7310    2.2405 C   0  0  0  0  0  0  0  0  0  0  0  0
    2.4380   -1.9042    2.9148 C   0  0  0  0  0  0  0  0  0  0  0  0
    2.4571   -1.9347    4.3040 C   0  0  0  0  0  0  0  0  0  0  0  0
    2.1623   -0.8001    5.0839 C   0  0  0  0  0  0  0  0  0  0  0  0
    2.2334   -0.9413    6.5769 C   0  0  0  0  0  0  0  0  0  0  0  0
    2.8857    0.0320    7.2405 N   0  0  0  0  0  0  0  0  0  0  0  0
    1.5749   -2.2545    7.3507 S   0  0  0  0  0  0  0  0  0  0  0  0
    1.8021    0.3814    4.3999 C   0  0  0  0  0  0  0  0  0  0  0  0
    1.2639    1.9946    5.2691 Br  0  0  0  0  0  0  0  0  0  0  0  0
    1.7511    0.3973    3.0020 C   0  0  0  0  0  0  0  0  0  0  0  0
    1.3613    1.5065    2.3569 F   0  0  0  0  0  0  0  0  0  0  0  0
    3.9601   -0.4088   -0.4206 C   0  0  1  0  0  0  0  0  0  0  0  0
    4.6915    0.4958   -1.0960 F   0  0  0  0  0  0  0  0  0  0  0  0
    4.7121   -0.8680    0.5928 F   0  0  0  0  0  0  0  0  0  0  0  0
    3.7133   -1.4349   -1.2441 F   0  0  0  0  0  0  0  0  0  0  0  0
    0.8857    1.2071   -0.5777 H   0  0  0  0  0  0  0  0  0  0  0  0
    1.4229   -0.1503   -1.6121 H   0  0  0  0  0  0  0  0  0  0  0  0
    2.2862    1.4169   -1.6719 H   0  0  0  0  0  0  0  0  0  0  0  0
    2.9923    1.0875    0.7262 H   0  0  0  0  0  0  0  0  0  0  0  0
    2.6888   -2.7860    2.3234 H   0  0  0  0  0  0  0  0  0  0  0  0
    2.7076   -2.8566    4.8304 H   0  0  0  0  0  0  0  0  0  0  0  0
    3.2424    0.8585    6.7755 H   0  0  0  0  0  0  0  0  0  0  0  0
    2.9020   -0.0083    8.2538 H   0  0  0  0  0  0  0  0  0  0  0  0
  1  2  1  0
  1 19  1  0
  1 20  1  0
  1 21  1  0
  2  3  1  0
  2 15  1  0
  2 22  1  1
  3  4  1  0
  4  5  2  0
  4 13  1  0
  5  6  1  0
  5 23  1  0
  6  7  2  0
  6 24  1  0
  7  8  1  0
  7 11  1  0
  8  9  1  0
  8 10  2  0
  9 25  1  0
  9 26  1  0
 11 12  1  0
 11 13  2  0
 13 14  1  0
 15 16  1  6
 15 17  1  0
 15 18  1  0
M  END

