
     RDKit          3D

 50 52  0  0  0  0  0  0  0  0999 V2000
    4.7086   -3.0404    0.7402 C   0  0  0  0  0  0  0  0  0  0  0  0
    3.8988   -2.0578   -0.5315 S   0  0  1  0  0  0  0  0  0  0  0  0
    4.0862   -2.7667   -1.8011 O   0  0  0  0  0  0  0  0  0  0  0  0
    2.5589   -1.7304   -0.0324 O   0  0  0  0  0  0  0  0  0  0  0  0
    4.8112   -0.6363   -0.5671 N   0  0  0  0  0  0  0  0  0  0  0  0
    5.7327   -0.4306   -1.6975 C   0  0  0  0  0  0  0  0  0  0  0  0
    5.0789    0.3571   -2.8345 C   0  0  0  0  0  0  0  0  0  0  0  0
    4.4624    1.6828   -2.3403 C   0  0  2  0  0  0  0  0  0  0  0  0
    5.4674    2.6835   -1.9818 N   0  0  0  0  0  0  0  0  0  0  0  0
    6.1374    3.3926   -2.9599 C   0  0  0  0  0  0  0  0  0  0  0  0
    5.8768    3.2767   -4.1496 O   0  0  0  0  0  0  0  0  0  0  0  0
    7.1240    4.2342   -2.4811 N   0  0  0  0  0  0  0  0  0  0  0  0
    7.8379    5.1451   -3.3646 C   0  0  2  0  0  0  0  0  0  0  0  0
    9.3117    5.2835   -2.9275 C   0  0  0  0  0  0  0  0  0  0  0  0
   10.1169    6.2680   -3.7964 C   0  0  0  0  0  0  0  0  0  0  0  0
    9.4479    7.6496   -3.9320 C   0  0  0  0  0  0  0  0  0  0  0  0
    8.0225    7.4338   -4.4054 C   0  0  2  0  0  0  0  0  0  0  0  0
    7.2489    8.6121   -4.5112 O   0  0  0  0  0  0  0  0  0  0  0  0
    5.8673    8.2394   -4.4558 C   0  0  0  0  0  0  0  0  0  0  0  0
    5.8048    6.7657   -3.9718 C   0  0  0  0  0  0  0  0  0  0  0  0
    7.2272    6.5475   -3.4444 C   0  0  1  0  0  0  0  0  0  0  0  0
    3.5265    1.4194   -1.1492 C   0  0  0  0  0  0  0  0  0  0  0  0
    4.1991    0.5919   -0.0451 C   0  0  0  0  0  0  0  0  0  0  0  0
    4.1562   -3.9882    0.8019 H   0  0  0  0  0  0  0  0  0  0  0  0
    4.6558   -2.4989    1.6932 H   0  0  0  0  0  0  0  0  0  0  0  0
    5.7490   -3.2198    0.4406 H   0  0  0  0  0  0  0  0  0  0  0  0
    6.0811   -1.4082   -2.0539 H   0  0  0  0  0  0  0  0  0  0  0  0
    6.6144    0.1096   -1.3065 H   0  0  0  0  0  0  0  0  0  0  0  0
    4.2850   -0.2670   -3.2770 H   0  0  0  0  0  0  0  0  0  0  0  0
    5.8081    0.5728   -3.6305 H   0  0  0  0  0  0  0  0  0  0  0  0
    3.8889    2.1205   -3.1698 H   0  0  0  0  0  0  0  0  0  0  0  0
    5.8811    2.6364   -1.0584 H   0  0  0  0  0  0  0  0  0  0  0  0
    7.1075    4.4763   -1.4960 H   0  0  0  0  0  0  0  0  0  0  0  0
    7.7882    4.6817   -4.3624 H   0  0  0  0  0  0  0  0  0  0  0  0
    9.7880    4.2897   -2.9371 H   0  0  0  0  0  0  0  0  0  0  0  0
    9.3311    5.6304   -1.8764 H   0  0  0  0  0  0  0  0  0  0  0  0
   10.2425    5.8327   -4.8039 H   0  0  0  0  0  0  0  0  0  0  0  0
   11.1327    6.3770   -3.3832 H   0  0  0  0  0  0  0  0  0  0  0  0
   10.0072    8.2847   -4.6377 H   0  0  0  0  0  0  0  0  0  0  0  0
    9.4311    8.1765   -2.9619 H   0  0  0  0  0  0  0  0  0  0  0  0
    8.0631    6.9217   -5.3944 H   0  0  0  0  0  0  0  0  0  0  0  0
    5.4012    8.3584   -5.4511 H   0  0  0  0  0  0  0  0  0  0  0  0
    5.3568    8.9308   -3.7640 H   0  0  0  0  0  0  0  0  0  0  0  0
    5.5971    6.0724   -4.8011 H   0  0  0  0  0  0  0  0  0  0  0  0
    5.0267    6.6077   -3.2103 H   0  0  0  0  0  0  0  0  0  0  0  0
    7.3085    7.0134   -2.4423 H   0  0  0  0  0  0  0  0  0  0  0  0
    2.6491    0.8560   -1.5042 H   0  0  0  0  0  0  0  0  0  0  0  0
    3.1608    2.3743   -0.7367 H   0  0  0  0  0  0  0  0  0  0  0  0
    3.4672    0.3239    0.7270 H   0  0  0  0  0  0  0  0  0  0  0  0
    4.9983    1.1696    0.4580 H   0  0  0  0  0  0  0  0  0  0  0  0
  2  1  1  1
  1 24  1  0
  1 25  1  0
  1 26  1  0
  2  3  2  0
  2  4  2  0
  2  5  1  0
  5  6  1  0
  5 23  1  0
  6  7  1  0
  6 27  1  0
  6 28  1  0
  7  8  1  0
  7 29  1  0
  7 30  1  0
  8  9  1  0
  8 22  1  0
  8 31  1  6
  9 10  1  0
  9 32  1  0
 10 11  2  0
 10 12  1  0
 12 13  1  0
 12 33  1  0
 13 14  1  0
 13 21  1  0
 13 34  1  6
 14 15  1  0
 14 35  1  0
 14 36  1  0
 15 16  1  0
 15 37  1  0
 15 38  1  0
 16 17  1  0
 16 39  1  0
 16 40  1  0
 17 18  1  0
 17 21  1  0
 17 41  1  6
 18 19  1  0
 19 20  1  0
 19 42  1  0
 19 43  1  0
 20 21  1  0
 20 44  1  0
 20 45  1  0
 21 46  1  1
 22 23  1  0
 22 47  1  0
 22 48  1  0
 23 49  1  0
 23 50  1  0
M  END

