
     RDKit          3D

 39 40  0  0  0  0  0  0  0  0999 V2000
    3.5877   -1.3125   -5.0418 C   0  0  0  0  0  0  0  0  0  0  0  0
    4.5356   -2.4234   -4.5863 C   0  0  0  0  0  0  0  0  0  0  0  0
    5.2416   -2.0782   -3.2755 C   0  0  0  0  0  0  0  0  0  0  0  0
    6.3593   -3.4046   -2.7621 S   0  0  1  0  0  0  0  0  0  0  0  0
    5.5387   -4.5856   -2.4575 O   0  0  0  0  0  0  0  0  0  0  0  0
    7.4535   -3.4643   -3.7399 O   0  0  0  0  0  0  0  0  0  0  0  0
    7.0153   -2.8299   -1.3215 N   0  0  0  0  0  0  0  0  0  0  0  0
    6.6624   -3.4626   -0.0534 C   0  0  0  0  0  0  0  0  0  0  0  0
    7.4374   -4.7504    0.2671 C   0  0  0  0  0  0  0  0  0  0  0  0
    8.8753   -4.5505    0.3644 N   0  0  0  0  0  0  0  0  0  0  0  0
    9.8300   -4.9144   -0.5872 C   0  0  0  0  0  0  0  0  0  0  0  0
    9.5299   -5.6860   -1.8310 C   0  0  0  0  0  0  0  0  0  0  0  0
   11.0241   -4.4577   -0.0742 C   0  0  0  0  0  0  0  0  0  0  0  0
   10.8415   -3.8476    1.1400 N   0  0  0  0  0  0  0  0  0  0  0  0
    9.5518   -3.9143    1.3889 C   0  0  0  0  0  0  0  0  0  0  0  0
    8.8885   -3.3588    2.5939 C   0  0  1  0  0  0  0  0  0  0  0  0
    9.7522   -2.9012    3.7427 C   0  0  0  0  0  0  0  0  0  0  0  0
    9.0313   -1.8758    2.9195 C   0  0  0  0  0  0  0  0  0  0  0  0
    3.0932   -1.5856   -5.9867 H   0  0  0  0  0  0  0  0  0  0  0  0
    4.1257   -0.3649   -5.2086 H   0  0  0  0  0  0  0  0  0  0  0  0
    2.7987   -1.1224   -4.2955 H   0  0  0  0  0  0  0  0  0  0  0  0
    5.2999   -2.6139   -5.3570 H   0  0  0  0  0  0  0  0  0  0  0  0
    3.9826   -3.3668   -4.4498 H   0  0  0  0  0  0  0  0  0  0  0  0
    4.5348   -1.9396   -2.4427 H   0  0  0  0  0  0  0  0  0  0  0  0
    5.8708   -1.1791   -3.3594 H   0  0  0  0  0  0  0  0  0  0  0  0
    8.0041   -2.6154   -1.4523 H   0  0  0  0  0  0  0  0  0  0  0  0
    5.5888   -3.6994   -0.0749 H   0  0  0  0  0  0  0  0  0  0  0  0
    6.8197   -2.7182    0.7433 H   0  0  0  0  0  0  0  0  0  0  0  0
    7.2376   -5.4923   -0.5171 H   0  0  0  0  0  0  0  0  0  0  0  0
    7.0580   -5.1689    1.2137 H   0  0  0  0  0  0  0  0  0  0  0  0
    9.0790   -6.6700   -1.6121 H   0  0  0  0  0  0  0  0  0  0  0  0
   10.4693   -5.8706   -2.3714 H   0  0  0  0  0  0  0  0  0  0  0  0
    8.8545   -5.1541   -2.5205 H   0  0  0  0  0  0  0  0  0  0  0  0
   12.0112   -4.5580   -0.5255 H   0  0  0  0  0  0  0  0  0  0  0  0
    7.9297   -3.8165    2.8548 H   0  0  0  0  0  0  0  0  0  0  0  0
   10.8291   -3.0043    3.5901 H   0  0  0  0  0  0  0  0  0  0  0  0
    9.3974   -3.1018    4.7573 H   0  0  0  0  0  0  0  0  0  0  0  0
    9.6251   -1.2777    2.2226 H   0  0  0  0  0  0  0  0  0  0  0  0
    8.1695   -1.3599    3.3541 H   0  0  0  0  0  0  0  0  0  0  0  0
  1  2  1  0
  1 19  1  0
  1 20  1  0
  1 21  1  0
  2  3  1  0
  2 22  1  0
  2 23  1  0
  3  4  1  0
  3 24  1  0
  3 25  1  0
  4  5  2  0
  4  6  2  0
  4  7  1  1
  7  8  1  0
  7 26  1  0
  8  9  1  0
  8 27  1  0
  8 28  1  0
  9 10  1  0
  9 29  1  0
  9 30  1  0
 10 11  1  0
 10 15  1  0
 11 12  1  0
 11 13  2  0
 12 31  1  0
 12 32  1  0
 12 33  1  0
 13 14  1  0
 13 34  1  0
 14 15  2  0
 15 16  1  0
 16 17  1  0
 16 18  1  0
 16 35  1  1
 17 18  1  0
 17 36  1  0
 17 37  1  0
 18 38  1  0
 18 39  1  0
M  END

