
     RDKit          3D

 33 34  0  0  0  0  0  0  0  0999 V2000
    3.2004   -1.6460   -0.0248 O   0  0  0  0  0  0  0  0  0  0  0  0
    2.5285   -0.6886    0.2701 C   0  0  0  0  0  0  0  0  0  0  0  0
    2.9445    0.3510    1.3033 C   0  0  0  0  0  0  0  0  0  0  0  0
    1.8500    0.9945    1.9869 N   0  0  0  0  0  0  0  0  0  0  0  0
    1.0572    0.1220    2.8576 C   0  0  0  0  0  0  0  0  0  0  0  0
    1.7088   -0.1300    4.2285 C   0  0  0  0  0  0  0  0  0  0  0  0
    2.0481    1.1977    4.9216 C   0  0  0  0  0  0  0  0  0  0  0  0
    2.8738    2.1040    3.9968 C   0  0  0  0  0  0  0  0  0  0  0  0
    2.1736    2.2617    2.6349 C   0  0  0  0  0  0  0  0  0  0  0  0
    1.3433   -0.4044   -0.3132 O   0  0  0  0  0  0  0  0  0  0  0  0
    0.7762   -1.3720   -1.1771 C   0  0  1  0  0  0  0  0  0  0  0  0
    1.4711   -1.6695   -2.5066 C   0  0  0  0  0  0  0  0  0  0  0  0
    0.9661   -3.0926   -2.7882 C   0  0  0  0  0  0  0  0  0  0  0  0
    0.7286   -3.6933   -1.5021 O   0  0  0  0  0  0  0  0  0  0  0  0
    0.6397   -2.7632   -0.5293 C   0  0  0  0  0  0  0  0  0  0  0  0
    0.4351   -3.0140    0.6223 O   0  0  0  0  0  0  0  0  0  0  0  0
    3.5139    1.1176    0.7466 H   0  0  0  0  0  0  0  0  0  0  0  0
    3.6859   -0.1724    1.9435 H   0  0  0  0  0  0  0  0  0  0  0  0
    0.8506   -0.8251    2.3356 H   0  0  0  0  0  0  0  0  0  0  0  0
    0.0765    0.6098    3.0118 H   0  0  0  0  0  0  0  0  0  0  0  0
    2.6293   -0.7278    4.0999 H   0  0  0  0  0  0  0  0  0  0  0  0
    1.0329   -0.7372    4.8540 H   0  0  0  0  0  0  0  0  0  0  0  0
    2.5816    1.0191    5.8702 H   0  0  0  0  0  0  0  0  0  0  0  0
    1.1077    1.7169    5.1871 H   0  0  0  0  0  0  0  0  0  0  0  0
    3.8789    1.6681    3.8498 H   0  0  0  0  0  0  0  0  0  0  0  0
    3.0280    3.0960    4.4555 H   0  0  0  0  0  0  0  0  0  0  0  0
    2.7840    2.8701    1.9468 H   0  0  0  0  0  0  0  0  0  0  0  0
    1.2262    2.8134    2.7864 H   0  0  0  0  0  0  0  0  0  0  0  0
   -0.2504   -1.0082   -1.3516 H   0  0  0  0  0  0  0  0  0  0  0  0
    2.5590   -1.6701   -2.3651 H   0  0  0  0  0  0  0  0  0  0  0  0
    1.2087   -0.9627   -3.3061 H   0  0  0  0  0  0  0  0  0  0  0  0
    1.6914   -3.7198   -3.3243 H   0  0  0  0  0  0  0  0  0  0  0  0
    0.0177   -3.0947   -3.3526 H   0  0  0  0  0  0  0  0  0  0  0  0
  1  2  2  0
  2  3  1  0
  2 10  1  0
  3  4  1  0
  3 17  1  0
  3 18  1  0
  4  5  1  0
  4  9  1  0
  5  6  1  0
  5 19  1  0
  5 20  1  0
  6  7  1  0
  6 21  1  0
  6 22  1  0
  7  8  1  0
  7 23  1  0
  7 24  1  0
  8  9  1  0
  8 25  1  0
  8 26  1  0
  9 27  1  0
  9 28  1  0
 10 11  1  0
 11 12  1  0
 11 15  1  0
 11 29  1  6
 12 13  1  0
 12 30  1  0
 12 31  1  0
 13 14  1  0
 13 32  1  0
 13 33  1  0
 14 15  1  0
 15 16  2  0
M  END

