
     RDKit          3D

 23 23  0  0  0  0  0  0  0  0999 V2000
    1.1085    0.1331   -0.0522 N   0  0  0  0  0  0  0  0  0  0  0  0
    2.2599   -0.0204   -0.0972 C   0  0  0  0  0  0  0  0  0  0  0  0
    3.6688   -0.2805   -0.1803 C   0  0  0  0  0  0  0  0  0  0  0  0
    4.5179    0.5232    0.5101 C   0  0  0  0  0  0  0  0  0  0  0  0
    5.9782    0.4355    0.6464 C   0  0  0  0  0  0  0  0  0  0  0  0
    6.7378    1.6156    0.6043 C   0  0  0  0  0  0  0  0  0  0  0  0
    8.1220    1.5628    0.7434 C   0  0  0  0  0  0  0  0  0  0  0  0
    8.8946    2.8190    0.6703 N   0  0  0  0  0  0  0  0  0  0  0  0
    8.2723    3.8541    0.4965 O   0  0  0  0  0  0  0  0  0  0  0  0
   10.1060    2.7402    0.7902 O   0  0  0  0  0  0  0  0  0  0  0  0
    8.7968    0.3605    0.9636 C   0  0  0  0  0  0  0  0  0  0  0  0
    8.0532   -0.8131    1.0547 C   0  0  0  0  0  0  0  0  0  0  0  0
    6.6689   -0.7661    0.9032 C   0  0  0  0  0  0  0  0  0  0  0  0
    5.9831   -1.8939    1.0599 F   0  0  0  0  0  0  0  0  0  0  0  0
    4.1217   -1.3816   -1.1281 C   0  0  0  0  0  0  0  0  0  0  0  0
    3.1507   -2.2586   -1.4931 N   0  0  0  0  0  0  0  0  0  0  0  0
    5.2658   -1.4386   -1.5366 O   0  0  0  0  0  0  0  0  0  0  0  0
    4.0643    1.3713    1.0345 H   0  0  0  0  0  0  0  0  0  0  0  0
    6.2616    2.5827    0.4419 H   0  0  0  0  0  0  0  0  0  0  0  0
    9.8809    0.3652    1.0718 H   0  0  0  0  0  0  0  0  0  0  0  0
    8.5267   -1.7771    1.2474 H   0  0  0  0  0  0  0  0  0  0  0  0
    2.1950   -2.1896   -1.1663 H   0  0  0  0  0  0  0  0  0  0  0  0
    3.3964   -2.9868   -2.1533 H   0  0  0  0  0  0  0  0  0  0  0  0
  1  2  3  0
  2  3  1  0
  3  4  2  0
  3 15  1  0
  4  5  1  0
  4 18  1  0
  5  6  2  0
  5 13  1  0
  6  7  1  0
  6 19  1  0
  7  8  1  0
  7 11  2  0
  8  9  2  0
  8 10  1  0
 11 12  1  0
 11 20  1  0
 12 13  2  0
 12 21  1  0
 13 14  1  0
 15 16  1  0
 15 17  2  0
 16 22  1  0
 16 23  1  0
M  CHG  2   8   1  10  -1
M  END

