
     RDKit          3D

 43 44  0  0  0  0  0  0  0  0999 V2000
    3.1727    0.7664    0.6509 C   0  0  0  0  0  0  0  0  0  0  0  0
    2.3712   -0.1248   -0.2932 C   0  0  0  0  0  0  0  0  0  0  0  0
    2.9128   -1.4836   -0.3856 N   0  0  0  0  0  0  0  0  0  0  0  0
    3.8356   -1.7405   -1.3128 N   0  0  0  0  0  0  0  0  0  0  0  0
    4.1887   -3.0228   -1.1659 C   0  0  0  0  0  0  0  0  0  0  0  0
    5.2241   -3.6552   -2.0664 C   0  0  1  0  0  0  0  0  0  0  0  0
    4.7493   -3.6789   -3.5294 C   0  0  0  0  0  0  0  0  0  0  0  0
    6.5859   -2.9536   -1.9308 C   0  0  0  0  0  0  0  0  0  0  0  0
    3.4643   -3.6059   -0.1066 C   0  0  0  0  0  0  0  0  0  0  0  0
    2.6463   -2.5849    0.3846 C   0  0  0  0  0  0  0  0  0  0  0  0
    1.6817   -2.5718    1.5039 C   0  0  0  0  0  0  0  0  0  0  0  0
    1.2049   -1.5522    1.9865 O   0  0  0  0  0  0  0  0  0  0  0  0
    1.3483   -3.8167    1.9905 N   0  0  0  0  0  0  0  0  0  0  0  0
    0.4991   -4.0645    3.0588 C   0  0  0  0  0  0  0  0  0  0  0  0
    0.2461   -5.2833    3.4405 N   0  0  0  0  0  0  0  0  0  0  0  0
   -0.6183   -5.2964    4.5149 C   0  0  0  0  0  0  0  0  0  0  0  0
   -0.9849   -6.6498    5.0601 C   0  0  0  0  0  0  0  0  0  0  0  0
   -2.0168   -6.7116    6.1664 C   0  0  0  0  0  0  0  0  0  0  0  0
   -2.5063   -5.7843    6.7641 O   0  0  0  0  0  0  0  0  0  0  0  0
   -2.3275   -7.9956    6.4292 O   0  0  0  0  0  0  0  0  0  0  0  0
   -3.2738   -8.2180    7.4749 C   0  0  0  0  0  0  0  0  0  0  0  0
   -1.0202   -4.0606    4.9475 C   0  0  0  0  0  0  0  0  0  0  0  0
   -0.3012   -2.8080    3.9767 S   0  0  0  0  0  0  0  0  0  0  0  0
    2.7649    1.7893    0.6321 H   0  0  0  0  0  0  0  0  0  0  0  0
    4.2294    0.8092    0.3452 H   0  0  0  0  0  0  0  0  0  0  0  0
    3.1076    0.3921    1.6828 H   0  0  0  0  0  0  0  0  0  0  0  0
    2.3953    0.2656   -1.3201 H   0  0  0  0  0  0  0  0  0  0  0  0
    1.3292   -0.1972    0.0403 H   0  0  0  0  0  0  0  0  0  0  0  0
    5.3407   -4.6992   -1.7273 H   0  0  0  0  0  0  0  0  0  0  0  0
    4.5895   -2.6534   -3.8979 H   0  0  0  0  0  0  0  0  0  0  0  0
    3.7985   -4.2251   -3.6340 H   0  0  0  0  0  0  0  0  0  0  0  0
    5.4967   -4.1657   -4.1767 H   0  0  0  0  0  0  0  0  0  0  0  0
    6.5050   -1.8969   -2.2302 H   0  0  0  0  0  0  0  0  0  0  0  0
    7.3417   -3.4368   -2.5709 H   0  0  0  0  0  0  0  0  0  0  0  0
    6.9497   -2.9811   -0.8916 H   0  0  0  0  0  0  0  0  0  0  0  0
    3.5504   -4.6275    0.2588 H   0  0  0  0  0  0  0  0  0  0  0  0
    1.7061   -4.6556    1.5460 H   0  0  0  0  0  0  0  0  0  0  0  0
   -0.0770   -7.1552    5.4368 H   0  0  0  0  0  0  0  0  0  0  0  0
   -1.3310   -7.2975    4.2374 H   0  0  0  0  0  0  0  0  0  0  0  0
   -3.3979   -9.3054    7.5483 H   0  0  0  0  0  0  0  0  0  0  0  0
   -4.2368   -7.7393    7.2407 H   0  0  0  0  0  0  0  0  0  0  0  0
   -2.9071   -7.8107    8.4295 H   0  0  0  0  0  0  0  0  0  0  0  0
   -1.6917   -3.8352    5.7709 H   0  0  0  0  0  0  0  0  0  0  0  0
  1  2  1  0
  1 24  1  0
  1 25  1  0
  1 26  1  0
  2  3  1  0
  2 27  1  0
  2 28  1  0
  3  4  1  0
  3 10  1  0
  4  5  2  0
  5  6  1  0
  5  9  1  0
  6  7  1  0
  6  8  1  0
  6 29  1  1
  7 30  1  0
  7 31  1  0
  7 32  1  0
  8 33  1  0
  8 34  1  0
  8 35  1  0
  9 10  2  0
  9 36  1  0
 10 11  1  0
 11 12  2  0
 11 13  1  0
 13 14  1  0
 13 37  1  0
 14 15  2  0
 14 23  1  0
 15 16  1  0
 16 17  1  0
 16 22  2  0
 17 18  1  0
 17 38  1  0
 17 39  1  0
 18 19  2  0
 18 20  1  0
 20 21  1  0
 21 40  1  0
 21 41  1  0
 21 42  1  0
 22 23  1  0
 22 43  1  0
M  END

