
     RDKit          3D

 30 32  0  0  0  0  0  0  0  0999 V2000
    1.3105    0.7348   -0.5301 O   0  0  0  0  0  0  0  0  0  0  0  0
    2.4226    0.3109   -0.3310 C   0  0  0  0  0  0  0  0  0  0  0  0
    2.9235   -1.1401   -0.4129 C   0  0  0  0  0  0  0  0  0  0  0  0
    4.3850   -1.0366   -0.0577 C   0  0  0  0  0  0  0  0  0  0  0  0
    5.3846   -1.9847    0.0436 C   0  0  0  0  0  0  0  0  0  0  0  0
    6.6957   -1.5911    0.4037 C   0  0  0  0  0  0  0  0  0  0  0  0
    7.7377   -2.6611    0.4759 C   0  0  0  0  0  0  0  0  0  0  0  0
    7.4702   -3.8150    0.2056 O   0  0  0  0  0  0  0  0  0  0  0  0
    9.1783   -2.2865    0.8721 C   0  0  0  0  0  0  0  0  0  0  0  0
    9.3440   -1.9353    2.3339 C   0  0  0  0  0  0  0  0  0  0  0  0
    9.2065   -2.9337    3.2166 N   0  0  0  0  0  0  0  0  0  0  0  0
    9.3614   -2.6338    4.5054 C   0  0  0  0  0  0  0  0  0  0  0  0
    9.6610   -1.3399    4.9385 C   0  0  0  0  0  0  0  0  0  0  0  0
    9.7771   -0.3718    3.9410 C   0  0  0  0  0  0  0  0  0  0  0  0
    9.6177   -0.6607    2.6477 N   0  0  0  0  0  0  0  0  0  0  0  0
    6.9648   -0.2334    0.6538 C   0  0  0  0  0  0  0  0  0  0  0  0
    5.9621    0.7383    0.5550 C   0  0  0  0  0  0  0  0  0  0  0  0
    4.6800    0.3234    0.1982 C   0  0  0  0  0  0  0  0  0  0  0  0
    3.5255    1.0806    0.0330 N   0  0  0  0  0  0  0  0  0  0  0  0
    2.7373   -1.5314   -1.4269 H   0  0  0  0  0  0  0  0  0  0  0  0
    2.3386   -1.7657    0.2818 H   0  0  0  0  0  0  0  0  0  0  0  0
    5.2015   -3.0440   -0.1486 H   0  0  0  0  0  0  0  0  0  0  0  0
    9.5383   -1.4457    0.2635 H   0  0  0  0  0  0  0  0  0  0  0  0
    9.7773   -3.1811    0.6560 H   0  0  0  0  0  0  0  0  0  0  0  0
    9.2440   -3.4564    5.2215 H   0  0  0  0  0  0  0  0  0  0  0  0
    9.7934   -1.0997    5.9950 H   0  0  0  0  0  0  0  0  0  0  0  0
   10.0042    0.6721    4.1890 H   0  0  0  0  0  0  0  0  0  0  0  0
    7.9668    0.0817    0.9505 H   0  0  0  0  0  0  0  0  0  0  0  0
    6.1838    1.7892    0.7536 H   0  0  0  0  0  0  0  0  0  0  0  0
    3.4579    2.0846    0.1550 H   0  0  0  0  0  0  0  0  0  0  0  0
  1  2  2  0
  2  3  1  0
  2 19  1  0
  3  4  1  0
  3 20  1  0
  3 21  1  0
  4  5  2  0
  4 18  1  0
  5  6  1  0
  5 22  1  0
  6  7  1  0
  6 16  2  0
  7  8  2  0
  7  9  1  0
  9 10  1  0
  9 23  1  0
  9 24  1  0
 10 11  2  0
 10 15  1  0
 11 12  1  0
 12 13  2  0
 12 25  1  0
 13 14  1  0
 13 26  1  0
 14 15  2  0
 14 27  1  0
 16 17  1  0
 16 28  1  0
 17 18  2  0
 17 29  1  0
 18 19  1  0
 19 30  1  0
M  END

