
     RDKit          3D

 49 52  0  0  0  0  0  0  0  0999 V2000
    5.3875   -2.9785   -3.4318 O   0  0  0  0  0  0  0  0  0  0  0  0
    5.3912   -1.9340   -2.8001 C   0  0  0  0  0  0  0  0  0  0  0  0
    4.3607   -1.0309   -2.7964 N   0  0  0  0  0  0  0  0  0  0  0  0
    3.0986   -1.1212   -3.4026 C   0  0  0  0  0  0  0  0  0  0  0  0
    2.5923   -2.2979   -3.9755 C   0  0  0  0  0  0  0  0  0  0  0  0
    1.2873   -2.3228   -4.4726 C   0  0  0  0  0  0  0  0  0  0  0  0
    0.4803   -1.1864   -4.4040 C   0  0  0  0  0  0  0  0  0  0  0  0
    0.9942   -0.0025   -3.8657 C   0  0  0  0  0  0  0  0  0  0  0  0
    2.3045    0.0607   -3.3732 C   0  0  0  0  0  0  0  0  0  0  0  0
    2.8943    1.2309   -2.8061 N   0  0  0  0  0  0  0  0  0  0  0  0
    3.8189    1.9967   -3.6542 C   0  0  0  0  0  0  0  0  0  0  0  0
    3.1149    3.1095   -4.4309 C   0  0  0  0  0  0  0  0  0  0  0  0
    2.4025    4.0015   -3.5145 N   0  0  0  0  0  0  0  0  0  0  0  0
    2.0893    5.3039   -3.9572 C   0  0  0  0  0  0  0  0  0  0  0  0
    0.8052    5.8651   -3.8015 C   0  0  0  0  0  0  0  0  0  0  0  0
    0.5312    7.1752   -4.2079 C   0  0  0  0  0  0  0  0  0  0  0  0
    1.5353    7.9356   -4.7934 C   0  0  0  0  0  0  0  0  0  0  0  0
    1.2744    9.1924   -5.1918 F   0  0  0  0  0  0  0  0  0  0  0  0
    2.8149    7.4112   -4.9699 C   0  0  0  0  0  0  0  0  0  0  0  0
    3.0868    6.1121   -4.5483 C   0  0  0  0  0  0  0  0  0  0  0  0
    1.4313    3.2921   -2.6972 C   0  0  0  0  0  0  0  0  0  0  0  0
    2.0947    2.1151   -1.9615 C   0  0  0  0  0  0  0  0  0  0  0  0
    6.5900   -1.5389   -1.9662 C   0  0  0  0  0  0  0  0  0  0  0  0
    7.7990   -2.2007   -2.2164 C   0  0  0  0  0  0  0  0  0  0  0  0
    8.9237   -1.8628   -1.4610 C   0  0  0  0  0  0  0  0  0  0  0  0
    8.9132   -0.9425   -0.4917 N   0  0  0  0  0  0  0  0  0  0  0  0
    7.7579   -0.3244   -0.2411 C   0  0  0  0  0  0  0  0  0  0  0  0
    6.5751   -0.5803   -0.9430 C   0  0  0  0  0  0  0  0  0  0  0  0
    4.4683   -0.1615   -2.2797 H   0  0  0  0  0  0  0  0  0  0  0  0
    3.2276   -3.1802   -4.0100 H   0  0  0  0  0  0  0  0  0  0  0  0
    0.9004   -3.2464   -4.9100 H   0  0  0  0  0  0  0  0  0  0  0  0
   -0.5435   -1.2093   -4.7848 H   0  0  0  0  0  0  0  0  0  0  0  0
    0.3691    0.8906   -3.8409 H   0  0  0  0  0  0  0  0  0  0  0  0
    4.3238    1.3128   -4.3515 H   0  0  0  0  0  0  0  0  0  0  0  0
    4.5906    2.4579   -3.0103 H   0  0  0  0  0  0  0  0  0  0  0  0
    2.4151    2.6630   -5.1708 H   0  0  0  0  0  0  0  0  0  0  0  0
    3.8630    3.6767   -4.9996 H   0  0  0  0  0  0  0  0  0  0  0  0
   -0.0060    5.2810   -3.3679 H   0  0  0  0  0  0  0  0  0  0  0  0
   -0.4648    7.6055   -4.0842 H   0  0  0  0  0  0  0  0  0  0  0  0
    3.5917    8.0324   -5.4206 H   0  0  0  0  0  0  0  0  0  0  0  0
    4.1021    5.7273   -4.6578 H   0  0  0  0  0  0  0  0  0  0  0  0
    0.5680    2.9372   -3.3015 H   0  0  0  0  0  0  0  0  0  0  0  0
    1.0284    3.9802   -1.9387 H   0  0  0  0  0  0  0  0  0  0  0  0
    1.3306    1.5212   -1.4392 H   0  0  0  0  0  0  0  0  0  0  0  0
    2.7651    2.5430   -1.1933 H   0  0  0  0  0  0  0  0  0  0  0  0
    7.8375   -2.9670   -2.9923 H   0  0  0  0  0  0  0  0  0  0  0  0
    9.8807   -2.3636   -1.6490 H   0  0  0  0  0  0  0  0  0  0  0  0
    7.7628    0.4170    0.5668 H   0  0  0  0  0  0  0  0  0  0  0  0
    5.6643   -0.0480   -0.6574 H   0  0  0  0  0  0  0  0  0  0  0  0
  1  2  2  0
  2  3  1  0
  2 23  1  0
  3  4  1  0
  3 29  1  0
  4  5  2  0
  4  9  1  0
  5  6  1  0
  5 30  1  0
  6  7  2  0
  6 31  1  0
  7  8  1  0
  7 32  1  0
  8  9  2  0
  8 33  1  0
  9 10  1  0
 10 11  1  0
 10 22  1  0
 11 12  1  0
 11 34  1  0
 11 35  1  0
 12 13  1  0
 12 36  1  0
 12 37  1  0
 13 14  1  0
 13 21  1  0
 14 15  2  0
 14 20  1  0
 15 16  1  0
 15 38  1  0
 16 17  2  0
 16 39  1  0
 17 18  1  0
 17 19  1  0
 19 20  2  0
 19 40  1  0
 20 41  1  0
 21 22  1  0
 21 42  1  0
 21 43  1  0
 22 44  1  0
 22 45  1  0
 23 24  2  0
 23 28  1  0
 24 25  1  0
 24 46  1  0
 25 26  2  0
 25 47  1  0
 26 27  1  0
 27 28  2  0
 27 48  1  0
 28 49  1  0
M  END

