
     RDKit          3D

 48 50  0  0  0  0  0  0  0  0999 V2000
    4.2052   -0.1662   -6.2367 C   0  0  0  0  0  0  0  0  0  0  0  0
    4.8969    1.3238   -5.4953 S   0  0  1  0  0  0  0  0  0  0  0  0
    5.6409    2.0391   -6.5425 O   0  0  0  0  0  0  0  0  0  0  0  0
    3.8263    2.0147   -4.7561 O   0  0  0  0  0  0  0  0  0  0  0  0
    6.1193    0.6918   -4.2991 C   0  0  0  0  0  0  0  0  0  0  0  0
    7.4501    0.7846   -4.7207 C   0  0  0  0  0  0  0  0  0  0  0  0
    8.4520    0.3051   -3.8856 C   0  0  0  0  0  0  0  0  0  0  0  0
    9.7294    0.3891   -4.2771 F   0  0  0  0  0  0  0  0  0  0  0  0
    8.1507   -0.2674   -2.6524 C   0  0  0  0  0  0  0  0  0  0  0  0
    6.8174   -0.3410   -2.2512 C   0  0  0  0  0  0  0  0  0  0  0  0
    5.7679    0.1409   -3.0515 C   0  0  0  0  0  0  0  0  0  0  0  0
    4.3417    0.0830   -2.5053 C   0  0  0  0  0  0  0  0  0  0  0  0
    4.0148   -1.1715   -1.8587 N   0  0  0  0  0  0  0  0  0  0  0  0
    3.6269   -2.2627   -2.5573 C   0  0  0  0  0  0  0  0  0  0  0  0
    3.5014   -2.3017   -3.7766 O   0  0  0  0  0  0  0  0  0  0  0  0
    3.3639   -3.4795   -1.6947 C   0  0  0  0  0  0  0  0  0  0  0  0
    3.0121   -4.6902   -2.2999 C   0  0  0  0  0  0  0  0  0  0  0  0
    2.8120   -5.7945   -1.4714 C   0  0  0  0  0  0  0  0  0  0  0  0
    2.9632   -5.6474   -0.0923 C   0  0  0  0  0  0  0  0  0  0  0  0
    3.3040   -4.3843    0.4307 C   0  0  0  0  0  0  0  0  0  0  0  0
    3.4335   -4.1740    1.9014 C   0  0  0  0  0  0  0  0  0  0  0  0
    2.5250   -4.7924    2.7806 C   0  0  0  0  0  0  0  0  0  0  0  0
    2.6004   -4.6150    4.1624 C   0  0  0  0  0  0  0  0  0  0  0  0
    3.5983   -3.8037    4.7072 C   0  0  0  0  0  0  0  0  0  0  0  0
    4.5153   -3.1774    3.8617 C   0  0  0  0  0  0  0  0  0  0  0  0
    4.4318   -3.3660    2.4820 C   0  0  0  0  0  0  0  0  0  0  0  0
    5.3537   -2.6905    1.6767 O   0  0  0  0  0  0  0  0  0  0  0  0
    6.5665   -3.2424    1.4681 C   0  0  1  0  0  0  0  0  0  0  0  0
    6.4882   -4.4754    0.9507 F   0  0  0  0  0  0  0  0  0  0  0  0
    7.2246   -2.4618    0.6132 F   0  0  0  0  0  0  0  0  0  0  0  0
    7.2916   -3.3341    2.5944 F   0  0  0  0  0  0  0  0  0  0  0  0
    3.4979   -3.3336   -0.3745 N   0  0  0  0  0  0  0  0  0  0  0  0
    3.3871    0.1940   -6.8767 H   0  0  0  0  0  0  0  0  0  0  0  0
    3.8364   -0.8445   -5.4529 H   0  0  0  0  0  0  0  0  0  0  0  0
    4.9908   -0.6387   -6.8404 H   0  0  0  0  0  0  0  0  0  0  0  0
    7.6903    1.2304   -5.6869 H   0  0  0  0  0  0  0  0  0  0  0  0
    8.9570   -0.6445   -2.0203 H   0  0  0  0  0  0  0  0  0  0  0  0
    6.5859   -0.7967   -1.2861 H   0  0  0  0  0  0  0  0  0  0  0  0
    3.6107    0.2871   -3.2934 H   0  0  0  0  0  0  0  0  0  0  0  0
    4.2174    0.8908   -1.7666 H   0  0  0  0  0  0  0  0  0  0  0  0
    4.0725   -1.2904   -0.8503 H   0  0  0  0  0  0  0  0  0  0  0  0
    2.9164   -4.7354   -3.3853 H   0  0  0  0  0  0  0  0  0  0  0  0
    2.5504   -6.7674   -1.8948 H   0  0  0  0  0  0  0  0  0  0  0  0
    2.8388   -6.5031    0.5732 H   0  0  0  0  0  0  0  0  0  0  0  0
    1.7240   -5.4056    2.3623 H   0  0  0  0  0  0  0  0  0  0  0  0
    1.8703   -5.1024    4.8125 H   0  0  0  0  0  0  0  0  0  0  0  0
    3.6629   -3.6520    5.7870 H   0  0  0  0  0  0  0  0  0  0  0  0
    5.3049   -2.5371    4.2571 H   0  0  0  0  0  0  0  0  0  0  0  0
  2  1  1  6
  1 33  1  0
  1 34  1  0
  1 35  1  0
  2  3  2  0
  2  4  2  0
  2  5  1  0
  5  6  2  0
  5 11  1  0
  6  7  1  0
  6 36  1  0
  7  8  1  0
  7  9  2  0
  9 10  1  0
  9 37  1  0
 10 11  2  0
 10 38  1  0
 11 12  1  0
 12 13  1  0
 12 39  1  0
 12 40  1  0
 13 14  1  0
 13 41  1  0
 14 15  2  0
 14 16  1  0
 16 17  2  0
 16 32  1  0
 17 18  1  0
 17 42  1  0
 18 19  2  0
 18 43  1  0
 19 20  1  0
 19 44  1  0
 20 21  1  0
 20 32  2  0
 21 22  2  0
 21 26  1  0
 22 23  1  0
 22 45  1  0
 23 24  2  0
 23 46  1  0
 24 25  1  0
 24 47  1  0
 25 26  2  0
 25 48  1  0
 26 27  1  0
 27 28  1  0
 28 29  1  6
 28 30  1  0
 28 31  1  0
M  END

