
     RDKit          3D

 54 57  0  0  0  0  0  0  0  0999 V2000
    4.1383    1.7147   -1.8486 C   0  0  0  0  0  0  0  0  0  0  0  0
    5.3484    0.7697   -1.9142 C   0  0  0  0  0  0  0  0  0  0  0  0
    4.9670   -0.6931   -1.8407 C   0  0  0  0  0  0  0  0  0  0  0  0
    4.6741   -1.4225   -3.0040 C   0  0  0  0  0  0  0  0  0  0  0  0
    4.2846   -2.7607   -2.9390 C   0  0  0  0  0  0  0  0  0  0  0  0
    4.1811   -3.3926   -1.6989 C   0  0  0  0  0  0  0  0  0  0  0  0
    3.7804   -4.7807   -1.6254 N   0  0  0  0  0  0  0  0  0  0  0  0
    4.8068   -5.7366   -1.6379 C   0  0  0  0  0  0  0  0  0  0  0  0
    5.9777   -5.4500   -1.7056 O   0  0  0  0  0  0  0  0  0  0  0  0
    4.3782   -7.0551   -1.5665 N   0  0  0  0  0  0  0  0  0  0  0  0
    3.0844   -7.5398   -1.4822 C   0  0  0  0  0  0  0  0  0  0  0  0
    2.8793   -8.7366   -1.4253 O   0  0  0  0  0  0  0  0  0  0  0  0
    2.0126   -6.4913   -1.4682 C   0  0  0  0  0  0  0  0  0  0  0  0
    0.7461   -7.0052   -1.3796 C   0  0  0  0  0  0  0  0  0  0  0  0
   -0.6282   -6.5233   -1.3256 C   0  0  0  0  0  0  0  0  0  0  0  0
   -1.0642   -5.1786   -1.3520 C   0  0  0  0  0  0  0  0  0  0  0  0
   -2.4219   -4.8821   -1.2934 C   0  0  0  0  0  0  0  0  0  0  0  0
   -3.0246   -2.8435   -1.2820 I   0  0  0  0  0  0  0  0  0  0  0  0
   -3.4053   -5.8911   -1.2107 C   0  0  0  0  0  0  0  0  0  0  0  0
   -4.7194   -5.5850   -1.1085 O   0  0  0  0  0  0  0  0  0  0  0  0
   -5.4672   -5.4760   -2.3233 C   0  0  0  0  0  0  0  0  0  0  0  0
   -6.8966   -5.1213   -2.0032 C   0  0  0  0  0  0  0  0  0  0  0  0
   -7.3386   -4.9279   -0.6885 C   0  0  0  0  0  0  0  0  0  0  0  0
   -8.6653   -4.5987   -0.4051 C   0  0  0  0  0  0  0  0  0  0  0  0
   -9.5743   -4.4582   -1.4558 C   0  0  0  0  0  0  0  0  0  0  0  0
  -11.2387   -4.0467   -1.1203 Cl  0  0  0  0  0  0  0  0  0  0  0  0
   -9.1699   -4.6429   -2.7802 C   0  0  0  0  0  0  0  0  0  0  0  0
   -7.8378   -4.9715   -3.0350 C   0  0  0  0  0  0  0  0  0  0  0  0
   -7.3377   -5.2009   -4.7003 Cl  0  0  0  0  0  0  0  0  0  0  0  0
   -2.9648   -7.2300   -1.1670 C   0  0  0  0  0  0  0  0  0  0  0  0
   -4.3812   -8.7993   -0.9609 I   0  0  0  0  0  0  0  0  0  0  0  0
   -1.6112   -7.5387   -1.2250 C   0  0  0  0  0  0  0  0  0  0  0  0
    2.4003   -5.0601   -1.5475 C   0  0  0  0  0  0  0  0  0  0  0  0
    1.6125   -4.1333   -1.5486 O   0  0  0  0  0  0  0  0  0  0  0  0
    4.4683   -2.6874   -0.5292 C   0  0  0  0  0  0  0  0  0  0  0  0
    4.8578   -1.3498   -0.6047 C   0  0  0  0  0  0  0  0  0  0  0  0
    4.4566    2.7681   -1.9047 H   0  0  0  0  0  0  0  0  0  0  0  0
    3.5777    1.5786   -0.9099 H   0  0  0  0  0  0  0  0  0  0  0  0
    3.4405    1.5257   -2.6800 H   0  0  0  0  0  0  0  0  0  0  0  0
    6.0409    1.0071   -1.0892 H   0  0  0  0  0  0  0  0  0  0  0  0
    5.9045    0.9544   -2.8486 H   0  0  0  0  0  0  0  0  0  0  0  0
    4.7577   -0.9366   -3.9803 H   0  0  0  0  0  0  0  0  0  0  0  0
    4.0638   -3.3188   -3.8514 H   0  0  0  0  0  0  0  0  0  0  0  0
    5.1207   -7.7502   -1.5763 H   0  0  0  0  0  0  0  0  0  0  0  0
    0.7933   -8.0999   -1.3377 H   0  0  0  0  0  0  0  0  0  0  0  0
   -0.3207   -4.3878   -1.4157 H   0  0  0  0  0  0  0  0  0  0  0  0
   -5.4278   -6.4317   -2.8753 H   0  0  0  0  0  0  0  0  0  0  0  0
   -5.0200   -4.7016   -2.9713 H   0  0  0  0  0  0  0  0  0  0  0  0
   -6.6196   -5.0402    0.1234 H   0  0  0  0  0  0  0  0  0  0  0  0
   -8.9954   -4.4511    0.6241 H   0  0  0  0  0  0  0  0  0  0  0  0
   -9.8776   -4.5336   -3.6015 H   0  0  0  0  0  0  0  0  0  0  0  0
   -1.2972   -8.5830   -1.1883 H   0  0  0  0  0  0  0  0  0  0  0  0
    4.3913   -3.1887    0.4380 H   0  0  0  0  0  0  0  0  0  0  0  0
    5.0869   -0.8066    0.3165 H   0  0  0  0  0  0  0  0  0  0  0  0
  1  2  1  0
  1 37  1  0
  1 38  1  0
  1 39  1  0
  2  3  1  0
  2 40  1  0
  2 41  1  0
  3  4  2  0
  3 36  1  0
  4  5  1  0
  4 42  1  0
  5  6  2  0
  5 43  1  0
  6  7  1  0
  6 35  1  0
  7  8  1  0
  7 33  1  0
  8  9  2  0
  8 10  1  0
 10 11  1  0
 10 44  1  0
 11 12  2  0
 11 13  1  0
 13 14  2  0
 13 33  1  0
 14 15  1  0
 14 45  1  0
 15 16  2  0
 15 32  1  0
 16 17  1  0
 16 46  1  0
 17 18  1  0
 17 19  2  0
 19 20  1  0
 19 30  1  0
 20 21  1  0
 21 22  1  0
 21 47  1  0
 21 48  1  0
 22 23  2  0
 22 28  1  0
 23 24  1  0
 23 49  1  0
 24 25  2  0
 24 50  1  0
 25 26  1  0
 25 27  1  0
 27 28  2  0
 27 51  1  0
 28 29  1  0
 30 31  1  0
 30 32  2  0
 32 52  1  0
 33 34  2  0
 35 36  2  0
 35 53  1  0
 36 54  1  0
M  END

