
     RDKit          3D

 20 19  0  0  0  0  0  0  0  0999 V2000
    1.4519    2.5248    0.7457 C   0  0  0  0  0  0  0  0  0  0  0  0
    2.5331    1.9692    1.3107 C   0  0  0  0  0  0  0  0  0  0  0  0
    2.9449    0.5517    1.2046 C   0  0  0  0  0  0  0  0  0  0  0  0
    2.0762   -0.4624    1.0507 C   0  0  0  0  0  0  0  0  0  0  0  0
    4.4412    0.3009    1.2762 C   0  0  0  0  0  0  0  0  0  0  0  0
    5.0567    0.8228    2.4953 N   0  0  0  0  0  0  0  0  0  0  0  0
    4.6560    0.1178    3.6984 C   0  0  0  0  0  0  0  0  0  0  0  0
    6.4681    0.8933    2.4314 N   0  0  0  0  0  0  0  0  0  0  0  0
    1.2236    3.5849    0.8863 H   0  0  0  0  0  0  0  0  0  0  0  0
    0.7644    1.9497    0.1176 H   0  0  0  0  0  0  0  0  0  0  0  0
    3.2175    2.5964    1.8932 H   0  0  0  0  0  0  0  0  0  0  0  0
    0.9968   -0.2934    1.0148 H   0  0  0  0  0  0  0  0  0  0  0  0
    2.4222   -1.4962    0.9630 H   0  0  0  0  0  0  0  0  0  0  0  0
    4.9240    0.8231    0.4312 H   0  0  0  0  0  0  0  0  0  0  0  0
    4.6460   -0.7871    1.1430 H   0  0  0  0  0  0  0  0  0  0  0  0
    3.5610    0.1397    3.8003 H   0  0  0  0  0  0  0  0  0  0  0  0
    5.1106    0.6083    4.5697 H   0  0  0  0  0  0  0  0  0  0  0  0
    4.9740   -0.9508    3.6972 H   0  0  0  0  0  0  0  0  0  0  0  0
    6.7285    1.6621    1.8131 H   0  0  0  0  0  0  0  0  0  0  0  0
    6.8624    0.0326    2.0225 H   0  0  0  0  0  0  0  0  0  0  0  0
  1  2  2  0
  1  9  1  0
  1 10  1  0
  2  3  1  0
  2 11  1  0
  3  4  2  0
  3  5  1  0
  4 12  1  0
  4 13  1  0
  5  6  1  0
  5 14  1  0
  5 15  1  0
  6  7  1  0
  6  8  1  0
  7 16  1  0
  7 17  1  0
  7 18  1  0
  8 19  1  0
  8 20  1  0
M  END

