
     RDKit          3D

 27 27  0  0  0  0  0  0  0  0999 V2000
    1.0743    0.0516    0.1292 C   0  0  0  0  0  0  0  0  0  0  0  0
    2.5950    0.0614   -0.0306 C   0  0  0  0  0  0  0  0  0  0  0  0
    3.0615    0.6526   -1.3635 C   0  0  0  0  0  0  0  0  0  0  0  0
    4.5949    0.6571   -1.5136 C   0  0  0  0  0  0  0  0  0  0  0  0
    5.0674    1.2141   -2.7814 C   0  0  0  0  0  0  0  0  0  0  0  0
    5.4381    1.6712   -3.8433 C   0  0  0  0  0  0  0  0  0  0  0  0
    5.9159    2.2013   -5.1087 C   0  0  1  0  0  0  0  0  0  0  0  0
    6.2612    3.7348   -5.2234 C   0  0  1  0  0  0  0  0  0  0  0  0
    6.1124    4.6258   -3.9940 C   0  0  0  0  0  0  0  0  0  0  0  0
    7.7165    3.3855   -5.6074 C   0  0  0  0  0  0  0  0  0  0  0  0
    8.6964    4.0258   -5.8441 O   0  0  0  0  0  0  0  0  0  0  0  0
    7.4021    1.8508   -5.4835 C   0  0  0  0  0  0  0  0  0  0  0  0
    8.0237    0.8412   -5.5888 O   0  0  0  0  0  0  0  0  0  0  0  0
    0.7732   -0.3795    1.0971 H   0  0  0  0  0  0  0  0  0  0  0  0
    0.5915   -0.5426   -0.6645 H   0  0  0  0  0  0  0  0  0  0  0  0
    0.6587    1.0718    0.0756 H   0  0  0  0  0  0  0  0  0  0  0  0
    2.9836   -0.9688    0.0657 H   0  0  0  0  0  0  0  0  0  0  0  0
    3.0504    0.6319    0.7995 H   0  0  0  0  0  0  0  0  0  0  0  0
    2.6869    1.6861   -1.4663 H   0  0  0  0  0  0  0  0  0  0  0  0
    2.6206    0.0835   -2.2004 H   0  0  0  0  0  0  0  0  0  0  0  0
    4.9772   -0.3751   -1.4119 H   0  0  0  0  0  0  0  0  0  0  0  0
    5.0447    1.2245   -0.6785 H   0  0  0  0  0  0  0  0  0  0  0  0
    5.2582    1.8739   -5.9344 H   0  0  0  0  0  0  0  0  0  0  0  0
    5.7484    4.1901   -6.0879 H   0  0  0  0  0  0  0  0  0  0  0  0
    6.6134    4.1883   -3.1173 H   0  0  0  0  0  0  0  0  0  0  0  0
    5.0518    4.7673   -3.7377 H   0  0  0  0  0  0  0  0  0  0  0  0
    6.5599    5.6122   -4.1904 H   0  0  0  0  0  0  0  0  0  0  0  0
  1  2  1  0
  1 14  1  0
  1 15  1  0
  1 16  1  0
  2  3  1  0
  2 17  1  0
  2 18  1  0
  3  4  1  0
  3 19  1  0
  3 20  1  0
  4  5  1  0
  4 21  1  0
  4 22  1  0
  5  6  3  0
  6  7  1  0
  7  8  1  0
  7 12  1  0
  7 23  1  6
  8  9  1  0
  8 10  1  0
  8 24  1  6
  9 25  1  0
  9 26  1  0
  9 27  1  0
 10 11  2  0
 10 12  1  0
 12 13  2  0
M  END

