
     RDKit          3D

 36 37  0  0  0  0  0  0  0  0999 V2000
    1.1115   -0.1770   -0.3327 O   0  0  0  0  0  0  0  0  0  0  0  0
    2.2954    0.0203   -0.0974 C   0  0  0  0  0  0  0  0  0  0  0  0
    2.9064   -0.4674    1.2232 C   0  0  0  0  0  0  0  0  0  0  0  0
    2.9093    0.5697    2.3297 C   0  0  0  0  0  0  0  0  0  0  0  0
    1.6769    1.1616    2.6689 C   0  0  0  0  0  0  0  0  0  0  0  0
    1.5636    2.1139    3.6793 C   0  0  0  0  0  0  0  0  0  0  0  0
    2.6975    2.5269    4.3891 C   0  0  0  0  0  0  0  0  0  0  0  0
    3.9358    1.9856    4.0665 C   0  0  0  0  0  0  0  0  0  0  0  0
    4.0335    1.0150    3.0584 C   0  0  0  0  0  0  0  0  0  0  0  0
    5.4040    0.5267    2.7909 N   0  0  0  0  0  0  0  0  0  0  0  0
    5.5552   -0.6080    2.3460 O   0  0  0  0  0  0  0  0  0  0  0  0
    6.3253    1.2881    3.0292 O   0  0  0  0  0  0  0  0  0  0  0  0
    3.1250    0.6478   -0.9977 N   0  0  0  0  0  0  0  0  0  0  0  0
    2.6158    0.8985   -2.3490 C   0  0  0  0  0  0  0  0  0  0  0  0
    2.9600    2.3087   -2.8089 C   0  0  0  0  0  0  0  0  0  0  0  0
    4.3446    2.5658   -2.6655 O   0  0  0  0  0  0  0  0  0  0  0  0
    4.7370    2.4577   -1.3174 C   0  0  0  0  0  0  0  0  0  0  0  0
    4.5198    1.0406   -0.7534 C   0  0  2  0  0  0  0  0  0  0  0  0
    5.5537    0.0320   -1.2948 C   0  0  0  0  0  0  0  0  0  0  0  0
    5.5103   -1.2237   -0.6600 O   0  0  0  0  0  0  0  0  0  0  0  0
    3.8907   -0.8944    1.0466 H   0  0  0  0  0  0  0  0  0  0  0  0
    2.2456   -1.2889    1.5360 H   0  0  0  0  0  0  0  0  0  0  0  0
    0.7936    0.8496    2.1062 H   0  0  0  0  0  0  0  0  0  0  0  0
    0.5840    2.5367    3.9153 H   0  0  0  0  0  0  0  0  0  0  0  0
    2.6175    3.2695    5.1858 H   0  0  0  0  0  0  0  0  0  0  0  0
    4.8440    2.2964    4.5820 H   0  0  0  0  0  0  0  0  0  0  0  0
    1.5305    0.7380   -2.3259 H   0  0  0  0  0  0  0  0  0  0  0  0
    3.0542    0.1663   -3.0517 H   0  0  0  0  0  0  0  0  0  0  0  0
    2.3751    3.0502   -2.2264 H   0  0  0  0  0  0  0  0  0  0  0  0
    2.7146    2.4351   -3.8740 H   0  0  0  0  0  0  0  0  0  0  0  0
    4.1685    3.1781   -0.6939 H   0  0  0  0  0  0  0  0  0  0  0  0
    5.8027    2.7274   -1.2650 H   0  0  0  0  0  0  0  0  0  0  0  0
    4.6681    1.1250    0.3306 H   0  0  0  0  0  0  0  0  0  0  0  0
    6.5564    0.4962   -1.2125 H   0  0  0  0  0  0  0  0  0  0  0  0
    5.3754   -0.1398   -2.3675 H   0  0  0  0  0  0  0  0  0  0  0  0
    5.8782   -1.1366    0.2331 H   0  0  0  0  0  0  0  0  0  0  0  0
  1  2  2  0
  2  3  1  0
  2 13  1  0
  3  4  1  0
  3 21  1  0
  3 22  1  0
  4  5  2  0
  4  9  1  0
  5  6  1  0
  5 23  1  0
  6  7  2  0
  6 24  1  0
  7  8  1  0
  7 25  1  0
  8  9  2  0
  8 26  1  0
  9 10  1  0
 10 11  2  0
 10 12  1  0
 13 14  1  0
 13 18  1  0
 14 15  1  0
 14 27  1  0
 14 28  1  0
 15 16  1  0
 15 29  1  0
 15 30  1  0
 16 17  1  0
 17 18  1  0
 17 31  1  0
 17 32  1  0
 18 19  1  0
 18 33  1  1
 19 20  1  0
 19 34  1  0
 19 35  1  0
 20 36  1  0
M  CHG  2  10   1  12  -1
M  END

