
     RDKit          3D

 53 58  0  0  0  0  0  0  0  0999 V2000
    1.2042   -0.7178   -0.5388 C   0  0  0  0  0  0  0  0  0  0  0  0
    2.5089    0.0705   -0.2482 C   0  0  1  0  0  0  0  0  0  0  0  0
    3.0381    0.6968   -1.5660 C   0  0  0  0  0  0  0  0  0  0  0  0
    2.2020    1.1953    0.7507 C   0  0  0  0  0  0  0  0  0  0  0  0
    1.2436    2.1666    0.4219 C   0  0  0  0  0  0  0  0  0  0  0  0
    0.9109    3.2180    1.2753 C   0  0  0  0  0  0  0  0  0  0  0  0
    1.5546    3.3121    2.5097 C   0  0  0  0  0  0  0  0  0  0  0  0
    2.5117    2.3674    2.8690 C   0  0  0  0  0  0  0  0  0  0  0  0
    2.8484    1.3056    2.0018 C   0  0  0  0  0  0  0  0  0  0  0  0
    3.8237    0.3637    2.3877 N   0  0  0  0  0  0  0  0  0  0  0  0
    4.4447    0.4977    3.6654 C   0  0  0  0  0  0  0  0  0  0  0  0
    3.8979   -0.1354    4.7963 C   0  0  0  0  0  0  0  0  0  0  0  0
    4.5389    0.0259    6.0106 C   0  0  0  0  0  0  0  0  0  0  0  0
    5.6505    0.7758    6.1371 N   0  0  0  0  0  0  0  0  0  0  0  0
    6.2223    1.3904    5.0671 C   0  0  0  0  0  0  0  0  0  0  0  0
    5.6063    1.2472    3.8059 C   0  0  0  0  0  0  0  0  0  0  0  0
    7.4721    2.1159    5.2808 C   0  0  0  0  0  0  0  0  0  0  0  0
    8.0544    2.9273    4.2802 C   0  0  0  0  0  0  0  0  0  0  0  0
    9.2963    3.5159    4.4629 C   0  0  0  0  0  0  0  0  0  0  0  0
    9.9984    3.2904    5.6611 C   0  0  0  0  0  0  0  0  0  0  0  0
    9.4491    2.5072    6.6659 C   0  0  0  0  0  0  0  0  0  0  0  0
    8.1745    1.9276    6.5057 C   0  0  0  0  0  0  0  0  0  0  0  0
    7.6779    1.1928    7.4922 O   0  0  0  0  0  0  0  0  0  0  0  0
    6.2448    1.0256    7.6375 B   0  0  1  0  0  0  0  0  0  0  0  0
    5.6254    2.1667    8.0965 F   0  0  0  0  0  0  0  0  0  0  0  0
    5.9461   -0.0891    8.3786 F   0  0  0  0  0  0  0  0  0  0  0  0
    4.1756   -0.7261    1.5662 C   0  0  0  0  0  0  0  0  0  0  0  0
    5.1463   -1.6535    2.0025 C   0  0  0  0  0  0  0  0  0  0  0  0
    5.5124   -2.7370    1.2089 C   0  0  0  0  0  0  0  0  0  0  0  0
    4.9182   -2.9186   -0.0404 C   0  0  0  0  0  0  0  0  0  0  0  0
    3.9609   -2.0000   -0.4696 C   0  0  0  0  0  0  0  0  0  0  0  0
    3.5660   -0.8971    0.3034 C   0  0  0  0  0  0  0  0  0  0  0  0
    0.4261   -0.0604   -0.9549 H   0  0  0  0  0  0  0  0  0  0  0  0
    0.8086   -1.1722    0.3822 H   0  0  0  0  0  0  0  0  0  0  0  0
    1.3795   -1.5235   -1.2674 H   0  0  0  0  0  0  0  0  0  0  0  0
    2.2996    1.3858   -2.0031 H   0  0  0  0  0  0  0  0  0  0  0  0
    3.2538   -0.0788   -2.3163 H   0  0  0  0  0  0  0  0  0  0  0  0
    3.9650    1.2621   -1.3854 H   0  0  0  0  0  0  0  0  0  0  0  0
    0.7359    2.0980   -0.5425 H   0  0  0  0  0  0  0  0  0  0  0  0
    0.1584    3.9516    0.9783 H   0  0  0  0  0  0  0  0  0  0  0  0
    1.3157    4.1226    3.2027 H   0  0  0  0  0  0  0  0  0  0  0  0
    3.0024    2.4581    3.8373 H   0  0  0  0  0  0  0  0  0  0  0  0
    2.9943   -0.7400    4.7167 H   0  0  0  0  0  0  0  0  0  0  0  0
    4.1856   -0.4352    6.9339 H   0  0  0  0  0  0  0  0  0  0  0  0
    6.0482    1.7069    2.9240 H   0  0  0  0  0  0  0  0  0  0  0  0
    7.5157    3.1077    3.3481 H   0  0  0  0  0  0  0  0  0  0  0  0
    9.7238    4.1480    3.6821 H   0  0  0  0  0  0  0  0  0  0  0  0
   10.9815    3.7451    5.8092 H   0  0  0  0  0  0  0  0  0  0  0  0
    9.9702    2.3306    7.6084 H   0  0  0  0  0  0  0  0  0  0  0  0
    5.6232   -1.5279    2.9737 H   0  0  0  0  0  0  0  0  0  0  0  0
    6.2667   -3.4381    1.5745 H   0  0  0  0  0  0  0  0  0  0  0  0
    5.1951   -3.7630   -0.6752 H   0  0  0  0  0  0  0  0  0  0  0  0
    3.5008   -2.1464   -1.4491 H   0  0  0  0  0  0  0  0  0  0  0  0
  2  1  1  6
  1 33  1  0
  1 34  1  0
  1 35  1  0
  2  3  1  0
  2  4  1  0
  2 32  1  0
  3 36  1  0
  3 37  1  0
  3 38  1  0
  4  5  1  0
  4  9  2  0
  5  6  2  0
  5 39  1  0
  6  7  1  0
  6 40  1  0
  7  8  2  0
  7 41  1  0
  8  9  1  0
  8 42  1  0
  9 10  1  0
 10 11  1  0
 10 27  1  0
 11 12  1  0
 11 16  2  0
 12 13  2  0
 12 43  1  0
 13 14  1  0
 13 44  1  0
 14 15  1  0
 14 24  1  0
 15 16  1  0
 15 17  2  0
 16 45  1  0
 17 18  1  0
 17 22  1  0
 18 19  2  0
 18 46  1  0
 19 20  1  0
 19 47  1  0
 20 21  2  0
 20 48  1  0
 21 22  1  0
 21 49  1  0
 22 23  2  0
 23 24  1  0
 24 25  1  1
 24 26  1  0
 27 28  1  0
 27 32  2  0
 28 29  2  0
 28 50  1  0
 29 30  1  0
 29 51  1  0
 30 31  2  0
 30 52  1  0
 31 32  1  0
 31 53  1  0
M  CHG  2  23   1  24  -1
M  END

