
     RDKit          3D

 34 35  0  0  0  0  0  0  0  0999 V2000
    5.2577    0.5931   -2.7053 C   0  0  0  0  0  0  0  0  0  0  0  0
    5.3077   -0.8853   -2.3184 C   0  0  0  0  0  0  0  0  0  0  0  0
    5.4078   -1.1004   -0.8841 N   0  0  0  0  0  0  0  0  0  0  0  0
    4.3661   -1.5214   -0.1244 C   0  0  0  0  0  0  0  0  0  0  0  0
    3.2679   -1.8223   -0.5616 O   0  0  0  0  0  0  0  0  0  0  0  0
    4.6358   -1.5595    1.4039 C   0  0  1  0  0  0  0  0  0  0  0  0
    3.7709   -2.6169    2.0879 C   0  0  0  0  0  0  0  0  0  0  0  0
    6.0646   -1.7028    1.6978 N   0  0  0  0  0  0  0  0  0  0  0  0
    6.9090   -0.6850    2.7072 S   0  0  1  0  0  0  0  0  0  0  0  0
    8.3035   -1.0972    2.5947 O   0  0  0  0  0  0  0  0  0  0  0  0
    6.4337    0.6676    2.4307 O   0  0  0  0  0  0  0  0  0  0  0  0
    6.4112   -1.0535    4.3865 C   0  0  0  0  0  0  0  0  0  0  0  0
    5.4981   -0.3481    5.1155 C   0  0  0  0  0  0  0  0  0  0  0  0
    5.3089   -0.9313    6.4174 C   0  0  0  0  0  0  0  0  0  0  0  0
    4.4818   -0.4856    7.3764 N   0  0  0  0  0  0  0  0  0  0  0  0
    4.4766   -1.1846    8.4933 C   0  0  0  0  0  0  0  0  0  0  0  0
    3.4102   -0.6339    9.7549 Cl  0  0  0  0  0  0  0  0  0  0  0  0
    5.1974   -2.2771    8.7812 N   0  0  0  0  0  0  0  0  0  0  0  0
    6.0224   -2.7317    7.8477 C   0  0  0  0  0  0  0  0  0  0  0  0
    6.1188   -2.0820    6.6097 C   0  0  0  0  0  0  0  0  0  0  0  0
    7.1116   -2.4309    5.2181 S   0  0  0  0  0  0  0  0  0  0  0  0
    5.1984    0.7021   -3.8001 H   0  0  0  0  0  0  0  0  0  0  0  0
    6.1571    1.1307   -2.3623 H   0  0  0  0  0  0  0  0  0  0  0  0
    4.3772    1.0851   -2.2635 H   0  0  0  0  0  0  0  0  0  0  0  0
    6.1616   -1.3796   -2.8136 H   0  0  0  0  0  0  0  0  0  0  0  0
    4.3926   -1.3991   -2.6461 H   0  0  0  0  0  0  0  0  0  0  0  0
    6.2618   -0.8477   -0.3993 H   0  0  0  0  0  0  0  0  0  0  0  0
    4.3503   -0.5558    1.7618 H   0  0  0  0  0  0  0  0  0  0  0  0
    4.0743   -3.6312    1.7804 H   0  0  0  0  0  0  0  0  0  0  0  0
    2.7235   -2.4831    1.7888 H   0  0  0  0  0  0  0  0  0  0  0  0
    3.8508   -2.5413    3.1823 H   0  0  0  0  0  0  0  0  0  0  0  0
    6.4661   -2.6384    1.6586 H   0  0  0  0  0  0  0  0  0  0  0  0
    4.9890    0.5476    4.7618 H   0  0  0  0  0  0  0  0  0  0  0  0
    6.6129   -3.6236    8.0867 H   0  0  0  0  0  0  0  0  0  0  0  0
  1  2  1  0
  1 22  1  0
  1 23  1  0
  1 24  1  0
  2  3  1  0
  2 25  1  0
  2 26  1  0
  3  4  1  0
  3 27  1  0
  4  5  2  0
  4  6  1  0
  6  7  1  0
  6  8  1  0
  6 28  1  1
  7 29  1  0
  7 30  1  0
  7 31  1  0
  9  8  1  6
  8 32  1  0
  9 10  2  0
  9 11  2  0
  9 12  1  0
 12 13  2  0
 12 21  1  0
 13 14  1  0
 13 33  1  0
 14 15  2  0
 14 20  1  0
 15 16  1  0
 16 17  1  0
 16 18  2  0
 18 19  1  0
 19 20  2  0
 19 34  1  0
 20 21  1  0
M  END

