
     RDKit          3D

 40 42  0  0  0  0  0  0  0  0999 V2000
    2.0064    0.2958    0.7464 C   0  0  0  0  0  0  0  0  0  0  0  0
    2.3246   -0.0724   -0.5783 O   0  0  0  0  0  0  0  0  0  0  0  0
    2.5851    0.8829   -1.4936 C   0  0  0  0  0  0  0  0  0  0  0  0
    2.5510    2.2613   -1.2345 C   0  0  0  0  0  0  0  0  0  0  0  0
    2.8466    3.2032   -2.2378 C   0  0  0  0  0  0  0  0  0  0  0  0
    2.7494    4.6613   -1.9407 C   0  0  0  0  0  0  0  0  0  0  0  0
    1.5362    5.1663   -1.4413 C   0  0  0  0  0  0  0  0  0  0  0  0
    1.3638    6.5336   -1.2454 C   0  0  0  0  0  0  0  0  0  0  0  0
    2.4229    7.3785   -1.5874 C   0  0  0  0  0  0  0  0  0  0  0  0
    3.5888    6.9230   -2.0334 N   0  0  0  0  0  0  0  0  0  0  0  0
    3.7852    5.6039   -2.1830 C   0  0  0  0  0  0  0  0  0  0  0  0
    5.1755    5.2361   -2.5961 C   0  0  0  0  0  0  0  0  0  0  0  0
    5.8252    4.0921   -2.1125 C   0  0  0  0  0  0  0  0  0  0  0  0
    7.1436    3.8243   -2.4754 C   0  0  0  0  0  0  0  0  0  0  0  0
    7.7157    2.7385   -1.9657 F   0  0  0  0  0  0  0  0  0  0  0  0
    7.8524    4.6697   -3.3404 C   0  0  0  0  0  0  0  0  0  0  0  0
    9.5780    4.4138   -3.7985 S   0  0  1  0  0  0  0  0  0  0  0  0
    9.5052    4.4854   -5.4789 N   0  0  0  0  0  0  0  0  0  0  0  0
   10.3127    5.5770   -3.3087 O   0  0  0  0  0  0  0  0  0  0  0  0
    9.9621    3.0488   -3.4577 O   0  0  0  0  0  0  0  0  0  0  0  0
    7.1868    5.8198   -3.7919 C   0  0  0  0  0  0  0  0  0  0  0  0
    7.8365    6.6560   -4.6084 F   0  0  0  0  0  0  0  0  0  0  0  0
    5.8802    6.1134   -3.4386 C   0  0  0  0  0  0  0  0  0  0  0  0
    3.1691    2.7487   -3.5239 C   0  0  0  0  0  0  0  0  0  0  0  0
    3.2003    1.3794   -3.7969 C   0  0  0  0  0  0  0  0  0  0  0  0
    2.9153    0.4509   -2.7984 C   0  0  0  0  0  0  0  0  0  0  0  0
    2.9605   -1.2538   -3.1487 Cl  0  0  0  0  0  0  0  0  0  0  0  0
    1.8453   -0.6402    1.2968 H   0  0  0  0  0  0  0  0  0  0  0  0
    1.0844    0.9025    0.7936 H   0  0  0  0  0  0  0  0  0  0  0  0
    2.8294    0.8563    1.2247 H   0  0  0  0  0  0  0  0  0  0  0  0
    2.3080    2.6175   -0.2333 H   0  0  0  0  0  0  0  0  0  0  0  0
    0.7154    4.4726   -1.2424 H   0  0  0  0  0  0  0  0  0  0  0  0
    0.4241    6.9387   -0.8639 H   0  0  0  0  0  0  0  0  0  0  0  0
    2.3242    8.4663   -1.4938 H   0  0  0  0  0  0  0  0  0  0  0  0
    5.3390    3.3956   -1.4310 H   0  0  0  0  0  0  0  0  0  0  0  0
    9.9071    5.3549   -5.8274 H   0  0  0  0  0  0  0  0  0  0  0  0
    9.9471    3.6545   -5.8717 H   0  0  0  0  0  0  0  0  0  0  0  0
    5.4145    7.0297   -3.7996 H   0  0  0  0  0  0  0  0  0  0  0  0
    3.3867    3.4631   -4.3197 H   0  0  0  0  0  0  0  0  0  0  0  0
    3.4446    1.0168   -4.7968 H   0  0  0  0  0  0  0  0  0  0  0  0
  1  2  1  0
  1 28  1  0
  1 29  1  0
  1 30  1  0
  2  3  1  0
  3  4  2  0
  3 26  1  0
  4  5  1  0
  4 31  1  0
  5  6  1  0
  5 24  2  0
  6  7  2  0
  6 11  1  0
  7  8  1  0
  7 32  1  0
  8  9  2  0
  8 33  1  0
  9 10  1  0
  9 34  1  0
 10 11  2  0
 11 12  1  0
 12 13  2  0
 12 23  1  0
 13 14  1  0
 13 35  1  0
 14 15  1  0
 14 16  2  0
 16 17  1  0
 16 21  1  0
 17 18  1  6
 17 19  2  0
 17 20  2  0
 18 36  1  0
 18 37  1  0
 21 22  1  0
 21 23  2  0
 23 38  1  0
 24 25  1  0
 24 39  1  0
 25 26  2  0
 25 40  1  0
 26 27  1  0
M  END

