
     RDKit          3D

 61 67  0  0  0  0  0  0  0  0999 V2000
    3.3303    0.8352    1.5308 C   0  0  0  0  0  0  0  0  0  0  0  0
    3.3804    2.1882    1.0117 N   0  0  0  0  0  0  0  0  0  0  0  0
    2.9743    3.2966    1.8535 C   0  0  0  0  0  0  0  0  0  0  0  0
    3.8203    2.4215   -0.2723 C   0  0  0  0  0  0  0  0  0  0  0  0
    4.2393    1.3594   -1.1186 C   0  0  0  0  0  0  0  0  0  0  0  0
    4.6810    1.6007   -2.4105 C   0  0  0  0  0  0  0  0  0  0  0  0
    4.7364    2.9032   -2.9536 C   0  0  0  0  0  0  0  0  0  0  0  0
    5.1959    3.1429   -4.3190 C   0  0  0  0  0  0  0  0  0  0  0  0
    5.4364    2.2140   -5.2977 C   0  0  0  0  0  0  0  0  0  0  0  0
    5.8768    2.7352   -6.5555 C   0  0  0  0  0  0  0  0  0  0  0  0
    6.1873    2.1725   -7.7644 C   0  0  0  0  0  0  0  0  0  0  0  0
    6.2237    0.7454   -8.0860 C   0  0  0  0  0  0  0  0  0  0  0  0
    5.8545    0.2790   -9.3714 C   0  0  0  0  0  0  0  0  0  0  0  0
    5.8734   -1.0747   -9.6877 C   0  0  0  0  0  0  0  0  0  0  0  0
    6.2782   -1.9937   -8.7164 C   0  0  0  0  0  0  0  0  0  0  0  0
    6.3024   -3.4258   -9.0440 N   0  0  0  0  0  0  0  0  0  0  0  0
    5.9737   -3.7559  -10.1745 O   0  0  0  0  0  0  0  0  0  0  0  0
    6.6477   -4.2036   -8.1658 O   0  0  0  0  0  0  0  0  0  0  0  0
    6.6688   -1.5752   -7.4416 C   0  0  0  0  0  0  0  0  0  0  0  0
    6.6422   -0.2192   -7.1367 C   0  0  0  0  0  0  0  0  0  0  0  0
    6.4924    3.2443   -8.8330 C   0  0  1  0  0  0  0  0  0  0  0  0
    6.7436    2.8113   -9.8076 H   0  0  0  0  0  0  0  0  0  0  0  0
    5.2876    4.1792   -8.8994 C   0  0  0  0  0  0  0  0  0  0  0  0
    4.5329    4.4896  -10.0274 C   0  0  0  0  0  0  0  0  0  0  0  0
    3.4458    5.3692   -9.9088 C   0  0  0  0  0  0  0  0  0  0  0  0
    3.1264    5.9274   -8.6700 C   0  0  0  0  0  0  0  0  0  0  0  0
    3.8888    5.6184   -7.5326 C   0  0  0  0  0  0  0  0  0  0  0  0
    4.9681    4.7491   -7.6536 C   0  0  0  0  0  0  0  0  0  0  0  0
    5.9346    4.2813   -6.5515 C   0  0  1  0  0  0  0  0  0  0  0  0
    5.5049    4.8146   -4.8495 S   0  0  0  0  0  0  0  0  0  0  0  0
    7.3448    4.6599   -7.0263 C   0  0  0  0  0  0  0  0  0  0  0  0
    8.2861    5.4496   -6.3738 C   0  0  0  0  0  0  0  0  0  0  0  0
    9.5307    5.6754   -6.9822 C   0  0  0  0  0  0  0  0  0  0  0  0
    9.8229    5.1120   -8.2256 C   0  0  0  0  0  0  0  0  0  0  0  0
    8.8738    4.3112   -8.8788 C   0  0  0  0  0  0  0  0  0  0  0  0
    7.6387    4.0865   -8.2767 C   0  0  0  0  0  0  0  0  0  0  0  0
    4.3248    3.9547   -2.1090 C   0  0  0  0  0  0  0  0  0  0  0  0
    3.8796    3.7321   -0.8126 C   0  0  0  0  0  0  0  0  0  0  0  0
    2.9470    0.8536    2.5587 H   0  0  0  0  0  0  0  0  0  0  0  0
    4.3278    0.3589    1.5523 H   0  0  0  0  0  0  0  0  0  0  0  0
    2.6631    0.1858    0.9352 H   0  0  0  0  0  0  0  0  0  0  0  0
    2.6647    2.9148    2.8344 H   0  0  0  0  0  0  0  0  0  0  0  0
    2.1213    3.8542    1.4250 H   0  0  0  0  0  0  0  0  0  0  0  0
    3.7959    4.0180    2.0170 H   0  0  0  0  0  0  0  0  0  0  0  0
    4.2263    0.3311   -0.7601 H   0  0  0  0  0  0  0  0  0  0  0  0
    5.0046    0.7483   -3.0108 H   0  0  0  0  0  0  0  0  0  0  0  0
    5.2597    1.1512   -5.1396 H   0  0  0  0  0  0  0  0  0  0  0  0
    5.5162    0.9897  -10.1273 H   0  0  0  0  0  0  0  0  0  0  0  0
    5.5740   -1.4376  -10.6707 H   0  0  0  0  0  0  0  0  0  0  0  0
    7.0017   -2.3185   -6.7175 H   0  0  0  0  0  0  0  0  0  0  0  0
    6.9910    0.1104   -6.1575 H   0  0  0  0  0  0  0  0  0  0  0  0
    4.7844    4.0515  -10.9975 H   0  0  0  0  0  0  0  0  0  0  0  0
    2.8473    5.6145  -10.7899 H   0  0  0  0  0  0  0  0  0  0  0  0
    2.2761    6.6083   -8.5808 H   0  0  0  0  0  0  0  0  0  0  0  0
    3.6379    6.0473   -6.5601 H   0  0  0  0  0  0  0  0  0  0  0  0
    8.0586    5.8796   -5.3960 H   0  0  0  0  0  0  0  0  0  0  0  0
   10.2747    6.2946   -6.4747 H   0  0  0  0  0  0  0  0  0  0  0  0
   10.7949    5.2912   -8.6923 H   0  0  0  0  0  0  0  0  0  0  0  0
    9.1027    3.8656   -9.8509 H   0  0  0  0  0  0  0  0  0  0  0  0
    4.3398    4.9824   -2.4804 H   0  0  0  0  0  0  0  0  0  0  0  0
    3.5716    4.5898   -0.2164 H   0  0  0  0  0  0  0  0  0  0  0  0
  1  2  1  0
  1 39  1  0
  1 40  1  0
  1 41  1  0
  2  3  1  0
  2  4  1  0
  3 42  1  0
  3 43  1  0
  3 44  1  0
  4  5  2  0
  4 38  1  0
  5  6  1  0
  5 45  1  0
  6  7  2  0
  6 46  1  0
  7  8  1  0
  7 37  1  0
  8  9  2  0
  8 30  1  0
  9 10  1  0
  9 47  1  0
 10 11  2  0
 10 29  1  0
 11 12  1  0
 11 21  1  0
 12 13  2  0
 12 20  1  0
 13 14  1  0
 13 48  1  0
 14 15  2  0
 14 49  1  0
 15 16  1  0
 15 19  1  0
 16 17  2  0
 16 18  1  0
 19 20  2  0
 19 50  1  0
 20 51  1  0
 21 22  1  6
 21 23  1  0
 21 36  1  0
 23 24  1  0
 23 28  2  0
 24 25  2  0
 24 52  1  0
 25 26  1  0
 25 53  1  0
 26 27  2  0
 26 54  1  0
 27 28  1  0
 27 55  1  0
 28 29  1  0
 29 30  1  1
 29 31  1  0
 31 32  2  0
 31 36  1  0
 32 33  1  0
 32 56  1  0
 33 34  2  0
 33 57  1  0
 34 35  1  0
 34 58  1  0
 35 36  2  0
 35 59  1  0
 37 38  2  0
 37 60  1  0
 38 61  1  0
M  CHG  2  16   1  18  -1
M  END

