
     RDKit          3D

 43 48  0  0  0  0  0  0  0  0999 V2000
    1.3935    1.2010   -0.4799 C   0  0  0  0  0  0  0  0  0  0  0  0
    1.0779    0.7776    0.8292 O   0  0  0  0  0  0  0  0  0  0  0  0
    2.0267    0.1783    1.5837 C   0  0  0  0  0  0  0  0  0  0  0  0
    1.6308   -0.2118    2.8780 C   0  0  0  0  0  0  0  0  0  0  0  0
    2.5334   -0.8353    3.7290 C   0  0  0  0  0  0  0  0  0  0  0  0
    3.8509   -1.0829    3.3084 C   0  0  0  0  0  0  0  0  0  0  0  0
    4.7807   -1.7271    4.1921 N   0  0  0  0  0  0  0  0  0  0  0  0
    4.9799   -3.1098    4.1529 C   0  0  0  0  0  0  0  0  0  0  0  0
    4.4895   -4.0625    2.7496 S   0  0  0  0  0  0  0  0  0  0  0  0
    5.1739   -5.5121    3.4736 C   0  0  0  0  0  0  0  0  0  0  0  0
    5.1563   -6.8013    2.9331 C   0  0  0  0  0  0  0  0  0  0  0  0
    5.7703   -7.8310    3.6469 C   0  0  0  0  0  0  0  0  0  0  0  0
    6.3897   -7.5741    4.8841 C   0  0  0  0  0  0  0  0  0  0  0  0
    6.3990   -6.2925    5.4270 C   0  0  0  0  0  0  0  0  0  0  0  0
    5.7832   -5.2365    4.7267 C   0  0  0  0  0  0  0  0  0  0  0  0
    5.6424   -3.8510    5.0952 C   0  0  0  0  0  0  0  0  0  0  0  0
    6.1927   -3.1579    6.6471 S   0  0  0  0  0  0  0  0  0  0  0  0
    6.3637   -1.4781    6.0636 C   0  0  0  0  0  0  0  0  0  0  0  0
    5.6263   -0.9841    5.0202 C   0  0  0  0  0  0  0  0  0  0  0  0
    5.9472    0.7224    4.6995 S   0  0  0  0  0  0  0  0  0  0  0  0
    7.0888    0.7763    6.0364 C   0  0  0  0  0  0  0  0  0  0  0  0
    7.8044    1.8938    6.4766 C   0  0  0  0  0  0  0  0  0  0  0  0
    8.6852    1.7408    7.5478 C   0  0  0  0  0  0  0  0  0  0  0  0
    8.8446    0.4890    8.1706 C   0  0  0  0  0  0  0  0  0  0  0  0
    8.1250   -0.6214    7.7391 C   0  0  0  0  0  0  0  0  0  0  0  0
    7.2273   -0.4919    6.6611 C   0  0  0  0  0  0  0  0  0  0  0  0
    4.2444   -0.6951    2.0240 C   0  0  0  0  0  0  0  0  0  0  0  0
    3.3423   -0.0672    1.1591 C   0  0  0  0  0  0  0  0  0  0  0  0
    0.4807    1.6529   -0.8899 H   0  0  0  0  0  0  0  0  0  0  0  0
    1.6943    0.3548   -1.1231 H   0  0  0  0  0  0  0  0  0  0  0  0
    2.1997    1.9563   -0.4832 H   0  0  0  0  0  0  0  0  0  0  0  0
    0.6034   -0.0113    3.1876 H   0  0  0  0  0  0  0  0  0  0  0  0
    2.2282   -1.1391    4.7325 H   0  0  0  0  0  0  0  0  0  0  0  0
    4.6784   -6.9975    1.9703 H   0  0  0  0  0  0  0  0  0  0  0  0
    5.7710   -8.8443    3.2381 H   0  0  0  0  0  0  0  0  0  0  0  0
    6.8700   -8.3927    5.4260 H   0  0  0  0  0  0  0  0  0  0  0  0
    6.8841   -6.0957    6.3862 H   0  0  0  0  0  0  0  0  0  0  0  0
    7.6821    2.8637    5.9887 H   0  0  0  0  0  0  0  0  0  0  0  0
    9.2569    2.6017    7.9025 H   0  0  0  0  0  0  0  0  0  0  0  0
    9.5432    0.3879    9.0049 H   0  0  0  0  0  0  0  0  0  0  0  0
    8.2536   -1.5929    8.2225 H   0  0  0  0  0  0  0  0  0  0  0  0
    5.2681   -0.8858    1.6950 H   0  0  0  0  0  0  0  0  0  0  0  0
    3.6764    0.2239    0.1635 H   0  0  0  0  0  0  0  0  0  0  0  0
  1  2  1  0
  1 29  1  0
  1 30  1  0
  1 31  1  0
  2  3  1  0
  3  4  2  0
  3 28  1  0
  4  5  1  0
  4 32  1  0
  5  6  2  0
  5 33  1  0
  6  7  1  0
  6 27  1  0
  7  8  1  0
  7 19  1  0
  8  9  1  0
  8 16  2  0
  9 10  1  0
 10 11  2  0
 10 15  1  0
 11 12  1  0
 11 34  1  0
 12 13  2  0
 12 35  1  0
 13 14  1  0
 13 36  1  0
 14 15  2  0
 14 37  1  0
 15 16  1  0
 16 17  1  0
 17 18  1  0
 18 19  2  0
 18 26  1  0
 19 20  1  0
 20 21  1  0
 21 22  1  0
 21 26  2  0
 22 23  2  0
 22 38  1  0
 23 24  1  0
 23 39  1  0
 24 25  2  0
 24 40  1  0
 25 26  1  0
 25 41  1  0
 27 28  2  0
 27 42  1  0
 28 43  1  0
M  END

