
     RDKit          3D

 41 42  0  0  0  0  0  0  0  0999 V2000
    1.5272    0.2883   -0.4599 C   0  0  0  0  0  0  0  0  0  0  0  0
    2.9265   -0.2541   -0.1695 C   0  0  0  0  0  0  0  0  0  0  0  0
    3.2630   -0.2920    1.3210 C   0  0  0  0  0  0  0  0  0  0  0  0
    4.5908   -0.8465    1.5516 N   0  0  0  0  0  0  0  0  0  0  0  0
    5.0759   -0.7965    2.9367 C   0  0  1  0  0  0  0  0  0  0  0  0
    4.2574   -1.7148    3.8583 C   0  0  0  0  0  0  0  0  0  0  0  0
    6.5413   -1.1497    2.9753 C   0  0  0  0  0  0  0  0  0  0  0  0
    7.4277   -0.4040    3.6970 N   0  0  0  0  0  0  0  0  0  0  0  0
    8.6113   -0.9112    3.6009 N   0  0  0  0  0  0  0  0  0  0  0  0
    8.5224   -2.0078    2.8074 N   0  0  0  0  0  0  0  0  0  0  0  0
    9.6860   -2.7854    2.5242 C   0  0  0  0  0  0  0  0  0  0  0  0
    9.7003   -4.1273    2.9220 C   0  0  0  0  0  0  0  0  0  0  0  0
   10.8215   -4.9124    2.6535 C   0  0  0  0  0  0  0  0  0  0  0  0
   10.8376   -6.7422    3.1874 Br  0  0  0  0  0  0  0  0  0  0  0  0
   11.9296   -4.3632    2.0071 C   0  0  0  0  0  0  0  0  0  0  0  0
   11.8980   -3.0194    1.6282 C   0  0  0  0  0  0  0  0  0  0  0  0
   10.7866   -2.1971    1.8670 C   0  0  0  0  0  0  0  0  0  0  0  0
   10.7826   -0.7530    1.4371 C   0  0  0  0  0  0  0  0  0  0  0  0
    7.2309   -2.2030    2.3874 C   0  0  0  0  0  0  0  0  0  0  0  0
    6.7845   -3.3080    1.4866 C   0  0  0  0  0  0  0  0  0  0  0  0
    1.3202    0.3049   -1.5415 H   0  0  0  0  0  0  0  0  0  0  0  0
    1.4063    1.3176   -0.0829 H   0  0  0  0  0  0  0  0  0  0  0  0
    0.7495   -0.3314    0.0170 H   0  0  0  0  0  0  0  0  0  0  0  0
    3.6779    0.3665   -0.6930 H   0  0  0  0  0  0  0  0  0  0  0  0
    3.0345   -1.2734   -0.5782 H   0  0  0  0  0  0  0  0  0  0  0  0
    2.5164   -0.9184    1.8381 H   0  0  0  0  0  0  0  0  0  0  0  0
    3.1522    0.7314    1.7499 H   0  0  0  0  0  0  0  0  0  0  0  0
    5.2598   -0.3492    0.9632 H   0  0  0  0  0  0  0  0  0  0  0  0
    5.0104    0.2316    3.3543 H   0  0  0  0  0  0  0  0  0  0  0  0
    4.2744   -2.7534    3.4910 H   0  0  0  0  0  0  0  0  0  0  0  0
    3.2071   -1.3917    3.9246 H   0  0  0  0  0  0  0  0  0  0  0  0
    4.6763   -1.6946    4.8753 H   0  0  0  0  0  0  0  0  0  0  0  0
    8.8434   -4.5455    3.4503 H   0  0  0  0  0  0  0  0  0  0  0  0
   12.8079   -4.9766    1.8003 H   0  0  0  0  0  0  0  0  0  0  0  0
   12.7673   -2.5943    1.1197 H   0  0  0  0  0  0  0  0  0  0  0  0
   11.6419   -0.5376    0.7864 H   0  0  0  0  0  0  0  0  0  0  0  0
   10.8210   -0.0826    2.3091 H   0  0  0  0  0  0  0  0  0  0  0  0
    9.8608   -0.4987    0.8903 H   0  0  0  0  0  0  0  0  0  0  0  0
    7.5047   -3.4834    0.6720 H   0  0  0  0  0  0  0  0  0  0  0  0
    5.8123   -3.0338    1.0559 H   0  0  0  0  0  0  0  0  0  0  0  0
    6.6654   -4.2611    2.0286 H   0  0  0  0  0  0  0  0  0  0  0  0
  1  2  1  0
  1 21  1  0
  1 22  1  0
  1 23  1  0
  2  3  1  0
  2 24  1  0
  2 25  1  0
  3  4  1  0
  3 26  1  0
  3 27  1  0
  4  5  1  0
  4 28  1  0
  5  6  1  0
  5  7  1  0
  5 29  1  1
  6 30  1  0
  6 31  1  0
  6 32  1  0
  7  8  1  0
  7 19  2  0
  8  9  2  0
  9 10  1  0
 10 11  1  0
 10 19  1  0
 11 12  2  0
 11 17  1  0
 12 13  1  0
 12 33  1  0
 13 14  1  0
 13 15  2  0
 15 16  1  0
 15 34  1  0
 16 17  2  0
 16 35  1  0
 17 18  1  0
 18 36  1  0
 18 37  1  0
 18 38  1  0
 19 20  1  0
 20 39  1  0
 20 40  1  0
 20 41  1  0
M  END

