
     RDKit          3D

108115  0  0  0  0  0  0  0  0999 V2000
    0.9334    1.3273    1.7697 C   0  0  0  0  0  0  0  0  0  0  0  0
    2.4535    1.2962    1.9422 C   0  0  0  0  0  0  0  0  0  0  0  0
    3.1986    1.2894    0.6042 C   0  0  0  0  0  0  0  0  0  0  0  0
    4.7525    1.2603    0.6731 C   0  0  2  0  0  0  0  0  0  0  0  0
    5.3016    1.2533   -0.7826 C   0  0  0  0  0  0  0  0  0  0  0  0
    6.8246    1.2268   -0.9406 C   0  0  0  0  0  0  0  0  0  0  0  0
    7.2644    1.2187   -2.4062 C   0  0  0  0  0  0  0  0  0  0  0  0
    5.2660    0.0666    1.4817 C   0  0  0  0  0  0  0  0  0  0  0  0
    5.0760   -1.2898    1.2436 C   0  0  0  0  0  0  0  0  0  0  0  0
    5.6261   -2.2536    2.1180 C   0  0  0  0  0  0  0  0  0  0  0  0
    5.4271   -3.7053    1.8733 C   0  0  0  0  0  0  0  0  0  0  0  0
    5.3909   -4.2322    0.5640 C   0  0  0  0  0  0  0  0  0  0  0  0
    5.2040   -5.5888    0.3295 C   0  0  0  0  0  0  0  0  0  0  0  0
    5.0431   -6.4816    1.4038 C   0  0  0  0  0  0  0  0  0  0  0  0
    4.8663   -7.7873    1.0792 O   0  0  0  0  0  0  0  0  0  0  0  0
    4.7101   -8.7384    2.1071 C   0  0  0  0  0  0  0  0  0  0  0  0
    5.0740   -5.9815    2.7140 C   0  0  0  0  0  0  0  0  0  0  0  0
    5.2639   -4.6133    2.9323 C   0  0  0  0  0  0  0  0  0  0  0  0
    6.3692   -1.8011    3.2293 C   0  0  0  0  0  0  0  0  0  0  0  0
    6.5630   -0.4409    3.4768 C   0  0  0  0  0  0  0  0  0  0  0  0
    6.0097    0.4988    2.6007 C   0  0  0  0  0  0  0  0  0  0  0  0
    6.0413    1.9651    2.6015 C   0  0  0  0  0  0  0  0  0  0  0  0
    6.6432    2.8789    3.4730 C   0  0  0  0  0  0  0  0  0  0  0  0
    6.5113    4.2464    3.2253 C   0  0  0  0  0  0  0  0  0  0  0  0
    5.7844    4.7316    2.1170 C   0  0  0  0  0  0  0  0  0  0  0  0
    5.6543    6.1911    1.8701 C   0  0  0  0  0  0  0  0  0  0  0  0
    6.7209    7.0716    2.1513 C   0  0  0  0  0  0  0  0  0  0  0  0
    6.6158    8.4452    1.9259 C   0  0  0  0  0  0  0  0  0  0  0  0
    5.4242    8.9638    1.4084 C   0  0  0  0  0  0  0  0  0  0  0  0
    4.3459    8.0998    1.1197 C   0  0  0  0  0  0  0  0  0  0  0  0
    4.4590    6.7331    1.3463 C   0  0  0  0  0  0  0  0  0  0  0  0
    3.1483    8.8835    0.5775 C   0  0  1  0  0  0  0  0  0  0  0  0
    2.7545    8.4234   -0.8553 C   0  0  0  0  0  0  0  0  0  0  0  0
    3.8516    8.4889   -1.9218 C   0  0  0  0  0  0  0  0  0  0  0  0
    3.3676    8.0181   -3.2950 C   0  0  0  0  0  0  0  0  0  0  0  0
    1.8985    8.7394    1.4929 C   0  0  0  0  0  0  0  0  0  0  0  0
    2.0730    9.1434    2.9597 C   0  0  0  0  0  0  0  0  0  0  0  0
    0.7903    8.9674    3.7751 C   0  0  0  0  0  0  0  0  0  0  0  0
    3.7007   10.3109    0.5869 C   0  0  0  0  0  0  0  0  0  0  0  0
    3.0705   11.4887    0.2018 C   0  0  0  0  0  0  0  0  0  0  0  0
    3.7474   12.7254    0.2941 C   0  0  0  0  0  0  0  0  0  0  0  0
    3.0845   13.9899   -0.1167 C   0  0  0  0  0  0  0  0  0  0  0  0
    3.3203   15.2010    0.5694 C   0  0  0  0  0  0  0  0  0  0  0  0
    2.7024   16.3857    0.1891 C   0  0  0  0  0  0  0  0  0  0  0  0
    1.8169   16.4085   -0.9028 C   0  0  0  0  0  0  0  0  0  0  0  0
    1.2617   17.6102   -1.2017 O   0  0  0  0  0  0  0  0  0  0  0  0
    0.3578   17.7032   -2.2787 C   0  0  0  0  0  0  0  0  0  0  0  0
    1.5665   15.2175   -1.6003 C   0  0  0  0  0  0  0  0  0  0  0  0
    2.1963   14.0335   -1.2037 C   0  0  0  0  0  0  0  0  0  0  0  0
    5.0703   12.7285    0.7858 C   0  0  0  0  0  0  0  0  0  0  0  0
    5.7095   11.5507    1.1771 C   0  0  0  0  0  0  0  0  0  0  0  0
    5.0239   10.3355    1.0775 C   0  0  0  0  0  0  0  0  0  0  0  0
    5.1817    3.7936    1.2489 C   0  0  0  0  0  0  0  0  0  0  0  0
    5.3094    2.4303    1.4877 C   0  0  0  0  0  0  0  0  0  0  0  0
    0.4183    1.3317    2.7436 H   0  0  0  0  0  0  0  0  0  0  0  0
    0.5728    0.4489    1.2080 H   0  0  0  0  0  0  0  0  0  0  0  0
    0.6074    2.2256    1.2183 H   0  0  0  0  0  0  0  0  0  0  0  0
    2.7380    0.4053    2.5270 H   0  0  0  0  0  0  0  0  0  0  0  0
    2.7734    2.1673    2.5385 H   0  0  0  0  0  0  0  0  0  0  0  0
    2.9011    2.1784    0.0188 H   0  0  0  0  0  0  0  0  0  0  0  0
    2.8680    0.4183    0.0101 H   0  0  0  0  0  0  0  0  0  0  0  0
    4.8990    2.1416   -1.3025 H   0  0  0  0  0  0  0  0  0  0  0  0
    4.8676    0.3814   -1.3049 H   0  0  0  0  0  0  0  0  0  0  0  0
    7.2333    0.3387   -0.4297 H   0  0  0  0  0  0  0  0  0  0  0  0
    7.2637    2.1008   -0.4309 H   0  0  0  0  0  0  0  0  0  0  0  0
    6.8732    0.3364   -2.9407 H   0  0  0  0  0  0  0  0  0  0  0  0
    8.3623    1.2003   -2.4962 H   0  0  0  0  0  0  0  0  0  0  0  0
    6.9031    2.1132   -2.9412 H   0  0  0  0  0  0  0  0  0  0  0  0
    4.4766   -1.6195    0.3912 H   0  0  0  0  0  0  0  0  0  0  0  0
    5.5384   -3.5658   -0.2889 H   0  0  0  0  0  0  0  0  0  0  0  0
    5.1884   -5.9914   -0.6854 H   0  0  0  0  0  0  0  0  0  0  0  0
    4.5941   -9.7145    1.6169 H   0  0  0  0  0  0  0  0  0  0  0  0
    3.8128   -8.5386    2.7208 H   0  0  0  0  0  0  0  0  0  0  0  0
    5.5921   -8.7760    2.7721 H   0  0  0  0  0  0  0  0  0  0  0  0
    4.9405   -6.6415    3.5714 H   0  0  0  0  0  0  0  0  0  0  0  0
    5.2581   -4.2447    3.9607 H   0  0  0  0  0  0  0  0  0  0  0  0
    6.8257   -2.5336    3.8987 H   0  0  0  0  0  0  0  0  0  0  0  0
    7.1501   -0.1228    4.3423 H   0  0  0  0  0  0  0  0  0  0  0  0
    7.2051    2.5350    4.3452 H   0  0  0  0  0  0  0  0  0  0  0  0
    6.9598    4.9587    3.9212 H   0  0  0  0  0  0  0  0  0  0  0  0
    7.6611    6.6653    2.5305 H   0  0  0  0  0  0  0  0  0  0  0  0
    7.4631    9.0999    2.1460 H   0  0  0  0  0  0  0  0  0  0  0  0
    3.6125    6.0711    1.1468 H   0  0  0  0  0  0  0  0  0  0  0  0
    1.8933    9.0333   -1.1835 H   0  0  0  0  0  0  0  0  0  0  0  0
    2.3757    7.3873   -0.7878 H   0  0  0  0  0  0  0  0  0  0  0  0
    4.7112    7.8744   -1.6051 H   0  0  0  0  0  0  0  0  0  0  0  0
    4.2289    9.5224   -2.0001 H   0  0  0  0  0  0  0  0  0  0  0  0
    3.0152    6.9731   -3.2629 H   0  0  0  0  0  0  0  0  0  0  0  0
    4.1722    8.0732   -4.0456 H   0  0  0  0  0  0  0  0  0  0  0  0
    2.5296    8.6351   -3.6615 H   0  0  0  0  0  0  0  0  0  0  0  0
    1.5607    7.6882    1.4443 H   0  0  0  0  0  0  0  0  0  0  0  0
    1.0809    9.3352    1.0481 H   0  0  0  0  0  0  0  0  0  0  0  0
    2.4024   10.1946    3.0161 H   0  0  0  0  0  0  0  0  0  0  0  0
    2.8811    8.5452    3.4134 H   0  0  0  0  0  0  0  0  0  0  0  0
   -0.0322    9.5821    3.3716 H   0  0  0  0  0  0  0  0  0  0  0  0
    0.9387    9.2622    4.8263 H   0  0  0  0  0  0  0  0  0  0  0  0
    0.4493    7.9182    3.7701 H   0  0  0  0  0  0  0  0  0  0  0  0
    2.0360   11.4692   -0.1505 H   0  0  0  0  0  0  0  0  0  0  0  0
    3.9843   15.2076    1.4369 H   0  0  0  0  0  0  0  0  0  0  0  0
    2.8805   17.3168    0.7311 H   0  0  0  0  0  0  0  0  0  0  0  0
    0.0386   18.7529   -2.3309 H   0  0  0  0  0  0  0  0  0  0  0  0
   -0.5326   17.0665   -2.1257 H   0  0  0  0  0  0  0  0  0  0  0  0
    0.8299   17.4262   -3.2389 H   0  0  0  0  0  0  0  0  0  0  0  0
    0.8937   15.1988   -2.4581 H   0  0  0  0  0  0  0  0  0  0  0  0
    2.0052   13.1247   -1.7792 H   0  0  0  0  0  0  0  0  0  0  0  0
    5.6169   13.6727    0.8385 H   0  0  0  0  0  0  0  0  0  0  0  0
    6.7375   11.5856    1.5470 H   0  0  0  0  0  0  0  0  0  0  0  0
    4.6366    4.1491    0.3708 H   0  0  0  0  0  0  0  0  0  0  0  0
  1  2  1  0
  1 55  1  0
  1 56  1  0
  1 57  1  0
  2  3  1  0
  2 58  1  0
  2 59  1  0
  4  3  1  6
  3 60  1  0
  3 61  1  0
  4  5  1  0
  4  8  1  0
  4 54  1  0
  5  6  1  0
  5 62  1  0
  5 63  1  0
  6  7  1  0
  6 64  1  0
  6 65  1  0
  7 66  1  0
  7 67  1  0
  7 68  1  0
  8  9  2  0
  8 21  1  0
  9 10  1  0
  9 69  1  0
 10 11  1  0
 10 19  2  0
 11 12  2  0
 11 18  1  0
 12 13  1  0
 12 70  1  0
 13 14  2  0
 13 71  1  0
 14 15  1  0
 14 17  1  0
 15 16  1  0
 16 72  1  0
 16 73  1  0
 16 74  1  0
 17 18  2  0
 17 75  1  0
 18 76  1  0
 19 20  1  0
 19 77  1  0
 20 21  2  0
 20 78  1  0
 21 22  1  0
 22 23  2  0
 22 54  1  0
 23 24  1  0
 23 79  1  0
 24 25  2  0
 24 80  1  0
 25 26  1  0
 25 53  1  0
 26 27  2  0
 26 31  1  0
 27 28  1  0
 27 81  1  0
 28 29  2  0
 28 82  1  0
 29 30  1  0
 29 52  1  0
 30 31  2  0
 30 32  1  0
 31 83  1  0
 32 33  1  6
 32 36  1  0
 32 39  1  0
 33 34  1  0
 33 84  1  0
 33 85  1  0
 34 35  1  0
 34 86  1  0
 34 87  1  0
 35 88  1  0
 35 89  1  0
 35 90  1  0
 36 37  1  0
 36 91  1  0
 36 92  1  0
 37 38  1  0
 37 93  1  0
 37 94  1  0
 38 95  1  0
 38 96  1  0
 38 97  1  0
 39 40  1  0
 39 52  2  0
 40 41  2  0
 40 98  1  0
 41 42  1  0
 41 50  1  0
 42 43  2  0
 42 49  1  0
 43 44  1  0
 43 99  1  0
 44 45  2  0
 44100  1  0
 45 46  1  0
 45 48  1  0
 46 47  1  0
 47101  1  0
 47102  1  0
 47103  1  0
 48 49  2  0
 48104  1  0
 49105  1  0
 50 51  2  0
 50106  1  0
 51 52  1  0
 51107  1  0
 53 54  2  0
 53108  1  0
M  END

