
     RDKit          3D

 50 51  0  0  0  0  0  0  0  0999 V2000
    5.0243   -1.3651   -0.1594 C   0  0  0  0  0  0  0  0  0  0  0  0
    4.2485   -1.2482    1.0042 O   0  0  0  0  0  0  0  0  0  0  0  0
    2.8540   -1.3804    0.8149 C   0  0  1  0  0  0  0  0  0  0  0  0
    2.4745   -2.7971    0.3897 C   0  0  0  0  0  0  0  0  0  0  0  0
    2.9452   -3.8035    1.1282 N   0  0  0  0  0  0  0  0  0  0  0  0
    2.6150   -5.0509    0.7671 C   0  0  0  0  0  0  0  0  0  0  0  0
    3.1660   -6.1726    1.6047 C   0  0  0  0  0  0  0  0  0  0  0  0
    1.7948   -5.2768   -0.3463 C   0  0  0  0  0  0  0  0  0  0  0  0
    1.3381   -4.1623   -1.0572 C   0  0  0  0  0  0  0  0  0  0  0  0
    0.3979   -4.2798   -2.2533 C   0  0  0  0  0  0  0  0  0  0  0  0
    0.5667   -3.2770   -3.2851 N   0  0  0  0  0  0  0  0  0  0  0  0
    1.7779   -3.3905   -4.1072 C   0  0  1  0  0  0  0  0  0  0  0  0
    1.6376   -4.5243   -5.1284 C   0  0  0  0  0  0  0  0  0  0  0  0
    2.0195   -2.0513   -4.8049 C   0  0  0  0  0  0  0  0  0  0  0  0
    1.6889   -2.9241   -0.6867 N   0  0  0  0  0  0  0  0  0  0  0  0
    2.1808   -0.9886    2.1508 C   0  0  1  0  0  0  0  0  0  0  0  0
    2.5798    0.4330    2.5984 C   0  0  0  0  0  0  0  0  0  0  0  0
    1.8966    1.5366    1.7779 C   0  0  0  0  0  0  0  0  0  0  0  0
    0.3702    1.3784    1.7713 C   0  0  0  0  0  0  0  0  0  0  0  0
   -0.0496   -0.0227    1.3065 C   0  0  0  0  0  0  0  0  0  0  0  0
    0.6435   -1.1199    2.1284 C   0  0  0  0  0  0  0  0  0  0  0  0
    6.0693   -1.1634    0.1194 H   0  0  0  0  0  0  0  0  0  0  0  0
    4.7194   -0.6357   -0.9371 H   0  0  0  0  0  0  0  0  0  0  0  0
    4.9745   -2.3782   -0.6037 H   0  0  0  0  0  0  0  0  0  0  0  0
    2.5218   -0.7145   -0.0038 H   0  0  0  0  0  0  0  0  0  0  0  0
    2.8657   -6.0366    2.6557 H   0  0  0  0  0  0  0  0  0  0  0  0
    4.2675   -6.1476    1.5867 H   0  0  0  0  0  0  0  0  0  0  0  0
    2.8247   -7.1579    1.2574 H   0  0  0  0  0  0  0  0  0  0  0  0
    1.5235   -6.2900   -0.6521 H   0  0  0  0  0  0  0  0  0  0  0  0
   -0.6333   -4.2068   -1.8577 H   0  0  0  0  0  0  0  0  0  0  0  0
    0.4783   -5.2900   -2.6839 H   0  0  0  0  0  0  0  0  0  0  0  0
    0.5628   -2.3648   -2.8294 H   0  0  0  0  0  0  0  0  0  0  0  0
    2.6730   -3.6061   -3.4807 H   0  0  0  0  0  0  0  0  0  0  0  0
    0.7794   -4.3341   -5.7930 H   0  0  0  0  0  0  0  0  0  0  0  0
    1.4779   -5.5008   -4.6443 H   0  0  0  0  0  0  0  0  0  0  0  0
    2.5481   -4.6106   -5.7429 H   0  0  0  0  0  0  0  0  0  0  0  0
    1.1506   -1.7813   -5.4273 H   0  0  0  0  0  0  0  0  0  0  0  0
    2.9096   -2.0957   -5.4514 H   0  0  0  0  0  0  0  0  0  0  0  0
    2.1775   -1.2453   -4.0692 H   0  0  0  0  0  0  0  0  0  0  0  0
    2.5828   -1.7102    2.8819 H   0  0  0  0  0  0  0  0  0  0  0  0
    3.6735    0.5360    2.5552 H   0  0  0  0  0  0  0  0  0  0  0  0
    2.2907    0.5475    3.6590 H   0  0  0  0  0  0  0  0  0  0  0  0
    2.2702    1.5157    0.7379 H   0  0  0  0  0  0  0  0  0  0  0  0
    2.1763    2.5261    2.1777 H   0  0  0  0  0  0  0  0  0  0  0  0
   -0.0958    2.1503    1.1354 H   0  0  0  0  0  0  0  0  0  0  0  0
   -0.0137    1.5478    2.7950 H   0  0  0  0  0  0  0  0  0  0  0  0
    0.1953   -0.1485    0.2369 H   0  0  0  0  0  0  0  0  0  0  0  0
   -1.1445   -0.1371    1.3823 H   0  0  0  0  0  0  0  0  0  0  0  0
    0.3378   -2.1158    1.7685 H   0  0  0  0  0  0  0  0  0  0  0  0
    0.2893   -1.0553    3.1730 H   0  0  0  0  0  0  0  0  0  0  0  0
  1  2  1  0
  1 22  1  0
  1 23  1  0
  1 24  1  0
  2  3  1  0
  3  4  1  0
  3 16  1  0
  3 25  1  6
  4  5  2  0
  4 15  1  0
  5  6  1  0
  6  7  1  0
  6  8  2  0
  7 26  1  0
  7 27  1  0
  7 28  1  0
  8  9  1  0
  8 29  1  0
  9 10  1  0
  9 15  2  0
 10 11  1  0
 10 30  1  0
 10 31  1  0
 11 12  1  0
 11 32  1  0
 12 13  1  0
 12 14  1  0
 12 33  1  1
 13 34  1  0
 13 35  1  0
 13 36  1  0
 14 37  1  0
 14 38  1  0
 14 39  1  0
 16 17  1  0
 16 21  1  0
 16 40  1  1
 17 18  1  0
 17 41  1  0
 17 42  1  0
 18 19  1  0
 18 43  1  0
 18 44  1  0
 19 20  1  0
 19 45  1  0
 19 46  1  0
 20 21  1  0
 20 47  1  0
 20 48  1  0
 21 49  1  0
 21 50  1  0
M  END

