
     RDKit          3D

 48 51  0  0  0  0  0  0  0  0999 V2000
    0.9901    0.3830   -0.2891 C   0  0  0  0  0  0  0  0  0  0  0  0
    2.4496    0.0363    0.0316 C   0  0  1  0  0  0  0  0  0  0  0  0
    3.2795    1.3263    0.2557 C   0  0  0  0  0  0  0  0  0  0  0  0
    2.9654    2.3860   -0.2625 O   0  0  0  0  0  0  0  0  0  0  0  0
    4.3927    1.1453    1.0168 N   0  0  0  0  0  0  0  0  0  0  0  0
    5.3699    2.1846    1.2790 C   0  0  2  0  0  0  0  0  0  0  0  0
    6.7613    1.8107    0.7266 C   0  0  0  0  0  0  0  0  0  0  0  0
    7.7701    2.9684    0.8408 C   0  0  0  0  0  0  0  0  0  0  0  0
    7.6955    3.5894    2.2067 C   0  0  0  0  0  0  0  0  0  0  0  0
    8.5527    4.4611    2.9300 C   0  0  0  0  0  0  0  0  0  0  0  0
    8.0533    4.7639    4.1247 N   0  0  0  0  0  0  0  0  0  0  0  0
    6.8854    4.1022    4.1838 N   0  0  0  0  0  0  0  0  0  0  0  0
    6.3129    4.1812    5.0154 H   0  0  0  0  0  0  0  0  0  0  0  0
    6.6221    3.3818    3.0590 C   0  0  0  0  0  0  0  0  0  0  0  0
    5.4313    2.5174    2.7883 C   0  0  0  0  0  0  0  0  0  0  0  0
    2.6807   -0.9454    1.0969 N   0  0  0  0  0  0  0  0  0  0  0  0
    2.5256   -2.3457    0.7166 C   0  0  0  0  0  0  0  0  0  0  0  0
    3.2721   -3.2372    1.7091 C   0  0  0  0  0  0  0  0  0  0  0  0
    2.9737   -2.8718    3.1485 C   0  0  0  0  0  0  0  0  0  0  0  0
    3.2910   -3.7531    4.1946 C   0  0  0  0  0  0  0  0  0  0  0  0
    3.0424   -3.4152    5.5246 C   0  0  0  0  0  0  0  0  0  0  0  0
    2.4668   -2.1764    5.8282 C   0  0  0  0  0  0  0  0  0  0  0  0
    2.1479   -1.2934    4.7968 C   0  0  0  0  0  0  0  0  0  0  0  0
    2.3968   -1.6264    3.4562 C   0  0  0  0  0  0  0  0  0  0  0  0
    1.9996   -0.6625    2.3552 C   0  0  0  0  0  0  0  0  0  0  0  0
    0.9598    1.0639   -1.1499 H   0  0  0  0  0  0  0  0  0  0  0  0
    0.4958    0.8998    0.5471 H   0  0  0  0  0  0  0  0  0  0  0  0
    0.4137   -0.5231   -0.5322 H   0  0  0  0  0  0  0  0  0  0  0  0
    2.8931   -0.4064   -0.8789 H   0  0  0  0  0  0  0  0  0  0  0  0
    4.5170    0.2050    1.3875 H   0  0  0  0  0  0  0  0  0  0  0  0
    5.0046    3.0721    0.7386 H   0  0  0  0  0  0  0  0  0  0  0  0
    6.6522    1.5007   -0.3244 H   0  0  0  0  0  0  0  0  0  0  0  0
    7.1406    0.9329    1.2824 H   0  0  0  0  0  0  0  0  0  0  0  0
    7.5485    3.7246    0.0649 H   0  0  0  0  0  0  0  0  0  0  0  0
    8.7882    2.6033    0.6251 H   0  0  0  0  0  0  0  0  0  0  0  0
    9.5132    4.8776    2.6243 H   0  0  0  0  0  0  0  0  0  0  0  0
    4.4915    3.0072    3.0958 H   0  0  0  0  0  0  0  0  0  0  0  0
    5.4966    1.5748    3.3652 H   0  0  0  0  0  0  0  0  0  0  0  0
    2.9349   -2.4878   -0.2954 H   0  0  0  0  0  0  0  0  0  0  0  0
    1.4544   -2.6460    0.6748 H   0  0  0  0  0  0  0  0  0  0  0  0
    4.3581   -3.1382    1.5297 H   0  0  0  0  0  0  0  0  0  0  0  0
    3.0221   -4.2960    1.5271 H   0  0  0  0  0  0  0  0  0  0  0  0
    3.7401   -4.7221    3.9558 H   0  0  0  0  0  0  0  0  0  0  0  0
    3.2955   -4.1160    6.3242 H   0  0  0  0  0  0  0  0  0  0  0  0
    2.2685   -1.8999    6.8669 H   0  0  0  0  0  0  0  0  0  0  0  0
    1.6964   -0.3245    5.0320 H   0  0  0  0  0  0  0  0  0  0  0  0
    2.2347    0.3684    2.6665 H   0  0  0  0  0  0  0  0  0  0  0  0
    0.8930   -0.7051    2.2401 H   0  0  0  0  0  0  0  0  0  0  0  0
  1  2  1  0
  1 26  1  0
  1 27  1  0
  1 28  1  0
  2  3  1  0
  2 16  1  0
  2 29  1  6
  3  4  2  0
  3  5  1  0
  5  6  1  0
  5 30  1  0
  6  7  1  0
  6 15  1  0
  6 31  1  6
  7  8  1  0
  7 32  1  0
  7 33  1  0
  8  9  1  0
  8 34  1  0
  8 35  1  0
  9 10  1  0
  9 14  2  0
 10 11  2  0
 10 36  1  0
 11 12  1  0
 12 13  1  0
 12 14  1  0
 14 15  1  0
 15 37  1  0
 15 38  1  0
 16 17  1  0
 16 25  1  0
 17 18  1  0
 17 39  1  0
 17 40  1  0
 18 19  1  0
 18 41  1  0
 18 42  1  0
 19 20  2  0
 19 24  1  0
 20 21  1  0
 20 43  1  0
 21 22  2  0
 21 44  1  0
 22 23  1  0
 22 45  1  0
 23 24  2  0
 23 46  1  0
 24 25  1  0
 25 47  1  0
 25 48  1  0
M  END

