
     RDKit          3D

 47 51  0  0  0  0  0  0  0  0999 V2000
    0.9424    0.0210   -0.5622 C   0  0  0  0  0  0  0  0  0  0  0  0
    2.2440    0.0049   -0.0162 O   0  0  0  0  0  0  0  0  0  0  0  0
    2.7422    1.1205    0.5662 C   0  0  0  0  0  0  0  0  0  0  0  0
    2.0356    2.3407    0.6728 C   0  0  0  0  0  0  0  0  0  0  0  0
    2.6389    3.4283    1.2904 C   0  0  0  0  0  0  0  0  0  0  0  0
    3.9441    3.3516    1.8177 C   0  0  0  0  0  0  0  0  0  0  0  0
    4.6095    4.4393    2.4642 C   0  0  0  0  0  0  0  0  0  0  0  0
    5.8812    4.3532    2.9836 C   0  0  0  0  0  0  0  0  0  0  0  0
    6.4677    5.5464    3.6177 C   0  0  0  0  0  0  0  0  0  0  0  0
    5.8171    6.7473    3.4648 N   0  0  0  0  0  0  0  0  0  0  0  0
    6.5145    7.6465    4.1316 C   0  0  0  0  0  0  0  0  0  0  0  0
    6.3069    9.0371    4.3264 C   0  0  0  0  0  0  0  0  0  0  0  0
    7.2225    9.7634    5.0523 C   0  0  0  0  0  0  0  0  0  0  0  0
    8.3805    9.1285    5.5992 C   0  0  0  0  0  0  0  0  0  0  0  0
    8.5828    7.7861    5.4245 C   0  0  0  0  0  0  0  0  0  0  0  0
    7.6502    7.0604    4.7204 N   0  0  0  0  0  0  0  0  0  0  0  0
    7.6194    5.7100    4.4104 C   0  0  0  0  0  0  0  0  0  0  0  0
    8.6340    4.8766    4.8588 N   0  0  0  0  0  0  0  0  0  0  0  0
    8.6164    4.4697    6.2738 C   0  0  0  0  0  0  0  0  0  0  0  0
    9.9864    4.2289    6.8150 C   0  0  0  0  0  0  0  0  0  0  0  0
   10.6521    3.1070    7.2274 C   0  0  0  0  0  0  0  0  0  0  0  0
   11.9608    3.5341    7.6357 C   0  0  0  0  0  0  0  0  0  0  0  0
   11.9915    4.8838    7.4384 C   0  0  0  0  0  0  0  0  0  0  0  0
   10.8020    5.3148    6.9451 O   0  0  0  0  0  0  0  0  0  0  0  0
    6.6130    3.0819    2.8444 C   0  0  0  0  0  0  0  0  0  0  0  0
    7.7655    2.8467    3.2140 O   0  0  0  0  0  0  0  0  0  0  0  0
    5.9117    2.0599    2.2170 N   0  0  0  0  0  0  0  0  0  0  0  0
    6.4454    1.1992    2.1308 H   0  0  0  0  0  0  0  0  0  0  0  0
    4.6363    2.1164    1.6995 C   0  0  0  0  0  0  0  0  0  0  0  0
    4.0395    1.0131    1.0799 C   0  0  0  0  0  0  0  0  0  0  0  0
    0.7648   -0.9827   -0.9707 H   0  0  0  0  0  0  0  0  0  0  0  0
    0.8478    0.7603   -1.3773 H   0  0  0  0  0  0  0  0  0  0  0  0
    0.1774    0.2350    0.2051 H   0  0  0  0  0  0  0  0  0  0  0  0
    1.0256    2.4390    0.2769 H   0  0  0  0  0  0  0  0  0  0  0  0
    2.0953    4.3728    1.3739 H   0  0  0  0  0  0  0  0  0  0  0  0
    4.0967    5.3991    2.5557 H   0  0  0  0  0  0  0  0  0  0  0  0
    5.4194    9.4891    3.8816 H   0  0  0  0  0  0  0  0  0  0  0  0
    7.0727   10.8340    5.2091 H   0  0  0  0  0  0  0  0  0  0  0  0
    9.1201    9.7072    6.1547 H   0  0  0  0  0  0  0  0  0  0  0  0
    9.4462    7.2320    5.7944 H   0  0  0  0  0  0  0  0  0  0  0  0
    8.6815    4.0576    4.2462 H   0  0  0  0  0  0  0  0  0  0  0  0
    8.0207    3.5503    6.4268 H   0  0  0  0  0  0  0  0  0  0  0  0
    8.1284    5.2617    6.8655 H   0  0  0  0  0  0  0  0  0  0  0  0
   10.2548    2.0941    7.2344 H   0  0  0  0  0  0  0  0  0  0  0  0
   12.7694    2.9167    8.0214 H   0  0  0  0  0  0  0  0  0  0  0  0
   12.7511    5.6455    7.5940 H   0  0  0  0  0  0  0  0  0  0  0  0
    4.5654    0.0610    0.9849 H   0  0  0  0  0  0  0  0  0  0  0  0
  1  2  1  0
  1 31  1  0
  1 32  1  0
  1 33  1  0
  2  3  1  0
  3  4  2  0
  3 30  1  0
  4  5  1  0
  4 34  1  0
  5  6  2  0
  5 35  1  0
  6  7  1  0
  6 29  1  0
  7  8  2  0
  7 36  1  0
  8  9  1  0
  8 25  1  0
  9 10  1  0
  9 17  2  0
 10 11  2  0
 11 12  1  0
 11 16  1  0
 12 13  2  0
 12 37  1  0
 13 14  1  0
 13 38  1  0
 14 15  2  0
 14 39  1  0
 15 16  1  0
 15 40  1  0
 16 17  1  0
 17 18  1  0
 18 19  1  0
 18 41  1  0
 19 20  1  0
 19 42  1  0
 19 43  1  0
 20 21  2  0
 20 24  1  0
 21 22  1  0
 21 44  1  0
 22 23  2  0
 22 45  1  0
 23 24  1  0
 23 46  1  0
 25 26  2  0
 25 27  1  0
 27 28  1  0
 27 29  1  0
 29 30  2  0
 30 47  1  0
M  END

