
     RDKit          3D

 96105  0  0  0  0  0  0  0  0999 V2000
    7.0357   -4.7817   -0.5037 C   0  0  0  0  0  0  0  0  0  0  0  0
    5.6152   -4.4188   -0.0338 C   0  0  1  0  0  0  0  0  0  0  0  0
    5.2543   -3.0370   -0.6273 C   0  0  0  0  0  0  0  0  0  0  0  0
    4.6418   -5.4853   -0.5876 C   0  0  0  0  0  0  0  0  0  0  0  0
    5.4979   -4.3645    1.5058 C   0  0  0  0  0  0  0  0  0  0  0  0
    6.5938   -4.6312    2.3497 C   0  0  0  0  0  0  0  0  0  0  0  0
    6.5128   -4.5880    3.7568 C   0  0  0  0  0  0  0  0  0  0  0  0
    5.2526   -4.2557    4.2738 C   0  0  0  0  0  0  0  0  0  0  0  0
    4.1265   -3.9828    3.4757 C   0  0  0  0  0  0  0  0  0  0  0  0
    4.2541   -4.0387    2.0873 C   0  0  0  0  0  0  0  0  0  0  0  0
    3.0409   -3.6920    4.4078 C   0  0  0  0  0  0  0  0  0  0  0  0
    1.7032   -3.3588    4.2016 C   0  0  0  0  0  0  0  0  0  0  0  0
    0.8721   -3.1317    5.3061 C   0  0  0  0  0  0  0  0  0  0  0  0
   -0.6113   -2.7657    5.0827 C   0  0  1  0  0  0  0  0  0  0  0  0
   -1.3099   -3.9082    4.3093 C   0  0  0  0  0  0  0  0  0  0  0  0
   -1.3736   -2.5481    6.4026 C   0  0  0  0  0  0  0  0  0  0  0  0
   -0.6987   -1.4599    4.2588 C   0  0  0  0  0  0  0  0  0  0  0  0
    1.4316   -3.2488    6.5913 C   0  0  0  0  0  0  0  0  0  0  0  0
    2.7767   -3.5794    6.8737 C   0  0  0  0  0  0  0  0  0  0  0  0
    3.5705   -3.8023    5.7256 C   0  0  0  0  0  0  0  0  0  0  0  0
    4.9296   -4.1497    5.6185 N   0  0  0  0  0  0  0  0  0  0  0  0
    5.9465   -4.3975    6.5817 B   0  0  0  0  0  0  0  0  0  0  0  0
    7.3581   -4.7702    6.0961 C   0  0  0  0  0  0  0  0  0  0  0  0
    7.6207   -4.8593    4.6971 C   0  0  0  0  0  0  0  0  0  0  0  0
    8.9169   -5.2014    4.2754 C   0  0  0  0  0  0  0  0  0  0  0  0
    9.9203   -5.4473    5.2143 C   0  0  0  0  0  0  0  0  0  0  0  0
    9.6691   -5.3615    6.5852 C   0  0  0  0  0  0  0  0  0  0  0  0
    8.3876   -5.0221    7.0502 C   0  0  0  0  0  0  0  0  0  0  0  0
    8.0545   -4.9121    8.4868 C   0  0  0  0  0  0  0  0  0  0  0  0
    8.9374   -5.1212    9.5599 C   0  0  0  0  0  0  0  0  0  0  0  0
    8.5576   -4.9975   10.9160 C   0  0  0  0  0  0  0  0  0  0  0  0
    9.6138   -5.2520   12.0143 C   0  0  1  0  0  0  0  0  0  0  0  0
   10.7841   -4.2547   11.8499 C   0  0  0  0  0  0  0  0  0  0  0  0
    9.0346   -5.0765   13.4300 C   0  0  0  0  0  0  0  0  0  0  0  0
   10.1496   -6.6977   11.8935 C   0  0  0  0  0  0  0  0  0  0  0  0
    7.2303   -4.6463   11.2204 C   0  0  0  0  0  0  0  0  0  0  0  0
    6.3142   -4.4281   10.1843 C   0  0  0  0  0  0  0  0  0  0  0  0
    4.9046   -4.0605   10.1102 C   0  0  0  0  0  0  0  0  0  0  0  0
    3.9602   -3.7901   11.1063 C   0  0  0  0  0  0  0  0  0  0  0  0
    2.6572   -3.4528   10.7358 C   0  0  0  0  0  0  0  0  0  0  0  0
    1.5530   -3.1361   11.7667 C   0  0  1  0  0  0  0  0  0  0  0  0
    2.0690   -3.2393   13.2135 C   0  0  0  0  0  0  0  0  0  0  0  0
    1.0324   -1.6969   11.5452 C   0  0  0  0  0  0  0  0  0  0  0  0
    0.3854   -4.1366   11.6019 C   0  0  0  0  0  0  0  0  0  0  0  0
    2.3479   -3.4021    9.3592 C   0  0  0  0  0  0  0  0  0  0  0  0
    3.2448   -3.6646    8.3051 C   0  0  0  0  0  0  0  0  0  0  0  0
    4.5539   -3.9976    8.7341 C   0  0  0  0  0  0  0  0  0  0  0  0
    5.6978   -4.3114    7.9797 N   0  0  0  0  0  0  0  0  0  0  0  0
    6.7432   -4.5661    8.8542 C   0  0  0  0  0  0  0  0  0  0  0  0
    7.0680   -4.8064   -1.6043 H   0  0  0  0  0  0  0  0  0  0  0  0
    7.3482   -5.7743   -0.1432 H   0  0  0  0  0  0  0  0  0  0  0  0
    7.7816   -4.0438   -0.1691 H   0  0  0  0  0  0  0  0  0  0  0  0
    5.3303   -3.0569   -1.7272 H   0  0  0  0  0  0  0  0  0  0  0  0
    5.9358   -2.2567   -0.2527 H   0  0  0  0  0  0  0  0  0  0  0  0
    4.2276   -2.7341   -0.3714 H   0  0  0  0  0  0  0  0  0  0  0  0
    4.7083   -5.5357   -1.6871 H   0  0  0  0  0  0  0  0  0  0  0  0
    3.5955   -5.2622   -0.3283 H   0  0  0  0  0  0  0  0  0  0  0  0
    4.8797   -6.4830   -0.1856 H   0  0  0  0  0  0  0  0  0  0  0  0
    7.5523   -4.8836    1.9005 H   0  0  0  0  0  0  0  0  0  0  0  0
    3.3887   -3.8290    1.4549 H   0  0  0  0  0  0  0  0  0  0  0  0
    1.3199   -3.2803    3.1822 H   0  0  0  0  0  0  0  0  0  0  0  0
   -1.2674   -4.8519    4.8760 H   0  0  0  0  0  0  0  0  0  0  0  0
   -0.8426   -4.0866    3.3288 H   0  0  0  0  0  0  0  0  0  0  0  0
   -2.3705   -3.6636    4.1329 H   0  0  0  0  0  0  0  0  0  0  0  0
   -1.3808   -3.4537    7.0292 H   0  0  0  0  0  0  0  0  0  0  0  0
   -2.4222   -2.2896    6.1873 H   0  0  0  0  0  0  0  0  0  0  0  0
   -0.9468   -1.7229    6.9942 H   0  0  0  0  0  0  0  0  0  0  0  0
   -0.2129   -1.5602    3.2763 H   0  0  0  0  0  0  0  0  0  0  0  0
   -0.2117   -0.6258    4.7885 H   0  0  0  0  0  0  0  0  0  0  0  0
   -1.7516   -1.1839    4.0826 H   0  0  0  0  0  0  0  0  0  0  0  0
    0.7683   -3.0697    7.4295 H   0  0  0  0  0  0  0  0  0  0  0  0
    9.1528   -5.2787    3.2127 H   0  0  0  0  0  0  0  0  0  0  0  0
   10.9233   -5.7125    4.8693 H   0  0  0  0  0  0  0  0  0  0  0  0
   10.4800   -5.5611    7.2878 H   0  0  0  0  0  0  0  0  0  0  0  0
    9.9695   -5.3926    9.3341 H   0  0  0  0  0  0  0  0  0  0  0  0
   10.4314   -3.2147   11.9379 H   0  0  0  0  0  0  0  0  0  0  0  0
   11.2790   -4.3571   10.8721 H   0  0  0  0  0  0  0  0  0  0  0  0
   11.5474   -4.4230   12.6277 H   0  0  0  0  0  0  0  0  0  0  0  0
    8.6600   -4.0546   13.5977 H   0  0  0  0  0  0  0  0  0  0  0  0
    9.8189   -5.2670   14.1795 H   0  0  0  0  0  0  0  0  0  0  0  0
    8.2115   -5.7806   13.6282 H   0  0  0  0  0  0  0  0  0  0  0  0
   10.6244   -6.8815   10.9176 H   0  0  0  0  0  0  0  0  0  0  0  0
    9.3361   -7.4310   12.0120 H   0  0  0  0  0  0  0  0  0  0  0  0
   10.9042   -6.8964   12.6726 H   0  0  0  0  0  0  0  0  0  0  0  0
    6.9047   -4.5415   12.2550 H   0  0  0  0  0  0  0  0  0  0  0  0
    4.2594   -3.8463   12.1525 H   0  0  0  0  0  0  0  0  0  0  0  0
    2.8874   -2.5290   13.4096 H   0  0  0  0  0  0  0  0  0  0  0  0
    2.4302   -4.2524   13.4498 H   0  0  0  0  0  0  0  0  0  0  0  0
    1.2546   -3.0069   13.9177 H   0  0  0  0  0  0  0  0  0  0  0  0
    1.8441   -0.9614   11.6614 H   0  0  0  0  0  0  0  0  0  0  0  0
    0.2447   -1.4546   12.2778 H   0  0  0  0  0  0  0  0  0  0  0  0
    0.6027   -1.5633   10.5407 H   0  0  0  0  0  0  0  0  0  0  0  0
    0.7275   -5.1717   11.7601 H   0  0  0  0  0  0  0  0  0  0  0  0
   -0.0648   -4.0838   10.5989 H   0  0  0  0  0  0  0  0  0  0  0  0
   -0.4108   -3.9245   12.3346 H   0  0  0  0  0  0  0  0  0  0  0  0
    1.3257   -3.1353    9.1061 H   0  0  0  0  0  0  0  0  0  0  0  0
  2  1  1  1
  1 50  1  0
  1 51  1  0
  1 52  1  0
  2  3  1  0
  2  4  1  0
  2  5  1  0
  3 53  1  0
  3 54  1  0
  3 55  1  0
  4 56  1  0
  4 57  1  0
  4 58  1  0
  5  6  2  0
  5 10  1  0
  6  7  1  0
  6 59  1  0
  7  8  2  0
  7 24  1  0
  8  9  1  0
  8 21  1  0
  9 10  2  0
  9 11  1  0
 10 60  1  0
 11 12  2  0
 11 20  1  0
 12 13  1  0
 12 61  1  0
 13 14  1  0
 13 18  2  0
 14 15  1  6
 14 16  1  0
 14 17  1  0
 15 62  1  0
 15 63  1  0
 15 64  1  0
 16 65  1  0
 16 66  1  0
 16 67  1  0
 17 68  1  0
 17 69  1  0
 17 70  1  0
 18 19  1  0
 18 71  1  0
 19 20  2  0
 19 46  1  0
 20 21  1  0
 21 22  1  0
 22 23  1  0
 22 48  1  0
 23 24  2  0
 23 28  1  0
 24 25  1  0
 25 26  2  0
 25 72  1  0
 26 27  1  0
 26 73  1  0
 27 28  2  0
 27 74  1  0
 28 29  1  0
 29 30  2  0
 29 49  1  0
 30 31  1  0
 30 75  1  0
 31 32  1  0
 31 36  2  0
 32 33  1  6
 32 34  1  0
 32 35  1  0
 33 76  1  0
 33 77  1  0
 33 78  1  0
 34 79  1  0
 34 80  1  0
 34 81  1  0
 35 82  1  0
 35 83  1  0
 35 84  1  0
 36 37  1  0
 36 85  1  0
 37 38  1  0
 37 49  2  0
 38 39  1  0
 38 47  2  0
 39 40  2  0
 39 86  1  0
 40 41  1  0
 40 45  1  0
 41 42  1  1
 41 43  1  0
 41 44  1  0
 42 87  1  0
 42 88  1  0
 42 89  1  0
 43 90  1  0
 43 91  1  0
 43 92  1  0
 44 93  1  0
 44 94  1  0
 44 95  1  0
 45 46  2  0
 45 96  1  0
 46 47  1  0
 47 48  1  0
 48 49  1  0
M  END

