
     RDKit          3D

 50 53  0  0  0  0  0  0  0  0999 V2000
    0.6428    0.0583   -0.1500 O   0  0  0  0  0  0  0  0  0  0  0  0
    1.8576    0.1037   -0.0246 C   0  0  0  0  0  0  0  0  0  0  0  0
    2.4960    1.0671    0.6990 N   0  0  0  0  0  0  0  0  0  0  0  0
    1.7909    2.0802    1.4587 C   0  0  0  0  0  0  0  0  0  0  0  0
    2.3213    2.1420    2.8956 C   0  0  0  0  0  0  0  0  0  0  0  0
    3.7751    2.3057    2.9245 N   0  0  0  0  0  0  0  0  0  0  0  0
    4.2544    3.6749    2.7014 C   0  0  0  0  0  0  0  0  0  0  0  0
    4.2261    4.5214    3.9783 C   0  0  0  0  0  0  0  0  0  0  0  0
    4.9440    3.8903    5.0215 O   0  0  0  0  0  0  0  0  0  0  0  0
    4.4346    2.6021    5.3137 C   0  0  0  0  0  0  0  0  0  0  0  0
    4.4709    1.7111    4.0694 C   0  0  0  0  0  0  0  0  0  0  0  0
    2.7388   -0.9747   -0.6253 C   0  0  0  0  0  0  0  0  0  0  0  0
    2.2315   -2.2569   -0.5733 C   0  0  0  0  0  0  0  0  0  0  0  0
    2.9912   -3.3609   -1.0556 C   0  0  0  0  0  0  0  0  0  0  0  0
    2.4717   -4.7572   -0.9824 C   0  0  0  0  0  0  0  0  0  0  0  0
    1.1739   -5.0648   -0.5375 C   0  0  0  0  0  0  0  0  0  0  0  0
    0.7303   -6.3848   -0.4889 C   0  0  0  0  0  0  0  0  0  0  0  0
    1.5696   -7.4322   -0.8811 C   0  0  0  0  0  0  0  0  0  0  0  0
    0.9868   -9.0683   -0.8058 Cl  0  0  0  0  0  0  0  0  0  0  0  0
    2.8698   -7.1379   -1.3302 C   0  0  0  0  0  0  0  0  0  0  0  0
    3.9516   -8.4083   -1.8308 Cl  0  0  0  0  0  0  0  0  0  0  0  0
    3.3065   -5.8155   -1.3788 C   0  0  0  0  0  0  0  0  0  0  0  0
    4.1945   -3.1889   -1.5747 N   0  0  0  0  0  0  0  0  0  0  0  0
    4.7100   -1.9416   -1.6913 C   0  0  0  0  0  0  0  0  0  0  0  0
    5.9892   -1.8042   -2.3035 C   0  0  0  0  0  0  0  0  0  0  0  0
    6.5520   -0.5612   -2.4907 C   0  0  0  0  0  0  0  0  0  0  0  0
    5.8548    0.6027   -2.0823 C   0  0  0  0  0  0  0  0  0  0  0  0
    4.6193    0.5058   -1.4738 C   0  0  0  0  0  0  0  0  0  0  0  0
    4.0163   -0.7637   -1.2399 C   0  0  0  0  0  0  0  0  0  0  0  0
    3.4876    0.9848    0.9061 H   0  0  0  0  0  0  0  0  0  0  0  0
    0.7208    1.8288    1.4501 H   0  0  0  0  0  0  0  0  0  0  0  0
    1.8912    3.0669    0.9694 H   0  0  0  0  0  0  0  0  0  0  0  0
    2.0798    1.1902    3.3949 H   0  0  0  0  0  0  0  0  0  0  0  0
    1.7680    2.9340    3.4418 H   0  0  0  0  0  0  0  0  0  0  0  0
    3.6603    4.1560    1.9082 H   0  0  0  0  0  0  0  0  0  0  0  0
    5.2970    3.6229    2.3403 H   0  0  0  0  0  0  0  0  0  0  0  0
    3.1780    4.7088    4.2951 H   0  0  0  0  0  0  0  0  0  0  0  0
    4.7012    5.5001    3.8068 H   0  0  0  0  0  0  0  0  0  0  0  0
    3.3969    2.6789    5.7037 H   0  0  0  0  0  0  0  0  0  0  0  0
    5.0632    2.1824    6.1149 H   0  0  0  0  0  0  0  0  0  0  0  0
    4.0418    0.7198    4.2868 H   0  0  0  0  0  0  0  0  0  0  0  0
    5.5279    1.5580    3.7860 H   0  0  0  0  0  0  0  0  0  0  0  0
    1.2401   -2.3926   -0.1436 H   0  0  0  0  0  0  0  0  0  0  0  0
    0.4854   -4.2776   -0.2291 H   0  0  0  0  0  0  0  0  0  0  0  0
   -0.2787   -6.6192   -0.1459 H   0  0  0  0  0  0  0  0  0  0  0  0
    4.3118   -5.5861   -1.7302 H   0  0  0  0  0  0  0  0  0  0  0  0
    6.4897   -2.7195   -2.6250 H   0  0  0  0  0  0  0  0  0  0  0  0
    7.5311   -0.4675   -2.9672 H   0  0  0  0  0  0  0  0  0  0  0  0
    6.2950    1.5872   -2.2592 H   0  0  0  0  0  0  0  0  0  0  0  0
    4.0876    1.4131   -1.1870 H   0  0  0  0  0  0  0  0  0  0  0  0
  1  2  2  0
  2  3  1  0
  2 12  1  0
  3  4  1  0
  3 30  1  0
  4  5  1  0
  4 31  1  0
  4 32  1  0
  5  6  1  0
  5 33  1  0
  5 34  1  0
  6  7  1  0
  6 11  1  0
  7  8  1  0
  7 35  1  0
  7 36  1  0
  8  9  1  0
  8 37  1  0
  8 38  1  0
  9 10  1  0
 10 11  1  0
 10 39  1  0
 10 40  1  0
 11 41  1  0
 11 42  1  0
 12 13  2  0
 12 29  1  0
 13 14  1  0
 13 43  1  0
 14 15  1  0
 14 23  2  0
 15 16  2  0
 15 22  1  0
 16 17  1  0
 16 44  1  0
 17 18  2  0
 17 45  1  0
 18 19  1  0
 18 20  1  0
 20 21  1  0
 20 22  2  0
 22 46  1  0
 23 24  1  0
 24 25  1  0
 24 29  2  0
 25 26  2  0
 25 47  1  0
 26 27  1  0
 26 48  1  0
 27 28  2  0
 27 49  1  0
 28 29  1  0
 28 50  1  0
M  END

