
     RDKit          3D

 30 31  0  0  0  0  0  0  0  0999 V2000
    0.4404   -0.3044   -0.2255 C   0  0  0  0  0  0  0  0  0  0  0  0
    1.8976    0.0960    0.0502 C   0  0  1  0  0  0  0  0  0  0  0  0
    2.2161   -0.1851    1.4332 N   0  0  0  0  0  0  0  0  0  0  0  0
    3.2125    0.4292    2.1584 C   0  0  0  0  0  0  0  0  0  0  0  0
    4.1358    1.3233    1.5686 C   0  0  0  0  0  0  0  0  0  0  0  0
    5.1344    1.9373    2.3238 C   0  0  0  0  0  0  0  0  0  0  0  0
    5.2591    1.6839    3.6917 C   0  0  0  0  0  0  0  0  0  0  0  0
    4.3647    0.7986    4.3001 C   0  0  0  0  0  0  0  0  0  0  0  0
    3.3664    0.1861    3.5469 C   0  0  0  0  0  0  0  0  0  0  0  0
    2.1628   -1.0243    4.4272 Br  0  0  0  0  0  0  0  0  0  0  0  0
    2.8470   -0.6013   -0.9349 C   0  0  0  0  0  0  0  0  0  0  0  0
    3.4773   -1.7997   -0.5800 C   0  0  0  0  0  0  0  0  0  0  0  0
    4.3110   -2.4785   -1.4642 C   0  0  0  0  0  0  0  0  0  0  0  0
    4.5406   -1.9637   -2.7418 C   0  0  0  0  0  0  0  0  0  0  0  0
    5.5903   -2.8256   -3.8284 Cl  0  0  0  0  0  0  0  0  0  0  0  0
    3.9302   -0.7592   -3.1346 C   0  0  0  0  0  0  0  0  0  0  0  0
    4.2168   -0.1059   -4.7147 Cl  0  0  0  0  0  0  0  0  0  0  0  0
    3.0854   -0.0936   -2.2237 C   0  0  0  0  0  0  0  0  0  0  0  0
    2.3290    1.4055   -2.7187 Cl  0  0  0  0  0  0  0  0  0  0  0  0
   -0.2412    0.2498    0.4387 H   0  0  0  0  0  0  0  0  0  0  0  0
    0.2952   -1.3847   -0.0616 H   0  0  0  0  0  0  0  0  0  0  0  0
    0.1700   -0.0787   -1.2661 H   0  0  0  0  0  0  0  0  0  0  0  0
    1.9807    1.1816   -0.1246 H   0  0  0  0  0  0  0  0  0  0  0  0
    1.5607   -0.7469    1.9631 H   0  0  0  0  0  0  0  0  0  0  0  0
    4.0719    1.5302    0.5000 H   0  0  0  0  0  0  0  0  0  0  0  0
    5.8271    2.6220    1.8279 H   0  0  0  0  0  0  0  0  0  0  0  0
    6.0418    2.1631    4.2832 H   0  0  0  0  0  0  0  0  0  0  0  0
    4.4379    0.5793    5.3669 H   0  0  0  0  0  0  0  0  0  0  0  0
    3.3144   -2.1937    0.4250 H   0  0  0  0  0  0  0  0  0  0  0  0
    4.7965   -3.4111   -1.1735 H   0  0  0  0  0  0  0  0  0  0  0  0
  1  2  1  0
  1 20  1  0
  1 21  1  0
  1 22  1  0
  2  3  1  0
  2 11  1  0
  2 23  1  1
  3  4  1  0
  3 24  1  0
  4  5  2  0
  4  9  1  0
  5  6  1  0
  5 25  1  0
  6  7  2  0
  6 26  1  0
  7  8  1  0
  7 27  1  0
  8  9  2  0
  8 28  1  0
  9 10  1  0
 11 12  2  0
 11 18  1  0
 12 13  1  0
 12 29  1  0
 13 14  2  0
 13 30  1  0
 14 15  1  0
 14 16  1  0
 16 17  1  0
 16 18  2  0
 18 19  1  0
M  END

