
     RDKit          3D

 34 36  0  0  0  0  0  0  0  0999 V2000
   -1.7700   -2.5615    1.1888 O   0  0  0  0  0  0  0  0  0  0  0  0
   -0.6741   -2.4301    0.6738 C   0  0  0  0  0  0  0  0  0  0  0  0
    0.3651   -1.4744    1.2724 C   0  0  0  0  0  0  0  0  0  0  0  0
    1.8094   -1.9888    1.4368 C   0  0  2  0  0  0  0  0  0  0  0  0
    2.3531   -1.2233    2.0240 H   0  0  0  0  0  0  0  0  0  0  0  0
    2.5139   -2.2305    0.1737 N   0  0  0  0  0  0  0  0  0  0  0  0
    3.2155   -3.4391    0.1414 C   0  0  0  0  0  0  0  0  0  0  0  0
    3.9838   -3.7856   -0.7286 O   0  0  0  0  0  0  0  0  0  0  0  0
    2.7881   -4.1634    1.3712 C   0  0  0  0  0  0  0  0  0  0  0  0
    3.1157   -5.4545    1.7851 C   0  0  0  0  0  0  0  0  0  0  0  0
    2.5766   -5.9103    2.9908 C   0  0  0  0  0  0  0  0  0  0  0  0
    1.7311   -5.0854    3.7501 C   0  0  0  0  0  0  0  0  0  0  0  0
    1.4099   -3.7887    3.3286 C   0  0  0  0  0  0  0  0  0  0  0  0
    1.9554   -3.3333    2.1287 C   0  0  0  0  0  0  0  0  0  0  0  0
   -0.2717   -3.0613   -0.4772 N   0  0  0  0  0  0  0  0  0  0  0  0
   -0.9781   -3.9874   -1.2681 C   0  0  0  0  0  0  0  0  0  0  0  0
   -2.3218   -4.3356   -1.0399 C   0  0  0  0  0  0  0  0  0  0  0  0
   -2.9472   -5.2570   -1.8814 C   0  0  0  0  0  0  0  0  0  0  0  0
   -2.2592   -5.8354   -2.9430 C   0  0  0  0  0  0  0  0  0  0  0  0
   -2.8755   -6.7143   -3.7387 F   0  0  0  0  0  0  0  0  0  0  0  0
   -0.9214   -5.4962   -3.1755 C   0  0  0  0  0  0  0  0  0  0  0  0
   -0.0645   -6.2258   -4.5025 Cl  0  0  0  0  0  0  0  0  0  0  0  0
   -0.2853   -4.5787   -2.3400 C   0  0  0  0  0  0  0  0  0  0  0  0
   -0.0318   -1.1907    2.2570 H   0  0  0  0  0  0  0  0  0  0  0  0
    0.3848   -0.5508    0.6666 H   0  0  0  0  0  0  0  0  0  0  0  0
    2.8453   -1.4632   -0.4032 H   0  0  0  0  0  0  0  0  0  0  0  0
    3.7716   -6.0777    1.1731 H   0  0  0  0  0  0  0  0  0  0  0  0
    2.8083   -6.9170    3.3467 H   0  0  0  0  0  0  0  0  0  0  0  0
    1.3141   -5.4625    4.6873 H   0  0  0  0  0  0  0  0  0  0  0  0
    0.7466   -3.1623    3.9300 H   0  0  0  0  0  0  0  0  0  0  0  0
    0.6905   -2.8802   -0.7548 H   0  0  0  0  0  0  0  0  0  0  0  0
   -2.8563   -3.8857   -0.2073 H   0  0  0  0  0  0  0  0  0  0  0  0
   -3.9897   -5.5409   -1.7218 H   0  0  0  0  0  0  0  0  0  0  0  0
    0.7618   -4.3334   -2.5311 H   0  0  0  0  0  0  0  0  0  0  0  0
  1  2  2  0
  2  3  1  0
  2 15  1  0
  3  4  1  0
  3 24  1  0
  3 25  1  0
  4  5  1  1
  4  6  1  0
  4 14  1  0
  6  7  1  0
  6 26  1  0
  7  8  2  0
  7  9  1  0
  9 10  1  0
  9 14  2  0
 10 11  2  0
 10 27  1  0
 11 12  1  0
 11 28  1  0
 12 13  2  0
 12 29  1  0
 13 14  1  0
 13 30  1  0
 15 16  1  0
 15 31  1  0
 16 17  2  0
 16 23  1  0
 17 18  1  0
 17 32  1  0
 18 19  2  0
 18 33  1  0
 19 20  1  0
 19 21  1  0
 21 22  1  0
 21 23  2  0
 23 34  1  0
M  END

