
     RDKit          3D

 35 36  0  0  0  0  0  0  0  0999 V2000
    1.1002   -0.8667   -0.2160 C   0  0  0  0  0  0  0  0  0  0  0  0
    2.5038   -0.5084   -0.1717 N   0  0  0  0  0  0  0  0  0  0  0  0
    2.9105    0.1744    1.0422 C   0  0  0  0  0  0  0  0  0  0  0  0
    4.4317    0.3966    1.0611 C   0  0  0  0  0  0  0  0  0  0  0  0
    4.9155    1.1768    2.2655 C   0  0  0  0  0  0  0  0  0  0  0  0
    4.9662    2.5772    2.1590 C   0  0  0  0  0  0  0  0  0  0  0  0
    5.3775    3.3920    3.2137 C   0  0  0  0  0  0  0  0  0  0  0  0
    5.7745    2.8130    4.4209 C   0  0  0  0  0  0  0  0  0  0  0  0
    5.7582    1.4260    4.5460 C   0  0  0  0  0  0  0  0  0  0  0  0
    5.3232    0.5919    3.4958 C   0  0  0  0  0  0  0  0  0  0  0  0
    5.2916   -0.8949    3.7102 C   0  0  0  0  0  0  0  0  0  0  0  0
    4.5516   -1.6221    3.0783 O   0  0  0  0  0  0  0  0  0  0  0  0
    6.2061   -1.4852    4.7966 C   0  0  0  0  0  0  0  0  0  0  0  0
    6.5083   -2.9500    4.6800 C   0  0  0  0  0  0  0  0  0  0  0  0
    7.7455   -3.5401    4.8168 C   0  0  0  0  0  0  0  0  0  0  0  0
    7.7087   -4.9645    4.7341 C   0  0  0  0  0  0  0  0  0  0  0  0
    6.4369   -5.4418    4.5429 C   0  0  0  0  0  0  0  0  0  0  0  0
    5.2793   -4.1615    4.4356 S   0  0  0  0  0  0  0  0  0  0  0  0
    0.8628   -1.3420   -1.1812 H   0  0  0  0  0  0  0  0  0  0  0  0
    0.3972   -0.0133   -0.0757 H   0  0  0  0  0  0  0  0  0  0  0  0
    0.8760   -1.6020    0.5753 H   0  0  0  0  0  0  0  0  0  0  0  0
    2.7456    0.0558   -0.9860 H   0  0  0  0  0  0  0  0  0  0  0  0
    2.6414   -0.4582    1.9026 H   0  0  0  0  0  0  0  0  0  0  0  0
    2.3926    1.1519    1.1907 H   0  0  0  0  0  0  0  0  0  0  0  0
    4.7109    0.9658    0.1566 H   0  0  0  0  0  0  0  0  0  0  0  0
    4.9120   -0.5872    0.9913 H   0  0  0  0  0  0  0  0  0  0  0  0
    4.6732    3.0382    1.2114 H   0  0  0  0  0  0  0  0  0  0  0  0
    5.3937    4.4780    3.0901 H   0  0  0  0  0  0  0  0  0  0  0  0
    6.0998    3.4358    5.2575 H   0  0  0  0  0  0  0  0  0  0  0  0
    6.0722    0.9846    5.4930 H   0  0  0  0  0  0  0  0  0  0  0  0
    5.7047   -1.2739    5.7620 H   0  0  0  0  0  0  0  0  0  0  0  0
    7.1576   -0.9340    4.8298 H   0  0  0  0  0  0  0  0  0  0  0  0
    8.6588   -2.9643    4.9812 H   0  0  0  0  0  0  0  0  0  0  0  0
    8.5900   -5.6035    4.8089 H   0  0  0  0  0  0  0  0  0  0  0  0
    6.1172   -6.4765    4.4245 H   0  0  0  0  0  0  0  0  0  0  0  0
  1  2  1  0
  1 19  1  0
  1 20  1  0
  1 21  1  0
  2  3  1  0
  2 22  1  0
  3  4  1  0
  3 23  1  0
  3 24  1  0
  4  5  1  0
  4 25  1  0
  4 26  1  0
  5  6  2  0
  5 10  1  0
  6  7  1  0
  6 27  1  0
  7  8  2  0
  7 28  1  0
  8  9  1  0
  8 29  1  0
  9 10  2  0
  9 30  1  0
 10 11  1  0
 11 12  2  0
 11 13  1  0
 13 14  1  0
 13 31  1  0
 13 32  1  0
 14 15  2  0
 14 18  1  0
 15 16  1  0
 15 33  1  0
 16 17  2  0
 16 34  1  0
 17 18  1  0
 17 35  1  0
M  END

