
     RDKit          3D

 67 69  0  0  0  0  0  0  0  0999 V2000
    7.1340   -1.9284    3.3614 C   0  0  0  0  0  0  0  0  0  0  0  0
    6.8809   -0.4235    3.2603 C   0  0  0  0  0  0  0  0  0  0  0  0
    7.7063    0.2889    2.1773 C   0  0  0  0  0  0  0  0  0  0  0  0
    7.5091   -0.2131    0.8124 N   0  0  0  0  0  0  0  0  0  0  0  0
    6.3530    0.2928    0.0703 C   0  0  0  0  0  0  0  0  0  0  0  0
    5.0868   -0.5735    0.1110 C   0  0  0  0  0  0  0  0  0  0  0  0
    3.9494    0.0313   -0.7124 C   0  0  0  0  0  0  0  0  0  0  0  0
    8.4697   -1.0562    0.3013 C   0  0  0  0  0  0  0  0  0  0  0  0
    9.4747   -1.3419    0.9463 O   0  0  0  0  0  0  0  0  0  0  0  0
    8.2932   -1.6326   -1.1031 C   0  0  0  0  0  0  0  0  0  0  0  0
    8.0488   -3.1744   -1.1328 C   0  0  1  0  0  0  0  0  0  0  0  0
    6.9099   -3.4460   -0.3168 O   0  0  0  0  0  0  0  0  0  0  0  0
    7.7811   -3.5650   -2.6112 C   0  0  0  0  0  0  0  0  0  0  0  0
    7.6909   -5.0581   -2.9626 C   0  0  0  0  0  0  0  0  0  0  0  0
    6.6521   -5.8505   -2.1890 C   0  0  1  0  0  0  0  0  0  0  0  0
    5.4375   -5.0931   -2.0371 O   0  0  0  0  0  0  0  0  0  0  0  0
    4.3383   -5.9985   -2.1159 C   0  0  0  0  0  0  0  0  0  0  0  0
    5.0174   -7.3644   -2.3443 C   0  0  0  0  0  0  0  0  0  0  0  0
    6.2774   -7.0077   -2.8786 O   0  0  0  0  0  0  0  0  0  0  0  0
    9.2368   -3.9389   -0.5703 C   0  0  0  0  0  0  0  0  0  0  0  0
    9.1895   -4.9045    0.4909 C   0  0  0  0  0  0  0  0  0  0  0  0
   10.4678   -5.3546    0.7169 C   0  0  0  0  0  0  0  0  0  0  0  0
   11.2993   -4.7049   -0.1826 N   0  0  0  0  0  0  0  0  0  0  0  0
   13.0119   -4.6654   -0.0861 S   0  0  1  0  0  0  0  0  0  0  0  0
   13.4502   -6.0126    0.2659 O   0  0  0  0  0  0  0  0  0  0  0  0
   13.4493   -4.0134   -1.3168 O   0  0  0  0  0  0  0  0  0  0  0  0
   13.3209   -3.5905    1.3204 C   0  0  0  0  0  0  0  0  0  0  0  0
   14.4426   -3.8853    2.1034 C   0  0  0  0  0  0  0  0  0  0  0  0
   14.7675   -3.0351    3.1626 C   0  0  0  0  0  0  0  0  0  0  0  0
   13.9708   -1.9178    3.4345 C   0  0  0  0  0  0  0  0  0  0  0  0
   12.8435   -1.6495    2.6513 C   0  0  0  0  0  0  0  0  0  0  0  0
   12.5076   -2.4821    1.5799 C   0  0  0  0  0  0  0  0  0  0  0  0
   10.5514   -3.8354   -0.9653 C   0  0  0  0  0  0  0  0  0  0  0  0
    6.5359   -2.3730    4.1733 H   0  0  0  0  0  0  0  0  0  0  0  0
    8.1958   -2.1421    3.5599 H   0  0  0  0  0  0  0  0  0  0  0  0
    6.8703   -2.4444    2.4249 H   0  0  0  0  0  0  0  0  0  0  0  0
    7.1231    0.0650    4.2215 H   0  0  0  0  0  0  0  0  0  0  0  0
    5.8054   -0.2340    3.0951 H   0  0  0  0  0  0  0  0  0  0  0  0
    8.7750    0.1798    2.4033 H   0  0  0  0  0  0  0  0  0  0  0  0
    7.4668    1.3660    2.1821 H   0  0  0  0  0  0  0  0  0  0  0  0
    6.6373    0.4709   -0.9789 H   0  0  0  0  0  0  0  0  0  0  0  0
    6.1223    1.2905    0.4809 H   0  0  0  0  0  0  0  0  0  0  0  0
    4.7659   -0.7004    1.1579 H   0  0  0  0  0  0  0  0  0  0  0  0
    5.3398   -1.5812   -0.2511 H   0  0  0  0  0  0  0  0  0  0  0  0
    3.6696    1.0342   -0.3470 H   0  0  0  0  0  0  0  0  0  0  0  0
    3.0469   -0.5983   -0.6711 H   0  0  0  0  0  0  0  0  0  0  0  0
    4.2297    0.1363   -1.7746 H   0  0  0  0  0  0  0  0  0  0  0  0
    9.2283   -1.4123   -1.6402 H   0  0  0  0  0  0  0  0  0  0  0  0
    7.4743   -1.1614   -1.6597 H   0  0  0  0  0  0  0  0  0  0  0  0
    6.2061   -3.8640   -0.8438 H   0  0  0  0  0  0  0  0  0  0  0  0
    8.5871   -3.1319   -3.2245 H   0  0  0  0  0  0  0  0  0  0  0  0
    6.8492   -3.0649   -2.9247 H   0  0  0  0  0  0  0  0  0  0  0  0
    8.6664   -5.5479   -2.8210 H   0  0  0  0  0  0  0  0  0  0  0  0
    7.4288   -5.1484   -4.0290 H   0  0  0  0  0  0  0  0  0  0  0  0
    7.0160   -6.1139   -1.1742 H   0  0  0  0  0  0  0  0  0  0  0  0
    3.6921   -5.7058   -2.9603 H   0  0  0  0  0  0  0  0  0  0  0  0
    3.7429   -5.9715   -1.1879 H   0  0  0  0  0  0  0  0  0  0  0  0
    4.4924   -8.0067   -3.0651 H   0  0  0  0  0  0  0  0  0  0  0  0
    5.1335   -7.9160   -1.3909 H   0  0  0  0  0  0  0  0  0  0  0  0
    8.2943   -5.2084    1.0272 H   0  0  0  0  0  0  0  0  0  0  0  0
   10.8709   -6.0770    1.4218 H   0  0  0  0  0  0  0  0  0  0  0  0
   15.0395   -4.7732    1.8879 H   0  0  0  0  0  0  0  0  0  0  0  0
   15.6417   -3.2522    3.7812 H   0  0  0  0  0  0  0  0  0  0  0  0
   14.2251   -1.2585    4.2684 H   0  0  0  0  0  0  0  0  0  0  0  0
   12.2052   -0.7909    2.8711 H   0  0  0  0  0  0  0  0  0  0  0  0
   11.6034   -2.2697    1.0029 H   0  0  0  0  0  0  0  0  0  0  0  0
   11.0481   -3.2171   -1.7076 H   0  0  0  0  0  0  0  0  0  0  0  0
  1  2  1  0
  1 34  1  0
  1 35  1  0
  1 36  1  0
  2  3  1  0
  2 37  1  0
  2 38  1  0
  3  4  1  0
  3 39  1  0
  3 40  1  0
  4  5  1  0
  4  8  1  0
  5  6  1  0
  5 41  1  0
  5 42  1  0
  6  7  1  0
  6 43  1  0
  6 44  1  0
  7 45  1  0
  7 46  1  0
  7 47  1  0
  8  9  2  0
  8 10  1  0
 10 11  1  0
 10 48  1  0
 10 49  1  0
 11 12  1  1
 11 13  1  0
 11 20  1  0
 12 50  1  0
 13 14  1  0
 13 51  1  0
 13 52  1  0
 14 15  1  0
 14 53  1  0
 14 54  1  0
 15 16  1  0
 15 19  1  0
 15 55  1  1
 16 17  1  0
 17 18  1  0
 17 56  1  0
 17 57  1  0
 18 19  1  0
 18 58  1  0
 18 59  1  0
 20 21  1  0
 20 33  2  0
 21 22  2  0
 21 60  1  0
 22 23  1  0
 22 61  1  0
 23 24  1  0
 23 33  1  0
 24 25  2  0
 24 26  2  0
 24 27  1  1
 27 28  2  0
 27 32  1  0
 28 29  1  0
 28 62  1  0
 29 30  2  0
 29 63  1  0
 30 31  1  0
 30 64  1  0
 31 32  2  0
 31 65  1  0
 32 66  1  0
 33 67  1  0
M  END

