
     RDKit          3D

 38 40  0  0  0  0  0  0  0  0999 V2000
    1.3705    1.0980   -0.6538 O   0  0  0  0  0  0  0  0  0  0  0  0
    2.3157    0.4845   -0.1739 C   0  0  0  0  0  0  0  0  0  0  0  0
    2.9441    0.8601    0.9715 N   0  0  0  0  0  0  0  0  0  0  0  0
    2.5237    2.0005    1.7539 C   0  0  0  0  0  0  0  0  0  0  0  0
    2.1075    1.6323    3.1811 C   0  0  0  0  0  0  0  0  0  0  0  0
    3.5740    1.0501    4.1176 S   0  0  0  0  0  0  0  0  0  0  0  0
    2.8857    0.2143    5.5306 C   0  0  0  0  0  0  0  0  0  0  0  0
    3.7609   -0.6114    6.2607 C   0  0  0  0  0  0  0  0  0  0  0  0
    3.3149   -1.2759    7.4028 C   0  0  0  0  0  0  0  0  0  0  0  0
    1.9898   -1.1386    7.8318 C   0  0  0  0  0  0  0  0  0  0  0  0
    1.1192   -0.3218    7.1076 C   0  0  0  0  0  0  0  0  0  0  0  0
    1.5589    0.3586    5.9669 C   0  0  0  0  0  0  0  0  0  0  0  0
    2.8928   -0.7669   -0.8171 C   0  0  0  0  0  0  0  0  0  0  0  0
    3.8825   -1.3082   -0.1651 N   0  0  0  0  0  0  0  0  0  0  0  0
    4.4611   -2.4097   -0.6360 N   0  0  0  0  0  0  0  0  0  0  0  0
    5.2262   -2.7811   -0.0770 H   0  0  0  0  0  0  0  0  0  0  0  0
    4.1445   -3.1143   -1.7986 C   0  0  0  0  0  0  0  0  0  0  0  0
    4.7663   -4.1151   -2.1054 O   0  0  0  0  0  0  0  0  0  0  0  0
    3.0273   -2.5116   -2.5472 C   0  0  0  0  0  0  0  0  0  0  0  0
    2.6091   -3.1231   -3.7399 C   0  0  0  0  0  0  0  0  0  0  0  0
    1.5594   -2.5768   -4.4664 C   0  0  0  0  0  0  0  0  0  0  0  0
    0.9217   -1.4135   -4.0019 C   0  0  0  0  0  0  0  0  0  0  0  0
    1.3233   -0.7960   -2.8230 C   0  0  0  0  0  0  0  0  0  0  0  0
    2.3905   -1.3356   -2.0673 C   0  0  0  0  0  0  0  0  0  0  0  0
    3.6953    0.2640    1.3066 H   0  0  0  0  0  0  0  0  0  0  0  0
    1.6655    2.4468    1.2309 H   0  0  0  0  0  0  0  0  0  0  0  0
    3.3228    2.7641    1.7844 H   0  0  0  0  0  0  0  0  0  0  0  0
    1.3536    0.8310    3.1582 H   0  0  0  0  0  0  0  0  0  0  0  0
    1.6745    2.5143    3.6787 H   0  0  0  0  0  0  0  0  0  0  0  0
    4.7937   -0.7353    5.9243 H   0  0  0  0  0  0  0  0  0  0  0  0
    4.0080   -1.9137    7.9576 H   0  0  0  0  0  0  0  0  0  0  0  0
    1.6404   -1.6650    8.7230 H   0  0  0  0  0  0  0  0  0  0  0  0
    0.0822   -0.2023    7.4326 H   0  0  0  0  0  0  0  0  0  0  0  0
    0.8610    1.0034    5.4316 H   0  0  0  0  0  0  0  0  0  0  0  0
    3.1309   -4.0249   -4.0656 H   0  0  0  0  0  0  0  0  0  0  0  0
    1.2298   -3.0485   -5.3954 H   0  0  0  0  0  0  0  0  0  0  0  0
    0.0956   -0.9838   -4.5743 H   0  0  0  0  0  0  0  0  0  0  0  0
    0.8319    0.1038   -2.4595 H   0  0  0  0  0  0  0  0  0  0  0  0
  1  2  2  0
  2  3  1  0
  2 13  1  0
  3  4  1  0
  3 25  1  0
  4  5  1  0
  4 26  1  0
  4 27  1  0
  5  6  1  0
  5 28  1  0
  5 29  1  0
  6  7  1  0
  7  8  2  0
  7 12  1  0
  8  9  1  0
  8 30  1  0
  9 10  2  0
  9 31  1  0
 10 11  1  0
 10 32  1  0
 11 12  2  0
 11 33  1  0
 12 34  1  0
 13 14  2  0
 13 24  1  0
 14 15  1  0
 15 16  1  0
 15 17  1  0
 17 18  2  0
 17 19  1  0
 19 20  1  0
 19 24  2  0
 20 21  2  0
 20 35  1  0
 21 22  1  0
 21 36  1  0
 22 23  2  0
 22 37  1  0
 23 24  1  0
 23 38  1  0
M  END

