
     RDKit          3D

 50 50  0  0  0  0  0  0  0  0999 V2000
    1.5280    7.5912    1.7167 C   0  0  0  0  0  0  0  0  0  0  0  0
    1.4386    6.4039    1.0962 C   0  0  0  0  0  0  0  0  0  0  0  0
    0.9562    6.2338   -0.3268 C   0  0  0  0  0  0  0  0  0  0  0  0
    1.9951    5.6755   -1.3282 C   0  0  2  0  0  0  0  0  0  0  0  0
    2.3796    4.7346   -0.9056 H   0  0  0  0  0  0  0  0  0  0  0  0
    3.2230    6.5982   -1.5755 C   0  0  0  0  0  0  0  0  0  0  0  0
    2.9434    7.8940   -2.3104 C   0  0  0  0  0  0  0  0  0  0  0  0
    2.8944    7.9213   -3.7174 C   0  0  0  0  0  0  0  0  0  0  0  0
    2.6237    9.1121   -4.3997 C   0  0  0  0  0  0  0  0  0  0  0  0
    2.4038   10.2987   -3.6942 C   0  0  0  0  0  0  0  0  0  0  0  0
    2.4661   10.2888   -2.2977 C   0  0  0  0  0  0  0  0  0  0  0  0
    2.7340    9.0979   -1.6160 C   0  0  0  0  0  0  0  0  0  0  0  0
    1.2801    5.2952   -2.5578 N   0  0  0  0  0  0  0  0  0  0  0  0
    2.0213    4.0681   -3.4989 S   0  0  0  0  0  0  0  0  0  0  0  0
    3.0052    4.6512   -4.4916 O   0  0  0  0  0  0  0  0  0  0  0  0
    0.5100    3.5770   -4.5466 C   0  0  1  0  0  0  0  0  0  0  0  0
    1.0629    2.4864   -5.4737 C   0  0  0  0  0  0  0  0  0  0  0  0
   -0.5658    3.0303   -3.6098 C   0  0  0  0  0  0  0  0  0  0  0  0
    0.0466    4.7892   -5.3522 C   0  0  0  0  0  0  0  0  0  0  0  0
    1.7863    5.1942    1.9222 C   0  0  0  0  0  0  0  0  0  0  0  0
    2.2575    5.2284    3.0352 O   0  0  0  0  0  0  0  0  0  0  0  0
    1.4938    4.0438    1.2784 O   0  0  0  0  0  0  0  0  0  0  0  0
    1.7549    2.8084    1.9719 C   0  0  0  0  0  0  0  0  0  0  0  0
    0.5969    2.4140    2.8732 C   0  0  0  0  0  0  0  0  0  0  0  0
    1.2641    8.5205    1.2064 H   0  0  0  0  0  0  0  0  0  0  0  0
    1.8584    7.6452    2.7566 H   0  0  0  0  0  0  0  0  0  0  0  0
    0.5785    7.2019   -0.6935 H   0  0  0  0  0  0  0  0  0  0  0  0
    0.1102    5.5297   -0.3349 H   0  0  0  0  0  0  0  0  0  0  0  0
    3.9546    6.0126   -2.1537 H   0  0  0  0  0  0  0  0  0  0  0  0
    3.6849    6.8168   -0.5993 H   0  0  0  0  0  0  0  0  0  0  0  0
    3.0855    6.9997   -4.2752 H   0  0  0  0  0  0  0  0  0  0  0  0
    2.5959    9.1125   -5.4928 H   0  0  0  0  0  0  0  0  0  0  0  0
    2.1971   11.2291   -4.2295 H   0  0  0  0  0  0  0  0  0  0  0  0
    2.3136   11.2140   -1.7354 H   0  0  0  0  0  0  0  0  0  0  0  0
    2.8021    9.1058   -0.5252 H   0  0  0  0  0  0  0  0  0  0  0  0
    1.0255    6.1049   -3.1295 H   0  0  0  0  0  0  0  0  0  0  0  0
    1.4266    1.6163   -4.9027 H   0  0  0  0  0  0  0  0  0  0  0  0
    1.8940    2.8729   -6.0813 H   0  0  0  0  0  0  0  0  0  0  0  0
    0.2662    2.1359   -6.1500 H   0  0  0  0  0  0  0  0  0  0  0  0
   -0.1802    2.2004   -2.9950 H   0  0  0  0  0  0  0  0  0  0  0  0
   -1.4097    2.6399   -4.2034 H   0  0  0  0  0  0  0  0  0  0  0  0
   -0.9462    3.8092   -2.9344 H   0  0  0  0  0  0  0  0  0  0  0  0
    0.8979    5.2498   -5.8764 H   0  0  0  0  0  0  0  0  0  0  0  0
   -0.4389    5.5470   -4.7174 H   0  0  0  0  0  0  0  0  0  0  0  0
   -0.6926    4.4748   -6.1077 H   0  0  0  0  0  0  0  0  0  0  0  0
    2.6846    2.9156    2.5497 H   0  0  0  0  0  0  0  0  0  0  0  0
    1.9095    2.0689    1.1728 H   0  0  0  0  0  0  0  0  0  0  0  0
    0.4688    3.1436    3.6863 H   0  0  0  0  0  0  0  0  0  0  0  0
    0.7950    1.4291    3.3256 H   0  0  0  0  0  0  0  0  0  0  0  0
   -0.3426    2.3477    2.3026 H   0  0  0  0  0  0  0  0  0  0  0  0
  1  2  2  0
  1 25  1  0
  1 26  1  0
  2  3  1  0
  2 20  1  0
  3  4  1  0
  3 27  1  0
  3 28  1  0
  4  5  1  1
  4  6  1  0
  4 13  1  0
  6  7  1  0
  6 29  1  0
  6 30  1  0
  7  8  2  0
  7 12  1  0
  8  9  1  0
  8 31  1  0
  9 10  2  0
  9 32  1  0
 10 11  1  0
 10 33  1  0
 11 12  2  0
 11 34  1  0
 12 35  1  0
 13 14  1  0
 13 36  1  0
 14 15  1  6
 14 16  1  0
 16 17  1  6
 16 18  1  0
 16 19  1  0
 17 37  1  0
 17 38  1  0
 17 39  1  0
 18 40  1  0
 18 41  1  0
 18 42  1  0
 19 43  1  0
 19 44  1  0
 19 45  1  0
 20 21  2  0
 20 22  1  0
 22 23  1  0
 23 24  1  0
 23 46  1  0
 23 47  1  0
 24 48  1  0
 24 49  1  0
 24 50  1  0
M  CHG  2  14   1  15  -1
M  END

