
     RDKit          3D

 42 45  0  0  0  0  0  0  0  0999 V2000
    6.7640    7.6974   -2.0196 O   0  0  0  0  0  0  0  0  0  0  0  0
    7.3404    6.6891   -2.3560 C   0  0  0  0  0  0  0  0  0  0  0  0
    6.6709    5.4693   -2.8721 C   0  0  0  0  0  0  0  0  0  0  0  0
    5.2713    5.4316   -2.9960 C   0  0  0  0  0  0  0  0  0  0  0  0
    4.6394    4.2913   -3.4811 C   0  0  0  0  0  0  0  0  0  0  0  0
    5.4107    3.1786   -3.8430 C   0  0  0  0  0  0  0  0  0  0  0  0
    4.7356    2.0464   -4.2413 O   0  0  0  0  0  0  0  0  0  0  0  0
    5.0289    1.3759   -5.3911 C   0  0  0  0  0  0  0  0  0  0  0  0
    5.6696    1.9574   -6.4767 C   0  0  0  0  0  0  0  0  0  0  0  0
    5.8905    1.2081   -7.6476 C   0  0  0  0  0  0  0  0  0  0  0  0
    5.4800   -0.1138   -7.7403 C   0  0  0  0  0  0  0  0  0  0  0  0
    4.8173   -0.7212   -6.6421 C   0  0  0  0  0  0  0  0  0  0  0  0
    4.3828   -2.0688   -6.7284 C   0  0  0  0  0  0  0  0  0  0  0  0
    3.7291   -2.6611   -5.6575 C   0  0  0  0  0  0  0  0  0  0  0  0
    3.4928   -1.9308   -4.4741 C   0  0  0  0  0  0  0  0  0  0  0  0
    3.9086   -0.6154   -4.3651 C   0  0  0  0  0  0  0  0  0  0  0  0
    4.5780    0.0182   -5.4440 C   0  0  0  0  0  0  0  0  0  0  0  0
    4.6338   -2.8634   -7.9610 C   0  0  0  0  0  0  0  0  0  0  0  0
    4.2886   -4.0252   -8.0618 O   0  0  0  0  0  0  0  0  0  0  0  0
    5.3055   -2.2082   -9.0165 N   0  0  0  0  0  0  0  0  0  0  0  0
    5.6199   -3.0073  -10.2202 C   0  0  0  0  0  0  0  0  0  0  0  0
    4.8350   -2.6353  -11.4885 C   0  0  0  0  0  0  0  0  0  0  0  0
    5.4317   -1.6409  -12.2722 O   0  0  0  0  0  0  0  0  0  0  0  0
    5.7153   -0.8742   -8.9868 C   0  0  0  0  0  0  0  0  0  0  0  0
    6.2494   -0.3627   -9.9648 O   0  0  0  0  0  0  0  0  0  0  0  0
    6.8058    3.1936   -3.7180 C   0  0  0  0  0  0  0  0  0  0  0  0
    7.4274    4.3442   -3.2349 C   0  0  0  0  0  0  0  0  0  0  0  0
    8.4579    6.6145   -2.2950 H   0  0  0  0  0  0  0  0  0  0  0  0
    4.6994    6.3159   -2.7064 H   0  0  0  0  0  0  0  0  0  0  0  0
    3.5541    4.2374   -3.5852 H   0  0  0  0  0  0  0  0  0  0  0  0
    5.9922    2.9979   -6.4284 H   0  0  0  0  0  0  0  0  0  0  0  0
    6.3853    1.6616   -8.5086 H   0  0  0  0  0  0  0  0  0  0  0  0
    3.4080   -3.6999   -5.7557 H   0  0  0  0  0  0  0  0  0  0  0  0
    2.9782   -2.4100   -3.6382 H   0  0  0  0  0  0  0  0  0  0  0  0
    3.7276   -0.0474   -3.4516 H   0  0  0  0  0  0  0  0  0  0  0  0
    5.4020   -4.0434   -9.9395 H   0  0  0  0  0  0  0  0  0  0  0  0
    6.6963   -2.9101  -10.4309 H   0  0  0  0  0  0  0  0  0  0  0  0
    3.7924   -2.3847  -11.1923 H   0  0  0  0  0  0  0  0  0  0  0  0
    4.7679   -3.5426  -12.1138 H   0  0  0  0  0  0  0  0  0  0  0  0
    5.7686   -0.9628  -11.6609 H   0  0  0  0  0  0  0  0  0  0  0  0
    7.3888    2.3118   -3.9896 H   0  0  0  0  0  0  0  0  0  0  0  0
    8.5161    4.3681   -3.1290 H   0  0  0  0  0  0  0  0  0  0  0  0
  1  2  2  0
  2  3  1  0
  2 28  1  0
  3  4  2  0
  3 27  1  0
  4  5  1  0
  4 29  1  0
  5  6  2  0
  5 30  1  0
  6  7  1  0
  6 26  1  0
  7  8  1  0
  8  9  2  0
  8 17  1  0
  9 10  1  0
  9 31  1  0
 10 11  2  0
 10 32  1  0
 11 12  1  0
 11 24  1  0
 12 13  1  0
 12 17  2  0
 13 14  2  0
 13 18  1  0
 14 15  1  0
 14 33  1  0
 15 16  2  0
 15 34  1  0
 16 17  1  0
 16 35  1  0
 18 19  2  0
 18 20  1  0
 20 21  1  0
 20 24  1  0
 21 22  1  0
 21 36  1  0
 21 37  1  0
 22 23  1  0
 22 38  1  0
 22 39  1  0
 23 40  1  0
 24 25  2  0
 26 27  2  0
 26 41  1  0
 27 42  1  0
M  END

