
     RDKit          3D

 48 50  0  0  0  0  0  0  0  0999 V2000
    3.7193    2.4665    2.3249 C   0  0  0  0  0  0  0  0  0  0  0  0
    2.9677    1.4622    1.4510 C   0  0  0  0  0  0  0  0  0  0  0  0
    3.2316    1.6214   -0.0606 C   0  0  0  0  0  0  0  0  0  0  0  0
    4.6372    1.3082   -0.4775 C   0  0  0  0  0  0  0  0  0  0  0  0
    5.5351    2.2620   -0.7409 N   0  0  0  0  0  0  0  0  0  0  0  0
    6.6867    1.6638   -1.0642 N   0  0  0  0  0  0  0  0  0  0  0  0
    7.8570    2.4425   -1.4179 C   0  0  0  0  0  0  0  0  0  0  0  0
    6.5611    0.3035   -1.0176 C   0  0  0  0  0  0  0  0  0  0  0  0
    7.5020   -0.7564   -1.2730 C   0  0  0  0  0  0  0  0  0  0  0  0
    8.6781   -0.6947   -1.5992 O   0  0  0  0  0  0  0  0  0  0  0  0
    6.8741   -2.0081   -1.0818 N   0  0  0  0  0  0  0  0  0  0  0  0
    7.5018   -2.7934   -1.2168 H   0  0  0  0  0  0  0  0  0  0  0  0
    5.5510   -2.2191   -0.7132 C   0  0  0  0  0  0  0  0  0  0  0  0
    5.1493   -3.5268   -0.5928 N   0  0  0  0  0  0  0  0  0  0  0  0
    6.0130   -4.6342   -0.9502 C   0  0  0  0  0  0  0  0  0  0  0  0
    3.8192   -3.8344   -0.0569 C   0  0  0  0  0  0  0  0  0  0  0  0
    2.8609   -4.3986   -1.0864 C   0  0  0  0  0  0  0  0  0  0  0  0
    2.4489   -3.6166   -2.1840 C   0  0  0  0  0  0  0  0  0  0  0  0
    1.5721   -4.1220   -3.1346 C   0  0  0  0  0  0  0  0  0  0  0  0
    1.0718   -5.4335   -3.0175 C   0  0  0  0  0  0  0  0  0  0  0  0
    0.2206   -5.8365   -3.9944 O   0  0  0  0  0  0  0  0  0  0  0  0
   -0.3293   -7.1327   -3.9394 C   0  0  0  0  0  0  0  0  0  0  0  0
    1.4679   -6.2234   -1.9300 C   0  0  0  0  0  0  0  0  0  0  0  0
    2.3571   -5.6976   -0.9818 C   0  0  0  0  0  0  0  0  0  0  0  0
    4.7221   -1.2322   -0.4910 N   0  0  0  0  0  0  0  0  0  0  0  0
    5.2411    0.0248   -0.6369 C   0  0  0  0  0  0  0  0  0  0  0  0
    3.5091    2.3014    3.3941 H   0  0  0  0  0  0  0  0  0  0  0  0
    3.4285    3.5025    2.0826 H   0  0  0  0  0  0  0  0  0  0  0  0
    4.8089    2.3929    2.1804 H   0  0  0  0  0  0  0  0  0  0  0  0
    1.8818    1.5633    1.6248 H   0  0  0  0  0  0  0  0  0  0  0  0
    3.2297    0.4323    1.7497 H   0  0  0  0  0  0  0  0  0  0  0  0
    3.0002    2.6531   -0.3721 H   0  0  0  0  0  0  0  0  0  0  0  0
    2.5474    0.9530   -0.6095 H   0  0  0  0  0  0  0  0  0  0  0  0
    8.1328    3.1103   -0.5873 H   0  0  0  0  0  0  0  0  0  0  0  0
    7.6519    3.0551   -2.3096 H   0  0  0  0  0  0  0  0  0  0  0  0
    8.6795    1.7469   -1.6260 H   0  0  0  0  0  0  0  0  0  0  0  0
    6.4775   -4.4926   -1.9409 H   0  0  0  0  0  0  0  0  0  0  0  0
    5.4063   -5.5468   -1.0191 H   0  0  0  0  0  0  0  0  0  0  0  0
    6.8142   -4.8151   -0.2067 H   0  0  0  0  0  0  0  0  0  0  0  0
    3.4277   -2.8965    0.3560 H   0  0  0  0  0  0  0  0  0  0  0  0
    3.9320   -4.5502    0.7760 H   0  0  0  0  0  0  0  0  0  0  0  0
    2.8207   -2.5930   -2.2794 H   0  0  0  0  0  0  0  0  0  0  0  0
    1.2457   -3.5193   -3.9848 H   0  0  0  0  0  0  0  0  0  0  0  0
   -0.9816   -7.2344   -4.8172 H   0  0  0  0  0  0  0  0  0  0  0  0
   -0.9330   -7.2858   -3.0263 H   0  0  0  0  0  0  0  0  0  0  0  0
    0.4513   -7.9140   -3.9824 H   0  0  0  0  0  0  0  0  0  0  0  0
    1.0975   -7.2413   -1.8078 H   0  0  0  0  0  0  0  0  0  0  0  0
    2.6537   -6.3249   -0.1352 H   0  0  0  0  0  0  0  0  0  0  0  0
  1  2  1  0
  1 27  1  0
  1 28  1  0
  1 29  1  0
  2  3  1  0
  2 30  1  0
  2 31  1  0
  3  4  1  0
  3 32  1  0
  3 33  1  0
  4  5  2  0
  4 26  1  0
  5  6  1  0
  6  7  1  0
  6  8  1  0
  7 34  1  0
  7 35  1  0
  7 36  1  0
  8  9  1  0
  8 26  2  0
  9 10  2  0
  9 11  1  0
 11 12  1  0
 11 13  1  0
 13 14  1  0
 13 25  2  0
 14 15  1  0
 14 16  1  0
 15 37  1  0
 15 38  1  0
 15 39  1  0
 16 17  1  0
 16 40  1  0
 16 41  1  0
 17 18  2  0
 17 24  1  0
 18 19  1  0
 18 42  1  0
 19 20  2  0
 19 43  1  0
 20 21  1  0
 20 23  1  0
 21 22  1  0
 22 44  1  0
 22 45  1  0
 22 46  1  0
 23 24  2  0
 23 47  1  0
 24 48  1  0
 25 26  1  0
M  END

