
     RDKit          3D

 43 43  0  0  0  0  0  0  0  0999 V2000
    2.9701   -3.1333   -4.7824 C   0  0  0  0  0  0  0  0  0  0  0  0
    2.5015   -2.8645   -3.3517 C   0  0  0  0  0  0  0  0  0  0  0  0
    3.2115   -3.6819   -2.2507 C   0  0  1  0  0  0  0  0  0  0  0  0
    2.9937   -5.1921   -2.3609 C   0  0  0  0  0  0  0  0  0  0  0  0
    4.6457   -3.3985   -2.1975 N   0  0  0  0  0  0  0  0  0  0  0  0
    5.1578   -2.3510   -1.5095 C   0  0  0  0  0  0  0  0  0  0  0  0
    4.4911   -1.5488   -0.8736 O   0  0  0  0  0  0  0  0  0  0  0  0
    6.6897   -2.1910   -1.5542 C   0  0  1  0  0  0  0  0  0  0  0  0
    7.2558   -2.1330   -0.1377 C   0  0  0  0  0  0  0  0  0  0  0  0
    7.2545   -3.2547   -2.3209 O   0  0  0  0  0  0  0  0  0  0  0  0
    8.5167   -3.1682   -2.8484 C   0  0  0  0  0  0  0  0  0  0  0  0
    9.2772   -1.9917   -2.8629 C   0  0  0  0  0  0  0  0  0  0  0  0
   10.5520   -1.9769   -3.4405 C   0  0  0  0  0  0  0  0  0  0  0  0
   11.0521   -3.1480   -3.9917 C   0  0  0  0  0  0  0  0  0  0  0  0
   12.2779   -3.1535   -4.5434 F   0  0  0  0  0  0  0  0  0  0  0  0
   10.3101   -4.3275   -3.9759 C   0  0  0  0  0  0  0  0  0  0  0  0
    9.0331   -4.3605   -3.4111 C   0  0  0  0  0  0  0  0  0  0  0  0
    8.1953   -5.6452   -3.4100 C   0  0  1  0  0  0  0  0  0  0  0  0
    7.6374   -5.6504   -2.4585 H   0  0  0  0  0  0  0  0  0  0  0  0
    7.1651   -5.6247   -4.5498 C   0  0  0  0  0  0  0  0  0  0  0  0
    8.9399   -6.8948   -3.4773 N   0  0  0  0  0  0  0  0  0  0  0  0
    2.4526   -2.4712   -5.4943 H   0  0  0  0  0  0  0  0  0  0  0  0
    2.7732   -4.1702   -5.1002 H   0  0  0  0  0  0  0  0  0  0  0  0
    4.0514   -2.9478   -4.8919 H   0  0  0  0  0  0  0  0  0  0  0  0
    1.4172   -3.0576   -3.2695 H   0  0  0  0  0  0  0  0  0  0  0  0
    2.6410   -1.7985   -3.1082 H   0  0  0  0  0  0  0  0  0  0  0  0
    2.8043   -3.3318   -1.2889 H   0  0  0  0  0  0  0  0  0  0  0  0
    3.4481   -5.6073   -3.2760 H   0  0  0  0  0  0  0  0  0  0  0  0
    1.9184   -5.4261   -2.3897 H   0  0  0  0  0  0  0  0  0  0  0  0
    3.4345   -5.7151   -1.4981 H   0  0  0  0  0  0  0  0  0  0  0  0
    5.3009   -3.9947   -2.6904 H   0  0  0  0  0  0  0  0  0  0  0  0
    6.8588   -1.2291   -2.0699 H   0  0  0  0  0  0  0  0  0  0  0  0
    7.0980   -3.0971    0.3701 H   0  0  0  0  0  0  0  0  0  0  0  0
    6.7291   -1.3496    0.4241 H   0  0  0  0  0  0  0  0  0  0  0  0
    8.3329   -1.9127   -0.1423 H   0  0  0  0  0  0  0  0  0  0  0  0
    8.8916   -1.0718   -2.4243 H   0  0  0  0  0  0  0  0  0  0  0  0
   11.1548   -1.0672   -3.4567 H   0  0  0  0  0  0  0  0  0  0  0  0
   10.7507   -5.2304   -4.4025 H   0  0  0  0  0  0  0  0  0  0  0  0
    6.5457   -4.7164   -4.5177 H   0  0  0  0  0  0  0  0  0  0  0  0
    6.5155   -6.5111   -4.4878 H   0  0  0  0  0  0  0  0  0  0  0  0
    7.6742   -5.6383   -5.5283 H   0  0  0  0  0  0  0  0  0  0  0  0
    9.6703   -6.9328   -2.7671 H   0  0  0  0  0  0  0  0  0  0  0  0
    9.3936   -7.0123   -4.3833 H   0  0  0  0  0  0  0  0  0  0  0  0
  1  2  1  0
  1 22  1  0
  1 23  1  0
  1 24  1  0
  2  3  1  0
  2 25  1  0
  2 26  1  0
  3  4  1  0
  3  5  1  0
  3 27  1  1
  4 28  1  0
  4 29  1  0
  4 30  1  0
  5  6  1  0
  5 31  1  0
  6  7  2  0
  6  8  1  0
  8  9  1  0
  8 10  1  0
  8 32  1  6
  9 33  1  0
  9 34  1  0
  9 35  1  0
 10 11  1  0
 11 12  2  0
 11 17  1  0
 12 13  1  0
 12 36  1  0
 13 14  2  0
 13 37  1  0
 14 15  1  0
 14 16  1  0
 16 17  2  0
 16 38  1  0
 17 18  1  0
 18 19  1  1
 18 20  1  0
 18 21  1  0
 20 39  1  0
 20 40  1  0
 20 41  1  0
 21 42  1  0
 21 43  1  0
M  END

