
     RDKit          3D

 27 26  0  0  0  0  0  0  0  0999 V2000
    1.1318   -0.6821   -0.0054 C   0  0  0  0  0  0  0  0  0  0  0  0
    2.4769   -0.7769   -0.0553 C   0  0  0  0  0  0  0  0  0  0  0  0
    3.2756   -0.8353    1.2202 C   0  0  0  0  0  0  0  0  0  0  0  0
    4.1192    0.2668    1.3431 F   0  0  0  0  0  0  0  0  0  0  0  0
    3.1894   -0.9279   -1.2431 N   0  0  0  0  0  0  0  0  0  0  0  0
    4.5201   -0.3530   -1.4430 C   0  0  0  0  0  0  0  0  0  0  0  0
    5.1165   -0.8225   -2.6972 C   0  0  0  0  0  0  0  0  0  0  0  0
    5.6037   -1.1731   -3.7516 C   0  0  0  0  0  0  0  0  0  0  0  0
    6.2019   -1.6380   -5.0023 C   0  0  0  0  0  0  0  0  0  0  0  0
    6.7243   -3.0862   -4.9180 C   0  0  1  0  0  0  0  0  0  0  0  0
    5.7352   -4.1147   -4.5934 N   0  0  0  0  0  0  0  0  0  0  0  0
    7.4559   -3.4808   -6.2214 C   0  0  0  0  0  0  0  0  0  0  0  0
    8.0750   -2.6982   -6.8938 O   0  0  0  0  0  0  0  0  0  0  0  0
    7.3573   -4.7815   -6.4965 O   0  0  0  0  0  0  0  0  0  0  0  0
    0.6095   -0.6603    0.9514 H   0  0  0  0  0  0  0  0  0  0  0  0
    0.5221   -0.6602   -0.9131 H   0  0  0  0  0  0  0  0  0  0  0  0
    3.9082   -1.7408    1.2428 H   0  0  0  0  0  0  0  0  0  0  0  0
    2.5995   -0.8479    2.0874 H   0  0  0  0  0  0  0  0  0  0  0  0
    2.6067   -0.8373   -2.0704 H   0  0  0  0  0  0  0  0  0  0  0  0
    5.1715   -0.6342   -0.6018 H   0  0  0  0  0  0  0  0  0  0  0  0
    4.5066    0.7568   -1.4422 H   0  0  0  0  0  0  0  0  0  0  0  0
    7.0404   -0.9881   -5.2995 H   0  0  0  0  0  0  0  0  0  0  0  0
    5.4652   -1.5655   -5.8235 H   0  0  0  0  0  0  0  0  0  0  0  0
    7.4992   -3.1239   -4.1320 H   0  0  0  0  0  0  0  0  0  0  0  0
    4.8497   -3.9327   -5.0704 H   0  0  0  0  0  0  0  0  0  0  0  0
    5.5297   -4.1337   -3.5955 H   0  0  0  0  0  0  0  0  0  0  0  0
    6.7523   -5.1398   -5.8018 H   0  0  0  0  0  0  0  0  0  0  0  0
  1  2  2  0
  1 15  1  0
  1 16  1  0
  2  3  1  0
  2  5  1  0
  3  4  1  0
  3 17  1  0
  3 18  1  0
  5  6  1  0
  5 19  1  0
  6  7  1  0
  6 20  1  0
  6 21  1  0
  7  8  3  0
  8  9  1  0
  9 10  1  0
  9 22  1  0
  9 23  1  0
 10 11  1  0
 10 12  1  0
 10 24  1  1
 11 25  1  0
 11 26  1  0
 12 13  2  0
 12 14  1  0
 14 27  1  0
M  END

