
     RDKit          3D

 43 44  0  0  0  0  0  0  0  0999 V2000
    0.7839    0.8099   -0.6152 C   0  0  0  0  0  0  0  0  0  0  0  0
    1.9367    0.2695   -0.0252 O   0  0  0  0  0  0  0  0  0  0  0  0
    2.5805    0.9922    1.0298 C   0  0  1  0  0  0  0  0  0  0  0  0
    1.7502    0.9009    2.3169 C   0  0  0  0  0  0  0  0  0  0  0  0
    3.9373    0.2884    1.1974 C   0  0  0  0  0  0  0  0  0  0  0  0
    4.8222    0.4962   -0.0334 C   0  0  0  0  0  0  0  0  0  0  0  0
    4.9680    1.9814   -0.3614 C   0  0  0  0  0  0  0  0  0  0  0  0
    3.6637    2.6189   -0.5226 N   0  0  0  0  0  0  0  0  0  0  0  0
    3.7518    3.9920   -0.9889 C   0  0  0  0  0  0  0  0  0  0  0  0
    4.2170    4.1212   -2.4296 C   0  0  0  0  0  0  0  0  0  0  0  0
    3.7717    3.2177   -3.4091 C   0  0  0  0  0  0  0  0  0  0  0  0
    4.1508    3.3660   -4.7435 C   0  0  0  0  0  0  0  0  0  0  0  0
    4.9786    4.4240   -5.1053 C   0  0  0  0  0  0  0  0  0  0  0  0
    5.3363    4.5612   -6.3877 F   0  0  0  0  0  0  0  0  0  0  0  0
    5.4544    5.3497   -4.1593 C   0  0  0  0  0  0  0  0  0  0  0  0
    6.3125    6.4234   -4.5496 C   0  0  0  0  0  0  0  0  0  0  0  0
    7.0538    7.3378   -4.8554 C   0  0  0  0  0  0  0  0  0  0  0  0
    7.9059    8.4549   -5.2811 C   0  0  0  0  0  0  0  0  0  0  0  0
    7.2176    9.6818   -5.4207 O   0  0  0  0  0  0  0  0  0  0  0  0
    5.0560    5.1687   -2.8169 C   0  0  0  0  0  0  0  0  0  0  0  0
    2.8320    2.4708    0.6611 C   0  0  0  0  0  0  0  0  0  0  0  0
    0.3757    0.0358   -1.2829 H   0  0  0  0  0  0  0  0  0  0  0  0
    0.9987    1.7073   -1.2252 H   0  0  0  0  0  0  0  0  0  0  0  0
   -0.0027    1.0682    0.1201 H   0  0  0  0  0  0  0  0  0  0  0  0
    1.5708   -0.1553    2.5686 H   0  0  0  0  0  0  0  0  0  0  0  0
    0.7732    1.3982    2.2098 H   0  0  0  0  0  0  0  0  0  0  0  0
    2.2723    1.3759    3.1618 H   0  0  0  0  0  0  0  0  0  0  0  0
    3.7572   -0.7838    1.3763 H   0  0  0  0  0  0  0  0  0  0  0  0
    4.4354    0.6934    2.0954 H   0  0  0  0  0  0  0  0  0  0  0  0
    4.3668   -0.0187   -0.8930 H   0  0  0  0  0  0  0  0  0  0  0  0
    5.8200    0.0567    0.1300 H   0  0  0  0  0  0  0  0  0  0  0  0
    5.5415    2.1109   -1.2921 H   0  0  0  0  0  0  0  0  0  0  0  0
    5.5525    2.4874    0.4457 H   0  0  0  0  0  0  0  0  0  0  0  0
    4.4075    4.6165   -0.3389 H   0  0  0  0  0  0  0  0  0  0  0  0
    2.7425    4.4345   -0.9092 H   0  0  0  0  0  0  0  0  0  0  0  0
    3.1333    2.3851   -3.1061 H   0  0  0  0  0  0  0  0  0  0  0  0
    3.8154    2.6715   -5.5164 H   0  0  0  0  0  0  0  0  0  0  0  0
    8.4276    8.1642   -6.2166 H   0  0  0  0  0  0  0  0  0  0  0  0
    8.6931    8.6262   -4.5279 H   0  0  0  0  0  0  0  0  0  0  0  0
    6.4815    9.5388   -6.0311 H   0  0  0  0  0  0  0  0  0  0  0  0
    5.4253    5.8778   -2.0721 H   0  0  0  0  0  0  0  0  0  0  0  0
    1.8720    2.9826    0.4849 H   0  0  0  0  0  0  0  0  0  0  0  0
    3.2857    2.9656    1.5524 H   0  0  0  0  0  0  0  0  0  0  0  0
  1  2  1  0
  1 22  1  0
  1 23  1  0
  1 24  1  0
  3  2  1  6
  3  4  1  0
  3  5  1  0
  3 21  1  0
  4 25  1  0
  4 26  1  0
  4 27  1  0
  5  6  1  0
  5 28  1  0
  5 29  1  0
  6  7  1  0
  6 30  1  0
  6 31  1  0
  7  8  1  0
  7 32  1  0
  7 33  1  0
  8  9  1  0
  8 21  1  0
  9 10  1  0
  9 34  1  0
  9 35  1  0
 10 11  2  0
 10 20  1  0
 11 12  1  0
 11 36  1  0
 12 13  2  0
 12 37  1  0
 13 14  1  0
 13 15  1  0
 15 16  1  0
 15 20  2  0
 16 17  3  0
 17 18  1  0
 18 19  1  0
 18 38  1  0
 18 39  1  0
 19 40  1  0
 20 41  1  0
 21 42  1  0
 21 43  1  0
M  END

