
     RDKit          3D

 41 43  0  0  0  0  0  0  0  0999 V2000
   -0.4142   -4.0728   -0.3895 O   0  0  0  0  0  0  0  0  0  0  0  0
    0.5133   -3.3093   -0.3431 C   0  0  0  0  0  0  0  0  0  0  0  0
    0.6001   -2.2311   -1.1466 O   0  0  0  0  0  0  0  0  0  0  0  0
    1.6456   -3.4796    0.5983 C   0  0  0  0  0  0  0  0  0  0  0  0
    1.8872   -4.4387    1.5380 C   0  0  0  0  0  0  0  0  0  0  0  0
    3.1422   -4.0904    2.1531 C   0  0  0  0  0  0  0  0  0  0  0  0
    3.9317   -4.6576    3.1693 C   0  0  0  0  0  0  0  0  0  0  0  0
    5.1278   -4.0124    3.5063 C   0  0  0  0  0  0  0  0  0  0  0  0
    6.0012   -4.4845    4.5090 N   0  0  0  0  0  0  0  0  0  0  0  0
    5.8735   -5.5869    5.3239 C   0  0  0  0  0  0  0  0  0  0  0  0
    4.9334   -6.3640    5.2577 O   0  0  0  0  0  0  0  0  0  0  0  0
    6.9960   -5.7282    6.3577 C   0  0  1  0  0  0  0  0  0  0  0  0
    6.5782   -5.0827    7.7038 C   0  0  0  0  0  0  0  0  0  0  0  0
    5.5368   -5.9169    8.4576 C   0  0  0  0  0  0  0  0  0  0  0  0
    6.0276   -7.3507    8.6856 C   0  0  0  0  0  0  0  0  0  0  0  0
    6.4010   -8.0291    7.3571 C   0  0  2  0  0  0  0  0  0  0  0  0
    6.9170   -9.4392    7.5810 C   0  0  1  0  0  0  0  0  0  0  0  0
    6.0153  -10.2005    8.2279 F   0  0  0  0  0  0  0  0  0  0  0  0
    7.1972  -10.0585    6.4181 F   0  0  0  0  0  0  0  0  0  0  0  0
    8.0495   -9.4586    8.3175 F   0  0  0  0  0  0  0  0  0  0  0  0
    7.4228   -7.1958    6.5618 C   0  0  0  0  0  0  0  0  0  0  0  0
    5.5201   -2.8241    2.8328 C   0  0  0  0  0  0  0  0  0  0  0  0
    4.7479   -2.2547    1.8258 C   0  0  0  0  0  0  0  0  0  0  0  0
    3.5617   -2.9096    1.5061 C   0  0  0  0  0  0  0  0  0  0  0  0
    2.6513   -2.5386    0.5607 O   0  0  0  0  0  0  0  0  0  0  0  0
    1.4183   -1.7442   -0.9566 H   0  0  0  0  0  0  0  0  0  0  0  0
    1.2380   -5.2841    1.7525 H   0  0  0  0  0  0  0  0  0  0  0  0
    3.6396   -5.5677    3.6866 H   0  0  0  0  0  0  0  0  0  0  0  0
    6.8346   -3.9261    4.6471 H   0  0  0  0  0  0  0  0  0  0  0  0
    7.8752   -5.1794    5.9783 H   0  0  0  0  0  0  0  0  0  0  0  0
    6.2066   -4.0585    7.5317 H   0  0  0  0  0  0  0  0  0  0  0  0
    7.4863   -4.9859    8.3253 H   0  0  0  0  0  0  0  0  0  0  0  0
    4.5930   -5.9373    7.8884 H   0  0  0  0  0  0  0  0  0  0  0  0
    5.3132   -5.4398    9.4259 H   0  0  0  0  0  0  0  0  0  0  0  0
    5.2565   -7.9437    9.2009 H   0  0  0  0  0  0  0  0  0  0  0  0
    6.9132   -7.3392    9.3460 H   0  0  0  0  0  0  0  0  0  0  0  0
    5.4939   -8.1367    6.7437 H   0  0  0  0  0  0  0  0  0  0  0  0
    7.6162   -7.6731    5.5892 H   0  0  0  0  0  0  0  0  0  0  0  0
    8.3796   -7.1942    7.1114 H   0  0  0  0  0  0  0  0  0  0  0  0
    6.4598   -2.3407    3.1152 H   0  0  0  0  0  0  0  0  0  0  0  0
    5.0570   -1.3421    1.3140 H   0  0  0  0  0  0  0  0  0  0  0  0
  1  2  2  0
  2  3  1  0
  2  4  1  0
  3 26  1  0
  4  5  2  0
  4 25  1  0
  5  6  1  0
  5 27  1  0
  6  7  2  0
  6 24  1  0
  7  8  1  0
  7 28  1  0
  8  9  1  0
  8 22  2  0
  9 10  1  0
  9 29  1  0
 10 11  2  0
 10 12  1  0
 12 13  1  0
 12 21  1  0
 12 30  1  6
 13 14  1  0
 13 31  1  0
 13 32  1  0
 14 15  1  0
 14 33  1  0
 14 34  1  0
 15 16  1  0
 15 35  1  0
 15 36  1  0
 16 17  1  0
 16 21  1  0
 16 37  1  6
 17 18  1  1
 17 19  1  0
 17 20  1  0
 21 38  1  0
 21 39  1  0
 22 23  1  0
 22 40  1  0
 23 24  2  0
 23 41  1  0
 24 25  1  0
M  END

