
     RDKit          3D

 33 33  0  0  0  0  0  0  0  0999 V2000
    5.1532    2.1487    0.3112 C   0  0  0  0  0  0  0  0  0  0  0  0
    3.9626    1.6680   -0.5286 C   0  0  1  0  0  0  0  0  0  0  0  0
    3.3425    2.8227   -1.3250 C   0  0  0  0  0  0  0  0  0  0  0  0
    4.3541    0.5132   -1.4600 C   0  0  0  0  0  0  0  0  0  0  0  0
    4.6618   -0.8092   -0.7726 C   0  0  0  0  0  0  0  0  0  0  0  0
    4.4243   -1.0078    0.3994 O   0  0  0  0  0  0  0  0  0  0  0  0
    5.3033   -1.8945   -1.6452 C   0  0  0  0  0  0  0  0  0  0  0  0
    6.8151   -1.7674   -1.6636 C   0  0  0  0  0  0  0  0  0  0  0  0
    7.4797   -1.4331   -2.7844 C   0  0  0  0  0  0  0  0  0  0  0  0
    8.9752   -1.2616   -2.8673 C   0  0  0  0  0  0  0  0  0  0  0  0
    9.6338   -1.1767   -1.4846 C   0  0  0  0  0  0  0  0  0  0  0  0
    9.0466   -2.2282   -0.5390 C   0  0  0  0  0  0  0  0  0  0  0  0
    7.5376   -2.0246   -0.3558 C   0  0  0  0  0  0  0  0  0  0  0  0
    4.8510    2.9580    0.9957 H   0  0  0  0  0  0  0  0  0  0  0  0
    5.9590    2.5427   -0.3328 H   0  0  0  0  0  0  0  0  0  0  0  0
    5.5659    1.3327    0.9224 H   0  0  0  0  0  0  0  0  0  0  0  0
    3.2013    1.2740    0.1668 H   0  0  0  0  0  0  0  0  0  0  0  0
    4.0623    3.2392   -2.0510 H   0  0  0  0  0  0  0  0  0  0  0  0
    3.0338    3.6440   -0.6582 H   0  0  0  0  0  0  0  0  0  0  0  0
    2.4525    2.4972   -1.8887 H   0  0  0  0  0  0  0  0  0  0  0  0
    5.2153    0.7847   -2.0982 H   0  0  0  0  0  0  0  0  0  0  0  0
    3.5324    0.2968   -2.1706 H   0  0  0  0  0  0  0  0  0  0  0  0
    4.9123   -1.8290   -2.6726 H   0  0  0  0  0  0  0  0  0  0  0  0
    5.0099   -2.8643   -1.2106 H   0  0  0  0  0  0  0  0  0  0  0  0
    6.9138   -1.2839   -3.7121 H   0  0  0  0  0  0  0  0  0  0  0  0
    9.2111   -0.3618   -3.4630 H   0  0  0  0  0  0  0  0  0  0  0  0
    9.4045   -2.1064   -3.4415 H   0  0  0  0  0  0  0  0  0  0  0  0
    9.4614   -0.1716   -1.0588 H   0  0  0  0  0  0  0  0  0  0  0  0
   10.7260   -1.2955   -1.5743 H   0  0  0  0  0  0  0  0  0  0  0  0
    9.5520   -2.1997    0.4402 H   0  0  0  0  0  0  0  0  0  0  0  0
    9.2315   -3.2341   -0.9576 H   0  0  0  0  0  0  0  0  0  0  0  0
    7.3478   -1.1833    0.3369 H   0  0  0  0  0  0  0  0  0  0  0  0
    7.0873   -2.9013    0.1416 H   0  0  0  0  0  0  0  0  0  0  0  0
  1  2  1  0
  1 14  1  0
  1 15  1  0
  1 16  1  0
  2  3  1  0
  2  4  1  0
  2 17  1  1
  3 18  1  0
  3 19  1  0
  3 20  1  0
  4  5  1  0
  4 21  1  0
  4 22  1  0
  5  6  2  0
  5  7  1  0
  7  8  1  0
  7 23  1  0
  7 24  1  0
  8  9  2  0
  8 13  1  0
  9 10  1  0
  9 25  1  0
 10 11  1  0
 10 26  1  0
 10 27  1  0
 11 12  1  0
 11 28  1  0
 11 29  1  0
 12 13  1  0
 12 30  1  0
 12 31  1  0
 13 32  1  0
 13 33  1  0
M  END

