
     RDKit          3D

 47 47  0  0  0  0  0  0  0  0999 V2000
    1.2391   -0.2569    0.3674 C   0  0  0  0  0  0  0  0  0  0  0  0
    2.5849   -0.2599    1.0832 C   0  0  0  0  0  0  0  0  0  0  0  0
    3.2051    1.0508    1.0322 N   0  0  0  0  0  0  0  0  0  0  0  0
    4.5362    1.2777    1.2659 C   0  0  0  0  0  0  0  0  0  0  0  0
    5.0290    2.6055    1.3420 C   0  0  0  0  0  0  0  0  0  0  0  0
    6.3819    2.8027    1.5723 C   0  0  0  0  0  0  0  0  0  0  0  0
    6.8692    4.2319    1.6548 C   0  0  0  0  0  0  0  0  0  0  0  0
    6.2210    5.1579    1.1884 O   0  0  0  0  0  0  0  0  0  0  0  0
    8.0652    4.4186    2.2873 N   0  0  0  0  0  0  0  0  0  0  0  0
    8.6489    5.7389    2.4527 C   0  0  0  0  0  0  0  0  0  0  0  0
    8.1425    6.5257    3.6815 C   0  0  1  0  0  0  0  0  0  0  0  0
    8.3504    5.7669    5.0094 C   0  0  0  0  0  0  0  0  0  0  0  0
    9.8028    5.5416    5.4428 C   0  0  0  0  0  0  0  0  0  0  0  0
    8.7468    7.9427    3.6610 C   0  0  0  0  0  0  0  0  0  0  0  0
    8.2176    8.8880    4.7416 C   0  0  0  0  0  0  0  0  0  0  0  0
    7.2218    1.6771    1.6948 C   0  0  0  0  0  0  0  0  0  0  0  0
    6.6533    0.4033    1.6005 C   0  0  0  0  0  0  0  0  0  0  0  0
    7.4986   -0.8488    1.6958 C   0  0  0  0  0  0  0  0  0  0  0  0
    7.5745   -1.6218    0.3726 C   0  0  0  0  0  0  0  0  0  0  0  0
    5.3402    0.2153    1.4029 N   0  0  0  0  0  0  0  0  0  0  0  0
    0.7752   -1.2541    0.4128 H   0  0  0  0  0  0  0  0  0  0  0  0
    1.3533    0.0233   -0.6919 H   0  0  0  0  0  0  0  0  0  0  0  0
    0.5344    0.4539    0.8329 H   0  0  0  0  0  0  0  0  0  0  0  0
    3.2752   -0.9772    0.6163 H   0  0  0  0  0  0  0  0  0  0  0  0
    2.4575   -0.6023    2.1305 H   0  0  0  0  0  0  0  0  0  0  0  0
    2.5937    1.8558    1.0872 H   0  0  0  0  0  0  0  0  0  0  0  0
    4.3763    3.4718    1.2190 H   0  0  0  0  0  0  0  0  0  0  0  0
    8.4923    3.6306    2.7561 H   0  0  0  0  0  0  0  0  0  0  0  0
    8.4084    6.3143    1.5467 H   0  0  0  0  0  0  0  0  0  0  0  0
    9.7453    5.6264    2.4900 H   0  0  0  0  0  0  0  0  0  0  0  0
    7.0519    6.6326    3.5420 H   0  0  0  0  0  0  0  0  0  0  0  0
    7.8382    4.7922    4.9313 H   0  0  0  0  0  0  0  0  0  0  0  0
    7.8169    6.3048    5.8110 H   0  0  0  0  0  0  0  0  0  0  0  0
   10.3813    4.9733    4.6951 H   0  0  0  0  0  0  0  0  0  0  0  0
    9.8447    4.9711    6.3844 H   0  0  0  0  0  0  0  0  0  0  0  0
   10.3368    6.4901    5.6137 H   0  0  0  0  0  0  0  0  0  0  0  0
    8.5422    8.3856    2.6704 H   0  0  0  0  0  0  0  0  0  0  0  0
    9.8482    7.8804    3.7330 H   0  0  0  0  0  0  0  0  0  0  0  0
    7.1178    8.9618    4.7033 H   0  0  0  0  0  0  0  0  0  0  0  0
    8.6226    9.9041    4.6098 H   0  0  0  0  0  0  0  0  0  0  0  0
    8.4916    8.5574    5.7562 H   0  0  0  0  0  0  0  0  0  0  0  0
    8.3011    1.7760    1.8251 H   0  0  0  0  0  0  0  0  0  0  0  0
    7.0536   -1.4997    2.4677 H   0  0  0  0  0  0  0  0  0  0  0  0
    8.5120   -0.5855    2.0398 H   0  0  0  0  0  0  0  0  0  0  0  0
    6.5635   -1.8817    0.0243 H   0  0  0  0  0  0  0  0  0  0  0  0
    8.1499   -2.5539    0.4907 H   0  0  0  0  0  0  0  0  0  0  0  0
    8.0585   -1.0206   -0.4141 H   0  0  0  0  0  0  0  0  0  0  0  0
  1  2  1  0
  1 21  1  0
  1 22  1  0
  1 23  1  0
  2  3  1  0
  2 24  1  0
  2 25  1  0
  3  4  1  0
  3 26  1  0
  4  5  2  0
  4 20  1  0
  5  6  1  0
  5 27  1  0
  6  7  1  0
  6 16  2  0
  7  8  2  0
  7  9  1  0
  9 10  1  0
  9 28  1  0
 10 11  1  0
 10 29  1  0
 10 30  1  0
 11 12  1  0
 11 14  1  0
 11 31  1  6
 12 13  1  0
 12 32  1  0
 12 33  1  0
 13 34  1  0
 13 35  1  0
 13 36  1  0
 14 15  1  0
 14 37  1  0
 14 38  1  0
 15 39  1  0
 15 40  1  0
 15 41  1  0
 16 17  1  0
 16 42  1  0
 17 18  1  0
 17 20  2  0
 18 19  1  0
 18 43  1  0
 18 44  1  0
 19 45  1  0
 19 46  1  0
 19 47  1  0
M  END

