
     RDKit          3D

 68 72  0  0  0  0  0  0  0  0999 V2000
    1.2587   -0.8167    1.1167 N   0  0  0  0  0  0  0  0  0  0  0  0
    2.3674   -0.6353    0.8221 C   0  0  0  0  0  0  0  0  0  0  0  0
    3.7492   -0.4283    0.4763 C   0  0  0  0  0  0  0  0  0  0  0  0
    4.1844    0.8278    0.5295 N   0  0  0  0  0  0  0  0  0  0  0  0
    5.4819    1.1082    0.3940 C   0  0  0  0  0  0  0  0  0  0  0  0
    5.8746    2.4264    0.2933 N   0  0  0  0  0  0  0  0  0  0  0  0
    7.0535    2.8123   -0.4971 C   0  0  0  0  0  0  0  0  0  0  0  0
    7.0839    2.2223   -1.8993 C   0  0  0  0  0  0  0  0  0  0  0  0
    5.9440    2.2412   -2.7203 C   0  0  0  0  0  0  0  0  0  0  0  0
    5.9700    1.7057   -4.0082 C   0  0  0  0  0  0  0  0  0  0  0  0
    7.1567    1.1405   -4.4867 C   0  0  0  0  0  0  0  0  0  0  0  0
    7.1871    0.4257   -6.0850 Cl  0  0  0  0  0  0  0  0  0  0  0  0
    8.3081    1.1209   -3.6978 C   0  0  0  0  0  0  0  0  0  0  0  0
    8.2618    1.6584   -2.4081 C   0  0  0  0  0  0  0  0  0  0  0  0
    4.9392    3.4932    0.6558 C   0  0  0  0  0  0  0  0  0  0  0  0
    5.5466    4.5381    1.5748 C   0  0  0  0  0  0  0  0  0  0  0  0
    5.3010    5.9013    1.3600 C   0  0  0  0  0  0  0  0  0  0  0  0
    5.8070    6.8751    2.2253 C   0  0  0  0  0  0  0  0  0  0  0  0
    6.5790    6.4806    3.3201 C   0  0  0  0  0  0  0  0  0  0  0  0
    7.2248    7.6883    4.4064 Cl  0  0  0  0  0  0  0  0  0  0  0  0
    6.8447    5.1268    3.5523 C   0  0  0  0  0  0  0  0  0  0  0  0
    6.3273    4.1677    2.6813 C   0  0  0  0  0  0  0  0  0  0  0  0
    6.3818   -0.0076    0.4040 C   0  0  0  0  0  0  0  0  0  0  0  0
    7.7873    0.1370    0.6776 C   0  0  0  0  0  0  0  0  0  0  0  0
    8.9160    0.2598    0.9226 N   0  0  0  0  0  0  0  0  0  0  0  0
    5.9422   -1.2538    0.2447 N   0  0  0  0  0  0  0  0  0  0  0  0
    4.6359   -1.5111    0.1689 C   0  0  0  0  0  0  0  0  0  0  0  0
    4.2395   -2.7937   -0.1518 N   0  0  0  0  0  0  0  0  0  0  0  0
    3.0019   -3.0306   -0.9094 C   0  0  0  0  0  0  0  0  0  0  0  0
    2.8870   -2.2217   -2.1936 C   0  0  0  0  0  0  0  0  0  0  0  0
    3.9595   -2.1422   -3.0972 C   0  0  0  0  0  0  0  0  0  0  0  0
    3.8624   -1.3962   -4.2718 C   0  0  0  0  0  0  0  0  0  0  0  0
    2.6709   -0.7182   -4.5509 C   0  0  0  0  0  0  0  0  0  0  0  0
    2.5551    0.2586   -5.9993 Cl  0  0  0  0  0  0  0  0  0  0  0  0
    1.5840   -0.7925   -3.6781 C   0  0  0  0  0  0  0  0  0  0  0  0
    1.7020   -1.5403   -2.5027 C   0  0  0  0  0  0  0  0  0  0  0  0
    5.2633   -3.8470   -0.0984 C   0  0  0  0  0  0  0  0  0  0  0  0
    5.6906   -4.2161    1.3110 C   0  0  0  0  0  0  0  0  0  0  0  0
    4.7403   -4.5961    2.2713 C   0  0  0  0  0  0  0  0  0  0  0  0
    5.1249   -4.9686    3.5596 C   0  0  0  0  0  0  0  0  0  0  0  0
    6.4826   -4.9622    3.8967 C   0  0  0  0  0  0  0  0  0  0  0  0
    6.9744   -5.4287    5.5088 Cl  0  0  0  0  0  0  0  0  0  0  0  0
    7.4470   -4.5827    2.9606 C   0  0  0  0  0  0  0  0  0  0  0  0
    7.0426   -4.2084    1.6765 C   0  0  0  0  0  0  0  0  0  0  0  0
    7.9904    2.5697    0.0259 H   0  0  0  0  0  0  0  0  0  0  0  0
    7.0277    3.9109   -0.5592 H   0  0  0  0  0  0  0  0  0  0  0  0
    5.0091    2.6685   -2.3488 H   0  0  0  0  0  0  0  0  0  0  0  0
    5.0776    1.7127   -4.6363 H   0  0  0  0  0  0  0  0  0  0  0  0
    9.2257    0.6732   -4.0829 H   0  0  0  0  0  0  0  0  0  0  0  0
    9.1564    1.6166   -1.7814 H   0  0  0  0  0  0  0  0  0  0  0  0
    4.0754    3.0175    1.1396 H   0  0  0  0  0  0  0  0  0  0  0  0
    4.5472    3.9906   -0.2502 H   0  0  0  0  0  0  0  0  0  0  0  0
    4.7009    6.2150    0.5008 H   0  0  0  0  0  0  0  0  0  0  0  0
    5.6114    7.9344    2.0510 H   0  0  0  0  0  0  0  0  0  0  0  0
    7.4520    4.8326    4.4100 H   0  0  0  0  0  0  0  0  0  0  0  0
    6.5415    3.1116    2.8632 H   0  0  0  0  0  0  0  0  0  0  0  0
    2.1115   -2.8551   -0.2874 H   0  0  0  0  0  0  0  0  0  0  0  0
    2.9915   -4.1044   -1.1495 H   0  0  0  0  0  0  0  0  0  0  0  0
    4.8974   -2.6596   -2.8789 H   0  0  0  0  0  0  0  0  0  0  0  0
    4.7050   -1.3240   -4.9616 H   0  0  0  0  0  0  0  0  0  0  0  0
    0.6626   -0.2548   -3.9074 H   0  0  0  0  0  0  0  0  0  0  0  0
    0.8603   -1.5738   -1.8061 H   0  0  0  0  0  0  0  0  0  0  0  0
    6.1523   -3.5559   -0.6804 H   0  0  0  0  0  0  0  0  0  0  0  0
    4.8272   -4.7302   -0.5882 H   0  0  0  0  0  0  0  0  0  0  0  0
    3.6775   -4.5969    2.0136 H   0  0  0  0  0  0  0  0  0  0  0  0
    4.3825   -5.2646    4.3025 H   0  0  0  0  0  0  0  0  0  0  0  0
    8.5018   -4.5713    3.2399 H   0  0  0  0  0  0  0  0  0  0  0  0
    7.7965   -3.8940    0.9502 H   0  0  0  0  0  0  0  0  0  0  0  0
  1  2  3  0
  2  3  1  0
  3  4  2  0
  3 27  1  0
  4  5  1  0
  5  6  1  0
  5 23  2  0
  6  7  1  0
  6 15  1  0
  7  8  1  0
  7 45  1  0
  7 46  1  0
  8  9  2  0
  8 14  1  0
  9 10  1  0
  9 47  1  0
 10 11  2  0
 10 48  1  0
 11 12  1  0
 11 13  1  0
 13 14  2  0
 13 49  1  0
 14 50  1  0
 15 16  1  0
 15 51  1  0
 15 52  1  0
 16 17  2  0
 16 22  1  0
 17 18  1  0
 17 53  1  0
 18 19  2  0
 18 54  1  0
 19 20  1  0
 19 21  1  0
 21 22  2  0
 21 55  1  0
 22 56  1  0
 23 24  1  0
 23 26  1  0
 24 25  3  0
 26 27  2  0
 27 28  1  0
 28 29  1  0
 28 37  1  0
 29 30  1  0
 29 57  1  0
 29 58  1  0
 30 31  2  0
 30 36  1  0
 31 32  1  0
 31 59  1  0
 32 33  2  0
 32 60  1  0
 33 34  1  0
 33 35  1  0
 35 36  2  0
 35 61  1  0
 36 62  1  0
 37 38  1  0
 37 63  1  0
 37 64  1  0
 38 39  2  0
 38 44  1  0
 39 40  1  0
 39 65  1  0
 40 41  2  0
 40 66  1  0
 41 42  1  0
 41 43  1  0
 43 44  2  0
 43 67  1  0
 44 68  1  0
M  END

