
     RDKit          3D

 43 45  0  0  0  0  0  0  0  0999 V2000
    2.8356   -3.0480   -4.8167 C   0  0  0  0  0  0  0  0  0  0  0  0
    2.5044   -2.3953   -3.4601 C   0  0  1  0  0  0  0  0  0  0  0  0
    2.0869   -3.4149   -2.4840 C   0  0  0  0  0  0  0  0  0  0  0  0
    1.7728   -4.2217   -1.7139 N   0  0  0  0  0  0  0  0  0  0  0  0
    3.6638   -1.5658   -2.8559 C   0  0  0  0  0  0  0  0  0  0  0  0
    4.1282   -0.3706   -3.7183 C   0  0  1  0  0  0  0  0  0  0  0  0
    3.0032    0.5355   -3.9968 C   0  0  0  0  0  0  0  0  0  0  0  0
    2.1097    1.2441   -4.2048 N   0  0  0  0  0  0  0  0  0  0  0  0
    5.2954    0.4247   -3.0795 C   0  0  0  0  0  0  0  0  0  0  0  0
    6.6266   -0.3476   -2.9560 C   0  0  0  0  0  0  0  0  0  0  0  0
    7.2011   -0.8081   -4.2789 C   0  0  0  0  0  0  0  0  0  0  0  0
    7.9727    0.0650   -5.0806 C   0  0  0  0  0  0  0  0  0  0  0  0
    8.4774   -0.3299   -6.3132 C   0  0  0  0  0  0  0  0  0  0  0  0
    8.2073   -1.6233   -6.7852 C   0  0  0  0  0  0  0  0  0  0  0  0
    8.7205   -1.9638   -7.9973 O   0  0  0  0  0  0  0  0  0  0  0  0
    8.4973   -3.2052   -8.5134 C   0  0  0  0  0  0  0  0  0  0  0  0
    9.0732   -3.4822   -9.7616 C   0  0  0  0  0  0  0  0  0  0  0  0
    8.8744   -4.7319  -10.3376 C   0  0  0  0  0  0  0  0  0  0  0  0
    8.1046   -5.7119   -9.6837 C   0  0  0  0  0  0  0  0  0  0  0  0
    7.5365   -5.4290   -8.4493 C   0  0  0  0  0  0  0  0  0  0  0  0
    7.7242   -4.1720   -7.8426 C   0  0  0  0  0  0  0  0  0  0  0  0
    7.1178   -3.8661   -6.5287 C   0  0  0  0  0  0  0  0  0  0  0  0
    6.4073   -4.6534   -5.9178 O   0  0  0  0  0  0  0  0  0  0  0  0
    7.4362   -2.5128   -6.0190 C   0  0  0  0  0  0  0  0  0  0  0  0
    6.9572   -2.0898   -4.7665 C   0  0  0  0  0  0  0  0  0  0  0  0
    1.9998   -3.6766   -5.1566 H   0  0  0  0  0  0  0  0  0  0  0  0
    3.7358   -3.6797   -4.7571 H   0  0  0  0  0  0  0  0  0  0  0  0
    3.0026   -2.2780   -5.5843 H   0  0  0  0  0  0  0  0  0  0  0  0
    1.6352   -1.7271   -3.5956 H   0  0  0  0  0  0  0  0  0  0  0  0
    4.5215   -2.2349   -2.6901 H   0  0  0  0  0  0  0  0  0  0  0  0
    3.3586   -1.1904   -1.8658 H   0  0  0  0  0  0  0  0  0  0  0  0
    4.4704   -0.7466   -4.6975 H   0  0  0  0  0  0  0  0  0  0  0  0
    4.9847    0.7715   -2.0796 H   0  0  0  0  0  0  0  0  0  0  0  0
    5.4630    1.3308   -3.6840 H   0  0  0  0  0  0  0  0  0  0  0  0
    6.5003   -1.2144   -2.2888 H   0  0  0  0  0  0  0  0  0  0  0  0
    7.3467    0.3190   -2.4540 H   0  0  0  0  0  0  0  0  0  0  0  0
    8.1880    1.0751   -4.7202 H   0  0  0  0  0  0  0  0  0  0  0  0
    9.0820    0.3411   -6.9261 H   0  0  0  0  0  0  0  0  0  0  0  0
    9.6654   -2.7082  -10.2529 H   0  0  0  0  0  0  0  0  0  0  0  0
    9.3227   -4.9509  -11.3099 H   0  0  0  0  0  0  0  0  0  0  0  0
    7.9563   -6.6892  -10.1480 H   0  0  0  0  0  0  0  0  0  0  0  0
    6.9314   -6.1610   -7.9104 H   0  0  0  0  0  0  0  0  0  0  0  0
    6.3838   -2.8199   -4.1909 H   0  0  0  0  0  0  0  0  0  0  0  0
  1  2  1  0
  1 26  1  0
  1 27  1  0
  1 28  1  0
  2  3  1  0
  2  5  1  0
  2 29  1  6
  3  4  3  0
  5  6  1  0
  5 30  1  0
  5 31  1  0
  6  7  1  0
  6  9  1  0
  6 32  1  6
  7  8  3  0
  9 10  1  0
  9 33  1  0
  9 34  1  0
 10 11  1  0
 10 35  1  0
 10 36  1  0
 11 12  2  0
 11 25  1  0
 12 13  1  0
 12 37  1  0
 13 14  2  0
 13 38  1  0
 14 15  1  0
 14 24  1  0
 15 16  1  0
 16 17  1  0
 16 21  2  0
 17 18  2  0
 17 39  1  0
 18 19  1  0
 18 40  1  0
 19 20  2  0
 19 41  1  0
 20 21  1  0
 20 42  1  0
 21 22  1  0
 22 23  2  0
 22 24  1  0
 24 25  2  0
 25 43  1  0
M  END

