
     RDKit          3D

 31 31  0  0  0  0  0  0  0  0999 V2000
    1.2136   -0.5907    0.3328 C   0  0  0  0  0  0  0  0  0  0  0  0
    2.6883   -0.7965   -0.0175 C   0  0  1  0  0  0  0  0  0  0  0  0
    3.3457    0.4334   -0.6363 C   0  0  0  0  0  0  0  0  0  0  0  0
    3.5367   -1.2851    1.5455 S   0  0  1  0  0  0  0  0  0  0  0  0
    3.6810   -0.0797    2.3843 O   0  0  0  0  0  0  0  0  0  0  0  0
    2.8441   -2.4730    2.0761 O   0  0  0  0  0  0  0  0  0  0  0  0
    5.2150   -1.8166    1.0567 C   0  0  0  0  0  0  0  0  0  0  0  0
    5.9226   -2.3670    2.2910 C   0  0  0  0  0  0  0  0  0  0  0  0
    7.6943   -2.7131    2.0114 S   0  0  0  0  0  0  0  0  0  0  0  0
    7.6284   -4.2918    1.1798 C   0  0  0  0  0  0  0  0  0  0  0  0
    6.4897   -4.7612    0.7151 N   0  0  0  0  0  0  0  0  0  0  0  0
    6.4934   -5.9507    0.0891 C   0  0  0  0  0  0  0  0  0  0  0  0
    7.6776   -6.6608   -0.0683 C   0  0  0  0  0  0  0  0  0  0  0  0
    8.8428   -6.2071    0.4103 N   0  0  0  0  0  0  0  0  0  0  0  0
    8.8496   -5.0342    1.0377 C   0  0  0  0  0  0  0  0  0  0  0  0
   10.0427   -4.5530    1.5068 N   0  0  0  0  0  0  0  0  0  0  0  0
    0.6472   -0.3569   -0.5822 H   0  0  0  0  0  0  0  0  0  0  0  0
    1.0976    0.2477    1.0369 H   0  0  0  0  0  0  0  0  0  0  0  0
    0.7875   -1.4930    0.7923 H   0  0  0  0  0  0  0  0  0  0  0  0
    2.8022   -1.6832   -0.6633 H   0  0  0  0  0  0  0  0  0  0  0  0
    3.3382    1.2704    0.0778 H   0  0  0  0  0  0  0  0  0  0  0  0
    2.7876    0.7372   -1.5362 H   0  0  0  0  0  0  0  0  0  0  0  0
    4.3866    0.2465   -0.9417 H   0  0  0  0  0  0  0  0  0  0  0  0
    5.7299   -0.9353    0.6505 H   0  0  0  0  0  0  0  0  0  0  0  0
    5.1102   -2.5961    0.2899 H   0  0  0  0  0  0  0  0  0  0  0  0
    5.4309   -3.2858    2.6360 H   0  0  0  0  0  0  0  0  0  0  0  0
    5.9048   -1.6261    3.1041 H   0  0  0  0  0  0  0  0  0  0  0  0
    5.5381   -6.3282   -0.2870 H   0  0  0  0  0  0  0  0  0  0  0  0
    7.6922   -7.6269   -0.5845 H   0  0  0  0  0  0  0  0  0  0  0  0
   10.8080   -5.2185    1.5062 H   0  0  0  0  0  0  0  0  0  0  0  0
   10.0303   -3.8806    2.2654 H   0  0  0  0  0  0  0  0  0  0  0  0
  1  2  1  0
  1 17  1  0
  1 18  1  0
  1 19  1  0
  2  3  1  0
  2  4  1  0
  2 20  1  6
  3 21  1  0
  3 22  1  0
  3 23  1  0
  4  5  2  0
  4  6  2  0
  4  7  1  6
  7  8  1  0
  7 24  1  0
  7 25  1  0
  8  9  1  0
  8 26  1  0
  8 27  1  0
  9 10  1  0
 10 11  2  0
 10 15  1  0
 11 12  1  0
 12 13  2  0
 12 28  1  0
 13 14  1  0
 13 29  1  0
 14 15  2  0
 15 16  1  0
 16 30  1  0
 16 31  1  0
M  END

