
     RDKit          3D

 54 56  0  0  0  0  0  0  0  0999 V2000
   -2.6628   -0.3370   -6.9663 C   0  0  0  0  0  0  0  0  0  0  0  0
   -1.2856   -0.1289   -7.6215 C   0  0  1  0  0  0  0  0  0  0  0  0
   -1.4235   -0.2064   -9.1587 C   0  0  0  0  0  0  0  0  0  0  0  0
   -0.7216    1.2527   -7.2196 C   0  0  0  0  0  0  0  0  0  0  0  0
   -0.3410   -1.2179   -7.1432 C   0  0  0  0  0  0  0  0  0  0  0  0
   -0.6566   -2.1617   -6.3096 N   0  0  0  0  0  0  0  0  0  0  0  0
    0.3625   -3.0179   -6.0339 N   0  0  0  0  0  0  0  0  0  0  0  0
    1.4697   -2.7354   -6.6533 C   0  0  0  0  0  0  0  0  0  0  0  0
    2.7275   -3.5423   -6.4971 C   0  0  0  0  0  0  0  0  0  0  0  0
    2.4789   -4.6679   -5.6265 N   0  0  0  0  0  0  0  0  0  0  0  0
    3.5504   -5.2538   -4.9821 C   0  0  0  0  0  0  0  0  0  0  0  0
    4.6985   -4.8793   -5.1944 O   0  0  0  0  0  0  0  0  0  0  0  0
    3.2523   -6.2946   -4.1187 N   0  0  0  0  0  0  0  0  0  0  0  0
    1.9170   -6.8230   -3.8732 C   0  0  0  0  0  0  0  0  0  0  0  0
    1.9237   -8.3580   -3.8128 C   0  0  0  0  0  0  0  0  0  0  0  0
    2.9772   -8.9286   -2.8455 C   0  0  2  0  0  0  0  0  0  0  0  0
    2.6123   -8.7542   -1.3486 C   0  0  0  0  0  0  0  0  0  0  0  0
    1.3590   -9.4868   -0.9192 C   0  0  0  0  0  0  0  0  0  0  0  0
    0.1645   -8.7998   -0.6477 C   0  0  0  0  0  0  0  0  0  0  0  0
   -0.9912   -9.4897   -0.2667 C   0  0  0  0  0  0  0  0  0  0  0  0
   -0.9819  -10.8809   -0.1469 C   0  0  0  0  0  0  0  0  0  0  0  0
    0.2080  -11.5551   -0.4151 C   0  0  0  0  0  0  0  0  0  0  0  0
    0.2399  -12.8922   -0.2983 F   0  0  0  0  0  0  0  0  0  0  0  0
    1.3675  -10.8861   -0.7950 C   0  0  0  0  0  0  0  0  0  0  0  0
    4.3459   -8.3071   -3.1867 C   0  0  0  0  0  0  0  0  0  0  0  0
    4.3066   -6.7778   -3.2322 C   0  0  0  0  0  0  0  0  0  0  0  0
    1.3415   -1.3284   -7.6787 S   0  0  0  0  0  0  0  0  0  0  0  0
   -3.3550    0.4489   -7.3074 H   0  0  0  0  0  0  0  0  0  0  0  0
   -2.5934   -0.2937   -5.8702 H   0  0  0  0  0  0  0  0  0  0  0  0
   -3.0854   -1.3170   -7.2296 H   0  0  0  0  0  0  0  0  0  0  0  0
   -2.1178    0.5717   -9.5136 H   0  0  0  0  0  0  0  0  0  0  0  0
   -1.8175   -1.1853   -9.4732 H   0  0  0  0  0  0  0  0  0  0  0  0
   -0.4569   -0.0501   -9.6636 H   0  0  0  0  0  0  0  0  0  0  0  0
   -1.4071    2.0492   -7.5501 H   0  0  0  0  0  0  0  0  0  0  0  0
    0.2611    1.4420   -7.6801 H   0  0  0  0  0  0  0  0  0  0  0  0
   -0.6066    1.3320   -6.1274 H   0  0  0  0  0  0  0  0  0  0  0  0
    3.5416   -2.9127   -6.0947 H   0  0  0  0  0  0  0  0  0  0  0  0
    3.0765   -3.8709   -7.4943 H   0  0  0  0  0  0  0  0  0  0  0  0
    1.5441   -4.6968   -5.2320 H   0  0  0  0  0  0  0  0  0  0  0  0
    1.2467   -6.5187   -4.6873 H   0  0  0  0  0  0  0  0  0  0  0  0
    1.4980   -6.4023   -2.9359 H   0  0  0  0  0  0  0  0  0  0  0  0
    2.1400   -8.7376   -4.8258 H   0  0  0  0  0  0  0  0  0  0  0  0
    0.9146   -8.7123   -3.5471 H   0  0  0  0  0  0  0  0  0  0  0  0
    3.0431  -10.0151   -3.0290 H   0  0  0  0  0  0  0  0  0  0  0  0
    2.5059   -7.6865   -1.1001 H   0  0  0  0  0  0  0  0  0  0  0  0
    3.4641   -9.1224   -0.7512 H   0  0  0  0  0  0  0  0  0  0  0  0
    0.1404   -7.7100   -0.7292 H   0  0  0  0  0  0  0  0  0  0  0  0
   -1.9107   -8.9371   -0.0578 H   0  0  0  0  0  0  0  0  0  0  0  0
   -1.8672  -11.4455    0.1512 H   0  0  0  0  0  0  0  0  0  0  0  0
    2.2721  -11.4694   -0.9834 H   0  0  0  0  0  0  0  0  0  0  0  0
    4.6674   -8.6776   -4.1750 H   0  0  0  0  0  0  0  0  0  0  0  0
    5.1098   -8.6298   -2.4590 H   0  0  0  0  0  0  0  0  0  0  0  0
    5.2542   -6.3693   -3.6030 H   0  0  0  0  0  0  0  0  0  0  0  0
    4.1517   -6.3697   -2.2126 H   0  0  0  0  0  0  0  0  0  0  0  0
  2  1  1  1
  1 28  1  0
  1 29  1  0
  1 30  1  0
  2  3  1  0
  2  4  1  0
  2  5  1  0
  3 31  1  0
  3 32  1  0
  3 33  1  0
  4 34  1  0
  4 35  1  0
  4 36  1  0
  5  6  2  0
  5 27  1  0
  6  7  1  0
  7  8  2  0
  8  9  1  0
  8 27  1  0
  9 10  1  0
  9 37  1  0
  9 38  1  0
 10 11  1  0
 10 39  1  0
 11 12  2  0
 11 13  1  0
 13 14  1  0
 13 26  1  0
 14 15  1  0
 14 40  1  0
 14 41  1  0
 15 16  1  0
 15 42  1  0
 15 43  1  0
 16 17  1  0
 16 25  1  0
 16 44  1  6
 17 18  1  0
 17 45  1  0
 17 46  1  0
 18 19  2  0
 18 24  1  0
 19 20  1  0
 19 47  1  0
 20 21  2  0
 20 48  1  0
 21 22  1  0
 21 49  1  0
 22 23  1  0
 22 24  2  0
 24 50  1  0
 25 26  1  0
 25 51  1  0
 25 52  1  0
 26 53  1  0
 26 54  1  0
M  END

