
     RDKit          3D

 31 32  0  0  0  0  0  0  0  0999 V2000
    1.1329   -0.3413    0.2643 N   0  0  0  0  0  0  0  0  0  0  0  0
    2.2579   -0.1568    0.0601 C   0  0  0  0  0  0  0  0  0  0  0  0
    3.7300    0.0272   -0.0895 C   0  0  1  0  0  0  0  0  0  0  0  0
    4.3247    0.4698    1.1621 N   0  0  0  0  0  0  0  0  0  0  0  0
    3.9743    1.5905    1.9199 C   0  0  0  0  0  0  0  0  0  0  0  0
    2.9610    2.5013    1.5679 C   0  0  0  0  0  0  0  0  0  0  0  0
    2.7019    3.6101    2.3733 C   0  0  0  0  0  0  0  0  0  0  0  0
    3.4211    3.8459    3.5478 C   0  0  0  0  0  0  0  0  0  0  0  0
    3.0472    5.2467    4.5115 Cl  0  0  0  0  0  0  0  0  0  0  0  0
    4.4245    2.9322    3.9122 C   0  0  0  0  0  0  0  0  0  0  0  0
    5.4471    3.1663    5.4967 Br  0  0  0  0  0  0  0  0  0  0  0  0
    4.6970    1.8282    3.1063 C   0  0  0  0  0  0  0  0  0  0  0  0
    4.3554   -1.3592   -0.4245 C   0  0  0  0  0  0  0  0  0  0  0  0
    3.9242   -1.9645   -1.7662 C   0  0  0  0  0  0  0  0  0  0  0  0
    4.3656   -1.1323   -2.9700 C   0  0  0  0  0  0  0  0  0  0  0  0
    3.6337    0.5277   -2.9044 S   0  0  2  0  0  0  0  0  0  0  0  0
    2.1744    0.3763   -2.9672 O   0  0  0  0  0  0  0  0  0  0  0  0
    4.3474    1.4122   -3.8305 O   0  0  0  0  0  0  0  0  0  0  0  0
    4.0814    1.0419   -1.2136 C   0  0  0  0  0  0  0  0  0  0  0  0
    4.7913   -0.2637    1.6824 H   0  0  0  0  0  0  0  0  0  0  0  0
    2.3392    2.3475    0.6873 H   0  0  0  0  0  0  0  0  0  0  0  0
    1.9108    4.3078    2.0935 H   0  0  0  0  0  0  0  0  0  0  0  0
    5.4922    1.1419    3.4045 H   0  0  0  0  0  0  0  0  0  0  0  0
    4.0944   -2.0528    0.3908 H   0  0  0  0  0  0  0  0  0  0  0  0
    5.4508   -1.2248   -0.4050 H   0  0  0  0  0  0  0  0  0  0  0  0
    2.8302   -2.0925   -1.7941 H   0  0  0  0  0  0  0  0  0  0  0  0
    4.3619   -2.9717   -1.8549 H   0  0  0  0  0  0  0  0  0  0  0  0
    4.0138   -1.5456   -3.9272 H   0  0  0  0  0  0  0  0  0  0  0  0
    5.4559   -0.9891   -3.0226 H   0  0  0  0  0  0  0  0  0  0  0  0
    3.5826    2.0126   -1.0906 H   0  0  0  0  0  0  0  0  0  0  0  0
    5.1680    1.2063   -1.2166 H   0  0  0  0  0  0  0  0  0  0  0  0
  1  2  3  0
  3  2  1  1
  3  4  1  0
  3 13  1  0
  3 19  1  0
  4  5  1  0
  4 20  1  0
  5  6  2  0
  5 12  1  0
  6  7  1  0
  6 21  1  0
  7  8  2  0
  7 22  1  0
  8  9  1  0
  8 10  1  0
 10 11  1  0
 10 12  2  0
 12 23  1  0
 13 14  1  0
 13 24  1  0
 13 25  1  0
 14 15  1  0
 14 26  1  0
 14 27  1  0
 16 15  1  6
 15 28  1  0
 15 29  1  0
 16 17  2  0
 16 18  2  0
 16 19  1  0
 19 30  1  0
 19 31  1  0
M  END

