
     RDKit          3D

 39 40  0  0  0  0  0  0  0  0999 V2000
    4.6104   -2.7314    0.4424 C   0  0  0  0  0  0  0  0  0  0  0  0
    4.2885   -1.3084    0.0566 C   0  0  0  0  0  0  0  0  0  0  0  0
    5.3004   -0.3506   -0.0657 C   0  0  0  0  0  0  0  0  0  0  0  0
    5.0350    0.9739   -0.4213 C   0  0  0  0  0  0  0  0  0  0  0  0
    3.7122    1.3452   -0.6607 C   0  0  0  0  0  0  0  0  0  0  0  0
    3.3467    2.9981   -1.1080 Cl  0  0  0  0  0  0  0  0  0  0  0  0
    2.6668    0.4279   -0.5520 C   0  0  0  0  0  0  0  0  0  0  0  0
    2.9531   -0.9004   -0.1933 C   0  0  0  0  0  0  0  0  0  0  0  0
    1.9437   -1.8679   -0.0695 N   0  0  0  0  0  0  0  0  0  0  0  0
    0.5992   -1.7494   -0.2428 C   0  0  0  0  0  0  0  0  0  0  0  0
    0.0040   -0.7305   -0.5538 O   0  0  0  0  0  0  0  0  0  0  0  0
   -0.0583   -3.1418    0.0352 C   0  0  0  0  0  0  0  0  0  0  0  0
    0.6977   -4.0581    0.3697 O   0  0  0  0  0  0  0  0  0  0  0  0
   -1.3983   -3.3052   -0.0676 N   0  0  0  0  0  0  0  0  0  0  0  0
   -2.3782   -2.3368   -0.5525 C   0  0  0  0  0  0  0  0  0  0  0  0
   -1.9483   -4.6225    0.2980 C   0  0  0  0  0  0  0  0  0  0  0  0
   -2.2274   -5.5207   -0.8928 C   0  0  0  0  0  0  0  0  0  0  0  0
   -1.1650   -6.1118   -1.5992 C   0  0  0  0  0  0  0  0  0  0  0  0
   -1.4165   -6.9325   -2.7002 C   0  0  0  0  0  0  0  0  0  0  0  0
   -2.7317   -7.1789   -3.1113 C   0  0  0  0  0  0  0  0  0  0  0  0
   -3.7942   -6.6004   -2.4135 C   0  0  0  0  0  0  0  0  0  0  0  0
   -3.5409   -5.7761   -1.3115 C   0  0  0  0  0  0  0  0  0  0  0  0
    5.6906   -2.8599    0.5975 H   0  0  0  0  0  0  0  0  0  0  0  0
    4.3024   -3.4517   -0.3357 H   0  0  0  0  0  0  0  0  0  0  0  0
    4.1064   -3.0320    1.3778 H   0  0  0  0  0  0  0  0  0  0  0  0
    6.3344   -0.6513    0.1241 H   0  0  0  0  0  0  0  0  0  0  0  0
    5.8384    1.7060   -0.5115 H   0  0  0  0  0  0  0  0  0  0  0  0
    1.6397    0.7279   -0.7403 H   0  0  0  0  0  0  0  0  0  0  0  0
    2.2044   -2.8165    0.2017 H   0  0  0  0  0  0  0  0  0  0  0  0
   -1.8835   -1.4243   -0.8898 H   0  0  0  0  0  0  0  0  0  0  0  0
   -3.0872   -2.0843    0.2550 H   0  0  0  0  0  0  0  0  0  0  0  0
   -2.9497   -2.7830   -1.3827 H   0  0  0  0  0  0  0  0  0  0  0  0
   -2.8806   -4.4429    0.8563 H   0  0  0  0  0  0  0  0  0  0  0  0
   -1.2256   -5.1004    0.9710 H   0  0  0  0  0  0  0  0  0  0  0  0
   -0.1396   -5.9241   -1.2716 H   0  0  0  0  0  0  0  0  0  0  0  0
   -0.5815   -7.3882   -3.2388 H   0  0  0  0  0  0  0  0  0  0  0  0
   -2.9263   -7.8238   -3.9721 H   0  0  0  0  0  0  0  0  0  0  0  0
   -4.8245   -6.7904   -2.7252 H   0  0  0  0  0  0  0  0  0  0  0  0
   -4.3782   -5.3312   -0.7653 H   0  0  0  0  0  0  0  0  0  0  0  0
  1  2  1  0
  1 23  1  0
  1 24  1  0
  1 25  1  0
  2  3  2  0
  2  8  1  0
  3  4  1  0
  3 26  1  0
  4  5  2  0
  4 27  1  0
  5  6  1  0
  5  7  1  0
  7  8  2  0
  7 28  1  0
  8  9  1  0
  9 10  1  0
  9 29  1  0
 10 11  2  0
 10 12  1  0
 12 13  2  0
 12 14  1  0
 14 15  1  0
 14 16  1  0
 15 30  1  0
 15 31  1  0
 15 32  1  0
 16 17  1  0
 16 33  1  0
 16 34  1  0
 17 18  2  0
 17 22  1  0
 18 19  1  0
 18 35  1  0
 19 20  2  0
 19 36  1  0
 20 21  1  0
 20 37  1  0
 21 22  2  0
 21 38  1  0
 22 39  1  0
M  END

