
     RDKit          3D

 52 54  0  0  0  0  0  0  0  0999 V2000
    1.6958   -0.2495    2.1921 C   0  0  0  0  0  0  0  0  0  0  0  0
    2.4421   -0.3742    3.4341 N   0  0  0  0  0  0  0  0  0  0  0  0
    3.8643    0.4757    3.6660 S   0  0  1  0  0  0  0  0  0  0  0  0
    3.5860    1.8577    3.2798 O   0  0  0  0  0  0  0  0  0  0  0  0
    4.3039    0.1272    5.0181 O   0  0  0  0  0  0  0  0  0  0  0  0
    5.0736   -0.1816    2.4809 C   0  0  0  0  0  0  0  0  0  0  0  0
    5.4476    0.6930    1.4574 C   0  0  0  0  0  0  0  0  0  0  0  0
    6.3916    0.2834    0.4983 C   0  0  0  0  0  0  0  0  0  0  0  0
    6.8369    1.0916   -0.5576 N   0  0  0  0  0  0  0  0  0  0  0  0
    6.3445    2.3371   -0.9465 C   0  0  0  0  0  0  0  0  0  0  0  0
    5.4248    2.8998   -0.3734 O   0  0  0  0  0  0  0  0  0  0  0  0
    6.9730    2.9059   -2.0328 N   0  0  0  0  0  0  0  0  0  0  0  0
    6.6181    4.2924   -2.3640 C   0  0  0  0  0  0  0  0  0  0  0  0
    7.5510    4.6435   -3.5257 C   0  0  0  0  0  0  0  0  0  0  0  0
    8.7783    3.7495   -3.2919 C   0  0  0  0  0  0  0  0  0  0  0  0
    8.2041    2.4422   -2.6994 C   0  0  2  0  0  0  0  0  0  0  0  0
    7.9612    1.2972   -3.7101 C   0  0  1  0  0  0  0  0  0  0  0  0
    7.2030    1.6122   -5.0114 C   0  0  0  0  0  0  0  0  0  0  0  0
    7.4056    0.3330   -5.8360 C   0  0  0  0  0  0  0  0  0  0  0  0
    8.8708   -0.0823   -5.5520 C   0  0  0  0  0  0  0  0  0  0  0  0
    9.2515    0.6038   -4.2089 C   0  0  0  0  0  0  0  0  0  0  0  0
    6.9337   -1.0081    0.6120 C   0  0  0  0  0  0  0  0  0  0  0  0
    6.5444   -1.8597    1.6429 C   0  0  0  0  0  0  0  0  0  0  0  0
    5.6025   -1.4842    2.6119 C   0  0  0  0  0  0  0  0  0  0  0  0
    5.2106   -2.4557    3.6986 C   0  0  0  0  0  0  0  0  0  0  0  0
    0.6667   -0.6029    2.3578 H   0  0  0  0  0  0  0  0  0  0  0  0
    2.1333   -0.8146    1.3474 H   0  0  0  0  0  0  0  0  0  0  0  0
    1.6486    0.8134    1.9180 H   0  0  0  0  0  0  0  0  0  0  0  0
    2.4626   -1.2833    3.8890 H   0  0  0  0  0  0  0  0  0  0  0  0
    5.0125    1.6880    1.4036 H   0  0  0  0  0  0  0  0  0  0  0  0
    7.5737    0.6842   -1.1169 H   0  0  0  0  0  0  0  0  0  0  0  0
    6.7820    4.9440   -1.4872 H   0  0  0  0  0  0  0  0  0  0  0  0
    5.5511    4.3737   -2.6196 H   0  0  0  0  0  0  0  0  0  0  0  0
    7.8038    5.7138   -3.5447 H   0  0  0  0  0  0  0  0  0  0  0  0
    7.0733    4.4032   -4.4874 H   0  0  0  0  0  0  0  0  0  0  0  0
    9.4476    4.2180   -2.5526 H   0  0  0  0  0  0  0  0  0  0  0  0
    9.3724    3.5784   -4.2016 H   0  0  0  0  0  0  0  0  0  0  0  0
    8.9080    2.0571   -1.9376 H   0  0  0  0  0  0  0  0  0  0  0  0
    7.3562    0.5352   -3.1846 H   0  0  0  0  0  0  0  0  0  0  0  0
    7.6725    2.4650   -5.5319 H   0  0  0  0  0  0  0  0  0  0  0  0
    6.1445    1.8651   -4.8456 H   0  0  0  0  0  0  0  0  0  0  0  0
    7.1988    0.4722   -6.9083 H   0  0  0  0  0  0  0  0  0  0  0  0
    6.7133   -0.4466   -5.4755 H   0  0  0  0  0  0  0  0  0  0  0  0
    9.5363    0.2605   -6.3599 H   0  0  0  0  0  0  0  0  0  0  0  0
    8.9802   -1.1765   -5.5042 H   0  0  0  0  0  0  0  0  0  0  0  0
   10.0428    1.3541   -4.3722 H   0  0  0  0  0  0  0  0  0  0  0  0
    9.6485   -0.1071   -3.4663 H   0  0  0  0  0  0  0  0  0  0  0  0
    7.6729   -1.3532   -0.1176 H   0  0  0  0  0  0  0  0  0  0  0  0
    6.9899   -2.8567    1.7004 H   0  0  0  0  0  0  0  0  0  0  0  0
    5.8398   -3.3562    3.6551 H   0  0  0  0  0  0  0  0  0  0  0  0
    4.1633   -2.7875    3.5850 H   0  0  0  0  0  0  0  0  0  0  0  0
    5.2975   -2.0015    4.6950 H   0  0  0  0  0  0  0  0  0  0  0  0
  1  2  1  0
  1 26  1  0
  1 27  1  0
  1 28  1  0
  3  2  1  6
  2 29  1  0
  3  4  2  0
  3  5  2  0
  3  6  1  0
  6  7  2  0
  6 24  1  0
  7  8  1  0
  7 30  1  0
  8  9  1  0
  8 22  2  0
  9 10  1  0
  9 31  1  0
 10 11  2  0
 10 12  1  0
 12 13  1  0
 12 16  1  0
 13 14  1  0
 13 32  1  0
 13 33  1  0
 14 15  1  0
 14 34  1  0
 14 35  1  0
 15 16  1  0
 15 36  1  0
 15 37  1  0
 16 17  1  0
 16 38  1  1
 17 18  1  0
 17 21  1  0
 17 39  1  1
 18 19  1  0
 18 40  1  0
 18 41  1  0
 19 20  1  0
 19 42  1  0
 19 43  1  0
 20 21  1  0
 20 44  1  0
 20 45  1  0
 21 46  1  0
 21 47  1  0
 22 23  1  0
 22 48  1  0
 23 24  2  0
 23 49  1  0
 24 25  1  0
 25 50  1  0
 25 51  1  0
 25 52  1  0
M  END

