
     RDKit          3D

 35 35  0  0  0  0  0  0  0  0999 V2000
    1.0267    0.6116    0.8410 C   0  0  0  0  0  0  0  0  0  0  0  0
    2.4566    0.2486    0.4351 C   0  0  0  0  0  0  0  0  0  0  0  0
    3.0242    1.1811   -0.6411 C   0  0  0  0  0  0  0  0  0  0  0  0
    4.5036    0.9259   -1.0230 C   0  0  1  0  0  0  0  0  0  0  0  0
    4.7222   -0.4427   -1.7001 C   0  0  0  0  0  0  0  0  0  0  0  0
    6.1858   -0.7767   -1.9939 C   0  0  0  0  0  0  0  0  0  0  0  0
    6.2950   -2.0967   -2.6093 N   0  0  0  0  0  0  0  0  0  0  0  0
    5.0192    2.0852   -1.8764 C   0  0  0  0  0  0  0  0  0  0  0  0
    4.5657    2.2180   -3.1995 C   0  0  0  0  0  0  0  0  0  0  0  0
    4.9703    3.2726   -4.0189 C   0  0  0  0  0  0  0  0  0  0  0  0
    5.8524    4.2373   -3.5292 C   0  0  0  0  0  0  0  0  0  0  0  0
    6.3171    4.1331   -2.2190 C   0  0  0  0  0  0  0  0  0  0  0  0
    5.9081    3.0741   -1.3956 C   0  0  0  0  0  0  0  0  0  0  0  0
    6.4478    3.0232    0.0170 C   0  0  1  0  0  0  0  0  0  0  0  0
    5.4614    3.0353    0.9398 F   0  0  0  0  0  0  0  0  0  0  0  0
    7.1758    1.9072    0.2455 F   0  0  0  0  0  0  0  0  0  0  0  0
    7.2486    4.0651    0.2960 F   0  0  0  0  0  0  0  0  0  0  0  0
    0.6425   -0.0685    1.6181 H   0  0  0  0  0  0  0  0  0  0  0  0
    0.3389    0.5552   -0.0195 H   0  0  0  0  0  0  0  0  0  0  0  0
    0.9709    1.6385    1.2394 H   0  0  0  0  0  0  0  0  0  0  0  0
    2.4774   -0.7973    0.0844 H   0  0  0  0  0  0  0  0  0  0  0  0
    3.1125    0.2849    1.3240 H   0  0  0  0  0  0  0  0  0  0  0  0
    2.9424    2.2202   -0.2789 H   0  0  0  0  0  0  0  0  0  0  0  0
    2.3956    1.1250   -1.5487 H   0  0  0  0  0  0  0  0  0  0  0  0
    5.0692    0.9033   -0.0825 H   0  0  0  0  0  0  0  0  0  0  0  0
    4.1483   -0.5197   -2.6391 H   0  0  0  0  0  0  0  0  0  0  0  0
    4.3151   -1.2259   -1.0373 H   0  0  0  0  0  0  0  0  0  0  0  0
    6.7750   -0.6552   -1.0587 H   0  0  0  0  0  0  0  0  0  0  0  0
    6.5941   -0.0378   -2.7040 H   0  0  0  0  0  0  0  0  0  0  0  0
    6.0390   -2.8213   -1.9364 H   0  0  0  0  0  0  0  0  0  0  0  0
    7.2621   -2.2881   -2.8708 H   0  0  0  0  0  0  0  0  0  0  0  0
    3.8769    1.4715   -3.6007 H   0  0  0  0  0  0  0  0  0  0  0  0
    4.5947    3.3385   -5.0433 H   0  0  0  0  0  0  0  0  0  0  0  0
    6.1786    5.0668   -4.1609 H   0  0  0  0  0  0  0  0  0  0  0  0
    7.0052    4.8807   -1.8235 H   0  0  0  0  0  0  0  0  0  0  0  0
  1  2  1  0
  1 18  1  0
  1 19  1  0
  1 20  1  0
  2  3  1  0
  2 21  1  0
  2 22  1  0
  3  4  1  0
  3 23  1  0
  3 24  1  0
  4  5  1  0
  4  8  1  0
  4 25  1  1
  5  6  1  0
  5 26  1  0
  5 27  1  0
  6  7  1  0
  6 28  1  0
  6 29  1  0
  7 30  1  0
  7 31  1  0
  8  9  2  0
  8 13  1  0
  9 10  1  0
  9 32  1  0
 10 11  2  0
 10 33  1  0
 11 12  1  0
 11 34  1  0
 12 13  2  0
 12 35  1  0
 13 14  1  0
 14 15  1  1
 14 16  1  0
 14 17  1  0
M  END

