
     RDKit          3D

 50 52  0  0  0  0  0  0  0  0999 V2000
    1.7432    0.5961    0.2853 C   0  0  0  0  0  0  0  0  0  0  0  0
    3.1712    0.5193    0.6317 N   0  0  0  0  0  0  0  0  0  0  0  0
    3.9377    1.6341    0.8787 C   0  0  0  0  0  0  0  0  0  0  0  0
    3.3242    3.0138    0.7650 C   0  0  0  0  0  0  0  0  0  0  0  0
    3.0741    3.3666   -0.6300 N   0  0  0  0  0  0  0  0  0  0  0  0
    1.8374    4.4058   -1.0753 S   0  0  1  0  0  0  0  0  0  0  0  0
    1.8332    4.3907   -2.5351 O   0  0  0  0  0  0  0  0  0  0  0  0
    0.6802    4.0014   -0.2687 O   0  0  0  0  0  0  0  0  0  0  0  0
    2.3080    6.0583   -0.5455 C   0  0  0  0  0  0  0  0  0  0  0  0
    3.0944    6.8424   -1.3973 C   0  0  0  0  0  0  0  0  0  0  0  0
    3.4823    8.1161   -0.9767 C   0  0  0  0  0  0  0  0  0  0  0  0
    3.0800    8.5962    0.2750 C   0  0  0  0  0  0  0  0  0  0  0  0
    2.2804    7.8081    1.1089 C   0  0  0  0  0  0  0  0  0  0  0  0
    1.8851    6.5310    0.7010 C   0  0  0  0  0  0  0  0  0  0  0  0
    5.2661    1.5123    1.1968 C   0  0  0  0  0  0  0  0  0  0  0  0
    5.9746    0.2482    1.2669 C   0  0  0  0  0  0  0  0  0  0  0  0
    7.1855    0.1508    1.4815 O   0  0  0  0  0  0  0  0  0  0  0  0
    5.0915   -0.9105    1.0385 C   0  0  0  0  0  0  0  0  0  0  0  0
    5.5526   -2.1801    1.0575 O   0  0  0  0  0  0  0  0  0  0  0  0
    6.4795   -2.5934    2.0680 C   0  0  0  0  0  0  0  0  0  0  0  0
    6.7829   -4.0619    1.8940 C   0  0  0  0  0  0  0  0  0  0  0  0
    6.3975   -4.7713    0.7491 C   0  0  0  0  0  0  0  0  0  0  0  0
    6.7249   -6.1249    0.6126 C   0  0  0  0  0  0  0  0  0  0  0  0
    7.4412   -6.7847    1.6138 C   0  0  0  0  0  0  0  0  0  0  0  0
    7.8288   -6.0815    2.7598 C   0  0  0  0  0  0  0  0  0  0  0  0
    7.5004   -4.7318    2.8981 C   0  0  0  0  0  0  0  0  0  0  0  0
    3.7610   -0.7305    0.7347 C   0  0  0  0  0  0  0  0  0  0  0  0
    2.8655   -1.9374    0.6079 C   0  0  0  0  0  0  0  0  0  0  0  0
    1.9646   -2.1838    1.3707 O   0  0  0  0  0  0  0  0  0  0  0  0
    3.1695   -2.7010   -0.4492 O   0  0  0  0  0  0  0  0  0  0  0  0
    1.4614    1.6179    0.0251 H   0  0  0  0  0  0  0  0  0  0  0  0
    1.1260    0.2353    1.1195 H   0  0  0  0  0  0  0  0  0  0  0  0
    1.5466   -0.0343   -0.5938 H   0  0  0  0  0  0  0  0  0  0  0  0
    4.0089    3.7237    1.2587 H   0  0  0  0  0  0  0  0  0  0  0  0
    2.3618    3.0675    1.2938 H   0  0  0  0  0  0  0  0  0  0  0  0
    3.8808    3.4162   -1.2495 H   0  0  0  0  0  0  0  0  0  0  0  0
    3.3765    6.4614   -2.3807 H   0  0  0  0  0  0  0  0  0  0  0  0
    4.0932    8.7404   -1.6331 H   0  0  0  0  0  0  0  0  0  0  0  0
    3.3841    9.5950    0.5977 H   0  0  0  0  0  0  0  0  0  0  0  0
    1.9539    8.1917    2.0785 H   0  0  0  0  0  0  0  0  0  0  0  0
    1.2386    5.9123    1.3256 H   0  0  0  0  0  0  0  0  0  0  0  0
    5.8608    2.4097    1.3768 H   0  0  0  0  0  0  0  0  0  0  0  0
    6.0357   -2.4133    3.0651 H   0  0  0  0  0  0  0  0  0  0  0  0
    7.3916   -1.9832    1.9968 H   0  0  0  0  0  0  0  0  0  0  0  0
    5.8344   -4.2556   -0.0299 H   0  0  0  0  0  0  0  0  0  0  0  0
    6.4175   -6.6666   -0.2863 H   0  0  0  0  0  0  0  0  0  0  0  0
    7.6963   -7.8419    1.5046 H   0  0  0  0  0  0  0  0  0  0  0  0
    8.3876   -6.5879    3.5513 H   0  0  0  0  0  0  0  0  0  0  0  0
    7.8059   -4.1898    3.7985 H   0  0  0  0  0  0  0  0  0  0  0  0
    2.5881   -3.4819   -0.4128 H   0  0  0  0  0  0  0  0  0  0  0  0
  1  2  1  0
  1 31  1  0
  1 32  1  0
  1 33  1  0
  2  3  1  0
  2 27  1  0
  3  4  1  0
  3 15  2  0
  4  5  1  0
  4 34  1  0
  4 35  1  0
  6  5  1  1
  5 36  1  0
  6  7  2  0
  6  8  2  0
  6  9  1  0
  9 10  2  0
  9 14  1  0
 10 11  1  0
 10 37  1  0
 11 12  2  0
 11 38  1  0
 12 13  1  0
 12 39  1  0
 13 14  2  0
 13 40  1  0
 14 41  1  0
 15 16  1  0
 15 42  1  0
 16 17  2  0
 16 18  1  0
 18 19  1  0
 18 27  2  0
 19 20  1  0
 20 21  1  0
 20 43  1  0
 20 44  1  0
 21 22  2  0
 21 26  1  0
 22 23  1  0
 22 45  1  0
 23 24  2  0
 23 46  1  0
 24 25  1  0
 24 47  1  0
 25 26  2  0
 25 48  1  0
 26 49  1  0
 27 28  1  0
 28 29  2  0
 28 30  1  0
 30 50  1  0
M  END

