
     RDKit          3D

 33 34  0  0  0  0  0  0  0  0999 V2000
    2.2150   -1.4089    3.5658 N   0  0  0  0  0  0  0  0  0  0  0  0
    3.2382   -1.2684    3.0345 C   0  0  0  0  0  0  0  0  0  0  0  0
    4.5055   -1.0809    2.3987 C   0  0  0  0  0  0  0  0  0  0  0  0
    5.5158   -0.2795    2.9774 C   0  0  0  0  0  0  0  0  0  0  0  0
    6.7388   -0.1052    2.3516 C   0  0  0  0  0  0  0  0  0  0  0  0
    6.9995   -0.7308    1.1135 C   0  0  0  0  0  0  0  0  0  0  0  0
    8.2123   -0.5086    0.5766 O   0  0  0  0  0  0  0  0  0  0  0  0
    8.5660   -1.0938   -0.6749 C   0  0  0  0  0  0  0  0  0  0  0  0
    9.9930   -0.6661   -1.0218 C   0  0  1  0  0  0  0  0  0  0  0  0
   10.5077   -1.3994   -2.2788 C   0  0  0  0  0  0  0  0  0  0  0  0
    9.9006   -0.8682   -3.5870 C   0  0  0  0  0  0  0  0  0  0  0  0
   10.0865    0.6494   -3.7171 C   0  0  0  0  0  0  0  0  0  0  0  0
    9.5316    1.3903   -2.4933 C   0  0  0  0  0  0  0  0  0  0  0  0
   10.1399    0.8615   -1.1860 C   0  0  0  0  0  0  0  0  0  0  0  0
    6.0115   -1.5331    0.5192 C   0  0  0  0  0  0  0  0  0  0  0  0
    4.7912   -1.6916    1.1687 C   0  0  0  0  0  0  0  0  0  0  0  0
    3.8614   -2.4556    0.5937 F   0  0  0  0  0  0  0  0  0  0  0  0
    5.3168    0.2056    3.9347 H   0  0  0  0  0  0  0  0  0  0  0  0
    7.5204    0.5122    2.7964 H   0  0  0  0  0  0  0  0  0  0  0  0
    7.8408   -0.7770   -1.4450 H   0  0  0  0  0  0  0  0  0  0  0  0
    8.5114   -2.1950   -0.5953 H   0  0  0  0  0  0  0  0  0  0  0  0
   10.6121   -0.9791   -0.1632 H   0  0  0  0  0  0  0  0  0  0  0  0
   10.3339   -2.4857   -2.1861 H   0  0  0  0  0  0  0  0  0  0  0  0
   11.6034   -1.2694   -2.3209 H   0  0  0  0  0  0  0  0  0  0  0  0
    8.8228   -1.1097   -3.6318 H   0  0  0  0  0  0  0  0  0  0  0  0
   10.3601   -1.3863   -4.4453 H   0  0  0  0  0  0  0  0  0  0  0  0
    9.6077    1.0167   -4.6403 H   0  0  0  0  0  0  0  0  0  0  0  0
   11.1650    0.8732   -3.8169 H   0  0  0  0  0  0  0  0  0  0  0  0
    8.4315    1.2841   -2.4695 H   0  0  0  0  0  0  0  0  0  0  0  0
    9.7249    2.4725   -2.5803 H   0  0  0  0  0  0  0  0  0  0  0  0
    9.6967    1.3711   -0.3161 H   0  0  0  0  0  0  0  0  0  0  0  0
   11.2178    1.1028   -1.1724 H   0  0  0  0  0  0  0  0  0  0  0  0
    6.1557   -2.0419   -0.4322 H   0  0  0  0  0  0  0  0  0  0  0  0
  1  2  3  0
  2  3  1  0
  3  4  2  0
  3 16  1  0
  4  5  1  0
  4 18  1  0
  5  6  2  0
  5 19  1  0
  6  7  1  0
  6 15  1  0
  7  8  1  0
  8  9  1  0
  8 20  1  0
  8 21  1  0
  9 10  1  0
  9 14  1  0
  9 22  1  1
 10 11  1  0
 10 23  1  0
 10 24  1  0
 11 12  1  0
 11 25  1  0
 11 26  1  0
 12 13  1  0
 12 27  1  0
 12 28  1  0
 13 14  1  0
 13 29  1  0
 13 30  1  0
 14 31  1  0
 14 32  1  0
 15 16  2  0
 15 33  1  0
 16 17  1  0
M  END

