
     RDKit          3D

 57 60  0  0  0  0  0  0  0  0999 V2000
    5.3415    0.2387    1.4019 C   0  0  0  0  0  0  0  0  0  0  0  0
    4.5733    1.1607    0.6567 O   0  0  0  0  0  0  0  0  0  0  0  0
    4.7574    1.2713   -0.6810 C   0  0  0  0  0  0  0  0  0  0  0  0
    5.7197    0.5395   -1.3920 C   0  0  0  0  0  0  0  0  0  0  0  0
    5.8499    0.7028   -2.7717 C   0  0  0  0  0  0  0  0  0  0  0  0
    5.0263    1.5992   -3.4625 C   0  0  0  0  0  0  0  0  0  0  0  0
    5.1631    1.8375   -4.9197 C   0  0  0  0  0  0  0  0  0  0  0  0
    5.2278    3.1292   -5.2918 O   0  0  0  0  0  0  0  0  0  0  0  0
    5.1904    0.8724   -5.8860 C   0  0  0  0  0  0  0  0  0  0  0  0
    5.4248    1.1185   -7.3149 C   0  0  0  0  0  0  0  0  0  0  0  0
    5.6159    2.1527   -7.9145 O   0  0  0  0  0  0  0  0  0  0  0  0
    5.4061   -0.2626   -8.0020 C   0  0  0  0  0  0  0  0  0  0  0  0
    5.5498   -0.4831   -9.1814 O   0  0  0  0  0  0  0  0  0  0  0  0
    5.2076   -1.1979   -7.0013 N   0  0  0  0  0  0  0  0  0  0  0  0
    5.0848   -2.5917   -7.2671 C   0  0  0  0  0  0  0  0  0  0  0  0
    4.0551   -3.0352   -8.1096 C   0  0  0  0  0  0  0  0  0  0  0  0
    3.8988   -4.3870   -8.4052 C   0  0  0  0  0  0  0  0  0  0  0  0
    4.7872   -5.3050   -7.8405 C   0  0  0  0  0  0  0  0  0  0  0  0
    4.6080   -7.0112   -8.1853 Cl  0  0  0  0  0  0  0  0  0  0  0  0
    5.8258   -4.8779   -7.0130 C   0  0  0  0  0  0  0  0  0  0  0  0
    6.0004   -3.5169   -6.7207 C   0  0  0  0  0  0  0  0  0  0  0  0
    7.1601   -3.0816   -5.8589 C   0  0  0  0  0  0  0  0  0  0  0  0
    4.9332   -0.6147   -5.6664 C   0  0  2  0  0  0  0  0  0  0  0  0
    3.5302   -0.9279   -5.1833 C   0  0  0  0  0  0  0  0  0  0  0  0
    2.3340   -0.3919   -5.6024 C   0  0  0  0  0  0  0  0  0  0  0  0
    1.2016   -0.9770   -4.9608 C   0  0  0  0  0  0  0  0  0  0  0  0
    1.5484   -1.9526   -4.0589 C   0  0  0  0  0  0  0  0  0  0  0  0
    3.2609   -2.1666   -3.9904 S   0  0  0  0  0  0  0  0  0  0  0  0
    4.0711    2.3352   -2.7278 C   0  0  0  0  0  0  0  0  0  0  0  0
    3.9067    2.1901   -1.3512 C   0  0  0  0  0  0  0  0  0  0  0  0
    2.8743    2.9770   -0.5531 C   0  0  1  0  0  0  0  0  0  0  0  0
    3.5360    4.1565    0.1872 C   0  0  0  0  0  0  0  0  0  0  0  0
    1.6780    3.4530   -1.3856 C   0  0  0  0  0  0  0  0  0  0  0  0
    4.9965    0.3155    2.4413 H   0  0  0  0  0  0  0  0  0  0  0  0
    6.4187    0.4788    1.3636 H   0  0  0  0  0  0  0  0  0  0  0  0
    5.1915   -0.7965    1.0483 H   0  0  0  0  0  0  0  0  0  0  0  0
    6.3809   -0.1560   -0.8760 H   0  0  0  0  0  0  0  0  0  0  0  0
    6.6239    0.1476   -3.3047 H   0  0  0  0  0  0  0  0  0  0  0  0
    5.3559    3.6771   -4.5040 H   0  0  0  0  0  0  0  0  0  0  0  0
    3.3721   -2.3024   -8.5407 H   0  0  0  0  0  0  0  0  0  0  0  0
    3.0974   -4.7291   -9.0615 H   0  0  0  0  0  0  0  0  0  0  0  0
    6.5204   -5.6147   -6.6049 H   0  0  0  0  0  0  0  0  0  0  0  0
    7.9797   -3.8131   -5.9073 H   0  0  0  0  0  0  0  0  0  0  0  0
    6.8691   -2.9930   -4.7971 H   0  0  0  0  0  0  0  0  0  0  0  0
    7.5523   -2.1049   -6.1791 H   0  0  0  0  0  0  0  0  0  0  0  0
    5.6437   -1.0467   -4.9464 H   0  0  0  0  0  0  0  0  0  0  0  0
    2.2680    0.4043   -6.3460 H   0  0  0  0  0  0  0  0  0  0  0  0
    0.1695   -0.6827   -5.1585 H   0  0  0  0  0  0  0  0  0  0  0  0
    0.8942   -2.5543   -3.4295 H   0  0  0  0  0  0  0  0  0  0  0  0
    3.4144    3.0209   -3.2670 H   0  0  0  0  0  0  0  0  0  0  0  0
    2.4933    2.2874    0.2181 H   0  0  0  0  0  0  0  0  0  0  0  0
    3.9458    4.8890   -0.5281 H   0  0  0  0  0  0  0  0  0  0  0  0
    4.3563    3.8125    0.8337 H   0  0  0  0  0  0  0  0  0  0  0  0
    2.8005    4.6786    0.8207 H   0  0  0  0  0  0  0  0  0  0  0  0
    1.9623    4.2287   -2.1160 H   0  0  0  0  0  0  0  0  0  0  0  0
    0.9156    3.8987   -0.7277 H   0  0  0  0  0  0  0  0  0  0  0  0
    1.2064    2.6244   -1.9368 H   0  0  0  0  0  0  0  0  0  0  0  0
  1  2  1  0
  1 34  1  0
  1 35  1  0
  1 36  1  0
  2  3  1  0
  3  4  2  0
  3 30  1  0
  4  5  1  0
  4 37  1  0
  5  6  2  0
  5 38  1  0
  6  7  1  0
  6 29  1  0
  7  8  1  0
  7  9  2  0
  8 39  1  0
  9 10  1  0
  9 23  1  0
 10 11  2  0
 10 12  1  0
 12 13  2  0
 12 14  1  0
 14 15  1  0
 14 23  1  0
 15 16  2  0
 15 21  1  0
 16 17  1  0
 16 40  1  0
 17 18  2  0
 17 41  1  0
 18 19  1  0
 18 20  1  0
 20 21  2  0
 20 42  1  0
 21 22  1  0
 22 43  1  0
 22 44  1  0
 22 45  1  0
 23 24  1  0
 23 46  1  1
 24 25  2  0
 24 28  1  0
 25 26  1  0
 25 47  1  0
 26 27  2  0
 26 48  1  0
 27 28  1  0
 27 49  1  0
 29 30  2  0
 29 50  1  0
 30 31  1  0
 31 32  1  0
 31 33  1  0
 31 51  1  1
 32 52  1  0
 32 53  1  0
 32 54  1  0
 33 55  1  0
 33 56  1  0
 33 57  1  0
M  END

