
     RDKit          3D

 35 34  0  0  0  0  0  0  0  0999 V2000
    6.3950    1.5217   -1.7727 C   0  0  0  0  0  0  0  0  0  0  0  0
    5.3777    2.4500   -1.4490 O   0  0  0  0  0  0  0  0  0  0  0  0
    4.1471    1.8959   -1.0664 C   0  0  0  0  0  0  0  0  0  0  0  0
    4.1286    1.2706    0.3390 C   0  0  0  0  0  0  0  0  0  0  0  0
    4.5617    2.1953    1.3845 N   0  0  0  0  0  0  0  0  0  0  0  0
    3.5790    3.1661    1.8506 C   0  0  0  0  0  0  0  0  0  0  0  0
    2.7961    2.6928    3.0821 C   0  0  0  0  0  0  0  0  0  0  0  0
    1.6734    3.6519    3.4563 C   0  0  0  0  0  0  0  0  0  0  0  0
    1.3777    4.6213    2.8131 O   0  0  0  0  0  0  0  0  0  0  0  0
    0.9955    3.3441    4.5849 O   0  0  0  0  0  0  0  0  0  0  0  0
    5.8482    2.0592    1.8666 C   0  0  0  0  0  0  0  0  0  0  0  0
    6.5705    1.1393    1.5106 O   0  0  0  0  0  0  0  0  0  0  0  0
    6.3769    3.1027    2.8611 C   0  0  1  0  0  0  0  0  0  0  0  0
    7.1428    2.4120    3.9919 C   0  0  0  0  0  0  0  0  0  0  0  0
    7.5715    4.2344    2.0131 S   0  0  0  0  0  0  0  0  0  0  0  0
    6.5343    5.0567    0.7593 C   0  0  0  0  0  0  0  0  0  0  0  0
    7.2324    2.0958   -2.1949 H   0  0  0  0  0  0  0  0  0  0  0  0
    6.0461    0.7976   -2.5357 H   0  0  0  0  0  0  0  0  0  0  0  0
    6.7561    0.9752   -0.8846 H   0  0  0  0  0  0  0  0  0  0  0  0
    3.8153    1.1215   -1.7902 H   0  0  0  0  0  0  0  0  0  0  0  0
    3.4161    2.7204   -1.1190 H   0  0  0  0  0  0  0  0  0  0  0  0
    4.7884    0.3952    0.3831 H   0  0  0  0  0  0  0  0  0  0  0  0
    3.1010    0.9250    0.5497 H   0  0  0  0  0  0  0  0  0  0  0  0
    2.8676    3.3637    1.0366 H   0  0  0  0  0  0  0  0  0  0  0  0
    4.0432    4.1375    2.0583 H   0  0  0  0  0  0  0  0  0  0  0  0
    3.4713    2.5713    3.9482 H   0  0  0  0  0  0  0  0  0  0  0  0
    2.3568    1.6956    2.8973 H   0  0  0  0  0  0  0  0  0  0  0  0
    1.3499    2.5407    4.9922 H   0  0  0  0  0  0  0  0  0  0  0  0
    5.5780    3.7246    3.2857 H   0  0  0  0  0  0  0  0  0  0  0  0
    7.9291    1.7698    3.5719 H   0  0  0  0  0  0  0  0  0  0  0  0
    6.4649    1.7752    4.5833 H   0  0  0  0  0  0  0  0  0  0  0  0
    7.5971    3.1550    4.6639 H   0  0  0  0  0  0  0  0  0  0  0  0
    7.2125    5.7349    0.2205 H   0  0  0  0  0  0  0  0  0  0  0  0
    5.7371    5.6630    1.2172 H   0  0  0  0  0  0  0  0  0  0  0  0
    6.1125    4.3394    0.0391 H   0  0  0  0  0  0  0  0  0  0  0  0
  1  2  1  0
  1 17  1  0
  1 18  1  0
  1 19  1  0
  2  3  1  0
  3  4  1  0
  3 20  1  0
  3 21  1  0
  4  5  1  0
  4 22  1  0
  4 23  1  0
  5  6  1  0
  5 11  1  0
  6  7  1  0
  6 24  1  0
  6 25  1  0
  7  8  1  0
  7 26  1  0
  7 27  1  0
  8  9  2  0
  8 10  1  0
 10 28  1  0
 11 12  2  0
 11 13  1  0
 13 14  1  0
 13 15  1  0
 13 29  1  1
 14 30  1  0
 14 31  1  0
 14 32  1  0
 15 16  1  0
 16 33  1  0
 16 34  1  0
 16 35  1  0
M  END

