
     RDKit          3D

 27 27  0  0  0  0  0  0  0  0999 V2000
    3.1284   -1.4345    0.6146 N   0  0  0  0  0  0  0  0  0  0  0  0
    2.6048   -0.2173    0.0022 C   0  0  0  0  0  0  0  0  0  0  0  0
    2.9653    1.0239    0.8263 C   0  0  0  0  0  0  0  0  0  0  0  0
    4.4732    1.2298    0.9691 C   0  0  0  0  0  0  0  0  0  0  0  0
    4.8209    2.6648    2.0541 S   0  0  0  0  0  0  0  0  0  0  0  0
    6.6626    2.5715    2.0802 C   0  0  0  0  0  0  0  0  0  0  0  0
    7.2157    3.5869    3.0440 C   0  0  0  0  0  0  0  0  0  0  0  0
    7.4963    4.8876    2.5978 C   0  0  0  0  0  0  0  0  0  0  0  0
    7.9859    5.8638    3.4648 C   0  0  0  0  0  0  0  0  0  0  0  0
    8.2045    5.5578    4.8076 C   0  0  0  0  0  0  0  0  0  0  0  0
    7.9287    4.2710    5.2785 C   0  0  0  0  0  0  0  0  0  0  0  0
    8.2154    3.9150    6.9600 Cl  0  0  0  0  0  0  0  0  0  0  0  0
    7.4296    3.2873    4.4054 C   0  0  0  0  0  0  0  0  0  0  0  0
    7.0884    1.6894    5.0142 Cl  0  0  0  0  0  0  0  0  0  0  0  0
    2.9805   -2.2390    0.0061 H   0  0  0  0  0  0  0  0  0  0  0  0
    2.6324   -1.6367    1.4840 H   0  0  0  0  0  0  0  0  0  0  0  0
    1.5037   -0.2224   -0.1509 H   0  0  0  0  0  0  0  0  0  0  0  0
    3.0517   -0.1241   -1.0036 H   0  0  0  0  0  0  0  0  0  0  0  0
    2.5135    0.9354    1.8315 H   0  0  0  0  0  0  0  0  0  0  0  0
    2.5042    1.9112    0.3597 H   0  0  0  0  0  0  0  0  0  0  0  0
    4.9302    1.4032   -0.0206 H   0  0  0  0  0  0  0  0  0  0  0  0
    4.9299    0.3244    1.3967 H   0  0  0  0  0  0  0  0  0  0  0  0
    7.0442    2.7705    1.0668 H   0  0  0  0  0  0  0  0  0  0  0  0
    6.9532    1.5526    2.3717 H   0  0  0  0  0  0  0  0  0  0  0  0
    7.3212    5.1285    1.5465 H   0  0  0  0  0  0  0  0  0  0  0  0
    8.1999    6.8695    3.0960 H   0  0  0  0  0  0  0  0  0  0  0  0
    8.5892    6.3043    5.5040 H   0  0  0  0  0  0  0  0  0  0  0  0
  1  2  1  0
  1 15  1  0
  1 16  1  0
  2  3  1  0
  2 17  1  0
  2 18  1  0
  3  4  1  0
  3 19  1  0
  3 20  1  0
  4  5  1  0
  4 21  1  0
  4 22  1  0
  5  6  1  0
  6  7  1  0
  6 23  1  0
  6 24  1  0
  7  8  2  0
  7 13  1  0
  8  9  1  0
  8 25  1  0
  9 10  2  0
  9 26  1  0
 10 11  1  0
 10 27  1  0
 11 12  1  0
 11 13  2  0
 13 14  1  0
M  END

