
     RDKit          3D

 55 59  0  0  0  0  0  0  0  0999 V2000
    6.4177   -8.3099   -1.1002 F   0  0  0  0  0  0  0  0  0  0  0  0
    7.0398   -7.1239   -1.2031 C   0  0  0  0  0  0  0  0  0  0  0  0
    7.1828   -6.5344   -2.4606 C   0  0  0  0  0  0  0  0  0  0  0  0
    7.8264   -5.3051   -2.5669 C   0  0  0  0  0  0  0  0  0  0  0  0
    8.3281   -4.6639   -1.4213 C   0  0  0  0  0  0  0  0  0  0  0  0
    8.9449   -3.4655   -1.6334 O   0  0  0  0  0  0  0  0  0  0  0  0
    9.4177   -2.7349   -0.5250 C   0  0  0  0  0  0  0  0  0  0  0  0
   10.0066   -1.4517   -1.0152 C   0  0  0  0  0  0  0  0  0  0  0  0
   11.2049   -1.0017   -0.8189 N   0  0  0  0  0  0  0  0  0  0  0  0
   11.1783    0.2223   -1.4610 C   0  0  0  0  0  0  0  0  0  0  0  0
   12.3329    1.1291   -1.5166 C   0  0  0  0  0  0  0  0  0  0  0  0
   12.2237    2.3701   -2.1990 C   0  0  0  0  0  0  0  0  0  0  0  0
   13.2928    3.2542   -2.2759 C   0  0  0  0  0  0  0  0  0  0  0  0
   14.4883    2.8701   -1.6506 C   0  0  0  0  0  0  0  0  0  0  0  0
   14.6160    1.6344   -0.9607 C   0  0  0  0  0  0  0  0  0  0  0  0
   13.5285    0.7548   -0.8929 C   0  0  0  0  0  0  0  0  0  0  0  0
   15.8898    1.5141   -0.4335 N   0  0  0  0  0  0  0  0  0  0  0  0
   16.4981    2.6139   -0.7843 C   0  0  0  0  0  0  0  0  0  0  0  0
   15.7180    3.4873   -1.5170 N   0  0  0  0  0  0  0  0  0  0  0  0
   16.1368    4.7522   -2.0964 C   0  0  0  0  0  0  0  0  0  0  0  0
   16.5443    4.6411   -3.5783 C   0  0  0  0  0  0  0  0  0  0  0  0
   16.9684    5.9302   -4.0960 N   0  0  0  0  0  0  0  0  0  0  0  0
   18.3895    6.2358   -3.9317 C   0  0  0  0  0  0  0  0  0  0  0  0
   19.2815    5.6084   -5.0179 C   0  0  0  0  0  0  0  0  0  0  0  0
   18.7831    5.9922   -6.4183 C   0  0  0  0  0  0  0  0  0  0  0  0
   17.2903    5.6697   -6.5738 C   0  0  0  0  0  0  0  0  0  0  0  0
   16.4839    6.2980   -5.4248 C   0  0  0  0  0  0  0  0  0  0  0  0
   10.0174    0.4916   -2.0189 N   0  0  0  0  0  0  0  0  0  0  0  0
    9.2367   -0.6157   -1.7199 O   0  0  0  0  0  0  0  0  0  0  0  0
    8.1790   -5.2687   -0.1655 C   0  0  0  0  0  0  0  0  0  0  0  0
    7.5295   -6.5057   -0.0597 C   0  0  0  0  0  0  0  0  0  0  0  0
    6.7870   -7.0453   -3.3406 H   0  0  0  0  0  0  0  0  0  0  0  0
    7.9534   -4.8161   -3.5345 H   0  0  0  0  0  0  0  0  0  0  0  0
   10.2098   -3.2735    0.0222 H   0  0  0  0  0  0  0  0  0  0  0  0
    8.5935   -2.5145    0.1811 H   0  0  0  0  0  0  0  0  0  0  0  0
   11.2724    2.6236   -2.6699 H   0  0  0  0  0  0  0  0  0  0  0  0
   13.1931    4.2054   -2.8028 H   0  0  0  0  0  0  0  0  0  0  0  0
   13.6081   -0.1977   -0.3684 H   0  0  0  0  0  0  0  0  0  0  0  0
   17.5302    2.8706   -0.5355 H   0  0  0  0  0  0  0  0  0  0  0  0
   16.9806    5.1329   -1.5008 H   0  0  0  0  0  0  0  0  0  0  0  0
   15.3220    5.4856   -1.9969 H   0  0  0  0  0  0  0  0  0  0  0  0
   15.6744    4.2857   -4.1530 H   0  0  0  0  0  0  0  0  0  0  0  0
   17.3145    3.8473   -3.6738 H   0  0  0  0  0  0  0  0  0  0  0  0
   18.7161    5.9166   -2.9285 H   0  0  0  0  0  0  0  0  0  0  0  0
   18.5102    7.3351   -3.9583 H   0  0  0  0  0  0  0  0  0  0  0  0
   19.2742    4.5083   -4.9127 H   0  0  0  0  0  0  0  0  0  0  0  0
   20.3276    5.9277   -4.8723 H   0  0  0  0  0  0  0  0  0  0  0  0
   19.3767    5.4831   -7.1957 H   0  0  0  0  0  0  0  0  0  0  0  0
   18.9354    7.0773   -6.5717 H   0  0  0  0  0  0  0  0  0  0  0  0
   17.1433    4.5741   -6.5708 H   0  0  0  0  0  0  0  0  0  0  0  0
   16.9099    6.0347   -7.5433 H   0  0  0  0  0  0  0  0  0  0  0  0
   15.4168    6.0346   -5.5015 H   0  0  0  0  0  0  0  0  0  0  0  0
   16.5398    7.3999   -5.5127 H   0  0  0  0  0  0  0  0  0  0  0  0
    8.5627   -4.7982    0.7399 H   0  0  0  0  0  0  0  0  0  0  0  0
    7.4035   -6.9928    0.9092 H   0  0  0  0  0  0  0  0  0  0  0  0
  1  2  1  0
  2  3  2  0
  2 31  1  0
  3  4  1  0
  3 32  1  0
  4  5  2  0
  4 33  1  0
  5  6  1  0
  5 30  1  0
  6  7  1  0
  7  8  1  0
  7 34  1  0
  7 35  1  0
  8  9  2  0
  8 29  1  0
  9 10  1  0
 10 11  1  0
 10 28  2  0
 11 12  2  0
 11 16  1  0
 12 13  1  0
 12 36  1  0
 13 14  2  0
 13 37  1  0
 14 15  1  0
 14 19  1  0
 15 16  2  0
 15 17  1  0
 16 38  1  0
 17 18  2  0
 18 19  1  0
 18 39  1  0
 19 20  1  0
 20 21  1  0
 20 40  1  0
 20 41  1  0
 21 22  1  0
 21 42  1  0
 21 43  1  0
 22 23  1  0
 22 27  1  0
 23 24  1  0
 23 44  1  0
 23 45  1  0
 24 25  1  0
 24 46  1  0
 24 47  1  0
 25 26  1  0
 25 48  1  0
 25 49  1  0
 26 27  1  0
 26 50  1  0
 26 51  1  0
 27 52  1  0
 27 53  1  0
 28 29  1  0
 30 31  2  0
 30 54  1  0
 31 55  1  0
M  END

