
     RDKit          3D

 44 45  0  0  0  0  0  0  0  0999 V2000
    3.1142    0.1060   -1.5837 C   0  0  0  0  0  0  0  0  0  0  0  0
    2.9865    0.2341   -0.0577 C   0  0  0  0  0  0  0  0  0  0  0  0
    3.3751   -1.0243    0.6892 C   0  0  0  0  0  0  0  0  0  0  0  0
    4.7133   -1.2778    1.0429 C   0  0  0  0  0  0  0  0  0  0  0  0
    5.0852   -2.4495    1.6946 C   0  0  0  0  0  0  0  0  0  0  0  0
    4.1196   -3.4186    2.0175 C   0  0  0  0  0  0  0  0  0  0  0  0
    4.5709   -4.5305    2.6552 O   0  0  0  0  0  0  0  0  0  0  0  0
    3.6648   -5.5596    3.0062 C   0  0  0  0  0  0  0  0  0  0  0  0
    4.4608   -6.6646    3.6981 C   0  0  0  0  0  0  0  0  0  0  0  0
    3.6029   -7.7867    4.0454 N   0  0  0  0  0  0  0  0  0  0  0  0
    3.4647   -8.8148    3.0175 C   0  0  0  0  0  0  0  0  0  0  0  0
    4.6189   -9.8332    3.0122 C   0  0  0  0  0  0  0  0  0  0  0  0
    4.8101  -10.4468    4.4056 C   0  0  0  0  0  0  0  0  0  0  0  0
    4.9556   -9.3562    5.4785 C   0  0  2  0  0  0  0  0  0  0  0  0
    5.0770   -9.9435    6.8865 C   0  0  0  0  0  0  0  0  0  0  0  0
    5.2468   -8.9643    7.8929 O   0  0  0  0  0  0  0  0  0  0  0  0
    3.7787   -8.3637    5.3715 C   0  0  0  0  0  0  0  0  0  0  0  0
    2.7794   -3.1854    1.6767 C   0  0  0  0  0  0  0  0  0  0  0  0
    2.4269   -1.9994    1.0206 C   0  0  0  0  0  0  0  0  0  0  0  0
    2.8258    1.0429   -2.0881 H   0  0  0  0  0  0  0  0  0  0  0  0
    2.4691   -0.6999   -1.9693 H   0  0  0  0  0  0  0  0  0  0  0  0
    4.1493   -0.1322   -1.8774 H   0  0  0  0  0  0  0  0  0  0  0  0
    1.9477    0.5039    0.1975 H   0  0  0  0  0  0  0  0  0  0  0  0
    3.6149    1.0729    0.2882 H   0  0  0  0  0  0  0  0  0  0  0  0
    5.4819   -0.5356    0.8058 H   0  0  0  0  0  0  0  0  0  0  0  0
    6.1242   -2.6406    1.9719 H   0  0  0  0  0  0  0  0  0  0  0  0
    3.1595   -5.9544    2.1044 H   0  0  0  0  0  0  0  0  0  0  0  0
    2.8798   -5.1851    3.6883 H   0  0  0  0  0  0  0  0  0  0  0  0
    4.9040   -6.2414    4.6133 H   0  0  0  0  0  0  0  0  0  0  0  0
    5.3138   -6.9403    3.0445 H   0  0  0  0  0  0  0  0  0  0  0  0
    3.3697   -8.3329    2.0314 H   0  0  0  0  0  0  0  0  0  0  0  0
    2.5137   -9.3532    3.1917 H   0  0  0  0  0  0  0  0  0  0  0  0
    5.5524   -9.3320    2.6994 H   0  0  0  0  0  0  0  0  0  0  0  0
    4.4212  -10.6199    2.2641 H   0  0  0  0  0  0  0  0  0  0  0  0
    5.6834  -11.1220    4.4170 H   0  0  0  0  0  0  0  0  0  0  0  0
    3.9303  -11.0725    4.6514 H   0  0  0  0  0  0  0  0  0  0  0  0
    5.8914   -8.7970    5.2702 H   0  0  0  0  0  0  0  0  0  0  0  0
    5.8943  -10.6940    6.9063 H   0  0  0  0  0  0  0  0  0  0  0  0
    4.1485  -10.4826    7.1429 H   0  0  0  0  0  0  0  0  0  0  0  0
    6.0876   -8.5148    7.7351 H   0  0  0  0  0  0  0  0  0  0  0  0
    3.8957   -7.5606    6.1133 H   0  0  0  0  0  0  0  0  0  0  0  0
    2.8496   -8.9036    5.6415 H   0  0  0  0  0  0  0  0  0  0  0  0
    2.0038   -3.9119    1.9201 H   0  0  0  0  0  0  0  0  0  0  0  0
    1.3753   -1.8335    0.7669 H   0  0  0  0  0  0  0  0  0  0  0  0
  1  2  1  0
  1 20  1  0
  1 21  1  0
  1 22  1  0
  2  3  1  0
  2 23  1  0
  2 24  1  0
  3  4  2  0
  3 19  1  0
  4  5  1  0
  4 25  1  0
  5  6  2  0
  5 26  1  0
  6  7  1  0
  6 18  1  0
  7  8  1  0
  8  9  1  0
  8 27  1  0
  8 28  1  0
  9 10  1  0
  9 29  1  0
  9 30  1  0
 10 11  1  0
 10 17  1  0
 11 12  1  0
 11 31  1  0
 11 32  1  0
 12 13  1  0
 12 33  1  0
 12 34  1  0
 13 14  1  0
 13 35  1  0
 13 36  1  0
 14 15  1  0
 14 17  1  0
 14 37  1  6
 15 16  1  0
 15 38  1  0
 15 39  1  0
 16 40  1  0
 17 41  1  0
 17 42  1  0
 18 19  2  0
 18 43  1  0
 19 44  1  0
M  END

