
     RDKit          3D

 40 40  0  0  0  0  0  0  0  0999 V2000
    1.7973    2.9823   -1.3656 C   0  0  0  0  0  0  0  0  0  0  0  0
    3.0861    2.5460   -0.6679 C   0  0  0  0  0  0  0  0  0  0  0  0
    2.8552    1.5501    0.4716 C   0  0  0  0  0  0  0  0  0  0  0  0
    4.1318    1.1146    1.1999 C   0  0  0  0  0  0  0  0  0  0  0  0
    4.7956    2.2038    1.8969 N   0  0  0  0  0  0  0  0  0  0  0  0
    6.1454    2.4511    1.7356 C   0  0  0  0  0  0  0  0  0  0  0  0
    6.8402    1.7909    0.9740 O   0  0  0  0  0  0  0  0  0  0  0  0
    6.6665    3.5108    2.4690 N   0  0  0  0  0  0  0  0  0  0  0  0
    8.1206    3.6216    2.5711 C   0  0  0  0  0  0  0  0  0  0  0  0
    8.5620    5.0875    2.4962 C   0  0  0  0  0  0  0  0  0  0  0  0
    7.8689    5.9474    3.4544 N   0  0  0  0  0  0  0  0  0  0  0  0
    8.3889    5.9214    4.8170 C   0  0  0  0  0  0  0  0  0  0  0  0
    9.6055    6.8371    4.9957 C   0  0  0  0  0  0  0  0  0  0  0  0
   10.1063    6.7536    6.3630 N   0  0  0  0  0  0  0  0  0  0  0  0
    6.4315    5.8127    3.2970 C   0  0  0  0  0  0  0  0  0  0  0  0
    5.9150    4.3619    3.3798 C   0  0  0  0  0  0  0  0  0  0  0  0
    2.0004    3.6958   -2.1802 H   0  0  0  0  0  0  0  0  0  0  0  0
    1.1040    3.4723   -0.6608 H   0  0  0  0  0  0  0  0  0  0  0  0
    1.2642    2.1216   -1.8040 H   0  0  0  0  0  0  0  0  0  0  0  0
    3.6119    3.4309   -0.2698 H   0  0  0  0  0  0  0  0  0  0  0  0
    3.7752    2.0952   -1.4043 H   0  0  0  0  0  0  0  0  0  0  0  0
    2.3620    0.6425    0.0784 H   0  0  0  0  0  0  0  0  0  0  0  0
    2.1433    1.9816    1.2020 H   0  0  0  0  0  0  0  0  0  0  0  0
    4.8672    0.7110    0.4898 H   0  0  0  0  0  0  0  0  0  0  0  0
    3.8902    0.2999    1.9087 H   0  0  0  0  0  0  0  0  0  0  0  0
    4.3156    2.5989    2.6941 H   0  0  0  0  0  0  0  0  0  0  0  0
    8.5553    3.0335    1.7536 H   0  0  0  0  0  0  0  0  0  0  0  0
    8.4647    3.1727    3.5254 H   0  0  0  0  0  0  0  0  0  0  0  0
    8.3608    5.4675    1.4783 H   0  0  0  0  0  0  0  0  0  0  0  0
    9.6490    5.1550    2.6566 H   0  0  0  0  0  0  0  0  0  0  0  0
    8.6663    4.9091    5.1772 H   0  0  0  0  0  0  0  0  0  0  0  0
    7.5908    6.2730    5.4942 H   0  0  0  0  0  0  0  0  0  0  0  0
    9.3198    7.8557    4.6574 H   0  0  0  0  0  0  0  0  0  0  0  0
   10.4105    6.5046    4.3183 H   0  0  0  0  0  0  0  0  0  0  0  0
    9.4595    7.2106    7.0076 H   0  0  0  0  0  0  0  0  0  0  0  0
   10.9911    7.2515    6.4533 H   0  0  0  0  0  0  0  0  0  0  0  0
    6.1540    6.2086    2.3026 H   0  0  0  0  0  0  0  0  0  0  0  0
    5.9170    6.4302    4.0508 H   0  0  0  0  0  0  0  0  0  0  0  0
    4.8522    4.3703    3.0986 H   0  0  0  0  0  0  0  0  0  0  0  0
    5.9855    3.9918    4.4249 H   0  0  0  0  0  0  0  0  0  0  0  0
  1  2  1  0
  1 17  1  0
  1 18  1  0
  1 19  1  0
  2  3  1  0
  2 20  1  0
  2 21  1  0
  3  4  1  0
  3 22  1  0
  3 23  1  0
  4  5  1  0
  4 24  1  0
  4 25  1  0
  5  6  1  0
  5 26  1  0
  6  7  2  0
  6  8  1  0
  8  9  1  0
  8 16  1  0
  9 10  1  0
  9 27  1  0
  9 28  1  0
 10 11  1  0
 10 29  1  0
 10 30  1  0
 11 12  1  0
 11 15  1  0
 12 13  1  0
 12 31  1  0
 12 32  1  0
 13 14  1  0
 13 33  1  0
 13 34  1  0
 14 35  1  0
 14 36  1  0
 15 16  1  0
 15 37  1  0
 15 38  1  0
 16 39  1  0
 16 40  1  0
M  END

