
     RDKit          3D

 74 77  0  0  0  0  0  0  0  0999 V2000
    6.2467   -6.6784    0.2149 C   0  0  0  0  0  0  0  0  0  0  0  0
    4.9868   -5.8292    0.2560 C   0  0  0  0  0  0  0  0  0  0  0  0
    5.2926   -4.4312    0.3896 O   0  0  0  0  0  0  0  0  0  0  0  0
    5.4784   -3.9485    1.6368 C   0  0  0  0  0  0  0  0  0  0  0  0
    5.3729   -4.6304    2.6285 O   0  0  0  0  0  0  0  0  0  0  0  0
    5.7714   -2.4515    1.6187 C   0  0  1  0  0  0  0  0  0  0  0  0
    6.1320   -1.9254    3.0168 C   0  0  0  0  0  0  0  0  0  0  0  0
    7.5371   -2.3746    3.4375 C   0  0  0  0  0  0  0  0  0  0  0  0
    8.5746   -2.0538    2.3583 C   0  0  0  0  0  0  0  0  0  0  0  0
    8.1590   -2.6022    1.0689 N   0  0  0  0  0  0  0  0  0  0  0  0
    9.1899   -2.7185    0.0699 C   0  0  0  0  0  0  0  0  0  0  0  0
    9.7259   -1.3908   -0.4952 C   0  0  0  0  0  0  0  0  0  0  0  0
    9.2849   -0.2966   -0.1739 O   0  0  0  0  0  0  0  0  0  0  0  0
   10.7506   -1.4888   -1.4057 N   0  0  0  0  0  0  0  0  0  0  0  0
   11.3740   -2.6741   -1.6798 N   0  0  0  0  0  0  0  0  0  0  0  0
   12.4476   -2.4531   -2.3660 C   0  0  0  0  0  0  0  0  0  0  0  0
   13.3838   -3.4937   -2.8010 C   0  0  0  0  0  0  0  0  0  0  0  0
   14.4453   -3.1453   -3.6696 C   0  0  0  0  0  0  0  0  0  0  0  0
   15.4044   -4.0558   -4.0859 C   0  0  0  0  0  0  0  0  0  0  0  0
   15.3499   -5.3844   -3.6302 C   0  0  0  0  0  0  0  0  0  0  0  0
   16.3236   -6.2145   -4.0684 O   0  0  0  0  0  0  0  0  0  0  0  0
   16.3362   -7.5587   -3.6376 C   0  0  0  0  0  0  0  0  0  0  0  0
   14.3156   -5.7636   -2.7642 C   0  0  0  0  0  0  0  0  0  0  0  0
   13.3432   -4.8407   -2.3564 C   0  0  0  0  0  0  0  0  0  0  0  0
   12.4049   -5.2822   -1.4707 O   0  0  0  0  0  0  0  0  0  0  0  0
   11.1896   -5.7662   -2.0208 C   0  0  0  0  0  0  0  0  0  0  0  0
   12.6658   -0.9702   -2.6410 C   0  0  0  0  0  0  0  0  0  0  0  0
   11.4006   -0.3092   -2.0379 C   0  0  1  0  0  0  0  0  0  0  0  0
   10.4914    0.3768   -3.0488 C   0  0  0  0  0  0  0  0  0  0  0  0
   10.0649   -0.3371   -4.1772 C   0  0  0  0  0  0  0  0  0  0  0  0
    9.2387    0.2425   -5.1408 C   0  0  0  0  0  0  0  0  0  0  0  0
    8.8118    1.5691   -5.0020 C   0  0  0  0  0  0  0  0  0  0  0  0
    7.9123    2.2226   -6.0232 C   0  0  0  0  0  0  0  0  0  0  0  0
    9.2366    2.2758   -3.8675 C   0  0  0  0  0  0  0  0  0  0  0  0
   10.0609    1.7129   -2.8824 C   0  0  0  0  0  0  0  0  0  0  0  0
   10.4356    2.5294   -1.6678 C   0  0  0  0  0  0  0  0  0  0  0  0
    6.8751   -2.0863    0.6105 C   0  0  0  0  0  0  0  0  0  0  0  0
    5.9833   -7.7349    0.0439 H   0  0  0  0  0  0  0  0  0  0  0  0
    6.7922   -6.6098    1.1674 H   0  0  0  0  0  0  0  0  0  0  0  0
    6.9144   -6.3531   -0.5982 H   0  0  0  0  0  0  0  0  0  0  0  0
    4.3368   -6.1347    1.0894 H   0  0  0  0  0  0  0  0  0  0  0  0
    4.4234   -5.9056   -0.6859 H   0  0  0  0  0  0  0  0  0  0  0  0
    4.8357   -1.9751    1.2725 H   0  0  0  0  0  0  0  0  0  0  0  0
    5.3858   -2.2606    3.7526 H   0  0  0  0  0  0  0  0  0  0  0  0
    6.0904   -0.8226    2.9848 H   0  0  0  0  0  0  0  0  0  0  0  0
    7.5277   -3.4599    3.6239 H   0  0  0  0  0  0  0  0  0  0  0  0
    7.8254   -1.8825    4.3816 H   0  0  0  0  0  0  0  0  0  0  0  0
    9.5449   -2.5035    2.6289 H   0  0  0  0  0  0  0  0  0  0  0  0
    8.7321   -0.9561    2.2998 H   0  0  0  0  0  0  0  0  0  0  0  0
    8.8199   -3.3172   -0.7808 H   0  0  0  0  0  0  0  0  0  0  0  0
   10.0431   -3.2888    0.4738 H   0  0  0  0  0  0  0  0  0  0  0  0
   14.5198   -2.1190   -4.0328 H   0  0  0  0  0  0  0  0  0  0  0  0
   16.2128   -3.7637   -4.7582 H   0  0  0  0  0  0  0  0  0  0  0  0
   17.2062   -8.0306   -4.1130 H   0  0  0  0  0  0  0  0  0  0  0  0
   15.4225   -8.0968   -3.9474 H   0  0  0  0  0  0  0  0  0  0  0  0
   16.4405   -7.6365   -2.5407 H   0  0  0  0  0  0  0  0  0  0  0  0
   14.2351   -6.7740   -2.3651 H   0  0  0  0  0  0  0  0  0  0  0  0
   10.5629   -6.0850   -1.1765 H   0  0  0  0  0  0  0  0  0  0  0  0
   11.3703   -6.6322   -2.6840 H   0  0  0  0  0  0  0  0  0  0  0  0
   10.6576   -4.9800   -2.5803 H   0  0  0  0  0  0  0  0  0  0  0  0
   12.7614   -0.7551   -3.7153 H   0  0  0  0  0  0  0  0  0  0  0  0
   13.5935   -0.6214   -2.1583 H   0  0  0  0  0  0  0  0  0  0  0  0
   11.6620    0.3956   -1.2405 H   0  0  0  0  0  0  0  0  0  0  0  0
   10.3770   -1.3776   -4.3071 H   0  0  0  0  0  0  0  0  0  0  0  0
    8.9235   -0.3438   -6.0086 H   0  0  0  0  0  0  0  0  0  0  0  0
    7.7519    1.5729   -6.8964 H   0  0  0  0  0  0  0  0  0  0  0  0
    8.3364    3.1746   -6.3831 H   0  0  0  0  0  0  0  0  0  0  0  0
    6.9230    2.4551   -5.5934 H   0  0  0  0  0  0  0  0  0  0  0  0
    8.9052    3.3110   -3.7370 H   0  0  0  0  0  0  0  0  0  0  0  0
    9.9768    3.5278   -1.7107 H   0  0  0  0  0  0  0  0  0  0  0  0
   11.5259    2.6731   -1.5799 H   0  0  0  0  0  0  0  0  0  0  0  0
   10.0883    2.0259   -0.7517 H   0  0  0  0  0  0  0  0  0  0  0  0
    6.6433   -2.5295   -0.3687 H   0  0  0  0  0  0  0  0  0  0  0  0
    6.8892   -0.9852    0.4817 H   0  0  0  0  0  0  0  0  0  0  0  0
  1  2  1  0
  1 38  1  0
  1 39  1  0
  1 40  1  0
  2  3  1  0
  2 41  1  0
  2 42  1  0
  3  4  1  0
  4  5  2  0
  4  6  1  0
  6  7  1  0
  6 37  1  0
  6 43  1  6
  7  8  1  0
  7 44  1  0
  7 45  1  0
  8  9  1  0
  8 46  1  0
  8 47  1  0
  9 10  1  0
  9 48  1  0
  9 49  1  0
 10 11  1  0
 10 37  1  0
 11 12  1  0
 11 50  1  0
 11 51  1  0
 12 13  2  0
 12 14  1  0
 14 15  1  0
 14 28  1  0
 15 16  2  0
 16 17  1  0
 16 27  1  0
 17 18  2  0
 17 24  1  0
 18 19  1  0
 18 52  1  0
 19 20  2  0
 19 53  1  0
 20 21  1  0
 20 23  1  0
 21 22  1  0
 22 54  1  0
 22 55  1  0
 22 56  1  0
 23 24  2  0
 23 57  1  0
 24 25  1  0
 25 26  1  0
 26 58  1  0
 26 59  1  0
 26 60  1  0
 27 28  1  0
 27 61  1  0
 27 62  1  0
 28 29  1  0
 28 63  1  1
 29 30  2  0
 29 35  1  0
 30 31  1  0
 30 64  1  0
 31 32  2  0
 31 65  1  0
 32 33  1  0
 32 34  1  0
 33 66  1  0
 33 67  1  0
 33 68  1  0
 34 35  2  0
 34 69  1  0
 35 36  1  0
 36 70  1  0
 36 71  1  0
 36 72  1  0
 37 73  1  0
 37 74  1  0
M  END

