
     RDKit          3D

 36 37  0  0  0  0  0  0  0  0999 V2000
    1.1727    0.1002   -1.4266 C   0  0  0  0  0  0  0  0  0  0  0  0
    2.3566   -0.0452   -0.4708 C   0  0  0  0  0  0  0  0  0  0  0  0
    3.0672   -1.4040   -0.5928 C   0  0  1  0  0  0  0  0  0  0  0  0
    4.2802   -1.5561    0.3449 C   0  0  0  0  0  0  0  0  0  0  0  0
    3.8640   -1.8109    1.8027 C   0  0  2  0  0  0  0  0  0  0  0  0
    5.0229   -2.0392    2.6534 N   0  0  0  0  0  0  0  0  0  0  0  0
    5.2965   -1.2839    3.7556 C   0  0  0  0  0  0  0  0  0  0  0  0
    4.6161   -0.3447    4.1390 O   0  0  0  0  0  0  0  0  0  0  0  0
    6.5202   -1.6687    4.5075 C   0  0  0  0  0  0  0  0  0  0  0  0
    7.0587   -1.1140    5.6416 C   0  0  0  0  0  0  0  0  0  0  0  0
    8.2318   -1.8632    5.9411 C   0  0  0  0  0  0  0  0  0  0  0  0
    8.3335   -2.8271    4.9701 C   0  0  0  0  0  0  0  0  0  0  0  0
    9.3409   -3.8905    4.7602 C   0  0  0  0  0  0  0  0  0  0  0  0
   10.2789   -4.0445    5.4958 O   0  0  0  0  0  0  0  0  0  0  0  0
    9.1372   -4.6796    3.6849 O   0  0  0  0  0  0  0  0  0  0  0  0
    7.2917   -2.7150    4.0900 O   0  0  0  0  0  0  0  0  0  0  0  0
    2.8691   -2.9798    1.8531 C   0  0  0  0  0  0  0  0  0  0  0  0
    1.7164   -2.7367    0.8773 C   0  0  0  0  0  0  0  0  0  0  0  0
    2.1767   -2.5090   -0.4407 O   0  0  0  0  0  0  0  0  0  0  0  0
    0.6892    1.0835   -1.3170 H   0  0  0  0  0  0  0  0  0  0  0  0
    0.4163   -0.6773   -1.2419 H   0  0  0  0  0  0  0  0  0  0  0  0
    1.4943   -0.0009   -2.4766 H   0  0  0  0  0  0  0  0  0  0  0  0
    2.0235    0.1278    0.5670 H   0  0  0  0  0  0  0  0  0  0  0  0
    3.1054    0.7398   -0.6746 H   0  0  0  0  0  0  0  0  0  0  0  0
    3.4251   -1.4945   -1.6322 H   0  0  0  0  0  0  0  0  0  0  0  0
    4.9236   -0.6637    0.2836 H   0  0  0  0  0  0  0  0  0  0  0  0
    4.8798   -2.4157   -0.0046 H   0  0  0  0  0  0  0  0  0  0  0  0
    3.3827   -0.9120    2.2163 H   0  0  0  0  0  0  0  0  0  0  0  0
    5.6456   -2.8055    2.4240 H   0  0  0  0  0  0  0  0  0  0  0  0
    6.6396   -0.2665    6.1779 H   0  0  0  0  0  0  0  0  0  0  0  0
    8.9298   -1.7279    6.7637 H   0  0  0  0  0  0  0  0  0  0  0  0
    8.3353   -4.4034    3.2157 H   0  0  0  0  0  0  0  0  0  0  0  0
    2.4811   -3.1107    2.8767 H   0  0  0  0  0  0  0  0  0  0  0  0
    3.3880   -3.9141    1.5716 H   0  0  0  0  0  0  0  0  0  0  0  0
    1.0962   -1.8913    1.2371 H   0  0  0  0  0  0  0  0  0  0  0  0
    1.0596   -3.6183    0.8233 H   0  0  0  0  0  0  0  0  0  0  0  0
  1  2  1  0
  1 20  1  0
  1 21  1  0
  1 22  1  0
  2  3  1  0
  2 23  1  0
  2 24  1  0
  3  4  1  0
  3 19  1  0
  3 25  1  6
  4  5  1  0
  4 26  1  0
  4 27  1  0
  5  6  1  0
  5 17  1  0
  5 28  1  1
  6  7  1  0
  6 29  1  0
  7  8  2  0
  7  9  1  0
  9 10  2  0
  9 16  1  0
 10 11  1  0
 10 30  1  0
 11 12  2  0
 11 31  1  0
 12 13  1  0
 12 16  1  0
 13 14  2  0
 13 15  1  0
 15 32  1  0
 17 18  1  0
 17 33  1  0
 17 34  1  0
 18 19  1  0
 18 35  1  0
 18 36  1  0
M  END

