
     RDKit          3D

 22 22  0  0  0  0  0  0  0  0999 V2000
    4.5891   -1.9314    1.8023 C   0  0  0  0  0  0  0  0  0  0  0  0
    4.3347   -1.0782    0.9804 C   0  0  0  0  0  0  0  0  0  0  0  0
    4.0316   -0.0372   -0.0028 C   0  0  0  0  0  0  0  0  0  0  0  0
    4.4151    1.3794    0.4533 C   0  0  1  0  0  0  0  0  0  0  0  0
    4.1222    2.4747   -0.5786 C   0  0  0  0  0  0  0  0  0  0  0  0
    4.2277    3.6980    0.2092 N   0  0  0  0  0  0  0  0  0  0  0  0
    3.7467    3.4447    1.5600 C   0  0  1  0  0  0  0  0  0  0  0  0
    4.4629    3.8418    2.3100 H   0  0  0  0  0  0  0  0  0  0  0  0
    2.4076    4.1346    1.8437 C   0  0  0  0  0  0  0  0  0  0  0  0
    1.8192    4.8105    1.0438 O   0  0  0  0  0  0  0  0  0  0  0  0
    1.9143    3.9511    3.0880 O   0  0  0  0  0  0  0  0  0  0  0  0
    3.6469    1.8957    1.6832 C   0  0  0  0  0  0  0  0  0  0  0  0
    4.8137   -2.6936    2.5244 H   0  0  0  0  0  0  0  0  0  0  0  0
    2.9527   -0.0672   -0.2425 H   0  0  0  0  0  0  0  0  0  0  0  0
    4.5594   -0.2696   -0.9450 H   0  0  0  0  0  0  0  0  0  0  0  0
    5.4950    1.3987    0.6773 H   0  0  0  0  0  0  0  0  0  0  0  0
    3.1134    2.3106   -1.0181 H   0  0  0  0  0  0  0  0  0  0  0  0
    4.8471    2.4737   -1.4102 H   0  0  0  0  0  0  0  0  0  0  0  0
    3.7354    4.4877   -0.2045 H   0  0  0  0  0  0  0  0  0  0  0  0
    2.5096    3.3926    3.6095 H   0  0  0  0  0  0  0  0  0  0  0  0
    2.5945    1.5699    1.6170 H   0  0  0  0  0  0  0  0  0  0  0  0
    4.0510    1.5085    2.6301 H   0  0  0  0  0  0  0  0  0  0  0  0
  1  2  3  0
  1 13  1  0
  2  3  1  0
  3  4  1  0
  3 14  1  0
  3 15  1  0
  4  5  1  0
  4 12  1  0
  4 16  1  1
  5  6  1  0
  5 17  1  0
  5 18  1  0
  6  7  1  0
  6 19  1  0
  7  8  1  1
  7  9  1  0
  7 12  1  0
  9 10  2  0
  9 11  1  0
 11 20  1  0
 12 21  1  0
 12 22  1  0
M  END

