
     RDKit          3D

 43 43  0  0  0  0  0  0  0  0999 V2000
    4.1906   -2.6340   -4.3684 C   0  0  0  0  0  0  0  0  0  0  0  0
    4.8087   -3.3629   -3.1629 C   0  0  1  0  0  0  0  0  0  0  0  0
    6.3353   -3.1764   -3.1201 C   0  0  0  0  0  0  0  0  0  0  0  0
    4.1488   -2.9549   -1.8508 C   0  0  0  0  0  0  0  0  0  0  0  0
    4.2039   -1.6310   -1.3808 C   0  0  0  0  0  0  0  0  0  0  0  0
    3.5899   -1.2860   -0.1764 C   0  0  0  0  0  0  0  0  0  0  0  0
    2.9084   -2.2324    0.5937 C   0  0  0  0  0  0  0  0  0  0  0  0
    2.8463   -3.5588    0.1367 C   0  0  0  0  0  0  0  0  0  0  0  0
    2.1909   -4.5953    0.8324 N   0  0  0  0  0  0  0  0  0  0  0  0
    1.4903   -4.5306    1.9997 C   0  0  0  0  0  0  0  0  0  0  0  0
    1.3114   -3.5200    2.6608 O   0  0  0  0  0  0  0  0  0  0  0  0
    0.9200   -5.8737    2.5218 C   0  0  1  0  0  0  0  0  0  0  0  0
    0.4793   -6.8385    1.4254 C   0  0  0  0  0  0  0  0  0  0  0  0
    1.1471   -7.1226    0.4575 O   0  0  0  0  0  0  0  0  0  0  0  0
   -0.7226   -7.4180    1.5889 O   0  0  0  0  0  0  0  0  0  0  0  0
    1.8879   -6.5896    3.5596 C   0  0  1  0  0  0  0  0  0  0  0  0
    2.1181   -5.6518    4.7597 C   0  0  0  0  0  0  0  0  0  0  0  0
    1.2107   -7.8782    4.0697 C   0  0  0  0  0  0  0  0  0  0  0  0
    3.2386   -6.9484    2.9147 C   0  0  0  0  0  0  0  0  0  0  0  0
    3.4676   -3.9014   -1.0795 C   0  0  0  0  0  0  0  0  0  0  0  0
    4.6356   -2.9924   -5.3112 H   0  0  0  0  0  0  0  0  0  0  0  0
    4.3623   -1.5465   -4.3127 H   0  0  0  0  0  0  0  0  0  0  0  0
    3.1029   -2.7978   -4.4206 H   0  0  0  0  0  0  0  0  0  0  0  0
    4.6135   -4.4412   -3.2963 H   0  0  0  0  0  0  0  0  0  0  0  0
    6.6077   -2.1145   -3.0039 H   0  0  0  0  0  0  0  0  0  0  0  0
    6.7991   -3.5380   -4.0526 H   0  0  0  0  0  0  0  0  0  0  0  0
    6.7829   -3.7294   -2.2796 H   0  0  0  0  0  0  0  0  0  0  0  0
    4.7279   -0.8646   -1.9574 H   0  0  0  0  0  0  0  0  0  0  0  0
    3.6384   -0.2528    0.1784 H   0  0  0  0  0  0  0  0  0  0  0  0
    2.4269   -1.9623    1.5301 H   0  0  0  0  0  0  0  0  0  0  0  0
    2.1886   -5.5123    0.3823 H   0  0  0  0  0  0  0  0  0  0  0  0
    0.0355   -5.5593    3.0984 H   0  0  0  0  0  0  0  0  0  0  0  0
   -1.1454   -7.0988    2.3986 H   0  0  0  0  0  0  0  0  0  0  0  0
    1.1698   -5.4009    5.2616 H   0  0  0  0  0  0  0  0  0  0  0  0
    2.5911   -4.7064    4.4627 H   0  0  0  0  0  0  0  0  0  0  0  0
    2.7693   -6.1501    5.4957 H   0  0  0  0  0  0  0  0  0  0  0  0
    0.2247   -7.6683    4.5189 H   0  0  0  0  0  0  0  0  0  0  0  0
    1.8304   -8.3392    4.8547 H   0  0  0  0  0  0  0  0  0  0  0  0
    1.0765   -8.6292    3.2758 H   0  0  0  0  0  0  0  0  0  0  0  0
    3.7891   -6.0500    2.5979 H   0  0  0  0  0  0  0  0  0  0  0  0
    3.1132   -7.5998    2.0371 H   0  0  0  0  0  0  0  0  0  0  0  0
    3.8672   -7.4820    3.6452 H   0  0  0  0  0  0  0  0  0  0  0  0
    3.4130   -4.9373   -1.4293 H   0  0  0  0  0  0  0  0  0  0  0  0
  1  2  1  0
  1 21  1  0
  1 22  1  0
  1 23  1  0
  2  3  1  0
  2  4  1  0
  2 24  1  6
  3 25  1  0
  3 26  1  0
  3 27  1  0
  4  5  2  0
  4 20  1  0
  5  6  1  0
  5 28  1  0
  6  7  2  0
  6 29  1  0
  7  8  1  0
  7 30  1  0
  8  9  1  0
  8 20  2  0
  9 10  1  0
  9 31  1  0
 10 11  2  0
 10 12  1  0
 12 13  1  0
 12 16  1  0
 12 32  1  1
 13 14  2  0
 13 15  1  0
 15 33  1  0
 16 17  1  1
 16 18  1  0
 16 19  1  0
 17 34  1  0
 17 35  1  0
 17 36  1  0
 18 37  1  0
 18 38  1  0
 18 39  1  0
 19 40  1  0
 19 41  1  0
 19 42  1  0
 20 43  1  0
M  END

