
     RDKit          3D

 34 35  0  0  0  0  0  0  0  0999 V2000
    1.8487    0.1476    2.2744 C   0  0  0  0  0  0  0  0  0  0  0  0
    2.8996   -0.0252    1.2036 C   0  0  0  0  0  0  0  0  0  0  0  0
    3.4458    1.0729    0.5298 C   0  0  0  0  0  0  0  0  0  0  0  0
    4.4262    0.8993   -0.4546 C   0  0  0  0  0  0  0  0  0  0  0  0
    4.8750   -0.3775   -0.7806 C   0  0  0  0  0  0  0  0  0  0  0  0
    5.8242   -0.6343   -1.7261 O   0  0  0  0  0  0  0  0  0  0  0  0
    4.3348   -1.5008   -0.1115 C   0  0  0  0  0  0  0  0  0  0  0  0
    4.8370   -2.7539   -0.4965 N   0  0  0  0  0  0  0  0  0  0  0  0
    4.5102   -3.9807   -0.0376 C   0  0  0  0  0  0  0  0  0  0  0  0
    3.6918   -4.2662    0.8287 O   0  0  0  0  0  0  0  0  0  0  0  0
    5.3243   -5.0805   -0.7597 C   0  0  0  0  0  0  0  0  0  0  0  0
    6.1428   -4.8104   -1.6263 O   0  0  0  0  0  0  0  0  0  0  0  0
    4.9872   -6.3065   -0.2894 N   0  0  0  0  0  0  0  0  0  0  0  0
    5.4736   -7.5691   -0.6616 C   0  0  0  0  0  0  0  0  0  0  0  0
    6.4573   -7.7449   -1.6514 C   0  0  0  0  0  0  0  0  0  0  0  0
    6.8972   -9.0295   -1.9734 C   0  0  0  0  0  0  0  0  0  0  0  0
    6.3649  -10.1423   -1.3171 C   0  0  0  0  0  0  0  0  0  0  0  0
    6.9232  -11.7480   -1.7284 Cl  0  0  0  0  0  0  0  0  0  0  0  0
    5.3866   -9.9788   -0.3317 C   0  0  0  0  0  0  0  0  0  0  0  0
    4.9462   -8.6974   -0.0087 C   0  0  0  0  0  0  0  0  0  0  0  0
    3.3556   -1.3123    0.8704 C   0  0  0  0  0  0  0  0  0  0  0  0
    1.5292    1.1968    2.3607 H   0  0  0  0  0  0  0  0  0  0  0  0
    2.2258   -0.1696    3.2616 H   0  0  0  0  0  0  0  0  0  0  0  0
    0.9547   -0.4617    2.0629 H   0  0  0  0  0  0  0  0  0  0  0  0
    3.1060    2.0836    0.7705 H   0  0  0  0  0  0  0  0  0  0  0  0
    4.8453    1.7660   -0.9754 H   0  0  0  0  0  0  0  0  0  0  0  0
    6.1310    0.1904   -2.1234 H   0  0  0  0  0  0  0  0  0  0  0  0
    5.5505   -2.7564   -1.2266 H   0  0  0  0  0  0  0  0  0  0  0  0
    4.2727   -6.2611    0.4377 H   0  0  0  0  0  0  0  0  0  0  0  0
    6.8676   -6.8741   -2.1589 H   0  0  0  0  0  0  0  0  0  0  0  0
    7.6604   -9.1686   -2.7410 H   0  0  0  0  0  0  0  0  0  0  0  0
    4.9743  -10.8511    0.1778 H   0  0  0  0  0  0  0  0  0  0  0  0
    4.1810   -8.5694    0.7620 H   0  0  0  0  0  0  0  0  0  0  0  0
    2.9525   -2.1907    1.3725 H   0  0  0  0  0  0  0  0  0  0  0  0
  1  2  1  0
  1 22  1  0
  1 23  1  0
  1 24  1  0
  2  3  2  0
  2 21  1  0
  3  4  1  0
  3 25  1  0
  4  5  2  0
  4 26  1  0
  5  6  1  0
  5  7  1  0
  6 27  1  0
  7  8  1  0
  7 21  2  0
  8  9  1  0
  8 28  1  0
  9 10  2  0
  9 11  1  0
 11 12  2  0
 11 13  1  0
 13 14  1  0
 13 29  1  0
 14 15  2  0
 14 20  1  0
 15 16  1  0
 15 30  1  0
 16 17  2  0
 16 31  1  0
 17 18  1  0
 17 19  1  0
 19 20  2  0
 19 32  1  0
 20 33  1  0
 21 34  1  0
M  END

