
     RDKit          3D

 49 51  0  0  0  0  0  0  0  0999 V2000
    6.4971    1.5660   -2.1059 C   0  0  0  0  0  0  0  0  0  0  0  0
    6.1329    1.0602   -0.8372 O   0  0  0  0  0  0  0  0  0  0  0  0
    5.4023    1.8245    0.0078 C   0  0  0  0  0  0  0  0  0  0  0  0
    5.2238    3.2079   -0.1460 C   0  0  0  0  0  0  0  0  0  0  0  0
    4.5273    3.9335    0.8241 C   0  0  0  0  0  0  0  0  0  0  0  0
    4.0138    3.3011    1.9592 C   0  0  0  0  0  0  0  0  0  0  0  0
    4.1867    1.9249    2.1071 C   0  0  0  0  0  0  0  0  0  0  0  0
    4.8418    1.1654    1.1268 C   0  0  0  0  0  0  0  0  0  0  0  0
    4.9568   -0.3126    1.3535 C   0  0  0  0  0  0  0  0  0  0  0  0
    5.2302   -0.7420    2.4610 O   0  0  0  0  0  0  0  0  0  0  0  0
    4.6477   -1.2809    0.2347 C   0  0  0  0  0  0  0  0  0  0  0  0
    4.0558   -0.8194   -0.9819 C   0  0  0  0  0  0  0  0  0  0  0  0
    3.5859   -0.4529   -1.9808 N   0  0  0  0  0  0  0  0  0  0  0  0
    4.9755   -2.5942    0.4407 C   0  0  0  0  0  0  0  0  0  0  0  0
    4.7564   -3.7681   -0.3620 C   0  0  0  0  0  0  0  0  0  0  0  0
    5.6347   -4.9076   -0.3672 C   0  0  0  0  0  0  0  0  0  0  0  0
    6.9155   -5.0830    0.3861 C   0  0  0  0  0  0  0  0  0  0  0  0
    5.1871   -5.8436   -1.1842 N   0  0  0  0  0  0  0  0  0  0  0  0
    4.0168   -5.3709   -1.6840 N   0  0  0  0  0  0  0  0  0  0  0  0
    3.2726   -6.2020   -2.6116 C   0  0  0  0  0  0  0  0  0  0  0  0
    3.5255   -5.8902   -4.0770 C   0  0  0  0  0  0  0  0  0  0  0  0
    4.6608   -5.1803   -4.4940 C   0  0  0  0  0  0  0  0  0  0  0  0
    4.8942   -4.9123   -5.8445 C   0  0  0  0  0  0  0  0  0  0  0  0
    3.9900   -5.3577   -6.8116 C   0  0  0  0  0  0  0  0  0  0  0  0
    2.8561   -6.0742   -6.4250 C   0  0  0  0  0  0  0  0  0  0  0  0
    2.6358   -6.3347   -5.0703 C   0  0  0  0  0  0  0  0  0  0  0  0
    1.2057   -7.2521   -4.6202 Cl  0  0  0  0  0  0  0  0  0  0  0  0
    3.7046   -4.1288   -1.2294 C   0  0  0  0  0  0  0  0  0  0  0  0
    2.4198   -3.4453   -1.5612 C   0  0  0  0  0  0  0  0  0  0  0  0
    6.9891    0.7412   -2.6377 H   0  0  0  0  0  0  0  0  0  0  0  0
    7.2055    2.4087   -2.0207 H   0  0  0  0  0  0  0  0  0  0  0  0
    5.6099    1.8837   -2.6792 H   0  0  0  0  0  0  0  0  0  0  0  0
    5.6397    3.7257   -1.0102 H   0  0  0  0  0  0  0  0  0  0  0  0
    4.3967    5.0106    0.6904 H   0  0  0  0  0  0  0  0  0  0  0  0
    3.4816    3.8750    2.7208 H   0  0  0  0  0  0  0  0  0  0  0  0
    3.7983    1.4045    2.9852 H   0  0  0  0  0  0  0  0  0  0  0  0
    5.5304   -2.7527    1.3730 H   0  0  0  0  0  0  0  0  0  0  0  0
    7.6718   -4.3419    0.0801 H   0  0  0  0  0  0  0  0  0  0  0  0
    7.3176   -6.0882    0.2003 H   0  0  0  0  0  0  0  0  0  0  0  0
    6.7638   -4.9629    1.4716 H   0  0  0  0  0  0  0  0  0  0  0  0
    2.1988   -6.1185   -2.3941 H   0  0  0  0  0  0  0  0  0  0  0  0
    3.5611   -7.2406   -2.3897 H   0  0  0  0  0  0  0  0  0  0  0  0
    5.3745   -4.8397   -3.7416 H   0  0  0  0  0  0  0  0  0  0  0  0
    5.7861   -4.3550   -6.1397 H   0  0  0  0  0  0  0  0  0  0  0  0
    4.1635   -5.1508   -7.8704 H   0  0  0  0  0  0  0  0  0  0  0  0
    2.1370   -6.4340   -7.1627 H   0  0  0  0  0  0  0  0  0  0  0  0
    1.6126   -4.1726   -1.7325 H   0  0  0  0  0  0  0  0  0  0  0  0
    2.5087   -2.8098   -2.4565 H   0  0  0  0  0  0  0  0  0  0  0  0
    2.1170   -2.7870   -0.7363 H   0  0  0  0  0  0  0  0  0  0  0  0
  1  2  1  0
  1 30  1  0
  1 31  1  0
  1 32  1  0
  2  3  1  0
  3  4  2  0
  3  8  1  0
  4  5  1  0
  4 33  1  0
  5  6  2  0
  5 34  1  0
  6  7  1  0
  6 35  1  0
  7  8  2  0
  7 36  1  0
  8  9  1  0
  9 10  2  0
  9 11  1  0
 11 12  1  0
 11 14  2  0
 12 13  3  0
 14 15  1  0
 14 37  1  0
 15 16  1  0
 15 28  2  0
 16 17  1  0
 16 18  2  0
 17 38  1  0
 17 39  1  0
 17 40  1  0
 18 19  1  0
 19 20  1  0
 19 28  1  0
 20 21  1  0
 20 41  1  0
 20 42  1  0
 21 22  2  0
 21 26  1  0
 22 23  1  0
 22 43  1  0
 23 24  2  0
 23 44  1  0
 24 25  1  0
 24 45  1  0
 25 26  2  0
 25 46  1  0
 26 27  1  0
 28 29  1  0
 29 47  1  0
 29 48  1  0
 29 49  1  0
M  END

