
     RDKit          3D

 34 35  0  0  0  0  0  0  0  0999 V2000
    1.0395    0.1600    0.4083 C   0  0  0  0  0  0  0  0  0  0  0  0
    2.5358    0.0428    0.0979 C   0  0  1  0  0  0  0  0  0  0  0  0
    3.2984    0.5724    1.1796 O   0  0  0  0  0  0  0  0  0  0  0  0
    2.9682   -1.4108   -0.1838 C   0  0  0  0  0  0  0  0  0  0  0  0
    2.4667   -1.9243   -1.5369 C   0  0  0  0  0  0  0  0  0  0  0  0
    2.8270   -0.9582   -2.6727 C   0  0  0  0  0  0  0  0  0  0  0  0
    2.3977    0.3964   -2.3610 N   0  0  0  0  0  0  0  0  0  0  0  0
    1.8051    1.2418   -3.2850 C   0  0  0  0  0  0  0  0  0  0  0  0
    1.5064    0.8351   -4.6135 C   0  0  0  0  0  0  0  0  0  0  0  0
    0.8765    1.7248   -5.4783 C   0  0  0  0  0  0  0  0  0  0  0  0
    0.5220    1.2988   -6.8909 C   0  0  0  0  0  0  0  0  0  0  0  0
    1.2586    0.1977   -7.3715 O   0  0  0  0  0  0  0  0  0  0  0  0
    0.5603    3.0128   -5.0150 C   0  0  0  0  0  0  0  0  0  0  0  0
    0.9042    3.3258   -3.7021 C   0  0  0  0  0  0  0  0  0  0  0  0
    1.5046    2.4824   -2.8646 N   0  0  0  0  0  0  0  0  0  0  0  0
    2.9279    0.9171   -1.1073 C   0  0  0  0  0  0  0  0  0  0  0  0
    0.7671   -0.4856    1.2614 H   0  0  0  0  0  0  0  0  0  0  0  0
    0.4154   -0.1324   -0.4488 H   0  0  0  0  0  0  0  0  0  0  0  0
    0.7950    1.2005    0.6693 H   0  0  0  0  0  0  0  0  0  0  0  0
    3.0608    0.0843    1.9791 H   0  0  0  0  0  0  0  0  0  0  0  0
    2.6287   -2.0723    0.6333 H   0  0  0  0  0  0  0  0  0  0  0  0
    4.0718   -1.4236   -0.1665 H   0  0  0  0  0  0  0  0  0  0  0  0
    1.3719   -2.0569   -1.5143 H   0  0  0  0  0  0  0  0  0  0  0  0
    2.9007   -2.9145   -1.7545 H   0  0  0  0  0  0  0  0  0  0  0  0
    2.3558   -1.3005   -3.6003 H   0  0  0  0  0  0  0  0  0  0  0  0
    3.9252   -0.9785   -2.8402 H   0  0  0  0  0  0  0  0  0  0  0  0
    1.7572   -0.1540   -4.9914 H   0  0  0  0  0  0  0  0  0  0  0  0
    0.6006    2.1756   -7.5647 H   0  0  0  0  0  0  0  0  0  0  0  0
   -0.5372    0.9877   -6.9143 H   0  0  0  0  0  0  0  0  0  0  0  0
    2.1926    0.4480   -7.3850 H   0  0  0  0  0  0  0  0  0  0  0  0
    0.0763    3.7510   -5.6588 H   0  0  0  0  0  0  0  0  0  0  0  0
    0.6874    4.3244   -3.3021 H   0  0  0  0  0  0  0  0  0  0  0  0
    2.5640    1.9402   -0.9712 H   0  0  0  0  0  0  0  0  0  0  0  0
    4.0351    0.9488   -1.1444 H   0  0  0  0  0  0  0  0  0  0  0  0
  1  2  1  0
  1 17  1  0
  1 18  1  0
  1 19  1  0
  2  3  1  1
  2  4  1  0
  2 16  1  0
  3 20  1  0
  4  5  1  0
  4 21  1  0
  4 22  1  0
  5  6  1  0
  5 23  1  0
  5 24  1  0
  6  7  1  0
  6 25  1  0
  6 26  1  0
  7  8  1  0
  7 16  1  0
  8  9  2  0
  8 15  1  0
  9 10  1  0
  9 27  1  0
 10 11  1  0
 10 13  2  0
 11 12  1  0
 11 28  1  0
 11 29  1  0
 12 30  1  0
 13 14  1  0
 13 31  1  0
 14 15  2  0
 14 32  1  0
 16 33  1  0
 16 34  1  0
M  END

