
     RDKit          3D

 47 48  0  0  0  0  0  0  0  0999 V2000
    4.6189   -2.6698    1.8739 C   0  0  0  0  0  0  0  0  0  0  0  0
    4.9255   -1.3557    1.1540 C   0  0  0  0  0  0  0  0  0  0  0  0
    4.8776   -1.4704   -0.3725 C   0  0  0  0  0  0  0  0  0  0  0  0
    5.1846   -0.1484   -1.0992 C   0  0  0  0  0  0  0  0  0  0  0  0
    5.1386   -0.2620   -2.6069 C   0  0  0  0  0  0  0  0  0  0  0  0
    3.9508   -0.0388   -3.3173 C   0  0  0  0  0  0  0  0  0  0  0  0
    3.9025   -0.1825   -4.7080 C   0  0  0  0  0  0  0  0  0  0  0  0
    5.0381   -0.5551   -5.4394 C   0  0  0  0  0  0  0  0  0  0  0  0
    4.9995   -0.6309   -6.9671 C   0  0  1  0  0  0  0  0  0  0  0  0
    5.6862    0.4952   -7.6115 N   0  0  0  0  0  0  0  0  0  0  0  0
    5.5062   -1.9636   -7.5231 C   0  0  0  0  0  0  0  0  0  0  0  0
    6.2336   -2.0246   -8.7095 C   0  0  0  0  0  0  0  0  0  0  0  0
    6.6448   -3.2603   -9.2363 C   0  0  0  0  0  0  0  0  0  0  0  0
    6.3285   -4.4553   -8.5914 C   0  0  0  0  0  0  0  0  0  0  0  0
    6.6798   -5.6939   -9.0195 O   0  0  0  0  0  0  0  0  0  0  0  0
    7.4185   -5.8162  -10.2100 C   0  0  0  0  0  0  0  0  0  0  0  0
    5.5788   -4.4055   -7.3829 C   0  0  0  0  0  0  0  0  0  0  0  0
    5.3072   -5.6055   -6.8103 O   0  0  0  0  0  0  0  0  0  0  0  0
    4.5752   -5.6377   -5.6094 C   0  0  0  0  0  0  0  0  0  0  0  0
    5.1828   -3.1714   -6.8694 C   0  0  0  0  0  0  0  0  0  0  0  0
    6.2284   -0.7839   -4.7280 C   0  0  0  0  0  0  0  0  0  0  0  0
    6.2769   -0.6376   -3.3419 C   0  0  0  0  0  0  0  0  0  0  0  0
    4.6620   -2.5516    2.9684 H   0  0  0  0  0  0  0  0  0  0  0  0
    5.3396   -3.4570    1.5957 H   0  0  0  0  0  0  0  0  0  0  0  0
    3.6122   -3.0413    1.6188 H   0  0  0  0  0  0  0  0  0  0  0  0
    5.9233   -0.9910    1.4594 H   0  0  0  0  0  0  0  0  0  0  0  0
    4.2107   -0.5790    1.4822 H   0  0  0  0  0  0  0  0  0  0  0  0
    3.8810   -1.8308   -0.6859 H   0  0  0  0  0  0  0  0  0  0  0  0
    5.5940   -2.2419   -0.7085 H   0  0  0  0  0  0  0  0  0  0  0  0
    6.1819    0.2077   -0.7874 H   0  0  0  0  0  0  0  0  0  0  0  0
    4.4644    0.6188   -0.7659 H   0  0  0  0  0  0  0  0  0  0  0  0
    3.0471    0.2569   -2.7755 H   0  0  0  0  0  0  0  0  0  0  0  0
    2.9612    0.0027   -5.2354 H   0  0  0  0  0  0  0  0  0  0  0  0
    3.9368   -0.5440   -7.2603 H   0  0  0  0  0  0  0  0  0  0  0  0
    6.6617    0.5232   -7.3080 H   0  0  0  0  0  0  0  0  0  0  0  0
    5.2695    1.3716   -7.2977 H   0  0  0  0  0  0  0  0  0  0  0  0
    6.4707   -1.1003   -9.2366 H   0  0  0  0  0  0  0  0  0  0  0  0
    7.2158   -3.2752  -10.1651 H   0  0  0  0  0  0  0  0  0  0  0  0
    7.5885   -6.8905  -10.3653 H   0  0  0  0  0  0  0  0  0  0  0  0
    8.3975   -5.3059  -10.1446 H   0  0  0  0  0  0  0  0  0  0  0  0
    6.8703   -5.4120  -11.0812 H   0  0  0  0  0  0  0  0  0  0  0  0
    4.4803   -6.6957   -5.3286 H   0  0  0  0  0  0  0  0  0  0  0  0
    3.5633   -5.2082   -5.7292 H   0  0  0  0  0  0  0  0  0  0  0  0
    5.0910   -5.0961   -4.7951 H   0  0  0  0  0  0  0  0  0  0  0  0
    4.6151   -3.1331   -5.9401 H   0  0  0  0  0  0  0  0  0  0  0  0
    7.1298   -1.0883   -5.2683 H   0  0  0  0  0  0  0  0  0  0  0  0
    7.2192   -0.8186   -2.8152 H   0  0  0  0  0  0  0  0  0  0  0  0
  1  2  1  0
  1 23  1  0
  1 24  1  0
  1 25  1  0
  2  3  1  0
  2 26  1  0
  2 27  1  0
  3  4  1  0
  3 28  1  0
  3 29  1  0
  4  5  1  0
  4 30  1  0
  4 31  1  0
  5  6  2  0
  5 22  1  0
  6  7  1  0
  6 32  1  0
  7  8  2  0
  7 33  1  0
  8  9  1  0
  8 21  1  0
  9 10  1  0
  9 11  1  0
  9 34  1  6
 10 35  1  0
 10 36  1  0
 11 12  2  0
 11 20  1  0
 12 13  1  0
 12 37  1  0
 13 14  2  0
 13 38  1  0
 14 15  1  0
 14 17  1  0
 15 16  1  0
 16 39  1  0
 16 40  1  0
 16 41  1  0
 17 18  1  0
 17 20  2  0
 18 19  1  0
 19 42  1  0
 19 43  1  0
 19 44  1  0
 20 45  1  0
 21 22  2  0
 21 46  1  0
 22 47  1  0
M  END

