
     RDKit          3D

 40 43  0  0  0  0  0  0  0  0999 V2000
    1.1225   -0.3883    0.0980 C   0  0  0  0  0  0  0  0  0  0  0  0
    2.1398    0.0082   -0.7947 O   0  0  0  0  0  0  0  0  0  0  0  0
    2.9057   -0.8656   -1.4564 C   0  0  0  0  0  0  0  0  0  0  0  0
    2.8079   -2.2741   -1.3481 C   0  0  0  0  0  0  0  0  0  0  0  0
    1.9975   -3.2392   -0.6197 C   0  0  0  0  0  0  0  0  0  0  0  0
    2.4423   -4.4651   -0.9905 C   0  0  0  0  0  0  0  0  0  0  0  0
    3.4662   -4.3865   -1.8934 O   0  0  0  0  0  0  0  0  0  0  0  0
    3.6951   -3.0698   -2.1164 C   0  0  0  0  0  0  0  0  0  0  0  0
    4.6625   -2.5747   -2.9756 C   0  0  0  0  0  0  0  0  0  0  0  0
    4.7317   -1.1865   -3.0592 C   0  0  0  0  0  0  0  0  0  0  0  0
    5.6931   -0.7145   -3.9141 O   0  0  0  0  0  0  0  0  0  0  0  0
    5.8666    0.5980   -4.0842 C   0  0  0  0  0  0  0  0  0  0  0  0
    5.1322    1.5482   -3.4533 C   0  0  0  0  0  0  0  0  0  0  0  0
    5.3781    2.9721   -3.7000 C   0  0  0  0  0  0  0  0  0  0  0  0
    6.3021    3.3770   -4.4882 N   0  0  0  0  0  0  0  0  0  0  0  0
    6.5700    4.7337   -4.6599 C   0  0  0  0  0  0  0  0  0  0  0  0
    6.5339    5.6667   -3.6045 C   0  0  0  0  0  0  0  0  0  0  0  0
    6.8570    7.0082   -3.8045 C   0  0  0  0  0  0  0  0  0  0  0  0
    7.2300    7.4841   -5.0695 C   0  0  0  0  0  0  0  0  0  0  0  0
    7.5976    8.9299   -5.2981 C   0  0  0  0  0  0  0  0  0  0  0  0
    7.2734    6.5634   -6.1297 C   0  0  0  0  0  0  0  0  0  0  0  0
    6.9621    5.2208   -5.9278 C   0  0  0  0  0  0  0  0  0  0  0  0
    7.0340    4.0285   -7.4152 Br  0  0  0  0  0  0  0  0  0  0  0  0
    4.0559    1.1672   -2.5059 C   0  0  0  0  0  0  0  0  0  0  0  0
    3.3912    2.0225   -1.9403 O   0  0  0  0  0  0  0  0  0  0  0  0
    3.8875   -0.3047   -2.3305 C   0  0  0  0  0  0  0  0  0  0  0  0
    0.6752    0.5414    0.4733 H   0  0  0  0  0  0  0  0  0  0  0  0
    1.5259   -0.9589    0.9513 H   0  0  0  0  0  0  0  0  0  0  0  0
    0.3413   -0.9800   -0.4080 H   0  0  0  0  0  0  0  0  0  0  0  0
    1.1930   -3.0615    0.0846 H   0  0  0  0  0  0  0  0  0  0  0  0
    2.1392   -5.4699   -0.7075 H   0  0  0  0  0  0  0  0  0  0  0  0
    5.3302   -3.2116   -3.5533 H   0  0  0  0  0  0  0  0  0  0  0  0
    6.6617    0.8362   -4.7936 H   0  0  0  0  0  0  0  0  0  0  0  0
    4.6952    3.6528   -3.1628 H   0  0  0  0  0  0  0  0  0  0  0  0
    6.2737    5.3157   -2.6034 H   0  0  0  0  0  0  0  0  0  0  0  0
    6.8255    7.6974   -2.9561 H   0  0  0  0  0  0  0  0  0  0  0  0
    7.3893    9.5434   -4.4091 H   0  0  0  0  0  0  0  0  0  0  0  0
    7.0366    9.3586   -6.1447 H   0  0  0  0  0  0  0  0  0  0  0  0
    8.6699    9.0387   -5.5351 H   0  0  0  0  0  0  0  0  0  0  0  0
    7.5574    6.8960   -7.1306 H   0  0  0  0  0  0  0  0  0  0  0  0
  1  2  1  0
  1 27  1  0
  1 28  1  0
  1 29  1  0
  2  3  1  0
  3  4  2  0
  3 26  1  0
  4  5  1  0
  4  8  1  0
  5  6  2  0
  5 30  1  0
  6  7  1  0
  6 31  1  0
  7  8  1  0
  8  9  2  0
  9 10  1  0
  9 32  1  0
 10 11  1  0
 10 26  2  0
 11 12  1  0
 12 13  2  0
 12 33  1  0
 13 14  1  0
 13 24  1  0
 14 15  2  0
 14 34  1  0
 15 16  1  0
 16 17  2  0
 16 22  1  0
 17 18  1  0
 17 35  1  0
 18 19  2  0
 18 36  1  0
 19 20  1  0
 19 21  1  0
 20 37  1  0
 20 38  1  0
 20 39  1  0
 21 22  2  0
 21 40  1  0
 22 23  1  0
 24 25  2  0
 24 26  1  0
M  END

