
     RDKit          3D

 20 19  0  0  0  0  0  0  0  0999 V2000
    0.9661   -0.0971   -0.0010 C   0  0  0  0  0  0  0  0  0  0  0  0
    2.4848    0.0581   -0.0526 C   0  0  0  0  0  0  0  0  0  0  0  0
    3.0008    1.0484   -1.1299 C   0  0  1  0  0  0  0  0  0  0  0  0
    2.5556    0.6440   -2.4264 O   0  0  0  0  0  0  0  0  0  0  0  0
    2.5190    2.4170   -0.8306 C   0  0  0  0  0  0  0  0  0  0  0  0
    2.0994    3.5309   -0.5797 C   0  0  0  0  0  0  0  0  0  0  0  0
    1.4207    5.3788   -0.1763 I   0  0  0  0  0  0  0  0  0  0  0  0
    4.5447    1.0107   -1.1822 C   0  0  0  0  0  0  0  0  0  0  0  0
    5.1701    1.9242   -2.2335 C   0  0  0  0  0  0  0  0  0  0  0  0
    0.6744   -0.8270    0.7699 H   0  0  0  0  0  0  0  0  0  0  0  0
    0.5712   -0.4650   -0.9619 H   0  0  0  0  0  0  0  0  0  0  0  0
    0.4664    0.8561    0.2349 H   0  0  0  0  0  0  0  0  0  0  0  0
    2.9501   -0.9169   -0.2734 H   0  0  0  0  0  0  0  0  0  0  0  0
    2.8658    0.3827    0.9301 H   0  0  0  0  0  0  0  0  0  0  0  0
    1.6242    0.8830   -2.5187 H   0  0  0  0  0  0  0  0  0  0  0  0
    4.8205   -0.0375   -1.3869 H   0  0  0  0  0  0  0  0  0  0  0  0
    4.9287    1.2527   -0.1775 H   0  0  0  0  0  0  0  0  0  0  0  0
    4.7797    1.6848   -3.2332 H   0  0  0  0  0  0  0  0  0  0  0  0
    6.2645    1.8025   -2.2511 H   0  0  0  0  0  0  0  0  0  0  0  0
    4.9522    2.9843   -2.0287 H   0  0  0  0  0  0  0  0  0  0  0  0
  1  2  1  0
  1 10  1  0
  1 11  1  0
  1 12  1  0
  2  3  1  0
  2 13  1  0
  2 14  1  0
  3  4  1  0
  3  5  1  1
  3  8  1  0
  4 15  1  0
  5  6  3  0
  6  7  1  0
  8  9  1  0
  8 16  1  0
  8 17  1  0
  9 18  1  0
  9 19  1  0
  9 20  1  0
M  END

