
     RDKit          3D

 51 53  0  0  0  0  0  0  0  0999 V2000
    1.6917   -1.1851    2.5823 C   0  0  0  0  0  0  0  0  0  0  0  0
    1.7428   -0.2142    3.7492 C   0  0  0  0  0  0  0  0  0  0  0  0
    3.0497    0.3832    3.8901 O   0  0  0  0  0  0  0  0  0  0  0  0
    3.3178    1.4790    3.1614 C   0  0  0  0  0  0  0  0  0  0  0  0
    2.5335    1.9966    2.4003 O   0  0  0  0  0  0  0  0  0  0  0  0
    4.7045    1.9969    3.4019 C   0  0  0  0  0  0  0  0  0  0  0  0
    5.1108    3.1447    2.7051 C   0  0  0  0  0  0  0  0  0  0  0  0
    6.3939    3.6598    2.9024 C   0  0  0  0  0  0  0  0  0  0  0  0
    7.2724    3.0387    3.7886 C   0  0  0  0  0  0  0  0  0  0  0  0
    6.8784    1.8839    4.4960 C   0  0  0  0  0  0  0  0  0  0  0  0
    7.7972    1.2347    5.4222 C   0  0  0  0  0  0  0  0  0  0  0  0
    9.1086    1.5028    5.7898 C   0  0  0  0  0  0  0  0  0  0  0  0
    9.4652    0.5201    6.7323 C   0  0  0  0  0  0  0  0  0  0  0  0
    8.3598   -0.3127    6.9048 C   0  0  0  0  0  0  0  0  0  0  0  0
    8.2847   -1.4304    7.7750 C   0  0  0  0  0  0  0  0  0  0  0  0
    7.3925   -2.4113    8.1723 C   0  0  0  0  0  0  0  0  0  0  0  0
    7.9879   -3.3069    9.2262 C   0  0  0  0  0  0  0  0  0  0  0  0
    9.1549   -3.1848    9.5908 O   0  0  0  0  0  0  0  0  0  0  0  0
    7.1870   -4.2768    9.8012 N   0  0  0  0  0  0  0  0  0  0  0  0
    7.7307   -5.0762   10.9211 C   0  0  0  0  0  0  0  0  0  0  0  0
    8.8214   -6.0909   10.5446 C   0  0  0  0  0  0  0  0  0  0  0  0
   10.1250   -5.5804   10.5645 O   0  0  0  0  0  0  0  0  0  0  0  0
    5.8638   -4.5405    9.4003 C   0  0  0  0  0  0  0  0  0  0  0  0
    5.2017   -5.4114    9.9281 O   0  0  0  0  0  0  0  0  0  0  0  0
    5.3329   -3.6995    8.3065 C   0  0  0  0  0  0  0  0  0  0  0  0
    3.9971   -4.0189    7.8992 C   0  0  0  0  0  0  0  0  0  0  0  0
    2.9154   -4.2519    7.5453 N   0  0  0  0  0  0  0  0  0  0  0  0
    6.0395   -2.6763    7.7162 C   0  0  0  0  0  0  0  0  0  0  0  0
    5.4079   -1.8743    6.6171 C   0  0  0  0  0  0  0  0  0  0  0  0
    7.3550    0.1461    6.0938 O   0  0  0  0  0  0  0  0  0  0  0  0
    5.5843    1.3711    4.2909 C   0  0  0  0  0  0  0  0  0  0  0  0
    0.7069   -1.6779    2.5539 H   0  0  0  0  0  0  0  0  0  0  0  0
    2.4612   -1.9659    2.6836 H   0  0  0  0  0  0  0  0  0  0  0  0
    1.8388   -0.6599    1.6270 H   0  0  0  0  0  0  0  0  0  0  0  0
    1.5696   -0.7278    4.7054 H   0  0  0  0  0  0  0  0  0  0  0  0
    1.0005    0.5883    3.6295 H   0  0  0  0  0  0  0  0  0  0  0  0
    4.4066    3.6153    2.0167 H   0  0  0  0  0  0  0  0  0  0  0  0
    6.7127    4.5537    2.3617 H   0  0  0  0  0  0  0  0  0  0  0  0
    8.2716    3.4544    3.9338 H   0  0  0  0  0  0  0  0  0  0  0  0
    9.7308    2.3124    5.4178 H   0  0  0  0  0  0  0  0  0  0  0  0
   10.4186    0.4088    7.2451 H   0  0  0  0  0  0  0  0  0  0  0  0
    9.2367   -1.5394    8.3059 H   0  0  0  0  0  0  0  0  0  0  0  0
    6.8651   -5.6009   11.3400 H   0  0  0  0  0  0  0  0  0  0  0  0
    8.1347   -4.3844   11.6763 H   0  0  0  0  0  0  0  0  0  0  0  0
    8.5509   -6.5471    9.5669 H   0  0  0  0  0  0  0  0  0  0  0  0
    8.7823   -6.9072   11.2864 H   0  0  0  0  0  0  0  0  0  0  0  0
   10.0871   -4.6934   10.1676 H   0  0  0  0  0  0  0  0  0  0  0  0
    4.4200   -2.2690    6.3532 H   0  0  0  0  0  0  0  0  0  0  0  0
    6.0415   -1.8757    5.7195 H   0  0  0  0  0  0  0  0  0  0  0  0
    5.2933   -0.8248    6.9237 H   0  0  0  0  0  0  0  0  0  0  0  0
    5.2567    0.4801    4.8223 H   0  0  0  0  0  0  0  0  0  0  0  0
  1  2  1  0
  1 32  1  0
  1 33  1  0
  1 34  1  0
  2  3  1  0
  2 35  1  0
  2 36  1  0
  3  4  1  0
  4  5  2  0
  4  6  1  0
  6  7  2  0
  6 31  1  0
  7  8  1  0
  7 37  1  0
  8  9  2  0
  8 38  1  0
  9 10  1  0
  9 39  1  0
 10 11  1  0
 10 31  2  0
 11 12  2  0
 11 30  1  0
 12 13  1  0
 12 40  1  0
 13 14  2  0
 13 41  1  0
 14 15  1  0
 14 30  1  0
 15 16  2  0
 15 42  1  0
 16 17  1  0
 16 28  1  0
 17 18  2  0
 17 19  1  0
 19 20  1  0
 19 23  1  0
 20 21  1  0
 20 43  1  0
 20 44  1  0
 21 22  1  0
 21 45  1  0
 21 46  1  0
 22 47  1  0
 23 24  2  0
 23 25  1  0
 25 26  1  0
 25 28  2  0
 26 27  3  0
 28 29  1  0
 29 48  1  0
 29 49  1  0
 29 50  1  0
 31 51  1  0
M  END

