
     RDKit          3D

 48 52  0  0  0  0  0  0  0  0999 V2000
    0.9370    0.2110   -0.3736 C   0  0  0  0  0  0  0  0  0  0  0  0
    2.3951    0.2000   -0.3401 N   0  0  0  0  0  0  0  0  0  0  0  0
    3.0067    1.3799   -0.3941 N   0  0  0  0  0  0  0  0  0  0  0  0
    4.3132    1.4311   -0.3625 C   0  0  0  0  0  0  0  0  0  0  0  0
    5.1176    0.2392   -0.2601 C   0  0  0  0  0  0  0  0  0  0  0  0
    4.4777   -0.9659   -0.2131 C   0  0  0  0  0  0  0  0  0  0  0  0
    3.0293   -1.0601   -0.2544 C   0  0  0  0  0  0  0  0  0  0  0  0
    2.3635   -2.0842   -0.2206 O   0  0  0  0  0  0  0  0  0  0  0  0
    6.6263    0.3403   -0.1482 C   0  0  0  0  0  0  0  0  0  0  0  0
    7.1378    1.6554   -0.5071 N   0  0  0  0  0  0  0  0  0  0  0  0
    8.1781    1.7346   -1.4084 C   0  0  0  0  0  0  0  0  0  0  0  0
    8.6544    0.7482   -1.9444 O   0  0  0  0  0  0  0  0  0  0  0  0
    8.7484    3.1007   -1.6818 C   0  0  0  0  0  0  0  0  0  0  0  0
    9.7229    3.8879   -0.4652 S   0  0  0  0  0  0  0  0  0  0  0  0
   10.1644    5.1134   -1.6394 C   0  0  0  0  0  0  0  0  0  0  0  0
   11.0672    6.2264   -1.2748 C   0  0  1  0  0  0  0  0  0  0  0  0
   12.0376    6.7631   -2.3129 C   0  0  0  0  0  0  0  0  0  0  0  0
   10.8565    7.5886   -1.9144 C   0  0  0  0  0  0  0  0  0  0  0  0
    9.6286    4.9296   -2.8070 N   0  0  0  0  0  0  0  0  0  0  0  0
    8.8298    3.8072   -2.8717 C   0  0  0  0  0  0  0  0  0  0  0  0
    8.1604    3.5004   -4.1571 C   0  0  0  0  0  0  0  0  0  0  0  0
    8.6128    4.1349   -5.3301 C   0  0  0  0  0  0  0  0  0  0  0  0
    8.0145    3.8715   -6.5627 C   0  0  0  0  0  0  0  0  0  0  0  0
    6.9467    2.9737   -6.6517 C   0  0  0  0  0  0  0  0  0  0  0  0
    6.4799    2.3458   -5.4929 C   0  0  0  0  0  0  0  0  0  0  0  0
    7.0776    2.6073   -4.2595 C   0  0  0  0  0  0  0  0  0  0  0  0
    6.3987    2.7788    0.0575 C   0  0  0  0  0  0  0  0  0  0  0  0
    4.9623    2.7928   -0.4753 C   0  0  0  0  0  0  0  0  0  0  0  0
    0.6153    1.2551   -0.4496 H   0  0  0  0  0  0  0  0  0  0  0  0
    0.5333   -0.2567    0.5368 H   0  0  0  0  0  0  0  0  0  0  0  0
    0.5748   -0.3731   -1.2327 H   0  0  0  0  0  0  0  0  0  0  0  0
    5.0186   -1.9122   -0.1365 H   0  0  0  0  0  0  0  0  0  0  0  0
    7.1189   -0.3965   -0.7965 H   0  0  0  0  0  0  0  0  0  0  0  0
    6.9160    0.1032    0.8949 H   0  0  0  0  0  0  0  0  0  0  0  0
   11.4098    6.2121   -0.2368 H   0  0  0  0  0  0  0  0  0  0  0  0
   12.0124    6.2774   -3.2917 H   0  0  0  0  0  0  0  0  0  0  0  0
   13.0315    7.0566   -1.9636 H   0  0  0  0  0  0  0  0  0  0  0  0
   10.0267    7.6623   -2.6221 H   0  0  0  0  0  0  0  0  0  0  0  0
   11.0129    8.4680   -1.2833 H   0  0  0  0  0  0  0  0  0  0  0  0
    9.4428    4.8379   -5.2557 H   0  0  0  0  0  0  0  0  0  0  0  0
    8.3861    4.3716   -7.4610 H   0  0  0  0  0  0  0  0  0  0  0  0
    6.4779    2.7667   -7.6171 H   0  0  0  0  0  0  0  0  0  0  0  0
    5.6403    1.6482   -5.5473 H   0  0  0  0  0  0  0  0  0  0  0  0
    6.6822    2.1144   -3.3715 H   0  0  0  0  0  0  0  0  0  0  0  0
    6.9076    3.7168   -0.1892 H   0  0  0  0  0  0  0  0  0  0  0  0
    6.3971    2.6854    1.1596 H   0  0  0  0  0  0  0  0  0  0  0  0
    4.9805    3.1018   -1.5357 H   0  0  0  0  0  0  0  0  0  0  0  0
    4.3510    3.5356    0.0595 H   0  0  0  0  0  0  0  0  0  0  0  0
  1  2  1  0
  1 29  1  0
  1 30  1  0
  1 31  1  0
  2  3  1  0
  2  7  1  0
  3  4  2  0
  4  5  1  0
  4 28  1  0
  5  6  2  0
  5  9  1  0
  6  7  1  0
  6 32  1  0
  7  8  2  0
  9 10  1  0
  9 33  1  0
  9 34  1  0
 10 11  1  0
 10 27  1  0
 11 12  2  0
 11 13  1  0
 13 14  1  0
 13 20  2  0
 14 15  1  0
 15 16  1  0
 15 19  2  0
 16 17  1  0
 16 18  1  0
 16 35  1  1
 17 18  1  0
 17 36  1  0
 17 37  1  0
 18 38  1  0
 18 39  1  0
 19 20  1  0
 20 21  1  0
 21 22  2  0
 21 26  1  0
 22 23  1  0
 22 40  1  0
 23 24  2  0
 23 41  1  0
 24 25  1  0
 24 42  1  0
 25 26  2  0
 25 43  1  0
 26 44  1  0
 27 28  1  0
 27 45  1  0
 27 46  1  0
 28 47  1  0
 28 48  1  0
M  END

