
     RDKit          3D

 54 57  0  0  0  0  0  0  0  0999 V2000
    2.3185   -1.3932    0.9589 O   0  0  0  0  0  0  0  0  0  0  0  0
    2.8063   -0.5645    0.1990 C   0  0  0  0  0  0  0  0  0  0  0  0
    2.7683    0.7926    0.4907 N   0  0  0  0  0  0  0  0  0  0  0  0
    2.2471    1.2278    1.7922 C   0  0  1  0  0  0  0  0  0  0  0  0
    2.7174    2.6629    2.0841 C   0  0  0  0  0  0  0  0  0  0  0  0
    2.0061    3.7047    1.1980 C   0  0  0  0  0  0  0  0  0  0  0  0
    0.5472    3.6157    1.2479 N   0  0  0  0  0  0  0  0  0  0  0  0
   -0.0630    4.2354    2.4119 C   0  0  0  0  0  0  0  0  0  0  0  0
   -0.0452    5.7543    2.3672 C   0  0  0  0  0  0  0  0  0  0  0  0
   -0.1788    6.4541    1.1606 C   0  0  0  0  0  0  0  0  0  0  0  0
   -0.2075    7.8507    1.1842 C   0  0  0  0  0  0  0  0  0  0  0  0
   -0.1142    8.5776    2.3021 N   0  0  0  0  0  0  0  0  0  0  0  0
    0.0156    7.9118    3.4518 C   0  0  0  0  0  0  0  0  0  0  0  0
    0.0586    6.5165    3.5376 C   0  0  0  0  0  0  0  0  0  0  0  0
    0.0874    2.2610    0.9350 C   0  0  0  0  0  0  0  0  0  0  0  0
    0.7060    1.1736    1.8248 C   0  0  0  0  0  0  0  0  0  0  0  0
    3.4067   -0.9168   -0.9969 N   0  0  0  0  0  0  0  0  0  0  0  0
    3.6595   -2.3302   -1.2641 C   0  0  0  0  0  0  0  0  0  0  0  0
    3.0364   -2.7663   -2.5911 C   0  0  0  0  0  0  0  0  0  0  0  0
    3.4835   -1.8711   -3.7754 C   0  0  2  0  0  0  0  0  0  0  0  0
    4.8981   -2.1625   -4.2158 C   0  0  0  0  0  0  0  0  0  0  0  0
    5.9882   -1.7950   -3.6027 N   0  0  0  0  0  0  0  0  0  0  0  0
    7.1143   -2.2456   -4.2420 C   0  0  0  0  0  0  0  0  0  0  0  0
    6.8997   -2.9825   -5.3761 C   0  0  0  0  0  0  0  0  0  0  0  0
    5.2001   -3.1173   -5.6642 S   0  0  0  0  0  0  0  0  0  0  0  0
    3.2579   -0.3877   -3.4061 C   0  0  0  0  0  0  0  0  0  0  0  0
    3.8439    0.0041   -2.0399 C   0  0  0  0  0  0  0  0  0  0  0  0
    3.5093    1.3628    0.1018 H   0  0  0  0  0  0  0  0  0  0  0  0
    2.6323    0.5445    2.5681 H   0  0  0  0  0  0  0  0  0  0  0  0
    3.8128    2.7431    1.9628 H   0  0  0  0  0  0  0  0  0  0  0  0
    2.5142    2.8780    3.1461 H   0  0  0  0  0  0  0  0  0  0  0  0
    2.3185    3.5698    0.1465 H   0  0  0  0  0  0  0  0  0  0  0  0
    2.3151    4.7227    1.4825 H   0  0  0  0  0  0  0  0  0  0  0  0
    0.3694    3.9101    3.3836 H   0  0  0  0  0  0  0  0  0  0  0  0
   -1.1197    3.9150    2.4405 H   0  0  0  0  0  0  0  0  0  0  0  0
   -0.2491    5.9028    0.2208 H   0  0  0  0  0  0  0  0  0  0  0  0
   -0.3116    8.4105    0.2464 H   0  0  0  0  0  0  0  0  0  0  0  0
    0.0960    8.5181    4.3625 H   0  0  0  0  0  0  0  0  0  0  0  0
    0.1744    6.0318    4.5114 H   0  0  0  0  0  0  0  0  0  0  0  0
    0.3503    2.0511   -0.1167 H   0  0  0  0  0  0  0  0  0  0  0  0
   -1.0125    2.2363    0.9970 H   0  0  0  0  0  0  0  0  0  0  0  0
    0.3759    0.1715    1.5139 H   0  0  0  0  0  0  0  0  0  0  0  0
    0.3766    1.3057    2.8705 H   0  0  0  0  0  0  0  0  0  0  0  0
    3.2332   -2.9009   -0.4305 H   0  0  0  0  0  0  0  0  0  0  0  0
    4.7498   -2.5077   -1.2882 H   0  0  0  0  0  0  0  0  0  0  0  0
    1.9380   -2.7023   -2.5091 H   0  0  0  0  0  0  0  0  0  0  0  0
    3.2880   -3.8197   -2.7952 H   0  0  0  0  0  0  0  0  0  0  0  0
    2.8347   -2.1050   -4.6350 H   0  0  0  0  0  0  0  0  0  0  0  0
    8.0983   -2.0059   -3.8346 H   0  0  0  0  0  0  0  0  0  0  0  0
    7.6333   -3.4353   -6.0406 H   0  0  0  0  0  0  0  0  0  0  0  0
    2.1688   -0.2124   -3.3813 H   0  0  0  0  0  0  0  0  0  0  0  0
    3.6775    0.2692   -4.1850 H   0  0  0  0  0  0  0  0  0  0  0  0
    3.4984    1.0188   -1.8041 H   0  0  0  0  0  0  0  0  0  0  0  0
    4.9457    0.0168   -2.1035 H   0  0  0  0  0  0  0  0  0  0  0  0
  1  2  2  0
  2  3  1  0
  2 17  1  0
  3  4  1  0
  3 28  1  0
  4  5  1  0
  4 16  1  0
  4 29  1  1
  5  6  1  0
  5 30  1  0
  5 31  1  0
  6  7  1  0
  6 32  1  0
  6 33  1  0
  7  8  1  0
  7 15  1  0
  8  9  1  0
  8 34  1  0
  8 35  1  0
  9 10  2  0
  9 14  1  0
 10 11  1  0
 10 36  1  0
 11 12  2  0
 11 37  1  0
 12 13  1  0
 13 14  2  0
 13 38  1  0
 14 39  1  0
 15 16  1  0
 15 40  1  0
 15 41  1  0
 16 42  1  0
 16 43  1  0
 17 18  1  0
 17 27  1  0
 18 19  1  0
 18 44  1  0
 18 45  1  0
 19 20  1  0
 19 46  1  0
 19 47  1  0
 20 21  1  0
 20 26  1  0
 20 48  1  6
 21 22  2  0
 21 25  1  0
 22 23  1  0
 23 24  2  0
 23 49  1  0
 24 25  1  0
 24 50  1  0
 26 27  1  0
 26 51  1  0
 26 52  1  0
 27 53  1  0
 27 54  1  0
M  END

