
     RDKit          3D

 36 37  0  0  0  0  0  0  0  0999 V2000
    1.0141    0.6789    2.8818 Cl  0  0  0  0  0  0  0  0  0  0  0  0
    2.7675    0.6057    3.3218 C   0  0  0  0  0  0  0  0  0  0  0  0
    3.4483   -0.5621    2.6289 C   0  0  0  0  0  0  0  0  0  0  0  0
    5.2235   -0.5896    3.0977 S   0  0  0  0  0  0  0  0  0  0  0  0
    5.7137   -2.1269    2.2259 C   0  0  0  0  0  0  0  0  0  0  0  0
    7.2272   -2.2424    2.1194 C   0  0  2  0  0  0  0  0  0  0  0  0
    7.7283   -3.5050    1.4099 C   0  0  0  0  0  0  0  0  0  0  0  0
    9.1459   -3.6329    1.9787 C   0  0  0  0  0  0  0  0  0  0  0  0
    9.0130   -3.0852    3.4275 C   0  0  2  0  0  0  0  0  0  0  0  0
   10.1696   -2.1590    3.8407 C   0  0  0  0  0  0  0  0  0  0  0  0
   11.4754   -2.9181    4.1091 C   0  0  0  0  0  0  0  0  0  0  0  0
   11.2746   -4.0058    5.1715 C   0  0  0  0  0  0  0  0  0  0  0  0
   10.1387   -4.9587    4.7798 C   0  0  0  0  0  0  0  0  0  0  0  0
    8.8386   -4.2018    4.4749 C   0  0  0  0  0  0  0  0  0  0  0  0
    7.7934   -2.3122    3.4185 O   0  0  0  0  0  0  0  0  0  0  0  0
    2.8228    0.5122    4.4148 H   0  0  0  0  0  0  0  0  0  0  0  0
    3.2127    1.5655    3.0256 H   0  0  0  0  0  0  0  0  0  0  0  0
    3.3468   -0.4623    1.5360 H   0  0  0  0  0  0  0  0  0  0  0  0
    2.9700   -1.5068    2.9330 H   0  0  0  0  0  0  0  0  0  0  0  0
    5.2819   -2.1079    1.2118 H   0  0  0  0  0  0  0  0  0  0  0  0
    5.3144   -3.0019    2.7649 H   0  0  0  0  0  0  0  0  0  0  0  0
    7.6093   -1.3450    1.5876 H   0  0  0  0  0  0  0  0  0  0  0  0
    7.7025   -3.4226    0.3128 H   0  0  0  0  0  0  0  0  0  0  0  0
    7.1070   -4.3687    1.7009 H   0  0  0  0  0  0  0  0  0  0  0  0
    9.8433   -3.0070    1.3981 H   0  0  0  0  0  0  0  0  0  0  0  0
    9.5285   -4.6631    1.9468 H   0  0  0  0  0  0  0  0  0  0  0  0
    9.8540   -1.6311    4.7569 H   0  0  0  0  0  0  0  0  0  0  0  0
   10.3113   -1.3860    3.0668 H   0  0  0  0  0  0  0  0  0  0  0  0
   12.2613   -2.2114    4.4240 H   0  0  0  0  0  0  0  0  0  0  0  0
   11.8389   -3.3818    3.1732 H   0  0  0  0  0  0  0  0  0  0  0  0
   11.0306   -3.5263    6.1374 H   0  0  0  0  0  0  0  0  0  0  0  0
   12.2098   -4.5685    5.3305 H   0  0  0  0  0  0  0  0  0  0  0  0
    9.9600   -5.6962    5.5802 H   0  0  0  0  0  0  0  0  0  0  0  0
   10.4473   -5.5432    3.8936 H   0  0  0  0  0  0  0  0  0  0  0  0
    8.4590   -3.7234    5.3939 H   0  0  0  0  0  0  0  0  0  0  0  0
    8.0504   -4.8965    4.1387 H   0  0  0  0  0  0  0  0  0  0  0  0
  1  2  1  0
  2  3  1  0
  2 16  1  0
  2 17  1  0
  3  4  1  0
  3 18  1  0
  3 19  1  0
  4  5  1  0
  5  6  1  0
  5 20  1  0
  5 21  1  0
  6  7  1  0
  6 15  1  0
  6 22  1  6
  7  8  1  0
  7 23  1  0
  7 24  1  0
  8  9  1  0
  8 25  1  0
  8 26  1  0
  9 10  1  0
  9 14  1  0
  9 15  1  6
 10 11  1  0
 10 27  1  0
 10 28  1  0
 11 12  1  0
 11 29  1  0
 11 30  1  0
 12 13  1  0
 12 31  1  0
 12 32  1  0
 13 14  1  0
 13 33  1  0
 13 34  1  0
 14 35  1  0
 14 36  1  0
M  END

