
     RDKit          3D

 40 40  0  0  0  0  0  0  0  0999 V2000
    1.3780   -0.0172    0.3451 C   0  0  0  0  0  0  0  0  0  0  0  0
    2.8826    0.1490    0.1231 C   0  0  0  0  0  0  0  0  0  0  0  0
    3.2697    0.3195   -1.3655 C   0  0  1  0  0  0  0  0  0  0  0  0
    2.5457    1.3903   -2.0595 N   0  0  0  0  0  0  0  0  0  0  0  0
    2.6653    2.7467   -1.5442 C   0  0  0  0  0  0  0  0  0  0  0  0
    1.6161    3.6599   -2.1837 C   0  0  1  0  0  0  0  0  0  0  0  0
    1.7723    3.8327   -3.6929 C   0  0  0  0  0  0  0  0  0  0  0  0
    0.3508    3.0905   -1.8533 O   0  0  0  0  0  0  0  0  0  0  0  0
    4.8056    0.4743   -1.5370 C   0  0  1  0  0  0  0  0  0  0  0  0
    5.5080   -0.3916   -0.6516 O   0  0  0  0  0  0  0  0  0  0  0  0
    5.3470    0.3095   -2.9614 C   0  0  0  0  0  0  0  0  0  0  0  0
    4.5572    0.3757   -4.1184 C   0  0  0  0  0  0  0  0  0  0  0  0
    5.1336    0.2019   -5.3789 C   0  0  0  0  0  0  0  0  0  0  0  0
    6.5036   -0.0320   -5.4950 C   0  0  0  0  0  0  0  0  0  0  0  0
    7.1918   -0.2423   -7.0974 Cl  0  0  0  0  0  0  0  0  0  0  0  0
    7.3361   -0.1003   -4.3633 C   0  0  0  0  0  0  0  0  0  0  0  0
    8.8172   -0.3485   -4.4810 C   0  0  0  0  0  0  0  0  0  0  0  0
    6.7246    0.0725   -3.1141 C   0  0  0  0  0  0  0  0  0  0  0  0
    1.1546   -0.1902    1.4097 H   0  0  0  0  0  0  0  0  0  0  0  0
    0.9832   -0.8816   -0.2170 H   0  0  0  0  0  0  0  0  0  0  0  0
    0.8080    0.8714    0.0296 H   0  0  0  0  0  0  0  0  0  0  0  0
    3.4209   -0.7223    0.5226 H   0  0  0  0  0  0  0  0  0  0  0  0
    3.2563    1.0098    0.7053 H   0  0  0  0  0  0  0  0  0  0  0  0
    2.9813   -0.6154   -1.8848 H   0  0  0  0  0  0  0  0  0  0  0  0
    1.5539    1.1604   -2.0940 H   0  0  0  0  0  0  0  0  0  0  0  0
    3.6645    3.1587   -1.7667 H   0  0  0  0  0  0  0  0  0  0  0  0
    2.5297    2.8149   -0.4451 H   0  0  0  0  0  0  0  0  0  0  0  0
    1.7185    4.6535   -1.7010 H   0  0  0  0  0  0  0  0  0  0  0  0
    1.7048    2.8635   -4.2076 H   0  0  0  0  0  0  0  0  0  0  0  0
    2.7449    4.2874   -3.9389 H   0  0  0  0  0  0  0  0  0  0  0  0
    0.9865    4.4979   -4.0908 H   0  0  0  0  0  0  0  0  0  0  0  0
   -0.3410    3.5814   -2.3144 H   0  0  0  0  0  0  0  0  0  0  0  0
    5.0770    1.4848   -1.1831 H   0  0  0  0  0  0  0  0  0  0  0  0
    5.4377   -1.2904   -1.0046 H   0  0  0  0  0  0  0  0  0  0  0  0
    3.4936    0.5934   -4.0281 H   0  0  0  0  0  0  0  0  0  0  0  0
    4.5207    0.2500   -6.2809 H   0  0  0  0  0  0  0  0  0  0  0  0
    9.0236   -1.3064   -4.9860 H   0  0  0  0  0  0  0  0  0  0  0  0
    9.2928   -0.3683   -3.4901 H   0  0  0  0  0  0  0  0  0  0  0  0
    9.3060    0.4327   -5.0860 H   0  0  0  0  0  0  0  0  0  0  0  0
    7.3448    0.0112   -2.2170 H   0  0  0  0  0  0  0  0  0  0  0  0
  1  2  1  0
  1 19  1  0
  1 20  1  0
  1 21  1  0
  2  3  1  0
  2 22  1  0
  2 23  1  0
  3  4  1  0
  3  9  1  0
  3 24  1  6
  4  5  1  0
  4 25  1  0
  5  6  1  0
  5 26  1  0
  5 27  1  0
  6  7  1  0
  6  8  1  0
  6 28  1  1
  7 29  1  0
  7 30  1  0
  7 31  1  0
  8 32  1  0
  9 10  1  0
  9 11  1  0
  9 33  1  1
 10 34  1  0
 11 12  2  0
 11 18  1  0
 12 13  1  0
 12 35  1  0
 13 14  2  0
 13 36  1  0
 14 15  1  0
 14 16  1  0
 16 17  1  0
 16 18  2  0
 17 37  1  0
 17 38  1  0
 17 39  1  0
 18 40  1  0
M  END

