
     RDKit          3D

 44 47  0  0  0  0  0  0  0  0999 V2000
    2.2005    1.2180    0.4054 C   0  0  0  0  0  0  0  0  0  0  0  0
    3.4575    0.7441   -0.0194 O   0  0  0  0  0  0  0  0  0  0  0  0
    3.5213   -0.3784   -0.7804 C   0  0  0  0  0  0  0  0  0  0  0  0
    4.8089   -0.7943   -1.1680 C   0  0  0  0  0  0  0  0  0  0  0  0
    4.9763   -1.9262   -1.9520 C   0  0  0  0  0  0  0  0  0  0  0  0
    3.8700   -2.7040   -2.3574 C   0  0  0  0  0  0  0  0  0  0  0  0
    4.1195   -3.8225   -3.1584 N   0  0  0  0  0  0  0  0  0  0  0  0
    3.5091   -4.9314   -3.1109 C   0  0  0  0  0  0  0  0  0  0  0  0
    3.7992   -5.9694   -3.9825 N   0  0  0  0  0  0  0  0  0  0  0  0
    3.1560   -7.1873   -3.8510 C   0  0  0  0  0  0  0  0  0  0  0  0
    3.3804   -8.1426   -4.5712 O   0  0  0  0  0  0  0  0  0  0  0  0
    2.1938   -7.1136   -2.7194 C   0  0  0  0  0  0  0  0  0  0  0  0
    1.3652   -8.0892   -2.2519 C   0  0  0  0  0  0  0  0  0  0  0  0
    1.1515   -9.4433   -2.6722 C   0  0  0  0  0  0  0  0  0  0  0  0
    1.6280  -10.3140   -3.6432 C   0  0  0  0  0  0  0  0  0  0  0  0
    0.9425  -11.5368   -3.4615 C   0  0  0  0  0  0  0  0  0  0  0  0
    0.0787  -11.3612   -2.3906 C   0  0  0  0  0  0  0  0  0  0  0  0
   -0.8744  -12.2522   -1.7431 C   0  0  0  0  0  0  0  0  0  0  0  0
   -0.9759  -13.5833   -2.2001 C   0  0  0  0  0  0  0  0  0  0  0  0
   -1.8641  -14.4887   -1.6303 C   0  0  0  0  0  0  0  0  0  0  0  0
   -2.6911  -14.0938   -0.5716 C   0  0  0  0  0  0  0  0  0  0  0  0
   -2.6145  -12.7881   -0.0983 C   0  0  0  0  0  0  0  0  0  0  0  0
   -1.7197  -11.8582   -0.6664 C   0  0  0  0  0  0  0  0  0  0  0  0
   -1.7310  -10.5365   -0.1005 C   0  0  0  0  0  0  0  0  0  0  0  0
   -1.8106   -9.4996    0.4163 N   0  0  0  0  0  0  0  0  0  0  0  0
    0.2106  -10.1026   -1.9223 O   0  0  0  0  0  0  0  0  0  0  0  0
    2.2236   -5.4973   -1.9760 S   0  0  0  0  0  0  0  0  0  0  0  0
    2.5874   -2.2708   -1.9804 C   0  0  0  0  0  0  0  0  0  0  0  0
    2.4094   -1.1210   -1.2027 C   0  0  0  0  0  0  0  0  0  0  0  0
    2.3907    2.1177    1.0061 H   0  0  0  0  0  0  0  0  0  0  0  0
    1.6702    0.4767    1.0307 H   0  0  0  0  0  0  0  0  0  0  0  0
    1.5519    1.4894   -0.4476 H   0  0  0  0  0  0  0  0  0  0  0  0
    5.6649   -0.1993   -0.8428 H   0  0  0  0  0  0  0  0  0  0  0  0
    5.9736   -2.2423   -2.2648 H   0  0  0  0  0  0  0  0  0  0  0  0
    4.5088   -5.8356   -4.6970 H   0  0  0  0  0  0  0  0  0  0  0  0
    0.7301   -7.8263   -1.3989 H   0  0  0  0  0  0  0  0  0  0  0  0
    2.3821  -10.0613   -4.3807 H   0  0  0  0  0  0  0  0  0  0  0  0
    1.0685  -12.4400   -4.0532 H   0  0  0  0  0  0  0  0  0  0  0  0
   -0.3370  -13.9114   -3.0213 H   0  0  0  0  0  0  0  0  0  0  0  0
   -1.9114  -15.5109   -2.0131 H   0  0  0  0  0  0  0  0  0  0  0  0
   -3.3903  -14.7999   -0.1188 H   0  0  0  0  0  0  0  0  0  0  0  0
   -3.2515  -12.4612    0.7257 H   0  0  0  0  0  0  0  0  0  0  0  0
    1.7046   -2.8159   -2.3204 H   0  0  0  0  0  0  0  0  0  0  0  0
    1.3964   -0.8148   -0.9409 H   0  0  0  0  0  0  0  0  0  0  0  0
  1  2  1  0
  1 30  1  0
  1 31  1  0
  1 32  1  0
  2  3  1  0
  3  4  2  0
  3 29  1  0
  4  5  1  0
  4 33  1  0
  5  6  2  0
  5 34  1  0
  6  7  1  0
  6 28  1  0
  7  8  2  0
  8  9  1  0
  8 27  1  0
  9 10  1  0
  9 35  1  0
 10 11  2  0
 10 12  1  0
 12 13  2  0
 12 27  1  0
 13 14  1  0
 13 36  1  0
 14 15  2  0
 14 26  1  0
 15 16  1  0
 15 37  1  0
 16 17  2  0
 16 38  1  0
 17 18  1  0
 17 26  1  0
 18 19  2  0
 18 23  1  0
 19 20  1  0
 19 39  1  0
 20 21  2  0
 20 40  1  0
 21 22  1  0
 21 41  1  0
 22 23  2  0
 22 42  1  0
 23 24  1  0
 24 25  3  0
 28 29  2  0
 28 43  1  0
 29 44  1  0
M  END

