
     RDKit          3D

 46 46  0  0  0  0  0  0  0  0999 V2000
    5.9168   -3.7680    4.6411 C   0  0  0  0  0  0  0  0  0  0  0  0
    5.1960   -2.5358    4.0771 C   0  0  1  0  0  0  0  0  0  0  0  0
    5.6363   -1.2661    4.8185 C   0  0  0  0  0  0  0  0  0  0  0  0
    5.4139   -2.3615    2.5608 C   0  0  0  0  0  0  0  0  0  0  0  0
    4.9022   -3.4909    1.6445 C   0  0  1  0  0  0  0  0  0  0  0  0
    3.3740   -3.6246    1.6783 C   0  0  0  0  0  0  0  0  0  0  0  0
    5.3773   -3.2729    0.1850 C   0  0  0  0  0  0  0  0  0  0  0  0
    6.8896   -3.3405    0.0084 C   0  0  0  0  0  0  0  0  0  0  0  0
    7.5592   -2.3158   -0.0351 O   0  0  0  0  0  0  0  0  0  0  0  0
    7.4877   -4.5846   -0.0520 N   0  0  0  0  0  0  0  0  0  0  0  0
    6.8187   -5.8740   -0.1753 C   0  0  0  0  0  0  0  0  0  0  0  0
    7.0920   -6.5250   -1.5453 C   0  0  2  0  0  0  0  0  0  0  0  0
    6.4392   -7.9052   -1.6434 C   0  0  0  0  0  0  0  0  0  0  0  0
    8.6052   -6.5865   -1.8120 C   0  0  0  0  0  0  0  0  0  0  0  0
    9.2819   -5.2258   -1.6157 C   0  0  2  0  0  0  0  0  0  0  0  0
   10.7957   -5.3054   -1.8121 C   0  0  0  0  0  0  0  0  0  0  0  0
   11.4070   -6.3245   -1.9819 O   0  0  0  0  0  0  0  0  0  0  0  0
   11.4448   -4.1184   -1.7674 O   0  0  0  0  0  0  0  0  0  0  0  0
    8.9305   -4.6511   -0.2243 C   0  0  0  0  0  0  0  0  0  0  0  0
    5.7721   -3.8464    5.7308 H   0  0  0  0  0  0  0  0  0  0  0  0
    7.0031   -3.7079    4.4538 H   0  0  0  0  0  0  0  0  0  0  0  0
    5.5533   -4.7077    4.1959 H   0  0  0  0  0  0  0  0  0  0  0  0
    4.1136   -2.6644    4.2626 H   0  0  0  0  0  0  0  0  0  0  0  0
    6.7143   -1.0787    4.6741 H   0  0  0  0  0  0  0  0  0  0  0  0
    5.4548   -1.3501    5.9024 H   0  0  0  0  0  0  0  0  0  0  0  0
    5.0948   -0.3779    4.4546 H   0  0  0  0  0  0  0  0  0  0  0  0
    6.4920   -2.2089    2.3802 H   0  0  0  0  0  0  0  0  0  0  0  0
    4.9301   -1.4203    2.2405 H   0  0  0  0  0  0  0  0  0  0  0  0
    5.3330   -4.4456    1.9957 H   0  0  0  0  0  0  0  0  0  0  0  0
    2.8912   -2.6994    1.3199 H   0  0  0  0  0  0  0  0  0  0  0  0
    3.0023   -3.8216    2.6953 H   0  0  0  0  0  0  0  0  0  0  0  0
    3.0279   -4.4508    1.0357 H   0  0  0  0  0  0  0  0  0  0  0  0
    5.0893   -2.2636   -0.1445 H   0  0  0  0  0  0  0  0  0  0  0  0
    4.8661   -3.9871   -0.4793 H   0  0  0  0  0  0  0  0  0  0  0  0
    5.7407   -5.7601   -0.0142 H   0  0  0  0  0  0  0  0  0  0  0  0
    7.1903   -6.5449    0.6237 H   0  0  0  0  0  0  0  0  0  0  0  0
    6.6365   -5.8659   -2.3086 H   0  0  0  0  0  0  0  0  0  0  0  0
    6.8519   -8.5946   -0.8875 H   0  0  0  0  0  0  0  0  0  0  0  0
    6.6145   -8.3564   -2.6326 H   0  0  0  0  0  0  0  0  0  0  0  0
    5.3492   -7.8504   -1.4885 H   0  0  0  0  0  0  0  0  0  0  0  0
    8.8022   -6.9629   -2.8281 H   0  0  0  0  0  0  0  0  0  0  0  0
    9.0757   -7.3126   -1.1258 H   0  0  0  0  0  0  0  0  0  0  0  0
    8.8937   -4.5110   -2.3663 H   0  0  0  0  0  0  0  0  0  0  0  0
   10.8214   -3.3869   -1.6474 H   0  0  0  0  0  0  0  0  0  0  0  0
    9.3186   -3.6353   -0.0817 H   0  0  0  0  0  0  0  0  0  0  0  0
    9.3645   -5.3027    0.5563 H   0  0  0  0  0  0  0  0  0  0  0  0
  1  2  1  0
  1 20  1  0
  1 21  1  0
  1 22  1  0
  2  3  1  0
  2  4  1  0
  2 23  1  6
  3 24  1  0
  3 25  1  0
  3 26  1  0
  4  5  1  0
  4 27  1  0
  4 28  1  0
  5  6  1  0
  5  7  1  0
  5 29  1  1
  6 30  1  0
  6 31  1  0
  6 32  1  0
  7  8  1  0
  7 33  1  0
  7 34  1  0
  8  9  2  0
  8 10  1  0
 10 11  1  0
 10 19  1  0
 11 12  1  0
 11 35  1  0
 11 36  1  0
 12 13  1  0
 12 14  1  0
 12 37  1  6
 13 38  1  0
 13 39  1  0
 13 40  1  0
 14 15  1  0
 14 41  1  0
 14 42  1  0
 15 16  1  0
 15 19  1  0
 15 43  1  6
 16 17  2  0
 16 18  1  0
 18 44  1  0
 19 45  1  0
 19 46  1  0
M  END

