
     RDKit          3D

 48 50  0  0  0  0  0  0  0  0999 V2000
    0.5179   -0.1609    4.6605 C   0  0  0  0  0  0  0  0  0  0  0  0
    2.0464   -0.1411    4.6466 C   0  0  0  0  0  0  0  0  0  0  0  0
    2.6155    0.6333    3.4519 C   0  0  0  0  0  0  0  0  0  0  0  0
    4.0673    0.6775    3.4257 N   0  0  0  0  0  0  0  0  0  0  0  0
    4.8219   -0.0578    2.5558 C   0  0  0  0  0  0  0  0  0  0  0  0
    4.3203   -0.7888    1.7093 O   0  0  0  0  0  0  0  0  0  0  0  0
    6.3351    0.1242    2.6922 C   0  0  1  0  0  0  0  0  0  0  0  0
    7.0698   -1.2301    2.8246 C   0  0  0  0  0  0  0  0  0  0  0  0
    7.1568   -1.9973    1.4978 C   0  0  0  0  0  0  0  0  0  0  0  0
    7.6894   -1.1705    0.4032 N   0  0  0  0  0  0  0  0  0  0  0  0
    9.3696   -1.1384    0.2288 S   0  0  1  0  0  0  0  0  0  0  0  0
    9.6672   -0.0332   -0.6893 O   0  0  0  0  0  0  0  0  0  0  0  0
   10.0429   -1.2142    1.5361 O   0  0  0  0  0  0  0  0  0  0  0  0
    9.7029   -2.6826   -0.6182 C   0  0  0  0  0  0  0  0  0  0  0  0
   10.4764   -3.6559    0.0163 C   0  0  0  0  0  0  0  0  0  0  0  0
   10.7891   -4.8503   -0.6465 C   0  0  0  0  0  0  0  0  0  0  0  0
   10.3108   -5.0224   -1.9439 C   0  0  0  0  0  0  0  0  0  0  0  0
    9.5335   -4.0321   -2.5912 C   0  0  0  0  0  0  0  0  0  0  0  0
    9.2295   -2.8539   -1.9321 C   0  0  0  0  0  0  0  0  0  0  0  0
    9.1920   -4.5306   -3.9713 C   0  0  0  0  0  0  0  0  0  0  0  0
    9.8578   -5.9151   -4.0360 C   0  0  0  0  0  0  0  0  0  0  0  0
    9.8601   -6.7040   -4.9487 O   0  0  0  0  0  0  0  0  0  0  0  0
   10.4812   -6.1019   -2.8047 N   0  0  0  0  0  0  0  0  0  0  0  0
    6.9641    0.0944    0.2069 C   0  0  0  0  0  0  0  0  0  0  0  0
    6.9012    0.9259    1.4931 C   0  0  0  0  0  0  0  0  0  0  0  0
    0.1319   -0.7242    5.5242 H   0  0  0  0  0  0  0  0  0  0  0  0
    0.1159   -0.6325    3.7485 H   0  0  0  0  0  0  0  0  0  0  0  0
    0.1011    0.8590    4.7162 H   0  0  0  0  0  0  0  0  0  0  0  0
    2.4396   -1.1716    4.6163 H   0  0  0  0  0  0  0  0  0  0  0  0
    2.4230    0.3066    5.5848 H   0  0  0  0  0  0  0  0  0  0  0  0
    2.2208    1.6655    3.4505 H   0  0  0  0  0  0  0  0  0  0  0  0
    2.3031    0.1583    2.5103 H   0  0  0  0  0  0  0  0  0  0  0  0
    4.5449    1.2301    4.1272 H   0  0  0  0  0  0  0  0  0  0  0  0
    6.5308    0.7056    3.6092 H   0  0  0  0  0  0  0  0  0  0  0  0
    6.5728   -1.8613    3.5803 H   0  0  0  0  0  0  0  0  0  0  0  0
    8.0936   -1.0347    3.1794 H   0  0  0  0  0  0  0  0  0  0  0  0
    6.1557   -2.3317    1.1890 H   0  0  0  0  0  0  0  0  0  0  0  0
    7.7894   -2.8900    1.6129 H   0  0  0  0  0  0  0  0  0  0  0  0
   10.8359   -3.4668    1.0291 H   0  0  0  0  0  0  0  0  0  0  0  0
   11.3936   -5.6166   -0.1565 H   0  0  0  0  0  0  0  0  0  0  0  0
    8.6397   -2.0686   -2.4090 H   0  0  0  0  0  0  0  0  0  0  0  0
    9.5888   -3.8988   -4.7833 H   0  0  0  0  0  0  0  0  0  0  0  0
    8.1096   -4.6393   -4.1512 H   0  0  0  0  0  0  0  0  0  0  0  0
   10.9999   -6.9464   -2.5918 H   0  0  0  0  0  0  0  0  0  0  0  0
    5.9486   -0.1714   -0.1242 H   0  0  0  0  0  0  0  0  0  0  0  0
    7.4572    0.6571   -0.5956 H   0  0  0  0  0  0  0  0  0  0  0  0
    6.2970    1.8329    1.3217 H   0  0  0  0  0  0  0  0  0  0  0  0
    7.9206    1.2625    1.7473 H   0  0  0  0  0  0  0  0  0  0  0  0
  1  2  1  0
  1 26  1  0
  1 27  1  0
  1 28  1  0
  2  3  1  0
  2 29  1  0
  2 30  1  0
  3  4  1  0
  3 31  1  0
  3 32  1  0
  4  5  1  0
  4 33  1  0
  5  6  2  0
  5  7  1  0
  7  8  1  0
  7 25  1  0
  7 34  1  1
  8  9  1  0
  8 35  1  0
  8 36  1  0
  9 10  1  0
  9 37  1  0
  9 38  1  0
 10 11  1  0
 10 24  1  0
 11 12  2  0
 11 13  2  0
 11 14  1  6
 14 15  2  0
 14 19  1  0
 15 16  1  0
 15 39  1  0
 16 17  2  0
 16 40  1  0
 17 18  1  0
 17 23  1  0
 18 19  2  0
 18 20  1  0
 19 41  1  0
 20 21  1  0
 20 42  1  0
 20 43  1  0
 21 22  2  0
 21 23  1  0
 23 44  1  0
 24 25  1  0
 24 45  1  0
 24 46  1  0
 25 47  1  0
 25 48  1  0
M  END

