
     RDKit          3D

 27 29  0  0  0  0  0  0  0  0999 V2000
    3.2869   -3.4428    0.3469 C   0  0  0  0  0  0  0  0  0  0  0  0
    3.4224   -1.8842    0.2336 B   0  0  0  0  0  0  0  0  0  0  0  0
    2.4123   -0.6757    0.3618 C   0  0  0  0  0  0  0  0  0  0  0  0
    2.9242    0.0859    1.3700 C   0  0  0  0  0  0  0  0  0  0  0  0
    4.0348    0.9530    0.9022 C   0  0  0  0  0  0  0  0  0  0  0  0
    4.3578    2.2860    1.2395 C   0  0  0  0  0  0  0  0  0  0  0  0
    5.5226    2.8679    0.7854 C   0  0  0  0  0  0  0  0  0  0  0  0
    6.4322    2.1299   -0.0200 C   0  0  0  0  0  0  0  0  0  0  0  0
    7.6371    2.7157   -0.5022 C   0  0  0  0  0  0  0  0  0  0  0  0
    8.5168    2.0036   -1.2887 C   0  0  0  0  0  0  0  0  0  0  0  0
    8.2236    0.6639   -1.6431 C   0  0  0  0  0  0  0  0  0  0  0  0
    7.0665    0.0630   -1.1927 C   0  0  0  0  0  0  0  0  0  0  0  0
    6.1425    0.7613   -0.3612 C   0  0  0  0  0  0  0  0  0  0  0  0
    4.9353    0.1677    0.1350 C   0  0  0  0  0  0  0  0  0  0  0  0
    4.6764   -1.2197   -0.0626 N   0  0  0  0  0  0  0  0  0  0  0  0
    2.5597   -3.8118   -0.3978 H   0  0  0  0  0  0  0  0  0  0  0  0
    2.8629   -3.7107    1.3309 H   0  0  0  0  0  0  0  0  0  0  0  0
    4.2302   -3.9983    0.2176 H   0  0  0  0  0  0  0  0  0  0  0  0
    2.4260   -0.1115   -0.5897 H   0  0  0  0  0  0  0  0  0  0  0  0
    3.0581   -0.3467    2.3782 H   0  0  0  0  0  0  0  0  0  0  0  0
    3.6582    2.8543    1.8571 H   0  0  0  0  0  0  0  0  0  0  0  0
    5.7596    3.9052    1.0344 H   0  0  0  0  0  0  0  0  0  0  0  0
    7.8527    3.7538   -0.2350 H   0  0  0  0  0  0  0  0  0  0  0  0
    9.4362    2.4723   -1.6485 H   0  0  0  0  0  0  0  0  0  0  0  0
    8.9116    0.1082   -2.2850 H   0  0  0  0  0  0  0  0  0  0  0  0
    6.8469   -0.9584   -1.5107 H   0  0  0  0  0  0  0  0  0  0  0  0
    5.4991   -1.7669   -0.2948 H   0  0  0  0  0  0  0  0  0  0  0  0
  1  2  1  0
  1 16  1  0
  1 17  1  0
  1 18  1  0
  2  3  1  0
  2 15  1  0
  3  4  2  0
  3 19  1  0
  4  5  1  0
  4 20  1  0
  5  6  1  0
  5 14  2  0
  6  7  2  0
  6 21  1  0
  7  8  1  0
  7 22  1  0
  8  9  1  0
  8 13  2  0
  9 10  2  0
  9 23  1  0
 10 11  1  0
 10 24  1  0
 11 12  2  0
 11 25  1  0
 12 13  1  0
 12 26  1  0
 13 14  1  0
 14 15  1  0
 15 27  1  0
M  END

