
     RDKit          3D

 40 44  0  0  0  0  0  0  0  0999 V2000
    1.7747   -0.3593    0.2432 N   0  0  0  0  0  0  0  0  0  0  0  0
    3.1253   -0.4835    0.3940 C   0  0  0  0  0  0  0  0  0  0  0  0
    3.7992    0.5278    0.6458 O   0  0  0  0  0  0  0  0  0  0  0  0
    3.7393   -1.8210    0.2536 C   0  0  0  0  0  0  0  0  0  0  0  0
    5.1367   -1.9326    0.2586 C   0  0  0  0  0  0  0  0  0  0  0  0
    5.9850   -0.8688    0.4375 N   0  0  0  0  0  0  0  0  0  0  0  0
    7.3475   -0.9015    0.4281 C   0  0  0  0  0  0  0  0  0  0  0  0
    8.0628   -1.9668    0.2439 N   0  0  0  0  0  0  0  0  0  0  0  0
    9.4121   -1.6833    0.2917 C   0  0  0  0  0  0  0  0  0  0  0  0
   10.4414   -2.6409    0.1257 C   0  0  0  0  0  0  0  0  0  0  0  0
   11.7351   -2.1683    0.2058 C   0  0  0  0  0  0  0  0  0  0  0  0
   12.0383   -0.8167    0.4383 C   0  0  0  0  0  0  0  0  0  0  0  0
   11.0616    0.1473    0.6054 C   0  0  0  0  0  0  0  0  0  0  0  0
    9.7356   -0.3199    0.5265 C   0  0  0  0  0  0  0  0  0  0  0  0
    8.2531    0.6095    0.6883 S   0  0  0  0  0  0  0  0  0  0  0  0
   13.3968   -0.6560    0.4642 O   0  0  0  0  0  0  0  0  0  0  0  0
   13.9663   -1.9426    0.2439 C   0  0  0  0  0  0  0  0  0  0  0  0
   12.9014   -2.8731    0.0828 O   0  0  0  0  0  0  0  0  0  0  0  0
    5.6726   -3.5701    0.0167 S   0  0  0  0  0  0  0  0  0  0  0  0
    4.0145   -4.1312   -0.0683 C   0  0  0  0  0  0  0  0  0  0  0  0
    3.1054   -3.1162    0.0802 C   0  0  0  0  0  0  0  0  0  0  0  0
    1.6191   -3.4101    0.0747 C   0  0  0  0  0  0  0  0  0  0  0  0
    1.3174   -4.9095    0.2282 C   0  0  0  0  0  0  0  0  0  0  0  0
    2.2242   -5.7665   -0.6594 C   0  0  0  0  0  0  0  0  0  0  0  0
    3.6971   -5.5888   -0.2644 C   0  0  0  0  0  0  0  0  0  0  0  0
    1.4080    0.5850    0.2605 H   0  0  0  0  0  0  0  0  0  0  0  0
    1.2023   -1.0945   -0.1434 H   0  0  0  0  0  0  0  0  0  0  0  0
    5.4469    0.0040    0.5959 H   0  0  0  0  0  0  0  0  0  0  0  0
   10.2084   -3.6899   -0.0547 H   0  0  0  0  0  0  0  0  0  0  0  0
   11.3144    1.1925    0.7854 H   0  0  0  0  0  0  0  0  0  0  0  0
   14.5847   -2.2301    1.1144 H   0  0  0  0  0  0  0  0  0  0  0  0
   14.5867   -1.9234   -0.6712 H   0  0  0  0  0  0  0  0  0  0  0  0
    1.1700   -3.0491   -0.8729 H   0  0  0  0  0  0  0  0  0  0  0  0
    1.1203   -2.8562    0.8871 H   0  0  0  0  0  0  0  0  0  0  0  0
    0.2564   -5.0976   -0.0029 H   0  0  0  0  0  0  0  0  0  0  0  0
    1.4652   -5.2016    1.2832 H   0  0  0  0  0  0  0  0  0  0  0  0
    2.0880   -5.4718   -1.7154 H   0  0  0  0  0  0  0  0  0  0  0  0
    1.9424   -6.8294   -0.5884 H   0  0  0  0  0  0  0  0  0  0  0  0
    4.3563   -6.0291   -1.0322 H   0  0  0  0  0  0  0  0  0  0  0  0
    3.9028   -6.1506    0.6669 H   0  0  0  0  0  0  0  0  0  0  0  0
  1  2  1  0
  1 26  1  0
  1 27  1  0
  2  3  2  0
  2  4  1  0
  4  5  2  0
  4 21  1  0
  5  6  1  0
  5 19  1  0
  6  7  1  0
  6 28  1  0
  7  8  2  0
  7 15  1  0
  8  9  1  0
  9 10  2  0
  9 14  1  0
 10 11  1  0
 10 29  1  0
 11 12  2  0
 11 18  1  0
 12 13  1  0
 12 16  1  0
 13 14  2  0
 13 30  1  0
 14 15  1  0
 16 17  1  0
 17 18  1  0
 17 31  1  0
 17 32  1  0
 19 20  1  0
 20 21  2  0
 20 25  1  0
 21 22  1  0
 22 23  1  0
 22 33  1  0
 22 34  1  0
 23 24  1  0
 23 35  1  0
 23 36  1  0
 24 25  1  0
 24 37  1  0
 24 38  1  0
 25 39  1  0
 25 40  1  0
M  END

