
     RDKit          3D

 53 56  0  0  0  0  0  0  0  0999 V2000
    1.9182    0.2076    0.9353 C   0  0  0  0  0  0  0  0  0  0  0  0
    3.2306    0.2768    0.1239 C   0  0  1  0  0  0  0  0  0  0  0  0
    3.6422   -1.1007   -0.3999 C   0  0  0  0  0  0  0  0  0  0  0  0
    4.2970   -2.0244    0.3784 C   0  0  0  0  0  0  0  0  0  0  0  0
    4.7192   -1.7687    1.7392 C   0  0  0  0  0  0  0  0  0  0  0  0
    5.3808   -2.6827    2.4948 C   0  0  0  0  0  0  0  0  0  0  0  0
    5.7194   -4.0111    1.9750 C   0  0  0  0  0  0  0  0  0  0  0  0
    6.4571   -4.9697    2.8432 C   0  0  0  0  0  0  0  0  0  0  0  0
    7.4331   -5.8346    2.3120 C   0  0  0  0  0  0  0  0  0  0  0  0
    8.1072   -6.7476    3.1251 C   0  0  0  0  0  0  0  0  0  0  0  0
    7.8269   -6.8146    4.4936 C   0  0  0  0  0  0  0  0  0  0  0  0
    6.8673   -5.9572    5.0391 C   0  0  0  0  0  0  0  0  0  0  0  0
    6.1941   -5.0435    4.2245 C   0  0  0  0  0  0  0  0  0  0  0  0
    5.3416   -4.3359    0.7157 C   0  0  0  0  0  0  0  0  0  0  0  0
    4.5796   -3.4102   -0.1931 C   0  0  0  0  0  0  0  0  0  0  0  0
    3.1962   -1.4265   -1.6714 N   0  0  0  0  0  0  0  0  0  0  0  0
    3.0930   -0.4154   -2.7168 C   0  0  0  0  0  0  0  0  0  0  0  0
    2.4446    0.8379   -2.1588 C   0  0  0  0  0  0  0  0  0  0  0  0
    3.1532    1.2631   -0.9596 N   0  0  0  0  0  0  0  0  0  0  0  0
    3.5214    2.6030   -0.8720 C   0  0  0  0  0  0  0  0  0  0  0  0
    3.4259    3.3555   -1.8302 O   0  0  0  0  0  0  0  0  0  0  0  0
    3.9978    3.0122    0.3631 N   0  0  0  0  0  0  0  0  0  0  0  0
    4.5181    4.2706    0.7239 C   0  0  0  0  0  0  0  0  0  0  0  0
    4.6541    5.3517   -0.1661 C   0  0  0  0  0  0  0  0  0  0  0  0
    5.1886    6.5586    0.2926 C   0  0  0  0  0  0  0  0  0  0  0  0
    5.5918    6.7202    1.6207 C   0  0  0  0  0  0  0  0  0  0  0  0
    5.4550    5.6456    2.5045 C   0  0  0  0  0  0  0  0  0  0  0  0
    4.9255    4.4343    2.0623 C   0  0  0  0  0  0  0  0  0  0  0  0
    2.0243   -0.4731    1.7924 H   0  0  0  0  0  0  0  0  0  0  0  0
    1.0923   -0.1666    0.3125 H   0  0  0  0  0  0  0  0  0  0  0  0
    1.6412    1.2067    1.3090 H   0  0  0  0  0  0  0  0  0  0  0  0
    4.0453    0.5864    0.7897 H   0  0  0  0  0  0  0  0  0  0  0  0
    4.5211   -0.7897    2.1812 H   0  0  0  0  0  0  0  0  0  0  0  0
    5.7096   -2.4141    3.5002 H   0  0  0  0  0  0  0  0  0  0  0  0
    7.6812   -5.7718    1.2500 H   0  0  0  0  0  0  0  0  0  0  0  0
    8.8655   -7.4033    2.6889 H   0  0  0  0  0  0  0  0  0  0  0  0
    8.3576   -7.5261    5.1314 H   0  0  0  0  0  0  0  0  0  0  0  0
    6.6370   -6.0013    6.1069 H   0  0  0  0  0  0  0  0  0  0  0  0
    5.4348   -4.3925    4.6642 H   0  0  0  0  0  0  0  0  0  0  0  0
    5.5551   -5.3341    0.3230 H   0  0  0  0  0  0  0  0  0  0  0  0
    3.6240   -3.9068   -0.4741 H   0  0  0  0  0  0  0  0  0  0  0  0
    5.1298   -3.3251   -1.1563 H   0  0  0  0  0  0  0  0  0  0  0  0
    3.5047   -2.3320   -2.0039 H   0  0  0  0  0  0  0  0  0  0  0  0
    2.4820   -0.8192   -3.5396 H   0  0  0  0  0  0  0  0  0  0  0  0
    4.0877   -0.1542   -3.1315 H   0  0  0  0  0  0  0  0  0  0  0  0
    1.3812    0.6366   -1.9284 H   0  0  0  0  0  0  0  0  0  0  0  0
    2.4894    1.6599   -2.8821 H   0  0  0  0  0  0  0  0  0  0  0  0
    3.9456    2.3554    1.1285 H   0  0  0  0  0  0  0  0  0  0  0  0
    4.3359    5.2322   -1.1984 H   0  0  0  0  0  0  0  0  0  0  0  0
    5.2880    7.3895   -0.4112 H   0  0  0  0  0  0  0  0  0  0  0  0
    6.0069    7.6706    1.9639 H   0  0  0  0  0  0  0  0  0  0  0  0
    5.7635    5.7466    3.5484 H   0  0  0  0  0  0  0  0  0  0  0  0
    4.8267    3.5989    2.7632 H   0  0  0  0  0  0  0  0  0  0  0  0
  1  2  1  0
  1 29  1  0
  1 30  1  0
  1 31  1  0
  2  3  1  0
  2 19  1  0
  2 32  1  1
  3  4  2  0
  3 16  1  0
  4  5  1  0
  4 15  1  0
  5  6  2  0
  5 33  1  0
  6  7  1  0
  6 34  1  0
  7  8  1  0
  7 14  2  0
  8  9  2  0
  8 13  1  0
  9 10  1  0
  9 35  1  0
 10 11  2  0
 10 36  1  0
 11 12  1  0
 11 37  1  0
 12 13  2  0
 12 38  1  0
 13 39  1  0
 14 15  1  0
 14 40  1  0
 15 41  1  0
 15 42  1  0
 16 17  1  0
 16 43  1  0
 17 18  1  0
 17 44  1  0
 17 45  1  0
 18 19  1  0
 18 46  1  0
 18 47  1  0
 19 20  1  0
 20 21  2  0
 20 22  1  0
 22 23  1  0
 22 48  1  0
 23 24  2  0
 23 28  1  0
 24 25  1  0
 24 49  1  0
 25 26  2  0
 25 50  1  0
 26 27  1  0
 26 51  1  0
 27 28  2  0
 27 52  1  0
 28 53  1  0
M  END

