
     RDKit          3D

 44 45  0  0  0  0  0  0  0  0999 V2000
    0.9988    0.6087   -0.5805 C   0  0  0  0  0  0  0  0  0  0  0  0
    2.3696    0.1603   -0.0704 C   0  0  0  0  0  0  0  0  0  0  0  0
    2.9758   -1.0919   -0.7720 C   0  0  1  0  0  0  0  0  0  0  0  0
    3.3566   -0.7644   -2.2221 C   0  0  0  0  0  0  0  0  0  0  0  0
    4.2425   -1.5421   -0.0180 C   0  0  0  0  0  0  0  0  0  0  0  0
    3.9669   -2.1299    1.2927 N   0  0  0  0  0  0  0  0  0  0  0  0
    5.1991   -2.3257    2.0439 C   0  0  0  0  0  0  0  0  0  0  0  0
    5.8025   -1.0323    2.5711 C   0  0  0  0  0  0  0  0  0  0  0  0
    7.1827   -0.7985    2.5051 C   0  0  0  0  0  0  0  0  0  0  0  0
    7.7425    0.3642    3.0410 C   0  0  0  0  0  0  0  0  0  0  0  0
    6.9185    1.3091    3.6446 C   0  0  0  0  0  0  0  0  0  0  0  0
    7.4558    2.4220    4.1513 F   0  0  0  0  0  0  0  0  0  0  0  0
    5.5362    1.0980    3.7147 C   0  0  0  0  0  0  0  0  0  0  0  0
    4.4318    2.4064    4.5386 Br  0  0  0  0  0  0  0  0  0  0  0  0
    4.9861   -0.0671    3.1795 C   0  0  0  0  0  0  0  0  0  0  0  0
    3.0203   -3.2796    1.2628 C   0  0  2  0  0  0  0  0  0  0  0  0
    2.5895   -3.6504    2.6918 C   0  0  0  0  0  0  0  0  0  0  0  0
    3.6001   -4.5237    0.5540 C   0  0  0  0  0  0  0  0  0  0  0  0
    1.7575   -2.7907    0.5167 C   0  0  0  0  0  0  0  0  0  0  0  0
    2.0852   -2.2593   -0.7932 N   0  0  0  0  0  0  0  0  0  0  0  0
    0.6452    1.4899   -0.0221 H   0  0  0  0  0  0  0  0  0  0  0  0
    0.2364   -0.1782   -0.4549 H   0  0  0  0  0  0  0  0  0  0  0  0
    1.0165    0.8863   -1.6468 H   0  0  0  0  0  0  0  0  0  0  0  0
    2.3074   -0.0404    1.0103 H   0  0  0  0  0  0  0  0  0  0  0  0
    3.0894    0.9904   -0.1756 H   0  0  0  0  0  0  0  0  0  0  0  0
    4.0839    0.0618   -2.2658 H   0  0  0  0  0  0  0  0  0  0  0  0
    2.4740   -0.4627   -2.8086 H   0  0  0  0  0  0  0  0  0  0  0  0
    3.7941   -1.6479   -2.7106 H   0  0  0  0  0  0  0  0  0  0  0  0
    4.8954   -0.6684    0.1347 H   0  0  0  0  0  0  0  0  0  0  0  0
    4.8041   -2.2477   -0.6679 H   0  0  0  0  0  0  0  0  0  0  0  0
    5.9780   -2.8557    1.4526 H   0  0  0  0  0  0  0  0  0  0  0  0
    4.9867   -2.9720    2.9084 H   0  0  0  0  0  0  0  0  0  0  0  0
    7.8342   -1.5343    2.0260 H   0  0  0  0  0  0  0  0  0  0  0  0
    8.8158    0.5600    2.9940 H   0  0  0  0  0  0  0  0  0  0  0  0
    3.9084   -0.2289    3.2241 H   0  0  0  0  0  0  0  0  0  0  0  0
    3.3803   -4.1711    3.2522 H   0  0  0  0  0  0  0  0  0  0  0  0
    1.7254   -4.3325    2.6554 H   0  0  0  0  0  0  0  0  0  0  0  0
    2.2964   -2.7527    3.2574 H   0  0  0  0  0  0  0  0  0  0  0  0
    4.5490   -4.8437    1.0131 H   0  0  0  0  0  0  0  0  0  0  0  0
    3.7701   -4.3295   -0.5141 H   0  0  0  0  0  0  0  0  0  0  0  0
    2.8975   -5.3690    0.6282 H   0  0  0  0  0  0  0  0  0  0  0  0
    1.2361   -2.0634    1.1749 H   0  0  0  0  0  0  0  0  0  0  0  0
    1.0771   -3.6477    0.3852 H   0  0  0  0  0  0  0  0  0  0  0  0
    1.2459   -2.0744   -1.3379 H   0  0  0  0  0  0  0  0  0  0  0  0
  1  2  1  0
  1 21  1  0
  1 22  1  0
  1 23  1  0
  3  2  1  1
  2 24  1  0
  2 25  1  0
  3  4  1  0
  3  5  1  0
  3 20  1  0
  4 26  1  0
  4 27  1  0
  4 28  1  0
  5  6  1  0
  5 29  1  0
  5 30  1  0
  6  7  1  0
  6 16  1  0
  7  8  1  0
  7 31  1  0
  7 32  1  0
  8  9  2  0
  8 15  1  0
  9 10  1  0
  9 33  1  0
 10 11  2  0
 10 34  1  0
 11 12  1  0
 11 13  1  0
 13 14  1  0
 13 15  2  0
 15 35  1  0
 16 17  1  1
 16 18  1  0
 16 19  1  0
 17 36  1  0
 17 37  1  0
 17 38  1  0
 18 39  1  0
 18 40  1  0
 18 41  1  0
 19 20  1  0
 19 42  1  0
 19 43  1  0
 20 44  1  0
M  END

