
     RDKit          3D

 26 27  0  0  0  0  0  0  0  0999 V2000
    2.1914   -0.7180    0.9194 C   0  0  0  0  0  0  0  0  0  0  0  0
    2.4540    0.2605   -0.1171 N   0  0  0  0  0  0  0  0  0  0  0  0
    2.3368    1.6633    0.2292 C   0  0  0  0  0  0  0  0  0  0  0  0
    3.1975   -0.0789   -1.2094 C   0  0  0  0  0  0  0  0  0  0  0  0
    3.7126    0.8114   -2.0414 N   0  0  0  0  0  0  0  0  0  0  0  0
    4.3176    0.0065   -3.0187 O   0  0  0  0  0  0  0  0  0  0  0  0
    4.1224   -1.2644   -2.6663 C   0  0  0  0  0  0  0  0  0  0  0  0
    4.6523   -2.3167   -3.5836 C   0  0  0  0  0  0  0  0  0  0  0  0
    5.4343   -3.4378   -2.9415 C   0  0  0  0  0  0  0  0  0  0  0  0
    5.4723   -3.7704   -1.6171 C   0  0  0  0  0  0  0  0  0  0  0  0
    6.5027   -5.1615   -1.3870 S   0  0  0  0  0  0  0  0  0  0  0  0
    6.7836   -5.1824   -3.1308 C   0  0  0  0  0  0  0  0  0  0  0  0
    7.6373   -6.0889   -3.7027 N   0  0  0  0  0  0  0  0  0  0  0  0
    6.1696   -4.2418   -3.7875 N   0  0  0  0  0  0  0  0  0  0  0  0
    3.4449   -1.3904   -1.5636 N   0  0  0  0  0  0  0  0  0  0  0  0
    1.1998   -0.5307    1.3628 H   0  0  0  0  0  0  0  0  0  0  0  0
    2.9419   -0.6811    1.7347 H   0  0  0  0  0  0  0  0  0  0  0  0
    2.2000   -1.7251    0.4861 H   0  0  0  0  0  0  0  0  0  0  0  0
    1.4133    1.8203    0.8080 H   0  0  0  0  0  0  0  0  0  0  0  0
    2.2929    2.2693   -0.6855 H   0  0  0  0  0  0  0  0  0  0  0  0
    3.1925    2.0233    0.8344 H   0  0  0  0  0  0  0  0  0  0  0  0
    5.2875   -1.8284   -4.3368 H   0  0  0  0  0  0  0  0  0  0  0  0
    3.8016   -2.7518   -4.1409 H   0  0  0  0  0  0  0  0  0  0  0  0
    4.9443   -3.3027   -0.7910 H   0  0  0  0  0  0  0  0  0  0  0  0
    7.7745   -6.9783   -3.2386 H   0  0  0  0  0  0  0  0  0  0  0  0
    7.5900   -6.1300   -4.7154 H   0  0  0  0  0  0  0  0  0  0  0  0
  1  2  1  0
  1 16  1  0
  1 17  1  0
  1 18  1  0
  2  3  1  0
  2  4  1  0
  3 19  1  0
  3 20  1  0
  3 21  1  0
  4  5  2  0
  4 15  1  0
  5  6  1  0
  6  7  1  0
  7  8  1  0
  7 15  2  0
  8  9  1  0
  8 22  1  0
  8 23  1  0
  9 10  2  0
  9 14  1  0
 10 11  1  0
 10 24  1  0
 11 12  1  0
 12 13  1  0
 12 14  2  0
 13 25  1  0
 13 26  1  0
M  END

