
     RDKit          3D

 41 43  0  0  0  0  0  0  0  0999 V2000
    0.0747    1.4368   -0.7729 C   0  0  0  0  0  0  0  0  0  0  0  0
    1.2877    2.2848   -0.9198 C   0  0  0  0  0  0  0  0  0  0  0  0
    2.5839    2.1575   -0.5056 C   0  0  0  0  0  0  0  0  0  0  0  0
    3.2824    3.3336   -0.9670 C   0  0  0  0  0  0  0  0  0  0  0  0
    4.6975    3.7624   -0.8260 C   0  0  0  0  0  0  0  0  0  0  0  0
    5.0995    4.8334   -1.2607 O   0  0  0  0  0  0  0  0  0  0  0  0
    5.5273    2.8851   -0.1748 N   0  0  0  0  0  0  0  0  0  0  0  0
    6.9420    3.1764    0.0177 C   0  0  2  0  0  0  0  0  0  0  0  0
    7.8104    2.7000   -1.1669 C   0  0  0  0  0  0  0  0  0  0  0  0
    7.7371    1.1760   -1.3506 C   0  0  0  0  0  0  0  0  0  0  0  0
    7.8417    0.4683   -0.0339 C   0  0  0  0  0  0  0  0  0  0  0  0
    8.0729   -0.8095    0.2110 N   0  0  0  0  0  0  0  0  0  0  0  0
    8.0168   -0.8914    1.5742 C   0  0  0  0  0  0  0  0  0  0  0  0
    8.2257   -2.1769    2.3283 C   0  0  1  0  0  0  0  0  0  0  0  0
    7.1467   -3.2090    1.9610 C   0  0  0  0  0  0  0  0  0  0  0  0
    9.6387   -2.7310    2.0821 C   0  0  0  0  0  0  0  0  0  0  0  0
    7.7607    0.2636    2.1766 N   0  0  0  0  0  0  0  0  0  0  0  0
    7.6417    1.1238    1.1401 N   0  0  0  0  0  0  0  0  0  0  0  0
    7.4452    2.5544    1.3244 C   0  0  0  0  0  0  0  0  0  0  0  0
    2.3423    4.0803   -1.6266 C   0  0  0  0  0  0  0  0  0  0  0  0
    1.1447    3.4597   -1.6042 O   0  0  0  0  0  0  0  0  0  0  0  0
    0.3168    0.5259   -0.2086 H   0  0  0  0  0  0  0  0  0  0  0  0
   -0.3275    1.1392   -1.7557 H   0  0  0  0  0  0  0  0  0  0  0  0
   -0.7271    1.9732   -0.2384 H   0  0  0  0  0  0  0  0  0  0  0  0
    2.9767    1.3191    0.0670 H   0  0  0  0  0  0  0  0  0  0  0  0
    5.1681    1.9864    0.1225 H   0  0  0  0  0  0  0  0  0  0  0  0
    7.0212    4.2705    0.0908 H   0  0  0  0  0  0  0  0  0  0  0  0
    8.8531    3.0076   -0.9760 H   0  0  0  0  0  0  0  0  0  0  0  0
    7.4850    3.2178   -2.0805 H   0  0  0  0  0  0  0  0  0  0  0  0
    8.5273    0.8095   -2.0231 H   0  0  0  0  0  0  0  0  0  0  0  0
    6.7808    0.8965   -1.8273 H   0  0  0  0  0  0  0  0  0  0  0  0
    8.1249   -1.9228    3.3961 H   0  0  0  0  0  0  0  0  0  0  0  0
    7.1858   -3.4412    0.8850 H   0  0  0  0  0  0  0  0  0  0  0  0
    6.1373   -2.8312    2.1893 H   0  0  0  0  0  0  0  0  0  0  0  0
    7.2944   -4.1459    2.5221 H   0  0  0  0  0  0  0  0  0  0  0  0
    9.7891   -2.9409    1.0114 H   0  0  0  0  0  0  0  0  0  0  0  0
    9.7948   -3.6666    2.6432 H   0  0  0  0  0  0  0  0  0  0  0  0
   10.4108   -2.0115    2.3972 H   0  0  0  0  0  0  0  0  0  0  0  0
    8.4000    3.0201    1.6214 H   0  0  0  0  0  0  0  0  0  0  0  0
    6.7284    2.7059    2.1445 H   0  0  0  0  0  0  0  0  0  0  0  0
    2.4034    5.0376   -2.1361 H   0  0  0  0  0  0  0  0  0  0  0  0
  1  2  1  0
  1 22  1  0
  1 23  1  0
  1 24  1  0
  2  3  2  0
  2 21  1  0
  3  4  1  0
  3 25  1  0
  4  5  1  0
  4 20  2  0
  5  6  2  0
  5  7  1  0
  7  8  1  0
  7 26  1  0
  8  9  1  0
  8 19  1  0
  8 27  1  1
  9 10  1  0
  9 28  1  0
  9 29  1  0
 10 11  1  0
 10 30  1  0
 10 31  1  0
 11 12  2  0
 11 18  1  0
 12 13  1  0
 13 14  1  0
 13 17  2  0
 14 15  1  0
 14 16  1  0
 14 32  1  1
 15 33  1  0
 15 34  1  0
 15 35  1  0
 16 36  1  0
 16 37  1  0
 16 38  1  0
 17 18  1  0
 18 19  1  0
 19 39  1  0
 19 40  1  0
 20 21  1  0
 20 41  1  0
M  END

