
     RDKit          3D

 40 42  0  0  0  0  0  0  0  0999 V2000
    1.0232    0.2660    0.4195 C   0  0  0  0  0  0  0  0  0  0  0  0
    2.4655    0.2529    0.3048 N   0  0  0  0  0  0  0  0  0  0  0  0
    3.0677    1.5511    0.0829 C   0  0  0  0  0  0  0  0  0  0  0  0
    4.5677    1.3947   -0.1904 C   0  0  1  0  0  0  0  0  0  0  0  0
    4.8072    0.4947   -1.2785 O   0  0  0  0  0  0  0  0  0  0  0  0
    4.5039    1.0188   -2.5625 C   0  0  0  0  0  0  0  0  0  0  0  0
    5.2297    2.3332   -2.8190 C   0  0  0  0  0  0  0  0  0  0  0  0
    4.9386    3.2669   -1.7385 N   0  0  0  0  0  0  0  0  0  0  0  0
    5.3395    4.6180   -2.0020 C   0  0  1  0  0  0  0  0  0  0  0  0
    4.4373    5.4664   -2.8613 C   0  0  0  0  0  0  0  0  0  0  0  0
    4.5418    5.7348   -1.3806 C   0  0  0  0  0  0  0  0  0  0  0  0
    5.2878    2.7444   -0.4026 C   0  0  2  0  0  0  0  0  0  0  0  0
    6.7938    2.6901   -0.1172 C   0  0  0  0  0  0  0  0  0  0  0  0
    7.4200    3.8026    0.4697 C   0  0  0  0  0  0  0  0  0  0  0  0
    8.7948    3.8067    0.7183 C   0  0  0  0  0  0  0  0  0  0  0  0
    9.5784    2.6987    0.3889 C   0  0  0  0  0  0  0  0  0  0  0  0
    8.9556    1.5885   -0.1867 C   0  0  0  0  0  0  0  0  0  0  0  0
    9.9172    0.1811   -0.5948 Cl  0  0  0  0  0  0  0  0  0  0  0  0
    7.5817    1.5715   -0.4405 C   0  0  0  0  0  0  0  0  0  0  0  0
    0.6443   -0.7617    0.5361 H   0  0  0  0  0  0  0  0  0  0  0  0
    0.4933    0.7288   -0.4452 H   0  0  0  0  0  0  0  0  0  0  0  0
    0.7177    0.8293    1.3187 H   0  0  0  0  0  0  0  0  0  0  0  0
    2.7723   -0.3849   -0.4280 H   0  0  0  0  0  0  0  0  0  0  0  0
    2.9495    2.1678    0.9931 H   0  0  0  0  0  0  0  0  0  0  0  0
    2.5938    2.1314   -0.7403 H   0  0  0  0  0  0  0  0  0  0  0  0
    5.0075    0.8867    0.6808 H   0  0  0  0  0  0  0  0  0  0  0  0
    3.4135    1.1717   -2.6753 H   0  0  0  0  0  0  0  0  0  0  0  0
    4.8157    0.2525   -3.2886 H   0  0  0  0  0  0  0  0  0  0  0  0
    4.8700    2.7681   -3.7653 H   0  0  0  0  0  0  0  0  0  0  0  0
    6.3190    2.1485   -2.9408 H   0  0  0  0  0  0  0  0  0  0  0  0
    6.4211    4.8018   -2.1145 H   0  0  0  0  0  0  0  0  0  0  0  0
    3.5148    5.0011   -3.2189 H   0  0  0  0  0  0  0  0  0  0  0  0
    4.8987    6.1716   -3.5581 H   0  0  0  0  0  0  0  0  0  0  0  0
    3.6861    5.4505   -0.7621 H   0  0  0  0  0  0  0  0  0  0  0  0
    5.0750    6.6280   -1.0431 H   0  0  0  0  0  0  0  0  0  0  0  0
    4.8588    3.4540    0.3229 H   0  0  0  0  0  0  0  0  0  0  0  0
    6.8198    4.6744    0.7427 H   0  0  0  0  0  0  0  0  0  0  0  0
    9.2638    4.6797    1.1796 H   0  0  0  0  0  0  0  0  0  0  0  0
   10.6527    2.6860    0.5789 H   0  0  0  0  0  0  0  0  0  0  0  0
    7.1233    0.6838   -0.8758 H   0  0  0  0  0  0  0  0  0  0  0  0
  1  2  1  0
  1 20  1  0
  1 21  1  0
  1 22  1  0
  2  3  1  0
  2 23  1  0
  3  4  1  0
  3 24  1  0
  3 25  1  0
  4  5  1  0
  4 12  1  0
  4 26  1  1
  5  6  1  0
  6  7  1  0
  6 27  1  0
  6 28  1  0
  7  8  1  0
  7 29  1  0
  7 30  1  0
  8  9  1  0
  8 12  1  0
  9 10  1  0
  9 11  1  0
  9 31  1  6
 10 11  1  0
 10 32  1  0
 10 33  1  0
 11 34  1  0
 11 35  1  0
 12 13  1  0
 12 36  1  1
 13 14  2  0
 13 19  1  0
 14 15  1  0
 14 37  1  0
 15 16  2  0
 15 38  1  0
 16 17  1  0
 16 39  1  0
 17 18  1  0
 17 19  2  0
 19 40  1  0
M  END

