
     RDKit          3D

 42 42  0  0  0  0  0  0  0  0999 V2000
    0.3821   -0.7194   -0.1235 C   0  0  0  0  0  0  0  0  0  0  0  0
    1.7610   -0.4743   -0.1203 O   0  0  0  0  0  0  0  0  0  0  0  0
    2.4463   -1.0524   -1.2016 C   0  0  0  0  0  0  0  0  0  0  0  0
    3.9280   -0.7275   -1.0719 C   0  0  0  0  0  0  0  0  0  0  0  0
    4.6807   -1.3078   -2.1700 N   0  0  0  0  0  0  0  0  0  0  0  0
    6.1236   -1.1760   -2.0657 C   0  0  0  0  0  0  0  0  0  0  0  0
    6.8813   -1.9767   -3.1460 C   0  0  1  0  0  0  0  0  0  0  0  0
    6.5463   -1.5013   -4.5624 C   0  0  0  0  0  0  0  0  0  0  0  0
    8.3312   -1.9583   -2.9714 N   0  0  0  0  0  0  0  0  0  0  0  0
    8.8782   -2.6260   -1.7995 C   0  0  0  0  0  0  0  0  0  0  0  0
   10.3876   -2.8640   -1.9198 C   0  0  0  0  0  0  0  0  0  0  0  0
   11.2563   -1.5998   -2.0241 C   0  0  1  0  0  0  0  0  0  0  0  0
   11.2427   -0.6779   -0.8179 C   0  0  0  0  0  0  0  0  0  0  0  0
   12.4645   -0.2212   -0.5161 C   0  0  0  0  0  0  0  0  0  0  0  0
   13.5131   -0.7510   -1.4668 C   0  0  0  0  0  0  0  0  0  0  0  0
   12.7712   -1.9016   -2.1868 C   0  0  0  0  0  0  0  0  0  0  0  0
   -0.0512   -0.2284    0.7605 H   0  0  0  0  0  0  0  0  0  0  0  0
    0.1504   -1.8034   -0.0732 H   0  0  0  0  0  0  0  0  0  0  0  0
   -0.1123   -0.3113   -1.0296 H   0  0  0  0  0  0  0  0  0  0  0  0
    2.0532   -0.6618   -2.1675 H   0  0  0  0  0  0  0  0  0  0  0  0
    2.3110   -2.1534   -1.2264 H   0  0  0  0  0  0  0  0  0  0  0  0
    4.2936   -1.1554   -0.1228 H   0  0  0  0  0  0  0  0  0  0  0  0
    4.0412    0.3758   -0.9776 H   0  0  0  0  0  0  0  0  0  0  0  0
    4.3591   -0.9083   -3.0507 H   0  0  0  0  0  0  0  0  0  0  0  0
    6.4201   -1.5553   -1.0733 H   0  0  0  0  0  0  0  0  0  0  0  0
    6.4741   -0.1153   -2.1046 H   0  0  0  0  0  0  0  0  0  0  0  0
    6.5543   -3.0280   -3.0513 H   0  0  0  0  0  0  0  0  0  0  0  0
    6.8040   -0.4349   -4.6932 H   0  0  0  0  0  0  0  0  0  0  0  0
    5.4768   -1.6243   -4.7939 H   0  0  0  0  0  0  0  0  0  0  0  0
    7.1244   -2.0800   -5.2977 H   0  0  0  0  0  0  0  0  0  0  0  0
    8.6781   -1.0022   -3.0423 H   0  0  0  0  0  0  0  0  0  0  0  0
    8.3798   -3.6074   -1.7158 H   0  0  0  0  0  0  0  0  0  0  0  0
    8.6662   -2.1027   -0.8405 H   0  0  0  0  0  0  0  0  0  0  0  0
   10.5671   -3.4862   -2.8135 H   0  0  0  0  0  0  0  0  0  0  0  0
   10.7201   -3.4500   -1.0439 H   0  0  0  0  0  0  0  0  0  0  0  0
   10.9082   -1.0285   -2.9091 H   0  0  0  0  0  0  0  0  0  0  0  0
   10.3272   -0.3909   -0.2932 H   0  0  0  0  0  0  0  0  0  0  0  0
   12.6888    0.4859    0.2875 H   0  0  0  0  0  0  0  0  0  0  0  0
   14.4335   -1.0853   -0.9583 H   0  0  0  0  0  0  0  0  0  0  0  0
   13.8255    0.0432   -2.1726 H   0  0  0  0  0  0  0  0  0  0  0  0
   12.9963   -2.8530   -1.6752 H   0  0  0  0  0  0  0  0  0  0  0  0
   13.0703   -2.0216   -3.2394 H   0  0  0  0  0  0  0  0  0  0  0  0
  1  2  1  0
  1 17  1  0
  1 18  1  0
  1 19  1  0
  2  3  1  0
  3  4  1  0
  3 20  1  0
  3 21  1  0
  4  5  1  0
  4 22  1  0
  4 23  1  0
  5  6  1  0
  5 24  1  0
  6  7  1  0
  6 25  1  0
  6 26  1  0
  7  8  1  0
  7  9  1  0
  7 27  1  6
  8 28  1  0
  8 29  1  0
  8 30  1  0
  9 10  1  0
  9 31  1  0
 10 11  1  0
 10 32  1  0
 10 33  1  0
 11 12  1  0
 11 34  1  0
 11 35  1  0
 12 13  1  0
 12 16  1  0
 12 36  1  6
 13 14  2  0
 13 37  1  0
 14 15  1  0
 14 38  1  0
 15 16  1  0
 15 39  1  0
 15 40  1  0
 16 41  1  0
 16 42  1  0
M  END

