
     RDKit          3D

 54 55  0  0  0  0  0  0  0  0999 V2000
    4.6263   -0.2055    1.7352 C   0  0  0  0  0  0  0  0  0  0  0  0
    3.6975    0.5668    0.7962 C   0  0  0  0  0  0  0  0  0  0  0  0
    4.2801    0.8235   -0.5285 N   0  0  0  0  0  0  0  0  0  0  0  0
    5.1258    2.0086   -0.6530 C   0  0  0  0  0  0  0  0  0  0  0  0
    4.3765    3.3403   -0.5438 C   0  0  0  0  0  0  0  0  0  0  0  0
    4.1631   -0.1933   -1.4548 C   0  0  0  0  0  0  0  0  0  0  0  0
    3.5792   -1.2283   -1.1629 O   0  0  0  0  0  0  0  0  0  0  0  0
    4.7826   -0.0112   -2.8569 C   0  0  1  0  0  0  0  0  0  0  0  0
    4.8517   -1.3518   -3.6136 C   0  0  0  0  0  0  0  0  0  0  0  0
    3.4844   -1.7965   -4.1452 C   0  0  0  0  0  0  0  0  0  0  0  0
    2.8175   -0.6882   -4.9561 C   0  0  0  0  0  0  0  0  0  0  0  0
    2.7694    0.5705   -4.2106 N   0  0  0  0  0  0  0  0  0  0  0  0
    1.5649    1.2651   -4.1760 C   0  0  0  0  0  0  0  0  0  0  0  0
    0.5050    0.7349   -4.4653 O   0  0  0  0  0  0  0  0  0  0  0  0
    1.6636    2.6009   -3.7968 N   0  0  0  0  0  0  0  0  0  0  0  0
    0.5978    3.5034   -3.5804 C   0  0  0  0  0  0  0  0  0  0  0  0
   -0.7110    3.0708   -3.2941 C   0  0  0  0  0  0  0  0  0  0  0  0
   -1.7238    3.9903   -3.0512 C   0  0  0  0  0  0  0  0  0  0  0  0
   -1.4637    5.3681   -3.0840 C   0  0  0  0  0  0  0  0  0  0  0  0
   -2.5188    6.1925   -2.8324 O   0  0  0  0  0  0  0  0  0  0  0  0
   -2.3195    7.5841   -2.8426 C   0  0  0  0  0  0  0  0  0  0  0  0
   -0.1645    5.8030   -3.3709 C   0  0  0  0  0  0  0  0  0  0  0  0
    0.8711    4.8879   -3.6250 C   0  0  0  0  0  0  0  0  0  0  0  0
    2.2567    5.3975   -3.9455 C   0  0  0  0  0  0  0  0  0  0  0  0
    4.0502    1.0477   -3.7228 C   0  0  0  0  0  0  0  0  0  0  0  0
    4.1444   -0.3466    2.7161 H   0  0  0  0  0  0  0  0  0  0  0  0
    5.5773    0.3259    1.9052 H   0  0  0  0  0  0  0  0  0  0  0  0
    4.8483   -1.1990    1.3191 H   0  0  0  0  0  0  0  0  0  0  0  0
    3.4199    1.5348    1.2396 H   0  0  0  0  0  0  0  0  0  0  0  0
    2.7725   -0.0043    0.6442 H   0  0  0  0  0  0  0  0  0  0  0  0
    5.6610    1.9692   -1.6091 H   0  0  0  0  0  0  0  0  0  0  0  0
    5.9101    1.9730    0.1266 H   0  0  0  0  0  0  0  0  0  0  0  0
    3.5440    3.3930   -1.2623 H   0  0  0  0  0  0  0  0  0  0  0  0
    5.0650    4.1770   -0.7430 H   0  0  0  0  0  0  0  0  0  0  0  0
    3.9528    3.4966    0.4594 H   0  0  0  0  0  0  0  0  0  0  0  0
    5.8150    0.3535   -2.7258 H   0  0  0  0  0  0  0  0  0  0  0  0
    5.2785   -2.1256   -2.9590 H   0  0  0  0  0  0  0  0  0  0  0  0
    5.5497   -1.2217   -4.4609 H   0  0  0  0  0  0  0  0  0  0  0  0
    2.8413   -2.0702   -3.2975 H   0  0  0  0  0  0  0  0  0  0  0  0
    3.5998   -2.6890   -4.7828 H   0  0  0  0  0  0  0  0  0  0  0  0
    1.7869   -0.9498   -5.2213 H   0  0  0  0  0  0  0  0  0  0  0  0
    3.3808   -0.5201   -5.8984 H   0  0  0  0  0  0  0  0  0  0  0  0
    2.5728    3.0300   -3.8836 H   0  0  0  0  0  0  0  0  0  0  0  0
   -0.9249    2.0047   -3.2831 H   0  0  0  0  0  0  0  0  0  0  0  0
   -2.7398    3.6557   -2.8320 H   0  0  0  0  0  0  0  0  0  0  0  0
   -3.2886    8.0434   -2.6039 H   0  0  0  0  0  0  0  0  0  0  0  0
   -1.9879    7.9493   -3.8326 H   0  0  0  0  0  0  0  0  0  0  0  0
   -1.5791    7.9036   -2.0854 H   0  0  0  0  0  0  0  0  0  0  0  0
    0.0694    6.8675   -3.4107 H   0  0  0  0  0  0  0  0  0  0  0  0
    2.2750    6.4956   -3.9883 H   0  0  0  0  0  0  0  0  0  0  0  0
    2.6165    5.0267   -4.9219 H   0  0  0  0  0  0  0  0  0  0  0  0
    3.0020    5.0953   -3.1865 H   0  0  0  0  0  0  0  0  0  0  0  0
    3.9049    1.9577   -3.1312 H   0  0  0  0  0  0  0  0  0  0  0  0
    4.7147    1.3081   -4.5736 H   0  0  0  0  0  0  0  0  0  0  0  0
  1  2  1  0
  1 26  1  0
  1 27  1  0
  1 28  1  0
  2  3  1  0
  2 29  1  0
  2 30  1  0
  3  4  1  0
  3  6  1  0
  4  5  1  0
  4 31  1  0
  4 32  1  0
  5 33  1  0
  5 34  1  0
  5 35  1  0
  6  7  2  0
  6  8  1  0
  8  9  1  0
  8 25  1  0
  8 36  1  1
  9 10  1  0
  9 37  1  0
  9 38  1  0
 10 11  1  0
 10 39  1  0
 10 40  1  0
 11 12  1  0
 11 41  1  0
 11 42  1  0
 12 13  1  0
 12 25  1  0
 13 14  2  0
 13 15  1  0
 15 16  1  0
 15 43  1  0
 16 17  2  0
 16 23  1  0
 17 18  1  0
 17 44  1  0
 18 19  2  0
 18 45  1  0
 19 20  1  0
 19 22  1  0
 20 21  1  0
 21 46  1  0
 21 47  1  0
 21 48  1  0
 22 23  2  0
 22 49  1  0
 23 24  1  0
 24 50  1  0
 24 51  1  0
 24 52  1  0
 25 53  1  0
 25 54  1  0
M  END

