
     RDKit          3D

 74 78  0  0  0  0  0  0  0  0999 V2000
    5.7922    2.2239   -0.9139 C   0  0  0  0  0  0  0  0  0  0  0  0
    4.9525    1.1419   -1.2445 O   0  0  0  0  0  0  0  0  0  0  0  0
    4.3440    0.5037   -0.1492 C   0  0  1  0  0  0  0  0  0  0  0  0
    3.2618   -0.4427   -0.6580 C   0  0  0  0  0  0  0  0  0  0  0  0
    3.1653   -0.7690   -2.0159 C   0  0  0  0  0  0  0  0  0  0  0  0
    2.1745   -1.6460   -2.4662 C   0  0  0  0  0  0  0  0  0  0  0  0
    1.2850   -2.1925   -1.5452 C   0  0  0  0  0  0  0  0  0  0  0  0
    0.3316   -3.0335   -1.9727 F   0  0  0  0  0  0  0  0  0  0  0  0
    1.3593   -1.8846   -0.1876 C   0  0  0  0  0  0  0  0  0  0  0  0
    2.3528   -1.0073    0.2492 C   0  0  0  0  0  0  0  0  0  0  0  0
    5.3464   -0.2325    0.7075 C   0  0  0  0  0  0  0  0  0  0  0  0
    5.4902   -0.1708    1.9975 N   0  0  0  0  0  0  0  0  0  0  0  0
    6.4988   -1.0659    2.2847 C   0  0  0  0  0  0  0  0  0  0  0  0
    6.9420   -1.6441    1.1208 C   0  0  0  0  0  0  0  0  0  0  0  0
    7.9647   -2.6237    0.7805 C   0  0  0  0  0  0  0  0  0  0  0  0
    8.7688   -3.1957    1.7885 C   0  0  0  0  0  0  0  0  0  0  0  0
    9.7469   -4.1323    1.4708 C   0  0  0  0  0  0  0  0  0  0  0  0
    9.9299   -4.5074    0.1340 C   0  0  0  0  0  0  0  0  0  0  0  0
   11.1758   -5.7365   -0.2654 S   0  0  1  0  0  0  0  0  0  0  0  0
   11.5853   -5.5117   -1.6499 O   0  0  0  0  0  0  0  0  0  0  0  0
   12.1255   -5.7867    0.8445 O   0  0  0  0  0  0  0  0  0  0  0  0
   10.4027   -7.2430   -0.2027 N   0  0  0  0  0  0  0  0  0  0  0  0
    9.3602   -7.6605   -1.0671 C   0  0  0  0  0  0  0  0  0  0  0  0
    9.5058   -7.6068   -2.4631 C   0  0  0  0  0  0  0  0  0  0  0  0
    8.4703   -8.0513   -3.2854 C   0  0  0  0  0  0  0  0  0  0  0  0
    7.2820   -8.5841   -2.7598 C   0  0  0  0  0  0  0  0  0  0  0  0
    6.1927   -9.1167   -3.6618 C   0  0  0  0  0  0  0  0  0  0  0  0
    6.3678  -10.6016   -4.0145 C   0  0  0  0  0  0  0  0  0  0  0  0
    5.2719  -11.0736   -4.8399 N   0  0  0  0  0  0  0  0  0  0  0  0
    5.3302  -12.4742   -5.1964 C   0  0  0  0  0  0  0  0  0  0  0  0
    4.1867  -12.8024   -6.1681 C   0  0  1  0  0  0  0  0  0  0  0  0
    4.2772  -12.0046   -7.3406 O   0  0  0  0  0  0  0  0  0  0  0  0
    4.1288  -14.2623   -6.5108 C   0  0  0  0  0  0  0  0  0  0  0  0
    3.2770  -15.2864   -6.2175 C   0  0  0  0  0  0  0  0  0  0  0  0
    3.8479  -16.4148   -6.8931 C   0  0  0  0  0  0  0  0  0  0  0  0
    3.3471  -17.8241   -6.9366 C   0  0  0  0  0  0  0  0  0  0  0  0
    4.9435  -16.0771   -7.5344 N   0  0  0  0  0  0  0  0  0  0  0  0
    5.1266  -14.7240   -7.2904 O   0  0  0  0  0  0  0  0  0  0  0  0
    7.1598   -8.6461   -1.3631 C   0  0  0  0  0  0  0  0  0  0  0  0
    8.1733   -8.1795   -0.5255 C   0  0  0  0  0  0  0  0  0  0  0  0
    9.1549   -3.9437   -0.8842 C   0  0  0  0  0  0  0  0  0  0  0  0
    8.1737   -3.0091   -0.5583 C   0  0  0  0  0  0  0  0  0  0  0  0
    6.1921   -1.1030    0.1097 O   0  0  0  0  0  0  0  0  0  0  0  0
    6.1589    2.6503   -1.8581 H   0  0  0  0  0  0  0  0  0  0  0  0
    6.6629    1.9111   -0.3068 H   0  0  0  0  0  0  0  0  0  0  0  0
    5.2464    3.0086   -0.3551 H   0  0  0  0  0  0  0  0  0  0  0  0
    3.8811    1.2438    0.5327 H   0  0  0  0  0  0  0  0  0  0  0  0
    3.8679   -0.3234   -2.7202 H   0  0  0  0  0  0  0  0  0  0  0  0
    2.0816   -1.9098   -3.5217 H   0  0  0  0  0  0  0  0  0  0  0  0
    0.6419   -2.3295    0.5045 H   0  0  0  0  0  0  0  0  0  0  0  0
    2.4226   -0.7613    1.3126 H   0  0  0  0  0  0  0  0  0  0  0  0
    6.8459   -1.2343    3.3021 H   0  0  0  0  0  0  0  0  0  0  0  0
    8.6334   -2.8978    2.8303 H   0  0  0  0  0  0  0  0  0  0  0  0
   10.3854   -4.5610    2.2453 H   0  0  0  0  0  0  0  0  0  0  0  0
   10.3332   -7.5540    0.7635 H   0  0  0  0  0  0  0  0  0  0  0  0
   10.4299   -7.2158   -2.8881 H   0  0  0  0  0  0  0  0  0  0  0  0
    8.5978   -7.9929   -4.3704 H   0  0  0  0  0  0  0  0  0  0  0  0
    6.1685   -8.5313   -4.5979 H   0  0  0  0  0  0  0  0  0  0  0  0
    5.2052   -8.9935   -3.1890 H   0  0  0  0  0  0  0  0  0  0  0  0
    6.3863  -11.1935   -3.0816 H   0  0  0  0  0  0  0  0  0  0  0  0
    7.3677  -10.7508   -4.4840 H   0  0  0  0  0  0  0  0  0  0  0  0
    5.2044  -10.5254   -5.6980 H   0  0  0  0  0  0  0  0  0  0  0  0
    5.2257  -13.0952   -4.2887 H   0  0  0  0  0  0  0  0  0  0  0  0
    6.2916  -12.7798   -5.6734 H   0  0  0  0  0  0  0  0  0  0  0  0
    3.2400  -12.5215   -5.6824 H   0  0  0  0  0  0  0  0  0  0  0  0
    4.9933  -12.3644   -7.8850 H   0  0  0  0  0  0  0  0  0  0  0  0
    2.3709  -15.2497   -5.6182 H   0  0  0  0  0  0  0  0  0  0  0  0
    2.3340  -17.8682   -7.3674 H   0  0  0  0  0  0  0  0  0  0  0  0
    3.2952  -18.2550   -5.9239 H   0  0  0  0  0  0  0  0  0  0  0  0
    4.0175  -18.4425   -7.5486 H   0  0  0  0  0  0  0  0  0  0  0  0
    6.2457   -9.0508   -0.9189 H   0  0  0  0  0  0  0  0  0  0  0  0
    8.0449   -8.2171    0.5600 H   0  0  0  0  0  0  0  0  0  0  0  0
    9.3327   -4.2266   -1.9226 H   0  0  0  0  0  0  0  0  0  0  0  0
    7.5633   -2.5639   -1.3453 H   0  0  0  0  0  0  0  0  0  0  0  0
  1  2  1  0
  1 44  1  0
  1 45  1  0
  1 46  1  0
  2  3  1  0
  3  4  1  0
  3 11  1  0
  3 47  1  1
  4  5  2  0
  4 10  1  0
  5  6  1  0
  5 48  1  0
  6  7  2  0
  6 49  1  0
  7  8  1  0
  7  9  1  0
  9 10  2  0
  9 50  1  0
 10 51  1  0
 11 12  2  0
 11 43  1  0
 12 13  1  0
 13 14  2  0
 13 52  1  0
 14 15  1  0
 14 43  1  0
 15 16  2  0
 15 42  1  0
 16 17  1  0
 16 53  1  0
 17 18  2  0
 17 54  1  0
 18 19  1  0
 18 41  1  0
 19 20  2  0
 19 21  2  0
 19 22  1  6
 22 23  1  0
 22 55  1  0
 23 24  2  0
 23 40  1  0
 24 25  1  0
 24 56  1  0
 25 26  2  0
 25 57  1  0
 26 27  1  0
 26 39  1  0
 27 28  1  0
 27 58  1  0
 27 59  1  0
 28 29  1  0
 28 60  1  0
 28 61  1  0
 29 30  1  0
 29 62  1  0
 30 31  1  0
 30 63  1  0
 30 64  1  0
 31 32  1  0
 31 33  1  0
 31 65  1  1
 32 66  1  0
 33 34  2  0
 33 38  1  0
 34 35  1  0
 34 67  1  0
 35 36  1  0
 35 37  2  0
 36 68  1  0
 36 69  1  0
 36 70  1  0
 37 38  1  0
 39 40  2  0
 39 71  1  0
 40 72  1  0
 41 42  2  0
 41 73  1  0
 42 74  1  0
M  END

