
     RDKit          3D

 69 75  0  0  0  0  0  0  0  0999 V2000
    1.4504    0.3829    1.2856 C   0  0  0  0  0  0  0  0  0  0  0  0
    2.7251    0.2309    0.6074 N   0  0  0  0  0  0  0  0  0  0  0  0
    3.5927    1.2389    0.2393 C   0  0  0  0  0  0  0  0  0  0  0  0
    3.3394    2.6672    0.3383 C   0  0  0  0  0  0  0  0  0  0  0  0
    2.1695    3.3957    0.4835 C   0  0  0  0  0  0  0  0  0  0  0  0
    2.3827    4.7985    0.5005 C   0  0  0  0  0  0  0  0  0  0  0  0
    3.7168    5.1497    0.3684 C   0  0  0  0  0  0  0  0  0  0  0  0
    4.3846    6.4395    0.3033 C   0  0  0  0  0  0  0  0  0  0  0  0
    5.6209    6.5848   -0.1390 N   0  0  0  0  0  0  0  0  0  0  0  0
    5.9273    7.9142   -0.0578 C   0  0  0  0  0  0  0  0  0  0  0  0
    7.2431    8.4016   -0.5188 C   0  0  0  0  0  0  0  0  0  0  0  0
    7.4682    9.7306   -0.9249 C   0  0  0  0  0  0  0  0  0  0  0  0
    8.7296   10.1385   -1.3646 C   0  0  0  0  0  0  0  0  0  0  0  0
    9.7902    9.2290   -1.4148 C   0  0  0  0  0  0  0  0  0  0  0  0
    9.5742    7.9016   -1.0296 C   0  0  0  0  0  0  0  0  0  0  0  0
    8.3155    7.4910   -0.5902 C   0  0  0  0  0  0  0  0  0  0  0  0
    4.8361    8.6126    0.4687 C   0  0  0  0  0  0  0  0  0  0  0  0
    4.6449   10.0368    0.8110 C   0  0  0  0  0  0  0  0  0  0  0  0
    3.6025   10.7935    0.2404 C   0  0  0  0  0  0  0  0  0  0  0  0
    3.4304   12.1395    0.5723 C   0  0  0  0  0  0  0  0  0  0  0  0
    4.3002   12.7571    1.4762 C   0  0  0  0  0  0  0  0  0  0  0  0
    5.3416   12.0187    2.0478 C   0  0  0  0  0  0  0  0  0  0  0  0
    5.5106   10.6715    1.7227 C   0  0  0  0  0  0  0  0  0  0  0  0
    3.8537    7.6523    0.6924 N   0  0  0  0  0  0  0  0  0  0  0  0
    2.5842    7.8733    1.3614 C   0  0  0  0  0  0  0  0  0  0  0  0
    4.7199    3.7289    0.2088 S   0  0  0  0  0  0  0  0  0  0  0  0
    4.7280    0.7421   -0.2180 N   0  0  0  0  0  0  0  0  0  0  0  0
    4.6238   -0.6198   -0.1689 C   0  0  0  0  0  0  0  0  0  0  0  0
    5.7327   -1.4664   -0.6535 C   0  0  0  0  0  0  0  0  0  0  0  0
    7.0283   -0.9166   -0.7135 C   0  0  0  0  0  0  0  0  0  0  0  0
    8.1057   -1.6735   -1.1742 C   0  0  0  0  0  0  0  0  0  0  0  0
    7.9140   -2.9946   -1.5926 C   0  0  0  0  0  0  0  0  0  0  0  0
    6.6300   -3.5464   -1.5538 C   0  0  0  0  0  0  0  0  0  0  0  0
    5.5492   -2.7912   -1.0929 C   0  0  0  0  0  0  0  0  0  0  0  0
    3.3755   -0.9731    0.3530 C   0  0  0  0  0  0  0  0  0  0  0  0
    2.7687   -2.2831    0.6660 C   0  0  0  0  0  0  0  0  0  0  0  0
    3.4096   -3.1703    1.5523 C   0  0  0  0  0  0  0  0  0  0  0  0
    2.8470   -4.4130    1.8493 C   0  0  0  0  0  0  0  0  0  0  0  0
    1.6293   -4.7916    1.2745 C   0  0  0  0  0  0  0  0  0  0  0  0
    0.9794   -3.9197    0.3957 C   0  0  0  0  0  0  0  0  0  0  0  0
    1.5446   -2.6789    0.0918 C   0  0  0  0  0  0  0  0  0  0  0  0
    1.5151    1.1951    2.0225 H   0  0  0  0  0  0  0  0  0  0  0  0
    1.2053   -0.5493    1.8085 H   0  0  0  0  0  0  0  0  0  0  0  0
    0.6347    0.6088    0.5795 H   0  0  0  0  0  0  0  0  0  0  0  0
    1.1754    2.9555    0.5368 H   0  0  0  0  0  0  0  0  0  0  0  0
    1.5640    5.5125    0.5681 H   0  0  0  0  0  0  0  0  0  0  0  0
    6.6484   10.4499   -0.9158 H   0  0  0  0  0  0  0  0  0  0  0  0
    8.8812   11.1745   -1.6793 H   0  0  0  0  0  0  0  0  0  0  0  0
   10.7764    9.5505   -1.7599 H   0  0  0  0  0  0  0  0  0  0  0  0
   10.3933    7.1787   -1.0737 H   0  0  0  0  0  0  0  0  0  0  0  0
    8.1369    6.4545   -0.2998 H   0  0  0  0  0  0  0  0  0  0  0  0
    2.9331   10.3244   -0.4851 H   0  0  0  0  0  0  0  0  0  0  0  0
    2.6186   12.7110    0.1149 H   0  0  0  0  0  0  0  0  0  0  0  0
    4.1680   13.8111    1.7331 H   0  0  0  0  0  0  0  0  0  0  0  0
    6.0248   12.4936    2.7565 H   0  0  0  0  0  0  0  0  0  0  0  0
    6.3217   10.0962    2.1742 H   0  0  0  0  0  0  0  0  0  0  0  0
    2.6201    8.8282    1.8992 H   0  0  0  0  0  0  0  0  0  0  0  0
    2.3985    7.0672    2.0844 H   0  0  0  0  0  0  0  0  0  0  0  0
    1.7454    7.9092    0.6471 H   0  0  0  0  0  0  0  0  0  0  0  0
    7.1685    0.1182   -0.3971 H   0  0  0  0  0  0  0  0  0  0  0  0
    9.1034   -1.2277   -1.2090 H   0  0  0  0  0  0  0  0  0  0  0  0
    8.7582   -3.5874   -1.9543 H   0  0  0  0  0  0  0  0  0  0  0  0
    6.4641   -4.5720   -1.8943 H   0  0  0  0  0  0  0  0  0  0  0  0
    4.5518   -3.2324   -1.0933 H   0  0  0  0  0  0  0  0  0  0  0  0
    4.3581   -2.8753    2.0064 H   0  0  0  0  0  0  0  0  0  0  0  0
    3.3606   -5.0882    2.5385 H   0  0  0  0  0  0  0  0  0  0  0  0
    1.1891   -5.7640    1.5095 H   0  0  0  0  0  0  0  0  0  0  0  0
    0.0313   -4.2106   -0.0641 H   0  0  0  0  0  0  0  0  0  0  0  0
    1.0424   -2.0131   -0.6146 H   0  0  0  0  0  0  0  0  0  0  0  0
  1  2  1  0
  1 42  1  0
  1 43  1  0
  1 44  1  0
  2  3  1  0
  2 35  1  0
  3  4  1  0
  3 27  2  0
  4  5  2  0
  4 26  1  0
  5  6  1  0
  5 45  1  0
  6  7  2  0
  6 46  1  0
  7  8  1  0
  7 26  1  0
  8  9  2  0
  8 24  1  0
  9 10  1  0
 10 11  1  0
 10 17  2  0
 11 12  2  0
 11 16  1  0
 12 13  1  0
 12 47  1  0
 13 14  2  0
 13 48  1  0
 14 15  1  0
 14 49  1  0
 15 16  2  0
 15 50  1  0
 16 51  1  0
 17 18  1  0
 17 24  1  0
 18 19  2  0
 18 23  1  0
 19 20  1  0
 19 52  1  0
 20 21  2  0
 20 53  1  0
 21 22  1  0
 21 54  1  0
 22 23  2  0
 22 55  1  0
 23 56  1  0
 24 25  1  0
 25 57  1  0
 25 58  1  0
 25 59  1  0
 27 28  1  0
 28 29  1  0
 28 35  2  0
 29 30  2  0
 29 34  1  0
 30 31  1  0
 30 60  1  0
 31 32  2  0
 31 61  1  0
 32 33  1  0
 32 62  1  0
 33 34  2  0
 33 63  1  0
 34 64  1  0
 35 36  1  0
 36 37  2  0
 36 41  1  0
 37 38  1  0
 37 65  1  0
 38 39  2  0
 38 66  1  0
 39 40  1  0
 39 67  1  0
 40 41  2  0
 40 68  1  0
 41 69  1  0
M  END

