
     RDKit          3D

 32 34  0  0  0  0  0  0  0  0999 V2000
    0.9957   -0.0923   -0.4964 C   0  0  0  0  0  0  0  0  0  0  0  0
    2.4642    0.0483   -0.2028 C   0  0  0  0  0  0  0  0  0  0  0  0
    3.0793    1.2677   -0.0351 C   0  0  0  0  0  0  0  0  0  0  0  0
    4.4802    1.3429    0.2410 C   0  0  0  0  0  0  0  0  0  0  0  0
    5.1799    2.5446    0.4227 C   0  0  0  0  0  0  0  0  0  0  0  0
    6.5592    2.5502    0.6914 C   0  0  0  0  0  0  0  0  0  0  0  0
    7.2976    3.7575    0.8835 C   0  0  0  0  0  0  0  0  0  0  0  0
    8.6504    3.7703    1.1482 C   0  0  0  0  0  0  0  0  0  0  0  0
    9.3652    5.0856    1.3423 C   0  0  0  0  0  0  0  0  0  0  0  0
    9.3653    2.5159    1.2361 C   0  0  0  0  0  0  0  0  0  0  0  0
   10.8508    2.4620    1.5245 C   0  0  0  0  0  0  0  0  0  0  0  0
    8.6736    1.3384    1.0546 C   0  0  0  0  0  0  0  0  0  0  0  0
    7.2733    1.2992    0.7814 C   0  0  0  0  0  0  0  0  0  0  0  0
    6.5709    0.0968    0.5984 C   0  0  0  0  0  0  0  0  0  0  0  0
    5.1962    0.0981    0.3324 C   0  0  0  0  0  0  0  0  0  0  0  0
    4.4376   -1.1045    0.1394 C   0  0  0  0  0  0  0  0  0  0  0  0
    3.1583   -1.1387   -0.1122 N   0  0  0  0  0  0  0  0  0  0  0  0
    0.4907    0.8821   -0.5617 H   0  0  0  0  0  0  0  0  0  0  0  0
    0.5068   -0.6942    0.2872 H   0  0  0  0  0  0  0  0  0  0  0  0
    0.8478   -0.6337   -1.4453 H   0  0  0  0  0  0  0  0  0  0  0  0
    2.5009    2.1922   -0.1106 H   0  0  0  0  0  0  0  0  0  0  0  0
    4.6435    3.4952    0.3547 H   0  0  0  0  0  0  0  0  0  0  0  0
    6.7559    4.7054    0.8171 H   0  0  0  0  0  0  0  0  0  0  0  0
    8.6654    5.9292    1.2577 H   0  0  0  0  0  0  0  0  0  0  0  0
   10.1593    5.2344    0.5909 H   0  0  0  0  0  0  0  0  0  0  0  0
    9.8465    5.1489    2.3325 H   0  0  0  0  0  0  0  0  0  0  0  0
   11.3091    3.4549    1.6097 H   0  0  0  0  0  0  0  0  0  0  0  0
   11.3872    1.9193    0.7290 H   0  0  0  0  0  0  0  0  0  0  0  0
   11.0505    1.9264    2.4675 H   0  0  0  0  0  0  0  0  0  0  0  0
    9.2096    0.3862    1.1203 H   0  0  0  0  0  0  0  0  0  0  0  0
    7.1052   -0.8556    0.6648 H   0  0  0  0  0  0  0  0  0  0  0  0
    4.9617   -2.0686    0.2073 H   0  0  0  0  0  0  0  0  0  0  0  0
  1  2  1  0
  1 18  1  0
  1 19  1  0
  1 20  1  0
  2  3  2  0
  2 17  1  0
  3  4  1  0
  3 21  1  0
  4  5  2  0
  4 15  1  0
  5  6  1  0
  5 22  1  0
  6  7  2  0
  6 13  1  0
  7  8  1  0
  7 23  1  0
  8  9  1  0
  8 10  2  0
  9 24  1  0
  9 25  1  0
  9 26  1  0
 10 11  1  0
 10 12  1  0
 11 27  1  0
 11 28  1  0
 11 29  1  0
 12 13  2  0
 12 30  1  0
 13 14  1  0
 14 15  2  0
 14 31  1  0
 15 16  1  0
 16 17  2  0
 16 32  1  0
M  END

