
     RDKit          3D

 40 42  0  0  0  0  0  0  0  0999 V2000
    3.9958   -1.8818    1.9499 C   0  0  0  0  0  0  0  0  0  0  0  0
    3.8031   -0.7430    1.0666 N   0  0  0  0  0  0  0  0  0  0  0  0
    3.8944    0.5997    1.3943 C   0  0  0  0  0  0  0  0  0  0  0  0
    4.3646    1.1424    2.9563 Cl  0  0  0  0  0  0  0  0  0  0  0  0
    3.5613    1.3111    0.2663 C   0  0  0  0  0  0  0  0  0  0  0  0
    3.2718    0.4277   -0.7398 N   0  0  0  0  0  0  0  0  0  0  0  0
    3.4281   -0.7902   -0.2487 C   0  0  0  0  0  0  0  0  0  0  0  0
    3.1260   -2.0507   -1.0095 C   0  0  0  0  0  0  0  0  0  0  0  0
    1.7137   -2.3812   -0.9065 N   0  0  0  0  0  0  0  0  0  0  0  0
    0.7316   -1.4476   -1.5230 C   0  0  1  0  0  0  0  0  0  0  0  0
    1.1296   -1.0506   -2.9769 C   0  0  0  0  0  0  0  0  0  0  0  0
    0.6884   -1.6208   -3.9475 O   0  0  0  0  0  0  0  0  0  0  0  0
    2.0196   -0.0682   -3.1076 O   0  0  0  0  0  0  0  0  0  0  0  0
   -0.6001   -2.2448   -1.5169 C   0  0  0  0  0  0  0  0  0  0  0  0
   -0.2256   -3.6337   -0.9727 C   0  0  1  0  0  0  0  0  0  0  0  0
   -0.9704   -4.8710   -1.4668 C   0  0  0  0  0  0  0  0  0  0  0  0
   -0.3550   -6.1236   -0.8154 C   0  0  0  0  0  0  0  0  0  0  0  0
    1.1714   -6.2005   -0.9983 C   0  0  0  0  0  0  0  0  0  0  0  0
    1.9002   -4.9158   -0.5544 C   0  0  0  0  0  0  0  0  0  0  0  0
    1.2737   -3.7275   -1.2779 C   0  0  2  0  0  0  0  0  0  0  0  0
    4.0865   -1.5185    2.9805 H   0  0  0  0  0  0  0  0  0  0  0  0
    4.9112   -2.4354    1.6897 H   0  0  0  0  0  0  0  0  0  0  0  0
    3.1291   -2.5536    1.8780 H   0  0  0  0  0  0  0  0  0  0  0  0
    3.5217    2.3904    0.1404 H   0  0  0  0  0  0  0  0  0  0  0  0
    3.7043   -2.8840   -0.5852 H   0  0  0  0  0  0  0  0  0  0  0  0
    3.4869   -1.9153   -2.0501 H   0  0  0  0  0  0  0  0  0  0  0  0
    0.6757   -0.5295   -0.9169 H   0  0  0  0  0  0  0  0  0  0  0  0
    2.3985    0.2681   -2.2469 H   0  0  0  0  0  0  0  0  0  0  0  0
   -0.9744   -2.3175   -2.5469 H   0  0  0  0  0  0  0  0  0  0  0  0
   -1.3653   -1.7495   -0.9017 H   0  0  0  0  0  0  0  0  0  0  0  0
   -0.3065   -3.6054    0.1296 H   0  0  0  0  0  0  0  0  0  0  0  0
   -0.8943   -4.9364   -2.5672 H   0  0  0  0  0  0  0  0  0  0  0  0
   -2.0457   -4.8070   -1.2281 H   0  0  0  0  0  0  0  0  0  0  0  0
   -0.8228   -7.0366   -1.2201 H   0  0  0  0  0  0  0  0  0  0  0  0
   -0.5870   -6.1115    0.2654 H   0  0  0  0  0  0  0  0  0  0  0  0
    1.3975   -6.3812   -2.0646 H   0  0  0  0  0  0  0  0  0  0  0  0
    1.5727   -7.0677   -0.4483 H   0  0  0  0  0  0  0  0  0  0  0  0
    2.9775   -5.0119   -0.7747 H   0  0  0  0  0  0  0  0  0  0  0  0
    1.8007   -4.7753    0.5377 H   0  0  0  0  0  0  0  0  0  0  0  0
    1.4016   -3.8947   -2.3717 H   0  0  0  0  0  0  0  0  0  0  0  0
  1  2  1  0
  1 21  1  0
  1 22  1  0
  1 23  1  0
  2  3  1  0
  2  7  1  0
  3  4  1  0
  3  5  2  0
  5  6  1  0
  5 24  1  0
  6  7  2  0
  7  8  1  0
  8  9  1  0
  8 25  1  0
  8 26  1  0
  9 10  1  0
  9 20  1  0
 10 11  1  0
 10 14  1  0
 10 27  1  1
 11 12  2  0
 11 13  1  0
 13 28  1  0
 14 15  1  0
 14 29  1  0
 14 30  1  0
 15 16  1  0
 15 20  1  0
 15 31  1  1
 16 17  1  0
 16 32  1  0
 16 33  1  0
 17 18  1  0
 17 34  1  0
 17 35  1  0
 18 19  1  0
 18 36  1  0
 18 37  1  0
 19 20  1  0
 19 38  1  0
 19 39  1  0
 20 40  1  6
M  END

