
     RDKit          3D

 27 27  0  0  0  0  0  0  0  0999 V2000
    0.8363   -1.8826   -0.2358 C   0  0  0  0  0  0  0  0  0  0  0  0
    2.3589   -2.0063   -0.3024 C   0  0  0  0  0  0  0  0  0  0  0  0
    3.0326   -0.8225   -1.0213 C   0  0  0  0  0  0  0  0  0  0  0  0
    4.5461   -0.9134   -1.0762 C   0  0  0  0  0  0  0  0  0  0  0  0
    5.2885   -0.2275   -0.0998 C   0  0  0  0  0  0  0  0  0  0  0  0
    6.6794   -0.2923   -0.0682 C   0  0  0  0  0  0  0  0  0  0  0  0
    7.3520   -1.0528   -1.0252 C   0  0  0  0  0  0  0  0  0  0  0  0
    6.6462   -1.7496   -2.0142 C   0  0  0  0  0  0  0  0  0  0  0  0
    7.3998   -2.5632   -3.0393 C   0  0  0  0  0  0  0  0  0  0  0  0
    5.2306   -1.6853   -2.0438 C   0  0  0  0  0  0  0  0  0  0  0  0
    4.4982   -2.4516   -3.1230 C   0  0  0  0  0  0  0  0  0  0  0  0
    0.3843   -2.7390    0.2898 H   0  0  0  0  0  0  0  0  0  0  0  0
    0.3915   -1.8392   -1.2445 H   0  0  0  0  0  0  0  0  0  0  0  0
    0.5307   -0.9663    0.2968 H   0  0  0  0  0  0  0  0  0  0  0  0
    2.6348   -2.9477   -0.8087 H   0  0  0  0  0  0  0  0  0  0  0  0
    2.7746   -2.0841    0.7173 H   0  0  0  0  0  0  0  0  0  0  0  0
    2.7551    0.1081   -0.4980 H   0  0  0  0  0  0  0  0  0  0  0  0
    2.6098   -0.7292   -2.0359 H   0  0  0  0  0  0  0  0  0  0  0  0
    4.7570    0.3718    0.6453 H   0  0  0  0  0  0  0  0  0  0  0  0
    7.2396    0.2506    0.6976 H   0  0  0  0  0  0  0  0  0  0  0  0
    8.4443   -1.1081   -1.0089 H   0  0  0  0  0  0  0  0  0  0  0  0
    8.4844   -2.5174   -2.8639 H   0  0  0  0  0  0  0  0  0  0  0  0
    7.2118   -2.2054   -4.0662 H   0  0  0  0  0  0  0  0  0  0  0  0
    7.1017   -3.6254   -3.0210 H   0  0  0  0  0  0  0  0  0  0  0  0
    4.6799   -3.5368   -3.0372 H   0  0  0  0  0  0  0  0  0  0  0  0
    4.8454   -2.1598   -4.1285 H   0  0  0  0  0  0  0  0  0  0  0  0
    3.4128   -2.2998   -3.0943 H   0  0  0  0  0  0  0  0  0  0  0  0
  1  2  1  0
  1 12  1  0
  1 13  1  0
  1 14  1  0
  2  3  1  0
  2 15  1  0
  2 16  1  0
  3  4  1  0
  3 17  1  0
  3 18  1  0
  4  5  2  0
  4 10  1  0
  5  6  1  0
  5 19  1  0
  6  7  2  0
  6 20  1  0
  7  8  1  0
  7 21  1  0
  8  9  1  0
  8 10  2  0
  9 22  1  0
  9 23  1  0
  9 24  1  0
 10 11  1  0
 11 25  1  0
 11 26  1  0
 11 27  1  0
M  END

