
     RDKit          3D

 51 53  0  0  0  0  0  0  0  0999 V2000
    8.5207   10.6325   -3.0458 C   0  0  0  0  0  0  0  0  0  0  0  0
    8.1681    9.1595   -3.1632 C   0  0  0  0  0  0  0  0  0  0  0  0
    7.9706    8.6536   -4.2524 O   0  0  0  0  0  0  0  0  0  0  0  0
    8.0684    8.3420   -1.9106 C   0  0  0  0  0  0  0  0  0  0  0  0
    8.2849    8.8640   -0.6246 C   0  0  0  0  0  0  0  0  0  0  0  0
    8.1815    8.0671    0.5150 C   0  0  0  0  0  0  0  0  0  0  0  0
    7.8520    6.7053    0.3814 C   0  0  0  0  0  0  0  0  0  0  0  0
    7.7268    5.8393    1.4713 N   0  0  0  0  0  0  0  0  0  0  0  0
    7.8878    6.0850    2.8014 C   0  0  0  0  0  0  0  0  0  0  0  0
    8.1863    7.1536    3.3098 O   0  0  0  0  0  0  0  0  0  0  0  0
    7.6405    4.7711    3.5909 C   0  0  0  0  0  0  0  0  0  0  0  0
    7.4143    3.7389    2.9568 O   0  0  0  0  0  0  0  0  0  0  0  0
    7.6795    4.8016    4.9369 N   0  0  0  0  0  0  0  0  0  0  0  0
    7.4373    3.5573    5.6781 C   0  0  0  0  0  0  0  0  0  0  0  0
    7.7054    3.9526    7.1453 C   0  0  2  0  0  0  0  0  0  0  0  0
    6.9885    3.0213    8.1242 C   0  0  0  0  0  0  0  0  0  0  0  0
    7.1551    5.3943    7.1250 C   0  0  0  0  0  0  0  0  0  0  0  0
    7.8443    5.9465    5.8724 C   0  0  1  0  0  0  0  0  0  0  0  0
    9.3313    6.2443    6.1424 C   0  0  0  0  0  0  0  0  0  0  0  0
   10.0177    5.3141    7.1963 C   0  0  1  0  0  0  0  0  0  0  0  0
   11.4469    4.9871    6.7223 C   0  0  0  0  0  0  0  0  0  0  0  0
   10.1373    6.0610    8.5452 C   0  0  0  0  0  0  0  0  0  0  0  0
    9.2448    3.9675    7.4152 C   0  0  0  0  0  0  0  0  0  0  0  0
    7.6329    6.1719   -0.9062 C   0  0  0  0  0  0  0  0  0  0  0  0
    7.7403    6.9787   -2.0293 C   0  0  0  0  0  0  0  0  0  0  0  0
    8.5479   11.0687   -4.0523 H   0  0  0  0  0  0  0  0  0  0  0  0
    9.5017   10.7677   -2.5621 H   0  0  0  0  0  0  0  0  0  0  0  0
    7.7783   11.1703   -2.4341 H   0  0  0  0  0  0  0  0  0  0  0  0
    8.5416    9.9172   -0.4941 H   0  0  0  0  0  0  0  0  0  0  0  0
    8.3519    8.4805    1.5064 H   0  0  0  0  0  0  0  0  0  0  0  0
    7.4971    4.8594    1.2923 H   0  0  0  0  0  0  0  0  0  0  0  0
    8.0855    2.7495    5.3067 H   0  0  0  0  0  0  0  0  0  0  0  0
    6.3935    3.2284    5.5275 H   0  0  0  0  0  0  0  0  0  0  0  0
    5.9062    2.9774    7.9198 H   0  0  0  0  0  0  0  0  0  0  0  0
    7.1234    3.3638    9.1626 H   0  0  0  0  0  0  0  0  0  0  0  0
    7.3851    1.9943    8.0597 H   0  0  0  0  0  0  0  0  0  0  0  0
    7.3812    5.9748    8.0290 H   0  0  0  0  0  0  0  0  0  0  0  0
    6.0598    5.3835    6.9979 H   0  0  0  0  0  0  0  0  0  0  0  0
    7.3603    6.8329    5.4516 H   0  0  0  0  0  0  0  0  0  0  0  0
    9.4148    7.2916    6.4760 H   0  0  0  0  0  0  0  0  0  0  0  0
    9.8592    6.2031    5.1791 H   0  0  0  0  0  0  0  0  0  0  0  0
   12.0426    5.9063    6.5963 H   0  0  0  0  0  0  0  0  0  0  0  0
   11.4344    4.4599    5.7547 H   0  0  0  0  0  0  0  0  0  0  0  0
   11.9717    4.3455    7.4499 H   0  0  0  0  0  0  0  0  0  0  0  0
   10.7084    6.9960    8.4250 H   0  0  0  0  0  0  0  0  0  0  0  0
   10.6634    5.4415    9.2903 H   0  0  0  0  0  0  0  0  0  0  0  0
    9.1581    6.3267    8.9718 H   0  0  0  0  0  0  0  0  0  0  0  0
    9.4242    3.6499    8.4553 H   0  0  0  0  0  0  0  0  0  0  0  0
    9.7019    3.1821    6.7913 H   0  0  0  0  0  0  0  0  0  0  0  0
    7.3768    5.1139   -1.0127 H   0  0  0  0  0  0  0  0  0  0  0  0
    7.5728    6.5753   -3.0298 H   0  0  0  0  0  0  0  0  0  0  0  0
  1  2  1  0
  1 26  1  0
  1 27  1  0
  1 28  1  0
  2  3  2  0
  2  4  1  0
  4  5  2  0
  4 25  1  0
  5  6  1  0
  5 29  1  0
  6  7  2  0
  6 30  1  0
  7  8  1  0
  7 24  1  0
  8  9  1  0
  8 31  1  0
  9 10  2  0
  9 11  1  0
 11 12  2  0
 11 13  1  0
 13 14  1  0
 13 18  1  0
 14 15  1  0
 14 32  1  0
 14 33  1  0
 15 16  1  1
 15 17  1  0
 15 23  1  0
 16 34  1  0
 16 35  1  0
 16 36  1  0
 17 18  1  0
 17 37  1  0
 17 38  1  0
 18 19  1  0
 18 39  1  6
 19 20  1  0
 19 40  1  0
 19 41  1  0
 20 21  1  6
 20 22  1  0
 20 23  1  0
 21 42  1  0
 21 43  1  0
 21 44  1  0
 22 45  1  0
 22 46  1  0
 22 47  1  0
 23 48  1  0
 23 49  1  0
 24 25  2  0
 24 50  1  0
 25 51  1  0
M  END

