
     RDKit          3D

 32 33  0  0  0  0  0  0  0  0999 V2000
    2.3646   -0.1523   -1.2881 O   0  0  0  0  0  0  0  0  0  0  0  0
    2.0305   -0.2023   -0.0104 C   0  0  0  0  0  0  0  0  0  0  0  0
    1.1422   -0.9045    0.4108 O   0  0  0  0  0  0  0  0  0  0  0  0
    2.8297    0.7469    0.9290 C   0  0  1  0  0  0  0  0  0  0  0  0
    2.6639    1.7726    0.5467 H   0  0  0  0  0  0  0  0  0  0  0  0
    2.3090    0.6392    2.3700 C   0  0  0  0  0  0  0  0  0  0  0  0
    3.0349    1.5302    3.3544 C   0  0  0  0  0  0  0  0  0  0  0  0
    2.8778    2.9271    3.3187 C   0  0  0  0  0  0  0  0  0  0  0  0
    3.5646    3.7511    4.2123 C   0  0  0  0  0  0  0  0  0  0  0  0
    4.4265    3.1945    5.1646 C   0  0  0  0  0  0  0  0  0  0  0  0
    4.5895    1.8087    5.2173 C   0  0  0  0  0  0  0  0  0  0  0  0
    3.8977    0.9863    4.3199 C   0  0  0  0  0  0  0  0  0  0  0  0
    4.2719    0.4859    0.8910 N   0  0  0  0  0  0  0  0  0  0  0  0
    5.0526    0.9118   -0.1351 C   0  0  0  0  0  0  0  0  0  0  0  0
    4.5816    1.2718   -1.2901 N   0  0  0  0  0  0  0  0  0  0  0  0
    3.1564    0.4648   -1.4498 H   0  0  0  0  0  0  0  0  0  0  0  0
    5.7262    1.5818   -2.1461 C   0  0  0  0  0  0  0  0  0  0  0  0
    6.9380    1.6709   -1.1799 C   0  0  0  0  0  0  0  0  0  0  0  0
    6.4331    0.9285   -0.0186 N   0  0  0  0  0  0  0  0  0  0  0  0
    2.3675   -0.4143    2.6838 H   0  0  0  0  0  0  0  0  0  0  0  0
    1.2360    0.8783    2.3436 H   0  0  0  0  0  0  0  0  0  0  0  0
    2.2014    3.3743    2.5841 H   0  0  0  0  0  0  0  0  0  0  0  0
    3.4229    4.8343    4.1703 H   0  0  0  0  0  0  0  0  0  0  0  0
    4.9610    3.8395    5.8666 H   0  0  0  0  0  0  0  0  0  0  0  0
    5.2504    1.3616    5.9647 H   0  0  0  0  0  0  0  0  0  0  0  0
    4.0147   -0.1002    4.3834 H   0  0  0  0  0  0  0  0  0  0  0  0
    4.7224    0.2860    1.7755 H   0  0  0  0  0  0  0  0  0  0  0  0
    5.5723    2.5153   -2.7105 H   0  0  0  0  0  0  0  0  0  0  0  0
    5.8725    0.7756   -2.8889 H   0  0  0  0  0  0  0  0  0  0  0  0
    7.1664    2.7205   -0.9152 H   0  0  0  0  0  0  0  0  0  0  0  0
    7.8518    1.2146   -1.5899 H   0  0  0  0  0  0  0  0  0  0  0  0
    6.8362    1.1276    0.8918 H   0  0  0  0  0  0  0  0  0  0  0  0
  1  2  1  0
  1 16  1  0
  2  3  2  0
  2  4  1  0
  4  5  1  6
  4  6  1  0
  4 13  1  0
  6  7  1  0
  6 20  1  0
  6 21  1  0
  7  8  2  0
  7 12  1  0
  8  9  1  0
  8 22  1  0
  9 10  2  0
  9 23  1  0
 10 11  1  0
 10 24  1  0
 11 12  2  0
 11 25  1  0
 12 26  1  0
 13 14  1  0
 13 27  1  0
 14 15  2  0
 14 19  1  0
 15 17  1  0
 17 18  1  0
 17 28  1  0
 17 29  1  0
 18 19  1  0
 18 30  1  0
 18 31  1  0
 19 32  1  0
M  END

