
     RDKit          3D

 41 42  0  0  0  0  0  0  0  0999 V2000
    4.3144   -0.0783    1.2878 C   0  0  0  0  0  0  0  0  0  0  0  0
    3.6715   -1.1005    0.3474 C   0  0  0  0  0  0  0  0  0  0  0  0
    4.4350   -1.3866   -0.8751 N   0  0  0  0  0  0  0  0  0  0  0  0
    5.3678   -2.5205   -0.8672 C   0  0  0  0  0  0  0  0  0  0  0  0
    6.8025   -2.1637   -0.4677 C   0  0  0  0  0  0  0  0  0  0  0  0
    4.2966   -0.4788   -1.8896 C   0  0  0  0  0  0  0  0  0  0  0  0
    3.6150    0.5335   -1.7589 O   0  0  0  0  0  0  0  0  0  0  0  0
    4.9818   -0.6803   -3.2362 C   0  0  0  0  0  0  0  0  0  0  0  0
    5.3195    0.4840   -3.9435 C   0  0  0  0  0  0  0  0  0  0  0  0
    5.8911    0.3716   -5.2134 C   0  0  0  0  0  0  0  0  0  0  0  0
    6.2595    1.6460   -5.9401 C   0  0  0  0  0  0  0  0  0  0  0  0
    5.7529    2.7140   -5.6386 O   0  0  0  0  0  0  0  0  0  0  0  0
    7.1972    1.5171   -6.9254 N   0  0  0  0  0  0  0  0  0  0  0  0
    7.6160    2.6403   -7.7540 C   0  0  0  0  0  0  0  0  0  0  0  0
    7.3983    2.4033   -9.2114 C   0  0  0  0  0  0  0  0  0  0  0  0
    6.5647    2.9513  -10.1466 C   0  0  0  0  0  0  0  0  0  0  0  0
    6.8328    2.2676  -11.3803 C   0  0  0  0  0  0  0  0  0  0  0  0
    7.8052    1.3526  -11.0996 C   0  0  0  0  0  0  0  0  0  0  0  0
    8.1576    1.4263   -9.7891 O   0  0  0  0  0  0  0  0  0  0  0  0
    6.0449   -0.9136   -5.7523 C   0  0  0  0  0  0  0  0  0  0  0  0
    5.6493   -2.0116   -4.9854 C   0  0  0  0  0  0  0  0  0  0  0  0
    5.1471   -1.9035   -3.7548 N   0  0  0  0  0  0  0  0  0  0  0  0
    3.6631    0.0886    2.1613 H   0  0  0  0  0  0  0  0  0  0  0  0
    4.4429    0.8842    0.7722 H   0  0  0  0  0  0  0  0  0  0  0  0
    5.2946   -0.4153    1.6595 H   0  0  0  0  0  0  0  0  0  0  0  0
    2.6843   -0.7267    0.0400 H   0  0  0  0  0  0  0  0  0  0  0  0
    3.5212   -2.0596    0.8678 H   0  0  0  0  0  0  0  0  0  0  0  0
    5.3601   -2.9793   -1.8618 H   0  0  0  0  0  0  0  0  0  0  0  0
    4.9597   -3.2638   -0.1641 H   0  0  0  0  0  0  0  0  0  0  0  0
    7.2367   -1.4293   -1.1649 H   0  0  0  0  0  0  0  0  0  0  0  0
    7.4359   -3.0656   -0.4940 H   0  0  0  0  0  0  0  0  0  0  0  0
    6.8600   -1.7409    0.5471 H   0  0  0  0  0  0  0  0  0  0  0  0
    5.1255    1.4663   -3.5139 H   0  0  0  0  0  0  0  0  0  0  0  0
    7.6313    0.6187   -7.0940 H   0  0  0  0  0  0  0  0  0  0  0  0
    8.6823    2.8641   -7.5675 H   0  0  0  0  0  0  0  0  0  0  0  0
    7.0297    3.5087   -7.4275 H   0  0  0  0  0  0  0  0  0  0  0  0
    5.8433    3.7473   -9.9739 H   0  0  0  0  0  0  0  0  0  0  0  0
    6.3620    2.4374  -12.3464 H   0  0  0  0  0  0  0  0  0  0  0  0
    8.3311    0.6125  -11.6974 H   0  0  0  0  0  0  0  0  0  0  0  0
    6.4337   -1.0767   -6.7602 H   0  0  0  0  0  0  0  0  0  0  0  0
    5.7419   -3.0265   -5.3890 H   0  0  0  0  0  0  0  0  0  0  0  0
  1  2  1  0
  1 23  1  0
  1 24  1  0
  1 25  1  0
  2  3  1  0
  2 26  1  0
  2 27  1  0
  3  4  1  0
  3  6  1  0
  4  5  1  0
  4 28  1  0
  4 29  1  0
  5 30  1  0
  5 31  1  0
  5 32  1  0
  6  7  2  0
  6  8  1  0
  8  9  2  0
  8 22  1  0
  9 10  1  0
  9 33  1  0
 10 11  1  0
 10 20  2  0
 11 12  2  0
 11 13  1  0
 13 14  1  0
 13 34  1  0
 14 15  1  0
 14 35  1  0
 14 36  1  0
 15 16  2  0
 15 19  1  0
 16 17  1  0
 16 37  1  0
 17 18  2  0
 17 38  1  0
 18 19  1  0
 18 39  1  0
 20 21  1  0
 20 40  1  0
 21 22  2  0
 21 41  1  0
M  END

