
     RDKit          3D

 32 32  0  0  0  0  0  0  0  0999 V2000
    3.3124    1.2203    0.1886 C   0  0  0  0  0  0  0  0  0  0  0  0
    2.6231   -0.1227   -0.0664 C   0  0  0  0  0  0  0  0  0  0  0  0
    2.9147   -1.2660    0.9416 C   0  0  1  0  0  0  0  0  0  0  0  0
    2.5860   -0.8389    2.3967 C   0  0  0  0  0  0  0  0  0  0  0  0
    1.1505   -0.3791    2.6716 C   0  0  0  0  0  0  0  0  0  0  0  0
    2.0873   -2.5109    0.5168 C   0  0  0  0  0  0  0  0  0  0  0  0
    2.4410   -3.0110   -0.7545 O   0  0  0  0  0  0  0  0  0  0  0  0
    4.3636   -1.5426    0.8086 N   0  0  0  0  0  0  0  0  0  0  0  0
    5.1476   -2.5860    1.2087 C   0  0  0  0  0  0  0  0  0  0  0  0
    6.4326   -2.6897    0.6078 C   0  0  0  0  0  0  0  0  0  0  0  0
    6.7609   -1.7842   -0.3331 F   0  0  0  0  0  0  0  0  0  0  0  0
    7.3170   -3.6908    0.9711 C   0  0  0  0  0  0  0  0  0  0  0  0
    8.5050   -3.7460    0.3770 F   0  0  0  0  0  0  0  0  0  0  0  0
    7.0437   -4.6023    1.8811 N   0  0  0  0  0  0  0  0  0  0  0  0
    5.8689   -4.5410    2.4590 C   0  0  0  0  0  0  0  0  0  0  0  0
    5.5867   -5.4579    3.3799 F   0  0  0  0  0  0  0  0  0  0  0  0
    4.8954   -3.5803    2.1811 C   0  0  0  0  0  0  0  0  0  0  0  0
    3.7338   -3.6398    2.8602 F   0  0  0  0  0  0  0  0  0  0  0  0
    3.0917    1.9232   -0.6298 H   0  0  0  0  0  0  0  0  0  0  0  0
    4.4082    1.1236    0.2500 H   0  0  0  0  0  0  0  0  0  0  0  0
    2.9727    1.6879    1.1250 H   0  0  0  0  0  0  0  0  0  0  0  0
    2.9053   -0.4913   -1.0684 H   0  0  0  0  0  0  0  0  0  0  0  0
    1.5321    0.0302   -0.0969 H   0  0  0  0  0  0  0  0  0  0  0  0
    3.2863   -0.0324    2.6675 H   0  0  0  0  0  0  0  0  0  0  0  0
    2.8253   -1.6766    3.0649 H   0  0  0  0  0  0  0  0  0  0  0  0
    0.8672    0.5049    2.0784 H   0  0  0  0  0  0  0  0  0  0  0  0
    1.0437   -0.1035    3.7325 H   0  0  0  0  0  0  0  0  0  0  0  0
    0.4090   -1.1680    2.4702 H   0  0  0  0  0  0  0  0  0  0  0  0
    1.0130   -2.2565    0.5697 H   0  0  0  0  0  0  0  0  0  0  0  0
    2.2594   -3.3228    1.2350 H   0  0  0  0  0  0  0  0  0  0  0  0
    1.9960   -2.4908   -1.4338 H   0  0  0  0  0  0  0  0  0  0  0  0
    4.7950   -1.0463    0.0380 H   0  0  0  0  0  0  0  0  0  0  0  0
  1  2  1  0
  1 19  1  0
  1 20  1  0
  1 21  1  0
  2  3  1  0
  2 22  1  0
  2 23  1  0
  3  4  1  0
  3  6  1  0
  3  8  1  1
  4  5  1  0
  4 24  1  0
  4 25  1  0
  5 26  1  0
  5 27  1  0
  5 28  1  0
  6  7  1  0
  6 29  1  0
  6 30  1  0
  7 31  1  0
  8  9  1  0
  8 32  1  0
  9 10  2  0
  9 17  1  0
 10 11  1  0
 10 12  1  0
 12 13  1  0
 12 14  2  0
 14 15  1  0
 15 16  1  0
 15 17  2  0
 17 18  1  0
M  END

