
     RDKit          3D

 31 31  0  0  0  0  0  0  0  0999 V2000
    1.8521    0.8407   -0.7758 C   0  0  0  0  0  0  0  0  0  0  0  0
    2.4779   -0.3185   -0.0054 C   0  0  0  0  0  0  0  0  0  0  0  0
    3.0372   -1.3925   -0.8513 N   0  0  0  0  0  0  0  0  0  0  0  0
    2.1785   -2.4201   -1.3559 C   0  0  0  0  0  0  0  0  0  0  0  0
    2.0681   -3.6576   -0.7081 C   0  0  0  0  0  0  0  0  0  0  0  0
    1.1851   -4.6067   -1.2291 C   0  0  0  0  0  0  0  0  0  0  0  0
    0.4274   -4.4001   -2.3102 N   0  0  0  0  0  0  0  0  0  0  0  0
    0.5368   -3.2218   -2.9254 C   0  0  0  0  0  0  0  0  0  0  0  0
    1.3973   -2.2039   -2.4987 C   0  0  0  0  0  0  0  0  0  0  0  0
    4.7074   -1.5975   -0.9626 S   0  0  1  0  0  0  0  0  0  0  0  0
    5.3268   -0.6908    0.0096 O   0  0  0  0  0  0  0  0  0  0  0  0
    5.0120   -3.0312   -0.9572 O   0  0  0  0  0  0  0  0  0  0  0  0
    5.1286   -0.9856   -2.6155 C   0  0  0  0  0  0  0  0  0  0  0  0
    6.6160   -1.1743   -2.8816 C   0  0  0  0  0  0  0  0  0  0  0  0
    7.0153   -0.6450   -4.2541 C   0  0  0  0  0  0  0  0  0  0  0  0
    6.2538   -0.1248   -5.0217 O   0  0  0  0  0  0  0  0  0  0  0  0
    8.3190   -0.7963   -4.5693 O   0  0  0  0  0  0  0  0  0  0  0  0
    1.4817    1.6003   -0.0687 H   0  0  0  0  0  0  0  0  0  0  0  0
    0.9990    0.5150   -1.3906 H   0  0  0  0  0  0  0  0  0  0  0  0
    2.5895    1.3256   -1.4350 H   0  0  0  0  0  0  0  0  0  0  0  0
    1.7340   -0.7814    0.6646 H   0  0  0  0  0  0  0  0  0  0  0  0
    3.2976    0.0434    0.6297 H   0  0  0  0  0  0  0  0  0  0  0  0
    2.6743   -3.8744    0.1718 H   0  0  0  0  0  0  0  0  0  0  0  0
    1.0871   -5.5837   -0.7415 H   0  0  0  0  0  0  0  0  0  0  0  0
   -0.0877   -3.0704   -3.8139 H   0  0  0  0  0  0  0  0  0  0  0  0
    1.4615   -1.2627   -3.0477 H   0  0  0  0  0  0  0  0  0  0  0  0
    4.8387    0.0732   -2.6495 H   0  0  0  0  0  0  0  0  0  0  0  0
    4.5137   -1.5447   -3.3345 H   0  0  0  0  0  0  0  0  0  0  0  0
    6.8788   -2.2436   -2.8091 H   0  0  0  0  0  0  0  0  0  0  0  0
    7.2067   -0.6526   -2.1082 H   0  0  0  0  0  0  0  0  0  0  0  0
    8.8015   -1.2340   -3.8529 H   0  0  0  0  0  0  0  0  0  0  0  0
  1  2  1  0
  1 18  1  0
  1 19  1  0
  1 20  1  0
  2  3  1  0
  2 21  1  0
  2 22  1  0
  3  4  1  0
 10  3  1  6
  4  5  2  0
  4  9  1  0
  5  6  1  0
  5 23  1  0
  6  7  2  0
  6 24  1  0
  7  8  1  0
  8  9  2  0
  8 25  1  0
  9 26  1  0
 10 11  2  0
 10 12  2  0
 10 13  1  0
 13 14  1  0
 13 27  1  0
 13 28  1  0
 14 15  1  0
 14 29  1  0
 14 30  1  0
 15 16  2  0
 15 17  1  0
 17 31  1  0
M  END

