
     RDKit          3D

 19 18  0  0  0  0  0  0  0  0999 V2000
    1.0499    0.0133   -0.1524 C   0  0  0  0  0  0  0  0  0  0  0  0
    2.3624   -0.2062   -0.0337 C   0  0  0  0  0  0  0  0  0  0  0  0
    3.0440   -1.0521   -0.8450 O   0  0  0  0  0  0  0  0  0  0  0  0
    4.4580   -0.9782   -0.8024 C   0  0  0  0  0  0  0  0  0  0  0  0
    5.0089   -2.1559   -1.5922 C   0  0  0  0  0  0  0  0  0  0  0  0
    6.5249   -2.1654   -1.7225 C   0  0  1  0  0  0  0  0  0  0  0  0
    7.3122   -2.3495   -0.0777 Cl  0  0  0  0  0  0  0  0  0  0  0  0
    7.0778   -3.2953   -2.5839 C   0  0  0  0  0  0  0  0  0  0  0  0
    6.5821   -3.1016   -4.3123 Cl  0  0  0  0  0  0  0  0  0  0  0  0
    0.5447    0.6740    0.5528 H   0  0  0  0  0  0  0  0  0  0  0  0
    0.4648   -0.4690   -0.9386 H   0  0  0  0  0  0  0  0  0  0  0  0
    2.9616    0.2756    0.7517 H   0  0  0  0  0  0  0  0  0  0  0  0
    4.8168   -1.0116    0.2423 H   0  0  0  0  0  0  0  0  0  0  0  0
    4.8053   -0.0229   -1.2440 H   0  0  0  0  0  0  0  0  0  0  0  0
    4.5883   -2.1242   -2.6104 H   0  0  0  0  0  0  0  0  0  0  0  0
    4.6683   -3.0971   -1.1299 H   0  0  0  0  0  0  0  0  0  0  0  0
    6.8920   -1.2030   -2.1083 H   0  0  0  0  0  0  0  0  0  0  0  0
    6.7102   -4.2715   -2.2397 H   0  0  0  0  0  0  0  0  0  0  0  0
    8.1740   -3.2935   -2.5618 H   0  0  0  0  0  0  0  0  0  0  0  0
  1  2  2  0
  1 10  1  0
  1 11  1  0
  2  3  1  0
  2 12  1  0
  3  4  1  0
  4  5  1  0
  4 13  1  0
  4 14  1  0
  5  6  1  0
  5 15  1  0
  5 16  1  0
  6  7  1  0
  6  8  1  0
  6 17  1  6
  8  9  1  0
  8 18  1  0
  8 19  1  0
M  END

