
     RDKit          3D

 47 48  0  0  0  0  0  0  0  0999 V2000
    3.2593   -4.0737   -4.8548 C   0  0  0  0  0  0  0  0  0  0  0  0
    2.6850   -3.0059   -3.9228 C   0  0  0  0  0  0  0  0  0  0  0  0
    3.3790   -2.9229   -2.5564 C   0  0  0  0  0  0  0  0  0  0  0  0
    4.7803   -2.5515   -2.6244 N   0  0  0  0  0  0  0  0  0  0  0  0
    5.2433   -1.3224   -2.2673 C   0  0  0  0  0  0  0  0  0  0  0  0
    4.5402   -0.4130   -1.8567 O   0  0  0  0  0  0  0  0  0  0  0  0
    6.7754   -1.1642   -2.3530 C   0  0  1  0  0  0  0  0  0  0  0  0
    7.3575   -1.3589   -0.9470 C   0  0  0  0  0  0  0  0  0  0  0  0
    7.3404   -2.0958   -3.3355 N   0  0  0  0  0  0  0  0  0  0  0  0
    8.7917   -2.1584   -3.4463 C   0  0  2  0  0  0  0  0  0  0  0  0
    9.5272   -0.8982   -4.0079 C   0  0  0  0  0  0  0  0  0  0  0  0
    9.5809   -1.5785   -5.3860 C   0  0  1  0  0  0  0  0  0  0  0  0
   10.7841   -1.4027   -6.0788 O   0  0  0  0  0  0  0  0  0  0  0  0
   10.7656   -1.7658   -7.4459 C   0  0  0  0  0  0  0  0  0  0  0  0
   12.1046   -1.4088   -8.0646 C   0  0  0  0  0  0  0  0  0  0  0  0
    9.2872   -2.9452   -4.7021 C   0  0  2  0  0  0  0  0  0  0  0  0
    8.4628   -4.1120   -5.3003 C   0  0  0  0  0  0  0  0  0  0  0  0
    9.4779   -5.1123   -4.6892 C   0  0  0  0  0  0  0  0  0  0  0  0
   10.4579   -3.9339   -4.4582 C   0  0  0  0  0  0  0  0  0  0  0  0
    2.7244   -4.0980   -5.8174 H   0  0  0  0  0  0  0  0  0  0  0  0
    3.1846   -5.0802   -4.4084 H   0  0  0  0  0  0  0  0  0  0  0  0
    4.3231   -3.8867   -5.0780 H   0  0  0  0  0  0  0  0  0  0  0  0
    1.6135   -3.2066   -3.7463 H   0  0  0  0  0  0  0  0  0  0  0  0
    2.7384   -2.0143   -4.4045 H   0  0  0  0  0  0  0  0  0  0  0  0
    3.2901   -3.8933   -2.0345 H   0  0  0  0  0  0  0  0  0  0  0  0
    2.8855   -2.1624   -1.9341 H   0  0  0  0  0  0  0  0  0  0  0  0
    5.4883   -3.2127   -2.9323 H   0  0  0  0  0  0  0  0  0  0  0  0
    6.9278   -0.1027   -2.6330 H   0  0  0  0  0  0  0  0  0  0  0  0
    7.2640   -2.4093   -0.6272 H   0  0  0  0  0  0  0  0  0  0  0  0
    6.8020   -0.7252   -0.2411 H   0  0  0  0  0  0  0  0  0  0  0  0
    8.4181   -1.0709   -0.8980 H   0  0  0  0  0  0  0  0  0  0  0  0
    6.9377   -1.8849   -4.2491 H   0  0  0  0  0  0  0  0  0  0  0  0
    9.1971   -2.5376   -2.4970 H   0  0  0  0  0  0  0  0  0  0  0  0
   10.5433   -0.7977   -3.5982 H   0  0  0  0  0  0  0  0  0  0  0  0
    9.0138    0.0727   -3.9370 H   0  0  0  0  0  0  0  0  0  0  0  0
    8.7267   -1.2758   -6.0273 H   0  0  0  0  0  0  0  0  0  0  0  0
    9.9425   -1.2328   -7.9660 H   0  0  0  0  0  0  0  0  0  0  0  0
   10.5655   -2.8501   -7.5638 H   0  0  0  0  0  0  0  0  0  0  0  0
   12.3011   -0.3306   -7.9595 H   0  0  0  0  0  0  0  0  0  0  0  0
   12.1176   -1.6652   -9.1355 H   0  0  0  0  0  0  0  0  0  0  0  0
   12.9211   -1.9540   -7.5662 H   0  0  0  0  0  0  0  0  0  0  0  0
    8.4827   -4.1059   -6.4021 H   0  0  0  0  0  0  0  0  0  0  0  0
    7.4162   -4.1946   -4.9696 H   0  0  0  0  0  0  0  0  0  0  0  0
    9.8256   -5.9332   -5.3349 H   0  0  0  0  0  0  0  0  0  0  0  0
    9.1140   -5.5464   -3.7453 H   0  0  0  0  0  0  0  0  0  0  0  0
   11.2213   -3.8520   -5.2466 H   0  0  0  0  0  0  0  0  0  0  0  0
   10.9661   -3.8750   -3.4823 H   0  0  0  0  0  0  0  0  0  0  0  0
  1  2  1  0
  1 20  1  0
  1 21  1  0
  1 22  1  0
  2  3  1  0
  2 23  1  0
  2 24  1  0
  3  4  1  0
  3 25  1  0
  3 26  1  0
  4  5  1  0
  4 27  1  0
  5  6  2  0
  5  7  1  0
  7  8  1  0
  7  9  1  0
  7 28  1  6
  8 29  1  0
  8 30  1  0
  8 31  1  0
  9 10  1  0
  9 32  1  0
 10 11  1  0
 10 16  1  0
 10 33  1  1
 11 12  1  0
 11 34  1  0
 11 35  1  0
 12 13  1  0
 12 16  1  0
 12 36  1  6
 13 14  1  0
 14 15  1  0
 14 37  1  0
 14 38  1  0
 15 39  1  0
 15 40  1  0
 15 41  1  0
 16 17  1  6
 16 19  1  0
 17 18  1  0
 17 42  1  0
 17 43  1  0
 18 19  1  0
 18 44  1  0
 18 45  1  0
 19 46  1  0
 19 47  1  0
M  END

