
     RDKit          3D

 64 70  0  0  0  0  0  0  0  0999 V2000
    6.5184    1.0345   -1.8003 C   0  0  0  0  0  0  0  0  0  0  0  0
    5.3307    0.6992   -0.8971 C   0  0  0  0  0  0  0  0  0  0  0  0
    5.7079   -0.1905    0.2911 C   0  0  0  0  0  0  0  0  0  0  0  0
    4.5050   -0.5143    1.1812 C   0  0  0  0  0  0  0  0  0  0  0  0
    4.8502   -1.3691    2.3284 N   0  0  0  0  0  0  0  0  0  0  0  0
    4.7840   -2.7575    2.1457 C   0  0  0  0  0  0  0  0  0  0  0  0
    4.4569   -3.2333    1.0732 O   0  0  0  0  0  0  0  0  0  0  0  0
    5.1229   -3.6075    3.3188 C   0  0  0  0  0  0  0  0  0  0  0  0
    5.0141   -4.9864    3.2122 C   0  0  0  0  0  0  0  0  0  0  0  0
    5.2790   -5.8022    4.3193 C   0  0  0  0  0  0  0  0  0  0  0  0
    5.6915   -5.2682    5.5450 C   0  0  0  0  0  0  0  0  0  0  0  0
    5.8817   -6.0954    6.7418 C   0  0  0  0  0  0  0  0  0  0  0  0
    5.4771   -7.4347    6.7786 C   0  0  0  0  0  0  0  0  0  0  0  0
    5.6933   -8.2468    7.8970 C   0  0  0  0  0  0  0  0  0  0  0  0
    6.3538   -7.7379    9.0049 C   0  0  0  0  0  0  0  0  0  0  0  0
    6.7782   -6.3867    9.0092 C   0  0  0  0  0  0  0  0  0  0  0  0
    7.4959   -5.8953   10.1259 C   0  0  0  0  0  0  0  0  0  0  0  0
    7.9788   -4.6032   10.1069 C   0  0  0  0  0  0  0  0  0  0  0  0
    7.7033   -3.7406    9.0284 C   0  0  0  0  0  0  0  0  0  0  0  0
    8.6426   -2.0744    9.1741 Br  0  0  0  0  0  0  0  0  0  0  0  0
    6.8927   -4.1317    7.9423 C   0  0  0  0  0  0  0  0  0  0  0  0
    6.4038   -3.2570    6.8548 C   0  0  0  0  0  0  0  0  0  0  0  0
    6.3683   -1.8607    6.9440 C   0  0  0  0  0  0  0  0  0  0  0  0
    5.9752   -1.0516    5.8666 C   0  0  0  0  0  0  0  0  0  0  0  0
    5.6082   -1.6159    4.6570 C   0  0  0  0  0  0  0  0  0  0  0  0
    5.5490   -3.0275    4.5402 C   0  0  0  0  0  0  0  0  0  0  0  0
    5.8966   -3.8585    5.6526 C   0  0  0  0  0  0  0  0  0  0  0  0
    5.2499   -0.7350    3.5129 C   0  0  0  0  0  0  0  0  0  0  0  0
    5.2972    0.4795    3.5896 O   0  0  0  0  0  0  0  0  0  0  0  0
    6.5096   -5.5255    7.8990 C   0  0  0  0  0  0  0  0  0  0  0  0
    7.7851   -6.7559   11.3070 C   0  0  0  0  0  0  0  0  0  0  0  0
    8.3945   -6.3372   12.2740 O   0  0  0  0  0  0  0  0  0  0  0  0
    7.3192   -8.0761   11.2493 N   0  0  0  0  0  0  0  0  0  0  0  0
    7.5635   -8.9547   12.4095 C   0  0  0  0  0  0  0  0  0  0  0  0
    8.7280   -9.9338   12.2218 C   0  0  0  0  0  0  0  0  0  0  0  0
   10.1028   -9.2916   12.0125 C   0  0  0  0  0  0  0  0  0  0  0  0
   11.2272  -10.3222   11.8976 C   0  0  0  0  0  0  0  0  0  0  0  0
    6.6052   -8.6233   10.1732 C   0  0  0  0  0  0  0  0  0  0  0  0
    6.2149   -9.7764   10.2078 O   0  0  0  0  0  0  0  0  0  0  0  0
    6.2155    1.6740   -2.6446 H   0  0  0  0  0  0  0  0  0  0  0  0
    6.9724    0.1213   -2.2199 H   0  0  0  0  0  0  0  0  0  0  0  0
    7.3063    1.5688   -1.2435 H   0  0  0  0  0  0  0  0  0  0  0  0
    4.5448    0.1989   -1.4916 H   0  0  0  0  0  0  0  0  0  0  0  0
    4.8767    1.6345   -0.5221 H   0  0  0  0  0  0  0  0  0  0  0  0
    6.4799    0.3116    0.8993 H   0  0  0  0  0  0  0  0  0  0  0  0
    6.1457   -1.1343   -0.0772 H   0  0  0  0  0  0  0  0  0  0  0  0
    3.7395   -1.0479    0.6034 H   0  0  0  0  0  0  0  0  0  0  0  0
    4.0760    0.4099    1.5892 H   0  0  0  0  0  0  0  0  0  0  0  0
    4.6982   -5.4140    2.2591 H   0  0  0  0  0  0  0  0  0  0  0  0
    5.1556   -6.8792    4.2068 H   0  0  0  0  0  0  0  0  0  0  0  0
    4.9698   -7.8693    5.9177 H   0  0  0  0  0  0  0  0  0  0  0  0
    5.3637   -9.2871    7.9136 H   0  0  0  0  0  0  0  0  0  0  0  0
    8.5819   -4.2602   10.9478 H   0  0  0  0  0  0  0  0  0  0  0  0
    6.6472   -1.3673    7.8691 H   0  0  0  0  0  0  0  0  0  0  0  0
    5.9691    0.0357    5.9617 H   0  0  0  0  0  0  0  0  0  0  0  0
    6.6377   -9.5195   12.5817 H   0  0  0  0  0  0  0  0  0  0  0  0
    7.7487   -8.2926   13.2640 H   0  0  0  0  0  0  0  0  0  0  0  0
    8.4938  -10.6117   11.3838 H   0  0  0  0  0  0  0  0  0  0  0  0
    8.7557  -10.5689   13.1259 H   0  0  0  0  0  0  0  0  0  0  0  0
   10.3140   -8.5935   12.8407 H   0  0  0  0  0  0  0  0  0  0  0  0
   10.0852   -8.6717   11.0986 H   0  0  0  0  0  0  0  0  0  0  0  0
   11.3062  -10.9339   12.8122 H   0  0  0  0  0  0  0  0  0  0  0  0
   12.2036   -9.8380   11.7369 H   0  0  0  0  0  0  0  0  0  0  0  0
   11.0548  -11.0130   11.0551 H   0  0  0  0  0  0  0  0  0  0  0  0
  1  2  1  0
  1 40  1  0
  1 41  1  0
  1 42  1  0
  2  3  1  0
  2 43  1  0
  2 44  1  0
  3  4  1  0
  3 45  1  0
  3 46  1  0
  4  5  1  0
  4 47  1  0
  4 48  1  0
  5  6  1  0
  5 28  1  0
  6  7  2  0
  6  8  1  0
  8  9  1  0
  8 26  2  0
  9 10  2  0
  9 49  1  0
 10 11  1  0
 10 50  1  0
 11 12  1  0
 11 27  2  0
 12 13  2  0
 12 30  1  0
 13 14  1  0
 13 51  1  0
 14 15  2  0
 14 52  1  0
 15 16  1  0
 15 38  1  0
 16 17  1  0
 16 30  2  0
 17 18  2  0
 17 31  1  0
 18 19  1  0
 18 53  1  0
 19 20  1  0
 19 21  2  0
 21 22  1  0
 21 30  1  0
 22 23  2  0
 22 27  1  0
 23 24  1  0
 23 54  1  0
 24 25  2  0
 24 55  1  0
 25 26  1  0
 25 28  1  0
 26 27  1  0
 28 29  2  0
 31 32  2  0
 31 33  1  0
 33 34  1  0
 33 38  1  0
 34 35  1  0
 34 56  1  0
 34 57  1  0
 35 36  1  0
 35 58  1  0
 35 59  1  0
 36 37  1  0
 36 60  1  0
 36 61  1  0
 37 62  1  0
 37 63  1  0
 37 64  1  0
 38 39  2  0
M  END

