
     RDKit          3D

 24 24  0  0  0  0  0  0  0  0999 V2000
    2.7630   -1.1680   -0.7121 C   0  0  0  0  0  0  0  0  0  0  0  0
    2.6870    0.2809   -0.2088 C   0  0  1  0  0  0  0  0  0  0  0  0
    3.3943    0.5107    1.0529 N   0  0  0  0  0  0  0  0  0  0  0  0
    3.1654    1.2882   -1.2684 C   0  0  0  0  0  0  0  0  0  0  0  0
    4.9777    1.2863   -1.5883 S   0  0  0  0  0  0  0  0  0  0  0  0
    5.5026    2.6326   -0.4416 C   0  0  0  0  0  0  0  0  0  0  0  0
    7.0067    2.6730   -0.3464 C   0  0  1  0  0  0  0  0  0  0  0  0
    7.8570    3.2660   -1.4976 C   0  0  0  0  0  0  0  0  0  0  0  0
    7.7294    3.9642   -0.2011 C   0  0  1  0  0  0  0  0  0  0  0  0
    7.0275    5.1144   -0.1336 F   0  0  0  0  0  0  0  0  0  0  0  0
    8.7895    4.0343    0.6271 F   0  0  0  0  0  0  0  0  0  0  0  0
    2.4056   -1.8675    0.0611 H   0  0  0  0  0  0  0  0  0  0  0  0
    3.8039   -1.4361   -0.9597 H   0  0  0  0  0  0  0  0  0  0  0  0
    2.1478   -1.3217   -1.6146 H   0  0  0  0  0  0  0  0  0  0  0  0
    1.6234    0.5244   -0.0269 H   0  0  0  0  0  0  0  0  0  0  0  0
    4.3551    0.1740    0.9556 H   0  0  0  0  0  0  0  0  0  0  0  0
    2.9736   -0.0461    1.7971 H   0  0  0  0  0  0  0  0  0  0  0  0
    2.8842    2.3106   -0.9742 H   0  0  0  0  0  0  0  0  0  0  0  0
    2.6841    1.0777   -2.2358 H   0  0  0  0  0  0  0  0  0  0  0  0
    5.0512    2.4431    0.5428 H   0  0  0  0  0  0  0  0  0  0  0  0
    5.1150    3.5926   -0.8165 H   0  0  0  0  0  0  0  0  0  0  0  0
    7.4717    1.8306    0.1772 H   0  0  0  0  0  0  0  0  0  0  0  0
    7.3144    3.6843   -2.3501 H   0  0  0  0  0  0  0  0  0  0  0  0
    8.8092    2.7822   -1.7290 H   0  0  0  0  0  0  0  0  0  0  0  0
  1  2  1  0
  1 12  1  0
  1 13  1  0
  1 14  1  0
  2  3  1  0
  2  4  1  0
  2 15  1  1
  3 16  1  0
  3 17  1  0
  4  5  1  0
  4 18  1  0
  4 19  1  0
  5  6  1  0
  6  7  1  0
  6 20  1  0
  6 21  1  0
  7  8  1  0
  7  9  1  0
  7 22  1  1
  8  9  1  0
  8 23  1  0
  8 24  1  0
  9 10  1  6
  9 11  1  0
M  END

