
     RDKit          3D

 73 73  0  0  0  0  0  0  0  0999 V2000
    1.2462   -1.1460    0.6958 C   0  0  0  0  0  0  0  0  0  0  0  0
    2.9302   -1.6353    1.3952 Si  0  0  1  0  0  4  0  0  0  0  0  0
    2.8670   -3.3825    2.1093 C   0  0  0  0  0  0  0  0  0  0  0  0
    4.2580   -1.5226    0.0567 C   0  0  0  0  0  0  0  0  0  0  0  0
    3.3612   -0.4578    2.7556 C   0  0  0  0  0  0  0  0  0  0  0  0
    3.6456    0.3224    3.6561 C   0  0  0  0  0  0  0  0  0  0  0  0
    3.9578    1.2486    4.7015 C   0  0  0  0  0  0  0  0  0  0  0  0
    3.0912    2.3785    4.8137 C   0  0  0  0  0  0  0  0  0  0  0  0
    2.3181    3.3276    4.8673 C   0  0  0  0  0  0  0  0  0  0  0  0
    1.1385    4.7539    4.9364 Si  0  0  1  0  0  4  0  0  0  0  0  0
   -0.6172    4.0821    4.7703 C   0  0  0  0  0  0  0  0  0  0  0  0
    1.3571    5.6297    6.5957 C   0  0  0  0  0  0  0  0  0  0  0  0
    1.5371    5.9285    3.5134 C   0  0  0  0  0  0  0  0  0  0  0  0
    5.0430    1.0074    5.5179 C   0  0  0  0  0  0  0  0  0  0  0  0
    5.5456    1.7816    6.6168 C   0  0  0  0  0  0  0  0  0  0  0  0
    5.1150    2.9817    7.1900 C   0  0  0  0  0  0  0  0  0  0  0  0
    5.9034    3.4089    8.2715 C   0  0  0  0  0  0  0  0  0  0  0  0
    6.9671    2.5515    8.5681 C   0  0  0  0  0  0  0  0  0  0  0  0
    7.9933    2.6047    9.5699 C   0  0  0  0  0  0  0  0  0  0  0  0
    8.2160    3.5545   10.5449 C   0  0  0  0  0  0  0  0  0  0  0  0
    7.4171    4.7224   10.7390 C   0  0  0  0  0  0  0  0  0  0  0  0
    6.7645    5.7385   10.9462 C   0  0  0  0  0  0  0  0  0  0  0  0
    5.7888    7.2795   11.2681 Si  0  0  1  0  0  4  0  0  0  0  0  0
    4.5993    7.5443    9.8247 C   0  0  0  0  0  0  0  0  0  0  0  0
    4.8314    7.0553   12.8794 C   0  0  0  0  0  0  0  0  0  0  0  0
    6.9912    8.7275   11.4068 C   0  0  0  0  0  0  0  0  0  0  0  0
    9.3173    3.3928   11.4444 C   0  0  0  0  0  0  0  0  0  0  0  0
   10.2538    3.2748   12.2252 C   0  0  0  0  0  0  0  0  0  0  0  0
   11.6689    3.0957   13.4035 Si  0  0  1  0  0  4  0  0  0  0  0  0
   11.2817    4.0963   14.9570 C   0  0  0  0  0  0  0  0  0  0  0  0
   11.8687    1.2663   13.8277 C   0  0  0  0  0  0  0  0  0  0  0  0
   13.2333    3.7504   12.5720 C   0  0  0  0  0  0  0  0  0  0  0  0
    6.9606    1.1966    7.4620 S   0  0  0  0  0  0  0  0  0  0  0  0
    0.9509   -1.8249   -0.1218 H   0  0  0  0  0  0  0  0  0  0  0  0
    1.2667   -0.1197    0.2951 H   0  0  0  0  0  0  0  0  0  0  0  0
    0.4663   -1.1893    1.4730 H   0  0  0  0  0  0  0  0  0  0  0  0
    2.6125   -4.1152    1.3249 H   0  0  0  0  0  0  0  0  0  0  0  0
    2.1088   -3.4589    2.9053 H   0  0  0  0  0  0  0  0  0  0  0  0
    3.8393   -3.6709    2.5404 H   0  0  0  0  0  0  0  0  0  0  0  0
    4.0333   -2.2125   -0.7743 H   0  0  0  0  0  0  0  0  0  0  0  0
    5.2499   -1.7860    0.4580 H   0  0  0  0  0  0  0  0  0  0  0  0
    4.3207   -0.5025   -0.3552 H   0  0  0  0  0  0  0  0  0  0  0  0
   -0.8530    3.3804    5.5864 H   0  0  0  0  0  0  0  0  0  0  0  0
   -0.7471    3.5463    3.8163 H   0  0  0  0  0  0  0  0  0  0  0  0
   -1.3530    4.9033    4.8031 H   0  0  0  0  0  0  0  0  0  0  0  0
    1.1586    4.9449    7.4360 H   0  0  0  0  0  0  0  0  0  0  0  0
    0.6602    6.4805    6.6802 H   0  0  0  0  0  0  0  0  0  0  0  0
    2.3810    6.0215    6.7101 H   0  0  0  0  0  0  0  0  0  0  0  0
    1.4355    5.4210    2.5407 H   0  0  0  0  0  0  0  0  0  0  0  0
    2.5683    6.3095    3.5891 H   0  0  0  0  0  0  0  0  0  0  0  0
    0.8527    6.7936    3.5197 H   0  0  0  0  0  0  0  0  0  0  0  0
    5.5972    0.0926    5.2905 H   0  0  0  0  0  0  0  0  0  0  0  0
    4.2469    3.5241    6.8218 H   0  0  0  0  0  0  0  0  0  0  0  0
    5.7154    4.3201    8.8353 H   0  0  0  0  0  0  0  0  0  0  0  0
    8.7045    1.7741    9.5638 H   0  0  0  0  0  0  0  0  0  0  0  0
    3.8970    6.7007    9.7249 H   0  0  0  0  0  0  0  0  0  0  0  0
    5.1455    7.6475    8.8731 H   0  0  0  0  0  0  0  0  0  0  0  0
    4.0047    8.4611    9.9748 H   0  0  0  0  0  0  0  0  0  0  0  0
    4.1412    6.1987   12.8160 H   0  0  0  0  0  0  0  0  0  0  0  0
    4.2370    7.9561   13.1074 H   0  0  0  0  0  0  0  0  0  0  0  0
    5.5153    6.8757   13.7244 H   0  0  0  0  0  0  0  0  0  0  0  0
    7.5690    8.8548   10.4773 H   0  0  0  0  0  0  0  0  0  0  0  0
    7.7065    8.5702   12.2300 H   0  0  0  0  0  0  0  0  0  0  0  0
    6.4479    9.6674   11.6023 H   0  0  0  0  0  0  0  0  0  0  0  0
   10.3603    3.7356   15.4420 H   0  0  0  0  0  0  0  0  0  0  0  0
   11.1414    5.1625   14.7166 H   0  0  0  0  0  0  0  0  0  0  0  0
   12.1047    4.0173   15.6872 H   0  0  0  0  0  0  0  0  0  0  0  0
   10.9560    0.8655   14.2974 H   0  0  0  0  0  0  0  0  0  0  0  0
   12.7062    1.1182   14.5301 H   0  0  0  0  0  0  0  0  0  0  0  0
   12.0738    0.6693   12.9245 H   0  0  0  0  0  0  0  0  0  0  0  0
   13.1228    4.8123   12.2993 H   0  0  0  0  0  0  0  0  0  0  0  0
   13.4593    3.1877   11.6519 H   0  0  0  0  0  0  0  0  0  0  0  0
   14.1007    3.6605   13.2476 H   0  0  0  0  0  0  0  0  0  0  0  0
  1  2  1  0
  1 34  1  0
  1 35  1  0
  1 36  1  0
  2  3  1  0
  2  4  1  0
  2  5  1  1
  3 37  1  0
  3 38  1  0
  3 39  1  0
  4 40  1  0
  4 41  1  0
  4 42  1  0
  5  6  3  0
  6  7  1  0
  7  8  1  0
  7 14  2  0
  8  9  3  0
 10  9  1  1
 10 11  1  0
 10 12  1  0
 10 13  1  0
 11 43  1  0
 11 44  1  0
 11 45  1  0
 12 46  1  0
 12 47  1  0
 12 48  1  0
 13 49  1  0
 13 50  1  0
 13 51  1  0
 14 15  1  0
 14 52  1  0
 15 16  2  0
 15 33  1  0
 16 17  1  0
 16 53  1  0
 17 18  2  0
 17 54  1  0
 18 19  1  0
 18 33  1  0
 19 20  2  0
 19 55  1  0
 20 21  1  0
 20 27  1  0
 21 22  3  0
 23 22  1  6
 23 24  1  0
 23 25  1  0
 23 26  1  0
 24 56  1  0
 24 57  1  0
 24 58  1  0
 25 59  1  0
 25 60  1  0
 25 61  1  0
 26 62  1  0
 26 63  1  0
 26 64  1  0
 27 28  3  0
 29 28  1  6
 29 30  1  0
 29 31  1  0
 29 32  1  0
 30 65  1  0
 30 66  1  0
 30 67  1  0
 31 68  1  0
 31 69  1  0
 31 70  1  0
 32 71  1  0
 32 72  1  0
 32 73  1  0
M  END

