
     RDKit          3D

 38 40  0  0  0  0  0  0  0  0999 V2000
    4.1314    2.2757    6.8885 C   0  0  0  0  0  0  0  0  0  0  0  0
    3.8066    1.5467    5.5850 C   0  0  0  0  0  0  0  0  0  0  0  0
    4.5918    2.0724    4.3824 C   0  0  0  0  0  0  0  0  0  0  0  0
    4.2158    1.3758    3.1671 N   0  0  0  0  0  0  0  0  0  0  0  0
    4.8076    1.8416    1.9276 C   0  0  0  0  0  0  0  0  0  0  0  0
    6.3353    1.8225    1.8351 C   0  0  0  0  0  0  0  0  0  0  0  0
    7.0329    3.0028    2.0154 C   0  0  0  0  0  0  0  0  0  0  0  0
    8.4468    3.0759    1.9319 C   0  0  0  0  0  0  0  0  0  0  0  0
    9.1914    4.2730    2.1087 C   0  0  0  0  0  0  0  0  0  0  0  0
   10.5666    4.2601    1.9937 C   0  0  0  0  0  0  0  0  0  0  0  0
   11.2498    3.0522    1.6969 C   0  0  0  0  0  0  0  0  0  0  0  0
   10.5531    1.8746    1.5195 C   0  0  0  0  0  0  0  0  0  0  0  0
    9.1358    1.8592    1.6345 C   0  0  0  0  0  0  0  0  0  0  0  0
    8.4612    0.6952    1.4678 N   0  0  0  0  0  0  0  0  0  0  0  0
    7.1551    0.6667    1.5731 C   0  0  0  0  0  0  0  0  0  0  0  0
    6.5996   -0.6300    1.3496 N   0  0  0  0  0  0  0  0  0  0  0  0
    7.2614   -1.6728    0.7566 C   0  0  0  0  0  0  0  0  0  0  0  0
    6.3874   -2.7399    0.7821 C   0  0  0  0  0  0  0  0  0  0  0  0
    6.6565   -4.3283    0.1654 Cl  0  0  0  0  0  0  0  0  0  0  0  0
    5.2180   -2.2558    1.4228 C   0  0  0  0  0  0  0  0  0  0  0  0
    5.3636   -0.9841    1.7607 N   0  0  0  0  0  0  0  0  0  0  0  0
    3.5538    1.8667    7.7325 H   0  0  0  0  0  0  0  0  0  0  0  0
    3.8963    3.3512    6.8171 H   0  0  0  0  0  0  0  0  0  0  0  0
    5.2005    2.1886    7.1455 H   0  0  0  0  0  0  0  0  0  0  0  0
    2.7299    1.6230    5.3567 H   0  0  0  0  0  0  0  0  0  0  0  0
    4.0171    0.4676    5.7026 H   0  0  0  0  0  0  0  0  0  0  0  0
    5.6811    2.0182    4.6143 H   0  0  0  0  0  0  0  0  0  0  0  0
    4.3704    3.1493    4.2496 H   0  0  0  0  0  0  0  0  0  0  0  0
    4.3674    0.3705    3.2400 H   0  0  0  0  0  0  0  0  0  0  0  0
    4.4928    2.8868    1.7617 H   0  0  0  0  0  0  0  0  0  0  0  0
    4.3838    1.2448    1.1082 H   0  0  0  0  0  0  0  0  0  0  0  0
    6.4709    3.9215    2.2100 H   0  0  0  0  0  0  0  0  0  0  0  0
    8.6594    5.2010    2.3355 H   0  0  0  0  0  0  0  0  0  0  0  0
   11.1365    5.1824    2.1305 H   0  0  0  0  0  0  0  0  0  0  0  0
   12.3393    3.0590    1.6094 H   0  0  0  0  0  0  0  0  0  0  0  0
   11.0589    0.9342    1.2927 H   0  0  0  0  0  0  0  0  0  0  0  0
    8.2733   -1.5625    0.3832 H   0  0  0  0  0  0  0  0  0  0  0  0
    4.2967   -2.7930    1.6436 H   0  0  0  0  0  0  0  0  0  0  0  0
  1  2  1  0
  1 22  1  0
  1 23  1  0
  1 24  1  0
  2  3  1  0
  2 25  1  0
  2 26  1  0
  3  4  1  0
  3 27  1  0
  3 28  1  0
  4  5  1  0
  4 29  1  0
  5  6  1  0
  5 30  1  0
  5 31  1  0
  6  7  2  0
  6 15  1  0
  7  8  1  0
  7 32  1  0
  8  9  2  0
  8 13  1  0
  9 10  1  0
  9 33  1  0
 10 11  2  0
 10 34  1  0
 11 12  1  0
 11 35  1  0
 12 13  2  0
 12 36  1  0
 13 14  1  0
 14 15  2  0
 15 16  1  0
 16 17  1  0
 16 21  1  0
 17 18  2  0
 17 37  1  0
 18 19  1  0
 18 20  1  0
 20 21  2  0
 20 38  1  0
M  END

