
     RDKit          3D

 58 61  0  0  0  0  0  0  0  0999 V2000
    3.9933   -7.9173   -3.6272 C   0  0  0  0  0  0  0  0  0  0  0  0
    4.1659   -6.9609   -2.4462 C   0  0  0  0  0  0  0  0  0  0  0  0
    3.9138   -5.4793   -2.7766 C   0  0  1  0  0  0  0  0  0  0  0  0
    2.4865   -5.1809   -3.2478 C   0  0  0  0  0  0  0  0  0  0  0  0
    4.2818   -4.6763   -1.5968 N   0  0  0  0  0  0  0  0  0  0  0  0
    4.8044   -3.0880   -1.7452 S   0  0  1  0  0  0  0  0  0  0  0  0
    4.4727   -2.5742   -3.0791 O   0  0  0  0  0  0  0  0  0  0  0  0
    4.3565   -2.4215   -0.5197 O   0  0  0  0  0  0  0  0  0  0  0  0
    6.5976   -3.2209   -1.6729 C   0  0  0  0  0  0  0  0  0  0  0  0
    7.3470   -3.1107   -2.8463 C   0  0  0  0  0  0  0  0  0  0  0  0
    8.7374   -3.2044   -2.7727 C   0  0  0  0  0  0  0  0  0  0  0  0
    9.3752   -3.4291   -1.5431 C   0  0  0  0  0  0  0  0  0  0  0  0
   10.8817   -3.4312   -1.5457 C   0  0  0  0  0  0  0  0  0  0  0  0
   11.4904   -2.6580   -2.2734 O   0  0  0  0  0  0  0  0  0  0  0  0
   11.5726   -4.2900   -0.7154 N   0  0  0  0  0  0  0  0  0  0  0  0
   13.0157   -4.0756   -0.6809 C   0  0  0  0  0  0  0  0  0  0  0  0
   13.7123   -4.4843   -1.9469 C   0  0  0  0  0  0  0  0  0  0  0  0
   13.5352   -5.5441   -2.6692 N   0  0  0  0  0  0  0  0  0  0  0  0
   14.4317   -5.4693   -3.7155 N   0  0  0  0  0  0  0  0  0  0  0  0
   15.1031   -4.3679   -3.5530 C   0  0  0  0  0  0  0  0  0  0  0  0
   16.1732   -3.8237   -4.3819 C   0  0  0  0  0  0  0  0  0  0  0  0
   16.6053   -4.5458   -5.5095 C   0  0  0  0  0  0  0  0  0  0  0  0
   17.6244   -4.0488   -6.3169 C   0  0  0  0  0  0  0  0  0  0  0  0
   18.2187   -2.8213   -5.9989 C   0  0  0  0  0  0  0  0  0  0  0  0
   19.4973   -2.1959   -7.0092 Cl  0  0  0  0  0  0  0  0  0  0  0  0
   17.8001   -2.0901   -4.8828 C   0  0  0  0  0  0  0  0  0  0  0  0
   16.7786   -2.5927   -4.0778 C   0  0  0  0  0  0  0  0  0  0  0  0
   14.6960   -3.6955   -2.4401 O   0  0  0  0  0  0  0  0  0  0  0  0
   11.0205   -5.4122    0.0069 C   0  0  1  0  0  0  0  0  0  0  0  0
   10.1601   -6.4320   -0.6922 C   0  0  0  0  0  0  0  0  0  0  0  0
   11.5505   -6.8032   -0.2637 C   0  0  0  0  0  0  0  0  0  0  0  0
    8.6029   -3.5092   -0.3722 C   0  0  0  0  0  0  0  0  0  0  0  0
    7.2147   -3.3956   -0.4308 C   0  0  0  0  0  0  0  0  0  0  0  0
    4.2649   -8.9448   -3.3390 H   0  0  0  0  0  0  0  0  0  0  0  0
    4.6394   -7.6294   -4.4735 H   0  0  0  0  0  0  0  0  0  0  0  0
    2.9556   -7.9445   -3.9947 H   0  0  0  0  0  0  0  0  0  0  0  0
    5.1901   -7.0420   -2.0466 H   0  0  0  0  0  0  0  0  0  0  0  0
    3.4915   -7.2602   -1.6222 H   0  0  0  0  0  0  0  0  0  0  0  0
    4.6125   -5.1827   -3.5767 H   0  0  0  0  0  0  0  0  0  0  0  0
    1.7528   -5.4626   -2.4723 H   0  0  0  0  0  0  0  0  0  0  0  0
    2.2391   -5.7394   -4.1634 H   0  0  0  0  0  0  0  0  0  0  0  0
    2.3781   -4.1087   -3.4626 H   0  0  0  0  0  0  0  0  0  0  0  0
    3.6432   -4.7325   -0.8033 H   0  0  0  0  0  0  0  0  0  0  0  0
    6.8402   -2.9304   -3.7956 H   0  0  0  0  0  0  0  0  0  0  0  0
    9.3492   -3.0904   -3.6694 H   0  0  0  0  0  0  0  0  0  0  0  0
   13.4224   -4.6496    0.1649 H   0  0  0  0  0  0  0  0  0  0  0  0
   13.2369   -3.0117   -0.5156 H   0  0  0  0  0  0  0  0  0  0  0  0
   16.1294   -5.5003   -5.7413 H   0  0  0  0  0  0  0  0  0  0  0  0
   17.9635   -4.6044   -7.1925 H   0  0  0  0  0  0  0  0  0  0  0  0
   18.2726   -1.1342   -4.6518 H   0  0  0  0  0  0  0  0  0  0  0  0
   16.4451   -2.0244   -3.2078 H   0  0  0  0  0  0  0  0  0  0  0  0
   10.7672   -5.1980    1.0537 H   0  0  0  0  0  0  0  0  0  0  0  0
    9.9913   -6.2940   -1.7627 H   0  0  0  0  0  0  0  0  0  0  0  0
    9.2994   -6.8251   -0.1446 H   0  0  0  0  0  0  0  0  0  0  0  0
   12.2958   -6.9042   -1.0576 H   0  0  0  0  0  0  0  0  0  0  0  0
   11.6828   -7.4628    0.5985 H   0  0  0  0  0  0  0  0  0  0  0  0
    9.0853   -3.6315    0.5984 H   0  0  0  0  0  0  0  0  0  0  0  0
    6.6099   -3.4269    0.4771 H   0  0  0  0  0  0  0  0  0  0  0  0
  1  2  1  0
  1 34  1  0
  1 35  1  0
  1 36  1  0
  2  3  1  0
  2 37  1  0
  2 38  1  0
  3  4  1  0
  3  5  1  0
  3 39  1  6
  4 40  1  0
  4 41  1  0
  4 42  1  0
  6  5  1  6
  5 43  1  0
  6  7  2  0
  6  8  2  0
  6  9  1  0
  9 10  2  0
  9 33  1  0
 10 11  1  0
 10 44  1  0
 11 12  2  0
 11 45  1  0
 12 13  1  0
 12 32  1  0
 13 14  2  0
 13 15  1  0
 15 16  1  0
 15 29  1  0
 16 17  1  0
 16 46  1  0
 16 47  1  0
 17 18  2  0
 17 28  1  0
 18 19  1  0
 19 20  2  0
 20 21  1  0
 20 28  1  0
 21 22  2  0
 21 27  1  0
 22 23  1  0
 22 48  1  0
 23 24  2  0
 23 49  1  0
 24 25  1  0
 24 26  1  0
 26 27  2  0
 26 50  1  0
 27 51  1  0
 29 30  1  0
 29 31  1  0
 29 52  1  1
 30 31  1  0
 30 53  1  0
 30 54  1  0
 31 55  1  0
 31 56  1  0
 32 33  2  0
 32 57  1  0
 33 58  1  0
M  END

