
     RDKit          3D

 45 48  0  0  0  0  0  0  0  0999 V2000
    3.5910    0.6181    2.0204 C   0  0  0  0  0  0  0  0  0  0  0  0
    2.8073    0.5849    0.8495 O   0  0  0  0  0  0  0  0  0  0  0  0
    3.1365    1.3870   -0.1943 C   0  0  0  0  0  0  0  0  0  0  0  0
    4.2194    2.2797   -0.2037 C   0  0  0  0  0  0  0  0  0  0  0  0
    4.4667    3.0605   -1.3381 C   0  0  0  0  0  0  0  0  0  0  0  0
    3.6603    2.9827   -2.4813 C   0  0  0  0  0  0  0  0  0  0  0  0
    3.9265    3.8331   -3.7128 C   0  0  2  0  0  0  0  0  0  0  0  0
    3.1662    3.5588   -4.4650 H   0  0  0  0  0  0  0  0  0  0  0  0
    5.3072    3.5622   -4.3438 C   0  0  0  0  0  0  0  0  0  0  0  0
    5.5694    4.3778   -5.6040 C   0  0  0  0  0  0  0  0  0  0  0  0
    6.2885    3.9685   -6.4971 O   0  0  0  0  0  0  0  0  0  0  0  0
    4.9160    5.7080   -5.6678 C   0  0  0  0  0  0  0  0  0  0  0  0
    5.1226    6.5699   -6.7550 C   0  0  0  0  0  0  0  0  0  0  0  0
    4.5633    7.7682   -6.8488 N   0  0  0  0  0  0  0  0  0  0  0  0
    3.7612    8.1294   -5.8288 C   0  0  0  0  0  0  0  0  0  0  0  0
    3.1412    9.3458   -5.8365 N   0  0  0  0  0  0  0  0  0  0  0  0
    3.1421   10.4128   -6.7505 C   0  0  0  0  0  0  0  0  0  0  0  0
    3.8644   10.4237   -7.9585 C   0  0  0  0  0  0  0  0  0  0  0  0
    3.7994   11.5355   -8.8008 C   0  0  0  0  0  0  0  0  0  0  0  0
    3.0209   12.6334   -8.4469 C   0  0  0  0  0  0  0  0  0  0  0  0
    2.9644   13.6979   -9.2630 F   0  0  0  0  0  0  0  0  0  0  0  0
    2.2974   12.6457   -7.2565 C   0  0  0  0  0  0  0  0  0  0  0  0
    2.3614   11.5371   -6.4153 C   0  0  0  0  0  0  0  0  0  0  0  0
    3.4825    7.3803   -4.7399 N   0  0  0  0  0  0  0  0  0  0  0  0
    4.0527    6.1848   -4.6539 C   0  0  0  0  0  0  0  0  0  0  0  0
    3.7639    5.3415   -3.4378 C   0  0  0  0  0  0  0  0  0  0  0  0
    2.5810    2.0819   -2.4502 C   0  0  0  0  0  0  0  0  0  0  0  0
    2.3180    1.2959   -1.3324 C   0  0  0  0  0  0  0  0  0  0  0  0
    3.1461   -0.1061    2.7161 H   0  0  0  0  0  0  0  0  0  0  0  0
    3.5841    1.6170    2.4934 H   0  0  0  0  0  0  0  0  0  0  0  0
    4.6388    0.3266    1.8237 H   0  0  0  0  0  0  0  0  0  0  0  0
    4.8761    2.3758    0.6612 H   0  0  0  0  0  0  0  0  0  0  0  0
    5.3196    3.7450   -1.3149 H   0  0  0  0  0  0  0  0  0  0  0  0
    5.4441    2.4997   -4.5926 H   0  0  0  0  0  0  0  0  0  0  0  0
    6.1060    3.8205   -3.6230 H   0  0  0  0  0  0  0  0  0  0  0  0
    5.7787    6.2481   -7.5713 H   0  0  0  0  0  0  0  0  0  0  0  0
    2.5709    9.4765   -5.0074 H   0  0  0  0  0  0  0  0  0  0  0  0
    4.4687    9.5598   -8.2232 H   0  0  0  0  0  0  0  0  0  0  0  0
    4.3550   11.5559   -9.7406 H   0  0  0  0  0  0  0  0  0  0  0  0
    1.6936   13.5182   -6.9999 H   0  0  0  0  0  0  0  0  0  0  0  0
    1.7952   11.5422   -5.4794 H   0  0  0  0  0  0  0  0  0  0  0  0
    2.7542    5.5802   -3.0722 H   0  0  0  0  0  0  0  0  0  0  0  0
    4.4591    5.6518   -2.6354 H   0  0  0  0  0  0  0  0  0  0  0  0
    1.9307    1.9934   -3.3254 H   0  0  0  0  0  0  0  0  0  0  0  0
    1.4792    0.5970   -1.3140 H   0  0  0  0  0  0  0  0  0  0  0  0
  1  2  1  0
  1 29  1  0
  1 30  1  0
  1 31  1  0
  2  3  1  0
  3  4  2  0
  3 28  1  0
  4  5  1  0
  4 32  1  0
  5  6  2  0
  5 33  1  0
  6  7  1  0
  6 27  1  0
  7  8  1  6
  7  9  1  0
  7 26  1  0
  9 10  1  0
  9 34  1  0
  9 35  1  0
 10 11  2  0
 10 12  1  0
 12 13  2  0
 12 25  1  0
 13 14  1  0
 13 36  1  0
 14 15  2  0
 15 16  1  0
 15 24  1  0
 16 17  1  0
 16 37  1  0
 17 18  2  0
 17 23  1  0
 18 19  1  0
 18 38  1  0
 19 20  2  0
 19 39  1  0
 20 21  1  0
 20 22  1  0
 22 23  2  0
 22 40  1  0
 23 41  1  0
 24 25  2  0
 25 26  1  0
 26 42  1  0
 26 43  1  0
 27 28  2  0
 27 44  1  0
 28 45  1  0
M  END

