
     RDKit          3D

 43 42  0  0  0  0  0  0  0  0999 V2000
    3.8401    3.2662    2.8888 C   0  0  0  0  0  0  0  0  0  0  0  0
    3.6563    2.6773    1.4880 C   0  0  0  0  0  0  0  0  0  0  0  0
    4.6641    1.5760    1.0991 C   0  0  1  0  0  0  0  0  0  0  0  0
    4.5998    0.3356    2.0201 C   0  0  0  0  0  0  0  0  0  0  0  0
    3.2798   -0.4420    2.0157 C   0  0  0  0  0  0  0  0  0  0  0  0
    4.5274    1.1875   -0.3913 C   0  0  0  0  0  0  0  0  0  0  0  0
    5.1016    2.2015   -1.3999 C   0  0  0  0  0  0  0  0  0  0  0  0
    6.6469    2.2064   -1.5482 C   0  0  1  0  0  0  0  0  0  0  0  0
    7.0374    1.4201   -2.7213 N   0  0  0  0  0  0  0  0  0  0  0  0
    6.7032    0.0084   -2.7114 C   0  0  0  0  0  0  0  0  0  0  0  0
    7.2718    3.6440   -1.6463 C   0  0  1  0  0  0  0  0  0  0  0  0
    7.0167    4.4161   -0.3373 C   0  0  0  0  0  0  0  0  0  0  0  0
    8.8039    3.5438   -1.8211 C   0  0  0  0  0  0  0  0  0  0  0  0
    6.6836    4.4218   -2.8386 C   0  0  0  0  0  0  0  0  0  0  0  0
    3.1377    4.0968    3.0649 H   0  0  0  0  0  0  0  0  0  0  0  0
    4.8608    3.6617    3.0264 H   0  0  0  0  0  0  0  0  0  0  0  0
    3.6667    2.5203    3.6808 H   0  0  0  0  0  0  0  0  0  0  0  0
    3.7282    3.4960    0.7517 H   0  0  0  0  0  0  0  0  0  0  0  0
    2.6289    2.2845    1.3838 H   0  0  0  0  0  0  0  0  0  0  0  0
    5.6761    2.0007    1.2394 H   0  0  0  0  0  0  0  0  0  0  0  0
    4.8326    0.6409    3.0546 H   0  0  0  0  0  0  0  0  0  0  0  0
    5.4172   -0.3467    1.7260 H   0  0  0  0  0  0  0  0  0  0  0  0
    2.4352    0.1721    2.3681 H   0  0  0  0  0  0  0  0  0  0  0  0
    3.3421   -1.3192    2.6798 H   0  0  0  0  0  0  0  0  0  0  0  0
    3.0221   -0.8119    1.0102 H   0  0  0  0  0  0  0  0  0  0  0  0
    3.4587    1.0320   -0.6222 H   0  0  0  0  0  0  0  0  0  0  0  0
    5.0099    0.2084   -0.5463 H   0  0  0  0  0  0  0  0  0  0  0  0
    4.7448    3.2051   -1.1264 H   0  0  0  0  0  0  0  0  0  0  0  0
    4.6780    2.0096   -2.3990 H   0  0  0  0  0  0  0  0  0  0  0  0
    7.0754    1.7592   -0.6188 H   0  0  0  0  0  0  0  0  0  0  0  0
    8.0388    1.5120   -2.8652 H   0  0  0  0  0  0  0  0  0  0  0  0
    5.6165   -0.1461   -2.8045 H   0  0  0  0  0  0  0  0  0  0  0  0
    7.0358   -0.5392   -1.7998 H   0  0  0  0  0  0  0  0  0  0  0  0
    7.1686   -0.4798   -3.5825 H   0  0  0  0  0  0  0  0  0  0  0  0
    7.4586    3.8951    0.5284 H   0  0  0  0  0  0  0  0  0  0  0  0
    5.9453    4.5579   -0.1324 H   0  0  0  0  0  0  0  0  0  0  0  0
    7.4731    5.4178   -0.3903 H   0  0  0  0  0  0  0  0  0  0  0  0
    9.2580    2.9015   -1.0473 H   0  0  0  0  0  0  0  0  0  0  0  0
    9.2633    4.5415   -1.7328 H   0  0  0  0  0  0  0  0  0  0  0  0
    9.0946    3.1552   -2.8102 H   0  0  0  0  0  0  0  0  0  0  0  0
    5.6106    4.6288   -2.7023 H   0  0  0  0  0  0  0  0  0  0  0  0
    6.7989    3.8476   -3.7697 H   0  0  0  0  0  0  0  0  0  0  0  0
    7.1929    5.3922   -2.9594 H   0  0  0  0  0  0  0  0  0  0  0  0
  1  2  1  0
  1 15  1  0
  1 16  1  0
  1 17  1  0
  2  3  1  0
  2 18  1  0
  2 19  1  0
  3  4  1  0
  3  6  1  0
  3 20  1  6
  4  5  1  0
  4 21  1  0
  4 22  1  0
  5 23  1  0
  5 24  1  0
  5 25  1  0
  6  7  1  0
  6 26  1  0
  6 27  1  0
  7  8  1  0
  7 28  1  0
  7 29  1  0
  8  9  1  0
  8 11  1  0
  8 30  1  1
  9 10  1  0
  9 31  1  0
 10 32  1  0
 10 33  1  0
 10 34  1  0
 11 12  1  1
 11 13  1  0
 11 14  1  0
 12 35  1  0
 12 36  1  0
 12 37  1  0
 13 38  1  0
 13 39  1  0
 13 40  1  0
 14 41  1  0
 14 42  1  0
 14 43  1  0
M  END

