
     RDKit          3D

 35 35  0  0  0  0  0  0  0  0999 V2000
    2.1079   -1.2291    1.4420 C   0  0  0  0  0  0  0  0  0  0  0  0
    2.7439   -0.5016    0.3957 O   0  0  0  0  0  0  0  0  0  0  0  0
    3.7206   -1.1534   -0.2552 C   0  0  0  0  0  0  0  0  0  0  0  0
    4.0709   -2.2821   -0.0017 O   0  0  0  0  0  0  0  0  0  0  0  0
    4.1934   -0.3382   -1.1926 O   0  0  0  0  0  0  0  0  0  0  0  0
    5.3156   -0.7155   -2.0835 C   0  0  2  0  0  0  0  0  0  0  0  0
    6.5387   -0.9659   -1.1945 C   0  0  0  0  0  0  0  0  0  0  0  0
    5.4443    0.5894   -2.9081 C   0  0  0  0  0  0  0  0  0  0  0  0
    6.3228    0.6846   -4.1742 C   0  0  0  0  0  0  0  0  0  0  0  0
    7.7447    0.1043   -4.1570 C   0  0  0  0  0  0  0  0  0  0  0  0
    7.9562   -1.3906   -4.2003 C   0  0  0  0  0  0  0  0  0  0  0  0
    7.0834   -2.4148   -4.2164 C   0  0  0  0  0  0  0  0  0  0  0  0
    7.5812   -3.8409   -4.2030 C   0  0  0  0  0  0  0  0  0  0  0  0
    5.5682   -2.2714   -4.2313 C   0  0  0  0  0  0  0  0  0  0  0  0
    4.8685   -1.9572   -2.8901 C   0  0  0  0  0  0  0  0  0  0  0  0
    1.3548   -0.5533    1.8665 H   0  0  0  0  0  0  0  0  0  0  0  0
    2.8322   -1.5240    2.2168 H   0  0  0  0  0  0  0  0  0  0  0  0
    1.6239   -2.1390    1.0544 H   0  0  0  0  0  0  0  0  0  0  0  0
    6.7445   -0.0748   -0.5812 H   0  0  0  0  0  0  0  0  0  0  0  0
    7.4236   -1.1872   -1.8015 H   0  0  0  0  0  0  0  0  0  0  0  0
    6.3599   -1.8190   -0.5275 H   0  0  0  0  0  0  0  0  0  0  0  0
    5.7717    1.3606   -2.1908 H   0  0  0  0  0  0  0  0  0  0  0  0
    4.4194    0.8767   -3.1934 H   0  0  0  0  0  0  0  0  0  0  0  0
    6.4230    1.7643   -4.3775 H   0  0  0  0  0  0  0  0  0  0  0  0
    5.7834    0.2925   -5.0477 H   0  0  0  0  0  0  0  0  0  0  0  0
    8.2883    0.4990   -3.2758 H   0  0  0  0  0  0  0  0  0  0  0  0
    8.2900    0.5340   -5.0189 H   0  0  0  0  0  0  0  0  0  0  0  0
    9.0203   -1.6629   -4.1952 H   0  0  0  0  0  0  0  0  0  0  0  0
    8.6788   -3.9002   -4.1569 H   0  0  0  0  0  0  0  0  0  0  0  0
    7.2438   -4.3882   -5.1016 H   0  0  0  0  0  0  0  0  0  0  0  0
    7.1731   -4.3905   -3.3353 H   0  0  0  0  0  0  0  0  0  0  0  0
    5.1403   -3.2259   -4.5793 H   0  0  0  0  0  0  0  0  0  0  0  0
    5.2645   -1.5360   -4.9865 H   0  0  0  0  0  0  0  0  0  0  0  0
    4.9340   -2.8291   -2.2241 H   0  0  0  0  0  0  0  0  0  0  0  0
    3.7963   -1.8221   -3.1112 H   0  0  0  0  0  0  0  0  0  0  0  0
  1  2  1  0
  1 16  1  0
  1 17  1  0
  1 18  1  0
  2  3  1  0
  3  4  2  0
  3  5  1  0
  6  5  1  1
  6  7  1  0
  6  8  1  0
  6 15  1  0
  7 19  1  0
  7 20  1  0
  7 21  1  0
  8  9  1  0
  8 22  1  0
  8 23  1  0
  9 10  1  0
  9 24  1  0
  9 25  1  0
 10 11  1  0
 10 26  1  0
 10 27  1  0
 11 12  2  0
 11 28  1  0
 12 13  1  0
 12 14  1  0
 13 29  1  0
 13 30  1  0
 13 31  1  0
 14 15  1  0
 14 32  1  0
 14 33  1  0
 15 34  1  0
 15 35  1  0
M  END

