
     RDKit          3D

 49 51  0  0  0  0  0  0  0  0999 V2000
    1.5193   -0.3330   -0.5185 C   0  0  0  0  0  0  0  0  0  0  0  0
    2.5767   -0.3111    0.4173 O   0  0  0  0  0  0  0  0  0  0  0  0
    3.0522    0.8724    0.8636 C   0  0  0  0  0  0  0  0  0  0  0  0
    4.1072    0.7948    1.7972 C   0  0  0  0  0  0  0  0  0  0  0  0
    4.6483    1.9611    2.3013 C   0  0  0  0  0  0  0  0  0  0  0  0
    4.1626    3.2197    1.8970 C   0  0  0  0  0  0  0  0  0  0  0  0
    4.7962    4.4085    2.4842 C   0  0  0  0  0  0  0  0  0  0  0  0
    5.6960    4.4129    3.2832 O   0  0  0  0  0  0  0  0  0  0  0  0
    4.2984    5.6246    2.0677 O   0  0  0  0  0  0  0  0  0  0  0  0
    3.2841    5.7675    1.1707 C   0  0  0  0  0  0  0  0  0  0  0  0
    2.9397    7.0953    0.8901 C   0  0  0  0  0  0  0  0  0  0  0  0
    1.9169    7.3888   -0.0110 C   0  0  0  0  0  0  0  0  0  0  0  0
    1.4817    8.8327   -0.3333 C   0  0  1  0  0  0  0  0  0  0  0  0
    2.4531    9.8612    0.2752 C   0  0  0  0  0  0  0  0  0  0  0  0
    1.4654    9.0352   -1.8663 C   0  0  0  0  0  0  0  0  0  0  0  0
    0.0553    9.0246    0.2704 C   0  0  0  0  0  0  0  0  0  0  0  0
   -0.5918   10.4023    0.0810 C   0  0  0  0  0  0  0  0  0  0  0  0
   -1.9874   10.4393    0.6863 C   0  0  0  0  0  0  0  0  0  0  0  0
   -2.4946   11.7638    0.4524 O   0  0  0  0  0  0  0  0  0  0  0  0
   -3.7969   11.9907    0.9394 N   0  0  0  0  0  0  0  0  0  0  0  0
   -4.3474   11.0700    1.4908 O   0  0  0  0  0  0  0  0  0  0  0  0
   -4.1859   13.1024    0.7296 O   0  0  0  0  0  0  0  0  0  0  0  0
    1.2614    6.2997   -0.6139 C   0  0  0  0  0  0  0  0  0  0  0  0
    1.6051    4.9766   -0.3353 C   0  0  0  0  0  0  0  0  0  0  0  0
    0.9359    3.9641   -0.9523 O   0  0  0  0  0  0  0  0  0  0  0  0
    2.6444    4.6566    0.5809 C   0  0  0  0  0  0  0  0  0  0  0  0
    3.1034    3.3123    0.9598 C   0  0  0  0  0  0  0  0  0  0  0  0
    2.5574    2.1142    0.4508 C   0  0  0  0  0  0  0  0  0  0  0  0
    1.3103   -1.3908   -0.7259 H   0  0  0  0  0  0  0  0  0  0  0  0
    1.7971    0.1706   -1.4612 H   0  0  0  0  0  0  0  0  0  0  0  0
    0.6074    0.1425   -0.1164 H   0  0  0  0  0  0  0  0  0  0  0  0
    4.4704   -0.1893    2.0985 H   0  0  0  0  0  0  0  0  0  0  0  0
    5.4649    1.9380    3.0250 H   0  0  0  0  0  0  0  0  0  0  0  0
    3.5074    7.8651    1.4082 H   0  0  0  0  0  0  0  0  0  0  0  0
    3.4836    9.6876   -0.0700 H   0  0  0  0  0  0  0  0  0  0  0  0
    2.4534    9.8313    1.3757 H   0  0  0  0  0  0  0  0  0  0  0  0
    2.1769   10.8816   -0.0284 H   0  0  0  0  0  0  0  0  0  0  0  0
    2.4505    8.7989   -2.2977 H   0  0  0  0  0  0  0  0  0  0  0  0
    1.2324   10.0795   -2.1248 H   0  0  0  0  0  0  0  0  0  0  0  0
    0.7196    8.3978   -2.3658 H   0  0  0  0  0  0  0  0  0  0  0  0
    0.1121    8.7976    1.3495 H   0  0  0  0  0  0  0  0  0  0  0  0
   -0.6119    8.2587   -0.1608 H   0  0  0  0  0  0  0  0  0  0  0  0
   -0.6688   10.6581   -0.9878 H   0  0  0  0  0  0  0  0  0  0  0  0
    0.0133   11.1915    0.5539 H   0  0  0  0  0  0  0  0  0  0  0  0
   -1.9701   10.2367    1.7696 H   0  0  0  0  0  0  0  0  0  0  0  0
   -2.6577    9.7005    0.2175 H   0  0  0  0  0  0  0  0  0  0  0  0
    0.4528    6.4706   -1.3302 H   0  0  0  0  0  0  0  0  0  0  0  0
    0.2686    4.3407   -1.5409 H   0  0  0  0  0  0  0  0  0  0  0  0
    1.7476    2.1701   -0.2661 H   0  0  0  0  0  0  0  0  0  0  0  0
  1  2  1  0
  1 29  1  0
  1 30  1  0
  1 31  1  0
  2  3  1  0
  3  4  2  0
  3 28  1  0
  4  5  1  0
  4 32  1  0
  5  6  2  0
  5 33  1  0
  6  7  1  0
  6 27  1  0
  7  8  2  0
  7  9  1  0
  9 10  1  0
 10 11  1  0
 10 26  2  0
 11 12  2  0
 11 34  1  0
 12 13  1  0
 12 23  1  0
 13 14  1  1
 13 15  1  0
 13 16  1  0
 14 35  1  0
 14 36  1  0
 14 37  1  0
 15 38  1  0
 15 39  1  0
 15 40  1  0
 16 17  1  0
 16 41  1  0
 16 42  1  0
 17 18  1  0
 17 43  1  0
 17 44  1  0
 18 19  1  0
 18 45  1  0
 18 46  1  0
 19 20  1  0
 20 21  2  0
 20 22  1  0
 23 24  2  0
 23 47  1  0
 24 25  1  0
 24 26  1  0
 25 48  1  0
 26 27  1  0
 27 28  2  0
 28 49  1  0
M  CHG  2  20   1  22  -1
M  END

