
     RDKit          3D

 38 39  0  0  0  0  0  0  0  0999 V2000
    3.2286   -2.4692    1.1012 C   0  0  0  0  0  0  0  0  0  0  0  0
    3.0029   -1.1465    0.3739 C   0  0  0  0  0  0  0  0  0  0  0  0
    2.8843    0.0124    1.2849 N   0  0  0  0  0  0  0  0  0  0  0  0
    1.7317    0.5391    1.7945 C   0  0  0  0  0  0  0  0  0  0  0  0
    1.7101    1.5435    2.4951 O   0  0  0  0  0  0  0  0  0  0  0  0
    0.3732   -0.1624    1.4895 C   0  0  0  0  0  0  0  0  0  0  0  0
    0.2529   -1.2651    0.9786 O   0  0  0  0  0  0  0  0  0  0  0  0
   -0.6443    0.6347    1.9106 N   0  0  0  0  0  0  0  0  0  0  0  0
   -2.0276    0.4179    1.8664 C   0  0  0  0  0  0  0  0  0  0  0  0
   -2.6115   -0.7395    1.3186 C   0  0  0  0  0  0  0  0  0  0  0  0
   -4.0018   -0.8152    1.3402 C   0  0  0  0  0  0  0  0  0  0  0  0
   -4.7511    0.2284    1.8894 C   0  0  0  0  0  0  0  0  0  0  0  0
   -4.0735    1.3403    2.4121 C   0  0  0  0  0  0  0  0  0  0  0  0
   -4.8056    2.5089    3.0206 C   0  0  0  0  0  0  0  0  0  0  0  0
   -2.7374    1.4180    2.3930 N   0  0  0  0  0  0  0  0  0  0  0  0
    4.1185    0.6370    1.6893 C   0  0  0  0  0  0  0  0  0  0  0  0
    4.5797    0.5099    3.0053 C   0  0  0  0  0  0  0  0  0  0  0  0
    5.7894    1.0976    3.3811 C   0  0  0  0  0  0  0  0  0  0  0  0
    6.5472    1.8103    2.4466 C   0  0  0  0  0  0  0  0  0  0  0  0
    6.0859    1.9394    1.1336 C   0  0  0  0  0  0  0  0  0  0  0  0
    4.8724    1.3587    0.7558 C   0  0  0  0  0  0  0  0  0  0  0  0
    3.3721   -3.2795    0.3683 H   0  0  0  0  0  0  0  0  0  0  0  0
    2.3540   -2.7208    1.7178 H   0  0  0  0  0  0  0  0  0  0  0  0
    4.1234   -2.4297    1.7425 H   0  0  0  0  0  0  0  0  0  0  0  0
    2.1028   -1.2061   -0.2452 H   0  0  0  0  0  0  0  0  0  0  0  0
    3.8546   -0.9308   -0.2891 H   0  0  0  0  0  0  0  0  0  0  0  0
   -0.3484    1.5010    2.3630 H   0  0  0  0  0  0  0  0  0  0  0  0
   -1.9855   -1.5271    0.9060 H   0  0  0  0  0  0  0  0  0  0  0  0
   -4.5026   -1.6947    0.9269 H   0  0  0  0  0  0  0  0  0  0  0  0
   -5.8418    0.1847    1.9148 H   0  0  0  0  0  0  0  0  0  0  0  0
   -5.8934    2.3518    3.0335 H   0  0  0  0  0  0  0  0  0  0  0  0
   -4.5889    3.4302    2.4556 H   0  0  0  0  0  0  0  0  0  0  0  0
   -4.4583    2.6805    4.0519 H   0  0  0  0  0  0  0  0  0  0  0  0
    3.9827   -0.0440    3.7323 H   0  0  0  0  0  0  0  0  0  0  0  0
    6.1426    0.9958    4.4103 H   0  0  0  0  0  0  0  0  0  0  0  0
    7.4946    2.2675    2.7426 H   0  0  0  0  0  0  0  0  0  0  0  0
    6.6679    2.5023    0.3996 H   0  0  0  0  0  0  0  0  0  0  0  0
    4.5004    1.4718   -0.2652 H   0  0  0  0  0  0  0  0  0  0  0  0
  1  2  1  0
  1 22  1  0
  1 23  1  0
  1 24  1  0
  2  3  1  0
  2 25  1  0
  2 26  1  0
  3  4  1  0
  3 16  1  0
  4  5  2  0
  4  6  1  0
  6  7  2  0
  6  8  1  0
  8  9  1  0
  8 27  1  0
  9 10  2  0
  9 15  1  0
 10 11  1  0
 10 28  1  0
 11 12  2  0
 11 29  1  0
 12 13  1  0
 12 30  1  0
 13 14  1  0
 13 15  2  0
 14 31  1  0
 14 32  1  0
 14 33  1  0
 16 17  2  0
 16 21  1  0
 17 18  1  0
 17 34  1  0
 18 19  2  0
 18 35  1  0
 19 20  1  0
 19 36  1  0
 20 21  2  0
 20 37  1  0
 21 38  1  0
M  END

