
     RDKit          3D

 49 51  0  0  0  0  0  0  0  0999 V2000
    1.1710   -0.2598    0.1680 C   0  0  0  0  0  0  0  0  0  0  0  0
    2.6543   -0.0098    0.2077 C   0  0  0  0  0  0  0  0  0  0  0  0
    3.1970    1.2318    0.1709 C   0  0  0  0  0  0  0  0  0  0  0  0
    2.3611    2.4708   -0.0210 C   0  0  0  0  0  0  0  0  0  0  0  0
    1.6233    2.6002   -0.9896 O   0  0  0  0  0  0  0  0  0  0  0  0
    2.5228    3.4778    0.9078 N   0  0  0  0  0  0  0  0  0  0  0  0
    1.8973    4.7653    0.6640 C   0  0  0  0  0  0  0  0  0  0  0  0
    3.1220    3.3035    2.2163 C   0  0  0  0  0  0  0  0  0  0  0  0
    4.7002    1.4137    0.1192 C   0  0  2  0  0  0  0  0  0  0  0  0
    5.1965    1.8415   -1.2670 C   0  0  0  0  0  0  0  0  0  0  0  0
    5.8211    3.0810   -1.4582 C   0  0  0  0  0  0  0  0  0  0  0  0
    5.9785    3.8902   -0.3926 F   0  0  0  0  0  0  0  0  0  0  0  0
    6.2873    3.5228   -2.6940 C   0  0  0  0  0  0  0  0  0  0  0  0
    6.1286    2.6911   -3.8038 C   0  0  0  0  0  0  0  0  0  0  0  0
    5.5127    1.4439   -3.6714 C   0  0  0  0  0  0  0  0  0  0  0  0
    5.0611    1.0501   -2.4159 C   0  0  0  0  0  0  0  0  0  0  0  0
    4.4719   -0.1499   -2.2983 F   0  0  0  0  0  0  0  0  0  0  0  0
    5.3397    0.2033    0.6147 N   0  0  0  0  0  0  0  0  0  0  0  0
    4.8404   -1.0604    0.5662 C   0  0  0  0  0  0  0  0  0  0  0  0
    5.8295   -2.3777    0.8412 S   0  0  0  0  0  0  0  0  0  0  0  0
    3.4764   -1.1553    0.3242 N   0  0  0  0  0  0  0  0  0  0  0  0
    2.9021   -2.4707    0.1615 C   0  0  0  0  0  0  0  0  0  0  0  0
    2.4568   -3.1967    1.2673 C   0  0  0  0  0  0  0  0  0  0  0  0
    1.8787   -4.4554    1.0881 C   0  0  0  0  0  0  0  0  0  0  0  0
    1.7380   -5.0159   -0.1903 C   0  0  0  0  0  0  0  0  0  0  0  0
    1.1217   -6.3794   -0.3884 C   0  0  0  0  0  0  0  0  0  0  0  0
    2.1970   -4.2716   -1.2903 C   0  0  0  0  0  0  0  0  0  0  0  0
    2.7755   -3.0140   -1.1213 C   0  0  0  0  0  0  0  0  0  0  0  0
    0.6207    0.6829    0.0922 H   0  0  0  0  0  0  0  0  0  0  0  0
    0.8392   -0.8176    1.0569 H   0  0  0  0  0  0  0  0  0  0  0  0
    0.9061   -0.8716   -0.7072 H   0  0  0  0  0  0  0  0  0  0  0  0
    1.5256    4.7884   -0.3667 H   0  0  0  0  0  0  0  0  0  0  0  0
    2.6268    5.5793    0.8171 H   0  0  0  0  0  0  0  0  0  0  0  0
    1.0461    4.9344    1.3493 H   0  0  0  0  0  0  0  0  0  0  0  0
    3.3740    2.2499    2.3901 H   0  0  0  0  0  0  0  0  0  0  0  0
    2.4097    3.6102    3.0035 H   0  0  0  0  0  0  0  0  0  0  0  0
    4.0338    3.9173    2.3343 H   0  0  0  0  0  0  0  0  0  0  0  0
    4.9930    2.2303    0.7924 H   0  0  0  0  0  0  0  0  0  0  0  0
    6.7628    4.5021   -2.7651 H   0  0  0  0  0  0  0  0  0  0  0  0
    6.4871    3.0177   -4.7825 H   0  0  0  0  0  0  0  0  0  0  0  0
    5.3729    0.7731   -4.5203 H   0  0  0  0  0  0  0  0  0  0  0  0
    6.3396    0.2272    0.7845 H   0  0  0  0  0  0  0  0  0  0  0  0
    2.5757   -2.7791    2.2690 H   0  0  0  0  0  0  0  0  0  0  0  0
    1.5358   -5.0158    1.9622 H   0  0  0  0  0  0  0  0  0  0  0  0
    0.7829   -6.8135    0.5637 H   0  0  0  0  0  0  0  0  0  0  0  0
    1.8438   -7.0809   -0.8391 H   0  0  0  0  0  0  0  0  0  0  0  0
    0.2535   -6.3329   -1.0668 H   0  0  0  0  0  0  0  0  0  0  0  0
    2.1042   -4.6864   -2.2983 H   0  0  0  0  0  0  0  0  0  0  0  0
    3.1397   -2.4451   -1.9789 H   0  0  0  0  0  0  0  0  0  0  0  0
  1  2  1  0
  1 29  1  0
  1 30  1  0
  1 31  1  0
  2  3  2  0
  2 21  1  0
  3  4  1  0
  3  9  1  0
  4  5  2  0
  4  6  1  0
  6  7  1  0
  6  8  1  0
  7 32  1  0
  7 33  1  0
  7 34  1  0
  8 35  1  0
  8 36  1  0
  8 37  1  0
  9 10  1  0
  9 18  1  0
  9 38  1  1
 10 11  2  0
 10 16  1  0
 11 12  1  0
 11 13  1  0
 13 14  2  0
 13 39  1  0
 14 15  1  0
 14 40  1  0
 15 16  2  0
 15 41  1  0
 16 17  1  0
 18 19  1  0
 18 42  1  0
 19 20  2  0
 19 21  1  0
 21 22  1  0
 22 23  2  0
 22 28  1  0
 23 24  1  0
 23 43  1  0
 24 25  2  0
 24 44  1  0
 25 26  1  0
 25 27  1  0
 26 45  1  0
 26 46  1  0
 26 47  1  0
 27 28  2  0
 27 48  1  0
 28 49  1  0
M  END

