
     RDKit          3D

 27 29  0  0  0  0  0  0  0  0999 V2000
    3.0304    1.9712    1.6786 O   0  0  0  0  0  0  0  0  0  0  0  0
    3.0833    1.0994    2.5060 C   0  0  0  0  0  0  0  0  0  0  0  0
    3.0329    1.4040    3.8239 O   0  0  0  0  0  0  0  0  0  0  0  0
    3.2067   -0.3357    2.1382 C   0  0  0  0  0  0  0  0  0  0  0  0
    3.2195   -0.8070    0.8420 C   0  0  0  0  0  0  0  0  0  0  0  0
    3.3466   -2.2164    0.7596 C   0  0  0  0  0  0  0  0  0  0  0  0
    3.4276   -2.8408    1.9928 C   0  0  0  0  0  0  0  0  0  0  0  0
    3.5157   -4.2767    2.3222 C   0  0  0  0  0  0  0  0  0  0  0  0
    2.6561   -4.8170    3.2724 C   0  0  0  0  0  0  0  0  0  0  0  0
    2.6761   -6.1930    3.5955 C   0  0  0  0  0  0  0  0  0  0  0  0
    3.5539   -7.0444    2.9622 C   0  0  0  0  0  0  0  0  0  0  0  0
    4.4679   -6.5437    1.9949 C   0  0  0  0  0  0  0  0  0  0  0  0
    5.3256   -7.4288    1.4152 N   0  0  0  0  0  0  0  0  0  0  0  0
    6.2035   -6.9788    0.5481 C   0  0  0  0  0  0  0  0  0  0  0  0
    6.3235   -5.6111    0.1916 C   0  0  0  0  0  0  0  0  0  0  0  0
    5.4593   -4.6989    0.7560 C   0  0  0  0  0  0  0  0  0  0  0  0
    4.4697   -5.1420    1.6765 C   0  0  0  0  0  0  0  0  0  0  0  0
    3.3637   -1.6532    3.2706 S   0  0  0  0  0  0  0  0  0  0  0  0
    3.0604    0.6141    4.3828 H   0  0  0  0  0  0  0  0  0  0  0  0
    3.1280   -0.1324   -0.0098 H   0  0  0  0  0  0  0  0  0  0  0  0
    3.3408   -2.7719   -0.1789 H   0  0  0  0  0  0  0  0  0  0  0  0
    1.9276   -4.1659    3.7611 H   0  0  0  0  0  0  0  0  0  0  0  0
    1.9760   -6.5762    4.3417 H   0  0  0  0  0  0  0  0  0  0  0  0
    3.5859   -8.1142    3.1760 H   0  0  0  0  0  0  0  0  0  0  0  0
    6.8771   -7.7180    0.0962 H   0  0  0  0  0  0  0  0  0  0  0  0
    7.0962   -5.2954   -0.5128 H   0  0  0  0  0  0  0  0  0  0  0  0
    5.5404   -3.6388    0.5128 H   0  0  0  0  0  0  0  0  0  0  0  0
  1  2  2  0
  2  3  1  0
  2  4  1  0
  3 19  1  0
  4  5  2  0
  4 18  1  0
  5  6  1  0
  5 20  1  0
  6  7  2  0
  6 21  1  0
  7  8  1  0
  7 18  1  0
  8  9  2  0
  8 17  1  0
  9 10  1  0
  9 22  1  0
 10 11  2  0
 10 23  1  0
 11 12  1  0
 11 24  1  0
 12 13  1  0
 12 17  2  0
 13 14  2  0
 14 15  1  0
 14 25  1  0
 15 16  2  0
 15 26  1  0
 16 17  1  0
 16 27  1  0
M  END

