
     RDKit          3D

 48 50  0  0  0  0  0  0  0  0999 V2000
    0.6538   -0.3302   -0.0104 C   0  0  0  0  0  0  0  0  0  0  0  0
    2.1566   -0.0162    0.0660 C   0  0  1  0  0  0  0  0  0  0  0  0
    2.5132    0.4868    1.4707 C   0  0  0  0  0  0  0  0  0  0  0  0
    2.9945   -1.2489   -0.3804 C   0  0  1  0  0  0  0  0  0  0  0  0
    2.6498   -1.6175   -1.7469 N   0  0  0  0  0  0  0  0  0  0  0  0
    2.6560   -2.9323   -2.1601 C   0  0  0  0  0  0  0  0  0  0  0  0
    3.0899   -3.8449   -1.4793 O   0  0  0  0  0  0  0  0  0  0  0  0
    2.1100   -3.1626   -3.5149 C   0  0  0  0  0  0  0  0  0  0  0  0
    1.9930   -4.3138   -4.2485 C   0  0  0  0  0  0  0  0  0  0  0  0
    1.3820   -3.9391   -5.4856 C   0  0  0  0  0  0  0  0  0  0  0  0
    1.1722   -2.5891   -5.4125 C   0  0  0  0  0  0  0  0  0  0  0  0
    1.6088   -2.1058   -4.2241 O   0  0  0  0  0  0  0  0  0  0  0  0
    4.5154   -1.0421   -0.1799 C   0  0  0  0  0  0  0  0  0  0  0  0
    5.0026   -1.0882    0.9351 O   0  0  0  0  0  0  0  0  0  0  0  0
    5.2140   -0.7772   -1.3293 N   0  0  0  0  0  0  0  0  0  0  0  0
    6.5865   -0.5274   -1.4962 C   0  0  0  0  0  0  0  0  0  0  0  0
    7.4994   -0.4828   -0.4289 C   0  0  0  0  0  0  0  0  0  0  0  0
    8.8478   -0.2262   -0.6887 C   0  0  0  0  0  0  0  0  0  0  0  0
    9.3225   -0.0037   -1.9867 C   0  0  0  0  0  0  0  0  0  0  0  0
   10.7870    0.2975   -2.2378 C   0  0  0  0  0  0  0  0  0  0  0  0
   11.4302   -0.6073   -3.1848 N   0  0  0  0  0  0  0  0  0  0  0  0
   12.1066   -1.7575   -2.9523 C   0  0  0  0  0  0  0  0  0  0  0  0
   12.4811   -2.3077   -4.0920 N   0  0  0  0  0  0  0  0  0  0  0  0
   11.9911   -1.4414   -5.0166 C   0  0  0  0  0  0  0  0  0  0  0  0
   11.3471   -0.3974   -4.5148 N   0  0  0  0  0  0  0  0  0  0  0  0
    8.4025   -0.0481   -3.0467 C   0  0  0  0  0  0  0  0  0  0  0  0
    7.0576   -0.3090   -2.8056 C   0  0  0  0  0  0  0  0  0  0  0  0
    0.0622    0.5593    0.2565 H   0  0  0  0  0  0  0  0  0  0  0  0
    0.3911   -1.1325    0.6990 H   0  0  0  0  0  0  0  0  0  0  0  0
    0.3311   -0.6549   -1.0111 H   0  0  0  0  0  0  0  0  0  0  0  0
    2.3798    0.7981   -0.6519 H   0  0  0  0  0  0  0  0  0  0  0  0
    2.3528   -0.3021    2.2230 H   0  0  0  0  0  0  0  0  0  0  0  0
    1.8677    1.3407    1.7312 H   0  0  0  0  0  0  0  0  0  0  0  0
    3.5596    0.8061    1.5544 H   0  0  0  0  0  0  0  0  0  0  0  0
    2.7571   -2.1029    0.2742 H   0  0  0  0  0  0  0  0  0  0  0  0
    2.1422   -0.9515   -2.3201 H   0  0  0  0  0  0  0  0  0  0  0  0
    2.3124   -5.3007   -3.9232 H   0  0  0  0  0  0  0  0  0  0  0  0
    1.1303   -4.5870   -6.3225 H   0  0  0  0  0  0  0  0  0  0  0  0
    0.7408   -1.8631   -6.0971 H   0  0  0  0  0  0  0  0  0  0  0  0
    4.6663   -0.8454   -2.1809 H   0  0  0  0  0  0  0  0  0  0  0  0
    7.1446   -0.6575    0.5839 H   0  0  0  0  0  0  0  0  0  0  0  0
    9.5456   -0.2003    0.1539 H   0  0  0  0  0  0  0  0  0  0  0  0
   11.3505    0.2470   -1.2949 H   0  0  0  0  0  0  0  0  0  0  0  0
   10.9167    1.3104   -2.6490 H   0  0  0  0  0  0  0  0  0  0  0  0
   12.2995   -2.1390   -1.9494 H   0  0  0  0  0  0  0  0  0  0  0  0
   12.1157   -1.5751   -6.0913 H   0  0  0  0  0  0  0  0  0  0  0  0
    8.7509    0.1130   -4.0697 H   0  0  0  0  0  0  0  0  0  0  0  0
    6.3558   -0.3439   -3.6445 H   0  0  0  0  0  0  0  0  0  0  0  0
  1  2  1  0
  1 28  1  0
  1 29  1  0
  1 30  1  0
  2  3  1  0
  2  4  1  0
  2 31  1  6
  3 32  1  0
  3 33  1  0
  3 34  1  0
  4  5  1  0
  4 13  1  0
  4 35  1  1
  5  6  1  0
  5 36  1  0
  6  7  2  0
  6  8  1  0
  8  9  2  0
  8 12  1  0
  9 10  1  0
  9 37  1  0
 10 11  2  0
 10 38  1  0
 11 12  1  0
 11 39  1  0
 13 14  2  0
 13 15  1  0
 15 16  1  0
 15 40  1  0
 16 17  2  0
 16 27  1  0
 17 18  1  0
 17 41  1  0
 18 19  2  0
 18 42  1  0
 19 20  1  0
 19 26  1  0
 20 21  1  0
 20 43  1  0
 20 44  1  0
 21 22  1  0
 21 25  1  0
 22 23  2  0
 22 45  1  0
 23 24  1  0
 24 25  2  0
 24 46  1  0
 26 27  2  0
 26 47  1  0
 27 48  1  0
M  END

