
     RDKit          3D

 53 56  0  0  0  0  0  0  0  0999 V2000
    1.5119    1.8790   -2.8557 C   0  0  0  0  0  0  0  0  0  0  0  0
    2.9107    1.3511   -2.6536 C   0  0  0  0  0  0  0  0  0  0  0  0
    3.1672   -0.0254   -2.6533 C   0  0  0  0  0  0  0  0  0  0  0  0
    4.4446   -0.5596   -2.4703 C   0  0  0  0  0  0  0  0  0  0  0  0
    5.5254    0.3135   -2.2774 C   0  0  0  0  0  0  0  0  0  0  0  0
    6.8560   -0.1064   -2.0833 N   0  0  0  0  0  0  0  0  0  0  0  0
    7.3533   -1.4016   -2.0430 C   0  0  0  0  0  0  0  0  0  0  0  0
    6.6659   -2.3983   -2.1760 O   0  0  0  0  0  0  0  0  0  0  0  0
    8.7247   -1.4301   -1.8338 N   0  0  0  0  0  0  0  0  0  0  0  0
    9.5705   -2.5538   -1.7341 C   0  0  0  0  0  0  0  0  0  0  0  0
   10.9374   -2.3252   -1.5183 C   0  0  0  0  0  0  0  0  0  0  0  0
   11.8481   -3.3800   -1.4071 C   0  0  0  0  0  0  0  0  0  0  0  0
   11.3961   -4.7018   -1.5121 C   0  0  0  0  0  0  0  0  0  0  0  0
   12.1948   -5.8034   -1.4199 O   0  0  0  0  0  0  0  0  0  0  0  0
   13.5724   -5.6400   -1.2047 C   0  0  0  0  0  0  0  0  0  0  0  0
   14.2658   -6.9789   -1.1362 C   0  0  0  0  0  0  0  0  0  0  0  0
   13.5850   -8.1695   -1.2716 C   0  0  0  0  0  0  0  0  0  0  0  0
   14.2716   -9.4220   -1.2019 C   0  0  0  0  0  0  0  0  0  0  0  0
   13.8182  -10.5464   -1.3009 O   0  0  0  0  0  0  0  0  0  0  0  0
   15.7165   -9.2618   -0.9791 N   0  0  0  0  0  0  0  0  0  0  0  0
   16.4628  -10.4144   -0.8980 C   0  0  0  0  0  0  0  0  0  0  0  0
   17.8113  -10.3747   -0.6929 C   0  0  0  0  0  0  0  0  0  0  0  0
   18.4540   -9.1098   -0.5605 C   0  0  0  0  0  0  0  0  0  0  0  0
   17.7153   -7.9599   -0.6405 C   0  0  0  0  0  0  0  0  0  0  0  0
   16.2994   -7.9986   -0.8561 C   0  0  0  0  0  0  0  0  0  0  0  0
   15.5984   -6.8828   -0.9317 N   0  0  0  0  0  0  0  0  0  0  0  0
   10.0293   -4.9356   -1.7278 C   0  0  0  0  0  0  0  0  0  0  0  0
    9.1228   -3.8862   -1.8386 C   0  0  0  0  0  0  0  0  0  0  0  0
    5.2810    1.6992   -2.2754 C   0  0  0  0  0  0  0  0  0  0  0  0
    4.0014    2.2304   -2.4589 C   0  0  0  0  0  0  0  0  0  0  0  0
    3.7934    3.7252   -2.4483 C   0  0  0  0  0  0  0  0  0  0  0  0
    0.7928    1.0580   -2.9916 H   0  0  0  0  0  0  0  0  0  0  0  0
    1.4427    2.5331   -3.7422 H   0  0  0  0  0  0  0  0  0  0  0  0
    1.1711    2.4818   -1.9959 H   0  0  0  0  0  0  0  0  0  0  0  0
    2.3333   -0.7177   -2.8027 H   0  0  0  0  0  0  0  0  0  0  0  0
    4.6116   -1.6335   -2.4751 H   0  0  0  0  0  0  0  0  0  0  0  0
    7.5151    0.6521   -1.9586 H   0  0  0  0  0  0  0  0  0  0  0  0
    9.2024   -0.5425   -1.7384 H   0  0  0  0  0  0  0  0  0  0  0  0
   11.3091   -1.2990   -1.4336 H   0  0  0  0  0  0  0  0  0  0  0  0
   12.9005   -3.1510   -1.2396 H   0  0  0  0  0  0  0  0  0  0  0  0
   13.7752   -5.0989   -0.2598 H   0  0  0  0  0  0  0  0  0  0  0  0
   14.0436   -5.0498   -2.0149 H   0  0  0  0  0  0  0  0  0  0  0  0
   12.5097   -8.1910   -1.4351 H   0  0  0  0  0  0  0  0  0  0  0  0
   15.8702  -11.3225   -1.0128 H   0  0  0  0  0  0  0  0  0  0  0  0
   18.3758  -11.3060   -0.6333 H   0  0  0  0  0  0  0  0  0  0  0  0
   19.5330   -9.0605   -0.3957 H   0  0  0  0  0  0  0  0  0  0  0  0
   18.1556   -6.9670   -0.5464 H   0  0  0  0  0  0  0  0  0  0  0  0
    9.6858   -5.9690   -1.8084 H   0  0  0  0  0  0  0  0  0  0  0  0
    8.0665   -4.0816   -2.0060 H   0  0  0  0  0  0  0  0  0  0  0  0
    6.1197    2.3880   -2.1253 H   0  0  0  0  0  0  0  0  0  0  0  0
    4.7380    4.2644   -2.2849 H   0  0  0  0  0  0  0  0  0  0  0  0
    3.0903    4.0315   -1.6549 H   0  0  0  0  0  0  0  0  0  0  0  0
    3.3636    4.0817   -3.4000 H   0  0  0  0  0  0  0  0  0  0  0  0
  1  2  1  0
  1 32  1  0
  1 33  1  0
  1 34  1  0
  2  3  2  0
  2 30  1  0
  3  4  1  0
  3 35  1  0
  4  5  2  0
  4 36  1  0
  5  6  1  0
  5 29  1  0
  6  7  1  0
  6 37  1  0
  7  8  2  0
  7  9  1  0
  9 10  1  0
  9 38  1  0
 10 11  2  0
 10 28  1  0
 11 12  1  0
 11 39  1  0
 12 13  2  0
 12 40  1  0
 13 14  1  0
 13 27  1  0
 14 15  1  0
 15 16  1  0
 15 41  1  0
 15 42  1  0
 16 17  2  0
 16 26  1  0
 17 18  1  0
 17 43  1  0
 18 19  2  0
 18 20  1  0
 20 21  1  0
 20 25  1  0
 21 22  2  0
 21 44  1  0
 22 23  1  0
 22 45  1  0
 23 24  2  0
 23 46  1  0
 24 25  1  0
 24 47  1  0
 25 26  2  0
 27 28  2  0
 27 48  1  0
 28 49  1  0
 29 30  2  0
 29 50  1  0
 30 31  1  0
 31 51  1  0
 31 52  1  0
 31 53  1  0
M  END

