
     RDKit          3D

 54 56  0  0  0  0  0  0  0  0999 V2000
    0.8594    0.6071   -0.1092 C   0  0  0  0  0  0  0  0  0  0  0  0
    2.3777    0.4585   -0.1333 C   0  0  0  0  0  0  0  0  0  0  0  0
    2.9380   -0.1607    1.0724 N   0  0  0  0  0  0  0  0  0  0  0  0
    2.3794   -1.4633    1.4236 C   0  0  0  0  0  0  0  0  0  0  0  0
    2.6067   -2.5401    0.3504 C   0  0  0  0  0  0  0  0  0  0  0  0
    1.8307   -2.7663   -0.5393 O   0  0  0  0  0  0  0  0  0  0  0  0
    3.7984   -3.1852    0.3969 O   0  0  0  0  0  0  0  0  0  0  0  0
    4.3885   -0.1113    1.0917 C   0  0  1  0  0  0  0  0  0  0  0  0
    5.0499    1.2845    1.2299 C   0  0  0  0  0  0  0  0  0  0  0  0
    6.0770    0.6724    2.2152 C   0  0  2  0  0  0  0  0  0  0  0  0
    7.3108    0.3114    1.5357 N   0  0  0  0  0  0  0  0  0  0  0  0
    8.2660   -0.4397    2.1967 C   0  0  0  0  0  0  0  0  0  0  0  0
    8.0541   -0.9729    3.2761 O   0  0  0  0  0  0  0  0  0  0  0  0
    9.4757   -0.5467    1.5395 N   0  0  0  0  0  0  0  0  0  0  0  0
   10.5076   -1.4576    2.0365 C   0  0  1  0  0  0  0  0  0  0  0  0
    9.9976   -2.3205    2.4951 H   0  0  0  0  0  0  0  0  0  0  0  0
   11.4428   -1.8834    0.9473 C   0  0  0  0  0  0  0  0  0  0  0  0
   11.0507   -2.9499   -0.3800 S   0  0  0  0  0  0  0  0  0  0  0  0
   12.6713   -2.8687   -0.9869 C   0  0  0  0  0  0  0  0  0  0  0  0
   13.4793   -2.0745   -0.2184 C   0  0  0  0  0  0  0  0  0  0  0  0
   12.7697   -1.5076    0.8899 C   0  0  0  0  0  0  0  0  0  0  0  0
   13.3863   -0.7154    1.7984 O   0  0  0  0  0  0  0  0  0  0  0  0
   12.5234    0.0520    2.6913 C   0  0  2  0  0  0  0  0  0  0  0  0
   12.0239    1.2895    1.9372 C   0  0  0  0  0  0  0  0  0  0  0  0
   13.4262    0.4665    3.8503 C   0  0  0  0  0  0  0  0  0  0  0  0
   11.3788   -0.8744    3.1884 C   0  0  2  0  0  0  0  0  0  0  0  0
   10.7171   -0.3037    3.8553 H   0  0  0  0  0  0  0  0  0  0  0  0
   11.8942   -1.9381    3.9604 O   0  0  0  0  0  0  0  0  0  0  0  0
    5.1070   -0.5235    2.4022 C   0  0  0  0  0  0  0  0  0  0  0  0
    0.5341    1.2340   -0.9539 H   0  0  0  0  0  0  0  0  0  0  0  0
    0.5256    1.0880    0.8244 H   0  0  0  0  0  0  0  0  0  0  0  0
    0.3549   -0.3650   -0.2115 H   0  0  0  0  0  0  0  0  0  0  0  0
    2.8353    1.4583   -0.2129 H   0  0  0  0  0  0  0  0  0  0  0  0
    2.6753   -0.0923   -1.0528 H   0  0  0  0  0  0  0  0  0  0  0  0
    1.2941   -1.3735    1.5620 H   0  0  0  0  0  0  0  0  0  0  0  0
    2.8080   -1.7836    2.3877 H   0  0  0  0  0  0  0  0  0  0  0  0
    4.3014   -2.9148    1.1787 H   0  0  0  0  0  0  0  0  0  0  0  0
    4.8404   -0.6459    0.2282 H   0  0  0  0  0  0  0  0  0  0  0  0
    4.3748    1.9810    1.7479 H   0  0  0  0  0  0  0  0  0  0  0  0
    5.4435    1.7674    0.3212 H   0  0  0  0  0  0  0  0  0  0  0  0
    6.2821    1.2491    3.1330 H   0  0  0  0  0  0  0  0  0  0  0  0
    7.6288    0.9511    0.8153 H   0  0  0  0  0  0  0  0  0  0  0  0
    9.5300   -0.2890    0.5611 H   0  0  0  0  0  0  0  0  0  0  0  0
   12.9389   -3.4148   -1.8904 H   0  0  0  0  0  0  0  0  0  0  0  0
   14.5344   -1.8821   -0.4137 H   0  0  0  0  0  0  0  0  0  0  0  0
   12.8789    1.9378    1.6919 H   0  0  0  0  0  0  0  0  0  0  0  0
   11.3179    1.8635    2.5563 H   0  0  0  0  0  0  0  0  0  0  0  0
   11.5158    1.0265    1.0009 H   0  0  0  0  0  0  0  0  0  0  0  0
   14.3016    1.0094    3.4641 H   0  0  0  0  0  0  0  0  0  0  0  0
   13.7656   -0.4133    4.4109 H   0  0  0  0  0  0  0  0  0  0  0  0
   12.8787    1.1261    4.5405 H   0  0  0  0  0  0  0  0  0  0  0  0
   12.5234   -2.4292    3.4121 H   0  0  0  0  0  0  0  0  0  0  0  0
    4.4581   -0.3553    3.2745 H   0  0  0  0  0  0  0  0  0  0  0  0
    5.5766   -1.5146    2.4828 H   0  0  0  0  0  0  0  0  0  0  0  0
  1  2  1  0
  1 30  1  0
  1 31  1  0
  1 32  1  0
  2  3  1  0
  2 33  1  0
  2 34  1  0
  3  4  1  0
  3  8  1  0
  4  5  1  0
  4 35  1  0
  4 36  1  0
  5  6  2  0
  5  7  1  0
  7 37  1  0
  8  9  1  0
  8 29  1  0
  8 38  1  6
  9 10  1  0
  9 39  1  0
  9 40  1  0
 10 11  1  0
 10 29  1  0
 10 41  1  1
 11 12  1  0
 11 42  1  0
 12 13  2  0
 12 14  1  0
 14 15  1  0
 14 43  1  0
 15 16  1  1
 15 17  1  0
 15 26  1  0
 17 18  1  0
 17 21  2  0
 18 19  1  0
 19 20  2  0
 19 44  1  0
 20 21  1  0
 20 45  1  0
 21 22  1  0
 22 23  1  0
 23 24  1  6
 23 25  1  0
 23 26  1  0
 24 46  1  0
 24 47  1  0
 24 48  1  0
 25 49  1  0
 25 50  1  0
 25 51  1  0
 26 27  1  1
 26 28  1  0
 28 52  1  0
 29 53  1  0
 29 54  1  0
M  END

