
     RDKit          3D

167188  0  0  0  0  0  0  0  0999 V2000
    0.1599   -2.4283    3.1410 O   0  0  0  0  0  0  0  0  0  0  0  0
    0.7989   -2.0712    1.8543 S   0  0  1  0  0  0  0  0  0  0  0  0
   -0.0277   -2.1414    0.6411 O   0  0  0  0  0  0  0  0  0  0  0  0
    1.4728   -0.4317    2.0249 C   0  0  0  0  0  0  0  0  0  0  0  0
    0.5613    0.6163    1.8259 C   0  0  0  0  0  0  0  0  0  0  0  0
    0.9330    1.9209    2.1138 C   0  0  0  0  0  0  0  0  0  0  0  0
    2.2220    2.2056    2.6140 C   0  0  0  0  0  0  0  0  0  0  0  0
    2.6271    3.5945    2.9502 C   0  0  0  0  0  0  0  0  0  0  0  0
    3.4832    3.8469    4.0517 C   0  0  0  0  0  0  0  0  0  0  0  0
    3.8882    5.1323    4.4002 C   0  0  0  0  0  0  0  0  0  0  0  0
    3.4318    6.2019    3.6195 C   0  0  0  0  0  0  0  0  0  0  0  0
    2.5633    5.9832    2.5157 C   0  0  0  0  0  0  0  0  0  0  0  0
    2.1675    4.6816    2.1902 C   0  0  0  0  0  0  0  0  0  0  0  0
    2.2708    7.2868    1.9512 C   0  0  0  0  0  0  0  0  0  0  0  0
    1.5024    7.7213    0.8614 C   0  0  0  0  0  0  0  0  0  0  0  0
    1.4435    9.0838    0.5727 C   0  0  0  0  0  0  0  0  0  0  0  0
    2.1502   10.0133    1.3592 C   0  0  0  0  0  0  0  0  0  0  0  0
    2.9216    9.6080    2.4490 C   0  0  0  0  0  0  0  0  0  0  0  0
    2.9693    8.2392    2.7420 C   0  0  0  0  0  0  0  0  0  0  0  0
    3.6703    7.5692    3.7509 N   0  0  0  0  0  0  0  0  0  0  0  0
    4.4908    8.1784    4.7401 C   0  0  0  0  0  0  0  0  0  0  0  0
    3.9486    9.1304    5.6166 C   0  0  0  0  0  0  0  0  0  0  0  0
    4.7593    9.7318    6.5821 C   0  0  0  0  0  0  0  0  0  0  0  0
    6.1073    9.3768    6.6925 C   0  0  0  0  0  0  0  0  0  0  0  0
    6.6456    8.4216    5.8247 C   0  0  0  0  0  0  0  0  0  0  0  0
    5.8456    7.8291    4.8447 C   0  0  0  0  0  0  0  0  0  0  0  0
    3.1151    1.1356    2.7748 C   0  0  0  0  0  0  0  0  0  0  0  0
    2.7743   -0.1953    2.4829 C   0  0  0  0  0  0  0  0  0  0  0  0
    3.8660   -1.2803    2.6702 C   0  0  2  0  0  0  0  0  0  0  0  0
    3.5209   -2.6780    2.0876 C   0  0  0  0  0  0  0  0  0  0  0  0
    4.5544   -3.6186    1.9760 C   0  0  0  0  0  0  0  0  0  0  0  0
    4.3661   -4.9197    1.4768 C   0  0  0  0  0  0  0  0  0  0  0  0
    5.5030   -5.8747    1.4116 C   0  0  0  0  0  0  0  0  0  0  0  0
    5.4681   -6.9998    0.5483 C   0  0  0  0  0  0  0  0  0  0  0  0
    6.5127   -7.9179    0.4704 C   0  0  0  0  0  0  0  0  0  0  0  0
    7.6371   -7.7084    1.2795 C   0  0  0  0  0  0  0  0  0  0  0  0
    7.7124   -6.5760    2.1334 C   0  0  0  0  0  0  0  0  0  0  0  0
    6.6482   -5.6753    2.2028 C   0  0  0  0  0  0  0  0  0  0  0  0
    9.0070   -6.6259    2.7846 C   0  0  0  0  0  0  0  0  0  0  0  0
    9.6500   -5.7945    3.7133 C   0  0  0  0  0  0  0  0  0  0  0  0
   10.9228   -6.1480    4.1605 C   0  0  0  0  0  0  0  0  0  0  0  0
   11.5494   -7.3188    3.6929 C   0  0  0  0  0  0  0  0  0  0  0  0
   10.9318   -8.1558    2.7615 C   0  0  0  0  0  0  0  0  0  0  0  0
    9.6595   -7.7921    2.3038 C   0  0  0  0  0  0  0  0  0  0  0  0
    8.8174   -8.4428    1.3896 N   0  0  0  0  0  0  0  0  0  0  0  0
    9.1171   -9.6424    0.6904 C   0  0  0  0  0  0  0  0  0  0  0  0
    8.2688  -10.7548    0.8019 C   0  0  0  0  0  0  0  0  0  0  0  0
    8.5602  -11.9293    0.1040 C   0  0  0  0  0  0  0  0  0  0  0  0
    9.7058  -12.0110   -0.6936 C   0  0  0  0  0  0  0  0  0  0  0  0
   10.5565  -10.9061   -0.7976 C   0  0  0  0  0  0  0  0  0  0  0  0
   10.2621   -9.7222   -0.1174 C   0  0  0  0  0  0  0  0  0  0  0  0
    3.0683   -5.2679    1.0441 C   0  0  0  0  0  0  0  0  0  0  0  0
    2.0263   -4.3556    1.1238 C   0  0  0  0  0  0  0  0  0  0  0  0
    2.2489   -3.0756    1.6517 C   0  0  0  0  0  0  0  0  0  0  0  0
    4.0648   -1.4494    4.2013 C   0  0  0  0  0  0  0  0  0  0  0  0
    2.9258   -1.6374    4.9967 C   0  0  0  0  0  0  0  0  0  0  0  0
    2.9759   -1.8158    6.3907 C   0  0  0  0  0  0  0  0  0  0  0  0
    1.7284   -2.0381    7.1676 C   0  0  0  0  0  0  0  0  0  0  0  0
    1.6822   -1.8059    8.5662 C   0  0  0  0  0  0  0  0  0  0  0  0
    0.5296   -2.0069    9.3222 C   0  0  0  0  0  0  0  0  0  0  0  0
   -0.6252   -2.4453    8.6613 C   0  0  0  0  0  0  0  0  0  0  0  0
   -0.6099   -2.6851    7.2615 C   0  0  0  0  0  0  0  0  0  0  0  0
    0.5600   -2.4867    6.5263 C   0  0  0  0  0  0  0  0  0  0  0  0
   -1.9391   -3.1360    6.8974 C   0  0  0  0  0  0  0  0  0  0  0  0
   -2.5367   -3.4842    5.6774 C   0  0  0  0  0  0  0  0  0  0  0  0
   -3.8795   -3.8614    5.6725 C   0  0  0  0  0  0  0  0  0  0  0  0
   -4.6244   -3.8827    6.8668 C   0  0  0  0  0  0  0  0  0  0  0  0
   -4.0523   -3.5316    8.0911 C   0  0  0  0  0  0  0  0  0  0  0  0
   -2.7012   -3.1639    8.0955 C   0  0  0  0  0  0  0  0  0  0  0  0
   -1.8926   -2.7420    9.1614 N   0  0  0  0  0  0  0  0  0  0  0  0
   -2.2972   -2.6343   10.5189 C   0  0  0  0  0  0  0  0  0  0  0  0
   -2.8035   -3.7548   11.1955 C   0  0  0  0  0  0  0  0  0  0  0  0
   -3.2074   -3.6433   12.5279 C   0  0  0  0  0  0  0  0  0  0  0  0
   -3.0940   -2.4226   13.2007 C   0  0  0  0  0  0  0  0  0  0  0  0
   -2.5819   -1.3079   12.5297 C   0  0  0  0  0  0  0  0  0  0  0  0
   -2.1929   -1.4071   11.1917 C   0  0  0  0  0  0  0  0  0  0  0  0
    4.2457   -1.7708    7.0058 C   0  0  0  0  0  0  0  0  0  0  0  0
    5.3918   -1.5683    6.2511 C   0  0  0  0  0  0  0  0  0  0  0  0
    5.3025   -1.4204    4.8594 C   0  0  0  0  0  0  0  0  0  0  0  0
    6.8541   -1.3383    4.0001 S   0  0  1  0  0  0  0  0  0  0  0  0
    7.7595   -0.4138    4.6968 O   0  0  0  0  0  0  0  0  0  0  0  0
    7.3318   -2.7197    3.7661 O   0  0  0  0  0  0  0  0  0  0  0  0
    6.3973   -0.6521    2.4215 C   0  0  0  0  0  0  0  0  0  0  0  0
    7.4561   -0.1244    1.6669 C   0  0  0  0  0  0  0  0  0  0  0  0
    7.2428    0.2656    0.3533 C   0  0  0  0  0  0  0  0  0  0  0  0
    5.9678    0.1294   -0.2371 C   0  0  0  0  0  0  0  0  0  0  0  0
    5.7288    0.5198   -1.6501 C   0  0  0  0  0  0  0  0  0  0  0  0
    4.8283   -0.2198   -2.4577 C   0  0  0  0  0  0  0  0  0  0  0  0
    4.5738    0.1132   -3.7851 C   0  0  0  0  0  0  0  0  0  0  0  0
    5.2319    1.2262   -4.3237 C   0  0  0  0  0  0  0  0  0  0  0  0
    6.1495    1.9811   -3.5437 C   0  0  0  0  0  0  0  0  0  0  0  0
    6.3911    1.6217   -2.2135 C   0  0  0  0  0  0  0  0  0  0  0  0
    6.6597    3.0326   -4.4027 C   0  0  0  0  0  0  0  0  0  0  0  0
    7.5651    4.0865   -4.2122 C   0  0  0  0  0  0  0  0  0  0  0  0
    7.8298    4.9537   -5.2710 C   0  0  0  0  0  0  0  0  0  0  0  0
    7.1932    4.7802   -6.5146 C   0  0  0  0  0  0  0  0  0  0  0  0
    6.2887    3.7399   -6.7310 C   0  0  0  0  0  0  0  0  0  0  0  0
    6.0340    2.8646   -5.6678 C   0  0  0  0  0  0  0  0  0  0  0  0
    5.1699    1.7655   -5.6077 N   0  0  0  0  0  0  0  0  0  0  0  0
    4.3611    1.2833   -6.6737 C   0  0  0  0  0  0  0  0  0  0  0  0
    4.9534    0.8742   -7.8780 C   0  0  0  0  0  0  0  0  0  0  0  0
    4.1552    0.4085   -8.9255 C   0  0  0  0  0  0  0  0  0  0  0  0
    2.7673    0.3304   -8.7743 C   0  0  0  0  0  0  0  0  0  0  0  0
    2.1777    0.7296   -7.5709 C   0  0  0  0  0  0  0  0  0  0  0  0
    2.9677    1.2136   -6.5254 C   0  0  0  0  0  0  0  0  0  0  0  0
    4.9274   -0.3772    0.5562 C   0  0  0  0  0  0  0  0  0  0  0  0
    5.1069   -0.7710    1.8923 C   0  0  0  0  0  0  0  0  0  0  0  0
   -0.4396    0.3862    1.4550 H   0  0  0  0  0  0  0  0  0  0  0  0
    0.2087    2.7269    1.9821 H   0  0  0  0  0  0  0  0  0  0  0  0
    3.8158    3.0101    4.6696 H   0  0  0  0  0  0  0  0  0  0  0  0
    4.5333    5.2946    5.2648 H   0  0  0  0  0  0  0  0  0  0  0  0
    1.5202    4.5128    1.3267 H   0  0  0  0  0  0  0  0  0  0  0  0
    0.9604    7.0003    0.2443 H   0  0  0  0  0  0  0  0  0  0  0  0
    0.8484    9.4354   -0.2733 H   0  0  0  0  0  0  0  0  0  0  0  0
    2.0975   11.0766    1.1113 H   0  0  0  0  0  0  0  0  0  0  0  0
    3.4716   10.3353    3.0481 H   0  0  0  0  0  0  0  0  0  0  0  0
    2.8901    9.3875    5.5413 H   0  0  0  0  0  0  0  0  0  0  0  0
    4.3303   10.4734    7.2605 H   0  0  0  0  0  0  0  0  0  0  0  0
    6.7371    9.8434    7.4536 H   0  0  0  0  0  0  0  0  0  0  0  0
    7.6994    8.1424    5.9018 H   0  0  0  0  0  0  0  0  0  0  0  0
    6.2671    7.0990    4.1509 H   0  0  0  0  0  0  0  0  0  0  0  0
    4.1300    1.3481    3.1140 H   0  0  0  0  0  0  0  0  0  0  0  0
    5.5546   -3.3259    2.2874 H   0  0  0  0  0  0  0  0  0  0  0  0
    4.6063   -7.1516   -0.1040 H   0  0  0  0  0  0  0  0  0  0  0  0
    6.4545   -8.7649   -0.2147 H   0  0  0  0  0  0  0  0  0  0  0  0
    6.7228   -4.8260    2.8831 H   0  0  0  0  0  0  0  0  0  0  0  0
    9.1609   -4.8834    4.0679 H   0  0  0  0  0  0  0  0  0  0  0  0
   11.4404   -5.5117    4.8823 H   0  0  0  0  0  0  0  0  0  0  0  0
   12.5435   -7.5810    4.0645 H   0  0  0  0  0  0  0  0  0  0  0  0
   11.4263   -9.0619    2.4080 H   0  0  0  0  0  0  0  0  0  0  0  0
    7.3883  -10.6951    1.4447 H   0  0  0  0  0  0  0  0  0  0  0  0
    7.8933  -12.7903    0.1957 H   0  0  0  0  0  0  0  0  0  0  0  0
    9.9352  -12.9335   -1.2324 H   0  0  0  0  0  0  0  0  0  0  0  0
   11.4509  -10.9599   -1.4234 H   0  0  0  0  0  0  0  0  0  0  0  0
   10.9113   -8.8499   -0.2147 H   0  0  0  0  0  0  0  0  0  0  0  0
    2.8636   -6.2675    0.6587 H   0  0  0  0  0  0  0  0  0  0  0  0
    1.0239   -4.6228    0.7830 H   0  0  0  0  0  0  0  0  0  0  0  0
    1.9523   -1.6414    4.5114 H   0  0  0  0  0  0  0  0  0  0  0  0
    2.5709   -1.4369    9.0809 H   0  0  0  0  0  0  0  0  0  0  0  0
    0.5343   -1.8201   10.3970 H   0  0  0  0  0  0  0  0  0  0  0  0
    0.5498   -2.6983    5.4565 H   0  0  0  0  0  0  0  0  0  0  0  0
   -1.9598   -3.4421    4.7497 H   0  0  0  0  0  0  0  0  0  0  0  0
   -4.3624   -4.1359    4.7316 H   0  0  0  0  0  0  0  0  0  0  0  0
   -5.6777   -4.1740    6.8377 H   0  0  0  0  0  0  0  0  0  0  0  0
   -4.6433   -3.5383    9.0083 H   0  0  0  0  0  0  0  0  0  0  0  0
   -2.8691   -4.7114   10.6734 H   0  0  0  0  0  0  0  0  0  0  0  0
   -3.6016   -4.5207   13.0468 H   0  0  0  0  0  0  0  0  0  0  0  0
   -3.4042   -2.3403   14.2451 H   0  0  0  0  0  0  0  0  0  0  0  0
   -2.4959   -0.3486   13.0463 H   0  0  0  0  0  0  0  0  0  0  0  0
   -1.8153   -0.5332   10.6571 H   0  0  0  0  0  0  0  0  0  0  0  0
    4.3442   -1.9140    8.0826 H   0  0  0  0  0  0  0  0  0  0  0  0
    6.3732   -1.5267    6.7279 H   0  0  0  0  0  0  0  0  0  0  0  0
    8.4435   -0.0385    2.1252 H   0  0  0  0  0  0  0  0  0  0  0  0
    8.0782    0.6496   -0.2351 H   0  0  0  0  0  0  0  0  0  0  0  0
    4.3370   -1.1000   -2.0376 H   0  0  0  0  0  0  0  0  0  0  0  0
    3.8888   -0.4873   -4.3853 H   0  0  0  0  0  0  0  0  0  0  0  0
    7.0774    2.2177   -1.6080 H   0  0  0  0  0  0  0  0  0  0  0  0
    8.0534    4.2282   -3.2447 H   0  0  0  0  0  0  0  0  0  0  0  0
    8.5333    5.7786   -5.1359 H   0  0  0  0  0  0  0  0  0  0  0  0
    7.4082    5.4760   -7.3298 H   0  0  0  0  0  0  0  0  0  0  0  0
    5.7948    3.6182   -7.6962 H   0  0  0  0  0  0  0  0  0  0  0  0
    6.0394    0.9154   -7.9831 H   0  0  0  0  0  0  0  0  0  0  0  0
    4.6235    0.0927   -9.8611 H   0  0  0  0  0  0  0  0  0  0  0  0
    2.1462   -0.0415   -9.5927 H   0  0  0  0  0  0  0  0  0  0  0  0
    1.0933    0.6757   -7.4469 H   0  0  0  0  0  0  0  0  0  0  0  0
    2.5096    1.5471   -5.5921 H   0  0  0  0  0  0  0  0  0  0  0  0
    3.9265   -0.4419    0.1270 H   0  0  0  0  0  0  0  0  0  0  0  0
  1  2  2  0
  2  3  2  0
  2  4  1  1
  2 54  1  0
  4  5  1  0
  4 28  2  0
  5  6  2  0
  5108  1  0
  6  7  1  0
  6109  1  0
  7  8  1  0
  7 27  2  0
  8  9  2  0
  8 13  1  0
  9 10  1  0
  9110  1  0
 10 11  2  0
 10111  1  0
 11 12  1  0
 11 20  1  0
 12 13  2  0
 12 14  1  0
 13112  1  0
 14 15  2  0
 14 19  1  0
 15 16  1  0
 15113  1  0
 16 17  2  0
 16114  1  0
 17 18  1  0
 17115  1  0
 18 19  2  0
 18116  1  0
 19 20  1  0
 20 21  1  0
 21 22  2  0
 21 26  1  0
 22 23  1  0
 22117  1  0
 23 24  2  0
 23118  1  0
 24 25  1  0
 24119  1  0
 25 26  2  0
 25120  1  0
 26121  1  0
 27 28  1  0
 27122  1  0
 29 28  1  1
 29 30  1  0
 29 55  1  0
 29107  1  0
 30 31  1  0
 30 54  2  0
 31 32  2  0
 31123  1  0
 32 33  1  0
 32 52  1  0
 33 34  2  0
 33 38  1  0
 34 35  1  0
 34124  1  0
 35 36  2  0
 35125  1  0
 36 37  1  0
 36 45  1  0
 37 38  2  0
 37 39  1  0
 38126  1  0
 39 40  2  0
 39 44  1  0
 40 41  1  0
 40127  1  0
 41 42  2  0
 41128  1  0
 42 43  1  0
 42129  1  0
 43 44  2  0
 43130  1  0
 44 45  1  0
 45 46  1  0
 46 47  2  0
 46 51  1  0
 47 48  1  0
 47131  1  0
 48 49  2  0
 48132  1  0
 49 50  1  0
 49133  1  0
 50 51  2  0
 50134  1  0
 51135  1  0
 52 53  2  0
 52136  1  0
 53 54  1  0
 53137  1  0
 55 56  2  0
 55 79  1  0
 56 57  1  0
 56138  1  0
 57 58  1  0
 57 77  2  0
 58 59  2  0
 58 63  1  0
 59 60  1  0
 59139  1  0
 60 61  2  0
 60140  1  0
 61 62  1  0
 61 70  1  0
 62 63  2  0
 62 64  1  0
 63141  1  0
 64 65  2  0
 64 69  1  0
 65 66  1  0
 65142  1  0
 66 67  2  0
 66143  1  0
 67 68  1  0
 67144  1  0
 68 69  2  0
 68145  1  0
 69 70  1  0
 70 71  1  0
 71 72  2  0
 71 76  1  0
 72 73  1  0
 72146  1  0
 73 74  2  0
 73147  1  0
 74 75  1  0
 74148  1  0
 75 76  2  0
 75149  1  0
 76150  1  0
 77 78  1  0
 77151  1  0
 78 79  2  0
 78152  1  0
 80 79  1  1
 80 81  2  0
 80 82  2  0
 80 83  1  0
 83 84  2  0
 83107  1  0
 84 85  1  0
 84153  1  0
 85 86  2  0
 85154  1  0
 86 87  1  0
 86106  1  0
 87 88  2  0
 87 92  1  0
 88 89  1  0
 88155  1  0
 89 90  2  0
 89156  1  0
 90 91  1  0
 90 99  1  0
 91 92  2  0
 91 93  1  0
 92157  1  0
 93 94  2  0
 93 98  1  0
 94 95  1  0
 94158  1  0
 95 96  2  0
 95159  1  0
 96 97  1  0
 96160  1  0
 97 98  2  0
 97161  1  0
 98 99  1  0
 99100  1  0
100101  2  0
100105  1  0
101102  1  0
101162  1  0
102103  2  0
102163  1  0
103104  1  0
103164  1  0
104105  2  0
104165  1  0
105166  1  0
106107  2  0
106167  1  0
M  END

