
     RDKit          3D

 42 42  0  0  0  0  0  0  0  0999 V2000
    1.0526    0.1190   -0.4892 C   0  0  0  0  0  0  0  0  0  0  0  0
    2.3925   -0.3336    0.0979 C   0  0  0  0  0  0  0  0  0  0  0  0
    2.9235    0.5556    1.2418 C   0  0  1  0  0  0  0  0  0  0  0  0
    2.0571    0.4230    2.5031 C   0  0  0  0  0  0  0  0  0  0  0  0
    4.4511    0.3412    1.4996 C   0  0  1  0  0  0  0  0  0  0  0  0
    4.8031   -1.0915    1.9177 C   0  0  0  0  0  0  0  0  0  0  0  0
    5.1645    0.6801    0.2985 O   0  0  0  0  0  0  0  0  0  0  0  0
    4.9692    1.3581    2.5384 C   0  0  0  0  0  0  0  0  0  0  0  0
    6.4153    1.3307    2.6402 N   0  0  0  0  0  0  0  0  0  0  0  0
    6.9648    2.3603    3.5127 C   0  0  0  0  0  0  0  0  0  0  0  0
    8.4702    2.3915    3.5011 C   0  0  0  0  0  0  0  0  0  0  0  0
    9.2985    3.5493    3.2787 C   0  0  0  0  0  0  0  0  0  0  0  0
   10.5981    3.1364    3.3671 C   0  0  0  0  0  0  0  0  0  0  0  0
   11.9091    3.8276    3.2324 C   0  0  0  0  0  0  0  0  0  0  0  0
   10.6249    1.7982    3.6270 O   0  0  0  0  0  0  0  0  0  0  0  0
    9.3378    1.3479    3.7092 C   0  0  0  0  0  0  0  0  0  0  0  0
    9.1456   -0.0962    4.0114 C   0  0  0  0  0  0  0  0  0  0  0  0
    0.7538   -0.5243   -1.3323 H   0  0  0  0  0  0  0  0  0  0  0  0
    1.1122    1.1538   -0.8660 H   0  0  0  0  0  0  0  0  0  0  0  0
    0.2378    0.0825    0.2512 H   0  0  0  0  0  0  0  0  0  0  0  0
    3.1348   -0.3381   -0.7174 H   0  0  0  0  0  0  0  0  0  0  0  0
    2.3028   -1.3783    0.4459 H   0  0  0  0  0  0  0  0  0  0  0  0
    2.8528    1.6006    0.8887 H   0  0  0  0  0  0  0  0  0  0  0  0
    2.1030   -0.5952    2.9241 H   0  0  0  0  0  0  0  0  0  0  0  0
    1.0008    0.6320    2.2758 H   0  0  0  0  0  0  0  0  0  0  0  0
    2.3555    1.1279    3.2929 H   0  0  0  0  0  0  0  0  0  0  0  0
    4.5435   -1.8144    1.1267 H   0  0  0  0  0  0  0  0  0  0  0  0
    4.2667   -1.3914    2.8305 H   0  0  0  0  0  0  0  0  0  0  0  0
    5.8808   -1.1600    2.1199 H   0  0  0  0  0  0  0  0  0  0  0  0
    5.2106   -0.1009   -0.2659 H   0  0  0  0  0  0  0  0  0  0  0  0
    4.5401    1.1298    3.5280 H   0  0  0  0  0  0  0  0  0  0  0  0
    4.5830    2.3637    2.2519 H   0  0  0  0  0  0  0  0  0  0  0  0
    6.8047    1.4205    1.7020 H   0  0  0  0  0  0  0  0  0  0  0  0
    6.5953    2.1695    4.5388 H   0  0  0  0  0  0  0  0  0  0  0  0
    6.5938    3.3781    3.2541 H   0  0  0  0  0  0  0  0  0  0  0  0
    8.9573    4.5631    3.0748 H   0  0  0  0  0  0  0  0  0  0  0  0
   11.7528    4.8955    3.0253 H   0  0  0  0  0  0  0  0  0  0  0  0
   12.5095    3.4014    2.4104 H   0  0  0  0  0  0  0  0  0  0  0  0
   12.5101    3.7397    4.1538 H   0  0  0  0  0  0  0  0  0  0  0  0
    9.7300   -0.7282    3.3216 H   0  0  0  0  0  0  0  0  0  0  0  0
    8.0834   -0.3493    3.8989 H   0  0  0  0  0  0  0  0  0  0  0  0
    9.4706   -0.3464    5.0368 H   0  0  0  0  0  0  0  0  0  0  0  0
  1  2  1  0
  1 18  1  0
  1 19  1  0
  1 20  1  0
  2  3  1  0
  2 21  1  0
  2 22  1  0
  3  4  1  0
  3  5  1  0
  3 23  1  6
  4 24  1  0
  4 25  1  0
  4 26  1  0
  5  6  1  0
  5  7  1  6
  5  8  1  0
  6 27  1  0
  6 28  1  0
  6 29  1  0
  7 30  1  0
  8  9  1  0
  8 31  1  0
  8 32  1  0
  9 10  1  0
  9 33  1  0
 10 11  1  0
 10 34  1  0
 10 35  1  0
 11 12  1  0
 11 16  2  0
 12 13  2  0
 12 36  1  0
 13 14  1  0
 13 15  1  0
 14 37  1  0
 14 38  1  0
 14 39  1  0
 15 16  1  0
 16 17  1  0
 17 40  1  0
 17 41  1  0
 17 42  1  0
M  END

