
     RDKit          3D

 43 42  0  0  0  0  0  0  0  0999 V2000
    0.5128   -2.0736    1.8185 C   0  0  0  0  0  0  0  0  0  0  0  0
    1.8262   -1.6012    1.9449 O   0  0  0  0  0  0  0  0  0  0  0  0
    2.4295   -1.2646    0.7259 C   0  0  0  0  0  0  0  0  0  0  0  0
    3.8838   -0.8752    0.9660 C   0  0  1  0  0  0  0  0  0  0  0  0
    3.9223    0.2812    1.8197 O   0  0  0  0  0  0  0  0  0  0  0  0
    4.0043    1.4999    1.2456 C   0  0  0  0  0  0  0  0  0  0  0  0
    4.0407    2.5848    2.2901 C   0  0  0  0  0  0  0  0  0  0  0  0
    4.0566    1.6766    0.0513 O   0  0  0  0  0  0  0  0  0  0  0  0
    4.6820   -1.9920    1.6779 C   0  0  1  0  0  0  0  0  0  0  0  0
    4.3772   -3.2589    1.1201 O   0  0  0  0  0  0  0  0  0  0  0  0
    4.9180   -3.5868   -0.1419 C   0  0  0  0  0  0  0  0  0  0  0  0
    6.2125   -1.7539    1.7134 C   0  0  1  0  0  0  0  0  0  0  0  0
    6.7197   -0.5237    2.4890 C   0  0  0  0  0  0  0  0  0  0  0  0
    6.7261    0.6533    1.6684 O   0  0  0  0  0  0  0  0  0  0  0  0
    7.7668    0.8267    0.8135 C   0  0  0  0  0  0  0  0  0  0  0  0
    7.6253    2.1191    0.0517 C   0  0  0  0  0  0  0  0  0  0  0  0
    8.6677    0.0335    0.7066 O   0  0  0  0  0  0  0  0  0  0  0  0
    6.8686   -2.9541    2.1724 O   0  0  0  0  0  0  0  0  0  0  0  0
    6.6946   -3.3639    3.4471 C   0  0  0  0  0  0  0  0  0  0  0  0
    7.3065   -4.7250    3.6601 C   0  0  0  0  0  0  0  0  0  0  0  0
    6.1208   -2.7146    4.2869 O   0  0  0  0  0  0  0  0  0  0  0  0
    0.1398   -2.3043    2.8270 H   0  0  0  0  0  0  0  0  0  0  0  0
    0.4612   -2.9952    1.2038 H   0  0  0  0  0  0  0  0  0  0  0  0
   -0.1585   -1.3194    1.3585 H   0  0  0  0  0  0  0  0  0  0  0  0
    1.9128   -0.4083    0.2448 H   0  0  0  0  0  0  0  0  0  0  0  0
    2.3940   -2.1122    0.0139 H   0  0  0  0  0  0  0  0  0  0  0  0
    4.3268   -0.6042   -0.0043 H   0  0  0  0  0  0  0  0  0  0  0  0
    3.3268    2.3734    3.0984 H   0  0  0  0  0  0  0  0  0  0  0  0
    3.8276    3.5546    1.8241 H   0  0  0  0  0  0  0  0  0  0  0  0
    5.0505    2.6058    2.7293 H   0  0  0  0  0  0  0  0  0  0  0  0
    4.3041   -2.0439    2.7072 H   0  0  0  0  0  0  0  0  0  0  0  0
    4.4252   -4.5167   -0.4623 H   0  0  0  0  0  0  0  0  0  0  0  0
    6.0058   -3.7724   -0.0961 H   0  0  0  0  0  0  0  0  0  0  0  0
    4.7236   -2.8171   -0.9130 H   0  0  0  0  0  0  0  0  0  0  0  0
    6.5913   -1.6567    0.6867 H   0  0  0  0  0  0  0  0  0  0  0  0
    7.7460   -0.7375    2.8173 H   0  0  0  0  0  0  0  0  0  0  0  0
    6.0902   -0.2894    3.3525 H   0  0  0  0  0  0  0  0  0  0  0  0
    7.7577    2.9676    0.7422 H   0  0  0  0  0  0  0  0  0  0  0  0
    6.6147    2.1997   -0.3760 H   0  0  0  0  0  0  0  0  0  0  0  0
    8.3893    2.1670   -0.7333 H   0  0  0  0  0  0  0  0  0  0  0  0
    6.6949   -5.4757    3.1345 H   0  0  0  0  0  0  0  0  0  0  0  0
    7.3282   -4.9559    4.7318 H   0  0  0  0  0  0  0  0  0  0  0  0
    8.3186   -4.7659    3.2321 H   0  0  0  0  0  0  0  0  0  0  0  0
  1  2  1  0
  1 22  1  0
  1 23  1  0
  1 24  1  0
  2  3  1  0
  3  4  1  0
  3 25  1  0
  3 26  1  0
  4  5  1  0
  4  9  1  0
  4 27  1  6
  5  6  1  0
  6  7  1  0
  6  8  2  0
  7 28  1  0
  7 29  1  0
  7 30  1  0
  9 10  1  0
  9 12  1  0
  9 31  1  1
 10 11  1  0
 11 32  1  0
 11 33  1  0
 11 34  1  0
 12 13  1  0
 12 18  1  0
 12 35  1  6
 13 14  1  0
 13 36  1  0
 13 37  1  0
 14 15  1  0
 15 16  1  0
 15 17  2  0
 16 38  1  0
 16 39  1  0
 16 40  1  0
 18 19  1  0
 19 20  1  0
 19 21  2  0
 20 41  1  0
 20 42  1  0
 20 43  1  0
M  END

