
     RDKit          3D

 32 33  0  0  0  0  0  0  0  0999 V2000
    1.3952   -0.2422    1.3134 N   0  0  0  0  0  0  0  0  0  0  0  0
    2.4870   -0.1656    0.9238 C   0  0  0  0  0  0  0  0  0  0  0  0
    3.8370   -0.0700    0.4475 C   0  0  0  0  0  0  0  0  0  0  0  0
    4.2444    1.0161   -0.3520 C   0  0  0  0  0  0  0  0  0  0  0  0
    5.5486    1.1097   -0.8213 C   0  0  0  0  0  0  0  0  0  0  0  0
    6.4977    0.1160   -0.5005 C   0  0  0  0  0  0  0  0  0  0  0  0
    7.8225    0.1615   -0.9977 N   0  0  0  0  0  0  0  0  0  0  0  0
    8.5411   -1.1019   -1.1762 C   0  0  0  0  0  0  0  0  0  0  0  0
    9.6046   -0.9997   -2.2714 C   0  0  2  0  0  0  0  0  0  0  0  0
   10.3200   -2.3400   -2.4571 C   0  0  0  0  0  0  0  0  0  0  0  0
   11.2355   -2.3913   -3.6782 C   0  0  0  0  0  0  0  0  0  0  0  0
   11.3904   -1.4865   -4.4511 O   0  0  0  0  0  0  0  0  0  0  0  0
   11.8852   -3.5620   -3.8559 O   0  0  0  0  0  0  0  0  0  0  0  0
   10.5608    0.1362   -1.9162 C   0  0  0  0  0  0  0  0  0  0  0  0
    9.7934    1.3158   -1.5733 N   0  0  0  0  0  0  0  0  0  0  0  0
    8.5004    1.3908   -1.1212 C   0  0  0  0  0  0  0  0  0  0  0  0
    7.9858    2.4634   -0.8583 O   0  0  0  0  0  0  0  0  0  0  0  0
    6.0883   -0.9659    0.3041 C   0  0  0  0  0  0  0  0  0  0  0  0
    4.7790   -1.0611    0.7687 C   0  0  0  0  0  0  0  0  0  0  0  0
    3.5217    1.7912   -0.6144 H   0  0  0  0  0  0  0  0  0  0  0  0
    5.8454    1.9591   -1.4303 H   0  0  0  0  0  0  0  0  0  0  0  0
    7.8058   -1.8730   -1.4493 H   0  0  0  0  0  0  0  0  0  0  0  0
    9.0169   -1.4308   -0.2301 H   0  0  0  0  0  0  0  0  0  0  0  0
    9.1049   -0.7415   -3.2197 H   0  0  0  0  0  0  0  0  0  0  0  0
    9.5773   -3.1519   -2.5648 H   0  0  0  0  0  0  0  0  0  0  0  0
   10.9169   -2.5932   -1.5607 H   0  0  0  0  0  0  0  0  0  0  0  0
   11.6556   -4.1975   -3.1626 H   0  0  0  0  0  0  0  0  0  0  0  0
   11.2127    0.3590   -2.7726 H   0  0  0  0  0  0  0  0  0  0  0  0
   11.2118   -0.1788   -1.0736 H   0  0  0  0  0  0  0  0  0  0  0  0
   10.2315    2.2272   -1.6394 H   0  0  0  0  0  0  0  0  0  0  0  0
    6.7980   -1.7403    0.5954 H   0  0  0  0  0  0  0  0  0  0  0  0
    4.4849   -1.9057    1.3948 H   0  0  0  0  0  0  0  0  0  0  0  0
  1  2  3  0
  2  3  1  0
  3  4  2  0
  3 19  1  0
  4  5  1  0
  4 20  1  0
  5  6  2  0
  5 21  1  0
  6  7  1  0
  6 18  1  0
  7  8  1  0
  7 16  1  0
  8  9  1  0
  8 22  1  0
  8 23  1  0
  9 10  1  0
  9 14  1  0
  9 24  1  6
 10 11  1  0
 10 25  1  0
 10 26  1  0
 11 12  2  0
 11 13  1  0
 13 27  1  0
 14 15  1  0
 14 28  1  0
 14 29  1  0
 15 16  1  0
 15 30  1  0
 16 17  2  0
 18 19  2  0
 18 31  1  0
 19 32  1  0
M  END

