
     RDKit          3D

 22 23  0  0  0  0  0  0  0  0999 V2000
    4.2866   -1.2458   -3.6226 N   0  0  0  0  0  0  0  0  0  0  0  0
    4.4970   -0.7911   -2.5744 C   0  0  0  0  0  0  0  0  0  0  0  0
    4.7267   -0.2686   -1.2671 C   0  0  0  0  0  0  0  0  0  0  0  0
    5.2148    0.9265   -0.9845 N   0  0  0  0  0  0  0  0  0  0  0  0
    5.2638    0.9863    0.3737 C   0  0  0  0  0  0  0  0  0  0  0  0
    4.7974   -0.1929    0.9271 C   0  0  0  0  0  0  0  0  0  0  0  0
    4.4529   -1.0004   -0.1266 N   0  0  0  0  0  0  0  0  0  0  0  0
    3.8782   -2.3364   -0.0416 C   0  0  0  0  0  0  0  0  0  0  0  0
    2.3757   -2.3221    0.2496 C   0  0  1  0  0  0  0  0  0  0  0  0
    1.4575   -1.8401   -0.8977 C   0  0  0  0  0  0  0  0  0  0  0  0
    0.3519   -2.7588   -0.7252 N   0  0  0  0  0  0  0  0  0  0  0  0
    0.7205   -3.8945   -0.0437 C   0  0  0  0  0  0  0  0  0  0  0  0
    0.1161   -4.9174    0.1005 O   0  0  0  0  0  0  0  0  0  0  0  0
    1.9676   -3.6655    0.4976 O   0  0  0  0  0  0  0  0  0  0  0  0
    5.6357    1.8664    0.8964 H   0  0  0  0  0  0  0  0  0  0  0  0
    4.6955   -0.5215    1.9590 H   0  0  0  0  0  0  0  0  0  0  0  0
    4.3852   -2.8899    0.7620 H   0  0  0  0  0  0  0  0  0  0  0  0
    4.0740   -2.8674   -0.9842 H   0  0  0  0  0  0  0  0  0  0  0  0
    2.1868   -1.7257    1.1613 H   0  0  0  0  0  0  0  0  0  0  0  0
    1.9438   -1.9438   -1.8854 H   0  0  0  0  0  0  0  0  0  0  0  0
    1.1571   -0.7889   -0.7706 H   0  0  0  0  0  0  0  0  0  0  0  0
   -0.4299   -2.8127   -1.3669 H   0  0  0  0  0  0  0  0  0  0  0  0
  1  2  3  0
  2  3  1  0
  3  4  2  0
  3  7  1  0
  4  5  1  0
  5  6  2  0
  5 15  1  0
  6  7  1  0
  6 16  1  0
  7  8  1  0
  8  9  1  0
  8 17  1  0
  8 18  1  0
  9 10  1  0
  9 14  1  0
  9 19  1  1
 10 11  1  0
 10 20  1  0
 10 21  1  0
 11 12  1  0
 11 22  1  0
 12 13  2  0
 12 14  1  0
M  END

