
     RDKit          3D

 35 35  0  0  0  0  0  0  0  0999 V2000
    3.2552   -3.2509   -3.8429 C   0  0  0  0  0  0  0  0  0  0  0  0
    3.8543   -3.9474   -2.6652 C   0  0  0  0  0  0  0  0  0  0  0  0
    4.7942   -4.8458   -2.8149 N   0  0  0  0  0  0  0  0  0  0  0  0
    5.1341   -5.2696   -1.5331 O   0  0  0  0  0  0  0  0  0  0  0  0
    4.4045   -4.6329   -0.6119 C   0  0  0  0  0  0  0  0  0  0  0  0
    4.6482   -4.9749    0.8125 C   0  0  0  0  0  0  0  0  0  0  0  0
    3.5526   -3.7717   -1.2703 C   0  0  0  0  0  0  0  0  0  0  0  0
    2.4064   -2.6312   -0.5781 S   0  0  1  0  0  0  0  0  0  0  0  0
    2.5312   -2.7262    0.8761 O   0  0  0  0  0  0  0  0  0  0  0  0
    2.5334   -1.3607   -1.2905 O   0  0  0  0  0  0  0  0  0  0  0  0
    0.8797   -3.1519   -1.0187 N   0  0  0  0  0  0  0  0  0  0  0  0
    0.1327   -4.3459   -0.6240 C   0  0  1  0  0  0  0  0  0  0  0  0
    0.8641   -5.1906    0.3371 C   0  0  0  0  0  0  0  0  0  0  0  0
    1.3652   -5.9360    1.0677 N   0  0  0  0  0  0  0  0  0  0  0  0
   -1.3041   -4.0405   -0.1249 C   0  0  0  0  0  0  0  0  0  0  0  0
   -1.4935   -3.4589    1.2888 C   0  0  1  0  0  0  0  0  0  0  0  0
   -0.9180   -2.0478    1.4682 C   0  0  0  0  0  0  0  0  0  0  0  0
   -2.9876   -3.4877    1.6443 C   0  0  0  0  0  0  0  0  0  0  0  0
    3.7434   -3.5923   -4.7651 H   0  0  0  0  0  0  0  0  0  0  0  0
    3.3697   -2.1617   -3.7395 H   0  0  0  0  0  0  0  0  0  0  0  0
    2.1757   -3.4618   -3.9137 H   0  0  0  0  0  0  0  0  0  0  0  0
    5.6565   -5.3962    0.9252 H   0  0  0  0  0  0  0  0  0  0  0  0
    3.9070   -5.7166    1.1538 H   0  0  0  0  0  0  0  0  0  0  0  0
    4.5251   -4.0841    1.4409 H   0  0  0  0  0  0  0  0  0  0  0  0
    0.4751   -2.5756   -1.7503 H   0  0  0  0  0  0  0  0  0  0  0  0
    0.0223   -4.9905   -1.5180 H   0  0  0  0  0  0  0  0  0  0  0  0
   -1.8561   -4.9937   -0.1904 H   0  0  0  0  0  0  0  0  0  0  0  0
   -1.7662   -3.3710   -0.8735 H   0  0  0  0  0  0  0  0  0  0  0  0
   -0.9711   -4.1322    1.9930 H   0  0  0  0  0  0  0  0  0  0  0  0
   -1.3589   -1.3440    0.7404 H   0  0  0  0  0  0  0  0  0  0  0  0
    0.1731   -2.0233    1.3523 H   0  0  0  0  0  0  0  0  0  0  0  0
   -1.1537   -1.6684    2.4755 H   0  0  0  0  0  0  0  0  0  0  0  0
   -3.5695   -2.8375    0.9680 H   0  0  0  0  0  0  0  0  0  0  0  0
   -3.1526   -3.1269    2.6715 H   0  0  0  0  0  0  0  0  0  0  0  0
   -3.4068   -4.5048    1.5744 H   0  0  0  0  0  0  0  0  0  0  0  0
  1  2  1  0
  1 19  1  0
  1 20  1  0
  1 21  1  0
  2  3  2  0
  2  7  1  0
  3  4  1  0
  4  5  1  0
  5  6  1  0
  5  7  2  0
  6 22  1  0
  6 23  1  0
  6 24  1  0
  7  8  1  0
  8  9  2  0
  8 10  2  0
  8 11  1  1
 11 12  1  0
 11 25  1  0
 12 13  1  0
 12 15  1  0
 12 26  1  6
 13 14  3  0
 15 16  1  0
 15 27  1  0
 15 28  1  0
 16 17  1  0
 16 18  1  0
 16 29  1  1
 17 30  1  0
 17 31  1  0
 17 32  1  0
 18 33  1  0
 18 34  1  0
 18 35  1  0
M  END

