
     RDKit          3D

 45 46  0  0  0  0  0  0  0  0999 V2000
    0.7917    0.3976    5.2373 C   0  0  0  0  0  0  0  0  0  0  0  0
    2.2846    0.7018    5.2930 C   0  0  0  0  0  0  0  0  0  0  0  0
    2.9905    0.5669    3.6204 S   0  0  1  0  0  0  0  0  0  0  0  0
    2.8925   -0.8409    3.1985 O   0  0  0  0  0  0  0  0  0  0  0  0
    2.4020    1.6329    2.7910 O   0  0  0  0  0  0  0  0  0  0  0  0
    4.7559    0.9514    3.8234 C   0  0  0  0  0  0  0  0  0  0  0  0
    5.4483    0.8388    2.4538 C   0  0  0  0  0  0  0  0  0  0  0  0
    6.8665    1.1004    2.5255 N   0  0  0  0  0  0  0  0  0  0  0  0
    7.4962    2.3330    2.3148 C   0  0  0  0  0  0  0  0  0  0  0  0
    6.7191    3.5203    1.8435 C   0  0  0  0  0  0  0  0  0  0  0  0
    8.8467    2.2112    2.5801 C   0  0  0  0  0  0  0  0  0  0  0  0
    9.9107    3.2607    2.4679 C   0  0  0  0  0  0  0  0  0  0  0  0
    9.0695    0.8438    2.9856 C   0  0  0  0  0  0  0  0  0  0  0  0
   10.2139    0.1190    3.3653 C   0  0  0  0  0  0  0  0  0  0  0  0
   10.1031   -1.2296    3.7097 C   0  0  0  0  0  0  0  0  0  0  0  0
   11.3175   -2.0158    4.1629 C   0  0  0  0  0  0  0  0  0  0  0  0
   11.3626   -3.3488    3.5849 N   0  0  0  0  0  0  0  0  0  0  0  0
   12.4996   -4.1441    4.0009 C   0  0  0  0  0  0  0  0  0  0  0  0
    8.8365   -1.8617    3.6589 C   0  0  0  0  0  0  0  0  0  0  0  0
    7.6862   -1.1740    3.2792 C   0  0  0  0  0  0  0  0  0  0  0  0
    7.8140    0.1818    2.9446 C   0  0  0  0  0  0  0  0  0  0  0  0
    0.3544    0.4756    6.2442 H   0  0  0  0  0  0  0  0  0  0  0  0
    0.6192   -0.6201    4.8578 H   0  0  0  0  0  0  0  0  0  0  0  0
    0.2770    1.1088    4.5750 H   0  0  0  0  0  0  0  0  0  0  0  0
    2.8370   -0.0146    5.9199 H   0  0  0  0  0  0  0  0  0  0  0  0
    2.4926    1.7272    5.6349 H   0  0  0  0  0  0  0  0  0  0  0  0
    5.1714    0.2317    4.5439 H   0  0  0  0  0  0  0  0  0  0  0  0
    4.8249    1.9705    4.2316 H   0  0  0  0  0  0  0  0  0  0  0  0
    4.9750    1.5411    1.7548 H   0  0  0  0  0  0  0  0  0  0  0  0
    5.2817   -0.1723    2.0532 H   0  0  0  0  0  0  0  0  0  0  0  0
    6.2503    3.3447    0.8595 H   0  0  0  0  0  0  0  0  0  0  0  0
    7.3797    4.3911    1.7411 H   0  0  0  0  0  0  0  0  0  0  0  0
    5.9100    3.8010    2.5400 H   0  0  0  0  0  0  0  0  0  0  0  0
    9.5034    4.2358    2.1629 H   0  0  0  0  0  0  0  0  0  0  0  0
   10.6806    2.9808    1.7276 H   0  0  0  0  0  0  0  0  0  0  0  0
   10.4343    3.4093    3.4284 H   0  0  0  0  0  0  0  0  0  0  0  0
   11.1919    0.6091    3.3908 H   0  0  0  0  0  0  0  0  0  0  0  0
   11.2897   -2.1368    5.2640 H   0  0  0  0  0  0  0  0  0  0  0  0
   12.2340   -1.4164    3.9556 H   0  0  0  0  0  0  0  0  0  0  0  0
   11.3218   -3.2832    2.5684 H   0  0  0  0  0  0  0  0  0  0  0  0
   12.4458   -4.3371    5.0864 H   0  0  0  0  0  0  0  0  0  0  0  0
   13.4911   -3.6750    3.8048 H   0  0  0  0  0  0  0  0  0  0  0  0
   12.4829   -5.1213    3.4931 H   0  0  0  0  0  0  0  0  0  0  0  0
    8.7797   -2.9224    3.9120 H   0  0  0  0  0  0  0  0  0  0  0  0
    6.7225   -1.6879    3.2418 H   0  0  0  0  0  0  0  0  0  0  0  0
  1  2  1  0
  1 22  1  0
  1 23  1  0
  1 24  1  0
  3  2  1  1
  2 25  1  0
  2 26  1  0
  3  4  2  0
  3  5  2  0
  3  6  1  0
  6  7  1  0
  6 27  1  0
  6 28  1  0
  7  8  1  0
  7 29  1  0
  7 30  1  0
  8  9  1  0
  8 21  1  0
  9 10  1  0
  9 11  2  0
 10 31  1  0
 10 32  1  0
 10 33  1  0
 11 12  1  0
 11 13  1  0
 12 34  1  0
 12 35  1  0
 12 36  1  0
 13 14  1  0
 13 21  2  0
 14 15  2  0
 14 37  1  0
 15 16  1  0
 15 19  1  0
 16 17  1  0
 16 38  1  0
 16 39  1  0
 17 18  1  0
 17 40  1  0
 18 41  1  0
 18 42  1  0
 18 43  1  0
 19 20  2  0
 19 44  1  0
 20 21  1  0
 20 45  1  0
M  END

