
     RDKit          3D

 44 46  0  0  0  0  0  0  0  0999 V2000
    1.8792   -0.3741   -1.3996 C   0  0  0  0  0  0  0  0  0  0  0  0
    3.1714   -0.1262   -0.7785 N   0  0  0  0  0  0  0  0  0  0  0  0
    3.9307    0.9399   -1.4150 C   0  0  0  0  0  0  0  0  0  0  0  0
    3.4141   -0.3993    0.5540 C   0  0  0  0  0  0  0  0  0  0  0  0
    4.1508    0.5000    1.2251 N   0  0  0  0  0  0  0  0  0  0  0  0
    4.3880    0.2772    2.5142 C   0  0  0  0  0  0  0  0  0  0  0  0
    3.9593   -0.7492    3.2359 N   0  0  0  0  0  0  0  0  0  0  0  0
    3.2727   -1.6891    2.5627 C   0  0  0  0  0  0  0  0  0  0  0  0
    2.9781   -1.5989    1.2000 C   0  0  0  0  0  0  0  0  0  0  0  0
    2.3762   -2.7922    0.4905 C   0  0  0  0  0  0  0  0  0  0  0  0
    2.6843   -4.0811    1.2527 C   0  0  0  0  0  0  0  0  0  0  0  0
    2.2714   -3.9628    2.6421 N   0  0  0  0  0  0  0  0  0  0  0  0
    1.6054   -4.9665    3.2675 C   0  0  0  0  0  0  0  0  0  0  0  0
    1.3394   -5.0859    4.6015 C   0  0  0  0  0  0  0  0  0  0  0  0
    0.5615   -6.2445    5.0473 C   0  0  0  0  0  0  0  0  0  0  0  0
    0.1439   -7.0851    4.2499 O   0  0  0  0  0  0  0  0  0  0  0  0
    0.2687   -6.4585    6.5227 C   0  0  0  0  0  0  0  0  0  0  0  0
   -0.3560   -7.6802    6.8407 C   0  0  0  0  0  0  0  0  0  0  0  0
   -0.6935   -8.0383    8.1423 C   0  0  0  0  0  0  0  0  0  0  0  0
   -0.4100   -7.1528    9.1870 C   0  0  0  0  0  0  0  0  0  0  0  0
    0.2013   -5.9328    8.9096 C   0  0  0  0  0  0  0  0  0  0  0  0
    0.5431   -5.5742    7.5944 C   0  0  0  0  0  0  0  0  0  0  0  0
    1.1314   -4.3673    7.3670 O   0  0  0  0  0  0  0  0  0  0  0  0
    2.8450   -2.8702    3.4053 C   0  0  0  0  0  0  0  0  0  0  0  0
    1.3538    0.5827   -1.5833 H   0  0  0  0  0  0  0  0  0  0  0  0
    1.2321   -0.9770   -0.7564 H   0  0  0  0  0  0  0  0  0  0  0  0
    1.9873   -0.8887   -2.3701 H   0  0  0  0  0  0  0  0  0  0  0  0
    3.9139    0.7806   -2.5049 H   0  0  0  0  0  0  0  0  0  0  0  0
    4.9685    0.9327   -1.0632 H   0  0  0  0  0  0  0  0  0  0  0  0
    3.5115    1.9413   -1.2006 H   0  0  0  0  0  0  0  0  0  0  0  0
    4.9957    1.0292    3.0341 H   0  0  0  0  0  0  0  0  0  0  0  0
    2.7839   -2.8614   -0.5312 H   0  0  0  0  0  0  0  0  0  0  0  0
    1.2800   -2.7026    0.3922 H   0  0  0  0  0  0  0  0  0  0  0  0
    3.7690   -4.3007    1.1880 H   0  0  0  0  0  0  0  0  0  0  0  0
    2.1526   -4.9327    0.8057 H   0  0  0  0  0  0  0  0  0  0  0  0
    1.2344   -5.7613    2.6119 H   0  0  0  0  0  0  0  0  0  0  0  0
    1.6928   -4.3656    5.3315 H   0  0  0  0  0  0  0  0  0  0  0  0
   -0.5668   -8.3420    5.9990 H   0  0  0  0  0  0  0  0  0  0  0  0
   -1.1742   -8.9984    8.3436 H   0  0  0  0  0  0  0  0  0  0  0  0
   -0.6643   -7.4072   10.2193 H   0  0  0  0  0  0  0  0  0  0  0  0
    0.4226   -5.2315    9.7216 H   0  0  0  0  0  0  0  0  0  0  0  0
    1.2352   -3.9051    8.2090 H   0  0  0  0  0  0  0  0  0  0  0  0
    3.7146   -3.2025    4.0057 H   0  0  0  0  0  0  0  0  0  0  0  0
    2.1004   -2.5079    4.1351 H   0  0  0  0  0  0  0  0  0  0  0  0
  1  2  1  0
  1 25  1  0
  1 26  1  0
  1 27  1  0
  2  3  1  0
  2  4  1  0
  3 28  1  0
  3 29  1  0
  3 30  1  0
  4  5  2  0
  4  9  1  0
  5  6  1  0
  6  7  2  0
  6 31  1  0
  7  8  1  0
  8  9  2  0
  8 24  1  0
  9 10  1  0
 10 11  1  0
 10 32  1  0
 10 33  1  0
 11 12  1  0
 11 34  1  0
 11 35  1  0
 12 13  1  0
 12 24  1  0
 13 14  2  0
 13 36  1  0
 14 15  1  0
 14 37  1  0
 15 16  2  0
 15 17  1  0
 17 18  2  0
 17 22  1  0
 18 19  1  0
 18 38  1  0
 19 20  2  0
 19 39  1  0
 20 21  1  0
 20 40  1  0
 21 22  2  0
 21 41  1  0
 22 23  1  0
 23 42  1  0
 24 43  1  0
 24 44  1  0
M  END

