
     RDKit          3D

 29 29  0  0  0  0  0  0  0  0999 V2000
    1.0994   -0.3026    0.1488 C   0  0  0  0  0  0  0  0  0  0  0  0
    2.6141   -0.0716   -0.0244 C   0  0  1  0  0  0  0  0  0  0  0  0
    2.7946    1.1471   -0.9586 C   0  0  0  0  0  0  0  0  0  0  0  0
    3.2097    0.1884    1.3782 C   0  0  0  0  0  0  0  0  0  0  0  0
    3.1997   -1.3697   -0.6618 C   0  0  0  0  0  0  0  0  0  0  0  0
    2.4456   -2.2955   -0.9271 O   0  0  0  0  0  0  0  0  0  0  0  0
    4.5511   -1.4881   -0.9371 N   0  0  0  0  0  0  0  0  0  0  0  0
    5.0344   -2.7573   -1.4879 C   0  0  0  0  0  0  0  0  0  0  0  0
    5.9151   -2.5042   -2.7068 C   0  0  0  0  0  0  0  0  0  0  0  0
    6.9821   -1.6243   -2.4028 O   0  0  0  0  0  0  0  0  0  0  0  0
    6.5125   -0.3883   -1.9161 C   0  0  0  0  0  0  0  0  0  0  0  0
    5.6436   -0.5603   -0.6661 C   0  0  0  0  0  0  0  0  0  0  0  0
    0.6389    0.5920    0.5975 H   0  0  0  0  0  0  0  0  0  0  0  0
    0.8993   -1.1655    0.7989 H   0  0  0  0  0  0  0  0  0  0  0  0
    0.6135   -0.5044   -0.8155 H   0  0  0  0  0  0  0  0  0  0  0  0
    2.2558    2.0142   -0.5431 H   0  0  0  0  0  0  0  0  0  0  0  0
    2.3708    0.9398   -1.9540 H   0  0  0  0  0  0  0  0  0  0  0  0
    3.8403    1.4539   -1.0995 H   0  0  0  0  0  0  0  0  0  0  0  0
    2.6800    1.0303    1.8531 H   0  0  0  0  0  0  0  0  0  0  0  0
    4.2787    0.4404    1.3720 H   0  0  0  0  0  0  0  0  0  0  0  0
    3.0771   -0.6927    2.0260 H   0  0  0  0  0  0  0  0  0  0  0  0
    4.1624   -3.3712   -1.7426 H   0  0  0  0  0  0  0  0  0  0  0  0
    5.6249   -3.2889   -0.7171 H   0  0  0  0  0  0  0  0  0  0  0  0
    5.2978   -2.0874   -3.5295 H   0  0  0  0  0  0  0  0  0  0  0  0
    6.3661   -3.4452   -3.0570 H   0  0  0  0  0  0  0  0  0  0  0  0
    5.9228    0.1378   -2.6966 H   0  0  0  0  0  0  0  0  0  0  0  0
    7.3966    0.2242   -1.6799 H   0  0  0  0  0  0  0  0  0  0  0  0
    5.2703    0.4162   -0.3505 H   0  0  0  0  0  0  0  0  0  0  0  0
    6.2733   -0.9598    0.1528 H   0  0  0  0  0  0  0  0  0  0  0  0
  1  2  1  0
  1 13  1  0
  1 14  1  0
  1 15  1  0
  2  3  1  0
  2  4  1  0
  2  5  1  6
  3 16  1  0
  3 17  1  0
  3 18  1  0
  4 19  1  0
  4 20  1  0
  4 21  1  0
  5  6  2  0
  5  7  1  0
  7  8  1  0
  7 12  1  0
  8  9  1  0
  8 22  1  0
  8 23  1  0
  9 10  1  0
  9 24  1  0
  9 25  1  0
 10 11  1  0
 11 12  1  0
 11 26  1  0
 11 27  1  0
 12 28  1  0
 12 29  1  0
M  END

