
     RDKit          3D

 43 44  0  0  0  0  0  0  0  0999 V2000
    2.0409   -0.0551   -0.8503 C   0  0  0  0  0  0  0  0  0  0  0  0
    1.7072   -0.1615    0.5093 O   0  0  0  0  0  0  0  0  0  0  0  0
    2.4852   -0.9888    1.4215 C   0  0  1  0  0  0  0  0  0  0  0  0
    1.8906   -0.4788    2.7934 C   0  0  1  0  0  0  0  0  0  0  0  0
    0.4338   -0.4518    2.8148 N   0  0  0  0  0  0  0  0  0  0  0  0
    2.3718   -1.1948    4.0747 C   0  0  0  0  0  0  0  0  0  0  0  0
    1.9449   -0.4857    5.3425 C   0  0  0  0  0  0  0  0  0  0  0  0
    0.7801   -0.8874    6.0149 C   0  0  0  0  0  0  0  0  0  0  0  0
    0.3577   -0.2502    7.1812 C   0  0  0  0  0  0  0  0  0  0  0  0
   -1.0997   -0.7945    7.9818 Cl  0  0  0  0  0  0  0  0  0  0  0  0
    1.0838    0.8158    7.7177 C   0  0  0  0  0  0  0  0  0  0  0  0
    2.2417    1.2345    7.0647 C   0  0  0  0  0  0  0  0  0  0  0  0
    2.6595    0.5916    5.8955 C   0  0  0  0  0  0  0  0  0  0  0  0
    4.1278    1.1826    5.1279 Cl  0  0  0  0  0  0  0  0  0  0  0  0
    2.1475   -2.4578    1.0778 C   0  0  0  0  0  0  0  0  0  0  0  0
    2.9445   -3.6177    1.6947 C   0  0  0  0  0  0  0  0  0  0  0  0
    4.4654   -3.6083    1.4758 C   0  0  0  0  0  0  0  0  0  0  0  0
    5.2286   -2.6550    2.4046 C   0  0  0  0  0  0  0  0  0  0  0  0
    5.1104   -1.1391    2.1131 C   0  0  0  0  0  0  0  0  0  0  0  0
    3.9752   -0.6411    1.1975 C   0  0  0  0  0  0  0  0  0  0  0  0
    1.1938    0.4484   -1.3415 H   0  0  0  0  0  0  0  0  0  0  0  0
    2.1822   -1.0333   -1.3480 H   0  0  0  0  0  0  0  0  0  0  0  0
    2.9462    0.5540   -1.0304 H   0  0  0  0  0  0  0  0  0  0  0  0
    2.2275    0.5700    2.8550 H   0  0  0  0  0  0  0  0  0  0  0  0
    0.0580   -1.4002    2.7668 H   0  0  0  0  0  0  0  0  0  0  0  0
    0.1052    0.0285    1.9785 H   0  0  0  0  0  0  0  0  0  0  0  0
    3.4621   -1.2954    4.0715 H   0  0  0  0  0  0  0  0  0  0  0  0
    1.9546   -2.2137    4.0969 H   0  0  0  0  0  0  0  0  0  0  0  0
    0.1893   -1.7121    5.6150 H   0  0  0  0  0  0  0  0  0  0  0  0
    0.7478    1.3084    8.6312 H   0  0  0  0  0  0  0  0  0  0  0  0
    2.8300    2.0640    7.4602 H   0  0  0  0  0  0  0  0  0  0  0  0
    2.2427   -2.5522   -0.0170 H   0  0  0  0  0  0  0  0  0  0  0  0
    1.0743   -2.6067    1.2851 H   0  0  0  0  0  0  0  0  0  0  0  0
    2.5340   -4.5432    1.2552 H   0  0  0  0  0  0  0  0  0  0  0  0
    2.7485   -3.7010    2.7767 H   0  0  0  0  0  0  0  0  0  0  0  0
    4.6960   -3.3934    0.4162 H   0  0  0  0  0  0  0  0  0  0  0  0
    4.8418   -4.6293    1.6582 H   0  0  0  0  0  0  0  0  0  0  0  0
    6.2975   -2.9259    2.3925 H   0  0  0  0  0  0  0  0  0  0  0  0
    4.8932   -2.8635    3.4355 H   0  0  0  0  0  0  0  0  0  0  0  0
    6.0386   -0.8077    1.6171 H   0  0  0  0  0  0  0  0  0  0  0  0
    5.0926   -0.5861    3.0639 H   0  0  0  0  0  0  0  0  0  0  0  0
    4.2178   -0.9646    0.1719 H   0  0  0  0  0  0  0  0  0  0  0  0
    4.0342    0.4607    1.1807 H   0  0  0  0  0  0  0  0  0  0  0  0
  1  2  1  0
  1 21  1  0
  1 22  1  0
  1 23  1  0
  3  2  1  6
  3  4  1  0
  3 15  1  0
  3 20  1  0
  4  5  1  0
  4  6  1  0
  4 24  1  1
  5 25  1  0
  5 26  1  0
  6  7  1  0
  6 27  1  0
  6 28  1  0
  7  8  2  0
  7 13  1  0
  8  9  1  0
  8 29  1  0
  9 10  1  0
  9 11  2  0
 11 12  1  0
 11 30  1  0
 12 13  2  0
 12 31  1  0
 13 14  1  0
 15 16  1  0
 15 32  1  0
 15 33  1  0
 16 17  1  0
 16 34  1  0
 16 35  1  0
 17 18  1  0
 17 36  1  0
 17 37  1  0
 18 19  1  0
 18 38  1  0
 18 39  1  0
 19 20  1  0
 19 40  1  0
 19 41  1  0
 20 42  1  0
 20 43  1  0
M  END

