
     RDKit          3D

 49 52  0  0  0  0  0  0  0  0999 V2000
    3.0991   -1.2482   -1.4075 O   0  0  0  0  0  0  0  0  0  0  0  0
    2.3747   -0.2897   -1.2711 C   0  0  0  0  0  0  0  0  0  0  0  0
    2.8312    0.9581   -0.9886 O   0  0  0  0  0  0  0  0  0  0  0  0
    4.2349    1.1220   -0.9674 C   0  0  0  0  0  0  0  0  0  0  0  0
    4.7796    1.2419   -2.3948 C   0  0  0  0  0  0  0  0  0  0  0  0
    4.0821    1.2039   -3.3885 O   0  0  0  0  0  0  0  0  0  0  0  0
    6.1405    1.3976   -2.4868 N   0  0  0  0  0  0  0  0  0  0  0  0
    6.8628    1.5168   -3.7650 C   0  0  0  0  0  0  0  0  0  0  0  0
    8.3246    1.6423   -3.2915 C   0  0  0  0  0  0  0  0  0  0  0  0
    8.1800    1.6021   -1.7761 C   0  0  0  0  0  0  0  0  0  0  0  0
    9.2923    1.7005   -0.8243 C   0  0  0  0  0  0  0  0  0  0  0  0
   10.6152    1.8527   -1.2801 C   0  0  0  0  0  0  0  0  0  0  0  0
   11.6752    1.9460   -0.3744 C   0  0  0  0  0  0  0  0  0  0  0  0
   11.4317    1.8889    0.9996 C   0  0  0  0  0  0  0  0  0  0  0  0
   10.1184    1.7372    1.4649 C   0  0  0  0  0  0  0  0  0  0  0  0
    9.0596    1.6438    0.5659 C   0  0  0  0  0  0  0  0  0  0  0  0
    6.9538    1.4627   -1.3952 N   0  0  0  0  0  0  0  0  0  0  0  0
    0.9099   -0.3274   -1.3523 C   0  0  0  0  0  0  0  0  0  0  0  0
    0.1465   -1.4556   -1.5837 C   0  0  0  0  0  0  0  0  0  0  0  0
   -1.2490   -1.1948   -1.6029 C   0  0  0  0  0  0  0  0  0  0  0  0
   -1.5314    0.1463   -1.3856 C   0  0  0  0  0  0  0  0  0  0  0  0
   -0.0953    1.0819   -1.1634 S   0  0  0  0  0  0  0  0  0  0  0  0
   -2.9213    0.7150   -1.3733 C   0  0  0  0  0  0  0  0  0  0  0  0
   -3.6579    0.6058   -2.7415 C   0  0  0  0  0  0  0  0  0  0  0  0
   -3.1505   -0.4914   -3.6918 C   0  0  0  0  0  0  0  0  0  0  0  0
   -3.1466   -1.9378   -3.1688 C   0  0  0  0  0  0  0  0  0  0  0  0
   -2.3664   -2.1785   -1.8454 C   0  0  0  0  0  0  0  0  0  0  0  0
    4.7274    0.2832   -0.4547 H   0  0  0  0  0  0  0  0  0  0  0  0
    4.4410    2.0442   -0.4065 H   0  0  0  0  0  0  0  0  0  0  0  0
    6.5019    2.3955   -4.3211 H   0  0  0  0  0  0  0  0  0  0  0  0
    6.6712    0.6311   -4.3888 H   0  0  0  0  0  0  0  0  0  0  0  0
    8.8008    2.5784   -3.6240 H   0  0  0  0  0  0  0  0  0  0  0  0
    8.9596    0.8157   -3.6493 H   0  0  0  0  0  0  0  0  0  0  0  0
   10.8237    1.8987   -2.3512 H   0  0  0  0  0  0  0  0  0  0  0  0
   12.6961    2.0636   -0.7463 H   0  0  0  0  0  0  0  0  0  0  0  0
   12.2606    1.9616    1.7082 H   0  0  0  0  0  0  0  0  0  0  0  0
    9.9218    1.6910    2.5391 H   0  0  0  0  0  0  0  0  0  0  0  0
    8.0354    1.5244    0.9228 H   0  0  0  0  0  0  0  0  0  0  0  0
    0.6029   -2.4358   -1.7305 H   0  0  0  0  0  0  0  0  0  0  0  0
   -2.9121    1.7630   -1.0371 H   0  0  0  0  0  0  0  0  0  0  0  0
   -3.4955    0.1604   -0.6097 H   0  0  0  0  0  0  0  0  0  0  0  0
   -3.5655    1.5679   -3.2724 H   0  0  0  0  0  0  0  0  0  0  0  0
   -4.7356    0.4688   -2.5471 H   0  0  0  0  0  0  0  0  0  0  0  0
   -2.1275   -0.2306   -4.0100 H   0  0  0  0  0  0  0  0  0  0  0  0
   -3.7626   -0.4588   -4.6094 H   0  0  0  0  0  0  0  0  0  0  0  0
   -2.7112   -2.5690   -3.9617 H   0  0  0  0  0  0  0  0  0  0  0  0
   -4.1835   -2.2925   -3.0361 H   0  0  0  0  0  0  0  0  0  0  0  0
   -1.9747   -3.2072   -1.8286 H   0  0  0  0  0  0  0  0  0  0  0  0
   -3.0712   -2.1131   -0.9975 H   0  0  0  0  0  0  0  0  0  0  0  0
  1  2  2  0
  2  3  1  0
  2 18  1  0
  3  4  1  0
  4  5  1  0
  4 28  1  0
  4 29  1  0
  5  6  2  0
  5  7  1  0
  7  8  1  0
  7 17  1  0
  8  9  1  0
  8 30  1  0
  8 31  1  0
  9 10  1  0
  9 32  1  0
  9 33  1  0
 10 11  1  0
 10 17  2  0
 11 12  2  0
 11 16  1  0
 12 13  1  0
 12 34  1  0
 13 14  2  0
 13 35  1  0
 14 15  1  0
 14 36  1  0
 15 16  2  0
 15 37  1  0
 16 38  1  0
 18 19  2  0
 18 22  1  0
 19 20  1  0
 19 39  1  0
 20 21  2  0
 20 27  1  0
 21 22  1  0
 21 23  1  0
 23 24  1  0
 23 40  1  0
 23 41  1  0
 24 25  1  0
 24 42  1  0
 24 43  1  0
 25 26  1  0
 25 44  1  0
 25 45  1  0
 26 27  1  0
 26 46  1  0
 26 47  1  0
 27 48  1  0
 27 49  1  0
M  END

