
     RDKit          3D

 30 32  0  0  0  0  0  0  0  0999 V2000
    5.0291    2.3891   -1.2721 C   0  0  0  0  0  0  0  0  0  0  0  0
    4.7052    1.2171   -0.3762 C   0  0  0  0  0  0  0  0  0  0  0  0
    3.9770    1.3846    0.8104 C   0  0  0  0  0  0  0  0  0  0  0  0
    3.6828    0.2870    1.6251 C   0  0  0  0  0  0  0  0  0  0  0  0
    4.1146   -0.9919    1.2737 C   0  0  0  0  0  0  0  0  0  0  0  0
    4.8418   -1.1956    0.0845 C   0  0  0  0  0  0  0  0  0  0  0  0
    5.3026   -2.5409   -0.3098 C   0  0  0  0  0  0  0  0  0  0  0  0
    6.6343   -2.9377   -0.7090 C   0  0  0  0  0  0  0  0  0  0  0  0
    7.7532   -2.1420   -0.7238 N   0  0  0  0  0  0  0  0  0  0  0  0
    6.7016   -4.2188   -1.0023 N   0  0  0  0  0  0  0  0  0  0  0  0
    5.4074   -4.7094   -0.7987 O   0  0  0  0  0  0  0  0  0  0  0  0
    4.5983   -3.7194   -0.3925 C   0  0  0  0  0  0  0  0  0  0  0  0
    3.1829   -4.0492   -0.1583 C   0  0  1  0  0  0  0  0  0  0  0  0
    2.5131   -5.1529   -0.9568 C   0  0  0  0  0  0  0  0  0  0  0  0
    2.8003   -5.3663    0.4973 C   0  0  0  0  0  0  0  0  0  0  0  0
    5.1227   -0.0777   -0.7224 C   0  0  0  0  0  0  0  0  0  0  0  0
    4.5638    3.3169   -0.9084 H   0  0  0  0  0  0  0  0  0  0  0  0
    4.6767    2.2160   -2.3024 H   0  0  0  0  0  0  0  0  0  0  0  0
    6.1173    2.5618   -1.3299 H   0  0  0  0  0  0  0  0  0  0  0  0
    3.6373    2.3831    1.0992 H   0  0  0  0  0  0  0  0  0  0  0  0
    3.1194    0.4339    2.5504 H   0  0  0  0  0  0  0  0  0  0  0  0
    3.9078   -1.8407    1.9293 H   0  0  0  0  0  0  0  0  0  0  0  0
    7.6106   -1.1434   -0.7891 H   0  0  0  0  0  0  0  0  0  0  0  0
    8.5535   -2.5055   -1.2279 H   0  0  0  0  0  0  0  0  0  0  0  0
    2.5753   -3.1764    0.0907 H   0  0  0  0  0  0  0  0  0  0  0  0
    3.1348   -5.6831   -1.6824 H   0  0  0  0  0  0  0  0  0  0  0  0
    1.4795   -4.9837   -1.2709 H   0  0  0  0  0  0  0  0  0  0  0  0
    3.6187   -6.0411    0.7613 H   0  0  0  0  0  0  0  0  0  0  0  0
    1.9697   -5.3496    1.2086 H   0  0  0  0  0  0  0  0  0  0  0  0
    5.6583   -0.2268   -1.6656 H   0  0  0  0  0  0  0  0  0  0  0  0
  1  2  1  0
  1 17  1  0
  1 18  1  0
  1 19  1  0
  2  3  2  0
  2 16  1  0
  3  4  1  0
  3 20  1  0
  4  5  2  0
  4 21  1  0
  5  6  1  0
  5 22  1  0
  6  7  1  0
  6 16  2  0
  7  8  1  0
  7 12  2  0
  8  9  1  0
  8 10  2  0
  9 23  1  0
  9 24  1  0
 10 11  1  0
 11 12  1  0
 12 13  1  0
 13 14  1  0
 13 15  1  0
 13 25  1  1
 14 15  1  0
 14 26  1  0
 14 27  1  0
 15 28  1  0
 15 29  1  0
 16 30  1  0
M  END

