
     RDKit          3D

 54 56  0  0  0  0  0  0  0  0999 V2000
   11.3197   -5.4075   -5.5443 C   0  0  0  0  0  0  0  0  0  0  0  0
    9.9917   -5.0121   -4.9441 C   0  0  0  0  0  0  0  0  0  0  0  0
    9.1673   -4.0558   -5.5548 C   0  0  0  0  0  0  0  0  0  0  0  0
    7.9450   -3.6864   -4.9826 C   0  0  0  0  0  0  0  0  0  0  0  0
    7.5220   -4.2707   -3.7908 C   0  0  0  0  0  0  0  0  0  0  0  0
    8.3197   -5.2455   -3.1703 C   0  0  0  0  0  0  0  0  0  0  0  0
    7.8191   -5.8397   -1.8846 C   0  0  0  0  0  0  0  0  0  0  0  0
    6.9752   -5.2665   -1.1946 O   0  0  0  0  0  0  0  0  0  0  0  0
    8.3395   -7.0458   -1.5215 N   0  0  0  0  0  0  0  0  0  0  0  0
    8.0023   -7.6958   -0.2634 C   0  0  0  0  0  0  0  0  0  0  0  0
    6.6638   -8.4649   -0.2772 C   0  0  0  0  0  0  0  0  0  0  0  0
    6.6256   -9.6813   -0.1711 O   0  0  0  0  0  0  0  0  0  0  0  0
    5.5686   -7.6720   -0.4010 N   0  0  0  0  0  0  0  0  0  0  0  0
    4.2114   -8.2154   -0.4349 C   0  0  1  0  0  0  0  0  0  0  0  0
    3.1989   -7.1215   -0.0543 C   0  0  0  0  0  0  0  0  0  0  0  0
    3.0226   -6.0829   -1.1801 C   0  0  0  0  0  0  0  0  0  0  0  0
    2.6860   -6.6763   -2.4757 N   0  0  0  0  0  0  0  0  0  0  0  0
    1.2903   -7.0562   -2.6345 C   0  0  0  0  0  0  0  0  0  0  0  0
    0.3547   -5.8655   -2.7698 C   0  0  0  0  0  0  0  0  0  0  0  0
    0.7360   -4.7338   -3.5071 C   0  0  0  0  0  0  0  0  0  0  0  0
   -0.1357   -3.6583   -3.6818 C   0  0  0  0  0  0  0  0  0  0  0  0
   -1.4120   -3.7098   -3.1121 C   0  0  0  0  0  0  0  0  0  0  0  0
   -2.5119   -2.3635   -3.3252 Cl  0  0  0  0  0  0  0  0  0  0  0  0
   -1.8149   -4.8219   -2.3699 C   0  0  0  0  0  0  0  0  0  0  0  0
   -0.9266   -5.8881   -2.2025 C   0  0  0  0  0  0  0  0  0  0  0  0
    3.6636   -7.6928   -2.8631 C   0  0  0  0  0  0  0  0  0  0  0  0
    3.8531   -8.8029   -1.8176 C   0  0  0  0  0  0  0  0  0  0  0  0
    9.5494   -5.5961   -3.7468 C   0  0  0  0  0  0  0  0  0  0  0  0
   11.5672   -4.7902   -6.4200 H   0  0  0  0  0  0  0  0  0  0  0  0
   11.3139   -6.4615   -5.8699 H   0  0  0  0  0  0  0  0  0  0  0  0
   12.1381   -5.3005   -4.8136 H   0  0  0  0  0  0  0  0  0  0  0  0
    9.4912   -3.5866   -6.4881 H   0  0  0  0  0  0  0  0  0  0  0  0
    7.3227   -2.9328   -5.4717 H   0  0  0  0  0  0  0  0  0  0  0  0
    6.5795   -3.9875   -3.3197 H   0  0  0  0  0  0  0  0  0  0  0  0
    8.8747   -7.5720   -2.2004 H   0  0  0  0  0  0  0  0  0  0  0  0
    7.9716   -6.9246    0.5224 H   0  0  0  0  0  0  0  0  0  0  0  0
    8.7837   -8.4264   -0.0195 H   0  0  0  0  0  0  0  0  0  0  0  0
    5.7345   -6.6705   -0.5141 H   0  0  0  0  0  0  0  0  0  0  0  0
    4.1839   -9.0311    0.3048 H   0  0  0  0  0  0  0  0  0  0  0  0
    3.5115   -6.6231    0.8788 H   0  0  0  0  0  0  0  0  0  0  0  0
    2.2316   -7.6065    0.1585 H   0  0  0  0  0  0  0  0  0  0  0  0
    3.9560   -5.5040   -1.3030 H   0  0  0  0  0  0  0  0  0  0  0  0
    2.2448   -5.3532   -0.9070 H   0  0  0  0  0  0  0  0  0  0  0  0
    0.9026   -7.7145   -1.8260 H   0  0  0  0  0  0  0  0  0  0  0  0
    1.2208   -7.6563   -3.5595 H   0  0  0  0  0  0  0  0  0  0  0  0
    1.7402   -4.7030   -3.9357 H   0  0  0  0  0  0  0  0  0  0  0  0
    0.1659   -2.7800   -4.2555 H   0  0  0  0  0  0  0  0  0  0  0  0
   -2.8106   -4.8464   -1.9236 H   0  0  0  0  0  0  0  0  0  0  0  0
   -1.2422   -6.7555   -1.6148 H   0  0  0  0  0  0  0  0  0  0  0  0
    4.6316   -7.1851   -3.0257 H   0  0  0  0  0  0  0  0  0  0  0  0
    3.3677   -8.1204   -3.8349 H   0  0  0  0  0  0  0  0  0  0  0  0
    4.6391   -9.5095   -2.1272 H   0  0  0  0  0  0  0  0  0  0  0  0
    2.9229   -9.3895   -1.7177 H   0  0  0  0  0  0  0  0  0  0  0  0
   10.2039   -6.3154   -3.2455 H   0  0  0  0  0  0  0  0  0  0  0  0
  1  2  1  0
  1 29  1  0
  1 30  1  0
  1 31  1  0
  2  3  2  0
  2 28  1  0
  3  4  1  0
  3 32  1  0
  4  5  2  0
  4 33  1  0
  5  6  1  0
  5 34  1  0
  6  7  1  0
  6 28  2  0
  7  8  2  0
  7  9  1  0
  9 10  1  0
  9 35  1  0
 10 11  1  0
 10 36  1  0
 10 37  1  0
 11 12  2  0
 11 13  1  0
 13 14  1  0
 13 38  1  0
 14 15  1  0
 14 27  1  0
 14 39  1  1
 15 16  1  0
 15 40  1  0
 15 41  1  0
 16 17  1  0
 16 42  1  0
 16 43  1  0
 17 18  1  0
 17 26  1  0
 18 19  1  0
 18 44  1  0
 18 45  1  0
 19 20  2  0
 19 25  1  0
 20 21  1  0
 20 46  1  0
 21 22  2  0
 21 47  1  0
 22 23  1  0
 22 24  1  0
 24 25  2  0
 24 48  1  0
 25 49  1  0
 26 27  1  0
 26 50  1  0
 26 51  1  0
 27 52  1  0
 27 53  1  0
 28 54  1  0
M  END

