
     RDKit          3D

 38 38  0  0  0  0  0  0  0  0999 V2000
    1.2989    0.6468    0.3481 C   0  0  0  0  0  0  0  0  0  0  0  0
    2.8030    0.2848    0.2296 C   0  0  1  0  0  0  0  0  0  0  0  0
    3.5348    1.3268   -0.6572 C   0  0  0  0  0  0  0  0  0  0  0  0
    3.3858    0.3712    1.5853 C   0  0  0  0  0  0  0  0  0  0  0  0
    3.8325    0.4736    2.6498 N   0  0  0  0  0  0  0  0  0  0  0  0
    2.9803   -1.1367   -0.3394 C   0  0  0  0  0  0  0  0  0  0  0  0
    2.4911   -1.4418   -1.6197 C   0  0  0  0  0  0  0  0  0  0  0  0
    2.6248   -2.7096   -2.1848 C   0  0  0  0  0  0  0  0  0  0  0  0
    3.2687   -3.7298   -1.4615 C   0  0  0  0  0  0  0  0  0  0  0  0
    3.4488   -5.0364   -1.9536 N   0  0  0  0  0  0  0  0  0  0  0  0
    3.0451   -5.5787   -3.1535 C   0  0  0  0  0  0  0  0  0  0  0  0
    2.4628   -4.9531   -4.0212 O   0  0  0  0  0  0  0  0  0  0  0  0
    3.3571   -7.0713   -3.2960 C   0  0  0  0  0  0  0  0  0  0  0  0
    3.3933   -7.5348   -4.7533 C   0  0  0  0  0  0  0  0  0  0  0  0
    4.6108   -7.0178   -5.5297 C   0  0  0  0  0  0  0  0  0  0  0  0
    4.5983   -7.4754   -6.9805 C   0  0  0  0  0  0  0  0  0  0  0  0
    6.0545   -6.8885   -7.8814 Cl  0  0  0  0  0  0  0  0  0  0  0  0
    3.7623   -3.4361   -0.1800 C   0  0  0  0  0  0  0  0  0  0  0  0
    3.6200   -2.1627    0.3695 C   0  0  0  0  0  0  0  0  0  0  0  0
    1.1746    1.6532    0.7760 H   0  0  0  0  0  0  0  0  0  0  0  0
    0.7709   -0.0738    0.9893 H   0  0  0  0  0  0  0  0  0  0  0  0
    0.8282    0.6343   -0.6457 H   0  0  0  0  0  0  0  0  0  0  0  0
    3.4262    2.3384   -0.2374 H   0  0  0  0  0  0  0  0  0  0  0  0
    3.1073    1.3261   -1.6705 H   0  0  0  0  0  0  0  0  0  0  0  0
    4.6064    1.0930   -0.7346 H   0  0  0  0  0  0  0  0  0  0  0  0
    1.9858   -0.6741   -2.2108 H   0  0  0  0  0  0  0  0  0  0  0  0
    2.2386   -2.9219   -3.1786 H   0  0  0  0  0  0  0  0  0  0  0  0
    3.9336   -5.6651   -1.3237 H   0  0  0  0  0  0  0  0  0  0  0  0
    2.5622   -7.6146   -2.7533 H   0  0  0  0  0  0  0  0  0  0  0  0
    4.3032   -7.3155   -2.7814 H   0  0  0  0  0  0  0  0  0  0  0  0
    2.4691   -7.1902   -5.2446 H   0  0  0  0  0  0  0  0  0  0  0  0
    3.3792   -8.6380   -4.7746 H   0  0  0  0  0  0  0  0  0  0  0  0
    5.5429   -7.3676   -5.0529 H   0  0  0  0  0  0  0  0  0  0  0  0
    4.6298   -5.9164   -5.5055 H   0  0  0  0  0  0  0  0  0  0  0  0
    3.7199   -7.0899   -7.5172 H   0  0  0  0  0  0  0  0  0  0  0  0
    4.6014   -8.5721   -7.0626 H   0  0  0  0  0  0  0  0  0  0  0  0
    4.2670   -4.2148    0.4001 H   0  0  0  0  0  0  0  0  0  0  0  0
    4.0165   -1.9719    1.3687 H   0  0  0  0  0  0  0  0  0  0  0  0
  1  2  1  0
  1 20  1  0
  1 21  1  0
  1 22  1  0
  2  3  1  0
  2  4  1  1
  2  6  1  0
  3 23  1  0
  3 24  1  0
  3 25  1  0
  4  5  3  0
  6  7  2  0
  6 19  1  0
  7  8  1  0
  7 26  1  0
  8  9  2  0
  8 27  1  0
  9 10  1  0
  9 18  1  0
 10 11  1  0
 10 28  1  0
 11 12  2  0
 11 13  1  0
 13 14  1  0
 13 29  1  0
 13 30  1  0
 14 15  1  0
 14 31  1  0
 14 32  1  0
 15 16  1  0
 15 33  1  0
 15 34  1  0
 16 17  1  0
 16 35  1  0
 16 36  1  0
 18 19  2  0
 18 37  1  0
 19 38  1  0
M  END

