
     RDKit          3D

 40 42  0  0  0  0  0  0  0  0999 V2000
   12.8717   -4.7562    2.1747 C   0  0  0  0  0  0  0  0  0  0  0  0
   11.6128   -4.0436    2.2219 N   0  0  0  0  0  0  0  0  0  0  0  0
   11.1701   -3.1859    3.1804 C   0  0  0  0  0  0  0  0  0  0  0  0
    9.9177   -2.7532    2.7790 C   0  0  0  0  0  0  0  0  0  0  0  0
    9.6892   -3.4165    1.5442 C   0  0  0  0  0  0  0  0  0  0  0  0
    8.4730   -3.3669    0.6662 C   0  0  0  0  0  0  0  0  0  0  0  0
    7.4168   -4.4164    1.0412 C   0  0  0  0  0  0  0  0  0  0  0  0
    6.2449   -4.2841    0.1843 N   0  0  0  0  0  0  0  0  0  0  0  0
    5.1713   -5.2782    0.2907 C   0  0  2  0  0  0  0  0  0  0  0  0
    4.3343   -5.0835    1.5747 C   0  0  0  0  0  0  0  0  0  0  0  0
    4.8139   -5.8439    2.8098 C   0  0  0  0  0  0  0  0  0  0  0  0
    4.6440   -7.6162    2.5176 S   0  0  1  0  0  0  0  0  0  0  0  0
    5.3687   -8.3692    3.5512 O   0  0  0  0  0  0  0  0  0  0  0  0
    3.2186   -7.8929    2.2743 O   0  0  0  0  0  0  0  0  0  0  0  0
    5.5289   -7.7884    0.9561 C   0  0  0  0  0  0  0  0  0  0  0  0
    6.0311   -9.0677    0.6833 C   0  0  0  0  0  0  0  0  0  0  0  0
    6.6433   -9.3215   -0.5409 C   0  0  0  0  0  0  0  0  0  0  0  0
    6.7527   -8.2902   -1.4812 C   0  0  0  0  0  0  0  0  0  0  0  0
    6.2640   -7.0187   -1.1860 C   0  0  0  0  0  0  0  0  0  0  0  0
    5.6372   -6.7283    0.0395 C   0  0  0  0  0  0  0  0  0  0  0  0
   10.7270   -4.1928    1.2258 N   0  0  0  0  0  0  0  0  0  0  0  0
   13.4595   -4.5109    3.0692 H   0  0  0  0  0  0  0  0  0  0  0  0
   13.4412   -4.4686    1.2776 H   0  0  0  0  0  0  0  0  0  0  0  0
   12.6952   -5.8422    2.1450 H   0  0  0  0  0  0  0  0  0  0  0  0
   11.7705   -2.9483    4.0564 H   0  0  0  0  0  0  0  0  0  0  0  0
    9.2636   -2.0547    3.2961 H   0  0  0  0  0  0  0  0  0  0  0  0
    8.7913   -3.5342   -0.3770 H   0  0  0  0  0  0  0  0  0  0  0  0
    8.0089   -2.3686    0.7112 H   0  0  0  0  0  0  0  0  0  0  0  0
    7.1191   -4.2502    2.0900 H   0  0  0  0  0  0  0  0  0  0  0  0
    7.8870   -5.4213    1.0008 H   0  0  0  0  0  0  0  0  0  0  0  0
    6.5421   -4.2039   -0.7865 H   0  0  0  0  0  0  0  0  0  0  0  0
    4.4915   -5.0357   -0.5428 H   0  0  0  0  0  0  0  0  0  0  0  0
    3.2990   -5.4044    1.3803 H   0  0  0  0  0  0  0  0  0  0  0  0
    4.3065   -4.0042    1.7885 H   0  0  0  0  0  0  0  0  0  0  0  0
    4.1804   -5.6521    3.6891 H   0  0  0  0  0  0  0  0  0  0  0  0
    5.8645   -5.6744    3.0811 H   0  0  0  0  0  0  0  0  0  0  0  0
    5.9445   -9.8455    1.4451 H   0  0  0  0  0  0  0  0  0  0  0  0
    7.0364  -10.3167   -0.7615 H   0  0  0  0  0  0  0  0  0  0  0  0
    7.2258   -8.4780   -2.4483 H   0  0  0  0  0  0  0  0  0  0  0  0
    6.3682   -6.2228   -1.9296 H   0  0  0  0  0  0  0  0  0  0  0  0
  1  2  1  0
  1 22  1  0
  1 23  1  0
  1 24  1  0
  2  3  1  0
  2 21  1  0
  3  4  2  0
  3 25  1  0
  4  5  1  0
  4 26  1  0
  5  6  1  0
  5 21  2  0
  6  7  1  0
  6 27  1  0
  6 28  1  0
  7  8  1  0
  7 29  1  0
  7 30  1  0
  8  9  1  0
  8 31  1  0
  9 10  1  0
  9 20  1  0
  9 32  1  6
 10 11  1  0
 10 33  1  0
 10 34  1  0
 12 11  1  1
 11 35  1  0
 11 36  1  0
 12 13  2  0
 12 14  2  0
 12 15  1  0
 15 16  2  0
 15 20  1  0
 16 17  1  0
 16 37  1  0
 17 18  2  0
 17 38  1  0
 18 19  1  0
 18 39  1  0
 19 20  2  0
 19 40  1  0
M  END

