
     RDKit          3D

 40 40  0  0  0  0  0  0  0  0999 V2000
    1.5468   -1.2316    0.7932 C   0  0  0  0  0  0  0  0  0  0  0  0
    1.8511   -0.5888   -0.3416 C   0  0  0  0  0  0  0  0  0  0  0  0
    0.9666    0.4556   -0.9675 C   0  0  0  0  0  0  0  0  0  0  0  0
    3.1189   -0.9182   -1.0897 C   0  0  0  0  0  0  0  0  0  0  0  0
    3.8505    0.2830   -1.3120 O   0  0  0  0  0  0  0  0  0  0  0  0
    5.0099    0.2471   -2.0118 C   0  0  0  0  0  0  0  0  0  0  0  0
    5.6497    1.4840   -2.2141 C   0  0  0  0  0  0  0  0  0  0  0  0
    6.8421    1.5422   -2.9308 C   0  0  0  0  0  0  0  0  0  0  0  0
    7.4317    0.3816   -3.4384 C   0  0  0  0  0  0  0  0  0  0  0  0
    6.8132   -0.8623   -3.2315 C   0  0  0  0  0  0  0  0  0  0  0  0
    7.3404   -2.1192   -3.7727 C   0  0  0  0  0  0  0  0  0  0  0  0
    8.6208   -2.5260   -3.9905 C   0  0  0  0  0  0  0  0  0  0  0  0
    8.8292   -3.7788   -4.6627 C   0  0  0  0  0  0  0  0  0  0  0  0
    8.9758   -4.7992   -5.1975 N   0  0  0  0  0  0  0  0  0  0  0  0
    9.9014   -1.8266   -3.6063 C   0  0  0  0  0  0  0  0  0  0  0  0
   10.8988   -1.8759   -4.2847 O   0  0  0  0  0  0  0  0  0  0  0  0
    9.8143   -1.2226   -2.4166 O   0  0  0  0  0  0  0  0  0  0  0  0
   11.0102   -0.5812   -1.8862 C   0  0  1  0  0  0  0  0  0  0  0  0
   11.1520    0.8213   -2.4646 C   0  0  0  0  0  0  0  0  0  0  0  0
   10.8650   -0.6092   -0.3734 C   0  0  0  0  0  0  0  0  0  0  0  0
    5.5849   -0.9175   -2.5356 C   0  0  0  0  0  0  0  0  0  0  0  0
    0.6102   -1.0387    1.3240 H   0  0  0  0  0  0  0  0  0  0  0  0
    2.2190   -1.9763    1.2293 H   0  0  0  0  0  0  0  0  0  0  0  0
    0.0528    0.6190   -0.3785 H   0  0  0  0  0  0  0  0  0  0  0  0
    0.6734    0.1630   -1.9914 H   0  0  0  0  0  0  0  0  0  0  0  0
    1.5055    1.4125   -1.0565 H   0  0  0  0  0  0  0  0  0  0  0  0
    2.8675   -1.3781   -2.0670 H   0  0  0  0  0  0  0  0  0  0  0  0
    3.7305   -1.6416   -0.5224 H   0  0  0  0  0  0  0  0  0  0  0  0
    5.1805    2.3835   -1.8108 H   0  0  0  0  0  0  0  0  0  0  0  0
    7.3171    2.5110   -3.1043 H   0  0  0  0  0  0  0  0  0  0  0  0
    8.3496    0.4489   -4.0221 H   0  0  0  0  0  0  0  0  0  0  0  0
    6.5700   -2.8393   -4.0707 H   0  0  0  0  0  0  0  0  0  0  0  0
   11.8694   -1.1915   -2.2044 H   0  0  0  0  0  0  0  0  0  0  0  0
   10.2856    1.4463   -2.1968 H   0  0  0  0  0  0  0  0  0  0  0  0
   11.2470    0.7848   -3.5595 H   0  0  0  0  0  0  0  0  0  0  0  0
   12.0590    1.3003   -2.0634 H   0  0  0  0  0  0  0  0  0  0  0  0
    9.9827   -0.0326   -0.0539 H   0  0  0  0  0  0  0  0  0  0  0  0
   11.7570   -0.1701    0.0995 H   0  0  0  0  0  0  0  0  0  0  0  0
   10.7538   -1.6419   -0.0105 H   0  0  0  0  0  0  0  0  0  0  0  0
    5.1027   -1.8858   -2.4011 H   0  0  0  0  0  0  0  0  0  0  0  0
  1  2  2  0
  1 22  1  0
  1 23  1  0
  2  3  1  0
  2  4  1  0
  3 24  1  0
  3 25  1  0
  3 26  1  0
  4  5  1  0
  4 27  1  0
  4 28  1  0
  5  6  1  0
  6  7  2  0
  6 21  1  0
  7  8  1  0
  7 29  1  0
  8  9  2  0
  8 30  1  0
  9 10  1  0
  9 31  1  0
 10 11  1  0
 10 21  2  0
 11 12  2  0
 11 32  1  0
 12 13  1  0
 12 15  1  0
 13 14  3  0
 15 16  2  0
 15 17  1  0
 17 18  1  0
 18 19  1  0
 18 20  1  0
 18 33  1  1
 19 34  1  0
 19 35  1  0
 19 36  1  0
 20 37  1  0
 20 38  1  0
 20 39  1  0
 21 40  1  0
M  END

