
     RDKit          3D

 25 25  0  0  0  0  0  0  0  0999 V2000
    3.4240    1.5203   -0.3790 N   0  0  0  0  0  0  0  0  0  0  0  0
    3.6081    0.5486   -1.3130 C   0  0  0  0  0  0  0  0  0  0  0  0
    3.1973    0.6160   -2.4558 O   0  0  0  0  0  0  0  0  0  0  0  0
    4.4138   -0.6640   -0.8316 C   0  0  0  0  0  0  0  0  0  0  0  0
    4.4854   -0.7928    0.6209 N   0  0  0  0  0  0  0  0  0  0  0  0
    5.3969   -1.8124    1.1486 C   0  0  1  0  0  0  0  0  0  0  0  0
    6.8349   -1.2864    1.0434 C   0  0  0  0  0  0  0  0  0  0  0  0
    6.9795   -0.0612    1.7144 O   0  0  0  0  0  0  0  0  0  0  0  0
    5.0648   -2.2715    2.5938 C   0  0  0  0  0  0  0  0  0  0  0  0
    5.3447   -3.7362    2.1695 C   0  0  0  0  0  0  0  0  0  0  0  0
    5.2655   -3.2981    0.6839 C   0  0  0  0  0  0  0  0  0  0  0  0
    2.9329    2.3657   -0.6430 H   0  0  0  0  0  0  0  0  0  0  0  0
    3.8157    1.4144    0.5483 H   0  0  0  0  0  0  0  0  0  0  0  0
    5.4308   -0.5370   -1.2383 H   0  0  0  0  0  0  0  0  0  0  0  0
    3.9860   -1.5436   -1.3486 H   0  0  0  0  0  0  0  0  0  0  0  0
    3.5501   -0.9660    0.9877 H   0  0  0  0  0  0  0  0  0  0  0  0
    7.1222   -1.2098   -0.0274 H   0  0  0  0  0  0  0  0  0  0  0  0
    7.5293   -2.0099    1.5003 H   0  0  0  0  0  0  0  0  0  0  0  0
    6.1639    0.4274    1.5184 H   0  0  0  0  0  0  0  0  0  0  0  0
    4.0020   -2.1091    2.8387 H   0  0  0  0  0  0  0  0  0  0  0  0
    5.6775   -1.8260    3.3914 H   0  0  0  0  0  0  0  0  0  0  0  0
    4.6183   -4.4928    2.5006 H   0  0  0  0  0  0  0  0  0  0  0  0
    6.3495   -4.0779    2.4592 H   0  0  0  0  0  0  0  0  0  0  0  0
    4.2764   -3.4999    0.2437 H   0  0  0  0  0  0  0  0  0  0  0  0
    6.0360   -3.6784   -0.0067 H   0  0  0  0  0  0  0  0  0  0  0  0
  1  2  1  0
  1 12  1  0
  1 13  1  0
  2  3  2  0
  2  4  1  0
  4  5  1  0
  4 14  1  0
  4 15  1  0
  6  5  1  6
  5 16  1  0
  6  7  1  0
  6  9  1  0
  6 11  1  0
  7  8  1  0
  7 17  1  0
  7 18  1  0
  8 19  1  0
  9 10  1  0
  9 20  1  0
  9 21  1  0
 10 11  1  0
 10 22  1  0
 10 23  1  0
 11 24  1  0
 11 25  1  0
M  END

