
     RDKit          3D

 40 43  0  0  0  0  0  0  0  0999 V2000
    2.6173   -0.7477    2.4960 C   0  0  0  0  0  0  0  0  0  0  0  0
    3.1603   -0.4305    1.1365 C   0  0  0  0  0  0  0  0  0  0  0  0
    3.2569   -1.2579    0.0506 C   0  0  0  0  0  0  0  0  0  0  0  0
    2.8967   -2.6944   -0.1601 C   0  0  0  0  0  0  0  0  0  0  0  0
    4.0154   -3.6194   -0.0106 N   0  0  0  0  0  0  0  0  0  0  0  0
    4.2386   -4.2856    1.1582 C   0  0  0  0  0  0  0  0  0  0  0  0
    3.4799   -4.2126    2.1154 O   0  0  0  0  0  0  0  0  0  0  0  0
    5.4689   -5.1608    1.2105 C   0  0  0  0  0  0  0  0  0  0  0  0
    5.4962   -6.1729    2.1823 C   0  0  0  0  0  0  0  0  0  0  0  0
    6.6017   -7.0161    2.2867 C   0  0  0  0  0  0  0  0  0  0  0  0
    7.6986   -6.8559    1.4361 C   0  0  0  0  0  0  0  0  0  0  0  0
    7.6837   -5.8247    0.4906 C   0  0  0  0  0  0  0  0  0  0  0  0
    8.8015   -5.6198   -0.3654 N   0  0  0  0  0  0  0  0  0  0  0  0
   10.1108   -5.9375   -0.2119 C   0  0  0  0  0  0  0  0  0  0  0  0
   10.7688   -5.5360   -1.2745 N   0  0  0  0  0  0  0  0  0  0  0  0
    9.8491   -4.9642   -2.0871 N   0  0  0  0  0  0  0  0  0  0  0  0
    8.6771   -5.0037   -1.5637 N   0  0  0  0  0  0  0  0  0  0  0  0
    6.5760   -4.9772    0.3736 C   0  0  0  0  0  0  0  0  0  0  0  0
    3.8254   -0.6263   -1.0329 O   0  0  0  0  0  0  0  0  0  0  0  0
    4.0984    0.6491   -0.6430 C   0  0  0  0  0  0  0  0  0  0  0  0
    4.6764    1.6503   -1.4196 C   0  0  0  0  0  0  0  0  0  0  0  0
    4.8632    2.8930   -0.8123 C   0  0  0  0  0  0  0  0  0  0  0  0
    4.4737    3.0904    0.5233 C   0  0  0  0  0  0  0  0  0  0  0  0
    4.6729    4.3041    1.0663 F   0  0  0  0  0  0  0  0  0  0  0  0
    3.8963    2.0942    1.3005 C   0  0  0  0  0  0  0  0  0  0  0  0
    3.7045    0.8390    0.6970 C   0  0  0  0  0  0  0  0  0  0  0  0
    2.4988   -1.8306    2.6427 H   0  0  0  0  0  0  0  0  0  0  0  0
    1.6427   -0.2584    2.6662 H   0  0  0  0  0  0  0  0  0  0  0  0
    3.3005   -0.3820    3.2802 H   0  0  0  0  0  0  0  0  0  0  0  0
    2.4736   -2.8143   -1.1699 H   0  0  0  0  0  0  0  0  0  0  0  0
    2.1349   -2.9923    0.5708 H   0  0  0  0  0  0  0  0  0  0  0  0
    4.6597   -3.7226   -0.7840 H   0  0  0  0  0  0  0  0  0  0  0  0
    4.6348   -6.2766    2.8439 H   0  0  0  0  0  0  0  0  0  0  0  0
    6.6122   -7.8151    3.0315 H   0  0  0  0  0  0  0  0  0  0  0  0
    8.5498   -7.5356    1.5041 H   0  0  0  0  0  0  0  0  0  0  0  0
   10.5327   -6.4242    0.6641 H   0  0  0  0  0  0  0  0  0  0  0  0
    6.6210   -4.1757   -0.3638 H   0  0  0  0  0  0  0  0  0  0  0  0
    4.9697    1.4689   -2.4549 H   0  0  0  0  0  0  0  0  0  0  0  0
    5.3104    3.7277   -1.3550 H   0  0  0  0  0  0  0  0  0  0  0  0
    3.6125    2.3030    2.3333 H   0  0  0  0  0  0  0  0  0  0  0  0
  1  2  1  0
  1 27  1  0
  1 28  1  0
  1 29  1  0
  2  3  2  0
  2 26  1  0
  3  4  1  0
  3 19  1  0
  4  5  1  0
  4 30  1  0
  4 31  1  0
  5  6  1  0
  5 32  1  0
  6  7  2  0
  6  8  1  0
  8  9  2  0
  8 18  1  0
  9 10  1  0
  9 33  1  0
 10 11  2  0
 10 34  1  0
 11 12  1  0
 11 35  1  0
 12 13  1  0
 12 18  2  0
 13 14  1  0
 13 17  1  0
 14 15  2  0
 14 36  1  0
 15 16  1  0
 16 17  2  0
 18 37  1  0
 19 20  1  0
 20 21  1  0
 20 26  2  0
 21 22  2  0
 21 38  1  0
 22 23  1  0
 22 39  1  0
 23 24  1  0
 23 25  2  0
 25 26  1  0
 25 40  1  0
M  END

