
     RDKit          3D

 50 51  0  0  0  0  0  0  0  0999 V2000
    2.7127   -1.4041   -2.6134 C   0  0  0  0  0  0  0  0  0  0  0  0
    3.1219   -0.5547   -1.4340 C   0  0  0  0  0  0  0  0  0  0  0  0
    3.7847    0.6649   -1.6380 C   0  0  0  0  0  0  0  0  0  0  0  0
    4.1772    1.4743   -0.5690 C   0  0  0  0  0  0  0  0  0  0  0  0
    3.9081    1.0701    0.7398 C   0  0  0  0  0  0  0  0  0  0  0  0
    3.2505   -0.1415    0.9609 C   0  0  0  0  0  0  0  0  0  0  0  0
    2.8567   -0.9644   -0.1052 C   0  0  0  0  0  0  0  0  0  0  0  0
    2.1362   -2.2568    0.1888 C   0  0  0  0  0  0  0  0  0  0  0  0
    0.3085   -2.0160    0.0736 S   0  0  0  0  0  0  0  0  0  0  0  0
   -0.2425   -3.7470    0.3156 C   0  0  0  0  0  0  0  0  0  0  0  0
   -1.7674   -3.8334    0.2559 C   0  0  0  0  0  0  0  0  0  0  0  0
   -2.2768   -5.2640    0.4809 C   0  0  0  0  0  0  0  0  0  0  0  0
   -3.7219   -5.3744    0.4231 N   0  0  0  0  0  0  0  0  0  0  0  0
   -4.3842   -5.9168   -0.6471 C   0  0  0  0  0  0  0  0  0  0  0  0
   -3.7901   -6.3964   -1.6029 O   0  0  0  0  0  0  0  0  0  0  0  0
   -5.9109   -5.8424   -0.5584 C   0  0  1  0  0  0  0  0  0  0  0  0
   -6.4401   -4.6201   -1.3555 C   0  0  0  0  0  0  0  0  0  0  0  0
   -6.4304   -4.8757   -2.8747 C   0  0  0  0  0  0  0  0  0  0  0  0
   -7.1497   -6.0819   -3.2662 N   0  0  0  0  0  0  0  0  0  0  0  0
   -8.5939   -5.9685   -3.2558 C   0  0  0  0  0  0  0  0  0  0  0  0
   -6.6098   -7.2581   -2.5897 C   0  0  0  0  0  0  0  0  0  0  0  0
   -6.5939   -7.1390   -1.0518 C   0  0  0  0  0  0  0  0  0  0  0  0
    2.8992   -0.8809   -3.5624 H   0  0  0  0  0  0  0  0  0  0  0  0
    1.6435   -1.6648   -2.5662 H   0  0  0  0  0  0  0  0  0  0  0  0
    3.2758   -2.3535   -2.6435 H   0  0  0  0  0  0  0  0  0  0  0  0
    3.9951    0.9863   -2.6621 H   0  0  0  0  0  0  0  0  0  0  0  0
    4.6914    2.4197   -0.7608 H   0  0  0  0  0  0  0  0  0  0  0  0
    4.2076    1.6937    1.5859 H   0  0  0  0  0  0  0  0  0  0  0  0
    3.0350   -0.4617    1.9845 H   0  0  0  0  0  0  0  0  0  0  0  0
    2.3783   -2.6091    1.2035 H   0  0  0  0  0  0  0  0  0  0  0  0
    2.4204   -3.0484   -0.5216 H   0  0  0  0  0  0  0  0  0  0  0  0
    0.1273   -4.1072    1.2915 H   0  0  0  0  0  0  0  0  0  0  0  0
    0.2077   -4.3830   -0.4655 H   0  0  0  0  0  0  0  0  0  0  0  0
   -2.1222   -3.4770   -0.7254 H   0  0  0  0  0  0  0  0  0  0  0  0
   -2.2028   -3.1594    1.0152 H   0  0  0  0  0  0  0  0  0  0  0  0
   -1.9193   -5.6424    1.4553 H   0  0  0  0  0  0  0  0  0  0  0  0
   -1.8852   -5.9326   -0.2997 H   0  0  0  0  0  0  0  0  0  0  0  0
   -4.2678   -4.9733    1.1759 H   0  0  0  0  0  0  0  0  0  0  0  0
   -6.1737   -5.6962    0.5040 H   0  0  0  0  0  0  0  0  0  0  0  0
   -5.8460   -3.7214   -1.1155 H   0  0  0  0  0  0  0  0  0  0  0  0
   -7.4706   -4.4106   -1.0203 H   0  0  0  0  0  0  0  0  0  0  0  0
   -5.3858   -4.9732   -3.2154 H   0  0  0  0  0  0  0  0  0  0  0  0
   -6.8643   -4.0103   -3.4030 H   0  0  0  0  0  0  0  0  0  0  0  0
   -8.9046   -5.1211   -3.8893 H   0  0  0  0  0  0  0  0  0  0  0  0
   -9.0622   -5.8170   -2.2560 H   0  0  0  0  0  0  0  0  0  0  0  0
   -9.0401   -6.8808   -3.6852 H   0  0  0  0  0  0  0  0  0  0  0  0
   -5.5775   -7.4130   -2.9375 H   0  0  0  0  0  0  0  0  0  0  0  0
   -7.1979   -8.1416   -2.8891 H   0  0  0  0  0  0  0  0  0  0  0  0
   -6.0973   -8.0214   -0.6150 H   0  0  0  0  0  0  0  0  0  0  0  0
   -7.6291   -7.1409   -0.6683 H   0  0  0  0  0  0  0  0  0  0  0  0
  1  2  1  0
  1 23  1  0
  1 24  1  0
  1 25  1  0
  2  3  2  0
  2  7  1  0
  3  4  1  0
  3 26  1  0
  4  5  2  0
  4 27  1  0
  5  6  1  0
  5 28  1  0
  6  7  2  0
  6 29  1  0
  7  8  1  0
  8  9  1  0
  8 30  1  0
  8 31  1  0
  9 10  1  0
 10 11  1  0
 10 32  1  0
 10 33  1  0
 11 12  1  0
 11 34  1  0
 11 35  1  0
 12 13  1  0
 12 36  1  0
 12 37  1  0
 13 14  1  0
 13 38  1  0
 14 15  2  0
 14 16  1  0
 16 17  1  0
 16 22  1  0
 16 39  1  1
 17 18  1  0
 17 40  1  0
 17 41  1  0
 18 19  1  0
 18 42  1  0
 18 43  1  0
 19 20  1  0
 19 21  1  0
 20 44  1  0
 20 45  1  0
 20 46  1  0
 21 22  1  0
 21 47  1  0
 21 48  1  0
 22 49  1  0
 22 50  1  0
M  END

