
     RDKit          3D

 39 40  0  0  0  0  0  0  0  0999 V2000
   -1.4340    3.9240   -5.3440 C   0  0  0  0  0  0  0  0  0  0  0  0
   -0.3162    4.7575   -5.1292 O   0  0  0  0  0  0  0  0  0  0  0  0
    0.8481    4.2133   -4.7005 C   0  0  0  0  0  0  0  0  0  0  0  0
    1.0453    2.8460   -4.4485 C   0  0  0  0  0  0  0  0  0  0  0  0
    2.2927    2.3937   -4.0063 C   0  0  0  0  0  0  0  0  0  0  0  0
    3.3678    3.2703   -3.8032 C   0  0  0  0  0  0  0  0  0  0  0  0
    4.7155    2.7583   -3.3485 C   0  0  0  0  0  0  0  0  0  0  0  0
    5.6462    2.1500   -4.4112 C   0  0  0  0  0  0  0  0  0  0  0  0
    6.5648    1.4218   -4.1212 O   0  0  0  0  0  0  0  0  0  0  0  0
    5.3602    2.5435   -5.7134 N   0  0  0  0  0  0  0  0  0  0  0  0
    6.1088    2.1287   -6.7449 N   0  0  0  0  0  0  0  0  0  0  0  0
    5.7929    2.5157   -7.9266 C   0  0  0  0  0  0  0  0  0  0  0  0
    6.5819    2.0888   -9.0876 C   0  0  0  0  0  0  0  0  0  0  0  0
    7.6937    1.2514   -8.9432 C   0  0  0  0  0  0  0  0  0  0  0  0
    8.4436    0.8468  -10.0546 C   0  0  0  0  0  0  0  0  0  0  0  0
    9.9487   -0.2930   -9.8124 Br  0  0  0  0  0  0  0  0  0  0  0  0
    8.0984    1.2696  -11.3301 C   0  0  0  0  0  0  0  0  0  0  0  0
    6.9851    2.1095  -11.4865 C   0  0  0  0  0  0  0  0  0  0  0  0
    6.6462    2.5372  -12.8352 N   0  0  0  0  0  0  0  0  0  0  0  0
    7.3256    2.1598  -13.7665 O   0  0  0  0  0  0  0  0  0  0  0  0
    5.6596    3.2824  -12.9765 O   0  0  0  0  0  0  0  0  0  0  0  0
    6.2038    2.5386  -10.3824 C   0  0  0  0  0  0  0  0  0  0  0  0
    5.1441    3.3339  -10.4985 O   0  0  0  0  0  0  0  0  0  0  0  0
    3.1490    4.6380   -4.0578 C   0  0  0  0  0  0  0  0  0  0  0  0
    1.9152    5.1065   -4.4997 C   0  0  0  0  0  0  0  0  0  0  0  0
   -2.2500    4.5766   -5.6816 H   0  0  0  0  0  0  0  0  0  0  0  0
   -1.7475    3.4099   -4.4176 H   0  0  0  0  0  0  0  0  0  0  0  0
   -1.2378    3.1653   -6.1229 H   0  0  0  0  0  0  0  0  0  0  0  0
    0.2377    2.1270   -4.5874 H   0  0  0  0  0  0  0  0  0  0  0  0
    2.4255    1.3253   -3.8117 H   0  0  0  0  0  0  0  0  0  0  0  0
    4.6104    1.9750   -2.5827 H   0  0  0  0  0  0  0  0  0  0  0  0
    5.2934    3.5690   -2.8727 H   0  0  0  0  0  0  0  0  0  0  0  0
    4.5433    3.1370   -5.8778 H   0  0  0  0  0  0  0  0  0  0  0  0
    4.9310    3.1744   -8.1200 H   0  0  0  0  0  0  0  0  0  0  0  0
    7.9584    0.9234   -7.9366 H   0  0  0  0  0  0  0  0  0  0  0  0
    8.6599    0.9733  -12.2143 H   0  0  0  0  0  0  0  0  0  0  0  0
    5.0479    3.5334  -11.4656 H   0  0  0  0  0  0  0  0  0  0  0  0
    3.9620    5.3527   -3.8977 H   0  0  0  0  0  0  0  0  0  0  0  0
    1.7457    6.1681   -4.6906 H   0  0  0  0  0  0  0  0  0  0  0  0
  1  2  1  0
  1 26  1  0
  1 27  1  0
  1 28  1  0
  2  3  1  0
  3  4  2  0
  3 25  1  0
  4  5  1  0
  4 29  1  0
  5  6  2  0
  5 30  1  0
  6  7  1  0
  6 24  1  0
  7  8  1  0
  7 31  1  0
  7 32  1  0
  8  9  2  0
  8 10  1  0
 10 11  1  0
 10 33  1  0
 11 12  2  0
 12 13  1  0
 12 34  1  0
 13 14  2  0
 13 22  1  0
 14 15  1  0
 14 35  1  0
 15 16  1  0
 15 17  2  0
 17 18  1  0
 17 36  1  0
 18 19  1  0
 18 22  2  0
 19 20  2  0
 19 21  1  0
 22 23  1  0
 23 37  1  0
 24 25  2  0
 24 38  1  0
 25 39  1  0
M  CHG  2  19   1  21  -1
M  END

