
     RDKit          3D

 45 48  0  0  0  0  0  0  0  0999 V2000
    4.2814    0.8432    4.7359 C   0  0  0  0  0  0  0  0  0  0  0  0
    4.2111    0.9158    3.2381 C   0  0  0  0  0  0  0  0  0  0  0  0
    5.3914    0.9237    2.5302 N   0  0  0  0  0  0  0  0  0  0  0  0
    5.1835    0.9983    1.2548 C   0  0  0  0  0  0  0  0  0  0  0  0
    6.4896    1.0400    0.0073 S   0  0  1  0  0  0  0  0  0  0  0  0
    5.7723    1.0179   -1.2665 O   0  0  0  0  0  0  0  0  0  0  0  0
    7.4177    2.1030    0.3759 O   0  0  0  0  0  0  0  0  0  0  0  0
    7.3097   -0.3891    0.1624 N   0  0  0  0  0  0  0  0  0  0  0  0
    8.2848   -0.5695    1.2617 C   0  0  0  0  0  0  0  0  0  0  0  0
    8.5343   -2.0814    1.2406 C   0  0  0  0  0  0  0  0  0  0  0  0
    7.1859   -2.6522    0.7846 C   0  0  0  0  0  0  0  0  0  0  0  0
    6.7262   -1.6606   -0.3136 C   0  0  2  0  0  0  0  0  0  0  0  0
    7.1830   -2.0468   -1.7183 C   0  0  0  0  0  0  0  0  0  0  0  0
    8.1283   -1.3039   -2.4369 C   0  0  0  0  0  0  0  0  0  0  0  0
    8.5302   -1.7088   -3.7114 C   0  0  0  0  0  0  0  0  0  0  0  0
    7.9883   -2.8537   -4.2978 C   0  0  0  0  0  0  0  0  0  0  0  0
    7.0128   -3.5911   -3.5949 C   0  0  0  0  0  0  0  0  0  0  0  0
    6.6254   -3.1848   -2.3172 C   0  0  0  0  0  0  0  0  0  0  0  0
    6.4286   -4.7033   -4.1382 O   0  0  0  0  0  0  0  0  0  0  0  0
    6.6092   -4.8341   -5.5395 C   0  0  0  0  0  0  0  0  0  0  0  0
    8.0549   -4.5508   -5.9125 C   0  0  0  0  0  0  0  0  0  0  0  0
    8.4079   -3.2274   -5.5454 O   0  0  0  0  0  0  0  0  0  0  0  0
    3.5100    1.0594    0.7737 S   0  0  0  0  0  0  0  0  0  0  0  0
    3.0685    0.9859    2.4597 C   0  0  0  0  0  0  0  0  0  0  0  0
    1.6281    1.0148    2.8739 C   0  0  0  0  0  0  0  0  0  0  0  0
    4.8311   -0.0582    5.0513 H   0  0  0  0  0  0  0  0  0  0  0  0
    3.2871    0.8209    5.2007 H   0  0  0  0  0  0  0  0  0  0  0  0
    4.8301    1.7110    5.1360 H   0  0  0  0  0  0  0  0  0  0  0  0
    7.8482   -0.2460    2.2216 H   0  0  0  0  0  0  0  0  0  0  0  0
    9.1888    0.0276    1.0770 H   0  0  0  0  0  0  0  0  0  0  0  0
    8.8581   -2.4613    2.2209 H   0  0  0  0  0  0  0  0  0  0  0  0
    9.3178   -2.3284    0.5065 H   0  0  0  0  0  0  0  0  0  0  0  0
    6.4655   -2.6308    1.6192 H   0  0  0  0  0  0  0  0  0  0  0  0
    7.2480   -3.6848    0.4140 H   0  0  0  0  0  0  0  0  0  0  0  0
    5.6258   -1.5857   -0.3240 H   0  0  0  0  0  0  0  0  0  0  0  0
    8.5428   -0.3957   -1.9989 H   0  0  0  0  0  0  0  0  0  0  0  0
    9.2724   -1.1424   -4.2780 H   0  0  0  0  0  0  0  0  0  0  0  0
    5.8613   -3.7805   -1.8104 H   0  0  0  0  0  0  0  0  0  0  0  0
    5.9409   -4.1335   -6.0752 H   0  0  0  0  0  0  0  0  0  0  0  0
    6.3249   -5.8629   -5.8056 H   0  0  0  0  0  0  0  0  0  0  0  0
    8.2082   -4.6354   -6.9985 H   0  0  0  0  0  0  0  0  0  0  0  0
    8.7196   -5.2762   -5.4054 H   0  0  0  0  0  0  0  0  0  0  0  0
    1.0531    0.1977    2.4084 H   0  0  0  0  0  0  0  0  0  0  0  0
    1.1415    1.9623    2.5883 H   0  0  0  0  0  0  0  0  0  0  0  0
    1.5361    0.9088    3.9635 H   0  0  0  0  0  0  0  0  0  0  0  0
  1  2  1  0
  1 26  1  0
  1 27  1  0
  1 28  1  0
  2  3  1  0
  2 24  2  0
  3  4  2  0
  5  4  1  1
  4 23  1  0
  5  6  2  0
  5  7  2  0
  5  8  1  0
  8  9  1  0
  8 12  1  0
  9 10  1  0
  9 29  1  0
  9 30  1  0
 10 11  1  0
 10 31  1  0
 10 32  1  0
 11 12  1  0
 11 33  1  0
 11 34  1  0
 12 13  1  0
 12 35  1  6
 13 14  2  0
 13 18  1  0
 14 15  1  0
 14 36  1  0
 15 16  2  0
 15 37  1  0
 16 17  1  0
 16 22  1  0
 17 18  2  0
 17 19  1  0
 18 38  1  0
 19 20  1  0
 20 21  1  0
 20 39  1  0
 20 40  1  0
 21 22  1  0
 21 41  1  0
 21 42  1  0
 23 24  1  0
 24 25  1  0
 25 43  1  0
 25 44  1  0
 25 45  1  0
M  END

