
     RDKit          3D

 57 60  0  0  0  0  0  0  0  0999 V2000
    0.8473    4.3305    4.5037 C   0  0  0  0  0  0  0  0  0  0  0  0
    0.2267    5.4118    5.3648 C   0  0  0  0  0  0  0  0  0  0  0  0
    1.0448    6.2676    6.1933 C   0  0  0  0  0  0  0  0  0  0  0  0
    2.5404    6.2733    6.1162 C   0  0  0  0  0  0  0  0  0  0  0  0
    3.2222    6.3657    4.8901 C   0  0  0  0  0  0  0  0  0  0  0  0
    4.6173    6.4378    4.8522 C   0  0  0  0  0  0  0  0  0  0  0  0
    5.3546    6.4122    6.0394 C   0  0  0  0  0  0  0  0  0  0  0  0
    4.6863    6.3319    7.2658 C   0  0  0  0  0  0  0  0  0  0  0  0
    3.2925    6.2740    7.3039 C   0  0  0  0  0  0  0  0  0  0  0  0
    0.5371    7.1044    7.0771 N   0  0  0  0  0  0  0  0  0  0  0  0
   -0.8070    7.2481    7.1801 C   0  0  0  0  0  0  0  0  0  0  0  0
   -1.3182    8.1661    8.1406 C   0  0  0  0  0  0  0  0  0  0  0  0
   -2.6747    8.3850    8.2476 C   0  0  0  0  0  0  0  0  0  0  0  0
   -3.5746    7.6987    7.3942 C   0  0  0  0  0  0  0  0  0  0  0  0
   -3.1082    6.7944    6.4606 C   0  0  0  0  0  0  0  0  0  0  0  0
   -1.7134    6.5320    6.3365 C   0  0  0  0  0  0  0  0  0  0  0  0
   -1.1578    5.5732    5.4262 C   0  0  0  0  0  0  0  0  0  0  0  0
   -2.0951    4.7782    4.5475 C   0  0  0  0  0  0  0  0  0  0  0  0
   -2.6675    5.5376    3.3350 C   0  0  0  0  0  0  0  0  0  0  0  0
   -3.8067    5.3395    2.9434 O   0  0  0  0  0  0  0  0  0  0  0  0
   -1.8065    6.3979    2.7294 N   0  0  0  0  0  0  0  0  0  0  0  0
   -2.1580    7.1626    1.5384 C   0  0  2  0  0  0  0  0  0  0  0  0
   -3.2547    7.2433    1.5455 H   0  0  0  0  0  0  0  0  0  0  0  0
   -1.7708    6.4270    0.2553 C   0  0  0  0  0  0  0  0  0  0  0  0
   -2.7663    5.7471   -0.4630 C   0  0  0  0  0  0  0  0  0  0  0  0
   -2.4513    5.0232   -1.6172 C   0  0  0  0  0  0  0  0  0  0  0  0
   -1.1309    4.9667   -2.0700 C   0  0  0  0  0  0  0  0  0  0  0  0
   -0.1293    5.6363   -1.3593 C   0  0  0  0  0  0  0  0  0  0  0  0
   -0.4435    6.3578   -0.2045 C   0  0  0  0  0  0  0  0  0  0  0  0
   -1.5979    8.5882    1.7105 C   0  0  2  0  0  0  0  0  0  0  0  0
   -2.1200    9.0080    2.5930 H   0  0  0  0  0  0  0  0  0  0  0  0
   -1.8402    9.5008    0.5137 C   0  0  0  0  0  0  0  0  0  0  0  0
   -0.2068    8.4619    2.0132 O   0  0  0  0  0  0  0  0  0  0  0  0
    1.8970    4.1573    4.7661 H   0  0  0  0  0  0  0  0  0  0  0  0
    0.8112    4.5738    3.4280 H   0  0  0  0  0  0  0  0  0  0  0  0
    0.3165    3.3744    4.6303 H   0  0  0  0  0  0  0  0  0  0  0  0
    2.6571    6.4100    3.9560 H   0  0  0  0  0  0  0  0  0  0  0  0
    5.1296    6.5204    3.8900 H   0  0  0  0  0  0  0  0  0  0  0  0
    6.4461    6.4621    6.0096 H   0  0  0  0  0  0  0  0  0  0  0  0
    5.2554    6.3197    8.1992 H   0  0  0  0  0  0  0  0  0  0  0  0
    2.7641    6.2356    8.2583 H   0  0  0  0  0  0  0  0  0  0  0  0
   -0.5944    8.6871    8.7703 H   0  0  0  0  0  0  0  0  0  0  0  0
   -3.0610    9.0937    8.9847 H   0  0  0  0  0  0  0  0  0  0  0  0
   -4.6480    7.8872    7.4761 H   0  0  0  0  0  0  0  0  0  0  0  0
   -3.8198    6.2852    5.8085 H   0  0  0  0  0  0  0  0  0  0  0  0
   -2.9670    4.4163    5.1076 H   0  0  0  0  0  0  0  0  0  0  0  0
   -1.5969    3.8861    4.1425 H   0  0  0  0  0  0  0  0  0  0  0  0
   -0.8863    6.5688    3.1223 H   0  0  0  0  0  0  0  0  0  0  0  0
   -3.7971    5.7716   -0.1000 H   0  0  0  0  0  0  0  0  0  0  0  0
   -3.2414    4.4990   -2.1613 H   0  0  0  0  0  0  0  0  0  0  0  0
   -0.8817    4.4020   -2.9723 H   0  0  0  0  0  0  0  0  0  0  0  0
    0.9067    5.5972   -1.7072 H   0  0  0  0  0  0  0  0  0  0  0  0
    0.3395    6.8854    0.3422 H   0  0  0  0  0  0  0  0  0  0  0  0
   -1.4683   10.5169    0.7264 H   0  0  0  0  0  0  0  0  0  0  0  0
   -2.9166    9.5804    0.2929 H   0  0  0  0  0  0  0  0  0  0  0  0
   -1.3279    9.1253   -0.3837 H   0  0  0  0  0  0  0  0  0  0  0  0
    0.1293    9.3217    2.2963 H   0  0  0  0  0  0  0  0  0  0  0  0
  1  2  1  0
  1 34  1  0
  1 35  1  0
  1 36  1  0
  2  3  2  0
  2 17  1  0
  3  4  1  0
  3 10  1  0
  4  5  2  0
  4  9  1  0
  5  6  1  0
  5 37  1  0
  6  7  2  0
  6 38  1  0
  7  8  1  0
  7 39  1  0
  8  9  2  0
  8 40  1  0
  9 41  1  0
 10 11  2  0
 11 12  1  0
 11 16  1  0
 12 13  2  0
 12 42  1  0
 13 14  1  0
 13 43  1  0
 14 15  2  0
 14 44  1  0
 15 16  1  0
 15 45  1  0
 16 17  2  0
 17 18  1  0
 18 19  1  0
 18 46  1  0
 18 47  1  0
 19 20  2  0
 19 21  1  0
 21 22  1  0
 21 48  1  0
 22 23  1  6
 22 24  1  0
 22 30  1  0
 24 25  2  0
 24 29  1  0
 25 26  1  0
 25 49  1  0
 26 27  2  0
 26 50  1  0
 27 28  1  0
 27 51  1  0
 28 29  2  0
 28 52  1  0
 29 53  1  0
 30 31  1  1
 30 32  1  0
 30 33  1  0
 32 54  1  0
 32 55  1  0
 32 56  1  0
 33 57  1  0
M  END

