
     RDKit          3D

 37 37  0  0  0  0  0  0  0  0999 V2000
    1.3268    0.1536    0.6907 C   0  0  0  0  0  0  0  0  0  0  0  0
    2.1068    0.0535   -0.3969 C   0  0  0  0  0  0  0  0  0  0  0  0
    3.7271   -0.4665   -0.1506 S   0  0  1  0  0  0  0  0  0  0  0  0
    3.9922   -1.8148   -0.6966 O   0  0  0  0  0  0  0  0  0  0  0  0
    4.6066    0.7681   -0.8896 N   0  0  0  0  0  0  0  0  0  0  0  0
    4.3904    1.0033   -2.3279 C   0  0  0  0  0  0  0  0  0  0  0  0
    4.8303    2.4164   -2.7073 C   0  0  0  0  0  0  0  0  0  0  0  0
    4.6602    2.6994   -4.2016 C   0  0  0  0  0  0  0  0  0  0  0  0
    5.0594    4.1214   -4.5883 C   0  0  0  0  0  0  0  0  0  0  0  0
    4.9519    4.3956   -6.0839 C   0  0  0  0  0  0  0  0  0  0  0  0
    4.6656    3.5740   -6.9090 O   0  0  0  0  0  0  0  0  0  0  0  0
    5.2201    5.6721   -6.4543 O   0  0  0  0  0  0  0  0  0  0  0  0
    4.5113   -0.3813    1.4947 C   0  0  0  0  0  0  0  0  0  0  0  0
    4.5897    0.8318    2.1893 C   0  0  0  0  0  0  0  0  0  0  0  0
    5.1069    0.7997    3.4880 C   0  0  0  0  0  0  0  0  0  0  0  0
    5.5115   -0.3988    4.0751 C   0  0  0  0  0  0  0  0  0  0  0  0
    5.4111   -1.6210    3.3748 C   0  0  0  0  0  0  0  0  0  0  0  0
    5.7682   -2.8139    3.9675 N   0  0  0  0  0  0  0  0  0  0  0  0
    4.8981   -1.5945    2.0609 C   0  0  0  0  0  0  0  0  0  0  0  0
    0.2750    0.4442    0.5638 H   0  0  0  0  0  0  0  0  0  0  0  0
    1.6282   -0.0272    1.7354 H   0  0  0  0  0  0  0  0  0  0  0  0
    5.5917    0.6459   -0.6477 H   0  0  0  0  0  0  0  0  0  0  0  0
    3.3156    0.8750   -2.5178 H   0  0  0  0  0  0  0  0  0  0  0  0
    4.9272    0.2528   -2.9371 H   0  0  0  0  0  0  0  0  0  0  0  0
    5.8888    2.5649   -2.4207 H   0  0  0  0  0  0  0  0  0  0  0  0
    4.2460    3.1362   -2.1084 H   0  0  0  0  0  0  0  0  0  0  0  0
    3.6130    2.5277   -4.5014 H   0  0  0  0  0  0  0  0  0  0  0  0
    5.2571    1.9895   -4.7974 H   0  0  0  0  0  0  0  0  0  0  0  0
    6.1025    4.3308   -4.2834 H   0  0  0  0  0  0  0  0  0  0  0  0
    4.4374    4.8620   -4.0516 H   0  0  0  0  0  0  0  0  0  0  0  0
    5.4260    6.2145   -5.6798 H   0  0  0  0  0  0  0  0  0  0  0  0
    4.2658    1.7650    1.7276 H   0  0  0  0  0  0  0  0  0  0  0  0
    5.1941    1.7287    4.0577 H   0  0  0  0  0  0  0  0  0  0  0  0
    5.9057   -0.3980    5.0951 H   0  0  0  0  0  0  0  0  0  0  0  0
    6.3719   -2.7808    4.7791 H   0  0  0  0  0  0  0  0  0  0  0  0
    5.9084   -3.6177    3.3686 H   0  0  0  0  0  0  0  0  0  0  0  0
    4.8065   -2.5092    1.4710 H   0  0  0  0  0  0  0  0  0  0  0  0
  1  2  2  0
  1 20  1  0
  1 21  1  0
  2  3  2  0
  3  4  2  0
  3  5  1  6
  3 13  1  0
  5  6  1  0
  5 22  1  0
  6  7  1  0
  6 23  1  0
  6 24  1  0
  7  8  1  0
  7 25  1  0
  7 26  1  0
  8  9  1  0
  8 27  1  0
  8 28  1  0
  9 10  1  0
  9 29  1  0
  9 30  1  0
 10 11  2  0
 10 12  1  0
 12 31  1  0
 13 14  2  0
 13 19  1  0
 14 15  1  0
 14 32  1  0
 15 16  2  0
 15 33  1  0
 16 17  1  0
 16 34  1  0
 17 18  1  0
 17 19  2  0
 18 35  1  0
 18 36  1  0
 19 37  1  0
M  END

