
     RDKit          3D

 31 31  0  0  0  0  0  0  0  0999 V2000
    3.2759   -4.7411    4.6584 C   0  0  0  0  0  0  0  0  0  0  0  0
    3.6521   -3.2807    4.4730 C   0  0  0  0  0  0  0  0  0  0  0  0
    4.4112   -3.0798    3.2663 O   0  0  0  0  0  0  0  0  0  0  0  0
    3.7240   -2.8929    2.1264 C   0  0  0  0  0  0  0  0  0  0  0  0
    2.5146   -2.8750    2.0469 O   0  0  0  0  0  0  0  0  0  0  0  0
    4.6231   -2.7086    0.9773 C   0  0  0  0  0  0  0  0  0  0  0  0
    4.0014   -2.5805   -0.1754 N   0  0  0  0  0  0  0  0  0  0  0  0
    3.4530   -2.4537   -1.1546 N   0  0  0  0  0  0  0  0  0  0  0  0
    6.1519   -2.7177    0.9301 C   0  0  1  0  0  0  0  0  0  0  0  0
    6.4856   -2.1994   -0.3477 O   0  0  0  0  0  0  0  0  0  0  0  0
    6.7827   -1.8443    2.0271 C   0  0  0  0  0  0  0  0  0  0  0  0
    6.6576   -0.4547    1.8640 C   0  0  0  0  0  0  0  0  0  0  0  0
    7.2189    0.4269    2.7887 C   0  0  0  0  0  0  0  0  0  0  0  0
    7.9198   -0.0689    3.8922 C   0  0  0  0  0  0  0  0  0  0  0  0
    8.0492   -1.4492    4.0607 C   0  0  0  0  0  0  0  0  0  0  0  0
    7.4819   -2.3344    3.1389 C   0  0  0  0  0  0  0  0  0  0  0  0
    6.6588   -4.1907    0.9236 C   0  0  1  0  0  0  0  0  0  0  0  0
    6.1268   -4.8582   -0.1051 F   0  0  0  0  0  0  0  0  0  0  0  0
    7.9989   -4.2199    0.7742 F   0  0  0  0  0  0  0  0  0  0  0  0
    6.3561   -4.8679    2.0402 F   0  0  0  0  0  0  0  0  0  0  0  0
    2.7801   -4.8797    5.6327 H   0  0  0  0  0  0  0  0  0  0  0  0
    4.1700   -5.3831    4.6300 H   0  0  0  0  0  0  0  0  0  0  0  0
    2.5806   -5.0675    3.8711 H   0  0  0  0  0  0  0  0  0  0  0  0
    4.3163   -2.9314    5.2766 H   0  0  0  0  0  0  0  0  0  0  0  0
    2.7569   -2.6427    4.4413 H   0  0  0  0  0  0  0  0  0  0  0  0
    7.4481   -2.1037   -0.3878 H   0  0  0  0  0  0  0  0  0  0  0  0
    6.1180   -0.0660    0.9980 H   0  0  0  0  0  0  0  0  0  0  0  0
    7.1088    1.5047    2.6453 H   0  0  0  0  0  0  0  0  0  0  0  0
    8.3636    0.6181    4.6172 H   0  0  0  0  0  0  0  0  0  0  0  0
    8.5953   -1.8474    4.9197 H   0  0  0  0  0  0  0  0  0  0  0  0
    7.5849   -3.4054    3.3043 H   0  0  0  0  0  0  0  0  0  0  0  0
  1  2  1  0
  1 21  1  0
  1 22  1  0
  1 23  1  0
  2  3  1  0
  2 24  1  0
  2 25  1  0
  3  4  1  0
  4  5  1  0
  4  6  2  0
  6  7  1  0
  6  9  1  0
  7  8  3  0
  9 10  1  6
  9 11  1  0
  9 17  1  0
 10 26  1  0
 11 12  2  0
 11 16  1  0
 12 13  1  0
 12 27  1  0
 13 14  2  0
 13 28  1  0
 14 15  1  0
 14 29  1  0
 15 16  2  0
 15 30  1  0
 16 31  1  0
 17 18  1  6
 17 19  1  0
 17 20  1  0
M  CHG  2   5  -1   7   1
M  END

