
     RDKit          3D

 70 73  0  0  0  0  0  0  0  0999 V2000
   -0.7069   -5.8570    1.0915 C   0  0  0  0  0  0  0  0  0  0  0  0
   -0.1963   -4.6018    1.7731 C   0  0  0  0  0  0  0  0  0  0  0  0
    1.2146   -4.5647    1.6869 O   0  0  0  0  0  0  0  0  0  0  0  0
    1.7878   -3.4404    2.3229 C   0  0  0  0  0  0  0  0  0  0  0  0
    3.2831   -3.4967    2.2993 C   0  0  0  0  0  0  0  0  0  0  0  0
    4.0153   -3.4887    3.3842 N   0  0  0  0  0  0  0  0  0  0  0  0
    5.3152   -3.4767    2.9356 C   0  0  0  0  0  0  0  0  0  0  0  0
    6.5202   -3.4653    3.6789 C   0  0  0  0  0  0  0  0  0  0  0  0
    6.4949   -3.4287    5.0433 N   0  0  0  0  0  0  0  0  0  0  0  0
    7.6876   -3.4663    3.0461 N   0  0  0  0  0  0  0  0  0  0  0  0
    7.7440   -3.4547    1.6944 C   0  0  0  0  0  0  0  0  0  0  0  0
    9.1522   -3.4314    1.1342 C   0  0  0  0  0  0  0  0  0  0  0  0
    6.6203   -3.4573    0.8460 C   0  0  0  0  0  0  0  0  0  0  0  0
    6.7471   -3.4001   -0.6574 C   0  0  0  0  0  0  0  0  0  0  0  0
    5.3767   -3.4799    1.5301 C   0  0  0  0  0  0  0  0  0  0  0  0
    4.0421   -3.4886    1.1317 N   0  0  0  0  0  0  0  0  0  0  0  0
    3.4967   -3.5964   -0.2183 C   0  0  0  0  0  0  0  0  0  0  0  0
    3.3567   -5.0458   -0.7057 C   0  0  0  0  0  0  0  0  0  0  0  0
    2.5871   -5.1791   -2.0351 C   0  0  1  0  0  0  0  0  0  0  0  0
    3.3156   -4.5979   -3.2663 C   0  0  0  0  0  0  0  0  0  0  0  0
    4.4880   -5.4698   -3.7250 C   0  0  0  0  0  0  0  0  0  0  0  0
    4.0753   -6.8566   -3.9450 N   0  0  0  0  0  0  0  0  0  0  0  0
    4.3380   -7.4289   -5.1671 C   0  0  0  0  0  0  0  0  0  0  0  0
    4.7535   -6.8059   -6.1295 O   0  0  0  0  0  0  0  0  0  0  0  0
    4.1157   -8.8108   -5.2497 N   0  0  0  0  0  0  0  0  0  0  0  0
    4.0253   -9.6875   -6.7100 S   0  0  1  0  0  0  0  0  0  0  0  0
    3.7279  -11.0391   -6.2311 O   0  0  0  0  0  0  0  0  0  0  0  0
    3.1484   -8.9792   -7.6302 O   0  0  0  0  0  0  0  0  0  0  0  0
    5.6837   -9.6815   -7.3836 C   0  0  0  0  0  0  0  0  0  0  0  0
    6.5189  -10.7695   -7.1132 C   0  0  0  0  0  0  0  0  0  0  0  0
    7.8030  -10.7962   -7.6583 C   0  0  0  0  0  0  0  0  0  0  0  0
    8.2248   -9.7356   -8.4681 C   0  0  0  0  0  0  0  0  0  0  0  0
    9.8297   -9.7673   -9.1511 Cl  0  0  0  0  0  0  0  0  0  0  0  0
    7.3816   -8.6525   -8.7434 C   0  0  0  0  0  0  0  0  0  0  0  0
    6.0977   -8.6244   -8.1997 C   0  0  0  0  0  0  0  0  0  0  0  0
    3.3978   -7.4903   -2.8175 C   0  0  0  0  0  0  0  0  0  0  0  0
    2.2091   -6.6423   -2.3408 C   0  0  0  0  0  0  0  0  0  0  0  0
   -1.8044   -5.9122    1.1603 H   0  0  0  0  0  0  0  0  0  0  0  0
   -0.2834   -6.7550    1.5673 H   0  0  0  0  0  0  0  0  0  0  0  0
   -0.4279   -5.8667    0.0262 H   0  0  0  0  0  0  0  0  0  0  0  0
   -0.5092   -4.5848    2.8375 H   0  0  0  0  0  0  0  0  0  0  0  0
   -0.6319   -3.6959    1.3007 H   0  0  0  0  0  0  0  0  0  0  0  0
    1.4990   -3.3900    3.3882 H   0  0  0  0  0  0  0  0  0  0  0  0
    1.4263   -2.5062    1.8389 H   0  0  0  0  0  0  0  0  0  0  0  0
    5.6188   -3.6140    5.5126 H   0  0  0  0  0  0  0  0  0  0  0  0
    7.3635   -3.5991    5.5325 H   0  0  0  0  0  0  0  0  0  0  0  0
    9.8594   -3.4500    1.9728 H   0  0  0  0  0  0  0  0  0  0  0  0
    9.3472   -2.5248    0.5371 H   0  0  0  0  0  0  0  0  0  0  0  0
    9.3590   -4.2995    0.4859 H   0  0  0  0  0  0  0  0  0  0  0  0
    7.7908   -3.5049   -0.9769 H   0  0  0  0  0  0  0  0  0  0  0  0
    6.3845   -2.4418   -1.0704 H   0  0  0  0  0  0  0  0  0  0  0  0
    6.1817   -4.2028   -1.1579 H   0  0  0  0  0  0  0  0  0  0  0  0
    4.1268   -3.0014   -0.8912 H   0  0  0  0  0  0  0  0  0  0  0  0
    2.5045   -3.1213   -0.2143 H   0  0  0  0  0  0  0  0  0  0  0  0
    2.8058   -5.5955    0.0718 H   0  0  0  0  0  0  0  0  0  0  0  0
    4.3575   -5.5045   -0.7703 H   0  0  0  0  0  0  0  0  0  0  0  0
    1.6421   -4.6212   -1.9073 H   0  0  0  0  0  0  0  0  0  0  0  0
    3.6820   -3.5767   -3.0715 H   0  0  0  0  0  0  0  0  0  0  0  0
    2.5969   -4.5166   -4.0993 H   0  0  0  0  0  0  0  0  0  0  0  0
    5.2984   -5.4554   -2.9715 H   0  0  0  0  0  0  0  0  0  0  0  0
    4.9063   -5.0991   -4.6679 H   0  0  0  0  0  0  0  0  0  0  0  0
    4.0204   -9.4129   -4.4391 H   0  0  0  0  0  0  0  0  0  0  0  0
    6.1561  -11.5920   -6.4946 H   0  0  0  0  0  0  0  0  0  0  0  0
    8.4737  -11.6350   -7.4667 H   0  0  0  0  0  0  0  0  0  0  0  0
    7.7327   -7.8398   -9.3810 H   0  0  0  0  0  0  0  0  0  0  0  0
    5.4246   -7.7885   -8.3880 H   0  0  0  0  0  0  0  0  0  0  0  0
    4.1160   -7.6489   -1.9901 H   0  0  0  0  0  0  0  0  0  0  0  0
    3.0215   -8.4783   -3.1109 H   0  0  0  0  0  0  0  0  0  0  0  0
    1.7619   -7.1186   -1.4527 H   0  0  0  0  0  0  0  0  0  0  0  0
    1.4435   -6.6551   -3.1350 H   0  0  0  0  0  0  0  0  0  0  0  0
  1  2  1  0
  1 38  1  0
  1 39  1  0
  1 40  1  0
  2  3  1  0
  2 41  1  0
  2 42  1  0
  3  4  1  0
  4  5  1  0
  4 43  1  0
  4 44  1  0
  5  6  2  0
  5 16  1  0
  6  7  1  0
  7  8  2  0
  7 15  1  0
  8  9  1  0
  8 10  1  0
  9 45  1  0
  9 46  1  0
 10 11  2  0
 11 12  1  0
 11 13  1  0
 12 47  1  0
 12 48  1  0
 12 49  1  0
 13 14  1  0
 13 15  2  0
 14 50  1  0
 14 51  1  0
 14 52  1  0
 15 16  1  0
 16 17  1  0
 17 18  1  0
 17 53  1  0
 17 54  1  0
 18 19  1  0
 18 55  1  0
 18 56  1  0
 19 20  1  0
 19 37  1  0
 19 57  1  1
 20 21  1  0
 20 58  1  0
 20 59  1  0
 21 22  1  0
 21 60  1  0
 21 61  1  0
 22 23  1  0
 22 36  1  0
 23 24  2  0
 23 25  1  0
 26 25  1  1
 25 62  1  0
 26 27  2  0
 26 28  2  0
 26 29  1  0
 29 30  2  0
 29 35  1  0
 30 31  1  0
 30 63  1  0
 31 32  2  0
 31 64  1  0
 32 33  1  0
 32 34  1  0
 34 35  2  0
 34 65  1  0
 35 66  1  0
 36 37  1  0
 36 67  1  0
 36 68  1  0
 37 69  1  0
 37 70  1  0
M  END

