
     RDKit          3D

 55 56  0  0  0  0  0  0  0  0999 V2000
    1.0773   -3.6440   -3.0443 C   0  0  0  0  0  0  0  0  0  0  0  0
    1.6736   -2.3526   -2.7630 N   0  0  0  0  0  0  0  0  0  0  0  0
    2.6227   -2.3363   -1.6544 C   0  0  0  0  0  0  0  0  0  0  0  0
    4.0217   -2.8742   -2.0181 C   0  0  0  0  0  0  0  0  0  0  0  0
    4.6227   -2.1695   -3.2553 C   0  0  2  0  0  0  0  0  0  0  0  0
    5.1617   -0.7714   -2.9025 C   0  0  0  0  0  0  0  0  0  0  0  0
    5.8340   -0.1246   -4.0240 N   0  0  0  0  0  0  0  0  0  0  0  0
    6.4872    1.1385   -3.6795 C   0  0  0  0  0  0  0  0  0  0  0  0
    7.2242    1.7426   -4.8427 C   0  0  0  0  0  0  0  0  0  0  0  0
    7.6608    3.0798   -5.0026 C   0  0  0  0  0  0  0  0  0  0  0  0
    8.3836    3.2433   -6.1035 N   0  0  0  0  0  0  0  0  0  0  0  0
    8.4467    2.0273   -6.6784 N   0  0  0  0  0  0  0  0  0  0  0  0
    9.2282    1.8528   -7.8881 C   0  0  0  0  0  0  0  0  0  0  0  0
    7.7448    1.0976   -5.9666 C   0  0  0  0  0  0  0  0  0  0  0  0
    7.6514   -0.2621   -6.2925 N   0  0  0  0  0  0  0  0  0  0  0  0
    7.2127   -0.7427   -7.5135 C   0  0  0  0  0  0  0  0  0  0  0  0
    7.1271   -0.0929   -8.5332 O   0  0  0  0  0  0  0  0  0  0  0  0
    6.9153   -2.0499   -7.3767 O   0  0  0  0  0  0  0  0  0  0  0  0
    6.4767   -2.8705   -8.5106 C   0  0  1  0  0  0  0  0  0  0  0  0
    7.5736   -2.9135   -9.5796 C   0  0  0  0  0  0  0  0  0  0  0  0
    6.2834   -4.2492   -7.8763 C   0  0  0  0  0  0  0  0  0  0  0  0
    5.1517   -2.3368   -9.0651 C   0  0  0  0  0  0  0  0  0  0  0  0
    3.5760   -2.1751   -4.3929 C   0  0  0  0  0  0  0  0  0  0  0  0
    2.2046   -1.6510   -3.9273 C   0  0  0  0  0  0  0  0  0  0  0  0
    0.5984   -4.0370   -2.1325 H   0  0  0  0  0  0  0  0  0  0  0  0
    1.7767   -4.4287   -3.4112 H   0  0  0  0  0  0  0  0  0  0  0  0
    0.2890   -3.5297   -3.8065 H   0  0  0  0  0  0  0  0  0  0  0  0
    2.2001   -2.9150   -0.8167 H   0  0  0  0  0  0  0  0  0  0  0  0
    2.7101   -1.2945   -1.2953 H   0  0  0  0  0  0  0  0  0  0  0  0
    3.9505   -3.9554   -2.2280 H   0  0  0  0  0  0  0  0  0  0  0  0
    4.6976   -2.7737   -1.1508 H   0  0  0  0  0  0  0  0  0  0  0  0
    5.4970   -2.7493   -3.5986 H   0  0  0  0  0  0  0  0  0  0  0  0
    5.9044   -0.8876   -2.0939 H   0  0  0  0  0  0  0  0  0  0  0  0
    4.3579   -0.1309   -2.4788 H   0  0  0  0  0  0  0  0  0  0  0  0
    5.1638    0.0496   -4.7736 H   0  0  0  0  0  0  0  0  0  0  0  0
    7.1977    0.9218   -2.8587 H   0  0  0  0  0  0  0  0  0  0  0  0
    5.7788    1.8885   -3.2626 H   0  0  0  0  0  0  0  0  0  0  0  0
    7.4712    3.9296   -4.3455 H   0  0  0  0  0  0  0  0  0  0  0  0
    9.9567    2.6722   -7.9191 H   0  0  0  0  0  0  0  0  0  0  0  0
    8.5922    1.8664   -8.7832 H   0  0  0  0  0  0  0  0  0  0  0  0
    9.7554    0.8888   -7.8535 H   0  0  0  0  0  0  0  0  0  0  0  0
    7.3533   -0.8226   -5.4914 H   0  0  0  0  0  0  0  0  0  0  0  0
    8.5229   -3.2585   -9.1406 H   0  0  0  0  0  0  0  0  0  0  0  0
    7.7284   -1.9239  -10.0278 H   0  0  0  0  0  0  0  0  0  0  0  0
    7.2889   -3.6201  -10.3746 H   0  0  0  0  0  0  0  0  0  0  0  0
    7.2264   -4.6096   -7.4383 H   0  0  0  0  0  0  0  0  0  0  0  0
    5.9500   -4.9740   -8.6343 H   0  0  0  0  0  0  0  0  0  0  0  0
    5.5269   -4.2055   -7.0782 H   0  0  0  0  0  0  0  0  0  0  0  0
    5.2785   -1.3381   -9.5017 H   0  0  0  0  0  0  0  0  0  0  0  0
    4.3956   -2.2825   -8.2659 H   0  0  0  0  0  0  0  0  0  0  0  0
    4.7743   -3.0181   -9.8436 H   0  0  0  0  0  0  0  0  0  0  0  0
    3.4630   -3.2118   -4.7549 H   0  0  0  0  0  0  0  0  0  0  0  0
    3.9333   -1.5999   -5.2645 H   0  0  0  0  0  0  0  0  0  0  0  0
    1.4716   -1.7176   -4.7480 H   0  0  0  0  0  0  0  0  0  0  0  0
    2.2853   -0.5775   -3.6730 H   0  0  0  0  0  0  0  0  0  0  0  0
  1  2  1  0
  1 25  1  0
  1 26  1  0
  1 27  1  0
  2  3  1  0
  2 24  1  0
  3  4  1  0
  3 28  1  0
  3 29  1  0
  4  5  1  0
  4 30  1  0
  4 31  1  0
  5  6  1  0
  5 23  1  0
  5 32  1  6
  6  7  1  0
  6 33  1  0
  6 34  1  0
  7  8  1  0
  7 35  1  0
  8  9  1  0
  8 36  1  0
  8 37  1  0
  9 10  1  0
  9 14  2  0
 10 11  2  0
 10 38  1  0
 11 12  1  0
 12 13  1  0
 12 14  1  0
 13 39  1  0
 13 40  1  0
 13 41  1  0
 14 15  1  0
 15 16  1  0
 15 42  1  0
 16 17  2  0
 16 18  1  0
 19 18  1  1
 19 20  1  0
 19 21  1  0
 19 22  1  0
 20 43  1  0
 20 44  1  0
 20 45  1  0
 21 46  1  0
 21 47  1  0
 21 48  1  0
 22 49  1  0
 22 50  1  0
 22 51  1  0
 23 24  1  0
 23 52  1  0
 23 53  1  0
 24 54  1  0
 24 55  1  0
M  END

