
     RDKit          3D

 43 46  0  0  0  0  0  0  0  0999 V2000
    0.8392   -1.3987    0.6493 C   0  0  0  0  0  0  0  0  0  0  0  0
    2.2595   -1.0722    0.6173 N   0  0  0  0  0  0  0  0  0  0  0  0
    2.7885   -0.3860    1.7904 C   0  0  0  0  0  0  0  0  0  0  0  0
    2.0960    0.9192    2.1052 C   0  0  0  0  0  0  0  0  0  0  0  0
    1.4895    1.1694    3.2259 N   0  0  0  0  0  0  0  0  0  0  0  0
    0.9621    2.4399    3.2522 C   0  0  0  0  0  0  0  0  0  0  0  0
    1.1651    3.1913    2.1190 C   0  0  0  0  0  0  0  0  0  0  0  0
    2.0642    2.2551    0.9578 S   0  0  0  0  0  0  0  0  0  0  0  0
    0.6707    4.5950    1.9099 C   0  0  0  0  0  0  0  0  0  0  0  0
    0.2526    5.2101    3.2581 C   0  0  0  0  0  0  0  0  0  0  0  0
   -0.5794    4.2307    4.0979 C   0  0  0  0  0  0  0  0  0  0  0  0
    0.2163    2.9640    4.4502 C   0  0  0  0  0  0  0  0  0  0  0  0
    2.9031   -1.1546   -0.6019 C   0  0  0  0  0  0  0  0  0  0  0  0
    2.2946   -1.3983   -1.6327 O   0  0  0  0  0  0  0  0  0  0  0  0
    4.4039   -0.9853   -0.6379 C   0  0  0  0  0  0  0  0  0  0  0  0
    5.2712   -1.6851    0.2514 C   0  0  0  0  0  0  0  0  0  0  0  0
    6.6399   -1.5897    0.1269 C   0  0  0  0  0  0  0  0  0  0  0  0
    7.2221   -0.7823   -0.8895 C   0  0  0  0  0  0  0  0  0  0  0  0
    8.5790   -0.7026   -0.9722 N   0  0  0  0  0  0  0  0  0  0  0  0
    9.1013    0.0395   -1.9232 C   0  0  0  0  0  0  0  0  0  0  0  0
    8.3368    0.7660   -2.8764 C   0  0  0  0  0  0  0  0  0  0  0  0
    6.9633    0.6996   -2.8113 C   0  0  0  0  0  0  0  0  0  0  0  0
    6.3541   -0.0888   -1.7973 C   0  0  0  0  0  0  0  0  0  0  0  0
    4.9486   -0.2222   -1.6554 C   0  0  0  0  0  0  0  0  0  0  0  0
    0.5818   -1.8041    1.6398 H   0  0  0  0  0  0  0  0  0  0  0  0
    0.6243   -2.1401   -0.1291 H   0  0  0  0  0  0  0  0  0  0  0  0
    0.2065   -0.5138    0.4613 H   0  0  0  0  0  0  0  0  0  0  0  0
    3.8608   -0.2035    1.6462 H   0  0  0  0  0  0  0  0  0  0  0  0
    2.6720   -1.0139    2.6896 H   0  0  0  0  0  0  0  0  0  0  0  0
   -0.1904    4.5887    1.2155 H   0  0  0  0  0  0  0  0  0  0  0  0
    1.4436    5.2169    1.4279 H   0  0  0  0  0  0  0  0  0  0  0  0
   -0.3111    6.1398    3.0787 H   0  0  0  0  0  0  0  0  0  0  0  0
    1.1581    5.4943    3.8232 H   0  0  0  0  0  0  0  0  0  0  0  0
   -1.4841    3.9480    3.5298 H   0  0  0  0  0  0  0  0  0  0  0  0
   -0.9310    4.7223    5.0192 H   0  0  0  0  0  0  0  0  0  0  0  0
   -0.4461    2.1742    4.8408 H   0  0  0  0  0  0  0  0  0  0  0  0
    0.9383    3.1782    5.2603 H   0  0  0  0  0  0  0  0  0  0  0  0
    4.8407   -2.3245    1.0259 H   0  0  0  0  0  0  0  0  0  0  0  0
    7.3164   -2.1299    0.7921 H   0  0  0  0  0  0  0  0  0  0  0  0
   10.1972    0.0864   -1.9663 H   0  0  0  0  0  0  0  0  0  0  0  0
    8.8429    1.3602   -3.6405 H   0  0  0  0  0  0  0  0  0  0  0  0
    6.3341    1.2401   -3.5241 H   0  0  0  0  0  0  0  0  0  0  0  0
    4.2845    0.2772   -2.3651 H   0  0  0  0  0  0  0  0  0  0  0  0
  1  2  1  0
  1 25  1  0
  1 26  1  0
  1 27  1  0
  2  3  1  0
  2 13  1  0
  3  4  1  0
  3 28  1  0
  3 29  1  0
  4  5  2  0
  4  8  1  0
  5  6  1  0
  6  7  2  0
  6 12  1  0
  7  8  1  0
  7  9  1  0
  9 10  1  0
  9 30  1  0
  9 31  1  0
 10 11  1  0
 10 32  1  0
 10 33  1  0
 11 12  1  0
 11 34  1  0
 11 35  1  0
 12 36  1  0
 12 37  1  0
 13 14  2  0
 13 15  1  0
 15 16  2  0
 15 24  1  0
 16 17  1  0
 16 38  1  0
 17 18  2  0
 17 39  1  0
 18 19  1  0
 18 23  1  0
 19 20  2  0
 20 21  1  0
 20 40  1  0
 21 22  2  0
 21 41  1  0
 22 23  1  0
 22 42  1  0
 23 24  2  0
 24 43  1  0
M  END

