
     RDKit          3D

 60 62  0  0  0  0  0  0  0  0999 V2000
    7.9361   -0.3937    1.1170 C   0  0  0  0  0  0  0  0  0  0  0  0
    6.7925    0.2022    1.4644 C   0  0  0  0  0  0  0  0  0  0  0  0
    5.4288   -0.3446    1.1414 C   0  0  0  0  0  0  0  0  0  0  0  0
    4.7029    0.5585    0.2188 N   0  0  0  0  0  0  0  0  0  0  0  0
    5.2269    0.7047   -1.1467 C   0  0  0  0  0  0  0  0  0  0  0  0
    5.1845   -0.5914   -1.9794 C   0  0  0  0  0  0  0  0  0  0  0  0
    5.8724   -1.5376   -1.6046 O   0  0  0  0  0  0  0  0  0  0  0  0
    4.4119   -0.6498   -3.1060 N   0  0  0  0  0  0  0  0  0  0  0  0
    4.4322   -1.8792   -3.8955 C   0  0  0  0  0  0  0  0  0  0  0  0
    3.0135   -2.4168   -4.0703 C   0  0  0  0  0  0  0  0  0  0  0  0
    2.1240   -1.3584   -4.6816 C   0  0  0  0  0  0  0  0  0  0  0  0
    1.0153   -1.7027   -5.4734 C   0  0  0  0  0  0  0  0  0  0  0  0
    0.2039   -0.7315   -6.0642 C   0  0  0  0  0  0  0  0  0  0  0  0
   -0.8641   -1.0109   -6.8645 O   0  0  0  0  0  0  0  0  0  0  0  0
   -1.2258   -2.3546   -7.0803 C   0  0  0  0  0  0  0  0  0  0  0  0
    0.5043    0.6386   -5.8519 C   0  0  0  0  0  0  0  0  0  0  0  0
   -0.1936    1.6645   -6.4165 O   0  0  0  0  0  0  0  0  0  0  0  0
   -1.6118    1.6662   -6.3894 C   0  0  0  0  0  0  0  0  0  0  0  0
    1.6077    0.9681   -5.0684 C   0  0  0  0  0  0  0  0  0  0  0  0
    2.4265   -0.0065   -4.4798 C   0  0  0  0  0  0  0  0  0  0  0  0
    3.5806    0.4529   -3.6044 C   0  0  0  0  0  0  0  0  0  0  0  0
    3.0117    0.5389    0.3541 S   0  0  1  0  0  0  0  0  0  0  0  0
    2.5231    1.4554   -0.6862 O   0  0  0  0  0  0  0  0  0  0  0  0
    2.4938   -0.8326    0.4195 O   0  0  0  0  0  0  0  0  0  0  0  0
    2.7355    1.3002    1.9473 C   0  0  0  0  0  0  0  0  0  0  0  0
    3.0691    2.6501    2.1435 C   0  0  0  0  0  0  0  0  0  0  0  0
    2.7977    3.2492    3.3636 C   0  0  0  0  0  0  0  0  0  0  0  0
    2.1840    2.5133    4.4002 C   0  0  0  0  0  0  0  0  0  0  0  0
    1.9605    3.1859    5.5491 O   0  0  0  0  0  0  0  0  0  0  0  0
    1.2995    2.5408    6.6188 C   0  0  0  0  0  0  0  0  0  0  0  0
    1.8467    1.1665    4.1923 C   0  0  0  0  0  0  0  0  0  0  0  0
    2.1235    0.5652    2.9603 C   0  0  0  0  0  0  0  0  0  0  0  0
    8.9076    0.0303    1.3899 H   0  0  0  0  0  0  0  0  0  0  0  0
    7.9333   -1.3223    0.5368 H   0  0  0  0  0  0  0  0  0  0  0  0
    6.8083    1.1517    2.0153 H   0  0  0  0  0  0  0  0  0  0  0  0
    4.8356   -0.3989    2.0692 H   0  0  0  0  0  0  0  0  0  0  0  0
    5.5005   -1.3598    0.7244 H   0  0  0  0  0  0  0  0  0  0  0  0
    6.2950    0.9493   -1.0416 H   0  0  0  0  0  0  0  0  0  0  0  0
    4.7221    1.5584   -1.6090 H   0  0  0  0  0  0  0  0  0  0  0  0
    5.0753   -2.5901   -3.3652 H   0  0  0  0  0  0  0  0  0  0  0  0
    4.8832   -1.6758   -4.8857 H   0  0  0  0  0  0  0  0  0  0  0  0
    2.6288   -2.7252   -3.0807 H   0  0  0  0  0  0  0  0  0  0  0  0
    3.0290   -3.3194   -4.7040 H   0  0  0  0  0  0  0  0  0  0  0  0
    0.8020   -2.7606   -5.6352 H   0  0  0  0  0  0  0  0  0  0  0  0
   -2.1137   -2.3414   -7.7283 H   0  0  0  0  0  0  0  0  0  0  0  0
   -1.4794   -2.8703   -6.1358 H   0  0  0  0  0  0  0  0  0  0  0  0
   -0.4229   -2.9205   -7.5875 H   0  0  0  0  0  0  0  0  0  0  0  0
   -1.9238    2.7101   -6.5496 H   0  0  0  0  0  0  0  0  0  0  0  0
   -1.9999    1.3279   -5.4122 H   0  0  0  0  0  0  0  0  0  0  0  0
   -2.0398    1.0314   -7.1803 H   0  0  0  0  0  0  0  0  0  0  0  0
    1.8125    2.0325   -4.9247 H   0  0  0  0  0  0  0  0  0  0  0  0
    3.1526    0.9876   -2.7454 H   0  0  0  0  0  0  0  0  0  0  0  0
    4.1981    1.1703   -4.1796 H   0  0  0  0  0  0  0  0  0  0  0  0
    3.5343    3.2217    1.3383 H   0  0  0  0  0  0  0  0  0  0  0  0
    3.0460    4.2960    3.5499 H   0  0  0  0  0  0  0  0  0  0  0  0
    1.2016    3.2882    7.4177 H   0  0  0  0  0  0  0  0  0  0  0  0
    1.8767    1.6799    6.9998 H   0  0  0  0  0  0  0  0  0  0  0  0
    0.2916    2.1970    6.3244 H   0  0  0  0  0  0  0  0  0  0  0  0
    1.3727    0.5753    4.9763 H   0  0  0  0  0  0  0  0  0  0  0  0
    1.8596   -0.4786    2.7791 H   0  0  0  0  0  0  0  0  0  0  0  0
  1  2  2  0
  1 33  1  0
  1 34  1  0
  2  3  1  0
  2 35  1  0
  3  4  1  0
  3 36  1  0
  3 37  1  0
  4  5  1  0
 22  4  1  6
  5  6  1  0
  5 38  1  0
  5 39  1  0
  6  7  2  0
  6  8  1  0
  8  9  1  0
  8 21  1  0
  9 10  1  0
  9 40  1  0
  9 41  1  0
 10 11  1  0
 10 42  1  0
 10 43  1  0
 11 12  2  0
 11 20  1  0
 12 13  1  0
 12 44  1  0
 13 14  1  0
 13 16  2  0
 14 15  1  0
 15 45  1  0
 15 46  1  0
 15 47  1  0
 16 17  1  0
 16 19  1  0
 17 18  1  0
 18 48  1  0
 18 49  1  0
 18 50  1  0
 19 20  2  0
 19 51  1  0
 20 21  1  0
 21 52  1  0
 21 53  1  0
 22 23  2  0
 22 24  2  0
 22 25  1  0
 25 26  2  0
 25 32  1  0
 26 27  1  0
 26 54  1  0
 27 28  2  0
 27 55  1  0
 28 29  1  0
 28 31  1  0
 29 30  1  0
 30 56  1  0
 30 57  1  0
 30 58  1  0
 31 32  2  0
 31 59  1  0
 32 60  1  0
M  END

