
     RDKit          3D

 38 39  0  0  0  0  0  0  0  0999 V2000
    1.8693    3.9714   -2.2993 C   0  0  0  0  0  0  0  0  0  0  0  0
    2.6342    3.1317   -1.5974 C   0  0  0  0  0  0  0  0  0  0  0  0
    3.5406    3.5591   -0.4809 C   0  0  0  0  0  0  0  0  0  0  0  0
    4.9274    3.2734   -0.7713 O   0  0  0  0  0  0  0  0  0  0  0  0
    5.3677    2.0269   -0.4977 C   0  0  0  0  0  0  0  0  0  0  0  0
    4.6516    1.1691   -0.0261 O   0  0  0  0  0  0  0  0  0  0  0  0
    6.8018    1.7958   -0.8022 C   0  0  0  0  0  0  0  0  0  0  0  0
    7.6543    2.7567   -1.2358 C   0  0  0  0  0  0  0  0  0  0  0  0
    7.3838    4.1883   -1.5973 C   0  0  0  0  0  0  0  0  0  0  0  0
    8.9950    2.4874   -1.4007 O   0  0  0  0  0  0  0  0  0  0  0  0
    9.5430    1.3450   -0.9073 C   0  0  0  0  0  0  0  0  0  0  0  0
   10.9009    1.3755   -0.9969 N   0  0  0  0  0  0  0  0  0  0  0  0
    8.7712    0.3257   -0.4302 C   0  0  0  0  0  0  0  0  0  0  0  0
    9.4150   -0.7963    0.1555 C   0  0  0  0  0  0  0  0  0  0  0  0
    9.9718   -1.6980    0.6401 N   0  0  0  0  0  0  0  0  0  0  0  0
    7.2593    0.3583   -0.5795 C   0  0  2  0  0  0  0  0  0  0  0  0
    6.7508   -0.5758   -1.6853 C   0  0  0  0  0  0  0  0  0  0  0  0
    5.7823   -1.5494   -1.4084 C   0  0  0  0  0  0  0  0  0  0  0  0
    5.3124   -2.4070   -2.4062 C   0  0  0  0  0  0  0  0  0  0  0  0
    5.8149   -2.2870   -3.7036 C   0  0  0  0  0  0  0  0  0  0  0  0
    5.2332   -3.3545   -4.9631 Cl  0  0  0  0  0  0  0  0  0  0  0  0
    6.7796   -1.3215   -4.0075 C   0  0  0  0  0  0  0  0  0  0  0  0
    7.2391   -0.4762   -2.9969 C   0  0  0  0  0  0  0  0  0  0  0  0
    1.2020    3.6137   -3.0882 H   0  0  0  0  0  0  0  0  0  0  0  0
    1.8727    5.0498   -2.1061 H   0  0  0  0  0  0  0  0  0  0  0  0
    2.6129    2.0559   -1.8044 H   0  0  0  0  0  0  0  0  0  0  0  0
    3.2700    3.0437    0.4535 H   0  0  0  0  0  0  0  0  0  0  0  0
    3.4980    4.6465   -0.3284 H   0  0  0  0  0  0  0  0  0  0  0  0
    6.5486    4.2704   -2.3035 H   0  0  0  0  0  0  0  0  0  0  0  0
    8.2908    4.6211   -2.0397 H   0  0  0  0  0  0  0  0  0  0  0  0
    7.1061    4.7741   -0.7078 H   0  0  0  0  0  0  0  0  0  0  0  0
   11.3470    2.2852   -1.0035 H   0  0  0  0  0  0  0  0  0  0  0  0
   11.4150    0.6145   -0.5681 H   0  0  0  0  0  0  0  0  0  0  0  0
    6.8016    0.0131    0.3589 H   0  0  0  0  0  0  0  0  0  0  0  0
    5.3778   -1.6319   -0.3972 H   0  0  0  0  0  0  0  0  0  0  0  0
    4.5597   -3.1648   -2.1825 H   0  0  0  0  0  0  0  0  0  0  0  0
    7.1652   -1.2403   -5.0251 H   0  0  0  0  0  0  0  0  0  0  0  0
    7.9988    0.2714   -3.2409 H   0  0  0  0  0  0  0  0  0  0  0  0
  1  2  2  0
  1 24  1  0
  1 25  1  0
  2  3  1  0
  2 26  1  0
  3  4  1  0
  3 27  1  0
  3 28  1  0
  4  5  1  0
  5  6  2  0
  5  7  1  0
  7  8  2  0
  7 16  1  0
  8  9  1  0
  8 10  1  0
  9 29  1  0
  9 30  1  0
  9 31  1  0
 10 11  1  0
 11 12  1  0
 11 13  2  0
 12 32  1  0
 12 33  1  0
 13 14  1  0
 13 16  1  0
 14 15  3  0
 16 17  1  0
 16 34  1  1
 17 18  2  0
 17 23  1  0
 18 19  1  0
 18 35  1  0
 19 20  2  0
 19 36  1  0
 20 21  1  0
 20 22  1  0
 22 23  2  0
 22 37  1  0
 23 38  1  0
M  END

