
     RDKit          3D

 37 39  0  0  0  0  0  0  0  0999 V2000
   11.2001   -2.6482   -8.0902 C   0  0  0  0  0  0  0  0  0  0  0  0
   10.9247   -3.2857   -6.7508 C   0  0  0  0  0  0  0  0  0  0  0  0
   11.0380   -4.6887   -6.5906 C   0  0  0  0  0  0  0  0  0  0  0  0
   10.7947   -5.3053   -5.3738 C   0  0  0  0  0  0  0  0  0  0  0  0
   10.4212   -4.5396   -4.2476 C   0  0  0  0  0  0  0  0  0  0  0  0
   10.1894   -5.1719   -3.0381 N   0  0  0  0  0  0  0  0  0  0  0  0
    9.8433   -4.4333   -2.0418 C   0  0  0  0  0  0  0  0  0  0  0  0
    9.6833   -3.0624   -2.0702 N   0  0  0  0  0  0  0  0  0  0  0  0
    9.2917   -2.3454   -0.8577 C   0  0  0  0  0  0  0  0  0  0  0  0
    7.7942   -2.4416   -0.5183 C   0  0  2  0  0  0  0  0  0  0  0  0
    7.6584   -1.8169    0.3842 H   0  0  0  0  0  0  0  0  0  0  0  0
    7.5271   -3.8020   -0.2275 O   0  0  0  0  0  0  0  0  0  0  0  0
    6.8876   -1.8932   -1.6118 C   0  0  0  0  0  0  0  0  0  0  0  0
    6.2946   -2.7603   -2.5422 C   0  0  0  0  0  0  0  0  0  0  0  0
    5.4691   -2.2819   -3.5623 C   0  0  0  0  0  0  0  0  0  0  0  0
    5.2186   -0.9122   -3.6685 C   0  0  0  0  0  0  0  0  0  0  0  0
    5.7943   -0.0264   -2.7552 C   0  0  0  0  0  0  0  0  0  0  0  0
    6.6202   -0.5194   -1.7432 C   0  0  0  0  0  0  0  0  0  0  0  0
    7.3249    0.6320   -0.6183 Cl  0  0  0  0  0  0  0  0  0  0  0  0
    9.9152   -2.3122   -3.2455 C   0  0  0  0  0  0  0  0  0  0  0  0
    9.7974   -1.0983   -3.2544 O   0  0  0  0  0  0  0  0  0  0  0  0
   10.3033   -3.1381   -4.3985 C   0  0  0  0  0  0  0  0  0  0  0  0
   10.5563   -2.5290   -5.6417 C   0  0  0  0  0  0  0  0  0  0  0  0
   10.5274   -3.0454   -8.8691 H   0  0  0  0  0  0  0  0  0  0  0  0
   12.2315   -2.8507   -8.4255 H   0  0  0  0  0  0  0  0  0  0  0  0
   11.0661   -1.5574   -8.0531 H   0  0  0  0  0  0  0  0  0  0  0  0
   11.3267   -5.2995   -7.4516 H   0  0  0  0  0  0  0  0  0  0  0  0
   10.8848   -6.3864   -5.2510 H   0  0  0  0  0  0  0  0  0  0  0  0
    9.6392   -4.8913   -1.0688 H   0  0  0  0  0  0  0  0  0  0  0  0
    9.5631   -1.2932   -1.0031 H   0  0  0  0  0  0  0  0  0  0  0  0
    9.8579   -2.7516   -0.0058 H   0  0  0  0  0  0  0  0  0  0  0  0
    6.5953   -3.8896    0.0142 H   0  0  0  0  0  0  0  0  0  0  0  0
    6.4915   -3.8304   -2.4508 H   0  0  0  0  0  0  0  0  0  0  0  0
    5.0246   -2.9807   -4.2748 H   0  0  0  0  0  0  0  0  0  0  0  0
    4.5746   -0.5260   -4.4623 H   0  0  0  0  0  0  0  0  0  0  0  0
    5.6119    1.0474   -2.8206 H   0  0  0  0  0  0  0  0  0  0  0  0
   10.4537   -1.4434   -5.7069 H   0  0  0  0  0  0  0  0  0  0  0  0
  1  2  1  0
  1 24  1  0
  1 25  1  0
  1 26  1  0
  2  3  2  0
  2 23  1  0
  3  4  1  0
  3 27  1  0
  4  5  2  0
  4 28  1  0
  5  6  1  0
  5 22  1  0
  6  7  2  0
  7  8  1  0
  7 29  1  0
  8  9  1  0
  8 20  1  0
  9 10  1  0
  9 30  1  0
  9 31  1  0
 10 11  1  1
 10 12  1  0
 10 13  1  0
 12 32  1  0
 13 14  2  0
 13 18  1  0
 14 15  1  0
 14 33  1  0
 15 16  2  0
 15 34  1  0
 16 17  1  0
 16 35  1  0
 17 18  2  0
 17 36  1  0
 18 19  1  0
 20 21  2  0
 20 22  1  0
 22 23  2  0
 23 37  1  0
M  END

