
     RDKit          3D

 48 50  0  0  0  0  0  0  0  0999 V2000
    3.3587    0.0293    3.7702 C   0  0  0  0  0  0  0  0  0  0  0  0
    4.5384    0.5875    3.0412 C   0  0  0  0  0  0  0  0  0  0  0  0
    4.6825    0.4470    1.7257 N   0  0  0  0  0  0  0  0  0  0  0  0
    5.8323    1.0741    1.4009 N   0  0  0  0  0  0  0  0  0  0  0  0
    6.3000    1.0350    0.0236 C   0  0  0  0  0  0  0  0  0  0  0  0
    7.2823   -0.0859   -0.2740 C   0  0  0  0  0  0  0  0  0  0  0  0
    8.4847    0.1767   -0.9438 C   0  0  0  0  0  0  0  0  0  0  0  0
    9.3591   -0.8735   -1.2385 C   0  0  0  0  0  0  0  0  0  0  0  0
    9.0635   -2.1868   -0.8725 C   0  0  0  0  0  0  0  0  0  0  0  0
    7.8581   -2.4565   -0.1959 C   0  0  0  0  0  0  0  0  0  0  0  0
    7.4718   -3.7452    0.2145 N   0  0  0  0  0  0  0  0  0  0  0  0
    8.1267   -4.9298    0.0345 C   0  0  0  0  0  0  0  0  0  0  0  0
    9.2109   -5.0681   -0.5041 O   0  0  0  0  0  0  0  0  0  0  0  0
    7.4546   -6.1792    0.6579 C   0  0  1  0  0  0  0  0  0  0  0  0
    7.9323   -6.3805    2.1020 C   0  0  0  0  0  0  0  0  0  0  0  0
    5.9842   -6.1949    0.5793 N   0  0  0  0  0  0  0  0  0  0  0  0
    5.2763   -5.2280    1.1691 N   0  0  0  0  0  0  0  0  0  0  0  0
    3.9887   -5.5143    0.9632 C   0  0  0  0  0  0  0  0  0  0  0  0
    3.8521   -6.7026    0.2287 C   0  0  0  0  0  0  0  0  0  0  0  0
    5.1599   -7.1244   -0.0061 C   0  0  0  0  0  0  0  0  0  0  0  0
    5.6198   -8.3379   -0.7089 C   0  0  0  0  0  0  0  0  0  0  0  0
    6.7672   -8.7047   -0.8326 O   0  0  0  0  0  0  0  0  0  0  0  0
    4.5801   -9.0274   -1.2139 O   0  0  0  0  0  0  0  0  0  0  0  0
    6.9771   -1.4005    0.0940 C   0  0  0  0  0  0  0  0  0  0  0  0
    6.4624    1.6195    2.4826 C   0  0  0  0  0  0  0  0  0  0  0  0
    7.7538    2.3631    2.4091 C   0  0  0  0  0  0  0  0  0  0  0  0
    5.6373    1.3206    3.5608 C   0  0  0  0  0  0  0  0  0  0  0  0
    5.9157    1.8105    5.3616 Br  0  0  0  0  0  0  0  0  0  0  0  0
    2.6918   -0.4791    3.0603 H   0  0  0  0  0  0  0  0  0  0  0  0
    2.7898    0.8237    4.2805 H   0  0  0  0  0  0  0  0  0  0  0  0
    3.6692   -0.6921    4.5437 H   0  0  0  0  0  0  0  0  0  0  0  0
    6.7526    2.0061   -0.2253 H   0  0  0  0  0  0  0  0  0  0  0  0
    5.3934    0.9253   -0.5903 H   0  0  0  0  0  0  0  0  0  0  0  0
    8.7365    1.1998   -1.2369 H   0  0  0  0  0  0  0  0  0  0  0  0
   10.2968   -0.6672   -1.7611 H   0  0  0  0  0  0  0  0  0  0  0  0
    9.7441   -3.0046   -1.0963 H   0  0  0  0  0  0  0  0  0  0  0  0
    6.5765   -3.8171    0.7042 H   0  0  0  0  0  0  0  0  0  0  0  0
    7.7957   -7.0158    0.0404 H   0  0  0  0  0  0  0  0  0  0  0  0
    7.5695   -5.5751    2.7574 H   0  0  0  0  0  0  0  0  0  0  0  0
    9.0316   -6.3865    2.1192 H   0  0  0  0  0  0  0  0  0  0  0  0
    7.5717   -7.3445    2.4918 H   0  0  0  0  0  0  0  0  0  0  0  0
    3.2149   -4.8518    1.3488 H   0  0  0  0  0  0  0  0  0  0  0  0
    2.9458   -7.2056   -0.0959 H   0  0  0  0  0  0  0  0  0  0  0  0
    4.9534   -9.8098   -1.6546 H   0  0  0  0  0  0  0  0  0  0  0  0
    6.0377   -1.6029    0.6165 H   0  0  0  0  0  0  0  0  0  0  0  0
    8.5579    1.7422    1.9817 H   0  0  0  0  0  0  0  0  0  0  0  0
    8.0579    2.6731    3.4178 H   0  0  0  0  0  0  0  0  0  0  0  0
    7.6682    3.2714    1.7884 H   0  0  0  0  0  0  0  0  0  0  0  0
  1  2  1  0
  1 29  1  0
  1 30  1  0
  1 31  1  0
  2  3  2  0
  2 27  1  0
  3  4  1  0
  4  5  1  0
  4 25  1  0
  5  6  1  0
  5 32  1  0
  5 33  1  0
  6  7  2  0
  6 24  1  0
  7  8  1  0
  7 34  1  0
  8  9  2  0
  8 35  1  0
  9 10  1  0
  9 36  1  0
 10 11  1  0
 10 24  2  0
 11 12  1  0
 11 37  1  0
 12 13  2  0
 12 14  1  0
 14 15  1  0
 14 16  1  0
 14 38  1  6
 15 39  1  0
 15 40  1  0
 15 41  1  0
 16 17  1  0
 16 20  1  0
 17 18  2  0
 18 19  1  0
 18 42  1  0
 19 20  2  0
 19 43  1  0
 20 21  1  0
 21 22  2  0
 21 23  1  0
 23 44  1  0
 24 45  1  0
 25 26  1  0
 25 27  2  0
 26 46  1  0
 26 47  1  0
 26 48  1  0
 27 28  1  0
M  END

