
     RDKit          3D

 42 43  0  0  0  0  0  0  0  0999 V2000
    2.1362   -2.0203    0.7552 C   0  0  0  0  0  0  0  0  0  0  0  0
    3.3793   -1.2915    0.2723 C   0  0  0  0  0  0  0  0  0  0  0  0
    4.3666   -1.8912   -0.1060 O   0  0  0  0  0  0  0  0  0  0  0  0
    3.3456    0.1003    0.2920 N   0  0  0  0  0  0  0  0  0  0  0  0
    2.2098    0.8633    0.7739 C   0  0  0  0  0  0  0  0  0  0  0  0
    1.0850    1.0419   -0.2665 C   0  0  0  0  0  0  0  0  0  0  0  0
    1.0411    0.3796   -1.2890 O   0  0  0  0  0  0  0  0  0  0  0  0
    0.1204    1.9664    0.0225 N   0  0  0  0  0  0  0  0  0  0  0  0
   -0.0838    2.7457    1.2334 C   0  0  0  0  0  0  0  0  0  0  0  0
   -0.6504    4.1245    0.9463 C   0  0  0  0  0  0  0  0  0  0  0  0
   -1.6949    4.6367    1.7283 C   0  0  0  0  0  0  0  0  0  0  0  0
   -2.1978    5.9206    1.4954 C   0  0  0  0  0  0  0  0  0  0  0  0
   -1.6646    6.7057    0.4700 C   0  0  0  0  0  0  0  0  0  0  0  0
   -0.6264    6.2006   -0.3200 C   0  0  0  0  0  0  0  0  0  0  0  0
   -0.1225    4.9197   -0.0832 C   0  0  0  0  0  0  0  0  0  0  0  0
    4.5039    0.8288   -0.1550 C   0  0  0  0  0  0  0  0  0  0  0  0
    5.2087    1.5799    0.7955 C   0  0  0  0  0  0  0  0  0  0  0  0
    6.3266    2.3262    0.4277 C   0  0  0  0  0  0  0  0  0  0  0  0
    6.7599    2.3063   -0.8969 C   0  0  0  0  0  0  0  0  0  0  0  0
    6.0603    1.5426   -1.8343 C   0  0  0  0  0  0  0  0  0  0  0  0
    6.6727    1.5418   -3.4815 Cl  0  0  0  0  0  0  0  0  0  0  0  0
    4.9109    0.7936   -1.5098 C   0  0  0  0  0  0  0  0  0  0  0  0
    4.1728   -0.0163   -2.5385 C   0  0  0  0  0  0  0  0  0  0  0  0
    2.3236   -3.0948    0.6425 H   0  0  0  0  0  0  0  0  0  0  0  0
    1.2562   -1.7353    0.1610 H   0  0  0  0  0  0  0  0  0  0  0  0
    1.9255   -1.8096    1.8165 H   0  0  0  0  0  0  0  0  0  0  0  0
    2.5720    1.8502    1.0939 H   0  0  0  0  0  0  0  0  0  0  0  0
    1.7699    0.3969    1.6711 H   0  0  0  0  0  0  0  0  0  0  0  0
   -0.6253    1.9933   -0.6694 H   0  0  0  0  0  0  0  0  0  0  0  0
    0.8817    2.8541    1.7520 H   0  0  0  0  0  0  0  0  0  0  0  0
   -0.7547    2.2205    1.9389 H   0  0  0  0  0  0  0  0  0  0  0  0
   -2.1224    4.0240    2.5276 H   0  0  0  0  0  0  0  0  0  0  0  0
   -3.0135    6.3045    2.1132 H   0  0  0  0  0  0  0  0  0  0  0  0
   -2.0593    7.7076    0.2833 H   0  0  0  0  0  0  0  0  0  0  0  0
   -0.2057    6.8081   -1.1253 H   0  0  0  0  0  0  0  0  0  0  0  0
    0.6857    4.5285   -0.7067 H   0  0  0  0  0  0  0  0  0  0  0  0
    4.8813    1.5585    1.8377 H   0  0  0  0  0  0  0  0  0  0  0  0
    6.8725    2.9082    1.1739 H   0  0  0  0  0  0  0  0  0  0  0  0
    7.6394    2.8689   -1.2132 H   0  0  0  0  0  0  0  0  0  0  0  0
    4.2765    0.4270   -3.5371 H   0  0  0  0  0  0  0  0  0  0  0  0
    3.1077   -0.0938   -2.2844 H   0  0  0  0  0  0  0  0  0  0  0  0
    4.5840   -1.0386   -2.5708 H   0  0  0  0  0  0  0  0  0  0  0  0
  1  2  1  0
  1 24  1  0
  1 25  1  0
  1 26  1  0
  2  3  2  0
  2  4  1  0
  4  5  1  0
  4 16  1  0
  5  6  1  0
  5 27  1  0
  5 28  1  0
  6  7  2  0
  6  8  1  0
  8  9  1  0
  8 29  1  0
  9 10  1  0
  9 30  1  0
  9 31  1  0
 10 11  2  0
 10 15  1  0
 11 12  1  0
 11 32  1  0
 12 13  2  0
 12 33  1  0
 13 14  1  0
 13 34  1  0
 14 15  2  0
 14 35  1  0
 15 36  1  0
 16 17  2  0
 16 22  1  0
 17 18  1  0
 17 37  1  0
 18 19  2  0
 18 38  1  0
 19 20  1  0
 19 39  1  0
 20 21  1  0
 20 22  2  0
 22 23  1  0
 23 40  1  0
 23 41  1  0
 23 42  1  0
M  END

