
     RDKit          3D

 26 27  0  0  0  0  0  0  0  0999 V2000
    1.0120   -0.5486    2.6960 C   0  0  0  0  0  0  0  0  0  0  0  0
    2.4638   -0.3164    3.0591 C   0  0  0  0  0  0  0  0  0  0  0  0
    3.1713   -0.0957    1.8274 O   0  0  0  0  0  0  0  0  0  0  0  0
    4.5139    0.1185    2.0343 N   0  0  0  0  0  0  0  0  0  0  0  0
    4.9575    1.3993    2.2374 C   0  0  0  0  0  0  0  0  0  0  0  0
    4.2510    2.3392    2.5436 O   0  0  0  0  0  0  0  0  0  0  0  0
    6.4380    1.5383    2.1157 C   0  0  0  0  0  0  0  0  0  0  0  0
    7.2498    2.6069    2.3529 C   0  0  0  0  0  0  0  0  0  0  0  0
    8.5581    2.1125    2.0399 C   0  0  0  0  0  0  0  0  0  0  0  0
    9.8354    2.8143    2.1066 C   0  0  0  0  0  0  0  0  0  0  0  0
   11.0890    2.3201    1.8075 C   0  0  0  0  0  0  0  0  0  0  0  0
   12.1207    3.2840    1.9836 C   0  0  0  0  0  0  0  0  0  0  0  0
   11.6432    4.4988    2.4138 C   0  0  0  0  0  0  0  0  0  0  0  0
    9.9285    4.4816    2.6093 S   0  0  0  0  0  0  0  0  0  0  0  0
    8.5058    0.8491    1.6493 N   0  0  0  0  0  0  0  0  0  0  0  0
    7.1767    0.4903    1.6974 O   0  0  0  0  0  0  0  0  0  0  0  0
    0.4202   -0.7274    3.6069 H   0  0  0  0  0  0  0  0  0  0  0  0
    0.9061   -1.4224    2.0346 H   0  0  0  0  0  0  0  0  0  0  0  0
    0.5978    0.3300    2.1788 H   0  0  0  0  0  0  0  0  0  0  0  0
    2.8989   -1.1901    3.5785 H   0  0  0  0  0  0  0  0  0  0  0  0
    2.5783    0.5699    3.7046 H   0  0  0  0  0  0  0  0  0  0  0  0
    5.1107   -0.5697    1.5809 H   0  0  0  0  0  0  0  0  0  0  0  0
    6.9497    3.5924    2.6970 H   0  0  0  0  0  0  0  0  0  0  0  0
   11.2457    1.2943    1.4731 H   0  0  0  0  0  0  0  0  0  0  0  0
   13.1777    3.0868    1.7990 H   0  0  0  0  0  0  0  0  0  0  0  0
   12.2045    5.4072    2.6276 H   0  0  0  0  0  0  0  0  0  0  0  0
  1  2  1  0
  1 17  1  0
  1 18  1  0
  1 19  1  0
  2  3  1  0
  2 20  1  0
  2 21  1  0
  3  4  1  0
  4  5  1  0
  4 22  1  0
  5  6  2  0
  5  7  1  0
  7  8  2  0
  7 16  1  0
  8  9  1  0
  8 23  1  0
  9 10  1  0
  9 15  2  0
 10 11  2  0
 10 14  1  0
 11 12  1  0
 11 24  1  0
 12 13  2  0
 12 25  1  0
 13 14  1  0
 13 26  1  0
 15 16  1  0
M  END

