
     RDKit          3D

 63 65  0  0  0  0  0  0  0  0999 V2000
   11.3045    4.0489    1.7846 C   0  0  0  0  0  0  0  0  0  0  0  0
   10.5442    3.0389    1.1503 O   0  0  0  0  0  0  0  0  0  0  0  0
    9.4152    2.5841    1.7349 C   0  0  0  0  0  0  0  0  0  0  0  0
    8.9354    3.0239    2.9784 C   0  0  0  0  0  0  0  0  0  0  0  0
    7.7372    2.5287    3.4984 C   0  0  0  0  0  0  0  0  0  0  0  0
    7.0204    1.5788    2.7694 C   0  0  0  0  0  0  0  0  0  0  0  0
    5.5046    0.9242    3.4478 S   0  0  1  0  0  0  0  0  0  0  0  0
    4.9090    1.9500    4.3004 O   0  0  0  0  0  0  0  0  0  0  0  0
    4.7541    0.3095    2.3391 O   0  0  0  0  0  0  0  0  0  0  0  0
    5.9243   -0.3717    4.4587 N   0  0  0  0  0  0  0  0  0  0  0  0
    6.2402   -1.6691    3.8502 C   0  0  0  0  0  0  0  0  0  0  0  0
    5.1058   -2.7091    3.9453 C   0  0  0  0  0  0  0  0  0  0  0  0
    5.3182   -3.8242    4.3926 O   0  0  0  0  0  0  0  0  0  0  0  0
    3.9009   -2.2960    3.4714 N   0  0  0  0  0  0  0  0  0  0  0  0
    2.7517   -3.1783    3.4396 C   0  0  0  0  0  0  0  0  0  0  0  0
    2.0019   -3.2010    4.7713 C   0  0  0  0  0  0  0  0  0  0  0  0
    0.8801   -4.0478    4.6086 O   0  0  0  0  0  0  0  0  0  0  0  0
    0.0744   -4.3119    5.6719 C   0  0  0  0  0  0  0  0  0  0  0  0
    0.2447   -3.7619    6.9493 C   0  0  0  0  0  0  0  0  0  0  0  0
   -0.6215   -4.1118    7.9935 C   0  0  0  0  0  0  0  0  0  0  0  0
   -1.6636   -5.0107    7.7741 C   0  0  0  0  0  0  0  0  0  0  0  0
   -1.8447   -5.5541    6.4968 C   0  0  0  0  0  0  0  0  0  0  0  0
   -0.9934   -5.2171    5.4438 C   0  0  0  0  0  0  0  0  0  0  0  0
   -1.1704   -5.8195    4.2298 O   0  0  0  0  0  0  0  0  0  0  0  0
   -1.5846   -4.9965    3.1516 C   0  0  0  0  0  0  0  0  0  0  0  0
    6.2530   -0.1209    5.8277 C   0  0  0  0  0  0  0  0  0  0  0  0
    5.2539    0.2696    6.7316 C   0  0  0  0  0  0  0  0  0  0  0  0
    5.5642    0.5099    8.0700 C   0  0  0  0  0  0  0  0  0  0  0  0
    6.8793    0.3427    8.5139 C   0  0  0  0  0  0  0  0  0  0  0  0
    7.2697    0.6281   10.1925 Cl  0  0  0  0  0  0  0  0  0  0  0  0
    7.8868   -0.0517    7.6281 C   0  0  0  0  0  0  0  0  0  0  0  0
    7.5711   -0.2716    6.2872 C   0  0  0  0  0  0  0  0  0  0  0  0
    7.4804    1.1263    1.5252 C   0  0  0  0  0  0  0  0  0  0  0  0
    8.6749    1.6162    1.0007 C   0  0  0  0  0  0  0  0  0  0  0  0
    9.0544    1.2128   -0.2404 O   0  0  0  0  0  0  0  0  0  0  0  0
   10.2718    0.4875   -0.3686 C   0  0  0  0  0  0  0  0  0  0  0  0
   12.1495    4.2644    1.1181 H   0  0  0  0  0  0  0  0  0  0  0  0
   11.6935    3.7144    2.7624 H   0  0  0  0  0  0  0  0  0  0  0  0
   10.7142    4.9706    1.9272 H   0  0  0  0  0  0  0  0  0  0  0  0
    9.4841    3.7771    3.5435 H   0  0  0  0  0  0  0  0  0  0  0  0
    7.3534    2.8959    4.4511 H   0  0  0  0  0  0  0  0  0  0  0  0
    7.1069   -2.1177    4.3520 H   0  0  0  0  0  0  0  0  0  0  0  0
    6.5011   -1.5293    2.7898 H   0  0  0  0  0  0  0  0  0  0  0  0
    3.8426   -1.3684    3.0534 H   0  0  0  0  0  0  0  0  0  0  0  0
    3.0836   -4.2016    3.2073 H   0  0  0  0  0  0  0  0  0  0  0  0
    2.0707   -2.8482    2.6406 H   0  0  0  0  0  0  0  0  0  0  0  0
    1.6842   -2.1781    5.0503 H   0  0  0  0  0  0  0  0  0  0  0  0
    2.6707   -3.5836    5.5622 H   0  0  0  0  0  0  0  0  0  0  0  0
    1.0615   -3.0662    7.1420 H   0  0  0  0  0  0  0  0  0  0  0  0
   -0.4673   -3.6757    8.9836 H   0  0  0  0  0  0  0  0  0  0  0  0
   -2.3370   -5.2897    8.5878 H   0  0  0  0  0  0  0  0  0  0  0  0
   -2.6479   -6.2644    6.2882 H   0  0  0  0  0  0  0  0  0  0  0  0
   -1.7168   -5.6567    2.2825 H   0  0  0  0  0  0  0  0  0  0  0  0
   -0.8344   -4.2273    2.9083 H   0  0  0  0  0  0  0  0  0  0  0  0
   -2.5491   -4.5028    3.3731 H   0  0  0  0  0  0  0  0  0  0  0  0
    4.2326    0.3943    6.3727 H   0  0  0  0  0  0  0  0  0  0  0  0
    4.7884    0.8167    8.7732 H   0  0  0  0  0  0  0  0  0  0  0  0
    8.9093   -0.1763    7.9878 H   0  0  0  0  0  0  0  0  0  0  0  0
    8.3598   -0.5662    5.5914 H   0  0  0  0  0  0  0  0  0  0  0  0
    6.9011    0.4177    0.9325 H   0  0  0  0  0  0  0  0  0  0  0  0
   10.3475    0.1932   -1.4242 H   0  0  0  0  0  0  0  0  0  0  0  0
   10.2564   -0.4243    0.2554 H   0  0  0  0  0  0  0  0  0  0  0  0
   11.1452    1.1000   -0.0981 H   0  0  0  0  0  0  0  0  0  0  0  0
  1  2  1  0
  1 37  1  0
  1 38  1  0
  1 39  1  0
  2  3  1  0
  3  4  2  0
  3 34  1  0
  4  5  1  0
  4 40  1  0
  5  6  2  0
  5 41  1  0
  6  7  1  0
  6 33  1  0
  7  8  2  0
  7  9  2  0
  7 10  1  1
 10 11  1  0
 10 26  1  0
 11 12  1  0
 11 42  1  0
 11 43  1  0
 12 13  2  0
 12 14  1  0
 14 15  1  0
 14 44  1  0
 15 16  1  0
 15 45  1  0
 15 46  1  0
 16 17  1  0
 16 47  1  0
 16 48  1  0
 17 18  1  0
 18 19  2  0
 18 23  1  0
 19 20  1  0
 19 49  1  0
 20 21  2  0
 20 50  1  0
 21 22  1  0
 21 51  1  0
 22 23  2  0
 22 52  1  0
 23 24  1  0
 24 25  1  0
 25 53  1  0
 25 54  1  0
 25 55  1  0
 26 27  2  0
 26 32  1  0
 27 28  1  0
 27 56  1  0
 28 29  2  0
 28 57  1  0
 29 30  1  0
 29 31  1  0
 31 32  2  0
 31 58  1  0
 32 59  1  0
 33 34  2  0
 33 60  1  0
 34 35  1  0
 35 36  1  0
 36 61  1  0
 36 62  1  0
 36 63  1  0
M  END

