
     RDKit          3D

 58 66  0  0  0  0  0  0  0  0999 V2000
   -0.5296   -1.0692   -3.2024 C   0  0  0  0  0  0  0  0  0  0  0  0
   -0.3035   -2.2136   -2.4084 C   0  0  0  0  0  0  0  0  0  0  0  0
   -0.0190   -2.1684   -1.1189 N   0  0  0  0  0  0  0  0  0  0  0  0
    0.0637   -0.9692   -0.5120 C   0  0  0  0  0  0  0  0  0  0  0  0
   -0.1480    0.2474   -1.2269 C   0  0  0  0  0  0  0  0  0  0  0  0
   -0.4502    0.1746   -2.6015 C   0  0  0  0  0  0  0  0  0  0  0  0
   -0.0424    1.4892   -0.5083 C   0  0  0  0  0  0  0  0  0  0  0  0
   -0.2020    2.7637   -0.9767 N   0  0  0  0  0  0  0  0  0  0  0  0
   -0.0062    3.5589    0.0623 C   0  0  0  0  0  0  0  0  0  0  0  0
   -0.0780    5.0205    0.0263 C   0  0  0  0  0  0  0  0  0  0  0  0
    0.1318    5.8259    1.1632 C   0  0  0  0  0  0  0  0  0  0  0  0
    0.0542    7.2113    1.0847 C   0  0  0  0  0  0  0  0  0  0  0  0
   -0.2371    7.8478   -0.1371 C   0  0  0  0  0  0  0  0  0  0  0  0
   -0.3088    9.3094   -0.1731 C   0  0  0  0  0  0  0  0  0  0  0  0
   -0.1145   10.1045    0.8662 N   0  0  0  0  0  0  0  0  0  0  0  0
   -0.2732   11.3791    0.3976 C   0  0  0  0  0  0  0  0  0  0  0  0
   -0.1686   12.6209    1.1164 C   0  0  0  0  0  0  0  0  0  0  0  0
    0.1315   12.6935    2.4915 C   0  0  0  0  0  0  0  0  0  0  0  0
    0.2103   13.9373    3.0926 C   0  0  0  0  0  0  0  0  0  0  0  0
   -0.0144   15.0818    2.2983 C   0  0  0  0  0  0  0  0  0  0  0  0
   -0.2970   15.0367    1.0083 N   0  0  0  0  0  0  0  0  0  0  0  0
   -0.3790   13.8375    0.4012 C   0  0  0  0  0  0  0  0  0  0  0  0
   -0.6955   13.8069   -1.0401 C   0  0  0  0  0  0  0  0  0  0  0  0
   -0.8863   14.9767   -1.6753 N   0  0  0  0  0  0  0  0  0  0  0  0
   -1.1709   14.9758   -2.9658 C   0  0  0  0  0  0  0  0  0  0  0  0
   -1.2903   13.8023   -3.7381 C   0  0  0  0  0  0  0  0  0  0  0  0
   -1.0993   12.5836   -3.1114 C   0  0  0  0  0  0  0  0  0  0  0  0
   -0.7942   12.5561   -1.7335 C   0  0  0  0  0  0  0  0  0  0  0  0
   -0.5733   11.3691   -0.9658 C   0  0  0  0  0  0  0  0  0  0  0  0
   -0.5916   10.0367   -1.3121 N   0  0  0  0  0  0  0  0  0  0  0  0
   -0.7784    9.6578   -2.2305 H   0  0  0  0  0  0  0  0  0  0  0  0
   -0.4470    7.0424   -1.2739 C   0  0  0  0  0  0  0  0  0  0  0  0
   -0.3694    5.6570   -1.1955 C   0  0  0  0  0  0  0  0  0  0  0  0
    0.2783    2.8317    1.2009 N   0  0  0  0  0  0  0  0  0  0  0  0
    0.4671    3.2107    2.1189 H   0  0  0  0  0  0  0  0  0  0  0  0
    0.2597    1.4993    0.8547 C   0  0  0  0  0  0  0  0  0  0  0  0
    0.4819    0.3124    1.6221 C   0  0  0  0  0  0  0  0  0  0  0  0
    0.7889    0.2849    2.9995 C   0  0  0  0  0  0  0  0  0  0  0  0
    0.9811   -0.9337    3.6260 C   0  0  0  0  0  0  0  0  0  0  0  0
    0.8608   -2.1073    2.8539 C   0  0  0  0  0  0  0  0  0  0  0  0
    0.5744   -2.1083    1.5638 N   0  0  0  0  0  0  0  0  0  0  0  0
    0.3824   -0.9385    0.9289 C   0  0  0  0  0  0  0  0  0  0  0  0
   -0.7612   -1.1737   -4.2650 H   0  0  0  0  0  0  0  0  0  0  0  0
   -0.3611   -3.2109   -2.8629 H   0  0  0  0  0  0  0  0  0  0  0  0
   -0.6139    1.1001   -3.1574 H   0  0  0  0  0  0  0  0  0  0  0  0
    0.3597    5.3760    2.1332 H   0  0  0  0  0  0  0  0  0  0  0  0
    0.2169    7.8327    1.9663 H   0  0  0  0  0  0  0  0  0  0  0  0
    0.2942   11.7680    3.0477 H   0  0  0  0  0  0  0  0  0  0  0  0
    0.4402   14.0417    4.1555 H   0  0  0  0  0  0  0  0  0  0  0  0
    0.0427   16.0791    2.7529 H   0  0  0  0  0  0  0  0  0  0  0  0
   -1.3174   15.9556   -3.4375 H   0  0  0  0  0  0  0  0  0  0  0  0
   -1.5276   13.8619   -4.8026 H   0  0  0  0  0  0  0  0  0  0  0  0
   -1.1841   11.6525   -3.6790 H   0  0  0  0  0  0  0  0  0  0  0  0
   -0.6752    7.4923   -2.2439 H   0  0  0  0  0  0  0  0  0  0  0  0
   -0.5322    5.0356   -2.0770 H   0  0  0  0  0  0  0  0  0  0  0  0
    0.8744    1.2160    3.5670 H   0  0  0  0  0  0  0  0  0  0  0  0
    1.2200   -0.9932    4.6901 H   0  0  0  0  0  0  0  0  0  0  0  0
    1.0082   -3.0870    3.3255 H   0  0  0  0  0  0  0  0  0  0  0  0
  1  2  2  0
  1  6  1  0
  1 43  1  0
  2  3  1  0
  2 44  1  0
  3  4  2  0
  4  5  1  0
  4 42  1  0
  5  6  2  0
  5  7  1  0
  6 45  1  0
  7  8  1  0
  7 36  2  0
  8  9  2  0
  9 10  1  0
  9 34  1  0
 10 11  2  0
 10 33  1  0
 11 12  1  0
 11 46  1  0
 12 13  2  0
 12 47  1  0
 13 14  1  0
 13 32  1  0
 14 15  2  0
 14 30  1  0
 15 16  1  0
 16 17  2  0
 16 29  1  0
 17 18  1  0
 17 22  1  0
 18 19  2  0
 18 48  1  0
 19 20  1  0
 19 49  1  0
 20 21  2  0
 20 50  1  0
 21 22  1  0
 22 23  2  0
 23 24  1  0
 23 28  1  0
 24 25  2  0
 25 26  1  0
 25 51  1  0
 26 27  2  0
 26 52  1  0
 27 28  1  0
 27 53  1  0
 28 29  2  0
 29 30  1  0
 30 31  1  0
 32 33  2  0
 32 54  1  0
 33 55  1  0
 34 35  1  0
 34 36  1  0
 36 37  1  0
 37 38  1  0
 37 42  2  0
 38 39  2  0
 38 56  1  0
 39 40  1  0
 39 57  1  0
 40 41  2  0
 40 58  1  0
 41 42  1  0
M  END

