
     RDKit          3D

 62 67  0  0  0  0  0  0  0  0999 V2000
    1.2482   -0.5328   -0.1678 C   0  0  0  0  0  0  0  0  0  0  0  0
    2.7693   -0.4988   -0.4468 C   0  0  1  0  0  0  0  0  0  0  0  0
    3.5194   -0.0955    0.8445 C   0  0  0  0  0  0  0  0  0  0  0  0
    3.2169   -1.9186   -0.8374 C   0  0  0  0  0  0  0  0  0  0  0  0
    3.0623    0.5347   -1.5511 C   0  0  0  0  0  0  0  0  0  0  0  0
    2.7104    1.8958   -1.3467 C   0  0  0  0  0  0  0  0  0  0  0  0
    2.9576    2.8491   -2.3119 C   0  0  0  0  0  0  0  0  0  0  0  0
    3.5718    2.5062   -3.5438 C   0  0  0  0  0  0  0  0  0  0  0  0
    3.8264    3.4936   -4.5398 C   0  0  0  0  0  0  0  0  0  0  0  0
    4.4203    3.2047   -5.7483 C   0  0  0  0  0  0  0  0  0  0  0  0
    4.6733    4.2469   -6.7658 C   0  0  0  0  0  0  0  0  0  0  0  0
    4.3220    5.5815   -6.5639 C   0  0  0  0  0  0  0  0  0  0  0  0
    4.5661    6.5721   -7.5336 C   0  0  0  0  0  0  0  0  0  0  0  0
    5.1694    6.2417   -8.7285 C   0  0  0  0  0  0  0  0  0  0  0  0
    5.5487    4.8992   -8.9917 C   0  0  0  0  0  0  0  0  0  0  0  0
    6.1704    4.5453  -10.2194 C   0  0  0  0  0  0  0  0  0  0  0  0
    6.5327    3.2387  -10.4621 C   0  0  0  0  0  0  0  0  0  0  0  0
    6.2896    2.2419   -9.4960 C   0  0  0  0  0  0  0  0  0  0  0  0
    5.6831    2.5280   -8.2739 C   0  0  0  0  0  0  0  0  0  0  0  0
    5.4253    1.4833   -7.2572 C   0  0  0  0  0  0  0  0  0  0  0  0
    5.7803    0.1496   -7.4858 C   0  0  0  0  0  0  0  0  0  0  0  0
    5.5542   -0.8708   -6.5474 C   0  0  0  0  0  0  0  0  0  0  0  0
    5.9463   -2.3407   -6.8057 C   0  0  1  0  0  0  0  0  0  0  0  0
    6.9513   -2.8020   -5.7248 C   0  0  0  0  0  0  0  0  0  0  0  0
    4.6812   -3.2279   -6.7440 C   0  0  0  0  0  0  0  0  0  0  0  0
    6.6024   -2.5386   -8.1844 C   0  0  0  0  0  0  0  0  0  0  0  0
    4.9499   -0.5123   -5.3448 C   0  0  0  0  0  0  0  0  0  0  0  0
    4.5659    0.8115   -5.0479 C   0  0  0  0  0  0  0  0  0  0  0  0
    3.9344    1.1515   -3.7759 C   0  0  0  0  0  0  0  0  0  0  0  0
    3.6645    0.2005   -2.7599 C   0  0  0  0  0  0  0  0  0  0  0  0
    4.8053    1.8343   -6.0214 C   0  0  0  0  0  0  0  0  0  0  0  0
    5.3001    3.8842   -8.0035 C   0  0  0  0  0  0  0  0  0  0  0  0
    1.0190   -1.2624    0.6265 H   0  0  0  0  0  0  0  0  0  0  0  0
    0.6879   -0.8243   -1.0704 H   0  0  0  0  0  0  0  0  0  0  0  0
    0.8671    0.4460    0.1607 H   0  0  0  0  0  0  0  0  0  0  0  0
    3.3154   -0.8201    1.6501 H   0  0  0  0  0  0  0  0  0  0  0  0
    3.2133    0.8978    1.2062 H   0  0  0  0  0  0  0  0  0  0  0  0
    4.6079   -0.0699    0.6768 H   0  0  0  0  0  0  0  0  0  0  0  0
    2.9876   -2.6197   -0.0196 H   0  0  0  0  0  0  0  0  0  0  0  0
    4.3012   -1.9718   -1.0225 H   0  0  0  0  0  0  0  0  0  0  0  0
    2.6962   -2.2811   -1.7376 H   0  0  0  0  0  0  0  0  0  0  0  0
    2.2356    2.2018   -0.4119 H   0  0  0  0  0  0  0  0  0  0  0  0
    2.6792    3.8919   -2.1353 H   0  0  0  0  0  0  0  0  0  0  0  0
    3.5257    4.5146   -4.3029 H   0  0  0  0  0  0  0  0  0  0  0  0
    3.8430    5.8862   -5.6334 H   0  0  0  0  0  0  0  0  0  0  0  0
    4.2730    7.6051   -7.3299 H   0  0  0  0  0  0  0  0  0  0  0  0
    5.3637    7.0039   -9.4874 H   0  0  0  0  0  0  0  0  0  0  0  0
    6.3545    5.3256  -10.9624 H   0  0  0  0  0  0  0  0  0  0  0  0
    7.0112    2.9640  -11.4054 H   0  0  0  0  0  0  0  0  0  0  0  0
    6.5933    1.2226   -9.7326 H   0  0  0  0  0  0  0  0  0  0  0  0
    6.2509   -0.1093   -8.4297 H   0  0  0  0  0  0  0  0  0  0  0  0
    6.5270   -2.7320   -4.7117 H   0  0  0  0  0  0  0  0  0  0  0  0
    7.8655   -2.1878   -5.7473 H   0  0  0  0  0  0  0  0  0  0  0  0
    7.2420   -3.8524   -5.8920 H   0  0  0  0  0  0  0  0  0  0  0  0
    4.1863   -3.1707   -5.7626 H   0  0  0  0  0  0  0  0  0  0  0  0
    4.9419   -4.2839   -6.9246 H   0  0  0  0  0  0  0  0  0  0  0  0
    3.9472   -2.9228   -7.5067 H   0  0  0  0  0  0  0  0  0  0  0  0
    7.5303   -1.9543   -8.2872 H   0  0  0  0  0  0  0  0  0  0  0  0
    5.9262   -2.2575   -9.0069 H   0  0  0  0  0  0  0  0  0  0  0  0
    6.8647   -3.5993   -8.3223 H   0  0  0  0  0  0  0  0  0  0  0  0
    4.7655   -1.2870   -4.6024 H   0  0  0  0  0  0  0  0  0  0  0  0
    3.9410   -0.8361   -2.9340 H   0  0  0  0  0  0  0  0  0  0  0  0
  2  1  1  1
  1 33  1  0
  1 34  1  0
  1 35  1  0
  2  3  1  0
  2  4  1  0
  2  5  1  0
  3 36  1  0
  3 37  1  0
  3 38  1  0
  4 39  1  0
  4 40  1  0
  4 41  1  0
  5  6  2  0
  5 30  1  0
  6  7  1  0
  6 42  1  0
  7  8  2  0
  7 43  1  0
  8  9  1  0
  8 29  1  0
  9 10  2  0
  9 44  1  0
 10 11  1  0
 10 31  1  0
 11 12  2  0
 11 32  1  0
 12 13  1  0
 12 45  1  0
 13 14  2  0
 13 46  1  0
 14 15  1  0
 14 47  1  0
 15 16  1  0
 15 32  2  0
 16 17  2  0
 16 48  1  0
 17 18  1  0
 17 49  1  0
 18 19  2  0
 18 50  1  0
 19 20  1  0
 19 32  1  0
 20 21  1  0
 20 31  2  0
 21 22  2  0
 21 51  1  0
 22 23  1  0
 22 27  1  0
 23 24  1  1
 23 25  1  0
 23 26  1  0
 24 52  1  0
 24 53  1  0
 24 54  1  0
 25 55  1  0
 25 56  1  0
 25 57  1  0
 26 58  1  0
 26 59  1  0
 26 60  1  0
 27 28  2  0
 27 61  1  0
 28 29  1  0
 28 31  1  0
 29 30  2  0
 30 62  1  0
M  END

