
     RDKit          3D

 83 89  0  0  0  0  0  0  0  0999 V2000
    4.5334    1.8872   -7.8126 N   0  0  0  0  0  0  0  0  0  0  0  0
    3.6937    2.9436   -7.9394 C   0  0  0  0  0  0  0  0  0  0  0  0
    3.1506    3.2698   -8.9854 O   0  0  0  0  0  0  0  0  0  0  0  0
    3.4516    3.7192   -6.6835 C   0  0  0  0  0  0  0  0  0  0  0  0
    4.0133    3.4077   -5.5279 N   0  0  0  0  0  0  0  0  0  0  0  0
    3.5922    4.3113   -4.6165 N   0  0  0  0  0  0  0  0  0  0  0  0
    4.0107    4.1555   -3.2415 C   0  0  0  0  0  0  0  0  0  0  0  0
    5.5258    3.9109   -3.1477 C   0  0  0  0  0  0  0  0  0  0  0  0
    5.9323    2.9145   -2.5870 O   0  0  0  0  0  0  0  0  0  0  0  0
    6.4500    4.9529   -3.7502 C   0  0  1  0  0  0  0  0  0  0  0  0
    6.4218    6.3029   -2.9893 C   0  0  0  0  0  0  0  0  0  0  0  0
    7.6535    7.0142   -3.5416 C   0  0  2  0  0  0  0  0  0  0  0  0
    7.3212    7.5259   -4.7940 F   0  0  0  0  0  0  0  0  0  0  0  0
    8.7157    5.9205   -3.7010 C   0  0  0  0  0  0  0  0  0  0  0  0
    7.9583    4.5724   -3.7424 C   0  0  2  0  0  0  0  0  0  0  0  0
    8.3491    3.6953   -4.9426 C   0  0  0  0  0  0  0  0  0  0  0  0
    9.0179    4.1094   -5.8693 O   0  0  0  0  0  0  0  0  0  0  0  0
    7.8370    2.4178   -4.8635 N   0  0  0  0  0  0  0  0  0  0  0  0
    7.8360    1.4157   -5.8414 C   0  0  0  0  0  0  0  0  0  0  0  0
    8.5597    1.4920   -7.0477 C   0  0  0  0  0  0  0  0  0  0  0  0
    8.4287    0.4297   -7.9386 C   0  0  0  0  0  0  0  0  0  0  0  0
    7.6908   -0.6643   -7.7238 N   0  0  0  0  0  0  0  0  0  0  0  0
    7.0030   -0.7466   -6.5779 C   0  0  0  0  0  0  0  0  0  0  0  0
    6.2282   -1.8977   -6.3136 N   0  0  0  0  0  0  0  0  0  0  0  0
    6.7854   -2.6997   -5.2087 C   0  0  0  0  0  0  0  0  0  0  0  0
    5.8143   -3.7577   -4.7030 C   0  0  0  0  0  0  0  0  0  0  0  0
    5.3681   -4.6504   -5.8571 C   0  0  0  0  0  0  0  0  0  0  0  0
    4.7771   -3.7992   -6.9829 C   0  0  2  0  0  0  0  0  0  0  0  0
    4.2956   -4.6520   -8.1665 C   0  0  0  0  0  0  0  0  0  0  0  0
    3.6142   -3.8077   -9.2467 C   0  0  0  0  0  0  0  0  0  0  0  0
    4.5256   -2.6634   -9.6977 C   0  0  0  0  0  0  0  0  0  0  0  0
    5.0336   -1.8277   -8.5160 C   0  0  0  0  0  0  0  0  0  0  0  0
    5.7523   -2.6941   -7.4651 C   0  0  1  0  0  0  0  0  0  0  0  0
    7.0390    0.2843   -5.6183 C   0  0  0  0  0  0  0  0  0  0  0  0
    2.7297    5.2282   -5.1737 C   0  0  0  0  0  0  0  0  0  0  0  0
    2.0360    6.3273   -4.6372 C   0  0  0  0  0  0  0  0  0  0  0  0
    1.2342    7.0532   -5.5049 C   0  0  0  0  0  0  0  0  0  0  0  0
    1.0994    6.7231   -6.8865 C   0  0  0  0  0  0  0  0  0  0  0  0
    0.2246    7.5376   -7.7645 C   0  0  0  0  0  0  0  0  0  0  0  0
    0.4902    7.7479   -9.1190 C   0  0  0  0  0  0  0  0  0  0  0  0
   -0.4068    8.5351   -9.8471 C   0  0  0  0  0  0  0  0  0  0  0  0
   -1.4938    9.1001   -9.3199 N   0  0  0  0  0  0  0  0  0  0  0  0
   -1.7644    8.9011   -8.0371 N   0  0  0  0  0  0  0  0  0  0  0  0
   -0.9534    8.1561   -7.2909 C   0  0  0  0  0  0  0  0  0  0  0  0
    1.7955    5.6273   -7.4022 C   0  0  0  0  0  0  0  0  0  0  0  0
    2.6133    4.8761   -6.5417 C   0  0  0  0  0  0  0  0  0  0  0  0
    4.7484    1.3359   -8.6341 H   0  0  0  0  0  0  0  0  0  0  0  0
    4.9826    1.6627   -6.9323 H   0  0  0  0  0  0  0  0  0  0  0  0
    3.5088    3.2981   -2.7664 H   0  0  0  0  0  0  0  0  0  0  0  0
    3.7459    5.0703   -2.6900 H   0  0  0  0  0  0  0  0  0  0  0  0
    6.1219    5.1563   -4.7826 H   0  0  0  0  0  0  0  0  0  0  0  0
    6.5435    6.1357   -1.9052 H   0  0  0  0  0  0  0  0  0  0  0  0
    5.5091    6.8943   -3.1547 H   0  0  0  0  0  0  0  0  0  0  0  0
    7.9810    7.8630   -2.9198 H   0  0  0  0  0  0  0  0  0  0  0  0
    9.4358    5.9481   -2.8697 H   0  0  0  0  0  0  0  0  0  0  0  0
    9.2694    6.0819   -4.6362 H   0  0  0  0  0  0  0  0  0  0  0  0
    8.1450    3.9934   -2.8237 H   0  0  0  0  0  0  0  0  0  0  0  0
    7.3073    2.2100   -4.0195 H   0  0  0  0  0  0  0  0  0  0  0  0
    9.1798    2.3551   -7.2733 H   0  0  0  0  0  0  0  0  0  0  0  0
    8.9689    0.4657   -8.8923 H   0  0  0  0  0  0  0  0  0  0  0  0
    7.0669   -2.0209   -4.3915 H   0  0  0  0  0  0  0  0  0  0  0  0
    7.7229   -3.1987   -5.5412 H   0  0  0  0  0  0  0  0  0  0  0  0
    4.9367   -3.2623   -4.2523 H   0  0  0  0  0  0  0  0  0  0  0  0
    6.3030   -4.3447   -3.9076 H   0  0  0  0  0  0  0  0  0  0  0  0
    4.6261   -5.3934   -5.5183 H   0  0  0  0  0  0  0  0  0  0  0  0
    6.2336   -5.2224   -6.2408 H   0  0  0  0  0  0  0  0  0  0  0  0
    3.8969   -3.2719   -6.5665 H   0  0  0  0  0  0  0  0  0  0  0  0
    3.6082   -5.4318   -7.7961 H   0  0  0  0  0  0  0  0  0  0  0  0
    5.1609   -5.1852   -8.6031 H   0  0  0  0  0  0  0  0  0  0  0  0
    2.6755   -3.3886   -8.8405 H   0  0  0  0  0  0  0  0  0  0  0  0
    3.3282   -4.4373  -10.1061 H   0  0  0  0  0  0  0  0  0  0  0  0
    3.9998   -2.0106  -10.4145 H   0  0  0  0  0  0  0  0  0  0  0  0
    5.3932   -3.0806  -10.2410 H   0  0  0  0  0  0  0  0  0  0  0  0
    4.1892   -1.3125   -8.0230 H   0  0  0  0  0  0  0  0  0  0  0  0
    5.7203   -1.0582   -8.8904 H   0  0  0  0  0  0  0  0  0  0  0  0
    6.6173   -3.1869   -7.9596 H   0  0  0  0  0  0  0  0  0  0  0  0
    6.4286    0.2054   -4.7158 H   0  0  0  0  0  0  0  0  0  0  0  0
    2.1181    6.6125   -3.5866 H   0  0  0  0  0  0  0  0  0  0  0  0
    0.7038    7.9248   -5.1165 H   0  0  0  0  0  0  0  0  0  0  0  0
    1.3789    7.3334   -9.6003 H   0  0  0  0  0  0  0  0  0  0  0  0
   -0.2422    8.7356  -10.9109 H   0  0  0  0  0  0  0  0  0  0  0  0
   -1.2737    8.0288   -6.2519 H   0  0  0  0  0  0  0  0  0  0  0  0
    1.7108    5.3199   -8.4446 H   0  0  0  0  0  0  0  0  0  0  0  0
  1  2  1  0
  1 47  1  0
  1 48  1  0
  2  3  2  0
  2  4  1  0
  4  5  2  0
  4 46  1  0
  5  6  1  0
  6  7  1  0
  6 35  1  0
  7  8  1  0
  7 49  1  0
  7 50  1  0
  8  9  2  0
  8 10  1  0
 10 11  1  0
 10 15  1  0
 10 51  1  6
 11 12  1  0
 11 52  1  0
 11 53  1  0
 12 13  1  0
 12 14  1  0
 12 54  1  1
 14 15  1  0
 14 55  1  0
 14 56  1  0
 15 16  1  0
 15 57  1  1
 16 17  2  0
 16 18  1  0
 18 19  1  0
 18 58  1  0
 19 20  2  0
 19 34  1  0
 20 21  1  0
 20 59  1  0
 21 22  2  0
 21 60  1  0
 22 23  1  0
 23 24  1  0
 23 34  2  0
 24 25  1  0
 24 33  1  0
 25 26  1  0
 25 61  1  0
 25 62  1  0
 26 27  1  0
 26 63  1  0
 26 64  1  0
 27 28  1  0
 27 65  1  0
 27 66  1  0
 28 29  1  0
 28 33  1  0
 28 67  1  1
 29 30  1  0
 29 68  1  0
 29 69  1  0
 30 31  1  0
 30 70  1  0
 30 71  1  0
 31 32  1  0
 31 72  1  0
 31 73  1  0
 32 33  1  0
 32 74  1  0
 32 75  1  0
 33 76  1  6
 34 77  1  0
 35 36  1  0
 35 46  2  0
 36 37  2  0
 36 78  1  0
 37 38  1  0
 37 79  1  0
 38 39  1  0
 38 45  2  0
 39 40  2  0
 39 44  1  0
 40 41  1  0
 40 80  1  0
 41 42  2  0
 41 81  1  0
 42 43  1  0
 43 44  2  0
 44 82  1  0
 45 46  1  0
 45 83  1  0
M  END

