
     RDKit          3D

 55 60  0  0  0  0  0  0  0  0999 V2000
    1.2217   -0.9067    1.4493 O   0  0  0  0  0  0  0  0  0  0  0  0
    2.4001   -0.9152    1.6875 C   0  0  0  0  0  0  0  0  0  0  0  0
    3.4229   -1.8398    1.0428 C   0  0  0  0  0  0  0  0  0  0  0  0
    2.7857   -2.8904    0.2941 N   0  0  0  0  0  0  0  0  0  0  0  0
    2.6806   -2.8889   -1.1192 C   0  0  0  0  0  0  0  0  0  0  0  0
    3.0941   -2.0196   -1.8417 O   0  0  0  0  0  0  0  0  0  0  0  0
    2.0820   -4.2548   -1.4107 C   0  0  2  0  0  0  0  0  0  0  0  0
    2.9629   -4.9024   -1.2499 H   0  0  0  0  0  0  0  0  0  0  0  0
    1.3752   -4.8577   -2.6626 C   0  0  2  0  0  0  0  0  0  0  0  0
   -0.1391   -4.6872   -2.5802 C   0  0  0  0  0  0  0  0  0  0  0  0
   -0.9561   -4.1261   -3.5585 C   0  0  0  0  0  0  0  0  0  0  0  0
   -2.3476   -4.1114   -3.3779 C   0  0  0  0  0  0  0  0  0  0  0  0
   -2.9129   -4.6561   -2.2238 C   0  0  0  0  0  0  0  0  0  0  0  0
   -2.0942   -5.2152   -1.2301 C   0  0  0  0  0  0  0  0  0  0  0  0
   -0.7139   -5.2333   -1.4081 C   0  0  0  0  0  0  0  0  0  0  0  0
    0.3311   -5.7390   -0.4048 C   0  0  1  0  0  0  0  0  0  0  0  0
    1.1308   -6.7948   -1.1630 C   0  0  0  0  0  0  0  0  0  0  0  0
    1.3358   -8.1133   -0.7638 C   0  0  0  0  0  0  0  0  0  0  0  0
    2.0254   -8.9969   -1.6082 C   0  0  0  0  0  0  0  0  0  0  0  0
    2.5046   -8.5590   -2.8439 C   0  0  0  0  0  0  0  0  0  0  0  0
    2.3085   -7.2292   -3.2486 C   0  0  0  0  0  0  0  0  0  0  0  0
    1.6227   -6.3514   -2.4138 C   0  0  0  0  0  0  0  0  0  0  0  0
    1.1622   -4.4363   -0.2032 C   0  0  1  0  0  0  0  0  0  0  0  0
    0.4198   -3.6179   -0.2399 H   0  0  0  0  0  0  0  0  0  0  0  0
    2.0419   -3.9238    0.9209 C   0  0  0  0  0  0  0  0  0  0  0  0
    2.0919   -4.1823    2.0957 O   0  0  0  0  0  0  0  0  0  0  0  0
    3.0042   -0.1069    2.5808 O   0  0  0  0  0  0  0  0  0  0  0  0
    2.2078    0.9162    3.1479 C   0  0  0  0  0  0  0  0  0  0  0  0
    2.0889    2.1085    2.1902 C   0  0  0  0  0  0  0  0  0  0  0  0
    2.5919    2.0560    1.0891 O   0  0  0  0  0  0  0  0  0  0  0  0
    1.3419    3.3157    2.6634 C   0  0  0  0  0  0  0  0  0  0  0  0
    1.2590    4.4196    1.7967 C   0  0  0  0  0  0  0  0  0  0  0  0
    0.5815    5.5759    2.1732 C   0  0  0  0  0  0  0  0  0  0  0  0
   -0.0245    5.6319    3.4346 C   0  0  0  0  0  0  0  0  0  0  0  0
   -0.9530    7.2067    3.9600 Br  0  0  0  0  0  0  0  0  0  0  0  0
    0.0416    4.5467    4.3139 C   0  0  0  0  0  0  0  0  0  0  0  0
    0.7250    3.3940    3.9239 C   0  0  0  0  0  0  0  0  0  0  0  0
    4.0795   -2.2519    1.8232 H   0  0  0  0  0  0  0  0  0  0  0  0
    4.0319   -1.2389    0.3497 H   0  0  0  0  0  0  0  0  0  0  0  0
    1.7984   -4.5055   -3.6125 H   0  0  0  0  0  0  0  0  0  0  0  0
   -0.5147   -3.7033   -4.4653 H   0  0  0  0  0  0  0  0  0  0  0  0
   -2.9896   -3.6738   -4.1465 H   0  0  0  0  0  0  0  0  0  0  0  0
   -3.9975   -4.6453   -2.0893 H   0  0  0  0  0  0  0  0  0  0  0  0
   -2.5374   -5.6314   -0.3211 H   0  0  0  0  0  0  0  0  0  0  0  0
   -0.1153   -6.1188    0.5235 H   0  0  0  0  0  0  0  0  0  0  0  0
    0.9554   -8.4592    0.2013 H   0  0  0  0  0  0  0  0  0  0  0  0
    2.1832  -10.0326   -1.2971 H   0  0  0  0  0  0  0  0  0  0  0  0
    3.0371   -9.2521   -3.5002 H   0  0  0  0  0  0  0  0  0  0  0  0
    2.6928   -6.8846   -4.2127 H   0  0  0  0  0  0  0  0  0  0  0  0
    2.7100    1.2239    4.0772 H   0  0  0  0  0  0  0  0  0  0  0  0
    1.2025    0.5364    3.3916 H   0  0  0  0  0  0  0  0  0  0  0  0
    1.7392    4.3461    0.8189 H   0  0  0  0  0  0  0  0  0  0  0  0
    0.5200    6.4302    1.4972 H   0  0  0  0  0  0  0  0  0  0  0  0
   -0.4376    4.6028    5.2924 H   0  0  0  0  0  0  0  0  0  0  0  0
    0.7630    2.5545    4.6210 H   0  0  0  0  0  0  0  0  0  0  0  0
  1  2  2  0
  2  3  1  0
  2 27  1  0
  3  4  1  0
  3 38  1  0
  3 39  1  0
  4  5  1  0
  4 25  1  0
  5  6  2  0
  5  7  1  0
  7  8  1  1
  7  9  1  0
  7 23  1  0
  9 10  1  0
  9 22  1  0
  9 40  1  6
 10 11  1  0
 10 15  2  0
 11 12  2  0
 11 41  1  0
 12 13  1  0
 12 42  1  0
 13 14  2  0
 13 43  1  0
 14 15  1  0
 14 44  1  0
 15 16  1  0
 16 17  1  0
 16 23  1  0
 16 45  1  1
 17 18  2  0
 17 22  1  0
 18 19  1  0
 18 46  1  0
 19 20  2  0
 19 47  1  0
 20 21  1  0
 20 48  1  0
 21 22  2  0
 21 49  1  0
 23 24  1  6
 23 25  1  0
 25 26  2  0
 27 28  1  0
 28 29  1  0
 28 50  1  0
 28 51  1  0
 29 30  2  0
 29 31  1  0
 31 32  2  0
 31 37  1  0
 32 33  1  0
 32 52  1  0
 33 34  2  0
 33 53  1  0
 34 35  1  0
 34 36  1  0
 36 37  2  0
 36 54  1  0
 37 55  1  0
M  END

