
     RDKit          3D

 50 55  0  0  0  0  0  0  0  0999 V2000
    1.1561    2.6871    0.8467 O   0  0  0  0  0  0  0  0  0  0  0  0
    1.1089    1.7140    0.1095 C   0  0  0  0  0  0  0  0  0  0  0  0
    0.7431    1.8937   -1.3405 C   0  0  0  0  0  0  0  0  0  0  0  0
    0.0011    3.0631   -1.5905 C   0  0  0  0  0  0  0  0  0  0  0  0
   -0.5039    3.3672   -2.8516 C   0  0  0  0  0  0  0  0  0  0  0  0
   -0.2719    2.4863   -3.9153 C   0  0  0  0  0  0  0  0  0  0  0  0
    0.4764    1.3374   -3.7026 C   0  0  0  0  0  0  0  0  0  0  0  0
    1.0401    1.0195   -2.4344 C   0  0  0  0  0  0  0  0  0  0  0  0
    1.9024   -0.1460   -2.4167 C   0  0  0  0  0  0  0  0  0  0  0  0
    2.7990   -0.3008   -3.5198 C   0  0  0  0  0  0  0  0  0  0  0  0
    3.2548   -1.5739   -4.0561 C   0  0  0  0  0  0  0  0  0  0  0  0
    4.5149   -1.7319   -4.6821 C   0  0  0  0  0  0  0  0  0  0  0  0
    4.8448   -2.9653   -5.2361 C   0  0  0  0  0  0  0  0  0  0  0  0
    3.9344   -4.0214   -5.1325 C   0  0  0  0  0  0  0  0  0  0  0  0
    2.7233   -3.7805   -4.4685 C   0  0  0  0  0  0  0  0  0  0  0  0
    2.3789   -2.6008   -3.9648 N   0  0  0  0  0  0  0  0  0  0  0  0
    3.6303    0.8170   -3.4669 N   0  0  0  0  0  0  0  0  0  0  0  0
    4.2823    0.9810   -2.2479 N   0  0  0  0  0  0  0  0  0  0  0  0
    3.8681    0.3751   -1.1926 C   0  0  0  0  0  0  0  0  0  0  0  0
    4.7119    0.4820    0.0261 C   0  0  0  0  0  0  0  0  0  0  0  0
    5.4628    1.6432    0.2907 C   0  0  0  0  0  0  0  0  0  0  0  0
    6.2513    1.6774    1.4372 C   0  0  0  0  0  0  0  0  0  0  0  0
    6.2722    0.5616    2.2806 C   0  0  0  0  0  0  0  0  0  0  0  0
    5.4931   -0.5434    1.9289 C   0  0  0  0  0  0  0  0  0  0  0  0
    4.7313   -0.5848    0.8349 N   0  0  0  0  0  0  0  0  0  0  0  0
    2.6018   -0.6218   -1.1882 C   0  0  1  0  0  0  0  0  0  0  0  0
    1.8313   -0.7515    0.1002 C   0  0  0  0  0  0  0  0  0  0  0  0
    1.7837   -1.9999    0.7406 C   0  0  0  0  0  0  0  0  0  0  0  0
    1.1147   -2.1692    1.9506 C   0  0  0  0  0  0  0  0  0  0  0  0
    0.5004   -1.0719    2.5663 C   0  0  0  0  0  0  0  0  0  0  0  0
    0.5480    0.1741    1.9496 C   0  0  0  0  0  0  0  0  0  0  0  0
    1.1819    0.3399    0.7029 C   0  0  0  0  0  0  0  0  0  0  0  0
   -0.1777    3.7292   -0.7450 H   0  0  0  0  0  0  0  0  0  0  0  0
   -1.0963    4.2736   -2.9994 H   0  0  0  0  0  0  0  0  0  0  0  0
   -0.6865    2.6918   -4.9056 H   0  0  0  0  0  0  0  0  0  0  0  0
    0.6377    0.6317   -4.5186 H   0  0  0  0  0  0  0  0  0  0  0  0
    5.2274   -0.9054   -4.7062 H   0  0  0  0  0  0  0  0  0  0  0  0
    5.8103   -3.1079   -5.7287 H   0  0  0  0  0  0  0  0  0  0  0  0
    4.1513   -5.0060   -5.5520 H   0  0  0  0  0  0  0  0  0  0  0  0
    1.9904   -4.5895   -4.3569 H   0  0  0  0  0  0  0  0  0  0  0  0
    4.1993    1.1486   -4.2398 H   0  0  0  0  0  0  0  0  0  0  0  0
    5.4119    2.4864   -0.3985 H   0  0  0  0  0  0  0  0  0  0  0  0
    6.8407    2.5668    1.6748 H   0  0  0  0  0  0  0  0  0  0  0  0
    6.8732    0.5481    3.1925 H   0  0  0  0  0  0  0  0  0  0  0  0
    5.4820   -1.4376    2.5635 H   0  0  0  0  0  0  0  0  0  0  0  0
    3.0731   -1.5957   -1.3923 H   0  0  0  0  0  0  0  0  0  0  0  0
    2.3010   -2.8471    0.2840 H   0  0  0  0  0  0  0  0  0  0  0  0
    1.0864   -3.1540    2.4241 H   0  0  0  0  0  0  0  0  0  0  0  0
   -0.0125   -1.1908    3.5240 H   0  0  0  0  0  0  0  0  0  0  0  0
    0.0838    1.0476    2.4110 H   0  0  0  0  0  0  0  0  0  0  0  0
  1  2  2  0
  2  3  1  0
  2 32  1  0
  3  4  2  0
  3  8  1  0
  4  5  1  0
  4 33  1  0
  5  6  2  0
  5 34  1  0
  6  7  1  0
  6 35  1  0
  7  8  2  0
  7 36  1  0
  8  9  1  0
  9 10  2  0
  9 26  1  0
 10 11  1  0
 10 17  1  0
 11 12  2  0
 11 16  1  0
 12 13  1  0
 12 37  1  0
 13 14  2  0
 13 38  1  0
 14 15  1  0
 14 39  1  0
 15 16  2  0
 15 40  1  0
 17 18  1  0
 17 41  1  0
 18 19  2  0
 19 20  1  0
 19 26  1  0
 20 21  2  0
 20 25  1  0
 21 22  1  0
 21 42  1  0
 22 23  2  0
 22 43  1  0
 23 24  1  0
 23 44  1  0
 24 25  2  0
 24 45  1  0
 26 27  1  0
 26 46  1  6
 27 28  2  0
 27 32  1  0
 28 29  1  0
 28 47  1  0
 29 30  2  0
 29 48  1  0
 30 31  1  0
 30 49  1  0
 31 32  2  0
 31 50  1  0
M  END

