
     RDKit          3D

 48 48  0  0  0  0  0  0  0  0999 V2000
    3.8977    5.2182    4.4222 C   0  0  0  0  0  0  0  0  0  0  0  0
    3.6984    3.7371    4.6836 C   0  0  0  0  0  0  0  0  0  0  0  0
    4.3336    3.0011    3.6612 O   0  0  0  0  0  0  0  0  0  0  0  0
    4.2456    1.6101    3.8032 C   0  0  0  0  0  0  0  0  0  0  0  0
    4.9652    0.9321    2.6389 C   0  0  0  0  0  0  0  0  0  0  0  0
    6.3614    1.3618    2.5086 N   0  0  0  0  0  0  0  0  0  0  0  0
    6.6130    2.3351    1.5681 C   0  0  0  0  0  0  0  0  0  0  0  0
    5.8414    2.5775    0.6537 O   0  0  0  0  0  0  0  0  0  0  0  0
    7.8643    3.2083    1.7332 C   0  0  2  0  0  0  0  0  0  0  0  0
    8.8560    3.1425    0.5263 C   0  0  1  0  0  0  0  0  0  0  0  0
    8.2434    3.7463   -0.7442 C   0  0  0  0  0  0  0  0  0  0  0  0
   10.1806    3.8442    0.8588 C   0  0  0  0  0  0  0  0  0  0  0  0
    8.5005    3.0143    3.0274 N   0  0  0  0  0  0  0  0  0  0  0  0
    8.2682    2.0416    3.9470 C   0  0  0  0  0  0  0  0  0  0  0  0
    8.7998    2.0495    5.0465 O   0  0  0  0  0  0  0  0  0  0  0  0
    7.3223    0.9159    3.5240 C   0  0  2  0  0  0  0  0  0  0  0  0
    8.1054   -0.4189    3.1808 C   0  0  1  0  0  0  0  0  0  0  0  0
    8.8032   -0.9310    4.4569 C   0  0  0  0  0  0  0  0  0  0  0  0
    7.1239   -1.5053    2.7023 C   0  0  0  0  0  0  0  0  0  0  0  0
    9.1524   -0.1947    2.0778 C   0  0  0  0  0  0  0  0  0  0  0  0
    3.4035    5.8185    5.2020 H   0  0  0  0  0  0  0  0  0  0  0  0
    3.4759    5.4975    3.4445 H   0  0  0  0  0  0  0  0  0  0  0  0
    4.9699    5.4689    4.4173 H   0  0  0  0  0  0  0  0  0  0  0  0
    2.6157    3.4912    4.7157 H   0  0  0  0  0  0  0  0  0  0  0  0
    4.1166    3.4566    5.6737 H   0  0  0  0  0  0  0  0  0  0  0  0
    3.1884    1.2679    3.8017 H   0  0  0  0  0  0  0  0  0  0  0  0
    4.6739    1.2915    4.7783 H   0  0  0  0  0  0  0  0  0  0  0  0
    4.4684    1.1950    1.6969 H   0  0  0  0  0  0  0  0  0  0  0  0
    4.9019   -0.1562    2.7687 H   0  0  0  0  0  0  0  0  0  0  0  0
    7.4394    4.2293    1.7277 H   0  0  0  0  0  0  0  0  0  0  0  0
    9.0802    2.0803    0.3338 H   0  0  0  0  0  0  0  0  0  0  0  0
    8.0390    4.8220   -0.6032 H   0  0  0  0  0  0  0  0  0  0  0  0
    7.2958    3.2631   -1.0108 H   0  0  0  0  0  0  0  0  0  0  0  0
    8.9471    3.6493   -1.5865 H   0  0  0  0  0  0  0  0  0  0  0  0
   10.0173    4.9053    1.1193 H   0  0  0  0  0  0  0  0  0  0  0  0
   10.8478    3.8255   -0.0170 H   0  0  0  0  0  0  0  0  0  0  0  0
   10.7170    3.3637    1.6907 H   0  0  0  0  0  0  0  0  0  0  0  0
    9.1147    3.7495    3.3655 H   0  0  0  0  0  0  0  0  0  0  0  0
    6.7482    0.6989    4.4371 H   0  0  0  0  0  0  0  0  0  0  0  0
    8.0708   -1.1346    5.2554 H   0  0  0  0  0  0  0  0  0  0  0  0
    9.5252   -0.2055    4.8529 H   0  0  0  0  0  0  0  0  0  0  0  0
    9.3305   -1.8738    4.2388 H   0  0  0  0  0  0  0  0  0  0  0  0
    6.3590   -1.7298    3.4631 H   0  0  0  0  0  0  0  0  0  0  0  0
    7.6757   -2.4396    2.5114 H   0  0  0  0  0  0  0  0  0  0  0  0
    6.6182   -1.2242    1.7664 H   0  0  0  0  0  0  0  0  0  0  0  0
    9.9154    0.5414    2.3737 H   0  0  0  0  0  0  0  0  0  0  0  0
    8.6841    0.1446    1.1410 H   0  0  0  0  0  0  0  0  0  0  0  0
    9.6739   -1.1395    1.8566 H   0  0  0  0  0  0  0  0  0  0  0  0
  1  2  1  0
  1 21  1  0
  1 22  1  0
  1 23  1  0
  2  3  1  0
  2 24  1  0
  2 25  1  0
  3  4  1  0
  4  5  1  0
  4 26  1  0
  4 27  1  0
  5  6  1  0
  5 28  1  0
  5 29  1  0
  6  7  1  0
  6 16  1  0
  7  8  2  0
  7  9  1  0
  9 10  1  0
  9 13  1  0
  9 30  1  1
 10 11  1  0
 10 12  1  0
 10 31  1  6
 11 32  1  0
 11 33  1  0
 11 34  1  0
 12 35  1  0
 12 36  1  0
 12 37  1  0
 13 14  1  0
 13 38  1  0
 14 15  2  0
 14 16  1  0
 16 17  1  0
 16 39  1  1
 17 18  1  1
 17 19  1  0
 17 20  1  0
 18 40  1  0
 18 41  1  0
 18 42  1  0
 19 43  1  0
 19 44  1  0
 19 45  1  0
 20 46  1  0
 20 47  1  0
 20 48  1  0
M  END

