
     RDKit          3D

 37 37  0  0  0  0  0  0  0  0999 V2000
    1.4057    0.6353    2.0700 O   0  0  0  0  0  0  0  0  0  0  0  0
    2.7435    0.1592    2.0933 C   0  0  0  0  0  0  0  0  0  0  0  0
    2.8983   -0.7216    0.8576 C   0  0  1  0  0  0  0  0  0  0  0  0
    2.2258   -1.5957    0.9926 H   0  0  0  0  0  0  0  0  0  0  0  0
    2.5237    0.0025   -0.2943 O   0  0  0  0  0  0  0  0  0  0  0  0
    4.3330   -1.1954    0.6231 C   0  0  0  0  0  0  0  0  0  0  0  0
    4.8845   -2.0243    1.6951 N   0  0  0  0  0  0  0  0  0  0  0  0
    4.3641   -3.3899    1.6856 C   0  0  0  0  0  0  0  0  0  0  0  0
    4.3695   -4.0323    3.0765 C   0  0  0  0  0  0  0  0  0  0  0  0
    3.8263   -5.4431    3.0799 C   0  0  1  0  0  0  0  0  0  0  0  0
    2.5642   -5.4947    2.6106 F   0  0  0  0  0  0  0  0  0  0  0  0
    4.5676   -6.2665    2.3128 F   0  0  0  0  0  0  0  0  0  0  0  0
    3.8131   -5.9579    4.3213 F   0  0  0  0  0  0  0  0  0  0  0  0
    6.3451   -1.9875    1.7204 C   0  0  0  0  0  0  0  0  0  0  0  0
    6.9219   -0.6635    2.1860 C   0  0  0  0  0  0  0  0  0  0  0  0
    7.9799   -0.0522    1.5003 C   0  0  0  0  0  0  0  0  0  0  0  0
    8.5392    1.1433    1.9607 C   0  0  0  0  0  0  0  0  0  0  0  0
    8.0361    1.7406    3.1115 C   0  0  0  0  0  0  0  0  0  0  0  0
    8.5636    2.8851    3.5494 F   0  0  0  0  0  0  0  0  0  0  0  0
    6.9742    1.1481    3.8085 C   0  0  0  0  0  0  0  0  0  0  0  0
    6.3550    1.9181    5.2428 Cl  0  0  0  0  0  0  0  0  0  0  0  0
    6.4253   -0.0474    3.3446 C   0  0  0  0  0  0  0  0  0  0  0  0
    1.3096    1.3432    2.7180 H   0  0  0  0  0  0  0  0  0  0  0  0
    2.9592   -0.4244    3.0069 H   0  0  0  0  0  0  0  0  0  0  0  0
    3.4699    0.9932    2.0377 H   0  0  0  0  0  0  0  0  0  0  0  0
    1.7170    0.4810   -0.0483 H   0  0  0  0  0  0  0  0  0  0  0  0
    4.9584   -0.2962    0.5173 H   0  0  0  0  0  0  0  0  0  0  0  0
    4.3629   -1.7115   -0.3605 H   0  0  0  0  0  0  0  0  0  0  0  0
    4.9212   -4.0365    0.9742 H   0  0  0  0  0  0  0  0  0  0  0  0
    3.3250   -3.3680    1.3300 H   0  0  0  0  0  0  0  0  0  0  0  0
    3.7559   -3.4364    3.7686 H   0  0  0  0  0  0  0  0  0  0  0  0
    5.3846   -4.0840    3.4986 H   0  0  0  0  0  0  0  0  0  0  0  0
    6.7794   -2.2441    0.7286 H   0  0  0  0  0  0  0  0  0  0  0  0
    6.6939   -2.7738    2.4105 H   0  0  0  0  0  0  0  0  0  0  0  0
    8.3747   -0.5122    0.5908 H   0  0  0  0  0  0  0  0  0  0  0  0
    9.3620    1.6316    1.4346 H   0  0  0  0  0  0  0  0  0  0  0  0
    5.5954   -0.4994    3.8891 H   0  0  0  0  0  0  0  0  0  0  0  0
  1  2  1  0
  1 23  1  0
  2  3  1  0
  2 24  1  0
  2 25  1  0
  3  4  1  1
  3  5  1  0
  3  6  1  0
  5 26  1  0
  6  7  1  0
  6 27  1  0
  6 28  1  0
  7  8  1  0
  7 14  1  0
  8  9  1  0
  8 29  1  0
  8 30  1  0
  9 10  1  0
  9 31  1  0
  9 32  1  0
 10 11  1  6
 10 12  1  0
 10 13  1  0
 14 15  1  0
 14 33  1  0
 14 34  1  0
 15 16  2  0
 15 22  1  0
 16 17  1  0
 16 35  1  0
 17 18  2  0
 17 36  1  0
 18 19  1  0
 18 20  1  0
 20 21  1  0
 20 22  2  0
 22 37  1  0
M  END

