
     RDKit          3D

 51 53  0  0  0  0  0  0  0  0999 V2000
    1.4061    1.0648   -0.3368 C   0  0  0  0  0  0  0  0  0  0  0  0
    2.6527    0.1932   -0.1748 C   0  0  0  0  0  0  0  0  0  0  0  0
    2.9383   -0.8016   -1.3399 C   0  0  1  0  0  0  0  0  0  0  0  0
    3.3597   -0.0434   -2.6055 C   0  0  0  0  0  0  0  0  0  0  0  0
    4.0762   -1.7572   -0.9286 C   0  0  0  0  0  0  0  0  0  0  0  0
    3.6852   -2.7046    0.1125 N   0  0  0  0  0  0  0  0  0  0  0  0
    4.8380   -3.3719    0.7002 C   0  0  0  0  0  0  0  0  0  0  0  0
    5.4571   -2.5355    1.8359 C   0  0  0  0  0  0  0  0  0  0  0  0
    6.6328   -3.1578    2.4233 N   0  0  0  0  0  0  0  0  0  0  0  0
    6.6251   -4.1138    3.4226 C   0  0  0  0  0  0  0  0  0  0  0  0
    7.9411   -4.4658    3.6107 C   0  0  0  0  0  0  0  0  0  0  0  0
    8.7494   -3.7607    2.7567 N   0  0  0  0  0  0  0  0  0  0  0  0
    7.9478   -2.9864    2.0521 C   0  0  0  0  0  0  0  0  0  0  0  0
    8.3924   -2.0245    0.9971 C   0  0  0  0  0  0  0  0  0  0  0  0
    2.5029   -3.5463   -0.2291 C   0  0  2  0  0  0  0  0  0  0  0  0
    2.0167   -4.2888    1.0254 C   0  0  0  0  0  0  0  0  0  0  0  0
    2.7799   -4.4880   -1.4156 C   0  0  1  0  0  0  0  0  0  0  0  0
    3.5447   -5.7847   -1.3166 C   0  0  0  0  0  0  0  0  0  0  0  0
    2.0700   -5.8029   -1.6314 C   0  0  0  0  0  0  0  0  0  0  0  0
    1.3745   -2.5645   -0.6337 C   0  0  0  0  0  0  0  0  0  0  0  0
    1.8030   -1.6639   -1.6878 N   0  0  0  0  0  0  0  0  0  0  0  0
    1.2789    1.7288    0.5329 H   0  0  0  0  0  0  0  0  0  0  0  0
    0.4891    0.4579   -0.4149 H   0  0  0  0  0  0  0  0  0  0  0  0
    1.4558    1.7078   -1.2306 H   0  0  0  0  0  0  0  0  0  0  0  0
    2.5791   -0.3819    0.7615 H   0  0  0  0  0  0  0  0  0  0  0  0
    3.5389    0.8417   -0.0582 H   0  0  0  0  0  0  0  0  0  0  0  0
    4.2583    0.5676   -2.4233 H   0  0  0  0  0  0  0  0  0  0  0  0
    2.5618    0.6337   -2.9502 H   0  0  0  0  0  0  0  0  0  0  0  0
    3.5724   -0.7499   -3.4217 H   0  0  0  0  0  0  0  0  0  0  0  0
    4.9175   -1.1549   -0.5501 H   0  0  0  0  0  0  0  0  0  0  0  0
    4.4471   -2.2763   -1.8383 H   0  0  0  0  0  0  0  0  0  0  0  0
    5.6222   -3.6003   -0.0515 H   0  0  0  0  0  0  0  0  0  0  0  0
    4.5426   -4.3395    1.1239 H   0  0  0  0  0  0  0  0  0  0  0  0
    4.7049   -2.3850    2.6247 H   0  0  0  0  0  0  0  0  0  0  0  0
    5.7367   -1.5364    1.4716 H   0  0  0  0  0  0  0  0  0  0  0  0
    5.7029   -4.4352    3.9015 H   0  0  0  0  0  0  0  0  0  0  0  0
    8.3454   -5.1856    4.3220 H   0  0  0  0  0  0  0  0  0  0  0  0
    9.4835   -2.1021    0.9078 H   0  0  0  0  0  0  0  0  0  0  0  0
    8.1415   -0.9801    1.2516 H   0  0  0  0  0  0  0  0  0  0  0  0
    7.9480   -2.2425    0.0112 H   0  0  0  0  0  0  0  0  0  0  0  0
    2.6485   -5.1459    1.2994 H   0  0  0  0  0  0  0  0  0  0  0  0
    0.9970   -4.6728    0.8742 H   0  0  0  0  0  0  0  0  0  0  0  0
    1.9942   -3.5958    1.8793 H   0  0  0  0  0  0  0  0  0  0  0  0
    2.9471   -3.9235   -2.3367 H   0  0  0  0  0  0  0  0  0  0  0  0
    3.8512   -6.1494   -0.3323 H   0  0  0  0  0  0  0  0  0  0  0  0
    4.2576   -6.0238   -2.1113 H   0  0  0  0  0  0  0  0  0  0  0  0
    1.3947   -6.1754   -0.8564 H   0  0  0  0  0  0  0  0  0  0  0  0
    1.7535   -6.0530   -2.6482 H   0  0  0  0  0  0  0  0  0  0  0  0
    1.0352   -2.0422    0.2860 H   0  0  0  0  0  0  0  0  0  0  0  0
    0.5216   -3.1545   -1.0050 H   0  0  0  0  0  0  0  0  0  0  0  0
    1.0233   -1.1252   -2.0573 H   0  0  0  0  0  0  0  0  0  0  0  0
  1  2  1  0
  1 22  1  0
  1 23  1  0
  1 24  1  0
  3  2  1  1
  2 25  1  0
  2 26  1  0
  3  4  1  0
  3  5  1  0
  3 21  1  0
  4 27  1  0
  4 28  1  0
  4 29  1  0
  5  6  1  0
  5 30  1  0
  5 31  1  0
  6  7  1  0
  6 15  1  0
  7  8  1  0
  7 32  1  0
  7 33  1  0
  8  9  1  0
  8 34  1  0
  8 35  1  0
  9 10  1  0
  9 13  1  0
 10 11  2  0
 10 36  1  0
 11 12  1  0
 11 37  1  0
 12 13  2  0
 13 14  1  0
 14 38  1  0
 14 39  1  0
 14 40  1  0
 15 16  1  1
 15 17  1  0
 15 20  1  0
 16 41  1  0
 16 42  1  0
 16 43  1  0
 17 18  1  0
 17 19  1  0
 17 44  1  6
 18 19  1  0
 18 45  1  0
 18 46  1  0
 19 47  1  0
 19 48  1  0
 20 21  1  0
 20 49  1  0
 20 50  1  0
 21 51  1  0
M  END

