
     RDKit          3D

 52 54  0  0  0  0  0  0  0  0999 V2000
    7.0724   -7.3830   -2.1376 C   0  0  0  0  0  0  0  0  0  0  0  0
    6.9481   -6.4029   -1.0125 C   0  0  0  0  0  0  0  0  0  0  0  0
    6.6859   -6.7179    0.2212 N   0  0  0  0  0  0  0  0  0  0  0  0
    6.6353   -5.6113    1.0281 C   0  0  0  0  0  0  0  0  0  0  0  0
    6.8560   -4.3991    0.4253 C   0  0  0  0  0  0  0  0  0  0  0  0
    6.8662   -3.0352    1.0530 C   0  0  0  0  0  0  0  0  0  0  0  0
    8.1648   -2.3809    0.9959 N   0  0  0  0  0  0  0  0  0  0  0  0
    8.3706   -1.1989    0.3369 C   0  0  0  0  0  0  0  0  0  0  0  0
    7.4557   -0.5698   -0.1763 O   0  0  0  0  0  0  0  0  0  0  0  0
    9.8356   -0.7592    0.2588 C   0  0  1  0  0  0  0  0  0  0  0  0
   10.4987   -1.3229   -1.0245 C   0  0  0  0  0  0  0  0  0  0  0  0
   10.0526   -0.5752   -2.2847 C   0  0  0  0  0  0  0  0  0  0  0  0
   10.2858    0.8599   -2.1425 N   0  0  0  0  0  0  0  0  0  0  0  0
   11.1045    1.5006   -3.0369 C   0  0  0  0  0  0  0  0  0  0  0  0
   11.6532    0.9090   -3.9592 O   0  0  0  0  0  0  0  0  0  0  0  0
   11.3156    3.0025   -2.8549 C   0  0  0  0  0  0  0  0  0  0  0  0
   12.2306    3.5626   -3.9328 C   0  0  0  0  0  0  0  0  0  0  0  0
   12.3751    4.9504   -3.6769 O   0  0  0  0  0  0  0  0  0  0  0  0
   13.1494    5.7065   -4.4975 C   0  0  0  0  0  0  0  0  0  0  0  0
   13.2396    7.0733   -4.1765 C   0  0  0  0  0  0  0  0  0  0  0  0
   14.0108    7.9275   -4.9600 C   0  0  0  0  0  0  0  0  0  0  0  0
   14.7051    7.4390   -6.0753 C   0  0  0  0  0  0  0  0  0  0  0  0
   14.6135    6.0833   -6.3913 C   0  0  0  0  0  0  0  0  0  0  0  0
   13.8421    5.2105   -5.6133 C   0  0  0  0  0  0  0  0  0  0  0  0
    9.6028    1.4699   -1.0047 C   0  0  0  0  0  0  0  0  0  0  0  0
    9.9933    0.7740    0.3089 C   0  0  0  0  0  0  0  0  0  0  0  0
    7.1498   -4.6698   -1.2744 S   0  0  0  0  0  0  0  0  0  0  0  0
    6.9209   -8.3936   -1.7351 H   0  0  0  0  0  0  0  0  0  0  0  0
    8.0660   -7.3340   -2.6118 H   0  0  0  0  0  0  0  0  0  0  0  0
    6.3204   -7.1974   -2.9217 H   0  0  0  0  0  0  0  0  0  0  0  0
    6.4224   -5.7312    2.0933 H   0  0  0  0  0  0  0  0  0  0  0  0
    6.5328   -3.1401    2.0999 H   0  0  0  0  0  0  0  0  0  0  0  0
    6.1655   -2.3510    0.5512 H   0  0  0  0  0  0  0  0  0  0  0  0
    8.9624   -2.8760    1.3774 H   0  0  0  0  0  0  0  0  0  0  0  0
   10.3589   -1.1881    1.1305 H   0  0  0  0  0  0  0  0  0  0  0  0
   10.2749   -2.3974   -1.1309 H   0  0  0  0  0  0  0  0  0  0  0  0
   11.5931   -1.2289   -0.9226 H   0  0  0  0  0  0  0  0  0  0  0  0
    8.9777   -0.7493   -2.4687 H   0  0  0  0  0  0  0  0  0  0  0  0
   10.6140   -0.9149   -3.1634 H   0  0  0  0  0  0  0  0  0  0  0  0
   11.7522    3.2166   -1.8650 H   0  0  0  0  0  0  0  0  0  0  0  0
   10.3503    3.5348   -2.8852 H   0  0  0  0  0  0  0  0  0  0  0  0
   11.7985    3.3883   -4.9330 H   0  0  0  0  0  0  0  0  0  0  0  0
   13.2088    3.0528   -3.9100 H   0  0  0  0  0  0  0  0  0  0  0  0
   12.6920    7.4366   -3.3043 H   0  0  0  0  0  0  0  0  0  0  0  0
   14.0714    8.9874   -4.6984 H   0  0  0  0  0  0  0  0  0  0  0  0
   15.3093    8.1111   -6.6890 H   0  0  0  0  0  0  0  0  0  0  0  0
   15.1488    5.6865   -7.2583 H   0  0  0  0  0  0  0  0  0  0  0  0
   13.7883    4.1558   -5.8833 H   0  0  0  0  0  0  0  0  0  0  0  0
    8.5138    1.3836   -1.1458 H   0  0  0  0  0  0  0  0  0  0  0  0
    9.8512    2.5355   -0.9432 H   0  0  0  0  0  0  0  0  0  0  0  0
    9.3935    1.1936    1.1324 H   0  0  0  0  0  0  0  0  0  0  0  0
   11.0511    0.9991    0.5292 H   0  0  0  0  0  0  0  0  0  0  0  0
  1  2  1  0
  1 28  1  0
  1 29  1  0
  1 30  1  0
  2  3  2  0
  2 27  1  0
  3  4  1  0
  4  5  2  0
  4 31  1  0
  5  6  1  0
  5 27  1  0
  6  7  1  0
  6 32  1  0
  6 33  1  0
  7  8  1  0
  7 34  1  0
  8  9  2  0
  8 10  1  0
 10 11  1  0
 10 26  1  0
 10 35  1  1
 11 12  1  0
 11 36  1  0
 11 37  1  0
 12 13  1  0
 12 38  1  0
 12 39  1  0
 13 14  1  0
 13 25  1  0
 14 15  2  0
 14 16  1  0
 16 17  1  0
 16 40  1  0
 16 41  1  0
 17 18  1  0
 17 42  1  0
 17 43  1  0
 18 19  1  0
 19 20  2  0
 19 24  1  0
 20 21  1  0
 20 44  1  0
 21 22  2  0
 21 45  1  0
 22 23  1  0
 22 46  1  0
 23 24  2  0
 23 47  1  0
 24 48  1  0
 25 26  1  0
 25 49  1  0
 25 50  1  0
 26 51  1  0
 26 52  1  0
M  END

