
     RDKit          3D

107111  0  0  0  0  0  0  0  0999 V2000
    0.1149   -2.4331   -1.1273 C   0  0  0  0  0  0  0  0  0  0  0  0
    1.3227   -1.8184   -0.4202 C   0  0  1  0  0  0  0  0  0  0  0  0
    1.9042   -2.7445    0.4905 O   0  0  0  0  0  0  0  0  0  0  0  0
    2.3616   -1.2613   -1.4048 C   0  0  0  0  0  0  0  0  0  0  0  0
    3.5381   -0.5678   -0.7084 C   0  0  0  0  0  0  0  0  0  0  0  0
    4.7066   -0.1010   -1.6070 C   0  0  1  0  0  0  0  0  0  0  0  0
    5.4797   -1.3112   -2.1589 C   0  0  0  0  0  0  0  0  0  0  0  0
    6.7281   -0.9638   -2.9933 C   0  0  2  0  0  0  0  0  0  0  0  0
    7.9838   -0.4768   -2.1886 C   0  0  1  0  0  0  0  0  0  0  0  0
    8.0371   -0.8759   -0.6921 C   0  0  0  0  0  0  0  0  0  0  0  0
    8.3753   -2.3541   -0.4415 C   0  0  0  0  0  0  0  0  0  0  0  0
    9.6932   -2.7955   -1.1089 C   0  0  2  0  0  0  0  0  0  0  0  0
   10.9375   -2.2587   -0.3860 C   0  0  0  0  0  0  0  0  0  0  0  0
    9.6546   -2.4091   -2.6004 C   0  0  0  0  0  0  0  0  0  0  0  0
    9.3198   -0.9281   -2.8376 C   0  0  0  0  0  0  0  0  0  0  0  0
    6.2470    0.0065   -4.1171 C   0  0  2  0  0  0  0  0  0  0  0  0
    7.2861    0.3150   -5.1937 C   0  0  0  0  0  0  0  0  0  0  0  0
    6.7668    1.2474   -6.3133 C   0  0  2  0  0  0  0  0  0  0  0  0
    5.5247    0.5990   -6.9711 C   0  0  0  0  0  0  0  0  0  0  0  0
    7.9258    1.4186   -7.3293 C   0  0  0  0  0  0  0  0  0  0  0  0
    7.8053    2.5577   -8.3655 C   0  0  2  0  0  0  0  0  0  0  0  0
    6.6845    2.2060   -9.3882 C   0  0  0  0  0  0  0  0  0  0  0  0
    9.1253    2.6366   -9.1741 C   0  0  0  0  0  0  0  0  0  0  0  0
    9.1415    3.7438  -10.2445 C   0  0  2  0  0  0  0  0  0  0  0  0
   10.4313    3.6745  -11.0750 C   0  0  0  0  0  0  0  0  0  0  0  0
    8.7563    5.1396   -9.6617 C   0  0  2  0  0  0  0  0  0  0  0  0
    9.9904    5.9309   -9.1167 C   0  0  1  0  0  0  0  0  0  0  0  0
   10.6379    6.8128  -10.1865 C   0  0  0  0  0  0  0  0  0  0  0  0
    9.6103    6.7812   -8.0231 O   0  0  0  0  0  0  0  0  0  0  0  0
    7.4779    5.0274   -8.7376 C   0  0  2  0  0  0  0  0  0  0  0  0
    7.0772    6.3211   -8.3470 O   0  0  0  0  0  0  0  0  0  0  0  0
    7.5588    3.9285   -7.6003 C   0  0  2  0  0  0  0  0  0  0  0  0
    8.7255    4.2849   -6.6489 C   0  0  0  0  0  0  0  0  0  0  0  0
    6.2313    3.7653   -6.7239 C   0  0  2  0  0  0  0  0  0  0  0  0
    5.6987    5.0860   -6.1388 C   0  0  0  0  0  0  0  0  0  0  0  0
    6.4322    2.6209   -5.6541 C   0  0  1  0  0  0  0  0  0  0  0  0
    5.3347    2.4525   -4.5638 C   0  0  2  0  0  0  0  0  0  0  0  0
    5.1821    3.6477   -3.8037 O   0  0  0  0  0  0  0  0  0  0  0  0
    5.5937    1.2902   -3.5433 C   0  0  1  0  0  0  0  0  0  0  0  0
    4.3172    0.8957   -2.7341 C   0  0  2  0  0  0  0  0  0  0  0  0
    3.5005    2.0693   -2.1739 C   0  0  0  0  0  0  0  0  0  0  0  0
   -0.5953   -2.8361   -0.3894 H   0  0  0  0  0  0  0  0  0  0  0  0
    0.4284   -3.2612   -1.7879 H   0  0  0  0  0  0  0  0  0  0  0  0
   -0.4109   -1.6921   -1.7506 H   0  0  0  0  0  0  0  0  0  0  0  0
    0.9719   -0.9899    0.2206 H   0  0  0  0  0  0  0  0  0  0  0  0
    2.2182   -3.5024   -0.0227 H   0  0  0  0  0  0  0  0  0  0  0  0
    1.8526   -0.5666   -2.0950 H   0  0  0  0  0  0  0  0  0  0  0  0
    2.7199   -2.1001   -2.0314 H   0  0  0  0  0  0  0  0  0  0  0  0
    3.9403   -1.2655    0.0445 H   0  0  0  0  0  0  0  0  0  0  0  0
    3.1481    0.2873   -0.1319 H   0  0  0  0  0  0  0  0  0  0  0  0
    5.3894    0.4560   -0.9381 H   0  0  0  0  0  0  0  0  0  0  0  0
    4.8031   -1.8888   -2.8130 H   0  0  0  0  0  0  0  0  0  0  0  0
    5.7336   -1.9877   -1.3293 H   0  0  0  0  0  0  0  0  0  0  0  0
    7.0200   -1.8976   -3.5061 H   0  0  0  0  0  0  0  0  0  0  0  0
    7.9741    0.6265   -2.2066 H   0  0  0  0  0  0  0  0  0  0  0  0
    7.0996   -0.6167   -0.1785 H   0  0  0  0  0  0  0  0  0  0  0  0
    8.8105   -0.2504   -0.2124 H   0  0  0  0  0  0  0  0  0  0  0  0
    7.5599   -2.9903   -0.8271 H   0  0  0  0  0  0  0  0  0  0  0  0
    8.4202   -2.5443    0.6451 H   0  0  0  0  0  0  0  0  0  0  0  0
    9.7443   -3.8977   -1.0503 H   0  0  0  0  0  0  0  0  0  0  0  0
   10.9871   -1.1583   -0.3842 H   0  0  0  0  0  0  0  0  0  0  0  0
   11.8600   -2.6268   -0.8646 H   0  0  0  0  0  0  0  0  0  0  0  0
   10.9540   -2.5882    0.6659 H   0  0  0  0  0  0  0  0  0  0  0  0
    8.9018   -3.0391   -3.1071 H   0  0  0  0  0  0  0  0  0  0  0  0
   10.6196   -2.6502   -3.0794 H   0  0  0  0  0  0  0  0  0  0  0  0
    9.3167   -0.7323   -3.9183 H   0  0  0  0  0  0  0  0  0  0  0  0
   10.1315   -0.3039   -2.4238 H   0  0  0  0  0  0  0  0  0  0  0  0
    5.4411   -0.5573   -4.6152 H   0  0  0  0  0  0  0  0  0  0  0  0
    7.6436   -0.6310   -5.6389 H   0  0  0  0  0  0  0  0  0  0  0  0
    8.1682    0.8000   -4.7446 H   0  0  0  0  0  0  0  0  0  0  0  0
    5.8177   -0.2987   -7.5398 H   0  0  0  0  0  0  0  0  0  0  0  0
    5.0014    1.2685   -7.6607 H   0  0  0  0  0  0  0  0  0  0  0  0
    4.7809    0.2815   -6.2293 H   0  0  0  0  0  0  0  0  0  0  0  0
    8.0714    0.4621   -7.8629 H   0  0  0  0  0  0  0  0  0  0  0  0
    8.8536    1.5747   -6.7547 H   0  0  0  0  0  0  0  0  0  0  0  0
    6.7356    1.1342   -9.6348 H   0  0  0  0  0  0  0  0  0  0  0  0
    6.7800    2.7490  -10.3352 H   0  0  0  0  0  0  0  0  0  0  0  0
    5.6723    2.4093   -9.0264 H   0  0  0  0  0  0  0  0  0  0  0  0
    9.2887    1.6657   -9.6753 H   0  0  0  0  0  0  0  0  0  0  0  0
    9.9815    2.7602   -8.4903 H   0  0  0  0  0  0  0  0  0  0  0  0
    8.3372    3.5103  -10.9580 H   0  0  0  0  0  0  0  0  0  0  0  0
   11.3371    3.8830  -10.4829 H   0  0  0  0  0  0  0  0  0  0  0  0
   10.4127    4.3705  -11.9283 H   0  0  0  0  0  0  0  0  0  0  0  0
   10.5482    2.6597  -11.4883 H   0  0  0  0  0  0  0  0  0  0  0  0
    8.3826    5.7486  -10.5024 H   0  0  0  0  0  0  0  0  0  0  0  0
   10.7421    5.2115   -8.7415 H   0  0  0  0  0  0  0  0  0  0  0  0
    9.9190    7.5783  -10.5192 H   0  0  0  0  0  0  0  0  0  0  0  0
   10.9678    6.2430  -11.0638 H   0  0  0  0  0  0  0  0  0  0  0  0
   11.5247    7.3277   -9.7767 H   0  0  0  0  0  0  0  0  0  0  0  0
   10.3672    7.3250   -7.7704 H   0  0  0  0  0  0  0  0  0  0  0  0
    6.6762    4.6910   -9.4127 H   0  0  0  0  0  0  0  0  0  0  0  0
    7.8597    6.7680   -7.9839 H   0  0  0  0  0  0  0  0  0  0  0  0
    9.6870    4.3635   -7.1647 H   0  0  0  0  0  0  0  0  0  0  0  0
    8.8687    3.5552   -5.8440 H   0  0  0  0  0  0  0  0  0  0  0  0
    8.5412    5.2611   -6.1818 H   0  0  0  0  0  0  0  0  0  0  0  0
    5.4415    3.4201   -7.4096 H   0  0  0  0  0  0  0  0  0  0  0  0
    6.3877    5.5248   -5.3979 H   0  0  0  0  0  0  0  0  0  0  0  0
    4.7449    4.9278   -5.6250 H   0  0  0  0  0  0  0  0  0  0  0  0
    5.5686    5.8251   -6.9340 H   0  0  0  0  0  0  0  0  0  0  0  0
    7.3260    2.8955   -5.0668 H   0  0  0  0  0  0  0  0  0  0  0  0
    4.3543    2.3021   -5.0480 H   0  0  0  0  0  0  0  0  0  0  0  0
    6.0585    3.9232   -3.5042 H   0  0  0  0  0  0  0  0  0  0  0  0
    6.3153    1.7320   -2.8284 H   0  0  0  0  0  0  0  0  0  0  0  0
    3.6647    0.3545   -3.4481 H   0  0  0  0  0  0  0  0  0  0  0  0
    4.0790    2.6443   -1.4325 H   0  0  0  0  0  0  0  0  0  0  0  0
    2.5886    1.7041   -1.6782 H   0  0  0  0  0  0  0  0  0  0  0  0
    3.1940    2.7766   -2.9527 H   0  0  0  0  0  0  0  0  0  0  0  0
  1  2  1  0
  1 42  1  0
  1 43  1  0
  1 44  1  0
  2  3  1  0
  2  4  1  0
  2 45  1  1
  3 46  1  0
  4  5  1  0
  4 47  1  0
  4 48  1  0
  5  6  1  0
  5 49  1  0
  5 50  1  0
  6  7  1  0
  6 40  1  0
  6 51  1  1
  7  8  1  0
  7 52  1  0
  7 53  1  0
  8  9  1  0
  8 16  1  0
  8 54  1  6
  9 10  1  0
  9 15  1  0
  9 55  1  1
 10 11  1  0
 10 56  1  0
 10 57  1  0
 11 12  1  0
 11 58  1  0
 11 59  1  0
 12 13  1  0
 12 14  1  0
 12 60  1  6
 13 61  1  0
 13 62  1  0
 13 63  1  0
 14 15  1  0
 14 64  1  0
 14 65  1  0
 15 66  1  0
 15 67  1  0
 16 17  1  0
 16 39  1  0
 16 68  1  6
 17 18  1  0
 17 69  1  0
 17 70  1  0
 18 19  1  6
 18 20  1  0
 18 36  1  0
 19 71  1  0
 19 72  1  0
 19 73  1  0
 20 21  1  0
 20 74  1  0
 20 75  1  0
 21 22  1  6
 21 23  1  0
 21 32  1  0
 22 76  1  0
 22 77  1  0
 22 78  1  0
 23 24  1  0
 23 79  1  0
 23 80  1  0
 24 25  1  0
 24 26  1  0
 24 81  1  6
 25 82  1  0
 25 83  1  0
 25 84  1  0
 26 27  1  0
 26 30  1  0
 26 85  1  6
 27 28  1  0
 27 29  1  0
 27 86  1  1
 28 87  1  0
 28 88  1  0
 28 89  1  0
 29 90  1  0
 30 31  1  0
 30 32  1  0
 30 91  1  6
 31 92  1  0
 32 33  1  1
 32 34  1  0
 33 93  1  0
 33 94  1  0
 33 95  1  0
 34 35  1  0
 34 36  1  0
 34 96  1  6
 35 97  1  0
 35 98  1  0
 35 99  1  0
 36 37  1  0
 36100  1  1
 37 38  1  0
 37 39  1  0
 37101  1  6
 38102  1  0
 39 40  1  0
 39103  1  1
 40 41  1  0
 40104  1  6
 41105  1  0
 41106  1  0
 41107  1  0
M  END

