
     RDKit          3D

 25 28  0  0  0  0  0  0  0  0999 V2000
    1.0370    0.5604    0.0676 Br  0  0  0  0  0  0  0  0  0  0  0  0
    2.9130    0.1975    0.0694 C   0  0  0  0  0  0  0  0  0  0  0  0
    3.3513   -1.1377    0.0685 C   0  0  0  0  0  0  0  0  0  0  0  0
    4.7170   -1.4165    0.0700 C   0  0  0  0  0  0  0  0  0  0  0  0
    5.6317   -0.3563    0.0723 C   0  0  0  0  0  0  0  0  0  0  0  0
    7.3833   -0.4938    0.0744 S   0  0  0  0  0  0  0  0  0  0  0  0
    7.5668    1.2612    0.0765 C   0  0  0  0  0  0  0  0  0  0  0  0
    8.7787    1.9475    0.0789 C   0  0  0  0  0  0  0  0  0  0  0  0
    8.7377    3.3522    0.0804 C   0  0  0  0  0  0  0  0  0  0  0  0
    9.7461    4.3793    0.0832 C   0  0  0  0  0  0  0  0  0  0  0  0
    9.0913    5.5867    0.0833 C   0  0  0  0  0  0  0  0  0  0  0  0
    7.7273    5.3774    0.0810 N   0  0  0  0  0  0  0  0  0  0  0  0
    7.0264    6.1052    0.0805 H   0  0  0  0  0  0  0  0  0  0  0  0
    7.4680    4.0206    0.0791 C   0  0  0  0  0  0  0  0  0  0  0  0
    6.2543    3.3339    0.0768 C   0  0  0  0  0  0  0  0  0  0  0  0
    6.3023    1.9349    0.0755 C   0  0  0  0  0  0  0  0  0  0  0  0
    5.1914    0.9920    0.0730 C   0  0  0  0  0  0  0  0  0  0  0  0
    3.8124    1.2595    0.0716 C   0  0  0  0  0  0  0  0  0  0  0  0
    2.6249   -1.9522    0.0666 H   0  0  0  0  0  0  0  0  0  0  0  0
    5.0632   -2.4526    0.0693 H   0  0  0  0  0  0  0  0  0  0  0  0
    9.7316    1.4128    0.0799 H   0  0  0  0  0  0  0  0  0  0  0  0
   10.8246    4.2378    0.0848 H   0  0  0  0  0  0  0  0  0  0  0  0
    9.4957    6.5981    0.0848 H   0  0  0  0  0  0  0  0  0  0  0  0
    5.2984    3.8638    0.0760 H   0  0  0  0  0  0  0  0  0  0  0  0
    3.4465    2.2878    0.0722 H   0  0  0  0  0  0  0  0  0  0  0  0
  1  2  1  0
  2  3  2  0
  2 18  1  0
  3  4  1  0
  3 19  1  0
  4  5  2  0
  4 20  1  0
  5  6  1  0
  5 17  1  0
  6  7  1  0
  7  8  1  0
  7 16  2  0
  8  9  2  0
  8 21  1  0
  9 10  1  0
  9 14  1  0
 10 11  2  0
 10 22  1  0
 11 12  1  0
 11 23  1  0
 12 13  1  0
 12 14  1  0
 14 15  2  0
 15 16  1  0
 15 24  1  0
 16 17  1  0
 17 18  2  0
 18 25  1  0
M  END

