
     RDKit          3D

 25 25  0  0  0  0  0  0  0  0999 V2000
    2.6038   -3.5039    0.6044 C   0  0  0  0  0  0  0  0  0  0  0  0
    2.9744   -2.2418    0.8496 C   0  0  0  0  0  0  0  0  0  0  0  0
    3.0868   -1.1553   -0.1819 C   0  0  0  0  0  0  0  0  0  0  0  0
    4.5118   -0.6216   -0.4304 C   0  0  0  0  0  0  0  0  0  0  0  0
    4.7124    0.5539   -0.6695 O   0  0  0  0  0  0  0  0  0  0  0  0
    5.4805   -1.5948   -0.3962 N   0  0  0  0  0  0  0  0  0  0  0  0
    6.8677   -1.4857   -0.6216 C   0  0  0  0  0  0  0  0  0  0  0  0
    7.5014   -0.2704   -0.9321 C   0  0  0  0  0  0  0  0  0  0  0  0
    8.8841   -0.2769   -1.1351 C   0  0  0  0  0  0  0  0  0  0  0  0
    9.6415   -1.4422   -1.0393 C   0  0  0  0  0  0  0  0  0  0  0  0
    9.0117   -2.6645   -0.7285 C   0  0  0  0  0  0  0  0  0  0  0  0
    9.7536   -3.8300   -0.5775 N   0  0  0  0  0  0  0  0  0  0  0  0
    7.6219   -2.6674   -0.5239 C   0  0  0  0  0  0  0  0  0  0  0  0
    2.5461   -4.2491    1.4027 H   0  0  0  0  0  0  0  0  0  0  0  0
    2.3271   -3.8345   -0.4029 H   0  0  0  0  0  0  0  0  0  0  0  0
    3.2334   -1.9549    1.8768 H   0  0  0  0  0  0  0  0  0  0  0  0
    2.4991   -0.2707    0.1068 H   0  0  0  0  0  0  0  0  0  0  0  0
    2.6909   -1.5044   -1.1520 H   0  0  0  0  0  0  0  0  0  0  0  0
    5.1497   -2.5258   -0.1633 H   0  0  0  0  0  0  0  0  0  0  0  0
    6.9152    0.6410   -1.0092 H   0  0  0  0  0  0  0  0  0  0  0  0
    9.3853    0.6640   -1.3785 H   0  0  0  0  0  0  0  0  0  0  0  0
   10.7226   -1.4154   -1.2002 H   0  0  0  0  0  0  0  0  0  0  0  0
   10.6594   -3.8418   -1.0319 H   0  0  0  0  0  0  0  0  0  0  0  0
    9.2499   -4.7026   -0.6879 H   0  0  0  0  0  0  0  0  0  0  0  0
    7.1201   -3.6090   -0.2776 H   0  0  0  0  0  0  0  0  0  0  0  0
  1  2  2  0
  1 14  1  0
  1 15  1  0
  2  3  1  0
  2 16  1  0
  3  4  1  0
  3 17  1  0
  3 18  1  0
  4  5  2  0
  4  6  1  0
  6  7  1  0
  6 19  1  0
  7  8  2  0
  7 13  1  0
  8  9  1  0
  8 20  1  0
  9 10  2  0
  9 21  1  0
 10 11  1  0
 10 22  1  0
 11 12  1  0
 11 13  2  0
 12 23  1  0
 12 24  1  0
 13 25  1  0
M  END

