
     RDKit          3D

 59 62  0  0  0  0  0  0  0  0999 V2000
    1.2599    0.1689    0.6032 C   0  0  0  0  0  0  0  0  0  0  0  0
    2.7320    0.1131    0.3532 C   0  0  0  0  0  0  0  0  0  0  0  0
    3.6697    1.1105    0.4442 C   0  0  0  0  0  0  0  0  0  0  0  0
    4.9580    0.5499    0.1419 C   0  0  0  0  0  0  0  0  0  0  0  0
    6.2589    1.2370    0.0876 C   0  0  0  0  0  0  0  0  0  0  0  0
    7.3406    0.6760   -0.0550 O   0  0  0  0  0  0  0  0  0  0  0  0
    6.2048    2.6163    0.2064 N   0  0  0  0  0  0  0  0  0  0  0  0
    7.2934    3.4686    0.2010 C   0  0  0  0  0  0  0  0  0  0  0  0
    7.1443    4.7572    0.3166 N   0  0  0  0  0  0  0  0  0  0  0  0
    8.3646    5.3912    0.2816 C   0  0  0  0  0  0  0  0  0  0  0  0
    9.4569    4.5767    0.1474 C   0  0  0  0  0  0  0  0  0  0  0  0
    8.9516    2.9043    0.0399 S   0  0  0  0  0  0  0  0  0  0  0  0
   10.8829    5.0527    0.0942 C   0  0  0  0  0  0  0  0  0  0  0  0
   10.9347    6.4694    0.4415 N   0  0  0  0  0  0  0  0  0  0  0  0
   11.8997    6.8928    1.3207 C   0  0  0  0  0  0  0  0  0  0  0  0
   12.7513    6.1614    1.7921 O   0  0  0  0  0  0  0  0  0  0  0  0
   11.7813    8.2130    1.5854 O   0  0  0  0  0  0  0  0  0  0  0  0
   12.7097    8.9056    2.4822 C   0  0  1  0  0  0  0  0  0  0  0  0
   14.1347    8.8364    1.9226 C   0  0  0  0  0  0  0  0  0  0  0  0
   12.1918   10.3455    2.4618 C   0  0  0  0  0  0  0  0  0  0  0  0
   12.6150    8.3179    3.8944 C   0  0  0  0  0  0  0  0  0  0  0  0
    9.8836    7.3136   -0.1219 C   0  0  0  0  0  0  0  0  0  0  0  0
    8.4979    6.8850    0.3820 C   0  0  0  0  0  0  0  0  0  0  0  0
    4.7689   -0.8049   -0.1233 C   0  0  0  0  0  0  0  0  0  0  0  0
    5.7629   -1.8384   -0.5480 C   0  0  0  0  0  0  0  0  0  0  0  0
    3.4125   -1.0613    0.0115 N   0  0  0  0  0  0  0  0  0  0  0  0
    2.7877   -2.3256   -0.1888 C   0  0  0  0  0  0  0  0  0  0  0  0
    3.2444   -3.4588    0.5025 C   0  0  0  0  0  0  0  0  0  0  0  0
    2.6133   -4.6780    0.2582 C   0  0  0  0  0  0  0  0  0  0  0  0
    1.5447   -4.7203   -0.6405 C   0  0  0  0  0  0  0  0  0  0  0  0
    1.1530   -3.5264   -1.2522 C   0  0  0  0  0  0  0  0  0  0  0  0
    1.7636   -2.3590   -1.0394 N   0  0  0  0  0  0  0  0  0  0  0  0
    0.9900    1.1753    0.9532 H   0  0  0  0  0  0  0  0  0  0  0  0
    0.9438   -0.5525    1.3762 H   0  0  0  0  0  0  0  0  0  0  0  0
    0.6813   -0.0572   -0.3050 H   0  0  0  0  0  0  0  0  0  0  0  0
    3.4393    2.1353    0.7319 H   0  0  0  0  0  0  0  0  0  0  0  0
    5.3128    3.0919    0.2854 H   0  0  0  0  0  0  0  0  0  0  0  0
   11.3116    4.8890   -0.9159 H   0  0  0  0  0  0  0  0  0  0  0  0
   11.5276    4.5134    0.8021 H   0  0  0  0  0  0  0  0  0  0  0  0
   14.1611    9.2292    0.8939 H   0  0  0  0  0  0  0  0  0  0  0  0
   14.5058    7.8040    1.9173 H   0  0  0  0  0  0  0  0  0  0  0  0
   14.8065    9.4531    2.5402 H   0  0  0  0  0  0  0  0  0  0  0  0
   12.2228   10.7553    1.4406 H   0  0  0  0  0  0  0  0  0  0  0  0
   12.8110   10.9826    3.1114 H   0  0  0  0  0  0  0  0  0  0  0  0
   11.1520   10.3889    2.8203 H   0  0  0  0  0  0  0  0  0  0  0  0
   12.9655    7.2785    3.9119 H   0  0  0  0  0  0  0  0  0  0  0  0
   11.5737    8.3478    4.2521 H   0  0  0  0  0  0  0  0  0  0  0  0
   13.2305    8.9136    4.5868 H   0  0  0  0  0  0  0  0  0  0  0  0
    9.9153    7.2189   -1.2235 H   0  0  0  0  0  0  0  0  0  0  0  0
   10.0963    8.3565    0.1302 H   0  0  0  0  0  0  0  0  0  0  0  0
    7.7066    7.3734   -0.2104 H   0  0  0  0  0  0  0  0  0  0  0  0
    8.3564    7.2116    1.4283 H   0  0  0  0  0  0  0  0  0  0  0  0
    6.6484   -1.3362   -0.9542 H   0  0  0  0  0  0  0  0  0  0  0  0
    5.3433   -2.5216   -1.3024 H   0  0  0  0  0  0  0  0  0  0  0  0
    6.1133   -2.4522    0.2999 H   0  0  0  0  0  0  0  0  0  0  0  0
    4.0617   -3.3772    1.2192 H   0  0  0  0  0  0  0  0  0  0  0  0
    2.9454   -5.5814    0.7756 H   0  0  0  0  0  0  0  0  0  0  0  0
    1.0199   -5.6529   -0.8579 H   0  0  0  0  0  0  0  0  0  0  0  0
    0.3100   -3.5126   -1.9525 H   0  0  0  0  0  0  0  0  0  0  0  0
  1  2  1  0
  1 33  1  0
  1 34  1  0
  1 35  1  0
  2  3  2  0
  2 26  1  0
  3  4  1  0
  3 36  1  0
  4  5  1  0
  4 24  2  0
  5  6  2  0
  5  7  1  0
  7  8  1  0
  7 37  1  0
  8  9  2  0
  8 12  1  0
  9 10  1  0
 10 11  2  0
 10 23  1  0
 11 12  1  0
 11 13  1  0
 13 14  1  0
 13 38  1  0
 13 39  1  0
 14 15  1  0
 14 22  1  0
 15 16  2  0
 15 17  1  0
 18 17  1  6
 18 19  1  0
 18 20  1  0
 18 21  1  0
 19 40  1  0
 19 41  1  0
 19 42  1  0
 20 43  1  0
 20 44  1  0
 20 45  1  0
 21 46  1  0
 21 47  1  0
 21 48  1  0
 22 23  1  0
 22 49  1  0
 22 50  1  0
 23 51  1  0
 23 52  1  0
 24 25  1  0
 24 26  1  0
 25 53  1  0
 25 54  1  0
 25 55  1  0
 26 27  1  0
 27 28  2  0
 27 32  1  0
 28 29  1  0
 28 56  1  0
 29 30  2  0
 29 57  1  0
 30 31  1  0
 30 58  1  0
 31 32  2  0
 31 59  1  0
M  END

