
     RDKit          3D

 38 39  0  0  0  0  0  0  0  0999 V2000
    7.6519    3.8402   -3.5963 C   0  0  0  0  0  0  0  0  0  0  0  0
    7.4985    2.7260   -2.5900 C   0  0  0  0  0  0  0  0  0  0  0  0
    6.3947    2.6649   -1.7284 C   0  0  0  0  0  0  0  0  0  0  0  0
    6.2696    1.6405   -0.7838 C   0  0  0  0  0  0  0  0  0  0  0  0
    7.2463    0.6440   -0.6714 C   0  0  0  0  0  0  0  0  0  0  0  0
    7.1254   -0.4614    0.3693 C   0  0  0  0  0  0  0  0  0  0  0  0
    7.2946   -1.8417   -0.1834 C   0  0  0  0  0  0  0  0  0  0  0  0
    8.4059   -2.5578   -0.1345 N   0  0  0  0  0  0  0  0  0  0  0  0
    8.1411   -3.7217   -0.7607 N   0  0  0  0  0  0  0  0  0  0  0  0
    6.9263   -3.7496   -1.1840 N   0  0  0  0  0  0  0  0  0  0  0  0
    6.3611   -2.5741   -0.8384 N   0  0  0  0  0  0  0  0  0  0  0  0
    4.9776   -2.2792   -1.2030 C   0  0  0  0  0  0  0  0  0  0  0  0
    4.8018   -1.6498   -2.5905 C   0  0  0  0  0  0  0  0  0  0  0  0
    5.3868   -2.4329   -3.7764 C   0  0  0  0  0  0  0  0  0  0  0  0
    4.9306   -3.8870   -3.9268 C   0  0  0  0  0  0  0  0  0  0  0  0
    3.4368   -4.0714   -4.1486 C   0  0  0  0  0  0  0  0  0  0  0  0
    2.6376   -3.1791   -4.2515 O   0  0  0  0  0  0  0  0  0  0  0  0
    3.0272   -5.3592   -4.2360 O   0  0  0  0  0  0  0  0  0  0  0  0
    8.3545    0.6986   -1.5323 C   0  0  0  0  0  0  0  0  0  0  0  0
    8.4747    1.7207   -2.4731 C   0  0  0  0  0  0  0  0  0  0  0  0
    6.7066    4.3817   -3.7494 H   0  0  0  0  0  0  0  0  0  0  0  0
    7.9883    3.4580   -4.5732 H   0  0  0  0  0  0  0  0  0  0  0  0
    8.4043    4.5759   -3.2624 H   0  0  0  0  0  0  0  0  0  0  0  0
    5.6153    3.4293   -1.7959 H   0  0  0  0  0  0  0  0  0  0  0  0
    5.3959    1.6220   -0.1253 H   0  0  0  0  0  0  0  0  0  0  0  0
    6.1578   -0.3773    0.8885 H   0  0  0  0  0  0  0  0  0  0  0  0
    7.9099   -0.3438    1.1334 H   0  0  0  0  0  0  0  0  0  0  0  0
    4.5699   -1.6063   -0.4345 H   0  0  0  0  0  0  0  0  0  0  0  0
    4.4309   -3.2293   -1.1197 H   0  0  0  0  0  0  0  0  0  0  0  0
    5.2487   -0.6425   -2.5834 H   0  0  0  0  0  0  0  0  0  0  0  0
    3.7196   -1.5178   -2.7434 H   0  0  0  0  0  0  0  0  0  0  0  0
    6.4870   -2.4340   -3.7133 H   0  0  0  0  0  0  0  0  0  0  0  0
    5.1286   -1.8817   -4.6949 H   0  0  0  0  0  0  0  0  0  0  0  0
    5.2466   -4.4865   -3.0548 H   0  0  0  0  0  0  0  0  0  0  0  0
    5.4474   -4.3426   -4.7914 H   0  0  0  0  0  0  0  0  0  0  0  0
    3.7783   -5.9611   -4.1316 H   0  0  0  0  0  0  0  0  0  0  0  0
    9.1282   -0.0712   -1.4625 H   0  0  0  0  0  0  0  0  0  0  0  0
    9.3471    1.7396   -3.1331 H   0  0  0  0  0  0  0  0  0  0  0  0
  1  2  1  0
  1 21  1  0
  1 22  1  0
  1 23  1  0
  2  3  2  0
  2 20  1  0
  3  4  1  0
  3 24  1  0
  4  5  2  0
  4 25  1  0
  5  6  1  0
  5 19  1  0
  6  7  1  0
  6 26  1  0
  6 27  1  0
  7  8  2  0
  7 11  1  0
  8  9  1  0
  9 10  2  0
 10 11  1  0
 11 12  1  0
 12 13  1  0
 12 28  1  0
 12 29  1  0
 13 14  1  0
 13 30  1  0
 13 31  1  0
 14 15  1  0
 14 32  1  0
 14 33  1  0
 15 16  1  0
 15 34  1  0
 15 35  1  0
 16 17  2  0
 16 18  1  0
 18 36  1  0
 19 20  2  0
 19 37  1  0
 20 38  1  0
M  END

