
     RDKit          3D

 47 47  0  0  0  0  0  0  0  0999 V2000
    2.5379   -0.9862    0.4451 C   0  0  0  0  0  0  0  0  0  0  0  0
    2.0473    0.3630    0.6366 N   0  0  0  0  0  0  0  0  0  0  0  0
    2.8752    1.4232    0.0803 C   0  0  1  0  0  0  0  0  0  0  0  0
    2.7212    1.4572   -1.4523 C   0  0  0  0  0  0  0  0  0  0  0  0
    3.4446    2.5613   -2.2373 C   0  0  0  0  0  0  0  0  0  0  0  0
    2.8032    3.9507   -2.0999 C   0  0  0  0  0  0  0  0  0  0  0  0
    3.1524    4.7376   -0.8202 C   0  0  0  0  0  0  0  0  0  0  0  0
    3.4631    3.9133    0.4406 C   0  0  0  0  0  0  0  0  0  0  0  0
    2.4978    2.7602    0.7670 C   0  0  2  0  0  0  0  0  0  0  0  0
    2.3534    2.5838    2.1793 O   0  0  0  0  0  0  0  0  0  0  0  0
    3.5050    2.3095    2.9472 C   0  0  0  0  0  0  0  0  0  0  0  0
    3.0731    1.6117    4.2210 C   0  0  0  0  0  0  0  0  0  0  0  0
    2.6284    0.3120    3.9129 O   0  0  0  0  0  0  0  0  0  0  0  0
    2.1075   -0.3977    5.0154 C   0  0  0  0  0  0  0  0  0  0  0  0
    1.6244   -1.7620    4.5448 C   0  0  0  0  0  0  0  0  0  0  0  0
    1.0977   -2.6323    5.6751 C   0  0  0  0  0  0  0  0  0  0  0  0
    0.0073   -1.9874    6.2908 O   0  0  0  0  0  0  0  0  0  0  0  0
   -0.5565   -2.7081    7.3517 C   0  0  0  0  0  0  0  0  0  0  0  0
    1.9259   -1.6848    1.0366 H   0  0  0  0  0  0  0  0  0  0  0  0
    3.6005   -1.1326    0.7493 H   0  0  0  0  0  0  0  0  0  0  0  0
    2.4568   -1.3045   -0.6082 H   0  0  0  0  0  0  0  0  0  0  0  0
    1.9150    0.5387    1.6316 H   0  0  0  0  0  0  0  0  0  0  0  0
    3.9588    1.2418    0.2910 H   0  0  0  0  0  0  0  0  0  0  0  0
    1.6398    1.5023   -1.6725 H   0  0  0  0  0  0  0  0  0  0  0  0
    3.0633    0.4812   -1.8333 H   0  0  0  0  0  0  0  0  0  0  0  0
    3.4223    2.2769   -3.3028 H   0  0  0  0  0  0  0  0  0  0  0  0
    4.5155    2.5969   -1.9653 H   0  0  0  0  0  0  0  0  0  0  0  0
    1.7088    3.8205   -2.1679 H   0  0  0  0  0  0  0  0  0  0  0  0
    3.0772    4.5703   -2.9704 H   0  0  0  0  0  0  0  0  0  0  0  0
    2.3249    5.4337   -0.5999 H   0  0  0  0  0  0  0  0  0  0  0  0
    4.0304    5.3774   -1.0147 H   0  0  0  0  0  0  0  0  0  0  0  0
    3.4481    4.6029    1.3001 H   0  0  0  0  0  0  0  0  0  0  0  0
    4.4922    3.5189    0.3843 H   0  0  0  0  0  0  0  0  0  0  0  0
    1.4762    3.0290    0.4499 H   0  0  0  0  0  0  0  0  0  0  0  0
    4.0429    3.2408    3.2147 H   0  0  0  0  0  0  0  0  0  0  0  0
    4.2179    1.6564    2.4121 H   0  0  0  0  0  0  0  0  0  0  0  0
    2.2656    2.1998    4.7022 H   0  0  0  0  0  0  0  0  0  0  0  0
    3.9288    1.5773    4.9283 H   0  0  0  0  0  0  0  0  0  0  0  0
    1.2708    0.1578    5.4805 H   0  0  0  0  0  0  0  0  0  0  0  0
    2.8888   -0.5191    5.7972 H   0  0  0  0  0  0  0  0  0  0  0  0
    2.4563   -2.2871    4.0464 H   0  0  0  0  0  0  0  0  0  0  0  0
    0.8312   -1.6218    3.7919 H   0  0  0  0  0  0  0  0  0  0  0  0
    1.9005   -2.8263    6.4206 H   0  0  0  0  0  0  0  0  0  0  0  0
    0.7901   -3.6222    5.2771 H   0  0  0  0  0  0  0  0  0  0  0  0
   -1.3940   -2.1193    7.7541 H   0  0  0  0  0  0  0  0  0  0  0  0
    0.1727   -2.8873    8.1688 H   0  0  0  0  0  0  0  0  0  0  0  0
   -0.9453   -3.6946    7.0246 H   0  0  0  0  0  0  0  0  0  0  0  0
  1  2  1  0
  1 19  1  0
  1 20  1  0
  1 21  1  0
  2  3  1  0
  2 22  1  0
  3  4  1  0
  3  9  1  0
  3 23  1  6
  4  5  1  0
  4 24  1  0
  4 25  1  0
  5  6  1  0
  5 26  1  0
  5 27  1  0
  6  7  1  0
  6 28  1  0
  6 29  1  0
  7  8  1  0
  7 30  1  0
  7 31  1  0
  8  9  1  0
  8 32  1  0
  8 33  1  0
  9 10  1  0
  9 34  1  6
 10 11  1  0
 11 12  1  0
 11 35  1  0
 11 36  1  0
 12 13  1  0
 12 37  1  0
 12 38  1  0
 13 14  1  0
 14 15  1  0
 14 39  1  0
 14 40  1  0
 15 16  1  0
 15 41  1  0
 15 42  1  0
 16 17  1  0
 16 43  1  0
 16 44  1  0
 17 18  1  0
 18 45  1  0
 18 46  1  0
 18 47  1  0
M  END

