
     RDKit          3D

 43 48  0  0  0  0  0  0  0  0999 V2000
    2.2753   -1.9390   -2.6584 C   0  0  0  0  0  0  0  0  0  0  0  0
    3.5516   -2.2394   -2.0939 O   0  0  0  0  0  0  0  0  0  0  0  0
    4.3245   -1.1849   -1.7751 C   0  0  0  0  0  0  0  0  0  0  0  0
    3.9833   -0.0375   -1.9450 O   0  0  0  0  0  0  0  0  0  0  0  0
    5.6392   -1.5949   -1.1925 C   0  0  0  0  0  0  0  0  0  0  0  0
    6.5354   -0.5850   -0.8119 C   0  0  0  0  0  0  0  0  0  0  0  0
    7.7757   -0.9112   -0.2686 C   0  0  0  0  0  0  0  0  0  0  0  0
    8.1448   -2.2579   -0.0837 C   0  0  0  0  0  0  0  0  0  0  0  0
    9.4677   -2.6015    0.4984 C   0  0  0  0  0  0  0  0  0  0  0  0
    9.5547   -3.4098    1.6514 C   0  0  0  0  0  0  0  0  0  0  0  0
    8.5119   -4.0143    2.4247 C   0  0  0  0  0  0  0  0  0  0  0  0
    9.1551   -4.7312    3.4245 C   0  0  0  0  0  0  0  0  0  0  0  0
    8.8218   -5.7604    4.7969 S   0  0  0  0  0  0  0  0  0  0  0  0
   10.5463   -5.9021    5.1075 C   0  0  0  0  0  0  0  0  0  0  0  0
   11.3515   -5.2195    4.2341 C   0  0  0  0  0  0  0  0  0  0  0  0
   10.5606   -4.5421    3.2600 C   0  0  0  0  0  0  0  0  0  0  0  0
   10.7928   -3.7447    2.1973 N   0  0  0  0  0  0  0  0  0  0  0  0
   12.1602   -3.0956    1.8066 B   0  0  1  0  0  0  0  0  0  0  0  0
   12.5074   -2.1323    2.7399 F   0  0  0  0  0  0  0  0  0  0  0  0
   13.1463   -4.0627    1.7039 F   0  0  0  0  0  0  0  0  0  0  0  0
   11.9010   -2.4337    0.4167 N   0  0  0  0  0  0  0  0  0  0  0  0
   10.6491   -2.1423   -0.1206 C   0  0  0  0  0  0  0  0  0  0  0  0
   10.8116   -1.4527   -1.3655 C   0  0  0  0  0  0  0  0  0  0  0  0
   12.1820   -1.3403   -1.5543 C   0  0  0  0  0  0  0  0  0  0  0  0
   13.3575   -0.7206   -2.6895 S   0  0  0  0  0  0  0  0  0  0  0  0
   14.6571   -1.2973   -1.6561 C   0  0  0  0  0  0  0  0  0  0  0  0
   14.2514   -1.9295   -0.5102 C   0  0  0  0  0  0  0  0  0  0  0  0
   12.8274   -1.9576   -0.4400 C   0  0  0  0  0  0  0  0  0  0  0  0
    7.2393   -3.2660   -0.4661 C   0  0  0  0  0  0  0  0  0  0  0  0
    6.0016   -2.9392   -1.0183 C   0  0  0  0  0  0  0  0  0  0  0  0
    1.7912   -2.9042   -2.8510 H   0  0  0  0  0  0  0  0  0  0  0  0
    2.3862   -1.3728   -3.5955 H   0  0  0  0  0  0  0  0  0  0  0  0
    1.6709   -1.3400   -1.9606 H   0  0  0  0  0  0  0  0  0  0  0  0
    6.2373    0.4563   -0.9478 H   0  0  0  0  0  0  0  0  0  0  0  0
    8.4622   -0.1194    0.0377 H   0  0  0  0  0  0  0  0  0  0  0  0
    7.4465   -3.9092    2.2398 H   0  0  0  0  0  0  0  0  0  0  0  0
   10.8705   -6.5111    5.9517 H   0  0  0  0  0  0  0  0  0  0  0  0
   12.4395   -5.2052    4.2746 H   0  0  0  0  0  0  0  0  0  0  0  0
   10.0043   -1.1284   -2.0164 H   0  0  0  0  0  0  0  0  0  0  0  0
   15.6854   -1.1289   -1.9769 H   0  0  0  0  0  0  0  0  0  0  0  0
   14.9219   -2.3571    0.2333 H   0  0  0  0  0  0  0  0  0  0  0  0
    7.5223   -4.3141   -0.3508 H   0  0  0  0  0  0  0  0  0  0  0  0
    5.3103   -3.7255   -1.3231 H   0  0  0  0  0  0  0  0  0  0  0  0
  1  2  1  0
  1 31  1  0
  1 32  1  0
  1 33  1  0
  2  3  1  0
  3  4  2  0
  3  5  1  0
  5  6  2  0
  5 30  1  0
  6  7  1  0
  6 34  1  0
  7  8  2  0
  7 35  1  0
  8  9  1  0
  8 29  1  0
  9 10  2  0
  9 22  1  0
 10 11  1  0
 10 17  1  0
 11 12  2  0
 11 36  1  0
 12 13  1  0
 12 16  1  0
 13 14  2  0
 14 15  1  0
 14 37  1  0
 15 16  2  0
 15 38  1  0
 16 17  1  0
 17 18  1  0
 18 19  1  1
 18 20  1  0
 18 21  1  0
 21 22  1  0
 21 28  1  0
 22 23  2  0
 23 24  1  0
 23 39  1  0
 24 25  1  0
 24 28  2  0
 25 26  1  0
 26 27  2  0
 26 40  1  0
 27 28  1  0
 27 41  1  0
 29 30  2  0
 29 42  1  0
 30 43  1  0
M  CHG  2  13   1  18  -1
M  END

