
     RDKit          3D

136144  0  0  0  0  0  0  0  0999 V2000
    2.0925    0.7354   -1.8896 C   0  0  0  0  0  0  0  0  0  0  0  0
    2.4681    0.8847   -0.5380 O   0  0  0  0  0  0  0  0  0  0  0  0
    3.0822   -0.1394    0.0995 C   0  0  0  0  0  0  0  0  0  0  0  0
    3.4135    0.0787    1.4499 C   0  0  0  0  0  0  0  0  0  0  0  0
    4.0545   -0.9087    2.1817 C   0  0  0  0  0  0  0  0  0  0  0  0
    4.3734   -2.1610    1.6046 C   0  0  0  0  0  0  0  0  0  0  0  0
    5.0541   -3.1788    2.4159 C   0  0  0  0  0  0  0  0  0  0  0  0
    4.7284   -4.4973    2.4344 N   0  0  0  0  0  0  0  0  0  0  0  0
    5.5359   -5.1186    3.3834 C   0  0  0  0  0  0  0  0  0  0  0  0
    5.4693   -6.3931    3.7043 N   0  0  0  0  0  0  0  0  0  0  0  0
    4.5484   -7.1685    3.1730 C   0  0  0  0  0  0  0  0  0  0  0  0
    4.3818   -8.5616    3.4409 C   0  0  0  0  0  0  0  0  0  0  0  0
    5.2372   -9.2501    4.4388 C   0  0  0  0  0  0  0  0  0  0  0  0
    4.9216   -9.0978    5.8007 C   0  0  0  0  0  0  0  0  0  0  0  0
    5.7709   -9.5756    6.8018 C   0  0  0  0  0  0  0  0  0  0  0  0
    5.5543   -9.4330    8.1330 O   0  0  0  0  0  0  0  0  0  0  0  0
    4.4319   -8.6902    8.5698 C   0  0  0  0  0  0  0  0  0  0  0  0
    6.9617  -10.2433    6.4403 C   0  0  0  0  0  0  0  0  0  0  0  0
    7.8514  -10.6548    7.3928 O   0  0  0  0  0  0  0  0  0  0  0  0
    7.5010  -11.8305    8.1135 C   0  0  0  0  0  0  0  0  0  0  0  0
    7.2786  -10.4323    5.0857 C   0  0  0  0  0  0  0  0  0  0  0  0
    8.3932  -11.1304    4.7386 O   0  0  0  0  0  0  0  0  0  0  0  0
    9.6419  -10.4711    4.9140 C   0  0  0  0  0  0  0  0  0  0  0  0
    6.4225   -9.9135    4.0938 C   0  0  0  0  0  0  0  0  0  0  0  0
    6.9587  -10.0892    2.2706 Br  0  0  0  0  0  0  0  0  0  0  0  0
    3.2857   -8.9840    2.6915 C   0  0  0  0  0  0  0  0  0  0  0  0
    2.6338  -10.3123    2.7448 C   0  0  0  0  0  0  0  0  0  0  0  0
    3.3704  -11.5011    2.6288 C   0  0  0  0  0  0  0  0  0  0  0  0
    2.7484  -12.7505    2.7219 C   0  0  0  0  0  0  0  0  0  0  0  0
    1.3676  -12.8738    2.9377 C   0  0  0  0  0  0  0  0  0  0  0  0
    0.6495  -14.2326    3.0460 C   0  0  1  0  0  0  0  0  0  0  0  0
    1.6180  -15.4178    2.8824 C   0  0  0  0  0  0  0  0  0  0  0  0
   -0.0247  -14.3480    4.4331 C   0  0  0  0  0  0  0  0  0  0  0  0
   -0.4286  -14.3341    1.9420 C   0  0  0  0  0  0  0  0  0  0  0  0
    0.6358  -11.6762    3.0572 C   0  0  0  0  0  0  0  0  0  0  0  0
    1.2469  -10.4287    2.9633 C   0  0  0  0  0  0  0  0  0  0  0  0
    2.8241   -7.8304    1.9443 C   0  0  0  0  0  0  0  0  0  0  0  0
    1.7554   -7.8429    0.9366 C   0  0  0  0  0  0  0  0  0  0  0  0
    0.7908   -6.8252    0.8231 C   0  0  0  0  0  0  0  0  0  0  0  0
   -0.2191   -6.8853   -0.1384 C   0  0  0  0  0  0  0  0  0  0  0  0
   -0.2795   -7.9679   -1.0297 C   0  0  0  0  0  0  0  0  0  0  0  0
   -1.2120   -8.1142   -1.9996 O   0  0  0  0  0  0  0  0  0  0  0  0
   -2.2038   -7.1245   -2.1643 C   0  0  0  0  0  0  0  0  0  0  0  0
    0.6838   -8.9897   -0.9347 C   0  0  0  0  0  0  0  0  0  0  0  0
    1.6722   -8.9313    0.0349 C   0  0  0  0  0  0  0  0  0  0  0  0
    3.5758   -6.7472    2.2695 N   0  0  0  0  0  0  0  0  0  0  0  0
    3.5610   -5.2714    1.6977 B   0  0  1  0  0  0  0  0  0  0  0  0
    2.3685   -4.6295    2.0001 F   0  0  0  0  0  0  0  0  0  0  0  0
    3.7847   -5.3347    0.3298 F   0  0  0  0  0  0  0  0  0  0  0  0
    6.4117   -4.1541    3.9685 C   0  0  0  0  0  0  0  0  0  0  0  0
    7.4452   -4.5185    4.9646 C   0  0  0  0  0  0  0  0  0  0  0  0
    8.7919   -4.5552    4.5627 C   0  0  0  0  0  0  0  0  0  0  0  0
    9.7899   -4.9975    5.4325 C   0  0  0  0  0  0  0  0  0  0  0  0
   11.1134   -5.0164    5.1234 O   0  0  0  0  0  0  0  0  0  0  0  0
   11.5355   -4.5146    3.8736 C   0  0  0  0  0  0  0  0  0  0  0  0
    9.4536   -5.4465    6.7328 C   0  0  0  0  0  0  0  0  0  0  0  0
   10.4148   -5.8300    7.6229 O   0  0  0  0  0  0  0  0  0  0  0  0
   11.1995   -6.9745    7.3065 C   0  0  0  0  0  0  0  0  0  0  0  0
    8.1092   -5.4045    7.1572 C   0  0  0  0  0  0  0  0  0  0  0  0
    7.7087   -5.7402    8.4027 O   0  0  0  0  0  0  0  0  0  0  0  0
    8.2019   -6.8988    9.0642 C   0  0  0  0  0  0  0  0  0  0  0  0
    7.1242   -4.9160    6.2680 C   0  0  0  0  0  0  0  0  0  0  0  0
    5.3337   -4.7678    6.9146 Br  0  0  0  0  0  0  0  0  0  0  0  0
    6.1263   -2.9344    3.3567 C   0  0  0  0  0  0  0  0  0  0  0  0
    6.8267   -1.6540    3.6009 C   0  0  0  0  0  0  0  0  0  0  0  0
    7.3360   -0.8771    2.5479 C   0  0  0  0  0  0  0  0  0  0  0  0
    8.0240    0.3142    2.7939 C   0  0  0  0  0  0  0  0  0  0  0  0
    8.2362    0.7868    4.0991 C   0  0  0  0  0  0  0  0  0  0  0  0
    8.9862    2.0970    4.4079 C   0  0  1  0  0  0  0  0  0  0  0  0
    9.4670    2.8082    3.1302 C   0  0  0  0  0  0  0  0  0  0  0  0
    8.0458    3.0591    5.1708 C   0  0  0  0  0  0  0  0  0  0  0  0
   10.2230    1.7877    5.2831 C   0  0  0  0  0  0  0  0  0  0  0  0
    7.7250    0.0008    5.1492 C   0  0  0  0  0  0  0  0  0  0  0  0
    7.0393   -1.1892    4.9122 C   0  0  0  0  0  0  0  0  0  0  0  0
    4.0266   -2.3677    0.2571 C   0  0  0  0  0  0  0  0  0  0  0  0
    3.3976   -1.3724   -0.4924 C   0  0  0  0  0  0  0  0  0  0  0  0
    1.6132    1.6779   -2.1865 H   0  0  0  0  0  0  0  0  0  0  0  0
    1.3731   -0.0915   -2.0268 H   0  0  0  0  0  0  0  0  0  0  0  0
    2.9665    0.5575   -2.5417 H   0  0  0  0  0  0  0  0  0  0  0  0
    3.1511    1.0374    1.9013 H   0  0  0  0  0  0  0  0  0  0  0  0
    4.2931   -0.7211    3.2292 H   0  0  0  0  0  0  0  0  0  0  0  0
    4.0159   -8.5518    6.0582 H   0  0  0  0  0  0  0  0  0  0  0  0
    4.4694   -8.6904    9.6673 H   0  0  0  0  0  0  0  0  0  0  0  0
    3.4837   -9.1542    8.2449 H   0  0  0  0  0  0  0  0  0  0  0  0
    4.4725   -7.6492    8.2065 H   0  0  0  0  0  0  0  0  0  0  0  0
    8.3229  -12.0287    8.8158 H   0  0  0  0  0  0  0  0  0  0  0  0
    7.3929  -12.6930    7.4331 H   0  0  0  0  0  0  0  0  0  0  0  0
    6.5670  -11.6887    8.6809 H   0  0  0  0  0  0  0  0  0  0  0  0
   10.4161  -11.1666    4.5609 H   0  0  0  0  0  0  0  0  0  0  0  0
    9.8210  -10.2325    5.9746 H   0  0  0  0  0  0  0  0  0  0  0  0
    9.6896   -9.5468    4.3122 H   0  0  0  0  0  0  0  0  0  0  0  0
    4.4447  -11.4530    2.4442 H   0  0  0  0  0  0  0  0  0  0  0  0
    3.3717  -13.6389    2.6178 H   0  0  0  0  0  0  0  0  0  0  0  0
    2.3987  -15.4211    3.6590 H   0  0  0  0  0  0  0  0  0  0  0  0
    2.1142  -15.4104    1.8993 H   0  0  0  0  0  0  0  0  0  0  0  0
    1.0644  -16.3664    2.9661 H   0  0  0  0  0  0  0  0  0  0  0  0
    0.7216  -14.2841    5.2409 H   0  0  0  0  0  0  0  0  0  0  0  0
   -0.5484  -15.3137    4.5282 H   0  0  0  0  0  0  0  0  0  0  0  0
   -0.7649  -13.5502    4.5977 H   0  0  0  0  0  0  0  0  0  0  0  0
    0.0242  -14.2602    0.9404 H   0  0  0  0  0  0  0  0  0  0  0  0
   -1.1815  -13.5359    2.0277 H   0  0  0  0  0  0  0  0  0  0  0  0
   -0.9571  -15.2997    2.0067 H   0  0  0  0  0  0  0  0  0  0  0  0
   -0.4422  -11.7116    3.2321 H   0  0  0  0  0  0  0  0  0  0  0  0
    0.6412   -9.5264    3.0709 H   0  0  0  0  0  0  0  0  0  0  0  0
    0.8268   -5.9713    1.4963 H   0  0  0  0  0  0  0  0  0  0  0  0
   -0.9506   -6.0784   -0.1828 H   0  0  0  0  0  0  0  0  0  0  0  0
   -2.8348   -7.4511   -3.0017 H   0  0  0  0  0  0  0  0  0  0  0  0
   -1.7652   -6.1404   -2.4082 H   0  0  0  0  0  0  0  0  0  0  0  0
   -2.8328   -7.0191   -1.2621 H   0  0  0  0  0  0  0  0  0  0  0  0
    0.6323   -9.8204   -1.6411 H   0  0  0  0  0  0  0  0  0  0  0  0
    2.4131   -9.7301    0.0850 H   0  0  0  0  0  0  0  0  0  0  0  0
    9.0355   -4.2390    3.5502 H   0  0  0  0  0  0  0  0  0  0  0  0
   12.6311   -4.5900    3.8622 H   0  0  0  0  0  0  0  0  0  0  0  0
   11.2457   -3.4576    3.7401 H   0  0  0  0  0  0  0  0  0  0  0  0
   11.1273   -5.1046    3.0335 H   0  0  0  0  0  0  0  0  0  0  0  0
   11.8270   -7.1746    8.1865 H   0  0  0  0  0  0  0  0  0  0  0  0
   11.8428   -6.7961    6.4328 H   0  0  0  0  0  0  0  0  0  0  0  0
   10.5596   -7.8548    7.1153 H   0  0  0  0  0  0  0  0  0  0  0  0
    7.4832   -7.1117    9.8683 H   0  0  0  0  0  0  0  0  0  0  0  0
    9.1967   -6.7276    9.4982 H   0  0  0  0  0  0  0  0  0  0  0  0
    8.2327   -7.7723    8.3910 H   0  0  0  0  0  0  0  0  0  0  0  0
    7.1988   -1.2107    1.5170 H   0  0  0  0  0  0  0  0  0  0  0  0
    8.3991    0.8748    1.9373 H   0  0  0  0  0  0  0  0  0  0  0  0
    8.6280    3.0829    2.4717 H   0  0  0  0  0  0  0  0  0  0  0  0
   10.1665    2.1851    2.5510 H   0  0  0  0  0  0  0  0  0  0  0  0
    9.9955    3.7371    3.3968 H   0  0  0  0  0  0  0  0  0  0  0  0
    7.1564    3.3022    4.5678 H   0  0  0  0  0  0  0  0  0  0  0  0
    8.5668    4.0021    5.4052 H   0  0  0  0  0  0  0  0  0  0  0  0
    7.6976    2.6260    6.1208 H   0  0  0  0  0  0  0  0  0  0  0  0
   10.9153    1.1074    4.7618 H   0  0  0  0  0  0  0  0  0  0  0  0
    9.9443    1.3141    6.2366 H   0  0  0  0  0  0  0  0  0  0  0  0
   10.7703    2.7155    5.5186 H   0  0  0  0  0  0  0  0  0  0  0  0
    7.8592    0.3213    6.1851 H   0  0  0  0  0  0  0  0  0  0  0  0
    6.6492   -1.7638    5.7551 H   0  0  0  0  0  0  0  0  0  0  0  0
    4.2502   -3.3220   -0.2166 H   0  0  0  0  0  0  0  0  0  0  0  0
    3.1559   -1.5741   -1.5359 H   0  0  0  0  0  0  0  0  0  0  0  0
  1  2  1  0
  1 77  1  0
  1 78  1  0
  1 79  1  0
  2  3  1  0
  3  4  2  0
  3 76  1  0
  4  5  1  0
  4 80  1  0
  5  6  2  0
  5 81  1  0
  6  7  1  0
  6 75  1  0
  7  8  1  0
  7 64  2  0
  8  9  1  0
  8 47  1  0
  9 10  2  0
  9 50  1  0
 10 11  1  0
 11 12  2  0
 11 46  1  0
 12 13  1  0
 12 26  1  0
 13 14  2  0
 13 24  1  0
 14 15  1  0
 14 82  1  0
 15 16  1  0
 15 18  2  0
 16 17  1  0
 17 83  1  0
 17 84  1  0
 17 85  1  0
 18 19  1  0
 18 21  1  0
 19 20  1  0
 20 86  1  0
 20 87  1  0
 20 88  1  0
 21 22  1  0
 21 24  2  0
 22 23  1  0
 23 89  1  0
 23 90  1  0
 23 91  1  0
 24 25  1  0
 26 27  1  0
 26 37  2  0
 27 28  2  0
 27 36  1  0
 28 29  1  0
 28 92  1  0
 29 30  2  0
 29 93  1  0
 30 31  1  0
 30 35  1  0
 31 32  1  6
 31 33  1  0
 31 34  1  0
 32 94  1  0
 32 95  1  0
 32 96  1  0
 33 97  1  0
 33 98  1  0
 33 99  1  0
 34100  1  0
 34101  1  0
 34102  1  0
 35 36  2  0
 35103  1  0
 36104  1  0
 37 38  1  0
 37 46  1  0
 38 39  2  0
 38 45  1  0
 39 40  1  0
 39105  1  0
 40 41  2  0
 40106  1  0
 41 42  1  0
 41 44  1  0
 42 43  1  0
 43107  1  0
 43108  1  0
 43109  1  0
 44 45  2  0
 44110  1  0
 45111  1  0
 46 47  1  0
 47 48  1  6
 47 49  1  0
 50 51  2  0
 50 64  1  0
 51 52  1  0
 51 62  1  0
 52 53  2  0
 52112  1  0
 53 54  1  0
 53 56  1  0
 54 55  1  0
 55113  1  0
 55114  1  0
 55115  1  0
 56 57  2  0
 56 59  1  0
 57 58  1  0
 58116  1  0
 58117  1  0
 58118  1  0
 59 60  1  0
 59 62  2  0
 60 61  1  0
 61119  1  0
 61120  1  0
 61121  1  0
 62 63  1  0
 64 65  1  0
 65 66  2  0
 65 74  1  0
 66 67  1  0
 66122  1  0
 67 68  2  0
 67123  1  0
 68 69  1  0
 68 73  1  0
 69 70  1  6
 69 71  1  0
 69 72  1  0
 70124  1  0
 70125  1  0
 70126  1  0
 71127  1  0
 71128  1  0
 71129  1  0
 72130  1  0
 72131  1  0
 72132  1  0
 73 74  2  0
 73133  1  0
 74134  1  0
 75 76  2  0
 75135  1  0
 76136  1  0
M  CHG  2  47  -1  57   1
M  END

