
     RDKit          3D

 52 53  0  0  0  0  0  0  0  0999 V2000
    1.9721   -1.0747    1.6544 C   0  0  0  0  0  0  0  0  0  0  0  0
    2.7671   -0.1536    0.7253 C   0  0  1  0  0  0  0  0  0  0  0  0
    2.0380    0.2770   -0.5483 C   0  0  0  0  0  0  0  0  0  0  0  0
    0.6573    0.1192   -0.7332 C   0  0  0  0  0  0  0  0  0  0  0  0
    0.0286    0.5413   -1.9107 C   0  0  0  0  0  0  0  0  0  0  0  0
    0.7976    1.1250   -2.9112 C   0  0  0  0  0  0  0  0  0  0  0  0
    0.2043    1.5313   -4.0430 F   0  0  0  0  0  0  0  0  0  0  0  0
    2.1748    1.2924   -2.7655 C   0  0  0  0  0  0  0  0  0  0  0  0
    2.7846    0.8670   -1.5864 C   0  0  0  0  0  0  0  0  0  0  0  0
    3.2845    1.0230    1.4566 N   0  0  0  0  0  0  0  0  0  0  0  0
    2.3416    1.9681    2.0301 C   0  0  0  0  0  0  0  0  0  0  0  0
    4.6411    1.2200    1.5178 C   0  0  0  0  0  0  0  0  0  0  0  0
    5.4441    0.4765    0.9287 O   0  0  0  0  0  0  0  0  0  0  0  0
    5.0781    2.2971    2.2402 N   0  0  0  0  0  0  0  0  0  0  0  0
    6.5072    2.5782    2.4100 C   0  0  1  0  0  0  0  0  0  0  0  0
    7.1979    2.9294    1.0624 C   0  0  0  0  0  0  0  0  0  0  0  0
    8.1567    1.8508    0.4923 C   0  0  0  0  0  0  0  0  0  0  0  0
    7.9453    1.6093   -1.0019 C   0  0  0  0  0  0  0  0  0  0  0  0
    8.7309    1.9447   -1.8510 O   0  0  0  0  0  0  0  0  0  0  0  0
    6.7873    1.0062   -1.3146 O   0  0  0  0  0  0  0  0  0  0  0  0
    6.6596    3.7270    3.4310 C   0  0  0  0  0  0  0  0  0  0  0  0
    5.9972    3.4823    4.7707 C   0  0  0  0  0  0  0  0  0  0  0  0
    6.5084    2.5221    5.6617 C   0  0  0  0  0  0  0  0  0  0  0  0
    5.8866    2.2770    6.8874 C   0  0  0  0  0  0  0  0  0  0  0  0
    4.7371    2.9888    7.2493 C   0  0  0  0  0  0  0  0  0  0  0  0
    4.2193    3.9490    6.3777 C   0  0  0  0  0  0  0  0  0  0  0  0
    4.8464    4.1924    5.1499 C   0  0  0  0  0  0  0  0  0  0  0  0
    1.6463   -1.9777    1.1163 H   0  0  0  0  0  0  0  0  0  0  0  0
    1.0744   -0.5910    2.0710 H   0  0  0  0  0  0  0  0  0  0  0  0
    2.6055   -1.3898    2.4972 H   0  0  0  0  0  0  0  0  0  0  0  0
    3.6715   -0.6911    0.4138 H   0  0  0  0  0  0  0  0  0  0  0  0
    0.0461   -0.3467    0.0420 H   0  0  0  0  0  0  0  0  0  0  0  0
   -1.0459    0.4195   -2.0609 H   0  0  0  0  0  0  0  0  0  0  0  0
    2.7513    1.7432   -3.5757 H   0  0  0  0  0  0  0  0  0  0  0  0
    3.8654    0.9899   -1.4770 H   0  0  0  0  0  0  0  0  0  0  0  0
    1.3495    1.7994    1.5906 H   0  0  0  0  0  0  0  0  0  0  0  0
    2.6281    3.0046    1.7907 H   0  0  0  0  0  0  0  0  0  0  0  0
    2.2487    1.8724    3.1279 H   0  0  0  0  0  0  0  0  0  0  0  0
    4.4589    2.6940    2.9374 H   0  0  0  0  0  0  0  0  0  0  0  0
    6.9947    1.6787    2.8279 H   0  0  0  0  0  0  0  0  0  0  0  0
    7.7621    3.8676    1.1835 H   0  0  0  0  0  0  0  0  0  0  0  0
    6.4050    3.1612    0.3353 H   0  0  0  0  0  0  0  0  0  0  0  0
    7.9971    0.8972    1.0195 H   0  0  0  0  0  0  0  0  0  0  0  0
    9.2065    2.1444    0.6258 H   0  0  0  0  0  0  0  0  0  0  0  0
    6.2956    0.7449   -0.4976 H   0  0  0  0  0  0  0  0  0  0  0  0
    6.2610    4.6530    2.9833 H   0  0  0  0  0  0  0  0  0  0  0  0
    7.7402    3.8888    3.5738 H   0  0  0  0  0  0  0  0  0  0  0  0
    7.4099    1.9632    5.3938 H   0  0  0  0  0  0  0  0  0  0  0  0
    6.3033    1.5293    7.5672 H   0  0  0  0  0  0  0  0  0  0  0  0
    4.2524    2.7986    8.2102 H   0  0  0  0  0  0  0  0  0  0  0  0
    3.3282    4.5184    6.6547 H   0  0  0  0  0  0  0  0  0  0  0  0
    4.4442    4.9607    4.4819 H   0  0  0  0  0  0  0  0  0  0  0  0
  1  2  1  0
  1 28  1  0
  1 29  1  0
  1 30  1  0
  2  3  1  0
  2 10  1  0
  2 31  1  6
  3  4  2  0
  3  9  1  0
  4  5  1  0
  4 32  1  0
  5  6  2  0
  5 33  1  0
  6  7  1  0
  6  8  1  0
  8  9  2  0
  8 34  1  0
  9 35  1  0
 10 11  1  0
 10 12  1  0
 11 36  1  0
 11 37  1  0
 11 38  1  0
 12 13  2  0
 12 14  1  0
 14 15  1  0
 14 39  1  0
 15 16  1  0
 15 21  1  0
 15 40  1  1
 16 17  1  0
 16 41  1  0
 16 42  1  0
 17 18  1  0
 17 43  1  0
 17 44  1  0
 18 19  2  0
 18 20  1  0
 20 45  1  0
 21 22  1  0
 21 46  1  0
 21 47  1  0
 22 23  2  0
 22 27  1  0
 23 24  1  0
 23 48  1  0
 24 25  2  0
 24 49  1  0
 25 26  1  0
 25 50  1  0
 26 27  2  0
 26 51  1  0
 27 52  1  0
M  END

