
     RDKit          3D

 35 35  0  0  0  0  0  0  0  0999 V2000
    0.6594    0.4339   -0.1911 C   0  0  0  0  0  0  0  0  0  0  0  0
    2.1777    0.2512   -0.2045 C   0  0  0  0  0  0  0  0  0  0  0  0
    2.9101    1.1377    0.8075 C   0  0  0  0  0  0  0  0  0  0  0  0
    4.4317    0.9590    0.8001 C   0  0  0  0  0  0  0  0  0  0  0  0
    5.1491    1.8537    1.8144 C   0  0  0  0  0  0  0  0  0  0  0  0
    6.6692    1.6446    1.9208 C   0  0  1  0  0  0  0  0  0  0  0  0
    7.4154    1.9495    0.6116 C   0  0  0  0  0  0  0  0  0  0  0  0
    7.1562    2.4461    3.0359 N   0  0  0  0  0  0  0  0  0  0  0  0
    8.3702    2.2852    3.6652 C   0  0  0  0  0  0  0  0  0  0  0  0
    9.1758    1.1335    3.5131 C   0  0  0  0  0  0  0  0  0  0  0  0
   10.3799    0.9770    4.2015 C   0  0  0  0  0  0  0  0  0  0  0  0
   10.8150    1.9795    5.0609 C   0  0  0  0  0  0  0  0  0  0  0  0
   11.9757    1.8376    5.7257 F   0  0  0  0  0  0  0  0  0  0  0  0
   10.0647    3.1381    5.2421 C   0  0  0  0  0  0  0  0  0  0  0  0
    8.8647    3.2803    4.5492 C   0  0  0  0  0  0  0  0  0  0  0  0
    7.9274    4.7502    4.7830 Cl  0  0  0  0  0  0  0  0  0  0  0  0
    0.1664   -0.2181   -0.9297 H   0  0  0  0  0  0  0  0  0  0  0  0
    0.3784    1.4743   -0.4260 H   0  0  0  0  0  0  0  0  0  0  0  0
    0.2354    0.1949    0.7987 H   0  0  0  0  0  0  0  0  0  0  0  0
    2.5658    0.4609   -1.2181 H   0  0  0  0  0  0  0  0  0  0  0  0
    2.4239   -0.8075   -0.0037 H   0  0  0  0  0  0  0  0  0  0  0  0
    2.5227    0.9299    1.8224 H   0  0  0  0  0  0  0  0  0  0  0  0
    2.6664    2.1978    0.6066 H   0  0  0  0  0  0  0  0  0  0  0  0
    4.8103    1.1588   -0.2176 H   0  0  0  0  0  0  0  0  0  0  0  0
    4.6745   -0.0993    1.0111 H   0  0  0  0  0  0  0  0  0  0  0  0
    4.7191    1.6880    2.8172 H   0  0  0  0  0  0  0  0  0  0  0  0
    4.9539    2.9155    1.5679 H   0  0  0  0  0  0  0  0  0  0  0  0
    6.8337    0.5827    2.1774 H   0  0  0  0  0  0  0  0  0  0  0  0
    7.2131    2.9833    0.2844 H   0  0  0  0  0  0  0  0  0  0  0  0
    7.1116    1.2682   -0.1983 H   0  0  0  0  0  0  0  0  0  0  0  0
    8.5028    1.8457    0.7456 H   0  0  0  0  0  0  0  0  0  0  0  0
    6.7519    3.3720    3.1260 H   0  0  0  0  0  0  0  0  0  0  0  0
    8.8502    0.3374    2.8433 H   0  0  0  0  0  0  0  0  0  0  0  0
   10.9866    0.0788    4.0721 H   0  0  0  0  0  0  0  0  0  0  0  0
   10.4151    3.9211    5.9152 H   0  0  0  0  0  0  0  0  0  0  0  0
  1  2  1  0
  1 17  1  0
  1 18  1  0
  1 19  1  0
  2  3  1  0
  2 20  1  0
  2 21  1  0
  3  4  1  0
  3 22  1  0
  3 23  1  0
  4  5  1  0
  4 24  1  0
  4 25  1  0
  5  6  1  0
  5 26  1  0
  5 27  1  0
  6  7  1  0
  6  8  1  0
  6 28  1  1
  7 29  1  0
  7 30  1  0
  7 31  1  0
  8  9  1  0
  8 32  1  0
  9 10  2  0
  9 15  1  0
 10 11  1  0
 10 33  1  0
 11 12  2  0
 11 34  1  0
 12 13  1  0
 12 14  1  0
 14 15  2  0
 14 35  1  0
 15 16  1  0
M  END

