
     RDKit          3D

 61 64  0  0  0  0  0  0  0  0999 V2000
    2.4841   -0.7707    1.8014 C   0  0  0  0  0  0  0  0  0  0  0  0
    2.1509   -2.1287    1.6035 O   0  0  0  0  0  0  0  0  0  0  0  0
    2.5715   -2.7667    0.4899 C   0  0  0  0  0  0  0  0  0  0  0  0
    3.3420   -2.1704   -0.5268 C   0  0  0  0  0  0  0  0  0  0  0  0
    3.7246   -2.9190   -1.6367 C   0  0  0  0  0  0  0  0  0  0  0  0
    3.3603   -4.2736   -1.7785 C   0  0  0  0  0  0  0  0  0  0  0  0
    3.7361   -5.0934   -2.9205 C   0  0  0  0  0  0  0  0  0  0  0  0
    4.4552   -4.7185   -4.0097 C   0  0  0  0  0  0  0  0  0  0  0  0
    4.7664   -5.6502   -5.0822 C   0  0  0  0  0  0  0  0  0  0  0  0
    4.3633   -6.8746   -4.9318 O   0  0  0  0  0  0  0  0  0  0  0  0
    4.3870   -7.8875   -6.0437 B   0  0  2  0  0  0  0  0  0  0  0  0
    3.1874   -7.8351   -6.7097 F   0  0  0  0  0  0  0  0  0  0  0  0
    4.6808   -9.1108   -5.5207 F   0  0  0  0  0  0  0  0  0  0  0  0
    5.4819   -7.4894   -6.9965 O   0  0  0  0  0  0  0  0  0  0  0  0
    5.8811   -6.2633   -7.1416 C   0  0  0  0  0  0  0  0  0  0  0  0
    6.7583   -5.9852   -8.2678 C   0  0  0  0  0  0  0  0  0  0  0  0
    7.1136   -6.9501   -9.1548 C   0  0  0  0  0  0  0  0  0  0  0  0
    7.9825   -6.8148  -10.3142 C   0  0  0  0  0  0  0  0  0  0  0  0
    8.6124   -5.6078  -10.6808 C   0  0  0  0  0  0  0  0  0  0  0  0
    9.4361   -5.5225  -11.8001 C   0  0  0  0  0  0  0  0  0  0  0  0
    9.6568   -6.6621  -12.5973 C   0  0  0  0  0  0  0  0  0  0  0  0
   10.4363   -6.6837  -13.7000 O   0  0  0  0  0  0  0  0  0  0  0  0
   11.0928   -5.5052  -14.1176 C   0  0  0  0  0  0  0  0  0  0  0  0
    9.0381   -7.8771  -12.2482 C   0  0  0  0  0  0  0  0  0  0  0  0
    8.2205   -7.9458  -11.1305 C   0  0  0  0  0  0  0  0  0  0  0  0
    5.5037   -5.2514   -6.2243 C   0  0  0  0  0  0  0  0  0  0  0  0
    5.9301   -3.8290   -6.4164 C   0  0  0  0  0  0  0  0  0  0  0  0
    7.1502   -3.3616   -5.9076 C   0  0  0  0  0  0  0  0  0  0  0  0
    7.5226   -2.0247   -6.1023 C   0  0  0  0  0  0  0  0  0  0  0  0
    6.6940   -1.1491   -6.7971 C   0  0  0  0  0  0  0  0  0  0  0  0
    5.4674   -1.6061   -7.3121 C   0  0  0  0  0  0  0  0  0  0  0  0
    4.7199   -0.6896   -7.9757 O   0  0  0  0  0  0  0  0  0  0  0  0
    3.4761   -1.0727   -8.5214 C   0  0  0  0  0  0  0  0  0  0  0  0
    5.0906   -2.9440   -7.1198 C   0  0  0  0  0  0  0  0  0  0  0  0
    2.5868   -4.8502   -0.7435 C   0  0  0  0  0  0  0  0  0  0  0  0
    2.1979   -4.1182    0.3681 C   0  0  0  0  0  0  0  0  0  0  0  0
    2.0378   -0.4776    2.7608 H   0  0  0  0  0  0  0  0  0  0  0  0
    2.0725   -0.1276    1.0033 H   0  0  0  0  0  0  0  0  0  0  0  0
    3.5771   -0.6208    1.8539 H   0  0  0  0  0  0  0  0  0  0  0  0
    3.6466   -1.1261   -0.4586 H   0  0  0  0  0  0  0  0  0  0  0  0
    4.3236   -2.4333   -2.4100 H   0  0  0  0  0  0  0  0  0  0  0  0
    3.3960   -6.1335   -2.8951 H   0  0  0  0  0  0  0  0  0  0  0  0
    4.8308   -3.7018   -4.1245 H   0  0  0  0  0  0  0  0  0  0  0  0
    7.1180   -4.9609   -8.3626 H   0  0  0  0  0  0  0  0  0  0  0  0
    6.6993   -7.9483   -8.9817 H   0  0  0  0  0  0  0  0  0  0  0  0
    8.4590   -4.7099  -10.0784 H   0  0  0  0  0  0  0  0  0  0  0  0
    9.9029   -4.5687  -12.0458 H   0  0  0  0  0  0  0  0  0  0  0  0
   11.6571   -5.7674  -15.0222 H   0  0  0  0  0  0  0  0  0  0  0  0
   11.7964   -5.1349  -13.3510 H   0  0  0  0  0  0  0  0  0  0  0  0
   10.3754   -4.7020  -14.3629 H   0  0  0  0  0  0  0  0  0  0  0  0
    9.2202   -8.7510  -12.8766 H   0  0  0  0  0  0  0  0  0  0  0  0
    7.7461   -8.8958  -10.8706 H   0  0  0  0  0  0  0  0  0  0  0  0
    7.8048   -4.0438   -5.3609 H   0  0  0  0  0  0  0  0  0  0  0  0
    8.4744   -1.6628   -5.7045 H   0  0  0  0  0  0  0  0  0  0  0  0
    6.9680   -0.1045   -6.9580 H   0  0  0  0  0  0  0  0  0  0  0  0
    3.0588   -0.1790   -9.0045 H   0  0  0  0  0  0  0  0  0  0  0  0
    2.7738   -1.4193   -7.7422 H   0  0  0  0  0  0  0  0  0  0  0  0
    3.5865   -1.8700   -9.2781 H   0  0  0  0  0  0  0  0  0  0  0  0
    4.1455   -3.3227   -7.5091 H   0  0  0  0  0  0  0  0  0  0  0  0
    2.2899   -5.8991   -0.8256 H   0  0  0  0  0  0  0  0  0  0  0  0
    1.6010   -4.5651    1.1653 H   0  0  0  0  0  0  0  0  0  0  0  0
  1  2  1  0
  1 37  1  0
  1 38  1  0
  1 39  1  0
  2  3  1  0
  3  4  2  0
  3 36  1  0
  4  5  1  0
  4 40  1  0
  5  6  2  0
  5 41  1  0
  6  7  1  0
  6 35  1  0
  7  8  2  0
  7 42  1  0
  8  9  1  0
  8 43  1  0
  9 10  1  0
  9 26  2  0
 10 11  1  0
 11 12  1  6
 11 13  1  0
 11 14  1  0
 14 15  1  0
 15 16  2  0
 15 26  1  0
 16 17  1  0
 16 44  1  0
 17 18  2  0
 17 45  1  0
 18 19  1  0
 18 25  1  0
 19 20  2  0
 19 46  1  0
 20 21  1  0
 20 47  1  0
 21 22  2  0
 21 24  1  0
 22 23  1  0
 23 48  1  0
 23 49  1  0
 23 50  1  0
 24 25  2  0
 24 51  1  0
 25 52  1  0
 26 27  1  0
 27 28  2  0
 27 34  1  0
 28 29  1  0
 28 53  1  0
 29 30  2  0
 29 54  1  0
 30 31  1  0
 30 55  1  0
 31 32  1  0
 31 34  2  0
 32 33  1  0
 33 56  1  0
 33 57  1  0
 33 58  1  0
 34 59  1  0
 35 36  2  0
 35 60  1  0
 36 61  1  0
M  CHG  2  11  -1  22   1
M  END

