
     RDKit          3D

 44 45  0  0  0  0  0  0  0  0999 V2000
    2.4663   -0.1027   -3.5259 C   0  0  0  0  0  0  0  0  0  0  0  0
    2.4444   -0.2460   -2.0009 C   0  0  0  0  0  0  0  0  0  0  0  0
    3.0400    0.9144   -1.1689 C   0  0  1  0  0  0  0  0  0  0  0  0
    2.5864    2.3111   -1.6608 C   0  0  0  0  0  0  0  0  0  0  0  0
    1.0759    2.5437   -1.6137 C   0  0  0  0  0  0  0  0  0  0  0  0
    2.5986    0.8580    0.1956 O   0  0  0  0  0  0  0  0  0  0  0  0
    2.6969   -0.3735    0.8845 C   0  0  0  0  0  0  0  0  0  0  0  0
    4.5800    0.8989   -1.1584 C   0  0  0  0  0  0  0  0  0  0  0  0
    5.2810    0.4193   -2.1459 N   0  0  0  0  0  0  0  0  0  0  0  0
    6.6433    0.5096   -2.0622 C   0  0  0  0  0  0  0  0  0  0  0  0
    7.2974   -0.0091   -3.1179 O   0  0  0  0  0  0  0  0  0  0  0  0
    7.3456    1.0694   -1.0118 C   0  0  0  0  0  0  0  0  0  0  0  0
    8.8519    1.1381   -0.9807 C   0  0  1  0  0  0  0  0  0  0  0  0
    9.4501    2.5636   -0.9149 C   0  0  0  0  0  0  0  0  0  0  0  0
   10.9065    2.3020   -0.5162 C   0  0  0  0  0  0  0  0  0  0  0  0
   10.7986    1.2069    0.5651 C   0  0  0  0  0  0  0  0  0  0  0  0
    9.5235    0.3910    0.2143 C   0  0  0  0  0  0  0  0  0  0  0  0
    6.5713    1.5978    0.0964 C   0  0  0  0  0  0  0  0  0  0  0  0
    6.9914    2.1164    1.1211 O   0  0  0  0  0  0  0  0  0  0  0  0
    5.1702    1.4626   -0.0820 N   0  0  0  0  0  0  0  0  0  0  0  0
    4.5770    1.7947    0.6763 H   0  0  0  0  0  0  0  0  0  0  0  0
    2.0468   -1.0103   -3.9886 H   0  0  0  0  0  0  0  0  0  0  0  0
    3.4903    0.0285   -3.8978 H   0  0  0  0  0  0  0  0  0  0  0  0
    1.8597    0.7473   -3.8736 H   0  0  0  0  0  0  0  0  0  0  0  0
    2.9655   -1.1767   -1.7268 H   0  0  0  0  0  0  0  0  0  0  0  0
    1.4005   -0.3615   -1.6650 H   0  0  0  0  0  0  0  0  0  0  0  0
    2.9773    2.4640   -2.6788 H   0  0  0  0  0  0  0  0  0  0  0  0
    3.0852    3.0597   -1.0237 H   0  0  0  0  0  0  0  0  0  0  0  0
    0.5277    1.8801   -2.3001 H   0  0  0  0  0  0  0  0  0  0  0  0
    0.8424    3.5806   -1.9017 H   0  0  0  0  0  0  0  0  0  0  0  0
    0.6903    2.3756   -0.5980 H   0  0  0  0  0  0  0  0  0  0  0  0
    2.4548   -0.1641    1.9365 H   0  0  0  0  0  0  0  0  0  0  0  0
    3.7151   -0.8039    0.8408 H   0  0  0  0  0  0  0  0  0  0  0  0
    1.9829   -1.1258    0.5084 H   0  0  0  0  0  0  0  0  0  0  0  0
    6.6184   -0.3462   -3.7231 H   0  0  0  0  0  0  0  0  0  0  0  0
    9.2158    0.6790   -1.9118 H   0  0  0  0  0  0  0  0  0  0  0  0
    8.9392    3.1435   -0.1303 H   0  0  0  0  0  0  0  0  0  0  0  0
    9.3442    3.1063   -1.8681 H   0  0  0  0  0  0  0  0  0  0  0  0
   11.4307    3.2043   -0.1631 H   0  0  0  0  0  0  0  0  0  0  0  0
   11.4667    1.9223   -1.3891 H   0  0  0  0  0  0  0  0  0  0  0  0
   10.6799    1.6753    1.5553 H   0  0  0  0  0  0  0  0  0  0  0  0
   11.7031    0.5805    0.6161 H   0  0  0  0  0  0  0  0  0  0  0  0
    8.8425    0.3586    1.0755 H   0  0  0  0  0  0  0  0  0  0  0  0
    9.7534   -0.6498   -0.0632 H   0  0  0  0  0  0  0  0  0  0  0  0
  1  2  1  0
  1 22  1  0
  1 23  1  0
  1 24  1  0
  2  3  1  0
  2 25  1  0
  2 26  1  0
  3  4  1  0
  3  6  1  1
  3  8  1  0
  4  5  1  0
  4 27  1  0
  4 28  1  0
  5 29  1  0
  5 30  1  0
  5 31  1  0
  6  7  1  0
  7 32  1  0
  7 33  1  0
  7 34  1  0
  8  9  2  0
  8 20  1  0
  9 10  1  0
 10 11  1  0
 10 12  2  0
 11 35  1  0
 12 13  1  0
 12 18  1  0
 13 14  1  0
 13 17  1  0
 13 36  1  6
 14 15  1  0
 14 37  1  0
 14 38  1  0
 15 16  1  0
 15 39  1  0
 15 40  1  0
 16 17  1  0
 16 41  1  0
 16 42  1  0
 17 43  1  0
 17 44  1  0
 18 19  2  0
 18 20  1  0
 20 21  1  0
M  END

