
     RDKit          3D

 34 35  0  0  0  0  0  0  0  0999 V2000
    0.2675   -0.9769    0.6267 C   0  0  0  0  0  0  0  0  0  0  0  0
    1.5453   -0.2007    0.2764 C   0  0  1  0  0  0  0  0  0  0  0  0
    2.1756    0.2520    1.4971 N   0  0  0  0  0  0  0  0  0  0  0  0
    3.1175    1.2486    1.5811 C   0  0  0  0  0  0  0  0  0  0  0  0
    3.5230    2.0363    0.4812 C   0  0  0  0  0  0  0  0  0  0  0  0
    4.4570    3.0620    0.6392 C   0  0  0  0  0  0  0  0  0  0  0  0
    5.0212    3.3432    1.8862 C   0  0  0  0  0  0  0  0  0  0  0  0
    4.6382    2.5706    2.9878 C   0  0  0  0  0  0  0  0  0  0  0  0
    3.7194    1.5389    2.8311 C   0  0  0  0  0  0  0  0  0  0  0  0
    3.3133    0.7903    3.9422 O   0  0  0  0  0  0  0  0  0  0  0  0
    4.1101   -0.2482    4.3209 C   0  0  1  0  0  0  0  0  0  0  0  0
    3.8888   -0.4919    5.6175 F   0  0  0  0  0  0  0  0  0  0  0  0
    3.7604   -1.3844    3.6376 F   0  0  0  0  0  0  0  0  0  0  0  0
    2.4670   -1.0429   -0.6153 C   0  0  0  0  0  0  0  0  0  0  0  0
    3.4834   -1.8308   -0.0529 C   0  0  0  0  0  0  0  0  0  0  0  0
    4.3067   -2.6368   -0.8411 C   0  0  0  0  0  0  0  0  0  0  0  0
    4.1322   -2.6677   -2.2272 C   0  0  0  0  0  0  0  0  0  0  0  0
    3.1331   -1.8919   -2.8168 C   0  0  0  0  0  0  0  0  0  0  0  0
    2.3145   -1.0954   -2.0108 C   0  0  0  0  0  0  0  0  0  0  0  0
    1.0679   -0.1357   -2.8047 Cl  0  0  0  0  0  0  0  0  0  0  0  0
   -0.4161   -0.3443    1.2139 H   0  0  0  0  0  0  0  0  0  0  0  0
    0.5078   -1.8784    1.2142 H   0  0  0  0  0  0  0  0  0  0  0  0
   -0.2497   -1.2965   -0.2886 H   0  0  0  0  0  0  0  0  0  0  0  0
    1.2414    0.6841   -0.3060 H   0  0  0  0  0  0  0  0  0  0  0  0
    2.0120   -0.2801    2.3422 H   0  0  0  0  0  0  0  0  0  0  0  0
    3.1076    1.8375   -0.5070 H   0  0  0  0  0  0  0  0  0  0  0  0
    4.7462    3.6512   -0.2349 H   0  0  0  0  0  0  0  0  0  0  0  0
    5.7444    4.1521    2.0053 H   0  0  0  0  0  0  0  0  0  0  0  0
    5.0410    2.7658    3.9847 H   0  0  0  0  0  0  0  0  0  0  0  0
    5.1831   -0.0631    4.1382 H   0  0  0  0  0  0  0  0  0  0  0  0
    3.6313   -1.7949    1.0286 H   0  0  0  0  0  0  0  0  0  0  0  0
    5.0886   -3.2383   -0.3712 H   0  0  0  0  0  0  0  0  0  0  0  0
    4.7739   -3.2912   -2.8546 H   0  0  0  0  0  0  0  0  0  0  0  0
    2.9803   -1.8952   -3.8973 H   0  0  0  0  0  0  0  0  0  0  0  0
  1  2  1  0
  1 21  1  0
  1 22  1  0
  1 23  1  0
  2  3  1  0
  2 14  1  0
  2 24  1  6
  3  4  1  0
  3 25  1  0
  4  5  2  0
  4  9  1  0
  5  6  1  0
  5 26  1  0
  6  7  2  0
  6 27  1  0
  7  8  1  0
  7 28  1  0
  8  9  2  0
  8 29  1  0
  9 10  1  0
 10 11  1  0
 11 12  1  0
 11 13  1  0
 11 30  1  1
 14 15  2  0
 14 19  1  0
 15 16  1  0
 15 31  1  0
 16 17  2  0
 16 32  1  0
 17 18  1  0
 17 33  1  0
 18 19  2  0
 18 34  1  0
 19 20  1  0
M  END

