
     RDKit          3D

 20 21  0  0  0  0  0  0  0  0999 V2000
    1.0945   -0.1775   -0.3671 O   0  0  0  0  0  0  0  0  0  0  0  0
    2.2668   -0.1430   -0.0846 C   0  0  0  0  0  0  0  0  0  0  0  0
    3.1552   -1.3819    0.1651 C   0  0  0  0  0  0  0  0  0  0  0  0
    4.5691   -0.8596    0.4928 C   0  0  0  0  0  0  0  0  0  0  0  0
    4.4149    0.6346    0.4146 C   0  0  0  0  0  0  0  0  0  0  0  0
    5.3821    1.5370    0.6254 N   0  0  0  0  0  0  0  0  0  0  0  0
    6.3329    1.2603    0.8634 H   0  0  0  0  0  0  0  0  0  0  0  0
    5.1661    2.9332    0.5334 C   0  0  0  0  0  0  0  0  0  0  0  0
    6.4237    3.9661    0.8063 S   0  0  0  0  0  0  0  0  0  0  0  0
    3.8880    3.3286    0.2142 N   0  0  0  0  0  0  0  0  0  0  0  0
    2.9377    2.4647    0.0072 C   0  0  0  0  0  0  0  0  0  0  0  0
    1.5556    3.0292   -0.3414 C   0  0  1  0  0  0  0  0  0  0  0  0
    1.1680    2.5757   -1.5411 F   0  0  0  0  0  0  0  0  0  0  0  0
    0.6584    2.6342    0.5723 F   0  0  0  0  0  0  0  0  0  0  0  0
    1.5558    4.3565   -0.3786 F   0  0  0  0  0  0  0  0  0  0  0  0
    3.1376    1.0463    0.0928 C   0  0  0  0  0  0  0  0  0  0  0  0
    3.1315   -2.0192   -0.7321 H   0  0  0  0  0  0  0  0  0  0  0  0
    2.7159   -1.9722    0.9838 H   0  0  0  0  0  0  0  0  0  0  0  0
    5.3341   -1.2036   -0.2235 H   0  0  0  0  0  0  0  0  0  0  0  0
    4.9194   -1.1569    1.4955 H   0  0  0  0  0  0  0  0  0  0  0  0
  1  2  2  0
  2  3  1  0
  2 16  1  0
  3  4  1  0
  3 17  1  0
  3 18  1  0
  4  5  1  0
  4 19  1  0
  4 20  1  0
  5  6  1  0
  5 16  2  0
  6  7  1  0
  6  8  1  0
  8  9  2  0
  8 10  1  0
 10 11  2  0
 11 12  1  0
 11 16  1  0
 12 13  1  6
 12 14  1  0
 12 15  1  0
M  END

