
     RDKit          3D

 40 41  0  0  0  0  0  0  0  0999 V2000
    4.6488   -1.7273   -2.1795 C   0  0  0  0  0  0  0  0  0  0  0  0
    5.7552   -1.1204   -1.3394 C   0  0  0  0  0  0  0  0  0  0  0  0
    6.3416   -2.1235   -0.5215 O   0  0  0  0  0  0  0  0  0  0  0  0
    7.4584   -1.7035    0.2434 C   0  0  0  0  0  0  0  0  0  0  0  0
    7.0615   -0.9808    1.5327 C   0  0  0  0  0  0  0  0  0  0  0  0
    6.0906   -1.7874    2.4061 C   0  0  0  0  0  0  0  0  0  0  0  0
    6.6276   -3.0526    2.8793 N   0  0  0  0  0  0  0  0  0  0  0  0
    7.4282   -3.2144    4.0089 C   0  0  0  0  0  0  0  0  0  0  0  0
    7.6394   -4.5636    4.1448 C   0  0  0  0  0  0  0  0  0  0  0  0
    8.4152   -5.2922    5.1951 C   0  0  0  0  0  0  0  0  0  0  0  0
    7.0092   -5.2374    3.1194 N   0  0  0  0  0  0  0  0  0  0  0  0
    6.4193   -4.3199    2.3817 C   0  0  0  0  0  0  0  0  0  0  0  0
    5.6543   -4.5304    1.2464 N   0  0  0  0  0  0  0  0  0  0  0  0
    5.0900   -5.7360    0.8392 C   0  0  0  0  0  0  0  0  0  0  0  0
    5.2415   -6.9656    1.5089 C   0  0  0  0  0  0  0  0  0  0  0  0
    4.6001   -8.1044    1.0163 C   0  0  0  0  0  0  0  0  0  0  0  0
    4.8248   -9.7562    1.9532 Br  0  0  0  0  0  0  0  0  0  0  0  0
    3.8123   -8.0820   -0.1351 C   0  0  0  0  0  0  0  0  0  0  0  0
    3.6651   -6.8646   -0.8099 C   0  0  0  0  0  0  0  0  0  0  0  0
    4.2906   -5.7302   -0.3225 C   0  0  0  0  0  0  0  0  0  0  0  0
    4.1367   -4.5534   -0.9726 F   0  0  0  0  0  0  0  0  0  0  0  0
    4.2220   -0.9620   -2.8465 H   0  0  0  0  0  0  0  0  0  0  0  0
    3.8439   -2.1290   -1.5474 H   0  0  0  0  0  0  0  0  0  0  0  0
    5.0370   -2.5536   -2.7933 H   0  0  0  0  0  0  0  0  0  0  0  0
    5.3551   -0.2937   -0.7189 H   0  0  0  0  0  0  0  0  0  0  0  0
    6.5390   -0.6818   -1.9894 H   0  0  0  0  0  0  0  0  0  0  0  0
    8.1215   -1.0603   -0.3661 H   0  0  0  0  0  0  0  0  0  0  0  0
    8.0248   -2.6171    0.4854 H   0  0  0  0  0  0  0  0  0  0  0  0
    6.5908   -0.0096    1.3023 H   0  0  0  0  0  0  0  0  0  0  0  0
    7.9783   -0.7543    2.1034 H   0  0  0  0  0  0  0  0  0  0  0  0
    5.1665   -1.9971    1.8472 H   0  0  0  0  0  0  0  0  0  0  0  0
    5.8005   -1.1924    3.2863 H   0  0  0  0  0  0  0  0  0  0  0  0
    7.7567   -2.3628    4.5995 H   0  0  0  0  0  0  0  0  0  0  0  0
    8.8643   -4.5947    5.9174 H   0  0  0  0  0  0  0  0  0  0  0  0
    9.2227   -5.8923    4.7438 H   0  0  0  0  0  0  0  0  0  0  0  0
    7.7674   -5.9929    5.7479 H   0  0  0  0  0  0  0  0  0  0  0  0
    5.6112   -3.7721    0.5635 H   0  0  0  0  0  0  0  0  0  0  0  0
    5.8756   -7.0007    2.3922 H   0  0  0  0  0  0  0  0  0  0  0  0
    3.3267   -8.9863   -0.5021 H   0  0  0  0  0  0  0  0  0  0  0  0
    3.0602   -6.7838   -1.7152 H   0  0  0  0  0  0  0  0  0  0  0  0
  1  2  1  0
  1 22  1  0
  1 23  1  0
  1 24  1  0
  2  3  1  0
  2 25  1  0
  2 26  1  0
  3  4  1  0
  4  5  1  0
  4 27  1  0
  4 28  1  0
  5  6  1  0
  5 29  1  0
  5 30  1  0
  6  7  1  0
  6 31  1  0
  6 32  1  0
  7  8  1  0
  7 12  1  0
  8  9  2  0
  8 33  1  0
  9 10  1  0
  9 11  1  0
 10 34  1  0
 10 35  1  0
 10 36  1  0
 11 12  2  0
 12 13  1  0
 13 14  1  0
 13 37  1  0
 14 15  2  0
 14 20  1  0
 15 16  1  0
 15 38  1  0
 16 17  1  0
 16 18  2  0
 18 19  1  0
 18 39  1  0
 19 20  2  0
 19 40  1  0
 20 21  1  0
M  END

