
     RDKit          3D

 43 43  0  0  0  0  0  0  0  0999 V2000
    2.4546    0.9592   -0.6024 C   0  0  0  0  0  0  0  0  0  0  0  0
    2.5507   -0.4310    0.0420 C   0  0  1  0  0  0  0  0  0  0  0  0
    1.1792   -1.1202    0.0482 C   0  0  0  0  0  0  0  0  0  0  0  0
    3.5902   -1.3357   -0.6435 C   0  0  0  0  0  0  0  0  0  0  0  0
    5.0433   -0.8505   -0.6612 C   0  0  1  0  0  0  0  0  0  0  0  0
    5.6484   -0.6711    0.7327 C   0  0  0  0  0  0  0  0  0  0  0  0
    5.7570   -1.8227   -1.4169 O   0  0  0  0  0  0  0  0  0  0  0  0
    7.0062   -1.4349   -1.9247 C   0  0  0  0  0  0  0  0  0  0  0  0
    7.4394   -2.4211   -2.9892 C   0  0  0  0  0  0  0  0  0  0  0  0
    6.6310   -2.2372   -4.1342 O   0  0  0  0  0  0  0  0  0  0  0  0
    6.7956   -3.0490   -5.2107 C   0  0  0  0  0  0  0  0  0  0  0  0
    5.9373   -2.8125   -6.2994 C   0  0  0  0  0  0  0  0  0  0  0  0
    6.0474   -3.5947   -7.4451 C   0  0  0  0  0  0  0  0  0  0  0  0
    7.0033   -4.6151   -7.5252 C   0  0  0  0  0  0  0  0  0  0  0  0
    7.8549   -4.8618   -6.4423 C   0  0  0  0  0  0  0  0  0  0  0  0
    8.8587   -6.0006   -6.4965 C   0  0  0  0  0  0  0  0  0  0  0  0
   10.0441   -5.7411   -5.6870 N   0  0  0  0  0  0  0  0  0  0  0  0
    7.7511   -4.0724   -5.2854 C   0  0  0  0  0  0  0  0  0  0  0  0
    1.6774    1.5684   -0.1128 H   0  0  0  0  0  0  0  0  0  0  0  0
    2.1905    0.8798   -1.6712 H   0  0  0  0  0  0  0  0  0  0  0  0
    3.4002    1.5201   -0.5351 H   0  0  0  0  0  0  0  0  0  0  0  0
    2.8520   -0.2941    1.0972 H   0  0  0  0  0  0  0  0  0  0  0  0
    0.8156   -1.2842   -0.9808 H   0  0  0  0  0  0  0  0  0  0  0  0
    0.4264   -0.5111    0.5746 H   0  0  0  0  0  0  0  0  0  0  0  0
    1.2241   -2.1033    0.5442 H   0  0  0  0  0  0  0  0  0  0  0  0
    3.2942   -1.5033   -1.6939 H   0  0  0  0  0  0  0  0  0  0  0  0
    3.5824   -2.3304   -0.1639 H   0  0  0  0  0  0  0  0  0  0  0  0
    5.0999    0.1178   -1.2001 H   0  0  0  0  0  0  0  0  0  0  0  0
    5.6016   -1.6182    1.2947 H   0  0  0  0  0  0  0  0  0  0  0  0
    5.1106    0.0996    1.3061 H   0  0  0  0  0  0  0  0  0  0  0  0
    6.7027   -0.3579    0.6773 H   0  0  0  0  0  0  0  0  0  0  0  0
    7.7874   -1.4141   -1.1368 H   0  0  0  0  0  0  0  0  0  0  0  0
    6.9584   -0.4202   -2.3702 H   0  0  0  0  0  0  0  0  0  0  0  0
    7.3361   -3.4491   -2.5971 H   0  0  0  0  0  0  0  0  0  0  0  0
    8.5057   -2.2534   -3.2341 H   0  0  0  0  0  0  0  0  0  0  0  0
    5.2015   -2.0099   -6.2190 H   0  0  0  0  0  0  0  0  0  0  0  0
    5.3828   -3.4041   -8.2922 H   0  0  0  0  0  0  0  0  0  0  0  0
    7.0862   -5.2184   -8.4335 H   0  0  0  0  0  0  0  0  0  0  0  0
    9.0708   -6.2259   -7.5632 H   0  0  0  0  0  0  0  0  0  0  0  0
    8.3761   -6.9096   -6.0911 H   0  0  0  0  0  0  0  0  0  0  0  0
   10.5982   -4.9889   -6.0984 H   0  0  0  0  0  0  0  0  0  0  0  0
   10.6431   -6.5650   -5.6542 H   0  0  0  0  0  0  0  0  0  0  0  0
    8.4399   -4.2794   -4.4673 H   0  0  0  0  0  0  0  0  0  0  0  0
  1  2  1  0
  1 19  1  0
  1 20  1  0
  1 21  1  0
  2  3  1  0
  2  4  1  0
  2 22  1  1
  3 23  1  0
  3 24  1  0
  3 25  1  0
  4  5  1  0
  4 26  1  0
  4 27  1  0
  5  6  1  0
  5  7  1  0
  5 28  1  6
  6 29  1  0
  6 30  1  0
  6 31  1  0
  7  8  1  0
  8  9  1  0
  8 32  1  0
  8 33  1  0
  9 10  1  0
  9 34  1  0
  9 35  1  0
 10 11  1  0
 11 12  2  0
 11 18  1  0
 12 13  1  0
 12 36  1  0
 13 14  2  0
 13 37  1  0
 14 15  1  0
 14 38  1  0
 15 16  1  0
 15 18  2  0
 16 17  1  0
 16 39  1  0
 16 40  1  0
 17 41  1  0
 17 42  1  0
 18 43  1  0
M  END

