
     RDKit          3D

 54 57  0  0  0  0  0  0  0  0999 V2000
    3.1514    0.2097    1.5861 C   0  0  0  0  0  0  0  0  0  0  0  0
    4.6543    0.3172    1.8761 C   0  0  1  0  0  0  0  0  0  0  0  0
    5.1649   -0.9190    2.6273 C   0  0  0  0  0  0  0  0  0  0  0  0
    5.4946    0.5443    0.6046 C   0  0  0  0  0  0  0  0  0  0  0  0
    5.1107    1.7697   -0.2481 C   0  0  0  0  0  0  0  0  0  0  0  0
    5.1453    3.0672    0.5263 C   0  0  0  0  0  0  0  0  0  0  0  0
    4.1917    3.7237    0.8511 O   0  0  0  0  0  0  0  0  0  0  0  0
    6.4339    3.3967    0.8431 O   0  0  0  0  0  0  0  0  0  0  0  0
    6.7207    4.5311    1.5935 C   0  0  0  0  0  0  0  0  0  0  0  0
    6.2391    5.8091    1.2080 C   0  0  0  0  0  0  0  0  0  0  0  0
    6.6071    6.9254    1.9244 C   0  0  0  0  0  0  0  0  0  0  0  0
    7.4695    6.8176    3.0523 C   0  0  0  0  0  0  0  0  0  0  0  0
    7.8259    7.9356    3.7282 N   0  0  0  0  0  0  0  0  0  0  0  0
    8.6195    7.7821    4.7725 C   0  0  0  0  0  0  0  0  0  0  0  0
    8.9946    8.8864    5.4773 N   0  0  0  0  0  0  0  0  0  0  0  0
    9.0954    6.5920    5.2484 N   0  0  0  0  0  0  0  0  0  0  0  0
    8.7729    5.4959    4.5991 C   0  0  0  0  0  0  0  0  0  0  0  0
    9.3784    4.1913    5.0941 C   0  0  0  0  0  0  0  0  0  0  0  0
    9.8526    3.3925    4.2929 O   0  0  0  0  0  0  0  0  0  0  0  0
    9.3836    3.9499    6.4307 N   0  0  0  0  0  0  0  0  0  0  0  0
    8.7809    4.7517    7.5092 C   0  0  0  0  0  0  0  0  0  0  0  0
    8.9200    3.8499    8.7096 C   0  0  0  0  0  0  0  0  0  0  0  0
    8.4832    4.0647   10.0180 C   0  0  0  0  0  0  0  0  0  0  0  0
    8.7364    3.0843   10.9838 C   0  0  0  0  0  0  0  0  0  0  0  0
    9.4181    1.9089   10.6420 C   0  0  0  0  0  0  0  0  0  0  0  0
    9.8552    1.6972    9.3297 C   0  0  0  0  0  0  0  0  0  0  0  0
    9.6006    2.6763    8.3677 C   0  0  0  0  0  0  0  0  0  0  0  0
    9.9620    2.6851    6.9066 C   0  0  0  0  0  0  0  0  0  0  0  0
    7.9420    5.5184    3.4315 C   0  0  0  0  0  0  0  0  0  0  0  0
    7.5569    4.3785    2.6763 C   0  0  0  0  0  0  0  0  0  0  0  0
    2.5900   -0.0108    2.5083 H   0  0  0  0  0  0  0  0  0  0  0  0
    2.9421   -0.6034    0.8686 H   0  0  0  0  0  0  0  0  0  0  0  0
    2.7451    1.1455    1.1734 H   0  0  0  0  0  0  0  0  0  0  0  0
    4.8032    1.1913    2.5386 H   0  0  0  0  0  0  0  0  0  0  0  0
    5.0275   -1.8330    2.0236 H   0  0  0  0  0  0  0  0  0  0  0  0
    4.6221   -1.0630    3.5753 H   0  0  0  0  0  0  0  0  0  0  0  0
    6.2382   -0.8349    2.8635 H   0  0  0  0  0  0  0  0  0  0  0  0
    5.4216   -0.3501   -0.0400 H   0  0  0  0  0  0  0  0  0  0  0  0
    6.5560    0.6344    0.8890 H   0  0  0  0  0  0  0  0  0  0  0  0
    4.0980    1.6692   -0.6613 H   0  0  0  0  0  0  0  0  0  0  0  0
    5.8178    1.8526   -1.0892 H   0  0  0  0  0  0  0  0  0  0  0  0
    5.5791    5.8979    0.3451 H   0  0  0  0  0  0  0  0  0  0  0  0
    6.2546    7.9206    1.6483 H   0  0  0  0  0  0  0  0  0  0  0  0
    8.7866    9.7946    5.0850 H   0  0  0  0  0  0  0  0  0  0  0  0
    9.7346    8.7951    6.1591 H   0  0  0  0  0  0  0  0  0  0  0  0
    7.7278    4.9976    7.2866 H   0  0  0  0  0  0  0  0  0  0  0  0
    9.3100    5.7094    7.6366 H   0  0  0  0  0  0  0  0  0  0  0  0
    7.9510    4.9811   10.2878 H   0  0  0  0  0  0  0  0  0  0  0  0
    8.3994    3.2365   12.0123 H   0  0  0  0  0  0  0  0  0  0  0  0
    9.6089    1.1511   11.4061 H   0  0  0  0  0  0  0  0  0  0  0  0
   10.3862    0.7785    9.0660 H   0  0  0  0  0  0  0  0  0  0  0  0
    9.5423    1.8339    6.3425 H   0  0  0  0  0  0  0  0  0  0  0  0
   11.0534    2.6598    6.7311 H   0  0  0  0  0  0  0  0  0  0  0  0
    7.9448    3.3939    2.9325 H   0  0  0  0  0  0  0  0  0  0  0  0
  1  2  1  0
  1 31  1  0
  1 32  1  0
  1 33  1  0
  2  3  1  0
  2  4  1  0
  2 34  1  1
  3 35  1  0
  3 36  1  0
  3 37  1  0
  4  5  1  0
  4 38  1  0
  4 39  1  0
  5  6  1  0
  5 40  1  0
  5 41  1  0
  6  7  2  0
  6  8  1  0
  8  9  1  0
  9 10  2  0
  9 30  1  0
 10 11  1  0
 10 42  1  0
 11 12  2  0
 11 43  1  0
 12 13  1  0
 12 29  1  0
 13 14  2  0
 14 15  1  0
 14 16  1  0
 15 44  1  0
 15 45  1  0
 16 17  2  0
 17 18  1  0
 17 29  1  0
 18 19  2  0
 18 20  1  0
 20 21  1  0
 20 28  1  0
 21 22  1  0
 21 46  1  0
 21 47  1  0
 22 23  1  0
 22 27  2  0
 23 24  2  0
 23 48  1  0
 24 25  1  0
 24 49  1  0
 25 26  2  0
 25 50  1  0
 26 27  1  0
 26 51  1  0
 27 28  1  0
 28 52  1  0
 28 53  1  0
 29 30  2  0
 30 54  1  0
M  END

