
     RDKit          3D

 30 31  0  0  0  0  0  0  0  0999 V2000
    1.1854    0.4426    0.5032 N   0  0  0  0  0  0  0  0  0  0  0  0
    2.5327    0.3346    0.2308 C   0  0  0  0  0  0  0  0  0  0  0  0
    3.5027    0.7926    1.1464 C   0  0  0  0  0  0  0  0  0  0  0  0
    4.8585    0.6432    0.8737 C   0  0  0  0  0  0  0  0  0  0  0  0
    5.3202    0.0153   -0.2971 C   0  0  0  0  0  0  0  0  0  0  0  0
    6.7868   -0.2848   -0.4918 C   0  0  0  0  0  0  0  0  0  0  0  0
    7.1491   -1.4351   -0.6248 O   0  0  0  0  0  0  0  0  0  0  0  0
    7.8496    0.8294   -0.5455 C   0  0  1  0  0  0  0  0  0  0  0  0
    7.4630    2.1135   -1.3165 C   0  0  0  0  0  0  0  0  0  0  0  0
    6.7671    3.1737   -0.4493 C   0  0  0  0  0  0  0  0  0  0  0  0
    7.4890    3.3472    0.8866 C   0  0  0  0  0  0  0  0  0  0  0  0
    7.6388    2.1082    1.5627 O   0  0  0  0  0  0  0  0  0  0  0  0
    8.4335    1.1933    0.8379 C   0  0  0  0  0  0  0  0  0  0  0  0
    4.3415   -0.4348   -1.2032 C   0  0  0  0  0  0  0  0  0  0  0  0
    4.8035   -1.1635   -2.7296 Cl  0  0  0  0  0  0  0  0  0  0  0  0
    2.9799   -0.2692   -0.9619 C   0  0  0  0  0  0  0  0  0  0  0  0
    0.8983    1.1006    1.2166 H   0  0  0  0  0  0  0  0  0  0  0  0
    0.5347    0.3423   -0.2654 H   0  0  0  0  0  0  0  0  0  0  0  0
    3.1854    1.2668    2.0790 H   0  0  0  0  0  0  0  0  0  0  0  0
    5.5925    1.0218    1.5883 H   0  0  0  0  0  0  0  0  0  0  0  0
    8.6659    0.3248   -1.0863 H   0  0  0  0  0  0  0  0  0  0  0  0
    6.8443    1.8600   -2.1926 H   0  0  0  0  0  0  0  0  0  0  0  0
    8.3982    2.5450   -1.7161 H   0  0  0  0  0  0  0  0  0  0  0  0
    5.7218    2.8880   -0.2576 H   0  0  0  0  0  0  0  0  0  0  0  0
    6.7407    4.1395   -0.9819 H   0  0  0  0  0  0  0  0  0  0  0  0
    6.9277    4.0081    1.5644 H   0  0  0  0  0  0  0  0  0  0  0  0
    8.4897    3.8025    0.7262 H   0  0  0  0  0  0  0  0  0  0  0  0
    8.5486    0.2948    1.4626 H   0  0  0  0  0  0  0  0  0  0  0  0
    9.4441    1.6253    0.6816 H   0  0  0  0  0  0  0  0  0  0  0  0
    2.2621   -0.6168   -1.7073 H   0  0  0  0  0  0  0  0  0  0  0  0
  1  2  1  0
  1 17  1  0
  1 18  1  0
  2  3  2  0
  2 16  1  0
  3  4  1  0
  3 19  1  0
  4  5  2  0
  4 20  1  0
  5  6  1  0
  5 14  1  0
  6  7  2  0
  6  8  1  0
  8  9  1  0
  8 13  1  0
  8 21  1  6
  9 10  1  0
  9 22  1  0
  9 23  1  0
 10 11  1  0
 10 24  1  0
 10 25  1  0
 11 12  1  0
 11 26  1  0
 11 27  1  0
 12 13  1  0
 13 28  1  0
 13 29  1  0
 14 15  1  0
 14 16  2  0
 16 30  1  0
M  END

