
     RDKit          3D

 36 37  0  0  0  0  0  0  0  0999 V2000
    0.9026   -0.2610    2.5564 N   0  0  0  0  0  0  0  0  0  0  0  0
    2.3410   -0.0710    2.4095 C   0  0  0  0  0  0  0  0  0  0  0  0
    2.6660    0.4511    1.0059 C   0  0  0  0  0  0  0  0  0  0  0  0
    4.0932    0.6808    0.8124 N   0  0  0  0  0  0  0  0  0  0  0  0
    4.8741   -0.4864    0.4232 C   0  0  0  0  0  0  0  0  0  0  0  0
    4.8246   -0.7771   -1.0875 C   0  0  0  0  0  0  0  0  0  0  0  0
    5.2111    0.4201   -1.8446 N   0  0  0  0  0  0  0  0  0  0  0  0
    6.2354    0.3253   -2.7226 C   0  0  0  0  0  0  0  0  0  0  0  0
    6.8501   -0.7250   -2.9283 O   0  0  0  0  0  0  0  0  0  0  0  0
    6.6901    1.5795   -3.5408 C   0  0  0  0  0  0  0  0  0  0  0  0
    6.2345    2.6979   -3.4635 O   0  0  0  0  0  0  0  0  0  0  0  0
    7.7113    1.1784   -4.3690 N   0  0  0  0  0  0  0  0  0  0  0  0
    8.4283    1.9386   -5.2706 C   0  0  0  0  0  0  0  0  0  0  0  0
    8.3152    3.2209   -5.5471 N   0  0  0  0  0  0  0  0  0  0  0  0
    9.2699    3.4068   -6.5013 C   0  0  0  0  0  0  0  0  0  0  0  0
    9.9620    2.3322   -6.8314 N   0  0  0  0  0  0  0  0  0  0  0  0
    9.4133    1.3862   -6.0328 N   0  0  0  0  0  0  0  0  0  0  0  0
    9.7485    0.4301   -6.0648 H   0  0  0  0  0  0  0  0  0  0  0  0
    4.4113    1.6054   -1.5019 C   0  0  0  0  0  0  0  0  0  0  0  0
    4.4706    1.8407    0.0177 C   0  0  0  0  0  0  0  0  0  0  0  0
    0.6636   -0.4637    3.5263 H   0  0  0  0  0  0  0  0  0  0  0  0
    0.5893   -1.0673    2.0139 H   0  0  0  0  0  0  0  0  0  0  0  0
    2.9478   -0.9809    2.6122 H   0  0  0  0  0  0  0  0  0  0  0  0
    2.6771    0.6854    3.1374 H   0  0  0  0  0  0  0  0  0  0  0  0
    2.1254    1.4007    0.8723 H   0  0  0  0  0  0  0  0  0  0  0  0
    2.2322   -0.2472    0.2546 H   0  0  0  0  0  0  0  0  0  0  0  0
    4.5241   -1.3712    0.9768 H   0  0  0  0  0  0  0  0  0  0  0  0
    5.9284   -0.3247    0.7128 H   0  0  0  0  0  0  0  0  0  0  0  0
    3.8003   -1.0623   -1.3892 H   0  0  0  0  0  0  0  0  0  0  0  0
    5.5030   -1.5929   -1.3630 H   0  0  0  0  0  0  0  0  0  0  0  0
    7.9252    0.1853   -4.2452 H   0  0  0  0  0  0  0  0  0  0  0  0
    9.4586    4.3734   -6.9675 H   0  0  0  0  0  0  0  0  0  0  0  0
    3.3675    1.4136   -1.8124 H   0  0  0  0  0  0  0  0  0  0  0  0
    4.7813    2.4727   -2.0538 H   0  0  0  0  0  0  0  0  0  0  0  0
    3.8257    2.6932    0.2806 H   0  0  0  0  0  0  0  0  0  0  0  0
    5.5068    2.1255    0.2786 H   0  0  0  0  0  0  0  0  0  0  0  0
  1  2  1  0
  1 21  1  0
  1 22  1  0
  2  3  1  0
  2 23  1  0
  2 24  1  0
  3  4  1  0
  3 25  1  0
  3 26  1  0
  4  5  1  0
  4 20  1  0
  5  6  1  0
  5 27  1  0
  5 28  1  0
  6  7  1  0
  6 29  1  0
  6 30  1  0
  7  8  1  0
  7 19  1  0
  8  9  2  0
  8 10  1  0
 10 11  2  0
 10 12  1  0
 12 13  1  0
 12 31  1  0
 13 14  2  0
 13 17  1  0
 14 15  1  0
 15 16  2  0
 15 32  1  0
 16 17  1  0
 17 18  1  0
 19 20  1  0
 19 33  1  0
 19 34  1  0
 20 35  1  0
 20 36  1  0
M  END

