
     RDKit          3D

 30 31  0  0  0  0  0  0  0  0999 V2000
    2.2727    0.7150    2.0627 O   0  0  0  0  0  0  0  0  0  0  0  0
    2.9022    0.3349    1.0985 C   0  0  0  0  0  0  0  0  0  0  0  0
    3.4370   -1.0739    0.9211 C   0  0  0  0  0  0  0  0  0  0  0  0
    3.4270   -1.5205   -0.5433 C   0  0  0  0  0  0  0  0  0  0  0  0
    4.0731   -0.4837   -1.4308 C   0  0  0  0  0  0  0  0  0  0  0  0
    4.7641   -0.8320   -2.6075 C   0  0  0  0  0  0  0  0  0  0  0  0
    4.8345   -2.1613   -2.8757 O   0  0  0  0  0  0  0  0  0  0  0  0
    5.5084   -2.6176   -4.0355 C   0  0  0  0  0  0  0  0  0  0  0  0
    5.4001   -4.1335   -4.0369 C   0  0  0  0  0  0  0  0  0  0  0  0
    6.2297   -4.7996   -5.4873 Cl  0  0  0  0  0  0  0  0  0  0  0  0
    5.3177    0.1569   -3.4346 C   0  0  0  0  0  0  0  0  0  0  0  0
    5.1763    1.4969   -3.0787 C   0  0  0  0  0  0  0  0  0  0  0  0
    4.4981    1.8761   -1.9197 C   0  0  0  0  0  0  0  0  0  0  0  0
    4.4288    3.3279   -1.5333 C   0  0  1  0  0  0  0  0  0  0  0  0
    4.8978    4.1363   -2.4926 F   0  0  0  0  0  0  0  0  0  0  0  0
    3.1542    3.7227   -1.2721 F   0  0  0  0  0  0  0  0  0  0  0  0
    5.1309    3.5883   -0.4117 F   0  0  0  0  0  0  0  0  0  0  0  0
    3.9359    0.8736   -1.0914 C   0  0  0  0  0  0  0  0  0  0  0  0
    3.2209    1.2019    0.0639 N   0  0  0  0  0  0  0  0  0  0  0  0
    2.8457   -1.7369    1.5667 H   0  0  0  0  0  0  0  0  0  0  0  0
    4.4718   -1.0772    1.3100 H   0  0  0  0  0  0  0  0  0  0  0  0
    2.3831   -1.6826   -0.8739 H   0  0  0  0  0  0  0  0  0  0  0  0
    3.9366   -2.4862   -0.6577 H   0  0  0  0  0  0  0  0  0  0  0  0
    6.5703   -2.3151   -4.0225 H   0  0  0  0  0  0  0  0  0  0  0  0
    5.0454   -2.2046   -4.9490 H   0  0  0  0  0  0  0  0  0  0  0  0
    4.3498   -4.4523   -4.0690 H   0  0  0  0  0  0  0  0  0  0  0  0
    5.8773   -4.5626   -3.1458 H   0  0  0  0  0  0  0  0  0  0  0  0
    5.8523   -0.1008   -4.3474 H   0  0  0  0  0  0  0  0  0  0  0  0
    5.6084    2.2695   -3.7156 H   0  0  0  0  0  0  0  0  0  0  0  0
    2.9189    2.1611    0.2068 H   0  0  0  0  0  0  0  0  0  0  0  0
  1  2  2  0
  2  3  1  0
  2 19  1  0
  3  4  1  0
  3 20  1  0
  3 21  1  0
  4  5  1  0
  4 22  1  0
  4 23  1  0
  5  6  1  0
  5 18  2  0
  6  7  1  0
  6 11  2  0
  7  8  1  0
  8  9  1  0
  8 24  1  0
  8 25  1  0
  9 10  1  0
  9 26  1  0
  9 27  1  0
 11 12  1  0
 11 28  1  0
 12 13  2  0
 12 29  1  0
 13 14  1  0
 13 18  1  0
 14 15  1  6
 14 16  1  0
 14 17  1  0
 18 19  1  0
 19 30  1  0
M  END

