
     RDKit          3D

 65 73  0  0  0  0  0  0  0  0999 V2000
    0.5267   -0.1642    3.5167 C   0  0  0  0  0  0  0  0  0  0  0  0
    1.8069    0.1453    3.9858 C   0  0  0  0  0  0  0  0  0  0  0  0
    2.8893    0.1882    3.1045 C   0  0  0  0  0  0  0  0  0  0  0  0
    2.7209   -0.0730    1.7307 C   0  0  0  0  0  0  0  0  0  0  0  0
    3.8746   -0.0218    0.7923 C   0  0  0  0  0  0  0  0  0  0  0  0
    3.9746   -0.9470   -0.2775 C   0  0  0  0  0  0  0  0  0  0  0  0
    5.0387   -0.9357   -1.1767 C   0  0  0  0  0  0  0  0  0  0  0  0
    6.0361    0.0294   -0.9999 C   0  0  0  0  0  0  0  0  0  0  0  0
    5.9638    0.9770    0.0543 C   0  0  0  0  0  0  0  0  0  0  0  0
    4.8832    0.9417    0.9450 C   0  0  0  0  0  0  0  0  0  0  0  0
    7.1260    1.8313   -0.0727 C   0  0  0  0  0  0  0  0  0  0  0  0
    7.5998    2.9207    0.6842 C   0  0  0  0  0  0  0  0  0  0  0  0
    8.7856    3.5447    0.3318 C   0  0  0  0  0  0  0  0  0  0  0  0
    9.5308    3.0853   -0.7844 C   0  0  0  0  0  0  0  0  0  0  0  0
    9.0687    1.9748   -1.5548 C   0  0  0  0  0  0  0  0  0  0  0  0
   10.1744    1.5160   -2.8590 S   0  0  0  0  0  0  0  0  0  0  0  0
   11.2571    2.8056   -2.3981 C   0  0  0  0  0  0  0  0  0  0  0  0
   12.5286    3.3300   -2.7933 C   0  0  0  0  0  0  0  0  0  0  0  0
   13.4703    3.0238   -3.7923 C   0  0  0  0  0  0  0  0  0  0  0  0
   14.6265    3.7922   -3.8893 C   0  0  0  0  0  0  0  0  0  0  0  0
   14.8563    4.8682   -3.0072 C   0  0  0  0  0  0  0  0  0  0  0  0
   13.9421    5.1942   -2.0063 C   0  0  0  0  0  0  0  0  0  0  0  0
   12.7831    4.4152   -1.8954 C   0  0  0  0  0  0  0  0  0  0  0  0
   11.7158    4.5327   -1.0010 N   0  0  0  0  0  0  0  0  0  0  0  0
   11.5835    5.5540   -0.0174 C   0  0  0  0  0  0  0  0  0  0  0  0
   10.5558    6.5030   -0.1197 C   0  0  0  0  0  0  0  0  0  0  0  0
   10.4319    7.5035    0.8471 C   0  0  0  0  0  0  0  0  0  0  0  0
   11.3406    7.5750    1.9081 C   0  0  0  0  0  0  0  0  0  0  0  0
   12.3720    6.6357    2.0032 C   0  0  0  0  0  0  0  0  0  0  0  0
   12.4918    5.6224    1.0486 C   0  0  0  0  0  0  0  0  0  0  0  0
   10.7868    3.5428   -1.3196 C   0  0  0  0  0  0  0  0  0  0  0  0
    7.8559    1.3617   -1.1981 C   0  0  0  0  0  0  0  0  0  0  0  0
    7.1868    0.2694   -1.7530 N   0  0  0  0  0  0  0  0  0  0  0  0
    7.5461   -0.4547   -2.9282 C   0  0  0  0  0  0  0  0  0  0  0  0
    7.9782   -1.7846   -2.8241 C   0  0  0  0  0  0  0  0  0  0  0  0
    8.3057   -2.5026   -3.9764 C   0  0  0  0  0  0  0  0  0  0  0  0
    8.2136   -1.8951   -5.2330 C   0  0  0  0  0  0  0  0  0  0  0  0
    7.7849   -0.5686   -5.3361 C   0  0  0  0  0  0  0  0  0  0  0  0
    7.4435    0.1511   -4.1884 C   0  0  0  0  0  0  0  0  0  0  0  0
    1.4244   -0.3825    1.2755 C   0  0  0  0  0  0  0  0  0  0  0  0
    0.3418   -0.4286    2.1563 C   0  0  0  0  0  0  0  0  0  0  0  0
   -0.3205   -0.1997    4.2062 H   0  0  0  0  0  0  0  0  0  0  0  0
    1.9672    0.3450    5.0487 H   0  0  0  0  0  0  0  0  0  0  0  0
    3.8882    0.4037    3.4911 H   0  0  0  0  0  0  0  0  0  0  0  0
    3.2034   -1.7123   -0.3884 H   0  0  0  0  0  0  0  0  0  0  0  0
    5.0928   -1.6648   -1.9869 H   0  0  0  0  0  0  0  0  0  0  0  0
    4.8113    1.6842    1.7429 H   0  0  0  0  0  0  0  0  0  0  0  0
    7.0348    3.2693    1.5518 H   0  0  0  0  0  0  0  0  0  0  0  0
    9.1560    4.3839    0.9201 H   0  0  0  0  0  0  0  0  0  0  0  0
   13.2916    2.1958   -4.4826 H   0  0  0  0  0  0  0  0  0  0  0  0
   15.3656    3.5632   -4.6608 H   0  0  0  0  0  0  0  0  0  0  0  0
   15.7685    5.4613   -3.1093 H   0  0  0  0  0  0  0  0  0  0  0  0
   14.1245    6.0317   -1.3308 H   0  0  0  0  0  0  0  0  0  0  0  0
    9.8595    6.4493   -0.9591 H   0  0  0  0  0  0  0  0  0  0  0  0
    9.6266    8.2375    0.7643 H   0  0  0  0  0  0  0  0  0  0  0  0
   11.2451    8.3625    2.6596 H   0  0  0  0  0  0  0  0  0  0  0  0
   13.0827    6.6835    2.8321 H   0  0  0  0  0  0  0  0  0  0  0  0
   13.2825    4.8733    1.1263 H   0  0  0  0  0  0  0  0  0  0  0  0
    8.0603   -2.2438   -1.8368 H   0  0  0  0  0  0  0  0  0  0  0  0
    8.6439   -3.5382   -3.8909 H   0  0  0  0  0  0  0  0  0  0  0  0
    8.4762   -2.4569   -6.1328 H   0  0  0  0  0  0  0  0  0  0  0  0
    7.7090   -0.0908   -6.3159 H   0  0  0  0  0  0  0  0  0  0  0  0
    7.0960    1.1835   -4.2602 H   0  0  0  0  0  0  0  0  0  0  0  0
    1.2582   -0.5654    0.2112 H   0  0  0  0  0  0  0  0  0  0  0  0
   -0.6555   -0.6639    1.7748 H   0  0  0  0  0  0  0  0  0  0  0  0
  1  2  2  0
  1 41  1  0
  1 42  1  0
  2  3  1  0
  2 43  1  0
  3  4  2  0
  3 44  1  0
  4  5  1  0
  4 40  1  0
  5  6  2  0
  5 10  1  0
  6  7  1  0
  6 45  1  0
  7  8  2  0
  7 46  1  0
  8  9  1  0
  8 33  1  0
  9 10  2  0
  9 11  1  0
 10 47  1  0
 11 12  2  0
 11 32  1  0
 12 13  1  0
 12 48  1  0
 13 14  2  0
 13 49  1  0
 14 15  1  0
 14 31  1  0
 15 16  1  0
 15 32  2  0
 16 17  1  0
 17 18  1  0
 17 31  2  0
 18 19  2  0
 18 23  1  0
 19 20  1  0
 19 50  1  0
 20 21  2  0
 20 51  1  0
 21 22  1  0
 21 52  1  0
 22 23  2  0
 22 53  1  0
 23 24  1  0
 24 25  1  0
 24 31  1  0
 25 26  2  0
 25 30  1  0
 26 27  1  0
 26 54  1  0
 27 28  2  0
 27 55  1  0
 28 29  1  0
 28 56  1  0
 29 30  2  0
 29 57  1  0
 30 58  1  0
 32 33  1  0
 33 34  1  0
 34 35  2  0
 34 39  1  0
 35 36  1  0
 35 59  1  0
 36 37  2  0
 36 60  1  0
 37 38  1  0
 37 61  1  0
 38 39  2  0
 38 62  1  0
 39 63  1  0
 40 41  2  0
 40 64  1  0
 41 65  1  0
M  END

