
     RDKit          3D

 45 48  0  0  0  0  0  0  0  0999 V2000
    3.7626   -1.4824    1.5403 C   0  0  0  0  0  0  0  0  0  0  0  0
    4.6625   -2.4136    0.7449 C   0  0  0  0  0  0  0  0  0  0  0  0
    4.2565   -2.5085   -0.6341 O   0  0  0  0  0  0  0  0  0  0  0  0
    4.6876   -1.5311   -1.4886 C   0  0  0  0  0  0  0  0  0  0  0  0
    5.4119   -0.6422   -1.1061 O   0  0  0  0  0  0  0  0  0  0  0  0
    4.1610   -1.6977   -2.8597 C   0  0  0  0  0  0  0  0  0  0  0  0
    4.4873   -0.8111   -3.9717 C   0  0  0  0  0  0  0  0  0  0  0  0
    5.3804    0.3620   -3.9871 C   0  0  0  0  0  0  0  0  0  0  0  0
    5.5028    1.4341   -3.1291 C   0  0  0  0  0  0  0  0  0  0  0  0
    6.4304    2.4174   -3.5795 C   0  0  0  0  0  0  0  0  0  0  0  0
    7.0182    2.0907   -4.7764 C   0  0  0  0  0  0  0  0  0  0  0  0
    6.4455    0.5726   -5.3652 S   0  0  0  0  0  0  0  0  0  0  0  0
    3.8478   -1.2052   -5.1230 C   0  0  0  0  0  0  0  0  0  0  0  0
    2.8585   -2.6112   -4.9390 S   0  0  0  0  0  0  0  0  0  0  0  0
    3.2943   -2.7249   -3.2595 C   0  0  0  0  0  0  0  0  0  0  0  0
    2.8206   -3.7596   -2.4728 N   0  0  0  0  0  0  0  0  0  0  0  0
    1.8993   -4.6949   -2.8684 C   0  0  0  0  0  0  0  0  0  0  0  0
    1.4017   -4.7148   -3.9787 O   0  0  0  0  0  0  0  0  0  0  0  0
    1.5183   -5.7078   -1.7918 C   0  0  0  0  0  0  0  0  0  0  0  0
    2.2193   -7.3754   -2.0856 S   0  0  0  0  0  0  0  0  0  0  0  0
    3.8305   -7.1193   -1.4512 C   0  0  0  0  0  0  0  0  0  0  0  0
    4.3524   -6.0548   -0.9282 N   0  0  0  0  0  0  0  0  0  0  0  0
    5.6593   -6.4346   -0.6124 C   0  0  0  0  0  0  0  0  0  0  0  0
    6.7259   -5.7308   -0.0416 C   0  0  0  0  0  0  0  0  0  0  0  0
    7.9279   -6.4207    0.1397 C   0  0  0  0  0  0  0  0  0  0  0  0
    8.0715   -7.7699   -0.2361 C   0  0  0  0  0  0  0  0  0  0  0  0
    7.0152   -8.4848   -0.8138 C   0  0  0  0  0  0  0  0  0  0  0  0
    5.8330   -7.7781   -0.9836 C   0  0  0  0  0  0  0  0  0  0  0  0
    4.6456   -8.2084   -1.5247 O   0  0  0  0  0  0  0  0  0  0  0  0
    4.0572   -1.4971    2.6020 H   0  0  0  0  0  0  0  0  0  0  0  0
    2.7092   -1.7963    1.4728 H   0  0  0  0  0  0  0  0  0  0  0  0
    3.8493   -0.4487    1.1760 H   0  0  0  0  0  0  0  0  0  0  0  0
    4.6004   -3.4456    1.1183 H   0  0  0  0  0  0  0  0  0  0  0  0
    5.7083   -2.0759    0.7819 H   0  0  0  0  0  0  0  0  0  0  0  0
    4.9460    1.5096   -2.1978 H   0  0  0  0  0  0  0  0  0  0  0  0
    6.6549    3.3338   -3.0309 H   0  0  0  0  0  0  0  0  0  0  0  0
    7.7653    2.6513   -5.3369 H   0  0  0  0  0  0  0  0  0  0  0  0
    3.8852   -0.7011   -6.0872 H   0  0  0  0  0  0  0  0  0  0  0  0
    3.2714   -3.8467   -1.5606 H   0  0  0  0  0  0  0  0  0  0  0  0
    0.4327   -5.8630   -1.8579 H   0  0  0  0  0  0  0  0  0  0  0  0
    1.7860   -5.3883   -0.7762 H   0  0  0  0  0  0  0  0  0  0  0  0
    6.6209   -4.6830    0.2415 H   0  0  0  0  0  0  0  0  0  0  0  0
    8.7809   -5.8998    0.5810 H   0  0  0  0  0  0  0  0  0  0  0  0
    9.0295   -8.2703   -0.0775 H   0  0  0  0  0  0  0  0  0  0  0  0
    7.1122   -9.5288   -1.1150 H   0  0  0  0  0  0  0  0  0  0  0  0
  1  2  1  0
  1 30  1  0
  1 31  1  0
  1 32  1  0
  2  3  1  0
  2 33  1  0
  2 34  1  0
  3  4  1  0
  4  5  2  0
  4  6  1  0
  6  7  1  0
  6 15  2  0
  7  8  1  0
  7 13  2  0
  8  9  2  0
  8 12  1  0
  9 10  1  0
  9 35  1  0
 10 11  2  0
 10 36  1  0
 11 12  1  0
 11 37  1  0
 13 14  1  0
 13 38  1  0
 14 15  1  0
 15 16  1  0
 16 17  1  0
 16 39  1  0
 17 18  2  0
 17 19  1  0
 19 20  1  0
 19 40  1  0
 19 41  1  0
 20 21  1  0
 21 22  2  0
 21 29  1  0
 22 23  1  0
 23 24  2  0
 23 28  1  0
 24 25  1  0
 24 42  1  0
 25 26  2  0
 25 43  1  0
 26 27  1  0
 26 44  1  0
 27 28  2  0
 27 45  1  0
 28 29  1  0
M  END

