
     RDKit          3D

 68 73  0  0  0  0  0  0  0  0999 V2000
    8.3537   -2.1837   -1.6334 O   0  0  0  0  0  0  0  0  0  0  0  0
    8.8022   -1.5826   -2.5818 C   0  0  0  0  0  0  0  0  0  0  0  0
    8.8574   -2.0469   -4.0327 C   0  0  2  0  0  0  0  0  0  0  0  0
    9.8156   -3.2710   -4.2749 C   0  0  1  0  0  0  0  0  0  0  0  0
    9.7087   -3.5780   -5.7643 C   0  0  0  0  0  0  0  0  0  0  0  0
   10.3171   -2.5808   -6.4267 C   0  0  0  0  0  0  0  0  0  0  0  0
   10.8394   -1.5934   -5.3894 C   0  0  2  0  0  0  0  0  0  0  0  0
   11.1946   -2.5704   -4.2438 C   0  0  0  0  0  0  0  0  0  0  0  0
    9.5598   -0.8968   -4.7959 C   0  0  2  0  0  0  0  0  0  0  0  0
    9.8664    0.1528   -3.7334 C   0  0  0  0  0  0  0  0  0  0  0  0
   10.4389    1.2071   -3.8835 O   0  0  0  0  0  0  0  0  0  0  0  0
    9.3764   -0.3106   -2.5100 N   0  0  0  0  0  0  0  0  0  0  0  0
    9.5017    0.4348   -1.2664 C   0  0  0  0  0  0  0  0  0  0  0  0
   10.8666    0.2325   -0.5854 C   0  0  0  0  0  0  0  0  0  0  0  0
   10.8981    0.8970    0.7073 N   0  0  0  0  0  0  0  0  0  0  0  0
   10.3764    0.1169    1.8285 C   0  0  0  0  0  0  0  0  0  0  0  0
   11.4191   -0.8488    2.4164 C   0  0  0  0  0  0  0  0  0  0  0  0
   12.6675   -0.1456    2.7444 N   0  0  0  0  0  0  0  0  0  0  0  0
   12.8657    0.3945    4.3303 S   0  0  1  0  0  0  0  0  0  0  0  0
   13.8952    1.4382    4.2876 O   0  0  0  0  0  0  0  0  0  0  0  0
   11.5513    0.6486    4.9356 O   0  0  0  0  0  0  0  0  0  0  0  0
   13.5561   -1.0310    5.1730 C   0  0  0  0  0  0  0  0  0  0  0  0
   14.8928   -1.3793    4.9549 C   0  0  0  0  0  0  0  0  0  0  0  0
   15.4237   -2.4796    5.6210 C   0  0  0  0  0  0  0  0  0  0  0  0
   14.6473   -3.2490    6.5167 C   0  0  0  0  0  0  0  0  0  0  0  0
   15.2711   -4.3967    7.1825 C   0  0  0  0  0  0  0  0  0  0  0  0
   14.6833   -5.2505    8.0496 C   0  0  0  0  0  0  0  0  0  0  0  0
   15.3003   -6.4002    8.7197 C   0  0  0  0  0  0  0  0  0  0  0  0
   16.6511   -6.7708    8.5444 C   0  0  0  0  0  0  0  0  0  0  0  0
   17.1827   -7.8744    9.2077 C   0  0  0  0  0  0  0  0  0  0  0  0
   16.3828   -8.6405   10.0653 C   0  0  0  0  0  0  0  0  0  0  0  0
   15.0434   -8.2892   10.2522 C   0  0  0  0  0  0  0  0  0  0  0  0
   14.5114   -7.1833    9.5874 C   0  0  0  0  0  0  0  0  0  0  0  0
   13.3071   -2.8597    6.7253 C   0  0  0  0  0  0  0  0  0  0  0  0
   12.7635   -1.7603    6.0654 C   0  0  0  0  0  0  0  0  0  0  0  0
   13.2078    0.6637    1.6428 C   0  0  0  0  0  0  0  0  0  0  0  0
   12.1290    1.5936    1.0669 C   0  0  0  0  0  0  0  0  0  0  0  0
    7.8333   -2.2694   -4.3649 H   0  0  0  0  0  0  0  0  0  0  0  0
    9.6452   -4.1041   -3.5811 H   0  0  0  0  0  0  0  0  0  0  0  0
    9.1472   -4.4119   -6.1903 H   0  0  0  0  0  0  0  0  0  0  0  0
   10.3568   -2.4293   -7.5072 H   0  0  0  0  0  0  0  0  0  0  0  0
   11.6097   -0.8848   -5.7196 H   0  0  0  0  0  0  0  0  0  0  0  0
   11.4316   -2.0791   -3.2864 H   0  0  0  0  0  0  0  0  0  0  0  0
   12.0172   -3.2492   -4.5098 H   0  0  0  0  0  0  0  0  0  0  0  0
    8.9575   -0.4262   -5.5862 H   0  0  0  0  0  0  0  0  0  0  0  0
    8.6927    0.0940   -0.6056 H   0  0  0  0  0  0  0  0  0  0  0  0
    9.3596    1.5019   -1.4858 H   0  0  0  0  0  0  0  0  0  0  0  0
   11.6413    0.6682   -1.2350 H   0  0  0  0  0  0  0  0  0  0  0  0
   11.0751   -0.8571   -0.5289 H   0  0  0  0  0  0  0  0  0  0  0  0
    9.4849   -0.4449    1.5071 H   0  0  0  0  0  0  0  0  0  0  0  0
   10.0618    0.8067    2.6300 H   0  0  0  0  0  0  0  0  0  0  0  0
   11.6682   -1.6460    1.6935 H   0  0  0  0  0  0  0  0  0  0  0  0
   11.0253   -1.3404    3.3169 H   0  0  0  0  0  0  0  0  0  0  0  0
   15.5102   -0.7856    4.2783 H   0  0  0  0  0  0  0  0  0  0  0  0
   16.4686   -2.7539    5.4535 H   0  0  0  0  0  0  0  0  0  0  0  0
   16.3241   -4.5494    6.9254 H   0  0  0  0  0  0  0  0  0  0  0  0
   13.6288   -5.0976    8.3019 H   0  0  0  0  0  0  0  0  0  0  0  0
   17.2955   -6.1887    7.8822 H   0  0  0  0  0  0  0  0  0  0  0  0
   18.2318   -8.1416    9.0564 H   0  0  0  0  0  0  0  0  0  0  0  0
   16.8039   -9.5054   10.5839 H   0  0  0  0  0  0  0  0  0  0  0  0
   14.4091   -8.8787   10.9191 H   0  0  0  0  0  0  0  0  0  0  0  0
   13.4621   -6.9143    9.7390 H   0  0  0  0  0  0  0  0  0  0  0  0
   12.6767   -3.4171    7.4206 H   0  0  0  0  0  0  0  0  0  0  0  0
   11.7330   -1.4489    6.2437 H   0  0  0  0  0  0  0  0  0  0  0  0
   13.5725   -0.0350    0.8675 H   0  0  0  0  0  0  0  0  0  0  0  0
   14.0664    1.2387    2.0127 H   0  0  0  0  0  0  0  0  0  0  0  0
   12.5174    2.1294    0.1860 H   0  0  0  0  0  0  0  0  0  0  0  0
   11.8901    2.3553    1.8312 H   0  0  0  0  0  0  0  0  0  0  0  0
  1  2  2  0
  2  3  1  0
  2 12  1  0
  3  4  1  0
  3  9  1  0
  3 38  1  6
  4  5  1  0
  4  8  1  0
  4 39  1  1
  5  6  2  0
  5 40  1  0
  6  7  1  0
  6 41  1  0
  7  8  1  0
  7  9  1  0
  7 42  1  6
  8 43  1  0
  8 44  1  0
  9 10  1  0
  9 45  1  6
 10 11  2  0
 10 12  1  0
 12 13  1  0
 13 14  1  0
 13 46  1  0
 13 47  1  0
 14 15  1  0
 14 48  1  0
 14 49  1  0
 15 16  1  0
 15 37  1  0
 16 17  1  0
 16 50  1  0
 16 51  1  0
 17 18  1  0
 17 52  1  0
 17 53  1  0
 18 19  1  0
 18 36  1  0
 19 20  2  0
 19 21  2  0
 19 22  1  1
 22 23  2  0
 22 35  1  0
 23 24  1  0
 23 54  1  0
 24 25  2  0
 24 55  1  0
 25 26  1  0
 25 34  1  0
 26 27  2  0
 26 56  1  0
 27 28  1  0
 27 57  1  0
 28 29  2  0
 28 33  1  0
 29 30  1  0
 29 58  1  0
 30 31  2  0
 30 59  1  0
 31 32  1  0
 31 60  1  0
 32 33  2  0
 32 61  1  0
 33 62  1  0
 34 35  2  0
 34 63  1  0
 35 64  1  0
 36 37  1  0
 36 65  1  0
 36 66  1  0
 37 67  1  0
 37 68  1  0
M  END

