
     RDKit          3D

 51 53  0  0  0  0  0  0  0  0999 V2000
    2.4081   -1.8615    1.2043 O   0  0  0  0  0  0  0  0  0  0  0  0
    1.8695   -1.5285    0.1858 C   0  0  0  0  0  0  0  0  0  0  0  0
    0.5172   -1.4561    0.1208 O   0  0  0  0  0  0  0  0  0  0  0  0
    2.5978   -1.1859   -1.1088 C   0  0  0  0  0  0  0  0  0  0  0  0
    4.1120   -1.0869   -0.9439 C   0  0  0  0  0  0  0  0  0  0  0  0
    4.8409   -0.8743   -2.2754 C   0  0  0  0  0  0  0  0  0  0  0  0
    6.2820   -0.7415   -2.1054 N   0  0  0  0  0  0  0  0  0  0  0  0
    7.0098   -1.9945   -1.8883 C   0  0  0  0  0  0  0  0  0  0  0  0
    7.3379   -2.7332   -3.2000 C   0  0  0  0  0  0  0  0  0  0  0  0
    8.0358   -1.8924   -4.1775 N   0  0  0  0  0  0  0  0  0  0  0  0
    9.4774   -1.7038   -3.9666 C   0  0  0  0  0  0  0  0  0  0  0  0
   10.2959   -2.9793   -4.0741 C   0  0  0  0  0  0  0  0  0  0  0  0
   10.6387   -3.6515   -2.8892 C   0  0  0  0  0  0  0  0  0  0  0  0
   11.4062   -4.8173   -2.8902 C   0  0  0  0  0  0  0  0  0  0  0  0
   11.8636   -5.3305   -4.1045 C   0  0  0  0  0  0  0  0  0  0  0  0
   11.5537   -4.6667   -5.2914 C   0  0  0  0  0  0  0  0  0  0  0  0
   10.7734   -3.4936   -5.3084 C   0  0  0  0  0  0  0  0  0  0  0  0
   10.5396   -2.8341   -6.6281 C   0  0  0  0  0  0  0  0  0  0  0  0
    9.2564   -2.4606   -7.0690 C   0  0  0  0  0  0  0  0  0  0  0  0
    9.0623   -1.8903   -8.3288 C   0  0  0  0  0  0  0  0  0  0  0  0
   10.1584   -1.6808   -9.1692 C   0  0  0  0  0  0  0  0  0  0  0  0
    9.9197   -0.9639  -10.7481 Cl  0  0  0  0  0  0  0  0  0  0  0  0
   11.4451   -2.0373   -8.7576 C   0  0  0  0  0  0  0  0  0  0  0  0
   11.6246   -2.6111   -7.4982 C   0  0  0  0  0  0  0  0  0  0  0  0
    7.2962   -0.6452   -4.3933 C   0  0  0  0  0  0  0  0  0  0  0  0
    6.9752    0.0963   -3.0827 C   0  0  0  0  0  0  0  0  0  0  0  0
    0.2350   -1.1693   -0.7593 H   0  0  0  0  0  0  0  0  0  0  0  0
    2.1808   -0.2438   -1.5116 H   0  0  0  0  0  0  0  0  0  0  0  0
    2.3356   -1.9674   -1.8479 H   0  0  0  0  0  0  0  0  0  0  0  0
    4.4668   -2.0033   -0.4468 H   0  0  0  0  0  0  0  0  0  0  0  0
    4.3642   -0.2595   -0.2621 H   0  0  0  0  0  0  0  0  0  0  0  0
    4.4716    0.0587   -2.7344 H   0  0  0  0  0  0  0  0  0  0  0  0
    4.5495   -1.6874   -2.9797 H   0  0  0  0  0  0  0  0  0  0  0  0
    6.4276   -2.6486   -1.2205 H   0  0  0  0  0  0  0  0  0  0  0  0
    7.9456   -1.7606   -1.3480 H   0  0  0  0  0  0  0  0  0  0  0  0
    6.3986   -3.0789   -3.6688 H   0  0  0  0  0  0  0  0  0  0  0  0
    7.9342   -3.6358   -2.9985 H   0  0  0  0  0  0  0  0  0  0  0  0
    9.7148   -1.2367   -2.9876 H   0  0  0  0  0  0  0  0  0  0  0  0
    9.8164   -0.9915   -4.7348 H   0  0  0  0  0  0  0  0  0  0  0  0
   10.3033   -3.2348   -1.9351 H   0  0  0  0  0  0  0  0  0  0  0  0
   11.6487   -5.3157   -1.9483 H   0  0  0  0  0  0  0  0  0  0  0  0
   12.4634   -6.2438   -4.1308 H   0  0  0  0  0  0  0  0  0  0  0  0
   11.9114   -5.0722   -6.2408 H   0  0  0  0  0  0  0  0  0  0  0  0
    8.4045   -2.6159   -6.4041 H   0  0  0  0  0  0  0  0  0  0  0  0
    8.0616   -1.6119   -8.6644 H   0  0  0  0  0  0  0  0  0  0  0  0
   12.2961   -1.8619   -9.4179 H   0  0  0  0  0  0  0  0  0  0  0  0
   12.6347   -2.8767   -7.1774 H   0  0  0  0  0  0  0  0  0  0  0  0
    6.3497   -0.8949   -4.9087 H   0  0  0  0  0  0  0  0  0  0  0  0
    7.8705    0.0019   -5.0771 H   0  0  0  0  0  0  0  0  0  0  0  0
    6.3689    0.9941   -3.2875 H   0  0  0  0  0  0  0  0  0  0  0  0
    7.9166    0.4527   -2.6246 H   0  0  0  0  0  0  0  0  0  0  0  0
  1  2  2  0
  2  3  1  0
  2  4  1  0
  3 27  1  0
  4  5  1  0
  4 28  1  0
  4 29  1  0
  5  6  1  0
  5 30  1  0
  5 31  1  0
  6  7  1  0
  6 32  1  0
  6 33  1  0
  7  8  1  0
  7 26  1  0
  8  9  1  0
  8 34  1  0
  8 35  1  0
  9 10  1  0
  9 36  1  0
  9 37  1  0
 10 11  1  0
 10 25  1  0
 11 12  1  0
 11 38  1  0
 11 39  1  0
 12 13  2  0
 12 17  1  0
 13 14  1  0
 13 40  1  0
 14 15  2  0
 14 41  1  0
 15 16  1  0
 15 42  1  0
 16 17  2  0
 16 43  1  0
 17 18  1  0
 18 19  2  0
 18 24  1  0
 19 20  1  0
 19 44  1  0
 20 21  2  0
 20 45  1  0
 21 22  1  0
 21 23  1  0
 23 24  2  0
 23 46  1  0
 24 47  1  0
 25 26  1  0
 25 48  1  0
 25 49  1  0
 26 50  1  0
 26 51  1  0
M  END

