
     RDKit          3D

 53 55  0  0  0  0  0  0  0  0999 V2000
   -0.5322    0.9171    2.2070 C   0  0  0  0  0  0  0  0  0  0  0  0
   -0.3292    0.3013    3.4525 O   0  0  0  0  0  0  0  0  0  0  0  0
    0.9979   -0.0856    3.6878 C   0  0  0  0  0  0  0  0  0  0  0  0
    1.0347   -0.7760    5.0494 C   0  0  0  0  0  0  0  0  0  0  0  0
    2.3716   -1.2089    5.4129 N   0  0  0  0  0  0  0  0  0  0  0  0
    3.2005   -0.6653    6.3534 C   0  0  0  0  0  0  0  0  0  0  0  0
    4.3812   -1.3791    6.3079 C   0  0  0  0  0  0  0  0  0  0  0  0
    4.1666   -2.3447    5.2920 C   0  0  0  0  0  0  0  0  0  0  0  0
    5.1704   -3.3638    4.8702 C   0  0  0  0  0  0  0  0  0  0  0  0
    6.2766   -3.4141    5.3975 O   0  0  0  0  0  0  0  0  0  0  0  0
    4.8127   -4.2322    3.8890 N   0  0  0  0  0  0  0  0  0  0  0  0
    5.6332   -5.2860    3.3119 C   0  0  0  0  0  0  0  0  0  0  0  0
    4.4057   -5.6744    2.4106 C   0  0  2  0  0  0  0  0  0  0  0  0
    3.6493   -4.4766    3.0347 C   0  0  0  0  0  0  0  0  0  0  0  0
    3.7694   -7.0465    2.6511 C   0  0  0  0  0  0  0  0  0  0  0  0
    4.4714   -8.1465    1.9972 N   0  0  0  0  0  0  0  0  0  0  0  0
    5.6229   -8.6862    2.6990 C   0  0  0  0  0  0  0  0  0  0  0  0
    4.6893   -7.8728    0.5730 C   0  0  1  0  0  0  0  0  0  0  0  0
    5.4027   -8.6240    0.1896 H   0  0  0  0  0  0  0  0  0  0  0  0
    3.3879   -8.0209   -0.2605 C   0  0  0  0  0  0  0  0  0  0  0  0
    3.0516   -7.1403   -1.0374 O   0  0  0  0  0  0  0  0  0  0  0  0
    2.6564   -9.1734   -0.1041 N   0  0  0  0  0  0  0  0  0  0  0  0
    3.0560  -10.3410    0.6609 C   0  0  0  0  0  0  0  0  0  0  0  0
    1.3804   -9.2825   -0.7924 C   0  0  0  0  0  0  0  0  0  0  0  0
    5.3135   -6.4851    0.3602 C   0  0  0  0  0  0  0  0  0  0  0  0
    4.5914   -5.4656    1.0284 O   0  0  0  0  0  0  0  0  0  0  0  0
    2.9453   -2.2251    4.7607 N   0  0  0  0  0  0  0  0  0  0  0  0
   -1.5996    1.1693    2.1275 H   0  0  0  0  0  0  0  0  0  0  0  0
   -0.2628    0.2477    1.3654 H   0  0  0  0  0  0  0  0  0  0  0  0
    0.0597    1.8492    2.1039 H   0  0  0  0  0  0  0  0  0  0  0  0
    1.6814    0.7901    3.6907 H   0  0  0  0  0  0  0  0  0  0  0  0
    1.3647   -0.7846    2.9098 H   0  0  0  0  0  0  0  0  0  0  0  0
    0.3657   -1.6494    5.0343 H   0  0  0  0  0  0  0  0  0  0  0  0
    0.6733   -0.0848    5.8241 H   0  0  0  0  0  0  0  0  0  0  0  0
    2.8818    0.1708    6.9724 H   0  0  0  0  0  0  0  0  0  0  0  0
    5.2796   -1.2536    6.9049 H   0  0  0  0  0  0  0  0  0  0  0  0
    5.9794   -6.0311    4.0466 H   0  0  0  0  0  0  0  0  0  0  0  0
    6.5023   -4.9102    2.7455 H   0  0  0  0  0  0  0  0  0  0  0  0
    2.7208   -4.7136    3.5782 H   0  0  0  0  0  0  0  0  0  0  0  0
    3.4443   -3.6797    2.3035 H   0  0  0  0  0  0  0  0  0  0  0  0
    2.7392   -7.0028    2.2521 H   0  0  0  0  0  0  0  0  0  0  0  0
    3.6928   -7.2530    3.7302 H   0  0  0  0  0  0  0  0  0  0  0  0
    5.3582   -8.8710    3.7520 H   0  0  0  0  0  0  0  0  0  0  0  0
    6.5306   -8.0474    2.6910 H   0  0  0  0  0  0  0  0  0  0  0  0
    5.9069   -9.6569    2.2562 H   0  0  0  0  0  0  0  0  0  0  0  0
    4.1392  -10.3758    0.8170 H   0  0  0  0  0  0  0  0  0  0  0  0
    2.7706  -11.2474    0.0998 H   0  0  0  0  0  0  0  0  0  0  0  0
    2.5702  -10.3814    1.6514 H   0  0  0  0  0  0  0  0  0  0  0  0
    1.1566   -8.3249   -1.2757 H   0  0  0  0  0  0  0  0  0  0  0  0
    0.5768   -9.5345   -0.0781 H   0  0  0  0  0  0  0  0  0  0  0  0
    1.4103  -10.0725   -1.5648 H   0  0  0  0  0  0  0  0  0  0  0  0
    5.3070   -6.2192   -0.7039 H   0  0  0  0  0  0  0  0  0  0  0  0
    6.3635   -6.5062    0.7155 H   0  0  0  0  0  0  0  0  0  0  0  0
  1  2  1  0
  1 28  1  0
  1 29  1  0
  1 30  1  0
  2  3  1  0
  3  4  1  0
  3 31  1  0
  3 32  1  0
  4  5  1  0
  4 33  1  0
  4 34  1  0
  5  6  1  0
  5 27  1  0
  6  7  2  0
  6 35  1  0
  7  8  1  0
  7 36  1  0
  8  9  1  0
  8 27  2  0
  9 10  2  0
  9 11  1  0
 11 12  1  0
 11 14  1  0
 12 13  1  0
 12 37  1  0
 12 38  1  0
 13 14  1  0
 13 15  1  0
 13 26  1  6
 14 39  1  0
 14 40  1  0
 15 16  1  0
 15 41  1  0
 15 42  1  0
 16 17  1  0
 16 18  1  0
 17 43  1  0
 17 44  1  0
 17 45  1  0
 18 19  1  6
 18 20  1  0
 18 25  1  0
 20 21  2  0
 20 22  1  0
 22 23  1  0
 22 24  1  0
 23 46  1  0
 23 47  1  0
 23 48  1  0
 24 49  1  0
 24 50  1  0
 24 51  1  0
 25 26  1  0
 25 52  1  0
 25 53  1  0
M  END

