
     RDKit          3D

 51 53  0  0  0  0  0  0  0  0999 V2000
    0.8136   -0.0020   -0.3883 C   0  0  0  0  0  0  0  0  0  0  0  0
    2.0064   -0.1556    0.3566 O   0  0  0  0  0  0  0  0  0  0  0  0
    2.6040    0.9420    0.8803 C   0  0  0  0  0  0  0  0  0  0  0  0
    2.1680    2.2505    0.6566 C   0  0  0  0  0  0  0  0  0  0  0  0
    2.8244    3.3276    1.2720 C   0  0  0  0  0  0  0  0  0  0  0  0
    2.3889    4.6745    1.0293 N   0  0  0  0  0  0  0  0  0  0  0  0
    3.3146    5.6313    0.7369 C   0  0  0  0  0  0  0  0  0  0  0  0
    2.9664    6.9432    0.5956 C   0  0  0  0  0  0  0  0  0  0  0  0
    1.5822    7.2642    0.7913 C   0  0  0  0  0  0  0  0  0  0  0  0
    1.1708    8.6356    0.7100 C   0  0  0  0  0  0  0  0  0  0  0  0
    0.8430    9.8075    0.6347 C   0  0  0  0  0  0  0  0  0  0  0  0
    0.4289   11.1711    0.5533 C   0  0  0  0  0  0  0  0  0  0  0  0
    1.3630   12.1942    0.2809 C   0  0  0  0  0  0  0  0  0  0  0  0
    0.9484   13.5228    0.2032 C   0  0  0  0  0  0  0  0  0  0  0  0
   -0.3979   13.8529    0.3950 C   0  0  0  0  0  0  0  0  0  0  0  0
   -1.3321   12.8467    0.6658 C   0  0  0  0  0  0  0  0  0  0  0  0
   -0.9273   11.5152    0.7452 C   0  0  0  0  0  0  0  0  0  0  0  0
    0.6666    6.3545    1.0463 N   0  0  0  0  0  0  0  0  0  0  0  0
    0.9794    5.0190    1.1319 C   0  0  0  0  0  0  0  0  0  0  0  0
    0.1582    4.1410    1.2897 O   0  0  0  0  0  0  0  0  0  0  0  0
    3.9163    3.0992    2.1138 C   0  0  0  0  0  0  0  0  0  0  0  0
    4.3694    1.7911    2.3116 C   0  0  0  0  0  0  0  0  0  0  0  0
    3.7335    0.7091    1.7070 C   0  0  0  0  0  0  0  0  0  0  0  0
    4.1576   -0.5576    1.9844 O   0  0  0  0  0  0  0  0  0  0  0  0
    4.7316   -1.3279    0.9206 C   0  0  0  0  0  0  0  0  0  0  0  0
    5.1127   -2.6946    1.5061 C   0  0  1  0  0  0  0  0  0  0  0  0
    3.8580   -3.4657    1.9445 C   0  0  0  0  0  0  0  0  0  0  0  0
    5.9205   -3.4875    0.4798 C   0  0  0  0  0  0  0  0  0  0  0  0
    5.9731   -2.4858    2.6209 O   0  0  0  0  0  0  0  0  0  0  0  0
    0.4786   -1.0146   -0.6485 H   0  0  0  0  0  0  0  0  0  0  0  0
    0.9827    0.5699   -1.3179 H   0  0  0  0  0  0  0  0  0  0  0  0
    0.0291    0.5006    0.2030 H   0  0  0  0  0  0  0  0  0  0  0  0
    1.2972    2.4483    0.0394 H   0  0  0  0  0  0  0  0  0  0  0  0
    4.3406    5.2810    0.6110 H   0  0  0  0  0  0  0  0  0  0  0  0
    3.7047    7.7043    0.3505 H   0  0  0  0  0  0  0  0  0  0  0  0
    2.4125   11.9323    0.1321 H   0  0  0  0  0  0  0  0  0  0  0  0
    1.6794   14.3071   -0.0083 H   0  0  0  0  0  0  0  0  0  0  0  0
   -0.7195   14.8956    0.3335 H   0  0  0  0  0  0  0  0  0  0  0  0
   -2.3839   13.1023    0.8160 H   0  0  0  0  0  0  0  0  0  0  0  0
   -1.6511   10.7255    0.9562 H   0  0  0  0  0  0  0  0  0  0  0  0
    4.4026    3.9293    2.6293 H   0  0  0  0  0  0  0  0  0  0  0  0
    5.2192    1.5864    2.9659 H   0  0  0  0  0  0  0  0  0  0  0  0
    5.6387   -0.8140    0.5549 H   0  0  0  0  0  0  0  0  0  0  0  0
    4.0143   -1.4340    0.0921 H   0  0  0  0  0  0  0  0  0  0  0  0
    3.2098   -3.7068    1.0867 H   0  0  0  0  0  0  0  0  0  0  0  0
    3.2682   -2.8671    2.6548 H   0  0  0  0  0  0  0  0  0  0  0  0
    4.1555   -4.4034    2.4376 H   0  0  0  0  0  0  0  0  0  0  0  0
    5.3348   -3.6772   -0.4331 H   0  0  0  0  0  0  0  0  0  0  0  0
    6.2167   -4.4556    0.9111 H   0  0  0  0  0  0  0  0  0  0  0  0
    6.8382   -2.9432    0.2093 H   0  0  0  0  0  0  0  0  0  0  0  0
    5.5295   -1.8361    3.1859 H   0  0  0  0  0  0  0  0  0  0  0  0
  1  2  1  0
  1 30  1  0
  1 31  1  0
  1 32  1  0
  2  3  1  0
  3  4  2  0
  3 23  1  0
  4  5  1  0
  4 33  1  0
  5  6  1  0
  5 21  2  0
  6  7  1  0
  6 19  1  0
  7  8  2  0
  7 34  1  0
  8  9  1  0
  8 35  1  0
  9 10  1  0
  9 18  2  0
 10 11  3  0
 11 12  1  0
 12 13  2  0
 12 17  1  0
 13 14  1  0
 13 36  1  0
 14 15  2  0
 14 37  1  0
 15 16  1  0
 15 38  1  0
 16 17  2  0
 16 39  1  0
 17 40  1  0
 18 19  1  0
 19 20  2  0
 21 22  1  0
 21 41  1  0
 22 23  2  0
 22 42  1  0
 23 24  1  0
 24 25  1  0
 25 26  1  0
 25 43  1  0
 25 44  1  0
 26 27  1  0
 26 28  1  0
 26 29  1  1
 27 45  1  0
 27 46  1  0
 27 47  1  0
 28 48  1  0
 28 49  1  0
 28 50  1  0
 29 51  1  0
M  END

