
     RDKit          3D

 44 46  0  0  0  0  0  0  0  0999 V2000
    1.5799    0.2707    0.1831 O   0  0  0  0  0  0  0  0  0  0  0  0
    2.3854   -0.0827   -0.6673 C   0  0  0  0  0  0  0  0  0  0  0  0
    3.1828   -1.3747   -0.5266 C   0  0  0  0  0  0  0  0  0  0  0  0
    2.3200   -2.5102    0.0535 C   0  0  0  0  0  0  0  0  0  0  0  0
    3.0690   -3.7019    0.3992 N   0  0  0  0  0  0  0  0  0  0  0  0
    3.4469   -3.8325    1.8014 C   0  0  0  0  0  0  0  0  0  0  0  0
    4.5940   -4.8154    2.0021 C   0  0  0  0  0  0  0  0  0  0  0  0
    4.2470   -6.1556    1.3557 C   0  0  0  0  0  0  0  0  0  0  0  0
    3.8625   -5.9637   -0.0949 C   0  0  0  0  0  0  0  0  0  0  0  0
    4.0708   -6.9782   -1.0326 C   0  0  0  0  0  0  0  0  0  0  0  0
    3.7093   -6.8383   -2.3756 C   0  0  0  0  0  0  0  0  0  0  0  0
    3.1335   -5.6353   -2.7856 C   0  0  0  0  0  0  0  0  0  0  0  0
    2.9265   -4.5971   -1.8766 C   0  0  0  0  0  0  0  0  0  0  0  0
    3.2780   -4.7332   -0.5123 C   0  0  0  0  0  0  0  0  0  0  0  0
    2.6506    0.6575   -1.7836 N   0  0  0  0  0  0  0  0  0  0  0  0
    1.9787    1.9212   -2.0617 C   0  0  0  0  0  0  0  0  0  0  0  0
    0.7900    1.7961   -2.9969 C   0  0  0  0  0  0  0  0  0  0  0  0
   -0.3921    1.1737   -2.5571 C   0  0  0  0  0  0  0  0  0  0  0  0
   -1.4881    1.0347   -3.4088 C   0  0  0  0  0  0  0  0  0  0  0  0
   -1.3987    1.5268   -4.7110 C   0  0  0  0  0  0  0  0  0  0  0  0
   -2.4513    1.3972   -5.5325 F   0  0  0  0  0  0  0  0  0  0  0  0
   -0.2458    2.1516   -5.1768 C   0  0  0  0  0  0  0  0  0  0  0  0
    0.8449    2.2807   -4.3108 C   0  0  0  0  0  0  0  0  0  0  0  0
    4.0132   -1.1693    0.1716 H   0  0  0  0  0  0  0  0  0  0  0  0
    3.6417   -1.6767   -1.4814 H   0  0  0  0  0  0  0  0  0  0  0  0
    1.5081   -2.7600   -0.6487 H   0  0  0  0  0  0  0  0  0  0  0  0
    1.8249   -2.1242    0.9568 H   0  0  0  0  0  0  0  0  0  0  0  0
    2.5748   -4.1499    2.4118 H   0  0  0  0  0  0  0  0  0  0  0  0
    3.7396   -2.8375    2.1782 H   0  0  0  0  0  0  0  0  0  0  0  0
    4.7894   -4.9301    3.0803 H   0  0  0  0  0  0  0  0  0  0  0  0
    5.5121   -4.4076    1.5449 H   0  0  0  0  0  0  0  0  0  0  0  0
    3.4094   -6.6179    1.9122 H   0  0  0  0  0  0  0  0  0  0  0  0
    5.0906   -6.8604    1.4321 H   0  0  0  0  0  0  0  0  0  0  0  0
    4.5291   -7.9117   -0.6905 H   0  0  0  0  0  0  0  0  0  0  0  0
    3.8796   -7.6506   -3.0855 H   0  0  0  0  0  0  0  0  0  0  0  0
    2.8437   -5.4908   -3.8301 H   0  0  0  0  0  0  0  0  0  0  0  0
    2.4875   -3.6683   -2.2402 H   0  0  0  0  0  0  0  0  0  0  0  0
    3.2441    0.2590   -2.5012 H   0  0  0  0  0  0  0  0  0  0  0  0
    2.7132    2.6271   -2.4811 H   0  0  0  0  0  0  0  0  0  0  0  0
    1.6511    2.3125   -1.0880 H   0  0  0  0  0  0  0  0  0  0  0  0
   -0.4464    0.7989   -1.5317 H   0  0  0  0  0  0  0  0  0  0  0  0
   -2.4133    0.5571   -3.0799 H   0  0  0  0  0  0  0  0  0  0  0  0
   -0.2148    2.5277   -6.2012 H   0  0  0  0  0  0  0  0  0  0  0  0
    1.7531    2.7743   -4.6691 H   0  0  0  0  0  0  0  0  0  0  0  0
  1  2  2  0
  2  3  1  0
  2 15  1  0
  3  4  1  0
  3 24  1  0
  3 25  1  0
  4  5  1  0
  4 26  1  0
  4 27  1  0
  5  6  1  0
  5 14  1  0
  6  7  1  0
  6 28  1  0
  6 29  1  0
  7  8  1  0
  7 30  1  0
  7 31  1  0
  8  9  1  0
  8 32  1  0
  8 33  1  0
  9 10  2  0
  9 14  1  0
 10 11  1  0
 10 34  1  0
 11 12  2  0
 11 35  1  0
 12 13  1  0
 12 36  1  0
 13 14  2  0
 13 37  1  0
 15 16  1  0
 15 38  1  0
 16 17  1  0
 16 39  1  0
 16 40  1  0
 17 18  2  0
 17 23  1  0
 18 19  1  0
 18 41  1  0
 19 20  2  0
 19 42  1  0
 20 21  1  0
 20 22  1  0
 22 23  2  0
 22 43  1  0
 23 44  1  0
M  END

