
     RDKit          3D

 53 54  0  0  0  0  0  0  0  0999 V2000
    0.9960    1.9674    5.3479 C   0  0  0  0  0  0  0  0  0  0  0  0
    1.5596    2.2651    3.9559 C   0  0  0  0  0  0  0  0  0  0  0  0
    2.5083    1.2745    3.4651 N   0  0  0  0  0  0  0  0  0  0  0  0
    2.0157   -0.0354    3.0767 C   0  0  0  0  0  0  0  0  0  0  0  0
    3.8462    1.4933    3.5569 C   0  0  0  0  0  0  0  0  0  0  0  0
    4.7318    0.5895    3.3271 N   0  0  0  0  0  0  0  0  0  0  0  0
    6.0836    0.9140    3.2814 C   0  0  0  0  0  0  0  0  0  0  0  0
    6.5888    2.1065    2.7318 C   0  0  0  0  0  0  0  0  0  0  0  0
    7.9620    2.3341    2.7045 C   0  0  0  0  0  0  0  0  0  0  0  0
    8.6091    3.9238    1.8575 Br  0  0  0  0  0  0  0  0  0  0  0  0
    8.8428    1.3737    3.2455 C   0  0  0  0  0  0  0  0  0  0  0  0
   10.2416    1.5802    3.2769 N   0  0  0  0  0  0  0  0  0  0  0  0
   10.6507    2.5319    4.3097 C   0  0  0  0  0  0  0  0  0  0  0  0
   11.0757    0.3644    3.1573 C   0  0  1  0  0  0  0  0  0  0  0  0
   10.7697   -0.3842    1.8435 C   0  0  0  0  0  0  0  0  0  0  0  0
   11.1856    0.4146    0.6014 C   0  0  0  0  0  0  0  0  0  0  0  0
   12.6648    0.8102    0.6412 C   0  0  2  0  0  0  0  0  0  0  0  0
   13.5036   -0.3708    0.5573 O   0  0  0  0  0  0  0  0  0  0  0  0
   13.8664   -0.7567   -0.6845 C   0  0  1  0  0  0  0  0  0  0  0  0
   14.8291    0.0713   -1.1914 F   0  0  0  0  0  0  0  0  0  0  0  0
   14.4015   -1.9861   -0.5951 F   0  0  0  0  0  0  0  0  0  0  0  0
   13.0199    1.5144    1.9493 C   0  0  0  0  0  0  0  0  0  0  0  0
   12.5802    0.6983    3.1722 C   0  0  0  0  0  0  0  0  0  0  0  0
    8.3435    0.2326    3.7340 N   0  0  0  0  0  0  0  0  0  0  0  0
    7.0374   -0.0283    3.7503 C   0  0  0  0  0  0  0  0  0  0  0  0
    6.5873   -1.3539    4.3024 C   0  0  0  0  0  0  0  0  0  0  0  0
    0.2895    2.7567    5.6506 H   0  0  0  0  0  0  0  0  0  0  0  0
    1.8008    1.9208    6.0988 H   0  0  0  0  0  0  0  0  0  0  0  0
    0.4541    1.0088    5.3702 H   0  0  0  0  0  0  0  0  0  0  0  0
    2.0671    3.2431    3.9606 H   0  0  0  0  0  0  0  0  0  0  0  0
    0.7333    2.3452    3.2273 H   0  0  0  0  0  0  0  0  0  0  0  0
    1.0338    0.0711    2.5901 H   0  0  0  0  0  0  0  0  0  0  0  0
    1.9088   -0.7175    3.9397 H   0  0  0  0  0  0  0  0  0  0  0  0
    2.7276   -0.4945    2.3784 H   0  0  0  0  0  0  0  0  0  0  0  0
    4.1061    2.5282    3.8511 H   0  0  0  0  0  0  0  0  0  0  0  0
    5.9125    2.8339    2.2792 H   0  0  0  0  0  0  0  0  0  0  0  0
    9.9074    3.3359    4.3859 H   0  0  0  0  0  0  0  0  0  0  0  0
   11.6121    3.0061    4.0648 H   0  0  0  0  0  0  0  0  0  0  0  0
   10.7398    2.0552    5.3083 H   0  0  0  0  0  0  0  0  0  0  0  0
   10.8600   -0.3161    4.0037 H   0  0  0  0  0  0  0  0  0  0  0  0
    9.7053   -0.6490    1.7880 H   0  0  0  0  0  0  0  0  0  0  0  0
   11.3248   -1.3360    1.8667 H   0  0  0  0  0  0  0  0  0  0  0  0
   10.5909    1.3401    0.5338 H   0  0  0  0  0  0  0  0  0  0  0  0
   10.9737   -0.1640   -0.3139 H   0  0  0  0  0  0  0  0  0  0  0  0
   12.9140    1.4697   -0.2070 H   0  0  0  0  0  0  0  0  0  0  0  0
   13.0350   -0.7724   -1.4162 H   0  0  0  0  0  0  0  0  0  0  0  0
   12.5211    2.4972    1.9476 H   0  0  0  0  0  0  0  0  0  0  0  0
   14.1064    1.6940    1.9725 H   0  0  0  0  0  0  0  0  0  0  0  0
   12.8727    1.2110    4.1005 H   0  0  0  0  0  0  0  0  0  0  0  0
   13.1240   -0.2597    3.1740 H   0  0  0  0  0  0  0  0  0  0  0  0
    7.4624   -1.9788    4.5231 H   0  0  0  0  0  0  0  0  0  0  0  0
    5.9246   -1.8714    3.5909 H   0  0  0  0  0  0  0  0  0  0  0  0
    6.0015   -1.2201    5.2273 H   0  0  0  0  0  0  0  0  0  0  0  0
  1  2  1  0
  1 27  1  0
  1 28  1  0
  1 29  1  0
  2  3  1  0
  2 30  1  0
  2 31  1  0
  3  4  1  0
  3  5  1  0
  4 32  1  0
  4 33  1  0
  4 34  1  0
  5  6  2  0
  5 35  1  0
  6  7  1  0
  7  8  2  0
  7 25  1  0
  8  9  1  0
  8 36  1  0
  9 10  1  0
  9 11  2  0
 11 12  1  0
 11 24  1  0
 12 13  1  0
 12 14  1  0
 13 37  1  0
 13 38  1  0
 13 39  1  0
 14 15  1  0
 14 23  1  0
 14 40  1  1
 15 16  1  0
 15 41  1  0
 15 42  1  0
 16 17  1  0
 16 43  1  0
 16 44  1  0
 17 18  1  0
 17 22  1  0
 17 45  1  6
 18 19  1  0
 19 20  1  0
 19 21  1  0
 19 46  1  6
 22 23  1  0
 22 47  1  0
 22 48  1  0
 23 49  1  0
 23 50  1  0
 24 25  2  0
 25 26  1  0
 26 51  1  0
 26 52  1  0
 26 53  1  0
M  END

