
     RDKit          3D

 29 30  0  0  0  0  0  0  0  0999 V2000
    1.0122    0.5005    0.2114 O   0  0  0  0  0  0  0  0  0  0  0  0
    2.1686    0.1459    0.1506 C   0  0  0  0  0  0  0  0  0  0  0  0
    2.8100   -0.5626    1.1566 N   0  0  0  0  0  0  0  0  0  0  0  0
    2.1448   -0.9536    2.2608 N   0  0  0  0  0  0  0  0  0  0  0  0
    2.8049   -1.5300    3.1965 C   0  0  0  0  0  0  0  0  0  0  0  0
    2.1631   -1.9948    4.4270 C   0  0  0  0  0  0  0  0  0  0  0  0
    0.7833   -1.8251    4.6517 C   0  0  0  0  0  0  0  0  0  0  0  0
    0.2039   -2.2765    5.8294 C   0  0  0  0  0  0  0  0  0  0  0  0
    0.9725   -2.9115    6.8241 C   0  0  0  0  0  0  0  0  0  0  0  0
    0.4316   -3.3585    7.9758 O   0  0  0  0  0  0  0  0  0  0  0  0
    2.3511   -3.0815    6.6011 C   0  0  0  0  0  0  0  0  0  0  0  0
    3.5444   -4.0322    8.0738 I   0  0  0  0  0  0  0  0  0  0  0  0
    2.9334   -2.6281    5.4184 C   0  0  0  0  0  0  0  0  0  0  0  0
    3.0419    0.4645   -1.0352 C   0  0  0  0  0  0  0  0  0  0  0  0
    2.7080    1.5883   -1.8110 C   0  0  0  0  0  0  0  0  0  0  0  0
    3.3915    1.9627   -2.8910 N   0  0  0  0  0  0  0  0  0  0  0  0
    4.4380    1.2309   -3.2742 C   0  0  0  0  0  0  0  0  0  0  0  0
    4.8396    0.0818   -2.5816 C   0  0  0  0  0  0  0  0  0  0  0  0
    6.3239   -0.9343   -3.1986 Br  0  0  0  0  0  0  0  0  0  0  0  0
    4.1334   -0.3131   -1.4451 C   0  0  0  0  0  0  0  0  0  0  0  0
    3.8225   -0.6923    1.1096 H   0  0  0  0  0  0  0  0  0  0  0  0
    3.8957   -1.7016    3.1090 H   0  0  0  0  0  0  0  0  0  0  0  0
    0.1801   -1.3333    3.8865 H   0  0  0  0  0  0  0  0  0  0  0  0
   -0.8695   -2.1410    5.9978 H   0  0  0  0  0  0  0  0  0  0  0  0
   -0.5168   -3.1712    7.9869 H   0  0  0  0  0  0  0  0  0  0  0  0
    4.0054   -2.7684    5.2623 H   0  0  0  0  0  0  0  0  0  0  0  0
    1.8435    2.1935   -1.5214 H   0  0  0  0  0  0  0  0  0  0  0  0
    4.9826    1.5547   -4.1676 H   0  0  0  0  0  0  0  0  0  0  0  0
    4.4202   -1.2257   -0.9184 H   0  0  0  0  0  0  0  0  0  0  0  0
  1  2  2  0
  2  3  1  0
  2 14  1  0
  3  4  1  0
  3 21  1  0
  4  5  2  0
  5  6  1  0
  5 22  1  0
  6  7  2  0
  6 13  1  0
  7  8  1  0
  7 23  1  0
  8  9  2  0
  8 24  1  0
  9 10  1  0
  9 11  1  0
 10 25  1  0
 11 12  1  0
 11 13  2  0
 13 26  1  0
 14 15  2  0
 14 20  1  0
 15 16  1  0
 15 27  1  0
 16 17  2  0
 17 18  1  0
 17 28  1  0
 18 19  1  0
 18 20  2  0
 20 29  1  0
M  END

