
     RDKit          3D

 41 41  0  0  0  0  0  0  0  0999 V2000
    0.9542   -0.0361   -0.6988 C   0  0  0  0  0  0  0  0  0  0  0  0
    2.4537   -0.1456   -0.4438 C   0  0  0  0  0  0  0  0  0  0  0  0
    2.8732   -1.5384   -0.3640 N   0  0  0  0  0  0  0  0  0  0  0  0
    4.3015   -1.7647   -0.1600 C   0  0  1  0  0  0  0  0  0  0  0  0
    4.6642   -1.5466    1.3161 C   0  0  0  0  0  0  0  0  0  0  0  0
    6.1504   -1.4375    1.5857 C   0  0  0  0  0  0  0  0  0  0  0  0
    7.0247   -1.4826    0.7509 O   0  0  0  0  0  0  0  0  0  0  0  0
    6.3869   -1.2668    2.9003 O   0  0  0  0  0  0  0  0  0  0  0  0
    7.7569   -1.1359    3.3243 C   0  0  0  0  0  0  0  0  0  0  0  0
    8.3996   -2.4899    3.5742 C   0  0  0  0  0  0  0  0  0  0  0  0
    4.6716   -3.1949   -0.6100 C   0  0  0  0  0  0  0  0  0  0  0  0
    4.5395   -3.4250   -2.0994 C   0  0  0  0  0  0  0  0  0  0  0  0
    3.4736   -4.1559   -2.6432 C   0  0  0  0  0  0  0  0  0  0  0  0
    3.3625   -4.3371   -4.0243 C   0  0  0  0  0  0  0  0  0  0  0  0
    4.3230   -3.7858   -4.8720 C   0  0  0  0  0  0  0  0  0  0  0  0
    4.1584   -4.0319   -6.6030 Cl  0  0  0  0  0  0  0  0  0  0  0  0
    5.4140   -3.0486   -4.3729 C   0  0  0  0  0  0  0  0  0  0  0  0
    6.4577   -2.4622   -5.2864 C   0  0  0  0  0  0  0  0  0  0  0  0
    5.4910   -2.8881   -2.9825 C   0  0  0  0  0  0  0  0  0  0  0  0
    0.6335    1.0169   -0.7306 H   0  0  0  0  0  0  0  0  0  0  0  0
    0.3877   -0.5528    0.0916 H   0  0  0  0  0  0  0  0  0  0  0  0
    0.6808   -0.4954   -1.6642 H   0  0  0  0  0  0  0  0  0  0  0  0
    2.6926    0.3556    0.5107 H   0  0  0  0  0  0  0  0  0  0  0  0
    3.0092    0.4204   -1.2268 H   0  0  0  0  0  0  0  0  0  0  0  0
    2.5845   -2.0129   -1.2191 H   0  0  0  0  0  0  0  0  0  0  0  0
    4.9162   -1.0583   -0.7587 H   0  0  0  0  0  0  0  0  0  0  0  0
    4.2485   -2.3531    1.9435 H   0  0  0  0  0  0  0  0  0  0  0  0
    4.2034   -0.6212    1.6980 H   0  0  0  0  0  0  0  0  0  0  0  0
    7.7072   -0.5417    4.2484 H   0  0  0  0  0  0  0  0  0  0  0  0
    8.3144   -0.5705    2.5630 H   0  0  0  0  0  0  0  0  0  0  0  0
    7.8174   -3.0739    4.3040 H   0  0  0  0  0  0  0  0  0  0  0  0
    9.4169   -2.3542    3.9753 H   0  0  0  0  0  0  0  0  0  0  0  0
    8.4759   -3.0649    2.6394 H   0  0  0  0  0  0  0  0  0  0  0  0
    4.0289   -3.9034   -0.0613 H   0  0  0  0  0  0  0  0  0  0  0  0
    5.7117   -3.3839   -0.3072 H   0  0  0  0  0  0  0  0  0  0  0  0
    2.7238   -4.6002   -1.9825 H   0  0  0  0  0  0  0  0  0  0  0  0
    2.5352   -4.9081   -4.4493 H   0  0  0  0  0  0  0  0  0  0  0  0
    6.9517   -3.2467   -5.8826 H   0  0  0  0  0  0  0  0  0  0  0  0
    7.2264   -1.9251   -4.7130 H   0  0  0  0  0  0  0  0  0  0  0  0
    6.0072   -1.7611   -6.0079 H   0  0  0  0  0  0  0  0  0  0  0  0
    6.3342   -2.3262   -2.5689 H   0  0  0  0  0  0  0  0  0  0  0  0
  1  2  1  0
  1 20  1  0
  1 21  1  0
  1 22  1  0
  2  3  1  0
  2 23  1  0
  2 24  1  0
  3  4  1  0
  3 25  1  0
  4  5  1  0
  4 11  1  0
  4 26  1  6
  5  6  1  0
  5 27  1  0
  5 28  1  0
  6  7  2  0
  6  8  1  0
  8  9  1  0
  9 10  1  0
  9 29  1  0
  9 30  1  0
 10 31  1  0
 10 32  1  0
 10 33  1  0
 11 12  1  0
 11 34  1  0
 11 35  1  0
 12 13  2  0
 12 19  1  0
 13 14  1  0
 13 36  1  0
 14 15  2  0
 14 37  1  0
 15 16  1  0
 15 17  1  0
 17 18  1  0
 17 19  2  0
 18 38  1  0
 18 39  1  0
 18 40  1  0
 19 41  1  0
M  END

