
     RDKit          3D

 16 17  0  0  0  0  0  0  0  0999 V2000
    1.1129    0.4562   -0.3515 O   0  0  0  0  0  0  0  0  0  0  0  0
    2.2742    0.2289   -0.1632 C   0  0  0  0  0  0  0  0  0  0  0  0
    2.9542   -0.8092   -0.8243 N   0  0  0  0  0  0  0  0  0  0  0  0
    2.5314   -1.4328   -1.9791 C   0  0  0  0  0  0  0  0  0  0  0  0
    3.3478   -2.4047   -2.2754 N   0  0  0  0  0  0  0  0  0  0  0  0
    4.2695   -2.3660   -1.2554 C   0  0  0  0  0  0  0  0  0  0  0  0
    4.0747   -1.4265   -0.3598 N   0  0  0  0  0  0  0  0  0  0  0  0
    3.0729    0.9815    0.7357 N   0  0  0  0  0  0  0  0  0  0  0  0
    4.3686    1.3047    0.4509 N   0  0  0  0  0  0  0  0  0  0  0  0
    4.6879    2.0854    1.4546 C   0  0  0  0  0  0  0  0  0  0  0  0
    6.2333    2.8046    1.5899 Cl  0  0  0  0  0  0  0  0  0  0  0  0
    3.7064    2.2969    2.3815 N   0  0  0  0  0  0  0  0  0  0  0  0
    2.7039    1.6128    1.9085 C   0  0  0  0  0  0  0  0  0  0  0  0
    1.0385    1.4396    2.7259 Br  0  0  0  0  0  0  0  0  0  0  0  0
    1.6440   -1.1106   -2.5218 H   0  0  0  0  0  0  0  0  0  0  0  0
    5.1017   -3.0653   -1.1806 H   0  0  0  0  0  0  0  0  0  0  0  0
  1  2  2  0
  2  3  1  0
  2  8  1  0
  3  4  1  0
  3  7  1  0
  4  5  2  0
  4 15  1  0
  5  6  1  0
  6  7  2  0
  6 16  1  0
  8  9  1  0
  8 13  1  0
  9 10  2  0
 10 11  1  0
 10 12  1  0
 12 13  2  0
 13 14  1  0
M  END

