
     RDKit          3D

 37 37  0  0  0  0  0  0  0  0999 V2000
    0.9057   -2.4827   -0.6339 C   0  0  0  0  0  0  0  0  0  0  0  0
    2.2517   -2.7937   -1.2153 C   0  0  0  0  0  0  0  0  0  0  0  0
    3.4286   -2.4583   -0.6750 C   0  0  0  0  0  0  0  0  0  0  0  0
    4.7587   -2.8202   -1.2594 C   0  0  0  0  0  0  0  0  0  0  0  0
    5.5234   -1.6290   -1.4150 O   0  0  0  0  0  0  0  0  0  0  0  0
    6.7990   -1.7072   -1.8660 C   0  0  0  0  0  0  0  0  0  0  0  0
    7.4930   -0.4864   -1.9438 C   0  0  0  0  0  0  0  0  0  0  0  0
    8.8011   -0.4975   -2.4034 C   0  0  0  0  0  0  0  0  0  0  0  0
    9.4660    0.6665   -2.4863 F   0  0  0  0  0  0  0  0  0  0  0  0
    9.4516   -1.6695   -2.7912 C   0  0  0  0  0  0  0  0  0  0  0  0
    8.7585   -2.8815   -2.7060 C   0  0  0  0  0  0  0  0  0  0  0  0
    9.4533   -4.1803   -3.0703 C   0  0  0  0  0  0  0  0  0  0  0  0
    8.5452   -5.1693   -3.6229 N   0  0  0  0  0  0  0  0  0  0  0  0
    9.1497   -6.4594   -3.9104 C   0  0  0  0  0  0  0  0  0  0  0  0
    8.1318   -7.4471   -4.4795 C   0  0  0  0  0  0  0  0  0  0  0  0
    8.7197   -8.8308   -4.7556 C   0  0  0  0  0  0  0  0  0  0  0  0
    7.4311   -2.9009   -2.2468 C   0  0  0  0  0  0  0  0  0  0  0  0
    0.2967   -1.8916   -1.3401 H   0  0  0  0  0  0  0  0  0  0  0  0
    0.9869   -1.9169    0.3068 H   0  0  0  0  0  0  0  0  0  0  0  0
    0.3362   -3.4067   -0.4307 H   0  0  0  0  0  0  0  0  0  0  0  0
    2.2520   -3.3473   -2.1646 H   0  0  0  0  0  0  0  0  0  0  0  0
    3.4621   -1.8951    0.2660 H   0  0  0  0  0  0  0  0  0  0  0  0
    4.6338   -3.3318   -2.2314 H   0  0  0  0  0  0  0  0  0  0  0  0
    5.2998   -3.5144   -0.5863 H   0  0  0  0  0  0  0  0  0  0  0  0
    7.0064    0.4448   -1.6530 H   0  0  0  0  0  0  0  0  0  0  0  0
   10.4800   -1.6173   -3.1541 H   0  0  0  0  0  0  0  0  0  0  0  0
    9.8980   -4.6124   -2.1531 H   0  0  0  0  0  0  0  0  0  0  0  0
   10.3158   -3.9519   -3.7360 H   0  0  0  0  0  0  0  0  0  0  0  0
    8.0995   -4.7955   -4.4615 H   0  0  0  0  0  0  0  0  0  0  0  0
    9.5616   -6.8619   -2.9663 H   0  0  0  0  0  0  0  0  0  0  0  0
   10.0174   -6.3834   -4.6077 H   0  0  0  0  0  0  0  0  0  0  0  0
    7.7125   -7.0316   -5.4150 H   0  0  0  0  0  0  0  0  0  0  0  0
    7.2872   -7.5212   -3.7735 H   0  0  0  0  0  0  0  0  0  0  0  0
    9.5501   -8.7805   -5.4797 H   0  0  0  0  0  0  0  0  0  0  0  0
    7.9610   -9.5138   -5.1686 H   0  0  0  0  0  0  0  0  0  0  0  0
    9.1133   -9.2909   -3.8337 H   0  0  0  0  0  0  0  0  0  0  0  0
    6.9197   -3.8612   -2.2099 H   0  0  0  0  0  0  0  0  0  0  0  0
  1  2  1  0
  1 18  1  0
  1 19  1  0
  1 20  1  0
  2  3  2  0
  2 21  1  0
  3  4  1  0
  3 22  1  0
  4  5  1  0
  4 23  1  0
  4 24  1  0
  5  6  1  0
  6  7  2  0
  6 17  1  0
  7  8  1  0
  7 25  1  0
  8  9  1  0
  8 10  2  0
 10 11  1  0
 10 26  1  0
 11 12  1  0
 11 17  2  0
 12 13  1  0
 12 27  1  0
 12 28  1  0
 13 14  1  0
 13 29  1  0
 14 15  1  0
 14 30  1  0
 14 31  1  0
 15 16  1  0
 15 32  1  0
 15 33  1  0
 16 34  1  0
 16 35  1  0
 16 36  1  0
 17 37  1  0
M  END

