
     RDKit          3D

 36 38  0  0  0  0  0  0  0  0999 V2000
    1.0165    0.0283    0.3064 C   0  0  0  0  0  0  0  0  0  0  0  0
    2.5086    0.0299    0.1050 C   0  0  0  0  0  0  0  0  0  0  0  0
    3.1719    1.0865   -0.5435 C   0  0  0  0  0  0  0  0  0  0  0  0
    4.5507    1.0251   -0.7174 C   0  0  0  0  0  0  0  0  0  0  0  0
    5.2518   -0.0928   -0.2371 C   0  0  0  0  0  0  0  0  0  0  0  0
    6.7154   -0.1878   -0.3845 C   0  0  0  0  0  0  0  0  0  0  0  0
    7.4304    0.9137   -0.3914 N   0  0  0  0  0  0  0  0  0  0  0  0
    8.7739    0.5170   -0.5578 O   0  0  0  0  0  0  0  0  0  0  0  0
    8.8292   -0.7997   -0.6396 C   0  0  0  0  0  0  0  0  0  0  0  0
    9.9834   -1.4891   -0.8200 N   0  0  0  0  0  0  0  0  0  0  0  0
   11.2850   -0.9839   -0.9511 C   0  0  0  0  0  0  0  0  0  0  0  0
   11.5352    0.1938   -0.8302 O   0  0  0  0  0  0  0  0  0  0  0  0
   12.3318   -2.0189   -1.2404 C   0  0  0  0  0  0  0  0  0  0  0  0
   12.0534   -3.3470   -1.6064 C   0  0  0  0  0  0  0  0  0  0  0  0
   13.0897   -4.2438   -1.8706 C   0  0  0  0  0  0  0  0  0  0  0  0
   14.4149   -3.8100   -1.7688 C   0  0  0  0  0  0  0  0  0  0  0  0
   15.8301   -5.0304   -2.1235 Br  0  0  0  0  0  0  0  0  0  0  0  0
   14.7136   -2.4896   -1.4134 C   0  0  0  0  0  0  0  0  0  0  0  0
   13.6710   -1.6027   -1.1563 C   0  0  0  0  0  0  0  0  0  0  0  0
    7.5492   -1.3534   -0.5424 C   0  0  0  0  0  0  0  0  0  0  0  0
    7.2905   -2.7669   -0.7110 C   0  0  0  0  0  0  0  0  0  0  0  0
    8.1874   -3.5938   -0.8590 O   0  0  0  0  0  0  0  0  0  0  0  0
    4.4997   -1.0850    0.4165 C   0  0  0  0  0  0  0  0  0  0  0  0
    3.1812   -1.0300    0.5776 N   0  0  0  0  0  0  0  0  0  0  0  0
    0.5433    0.9367   -0.0921 H   0  0  0  0  0  0  0  0  0  0  0  0
    0.7801   -0.0559    1.3792 H   0  0  0  0  0  0  0  0  0  0  0  0
    0.5687   -0.8503   -0.1854 H   0  0  0  0  0  0  0  0  0  0  0  0
    2.6063    1.9448   -0.9128 H   0  0  0  0  0  0  0  0  0  0  0  0
    5.0937    1.8267   -1.2221 H   0  0  0  0  0  0  0  0  0  0  0  0
    9.7948   -2.4977   -0.8421 H   0  0  0  0  0  0  0  0  0  0  0  0
   11.0277   -3.7086   -1.7129 H   0  0  0  0  0  0  0  0  0  0  0  0
   12.8679   -5.2725   -2.1580 H   0  0  0  0  0  0  0  0  0  0  0  0
   15.7518   -2.1618   -1.3408 H   0  0  0  0  0  0  0  0  0  0  0  0
   13.8755   -0.5657   -0.8836 H   0  0  0  0  0  0  0  0  0  0  0  0
    6.2269   -3.0931   -0.7208 H   0  0  0  0  0  0  0  0  0  0  0  0
    5.0020   -1.9567    0.8522 H   0  0  0  0  0  0  0  0  0  0  0  0
  1  2  1  0
  1 25  1  0
  1 26  1  0
  1 27  1  0
  2  3  2  0
  2 24  1  0
  3  4  1  0
  3 28  1  0
  4  5  2  0
  4 29  1  0
  5  6  1  0
  5 23  1  0
  6  7  2  0
  6 20  1  0
  7  8  1  0
  8  9  1  0
  9 10  1  0
  9 20  2  0
 10 11  1  0
 10 30  1  0
 11 12  2  0
 11 13  1  0
 13 14  2  0
 13 19  1  0
 14 15  1  0
 14 31  1  0
 15 16  2  0
 15 32  1  0
 16 17  1  0
 16 18  1  0
 18 19  2  0
 18 33  1  0
 19 34  1  0
 20 21  1  0
 21 22  2  0
 21 35  1  0
 23 24  2  0
 23 36  1  0
M  END

