
     RDKit          3D

 41 41  0  0  0  0  0  0  0  0999 V2000
    0.9380    0.0641    0.2306 C   0  0  0  0  0  0  0  0  0  0  0  0
    2.4474   -0.0582    0.0225 C   0  0  0  0  0  0  0  0  0  0  0  0
    3.0243    1.0262   -0.8872 C   0  0  0  0  0  0  0  0  0  0  0  0
    4.4668    0.9029   -1.0219 N   0  0  0  0  0  0  0  0  0  0  0  0
    5.0885    1.8955   -1.8812 C   0  0  0  0  0  0  0  0  0  0  0  0
    6.6387    1.9111   -1.8087 C   0  0  1  0  0  0  0  0  0  0  0  0
    7.0725    2.2536   -0.3716 C   0  0  0  0  0  0  0  0  0  0  0  0
    7.1908    0.5275   -2.2036 C   0  0  0  0  0  0  0  0  0  0  0  0
    7.1141    2.9935   -2.8126 C   0  0  0  0  0  0  0  0  0  0  0  0
    8.6293    3.2676   -2.8799 C   0  0  0  0  0  0  0  0  0  0  0  0
    8.9806    4.3347   -3.8942 C   0  0  0  0  0  0  0  0  0  0  0  0
    9.0259    5.6907   -3.5329 C   0  0  0  0  0  0  0  0  0  0  0  0
    9.3132    6.6871   -4.4688 C   0  0  0  0  0  0  0  0  0  0  0  0
    9.5603    6.3274   -5.7960 C   0  0  0  0  0  0  0  0  0  0  0  0
    9.9250    7.5666   -6.9784 Cl  0  0  0  0  0  0  0  0  0  0  0  0
    9.5237    4.9864   -6.1865 C   0  0  0  0  0  0  0  0  0  0  0  0
    9.2345    4.0054   -5.2353 C   0  0  0  0  0  0  0  0  0  0  0  0
    0.5568   -0.7353    0.8852 H   0  0  0  0  0  0  0  0  0  0  0  0
    0.3910   -0.0006   -0.7250 H   0  0  0  0  0  0  0  0  0  0  0  0
    0.6741    1.0281    0.6968 H   0  0  0  0  0  0  0  0  0  0  0  0
    2.6802   -1.0502   -0.4085 H   0  0  0  0  0  0  0  0  0  0  0  0
    2.9748   -0.0158    0.9906 H   0  0  0  0  0  0  0  0  0  0  0  0
    2.8024    2.0197   -0.4558 H   0  0  0  0  0  0  0  0  0  0  0  0
    2.4939    1.0000   -1.8689 H   0  0  0  0  0  0  0  0  0  0  0  0
    4.6935   -0.0349   -1.3500 H   0  0  0  0  0  0  0  0  0  0  0  0
    4.7201    2.8874   -1.5644 H   0  0  0  0  0  0  0  0  0  0  0  0
    4.7851    1.7884   -2.9489 H   0  0  0  0  0  0  0  0  0  0  0  0
    6.5669    1.5844    0.3394 H   0  0  0  0  0  0  0  0  0  0  0  0
    6.7964    3.2893   -0.1108 H   0  0  0  0  0  0  0  0  0  0  0  0
    8.1600    2.1486   -0.2329 H   0  0  0  0  0  0  0  0  0  0  0  0
    6.8652   -0.2485   -1.4926 H   0  0  0  0  0  0  0  0  0  0  0  0
    8.2917    0.5135   -2.1999 H   0  0  0  0  0  0  0  0  0  0  0  0
    6.8549    0.2330   -3.2127 H   0  0  0  0  0  0  0  0  0  0  0  0
    6.6037    3.9428   -2.5700 H   0  0  0  0  0  0  0  0  0  0  0  0
    6.7642    2.7179   -3.8235 H   0  0  0  0  0  0  0  0  0  0  0  0
    9.1669    2.3401   -3.1346 H   0  0  0  0  0  0  0  0  0  0  0  0
    8.9946    3.5795   -1.8886 H   0  0  0  0  0  0  0  0  0  0  0  0
    8.8378    5.9779   -2.4942 H   0  0  0  0  0  0  0  0  0  0  0  0
    9.3501    7.7375   -4.1749 H   0  0  0  0  0  0  0  0  0  0  0  0
    9.7240    4.7176   -7.2251 H   0  0  0  0  0  0  0  0  0  0  0  0
    9.2118    2.9566   -5.5460 H   0  0  0  0  0  0  0  0  0  0  0  0
  1  2  1  0
  1 18  1  0
  1 19  1  0
  1 20  1  0
  2  3  1  0
  2 21  1  0
  2 22  1  0
  3  4  1  0
  3 23  1  0
  3 24  1  0
  4  5  1  0
  4 25  1  0
  6  5  1  1
  5 26  1  0
  5 27  1  0
  6  7  1  0
  6  8  1  0
  6  9  1  0
  7 28  1  0
  7 29  1  0
  7 30  1  0
  8 31  1  0
  8 32  1  0
  8 33  1  0
  9 10  1  0
  9 34  1  0
  9 35  1  0
 10 11  1  0
 10 36  1  0
 10 37  1  0
 11 12  2  0
 11 17  1  0
 12 13  1  0
 12 38  1  0
 13 14  2  0
 13 39  1  0
 14 15  1  0
 14 16  1  0
 16 17  2  0
 16 40  1  0
 17 41  1  0
M  END

