
     RDKit          3D

 51 53  0  0  0  0  0  0  0  0999 V2000
    4.0481   -1.3967    2.8446 C   0  0  0  0  0  0  0  0  0  0  0  0
    3.9489   -1.4916    1.4352 O   0  0  0  0  0  0  0  0  0  0  0  0
    4.5022   -0.5284    0.6454 C   0  0  0  0  0  0  0  0  0  0  0  0
    5.2065    0.5702    1.1584 C   0  0  0  0  0  0  0  0  0  0  0  0
    5.7497    1.5232    0.2983 C   0  0  0  0  0  0  0  0  0  0  0  0
    5.6033    1.4094   -1.0932 C   0  0  0  0  0  0  0  0  0  0  0  0
    6.1707    2.4325   -2.0123 C   0  0  0  0  0  0  0  0  0  0  0  0
    8.2917    2.0336   -2.5854 I   0  0  0  0  0  0  0  0  0  0  0  0
    4.8978    0.3084   -1.5948 C   0  0  0  0  0  0  0  0  0  0  0  0
    4.3383   -0.6670   -0.7569 C   0  0  0  0  0  0  0  0  0  0  0  0
    3.6042   -1.7739   -1.3809 C   0  0  0  0  0  0  0  0  0  0  0  0
    3.3900   -1.8920   -2.6924 N   0  0  0  0  0  0  0  0  0  0  0  0
    2.6664   -3.0265   -2.8622 C   0  0  0  0  0  0  0  0  0  0  0  0
    2.4348   -3.6241   -1.6327 C   0  0  0  0  0  0  0  0  0  0  0  0
    1.5674   -5.0789   -1.1249 S   0  0  1  0  0  0  0  0  0  0  0  0
    1.4487   -4.9493    0.3395 O   0  0  0  0  0  0  0  0  0  0  0  0
    0.3997   -5.2341   -1.9982 O   0  0  0  0  0  0  0  0  0  0  0  0
    2.6722   -6.4571   -1.4596 C   0  0  0  0  0  0  0  0  0  0  0  0
    3.6076   -6.8426   -0.5002 C   0  0  0  0  0  0  0  0  0  0  0  0
    4.4549   -7.9218   -0.7654 C   0  0  0  0  0  0  0  0  0  0  0  0
    4.3820   -8.6342   -1.9748 C   0  0  0  0  0  0  0  0  0  0  0  0
    5.3015   -9.8279   -2.2951 C   0  0  1  0  0  0  0  0  0  0  0  0
    6.2960  -10.1202   -1.1570 C   0  0  0  0  0  0  0  0  0  0  0  0
    4.4378  -11.0911   -2.5204 C   0  0  0  0  0  0  0  0  0  0  0  0
    6.1100   -9.5197   -3.5772 C   0  0  0  0  0  0  0  0  0  0  0  0
    3.4132   -8.2246   -2.9132 C   0  0  0  0  0  0  0  0  0  0  0  0
    2.5597   -7.1512   -2.6676 C   0  0  0  0  0  0  0  0  0  0  0  0
    3.0430   -2.8153   -0.7064 N   0  0  0  0  0  0  0  0  0  0  0  0
    3.0171   -2.9240    0.3031 H   0  0  0  0  0  0  0  0  0  0  0  0
    3.5197   -2.2687    3.2514 H   0  0  0  0  0  0  0  0  0  0  0  0
    3.5692   -0.4773    3.2223 H   0  0  0  0  0  0  0  0  0  0  0  0
    5.0994   -1.4223    3.1789 H   0  0  0  0  0  0  0  0  0  0  0  0
    5.3351    0.6901    2.2335 H   0  0  0  0  0  0  0  0  0  0  0  0
    6.3000    2.3684    0.7202 H   0  0  0  0  0  0  0  0  0  0  0  0
    6.2235    3.4318   -1.5670 H   0  0  0  0  0  0  0  0  0  0  0  0
    5.6568    2.4740   -2.9783 H   0  0  0  0  0  0  0  0  0  0  0  0
    4.7584    0.1778   -2.6699 H   0  0  0  0  0  0  0  0  0  0  0  0
    2.3351   -3.3704   -3.8408 H   0  0  0  0  0  0  0  0  0  0  0  0
    3.6600   -6.3122    0.4523 H   0  0  0  0  0  0  0  0  0  0  0  0
    5.1774   -8.2072   -0.0011 H   0  0  0  0  0  0  0  0  0  0  0  0
    5.7833  -10.3806   -0.2178 H   0  0  0  0  0  0  0  0  0  0  0  0
    6.9607   -9.2644   -0.9606 H   0  0  0  0  0  0  0  0  0  0  0  0
    6.9329  -10.9754   -1.4317 H   0  0  0  0  0  0  0  0  0  0  0  0
    3.8503  -11.3347   -1.6211 H   0  0  0  0  0  0  0  0  0  0  0  0
    5.0800  -11.9564   -2.7524 H   0  0  0  0  0  0  0  0  0  0  0  0
    3.7338  -10.9660   -3.3570 H   0  0  0  0  0  0  0  0  0  0  0  0
    6.7364   -8.6234   -3.4446 H   0  0  0  0  0  0  0  0  0  0  0  0
    5.4567   -9.3467   -4.4457 H   0  0  0  0  0  0  0  0  0  0  0  0
    6.7730  -10.3651   -3.8228 H   0  0  0  0  0  0  0  0  0  0  0  0
    3.3129   -8.7590   -3.8603 H   0  0  0  0  0  0  0  0  0  0  0  0
    1.7997   -6.8562   -3.3934 H   0  0  0  0  0  0  0  0  0  0  0  0
  1  2  1  0
  1 30  1  0
  1 31  1  0
  1 32  1  0
  2  3  1  0
  3  4  2  0
  3 10  1  0
  4  5  1  0
  4 33  1  0
  5  6  2  0
  5 34  1  0
  6  7  1  0
  6  9  1  0
  7  8  1  0
  7 35  1  0
  7 36  1  0
  9 10  2  0
  9 37  1  0
 10 11  1  0
 11 12  2  0
 11 28  1  0
 12 13  1  0
 13 14  2  0
 13 38  1  0
 15 14  1  6
 14 28  1  0
 15 16  2  0
 15 17  2  0
 15 18  1  0
 18 19  2  0
 18 27  1  0
 19 20  1  0
 19 39  1  0
 20 21  2  0
 20 40  1  0
 21 22  1  0
 21 26  1  0
 22 23  1  1
 22 24  1  0
 22 25  1  0
 23 41  1  0
 23 42  1  0
 23 43  1  0
 24 44  1  0
 24 45  1  0
 24 46  1  0
 25 47  1  0
 25 48  1  0
 25 49  1  0
 26 27  2  0
 26 50  1  0
 27 51  1  0
 28 29  1  0
M  END

