
     RDKit          3D

 65 67  0  0  0  0  0  0  0  0999 V2000
    0.8012   -2.1884    0.7584 N   0  0  0  0  0  0  0  0  0  0  0  0
    1.6090   -1.1815    0.1363 C   0  0  0  0  0  0  0  0  0  0  0  0
    1.6199   -0.0474    0.6649 O   0  0  0  0  0  0  0  0  0  0  0  0
    2.3179   -1.5434   -1.0341 C   0  0  0  0  0  0  0  0  0  0  0  0
    5.4625   -0.2631    2.0793 N   0  0  0  0  0  0  0  0  0  0  0  0
    6.2709   -0.1903    2.7004 H   0  0  0  0  0  0  0  0  0  0  0  0
    4.2812    0.2750    2.7606 C   0  0  0  0  0  0  0  0  0  0  0  0
    3.8407   -0.5609    3.9749 C   0  0  0  0  0  0  0  0  0  0  0  0
    3.6358   -2.0296    3.5738 C   0  0  0  0  0  0  0  0  0  0  0  0
    4.8771   -2.5809    2.8561 C   0  0  0  0  0  0  0  0  0  0  0  0
    5.2870   -1.6615    1.6913 C   0  0  0  0  0  0  0  0  0  0  0  0
    3.1105   -0.4840   -1.7314 C   0  0  0  0  0  0  0  0  0  0  0  0
    2.4299   -0.0526   -3.0290 C   0  0  0  0  0  0  0  0  0  0  0  0
    2.1583   -1.2782   -3.8965 N   0  0  2  0  0  0  0  0  0  0  0  0
    3.0942   -1.6800   -4.1088 H   0  0  0  0  0  0  0  0  0  0  0  0
    1.6239   -0.9080   -5.2283 C   0  0  0  0  0  0  0  0  0  0  0  0
    2.8140   -0.6217   -6.1579 C   0  0  0  0  0  0  0  0  0  0  0  0
    3.9067   -1.1010   -5.8855 O   0  0  0  0  0  0  0  0  0  0  0  0
    2.5355    0.1117   -7.2537 N   0  0  0  0  0  0  0  0  0  0  0  0
    3.5068    0.4008   -8.3016 C   0  0  0  0  0  0  0  0  0  0  0  0
    2.9981    0.0128   -9.7026 C   0  0  0  0  0  0  0  0  0  0  0  0
    1.7023    0.6740  -10.0875 C   0  0  0  0  0  0  0  0  0  0  0  0
    1.5509    1.8726  -10.7527 C   0  0  0  0  0  0  0  0  0  0  0  0
    0.2133    2.1814  -10.8790 N   0  0  0  0  0  0  0  0  0  0  0  0
   -0.1543    2.9998  -11.3455 H   0  0  0  0  0  0  0  0  0  0  0  0
   -0.5428    1.1868  -10.3007 C   0  0  0  0  0  0  0  0  0  0  0  0
   -1.9335    1.0483  -10.1851 C   0  0  0  0  0  0  0  0  0  0  0  0
   -2.4193   -0.0905   -9.5499 C   0  0  0  0  0  0  0  0  0  0  0  0
   -1.5424   -1.0765   -9.0450 C   0  0  0  0  0  0  0  0  0  0  0  0
   -0.1627   -0.9375   -9.1597 C   0  0  0  0  0  0  0  0  0  0  0  0
    0.3638    0.2116   -9.7882 C   0  0  0  0  0  0  0  0  0  0  0  0
    1.3417   -2.3432   -3.1893 C   0  0  0  0  0  0  0  0  0  0  0  0
    2.0222   -2.7462   -1.8714 C   0  0  0  0  0  0  0  0  0  0  0  0
    0.5021   -1.8496    1.6697 H   0  0  0  0  0  0  0  0  0  0  0  0
    1.2571   -3.0937    0.8498 H   0  0  0  0  0  0  0  0  0  0  0  0
    3.4488    0.3109    2.0352 H   0  0  0  0  0  0  0  0  0  0  0  0
    4.4937    1.3150    3.0632 H   0  0  0  0  0  0  0  0  0  0  0  0
    2.9123   -0.1446    4.4040 H   0  0  0  0  0  0  0  0  0  0  0  0
    4.6125   -0.5000    4.7677 H   0  0  0  0  0  0  0  0  0  0  0  0
    2.7691   -2.0938    2.8922 H   0  0  0  0  0  0  0  0  0  0  0  0
    3.3923   -2.6462    4.4569 H   0  0  0  0  0  0  0  0  0  0  0  0
    4.6927   -3.6063    2.4872 H   0  0  0  0  0  0  0  0  0  0  0  0
    5.7169   -2.6524    3.5748 H   0  0  0  0  0  0  0  0  0  0  0  0
    4.5062   -1.7032    0.9093 H   0  0  0  0  0  0  0  0  0  0  0  0
    6.2220   -2.0217    1.2271 H   0  0  0  0  0  0  0  0  0  0  0  0
    4.1494   -0.7959   -1.9886 H   0  0  0  0  0  0  0  0  0  0  0  0
    3.1823    0.3980   -1.0771 H   0  0  0  0  0  0  0  0  0  0  0  0
    3.0348    0.6225   -3.6592 H   0  0  0  0  0  0  0  0  0  0  0  0
    1.4497    0.4023   -2.8245 H   0  0  0  0  0  0  0  0  0  0  0  0
    0.9342   -0.0589   -5.1279 H   0  0  0  0  0  0  0  0  0  0  0  0
    1.0610   -1.7630   -5.6362 H   0  0  0  0  0  0  0  0  0  0  0  0
    1.5925    0.4673   -7.3820 H   0  0  0  0  0  0  0  0  0  0  0  0
    4.4229   -0.1502   -8.0477 H   0  0  0  0  0  0  0  0  0  0  0  0
    3.7479    1.4780   -8.2843 H   0  0  0  0  0  0  0  0  0  0  0  0
    2.8910   -1.0837   -9.7544 H   0  0  0  0  0  0  0  0  0  0  0  0
    3.7863    0.2828  -10.4242 H   0  0  0  0  0  0  0  0  0  0  0  0
    2.3133    2.5356  -11.1597 H   0  0  0  0  0  0  0  0  0  0  0  0
   -2.6139    1.8057  -10.5822 H   0  0  0  0  0  0  0  0  0  0  0  0
   -3.4982   -0.2277   -9.4452 H   0  0  0  0  0  0  0  0  0  0  0  0
   -1.9594   -1.9659   -8.5661 H   0  0  0  0  0  0  0  0  0  0  0  0
    0.5035   -1.7169   -8.7800 H   0  0  0  0  0  0  0  0  0  0  0  0
    1.2490   -3.1716   -3.9155 H   0  0  0  0  0  0  0  0  0  0  0  0
    0.3514   -1.9044   -2.9989 H   0  0  0  0  0  0  0  0  0  0  0  0
    2.9281   -3.3394   -2.1487 H   0  0  0  0  0  0  0  0  0  0  0  0
    1.3340   -3.4448   -1.3722 H   0  0  0  0  0  0  0  0  0  0  0  0
  1  2  1  0
  1 34  1  0
  1 35  1  0
  2  3  1  0
  2  4  2  0
  4 12  1  0
  4 33  1  0
  5  6  1  0
  5  7  1  0
  5 11  1  0
  7  8  1  0
  7 36  1  0
  7 37  1  0
  8  9  1  0
  8 38  1  0
  8 39  1  0
  9 10  1  0
  9 40  1  0
  9 41  1  0
 10 11  1  0
 10 42  1  0
 10 43  1  0
 11 44  1  0
 11 45  1  0
 12 13  1  0
 12 46  1  0
 12 47  1  0
 13 14  1  0
 13 48  1  0
 13 49  1  0
 14 15  1  6
 14 16  1  0
 14 32  1  0
 16 17  1  0
 16 50  1  0
 16 51  1  0
 17 18  2  0
 17 19  1  0
 19 20  1  0
 19 52  1  0
 20 21  1  0
 20 53  1  0
 20 54  1  0
 21 22  1  0
 21 55  1  0
 21 56  1  0
 22 23  2  0
 22 31  1  0
 23 24  1  0
 23 57  1  0
 24 25  1  0
 24 26  1  0
 26 27  1  0
 26 31  2  0
 27 28  2  0
 27 58  1  0
 28 29  1  0
 28 59  1  0
 29 30  2  0
 29 60  1  0
 30 31  1  0
 30 61  1  0
 32 33  1  0
 32 62  1  0
 32 63  1  0
 33 64  1  0
 33 65  1  0
M  CHG  2   3  -1  14   1
M  END

