
     RDKit          3D

 45 48  0  0  0  0  0  0  0  0999 V2000
    1.9584   -1.3991    3.4178 C   0  0  0  0  0  0  0  0  0  0  0  0
    2.9367   -0.7555    2.4683 C   0  0  0  0  0  0  0  0  0  0  0  0
    3.2368    0.6091    2.5323 C   0  0  0  0  0  0  0  0  0  0  0  0
    4.1557    1.1297    1.6092 C   0  0  0  0  0  0  0  0  0  0  0  0
    4.7397    0.2944    0.6709 C   0  0  0  0  0  0  0  0  0  0  0  0
    4.3788   -1.0774    0.6826 C   0  0  0  0  0  0  0  0  0  0  0  0
    4.9557   -1.9459   -0.2195 N   0  0  0  0  0  0  0  0  0  0  0  0
    4.5319   -3.3229   -0.3917 C   0  0  1  0  0  0  0  0  0  0  0  0
    3.8635   -3.5592   -1.7537 C   0  0  0  0  0  0  0  0  0  0  0  0
    2.5336   -4.0117   -1.7892 C   0  0  0  0  0  0  0  0  0  0  0  0
    1.8497   -4.2403   -2.9830 C   0  0  0  0  0  0  0  0  0  0  0  0
    2.5141   -4.0110   -4.1837 C   0  0  0  0  0  0  0  0  0  0  0  0
    1.8790   -4.2230   -5.3440 F   0  0  0  0  0  0  0  0  0  0  0  0
    3.8305   -3.5613   -4.2109 C   0  0  0  0  0  0  0  0  0  0  0  0
    4.4852   -3.3432   -2.9960 C   0  0  0  0  0  0  0  0  0  0  0  0
    6.1452   -2.7603   -3.0932 Cl  0  0  0  0  0  0  0  0  0  0  0  0
    5.6253   -4.3480   -0.0764 C   0  0  0  0  0  0  0  0  0  0  0  0
    6.9973   -4.0043    0.0476 C   0  0  0  0  0  0  0  0  0  0  0  0
    7.9764   -4.9287    0.3559 C   0  0  0  0  0  0  0  0  0  0  0  0
    7.6232   -6.2867    0.5721 C   0  0  0  0  0  0  0  0  0  0  0  0
    8.5297   -7.3315    0.8954 C   0  0  0  0  0  0  0  0  0  0  0  0
    8.0533   -8.6115    1.0946 C   0  0  0  0  0  0  0  0  0  0  0  0
    6.6608   -8.8579    0.9744 C   0  0  0  0  0  0  0  0  0  0  0  0
    5.7902   -7.9159    0.6758 N   0  0  0  0  0  0  0  0  0  0  0  0
    6.2485   -6.6544    0.4725 C   0  0  0  0  0  0  0  0  0  0  0  0
    5.2604   -5.6693    0.1536 C   0  0  0  0  0  0  0  0  0  0  0  0
    3.9791   -6.0749    0.1007 O   0  0  0  0  0  0  0  0  0  0  0  0
    3.5002   -1.5679    1.5607 N   0  0  0  0  0  0  0  0  0  0  0  0
    1.5397   -0.6757    4.1317 H   0  0  0  0  0  0  0  0  0  0  0  0
    2.4508   -2.2088    3.9805 H   0  0  0  0  0  0  0  0  0  0  0  0
    1.1305   -1.8620    2.8564 H   0  0  0  0  0  0  0  0  0  0  0  0
    2.7652    1.2483    3.2808 H   0  0  0  0  0  0  0  0  0  0  0  0
    4.4120    2.1926    1.6268 H   0  0  0  0  0  0  0  0  0  0  0  0
    5.4588    0.6730   -0.0597 H   0  0  0  0  0  0  0  0  0  0  0  0
    5.5173   -1.5358   -0.9549 H   0  0  0  0  0  0  0  0  0  0  0  0
    3.7465   -3.4709    0.3618 H   0  0  0  0  0  0  0  0  0  0  0  0
    2.0269   -4.2002   -0.8410 H   0  0  0  0  0  0  0  0  0  0  0  0
    0.8170   -4.5929   -2.9943 H   0  0  0  0  0  0  0  0  0  0  0  0
    4.3314   -3.3833   -5.1625 H   0  0  0  0  0  0  0  0  0  0  0  0
    7.2751   -2.9591   -0.0947 H   0  0  0  0  0  0  0  0  0  0  0  0
    9.0218   -4.6227    0.4415 H   0  0  0  0  0  0  0  0  0  0  0  0
    9.5970   -7.1097    0.9844 H   0  0  0  0  0  0  0  0  0  0  0  0
    8.7279   -9.4335    1.3440 H   0  0  0  0  0  0  0  0  0  0  0  0
    6.2681   -9.8692    1.1330 H   0  0  0  0  0  0  0  0  0  0  0  0
    4.0139   -7.0345    0.3059 H   0  0  0  0  0  0  0  0  0  0  0  0
  1  2  1  0
  1 29  1  0
  1 30  1  0
  1 31  1  0
  2  3  2  0
  2 28  1  0
  3  4  1  0
  3 32  1  0
  4  5  2  0
  4 33  1  0
  5  6  1  0
  5 34  1  0
  6  7  1  0
  6 28  2  0
  7  8  1  0
  7 35  1  0
  8  9  1  0
  8 17  1  0
  8 36  1  1
  9 10  2  0
  9 15  1  0
 10 11  1  0
 10 37  1  0
 11 12  2  0
 11 38  1  0
 12 13  1  0
 12 14  1  0
 14 15  2  0
 14 39  1  0
 15 16  1  0
 17 18  2  0
 17 26  1  0
 18 19  1  0
 18 40  1  0
 19 20  2  0
 19 41  1  0
 20 21  1  0
 20 25  1  0
 21 22  2  0
 21 42  1  0
 22 23  1  0
 22 43  1  0
 23 24  2  0
 23 44  1  0
 24 25  1  0
 25 26  2  0
 26 27  1  0
 27 45  1  0
M  END

