
     RDKit          3D

 50 56  0  0  0  0  0  0  0  0999 V2000
   -1.7243   -0.5518   -0.9512 C   0  0  0  0  0  0  0  0  0  0  0  0
   -1.9395    0.7997   -0.6744 C   0  0  0  0  0  0  0  0  0  0  0  0
   -0.8784    1.5646   -0.1908 C   0  0  0  0  0  0  0  0  0  0  0  0
    0.3765    0.9546    0.0034 C   0  0  0  0  0  0  0  0  0  0  0  0
    1.5085    1.7261    0.5988 C   0  0  0  0  0  0  0  0  0  0  0  0
    1.2551    2.4326    1.7903 C   0  0  0  0  0  0  0  0  0  0  0  0
    2.2530    3.1446    2.4595 C   0  0  0  0  0  0  0  0  0  0  0  0
    3.5519    3.1766    1.9452 C   0  0  0  0  0  0  0  0  0  0  0  0
    3.8176    2.5000    0.7593 C   0  0  0  0  0  0  0  0  0  0  0  0
    2.8191    1.7752    0.0680 C   0  0  0  0  0  0  0  0  0  0  0  0
    3.4261    1.2416   -1.1748 C   0  0  0  0  0  0  0  0  0  0  0  0
    2.8968    0.5040   -2.2440 C   0  0  0  0  0  0  0  0  0  0  0  0
    3.7244    0.1632   -3.3179 C   0  0  0  0  0  0  0  0  0  0  0  0
    5.0726    0.5414   -3.3375 C   0  0  0  0  0  0  0  0  0  0  0  0
    5.6099    1.2785   -2.2765 C   0  0  0  0  0  0  0  0  0  0  0  0
    4.7849    1.6257   -1.2100 C   0  0  0  0  0  0  0  0  0  0  0  0
    5.1581    2.4376    0.0272 C   0  0  1  0  0  0  0  0  0  0  0  0
    5.7575    3.8121   -0.2874 C   0  0  0  0  0  0  0  0  0  0  0  0
    5.2042    4.8528   -1.0285 C   0  0  0  0  0  0  0  0  0  0  0  0
    5.9383    6.0355   -1.1903 C   0  0  0  0  0  0  0  0  0  0  0  0
    7.2097    6.1695   -0.6159 C   0  0  0  0  0  0  0  0  0  0  0  0
    7.7684    5.1254    0.1285 C   0  0  0  0  0  0  0  0  0  0  0  0
    7.0372    3.9435    0.2914 C   0  0  0  0  0  0  0  0  0  0  0  0
    7.3593    2.6986    1.0061 C   0  0  0  0  0  0  0  0  0  0  0  0
    8.4930    2.3244    1.7359 C   0  0  0  0  0  0  0  0  0  0  0  0
    8.5324    1.0541    2.3199 C   0  0  0  0  0  0  0  0  0  0  0  0
    7.4549    0.1692    2.1769 C   0  0  0  0  0  0  0  0  0  0  0  0
    6.3184    0.5412    1.4464 C   0  0  0  0  0  0  0  0  0  0  0  0
    6.2770    1.8054    0.8647 C   0  0  0  0  0  0  0  0  0  0  0  0
    0.5788   -0.3417   -0.2793 N   0  0  0  0  0  0  0  0  0  0  0  0
   -0.4417   -1.0670   -0.7390 C   0  0  0  0  0  0  0  0  0  0  0  0
   -2.5249   -1.1925   -1.3276 H   0  0  0  0  0  0  0  0  0  0  0  0
   -2.9203    1.2546   -0.8367 H   0  0  0  0  0  0  0  0  0  0  0  0
   -1.0087    2.6267    0.0257 H   0  0  0  0  0  0  0  0  0  0  0  0
    0.2502    2.3938    2.2177 H   0  0  0  0  0  0  0  0  0  0  0  0
    2.0160    3.6674    3.3894 H   0  0  0  0  0  0  0  0  0  0  0  0
    4.3442    3.7264    2.4589 H   0  0  0  0  0  0  0  0  0  0  0  0
    1.8569    0.1866   -2.2398 H   0  0  0  0  0  0  0  0  0  0  0  0
    3.3112   -0.4114   -4.1511 H   0  0  0  0  0  0  0  0  0  0  0  0
    5.7061    0.2623   -4.1834 H   0  0  0  0  0  0  0  0  0  0  0  0
    6.6596    1.5826   -2.2856 H   0  0  0  0  0  0  0  0  0  0  0  0
    4.2134    4.7504   -1.4786 H   0  0  0  0  0  0  0  0  0  0  0  0
    5.5159    6.8602   -1.7700 H   0  0  0  0  0  0  0  0  0  0  0  0
    7.7698    7.0983   -0.7515 H   0  0  0  0  0  0  0  0  0  0  0  0
    8.7607    5.2345    0.5738 H   0  0  0  0  0  0  0  0  0  0  0  0
    9.3361    3.0107    1.8500 H   0  0  0  0  0  0  0  0  0  0  0  0
    9.4117    0.7482    2.8928 H   0  0  0  0  0  0  0  0  0  0  0  0
    7.5013   -0.8202    2.6390 H   0  0  0  0  0  0  0  0  0  0  0  0
    5.4796   -0.1507    1.3359 H   0  0  0  0  0  0  0  0  0  0  0  0
   -0.2296   -2.1217   -0.9530 H   0  0  0  0  0  0  0  0  0  0  0  0
  1  2  2  0
  1 31  1  0
  1 32  1  0
  2  3  1  0
  2 33  1  0
  3  4  2  0
  3 34  1  0
  4  5  1  0
  4 30  1  0
  5  6  2  0
  5 10  1  0
  6  7  1  0
  6 35  1  0
  7  8  2  0
  7 36  1  0
  8  9  1  0
  8 37  1  0
  9 10  2  0
 17  9  1  1
 10 11  1  0
 11 12  2  0
 11 16  1  0
 12 13  1  0
 12 38  1  0
 13 14  2  0
 13 39  1  0
 14 15  1  0
 14 40  1  0
 15 16  2  0
 15 41  1  0
 16 17  1  0
 17 18  1  0
 17 29  1  0
 18 19  2  0
 18 23  1  0
 19 20  1  0
 19 42  1  0
 20 21  2  0
 20 43  1  0
 21 22  1  0
 21 44  1  0
 22 23  2  0
 22 45  1  0
 23 24  1  0
 24 25  2  0
 24 29  1  0
 25 26  1  0
 25 46  1  0
 26 27  2  0
 26 47  1  0
 27 28  1  0
 27 48  1  0
 28 29  2  0
 28 49  1  0
 30 31  2  0
 31 50  1  0
M  END

