
     RDKit          3D

 32 34  0  0  0  0  0  0  0  0999 V2000
    1.0141    0.7836    0.5341 Br  0  0  0  0  0  0  0  0  0  0  0  0
    2.8438    0.2140    0.4925 C   0  0  0  0  0  0  0  0  0  0  0  0
    3.8164    1.2031    0.6027 C   0  0  0  0  0  0  0  0  0  0  0  0
    5.1602    0.8807    0.3910 C   0  0  0  0  0  0  0  0  0  0  0  0
    5.4485   -0.4364    0.0376 C   0  0  0  0  0  0  0  0  0  0  0  0
    4.5280   -1.3946   -0.0230 N   0  0  0  0  0  0  0  0  0  0  0  0
    3.2340   -1.1332    0.2281 C   0  0  0  0  0  0  0  0  0  0  0  0
    2.3470   -2.1953    0.1510 N   0  0  0  0  0  0  0  0  0  0  0  0
    2.7605   -3.4143   -0.5503 C   0  0  0  0  0  0  0  0  0  0  0  0
    3.3066   -4.4872    0.3969 C   0  0  0  0  0  0  0  0  0  0  0  0
    2.2791   -4.8254    1.4816 C   0  0  2  0  0  0  0  0  0  0  0  0
    2.6322   -5.9835    2.4559 C   0  0  0  0  0  0  0  0  0  0  0  0
    1.2528   -6.5869    2.1068 C   0  0  0  0  0  0  0  0  0  0  0  0
    1.1428   -5.6505    0.9723 N   0  0  0  0  0  0  0  0  0  0  0  0
    1.8512   -3.5284    2.1881 C   0  0  0  0  0  0  0  0  0  0  0  0
    1.3587   -2.4587    1.1977 C   0  0  0  0  0  0  0  0  0  0  0  0
    3.5136    2.2307    0.8139 H   0  0  0  0  0  0  0  0  0  0  0  0
    5.9440    1.6368    0.4636 H   0  0  0  0  0  0  0  0  0  0  0  0
    6.4762   -0.7373   -0.1997 H   0  0  0  0  0  0  0  0  0  0  0  0
    3.5036   -3.1483   -1.3105 H   0  0  0  0  0  0  0  0  0  0  0  0
    1.8684   -3.8161   -1.0648 H   0  0  0  0  0  0  0  0  0  0  0  0
    4.2381   -4.1203    0.8599 H   0  0  0  0  0  0  0  0  0  0  0  0
    3.5401   -5.4011   -0.1723 H   0  0  0  0  0  0  0  0  0  0  0  0
    2.8003   -5.7006    3.5056 H   0  0  0  0  0  0  0  0  0  0  0  0
    3.4797   -6.5914    2.1070 H   0  0  0  0  0  0  0  0  0  0  0  0
    0.5041   -6.4400    2.9086 H   0  0  0  0  0  0  0  0  0  0  0  0
    1.2346   -7.6527    1.8200 H   0  0  0  0  0  0  0  0  0  0  0  0
    0.2471   -5.1733    0.8768 H   0  0  0  0  0  0  0  0  0  0  0  0
    2.7125   -3.1271    2.7510 H   0  0  0  0  0  0  0  0  0  0  0  0
    1.0553   -3.7387    2.9244 H   0  0  0  0  0  0  0  0  0  0  0  0
    1.1202   -1.5348    1.7347 H   0  0  0  0  0  0  0  0  0  0  0  0
    0.4183   -2.7905    0.7193 H   0  0  0  0  0  0  0  0  0  0  0  0
  1  2  1  0
  2  3  2  0
  2  7  1  0
  3  4  1  0
  3 17  1  0
  4  5  2  0
  4 18  1  0
  5  6  1  0
  5 19  1  0
  6  7  2  0
  7  8  1  0
  8  9  1  0
  8 16  1  0
  9 10  1  0
  9 20  1  0
  9 21  1  0
 10 11  1  0
 10 22  1  0
 10 23  1  0
 11 12  1  0
 11 14  1  6
 11 15  1  0
 12 13  1  0
 12 24  1  0
 12 25  1  0
 13 14  1  0
 13 26  1  0
 13 27  1  0
 14 28  1  0
 15 16  1  0
 15 29  1  0
 15 30  1  0
 16 31  1  0
 16 32  1  0
M  END

