
     RDKit          3D

101113  0  0  0  0  0  0  0  0999 V2000
    2.0830  -15.5244   13.0000 C   0  0  0  0  0  0  0  0  0  0  0  0
    0.7229  -15.7424   12.7541 C   0  0  0  0  0  0  0  0  0  0  0  0
    0.1258  -15.2192   11.6072 C   0  0  0  0  0  0  0  0  0  0  0  0
    0.8838  -14.4698   10.6901 C   0  0  0  0  0  0  0  0  0  0  0  0
    0.2492  -13.9121    9.4682 C   0  0  0  0  0  0  0  0  0  0  0  0
   -1.0550  -14.1424    9.2702 N   0  0  0  0  0  0  0  0  0  0  0  0
   -1.5913  -13.6239    8.1581 C   0  0  0  0  0  0  0  0  0  0  0  0
   -3.0357  -13.8560    7.9001 C   0  0  0  0  0  0  0  0  0  0  0  0
   -3.8101  -14.6006    8.8074 C   0  0  0  0  0  0  0  0  0  0  0  0
   -5.1663  -14.8180    8.5642 C   0  0  0  0  0  0  0  0  0  0  0  0
   -5.7663  -14.2954    7.4132 C   0  0  0  0  0  0  0  0  0  0  0  0
   -5.0028  -13.5534    6.5054 C   0  0  0  0  0  0  0  0  0  0  0  0
   -3.6464  -13.3343    6.7459 C   0  0  0  0  0  0  0  0  0  0  0  0
   -0.8952  -12.9069    7.2650 N   0  0  0  0  0  0  0  0  0  0  0  0
    0.4020  -12.7219    7.5359 C   0  0  0  0  0  0  0  0  0  0  0  0
    1.2128  -11.9318    6.5709 C   0  0  0  0  0  0  0  0  0  0  0  0
    0.6229  -11.3981    5.4118 C   0  0  0  0  0  0  0  0  0  0  0  0
    1.3828  -10.6582    4.5079 C   0  0  0  0  0  0  0  0  0  0  0  0
    2.7471  -10.4376    4.7455 C   0  0  0  0  0  0  0  0  0  0  0  0
    3.5347   -9.6771    3.8189 N   0  0  0  0  0  0  0  0  0  0  0  0
    3.5612   -8.2738    3.9311 C   0  0  0  0  0  0  0  0  0  0  0  0
    2.7973   -7.6264    4.9278 C   0  0  0  0  0  0  0  0  0  0  0  0
    2.7968   -6.2398    5.0439 C   0  0  0  0  0  0  0  0  0  0  0  0
    3.5511   -5.4614    4.1625 C   0  0  0  0  0  0  0  0  0  0  0  0
    4.3104   -6.1002    3.1845 C   0  0  0  0  0  0  0  0  0  0  0  0
    4.3480   -7.4955    3.0537 C   0  0  0  0  0  0  0  0  0  0  0  0
    5.2908   -8.1352    2.0134 C   0  0  1  0  0  0  0  0  0  0  0  0
    4.9156   -9.6158    1.7952 C   0  0  0  0  0  0  0  0  0  0  0  0
    5.4351  -10.3033    0.6893 C   0  0  0  0  0  0  0  0  0  0  0  0
    5.2101  -11.6623    0.4808 C   0  0  0  0  0  0  0  0  0  0  0  0
    4.4355  -12.3657    1.4065 C   0  0  0  0  0  0  0  0  0  0  0  0
    3.8891  -11.7080    2.5041 C   0  0  0  0  0  0  0  0  0  0  0  0
    4.1111  -10.3283    2.7116 C   0  0  0  0  0  0  0  0  0  0  0  0
    5.1505   -7.3831    0.6818 C   0  0  0  0  0  0  0  0  0  0  0  0
    3.8739   -7.3672    0.0813 C   0  0  0  0  0  0  0  0  0  0  0  0
    3.6382   -6.7180   -1.1226 C   0  0  0  0  0  0  0  0  0  0  0  0
    4.6949   -6.0578   -1.7643 C   0  0  0  0  0  0  0  0  0  0  0  0
    5.9561   -6.0657   -1.1843 C   0  0  0  0  0  0  0  0  0  0  0  0
    6.2072   -6.7226    0.0398 C   0  0  0  0  0  0  0  0  0  0  0  0
    7.6360   -6.6737    0.6010 C   0  0  2  0  0  0  0  0  0  0  0  0
    8.1093   -5.2114    0.7329 C   0  0  0  0  0  0  0  0  0  0  0  0
    7.6196   -4.2113    1.5688 C   0  0  0  0  0  0  0  0  0  0  0  0
    8.1969   -2.9357    1.5179 C   0  0  0  0  0  0  0  0  0  0  0  0
    9.2554   -2.6665    0.6400 C   0  0  0  0  0  0  0  0  0  0  0  0
    9.7572   -3.6700   -0.1945 C   0  0  0  0  0  0  0  0  0  0  0  0
    9.1817   -4.9447   -0.1428 C   0  0  0  0  0  0  0  0  0  0  0  0
    9.5109   -6.1776   -0.8722 C   0  0  0  0  0  0  0  0  0  0  0  0
   10.4957   -6.4372   -1.8321 C   0  0  0  0  0  0  0  0  0  0  0  0
   10.6071   -7.7292   -2.3552 C   0  0  0  0  0  0  0  0  0  0  0  0
    9.7495   -8.7484   -1.9200 C   0  0  0  0  0  0  0  0  0  0  0  0
    8.7624   -8.4884   -0.9603 C   0  0  0  0  0  0  0  0  0  0  0  0
    8.6407   -7.2010   -0.4439 C   0  0  0  0  0  0  0  0  0  0  0  0
    7.7873   -7.4193    1.9301 C   0  0  0  0  0  0  0  0  0  0  0  0
    9.0649   -7.4321    2.5282 C   0  0  0  0  0  0  0  0  0  0  0  0
    9.3028   -8.0808    3.7324 C   0  0  0  0  0  0  0  0  0  0  0  0
    8.2476   -8.7416    4.3738 C   0  0  0  0  0  0  0  0  0  0  0  0
    6.9857   -8.7356    3.7941 C   0  0  0  0  0  0  0  0  0  0  0  0
    6.7290   -8.0808    2.5710 C   0  0  0  0  0  0  0  0  0  0  0  0
    3.3397  -10.9669    5.8991 C   0  0  0  0  0  0  0  0  0  0  0  0
    2.5801  -11.7073    6.8040 C   0  0  0  0  0  0  0  0  0  0  0  0
    1.0131  -13.2058    8.6234 N   0  0  0  0  0  0  0  0  0  0  0  0
    2.2501  -14.2553   10.9446 C   0  0  0  0  0  0  0  0  0  0  0  0
    2.8443  -14.7798   12.0925 C   0  0  0  0  0  0  0  0  0  0  0  0
    2.5498  -15.9349   13.8992 H   0  0  0  0  0  0  0  0  0  0  0  0
    0.1253  -16.3236   13.4609 H   0  0  0  0  0  0  0  0  0  0  0  0
   -0.9329  -15.3819   11.4040 H   0  0  0  0  0  0  0  0  0  0  0  0
   -3.3307  -15.0024    9.7004 H   0  0  0  0  0  0  0  0  0  0  0  0
   -5.7598  -15.3980    9.2754 H   0  0  0  0  0  0  0  0  0  0  0  0
   -6.8292  -14.4665    7.2237 H   0  0  0  0  0  0  0  0  0  0  0  0
   -5.4681  -13.1438    5.6053 H   0  0  0  0  0  0  0  0  0  0  0  0
   -3.0408  -12.7578    6.0462 H   0  0  0  0  0  0  0  0  0  0  0  0
   -0.4381  -11.5736    5.2333 H   0  0  0  0  0  0  0  0  0  0  0  0
    0.9243  -10.2435    3.6077 H   0  0  0  0  0  0  0  0  0  0  0  0
    2.1949   -8.2185    5.6152 H   0  0  0  0  0  0  0  0  0  0  0  0
    2.1950   -5.7689    5.8253 H   0  0  0  0  0  0  0  0  0  0  0  0
    3.5505   -4.3717    4.2360 H   0  0  0  0  0  0  0  0  0  0  0  0
    4.8981   -5.4997    2.4883 H   0  0  0  0  0  0  0  0  0  0  0  0
    6.0337   -9.7447   -0.0320 H   0  0  0  0  0  0  0  0  0  0  0  0
    5.6352  -12.1644   -0.3910 H   0  0  0  0  0  0  0  0  0  0  0  0
    4.2451  -13.4338    1.2738 H   0  0  0  0  0  0  0  0  0  0  0  0
    3.2776  -12.2679    3.2103 H   0  0  0  0  0  0  0  0  0  0  0  0
    3.0530   -7.8828    0.5843 H   0  0  0  0  0  0  0  0  0  0  0  0
    2.6377   -6.7237   -1.5623 H   0  0  0  0  0  0  0  0  0  0  0  0
    4.5325   -5.5401   -2.7130 H   0  0  0  0  0  0  0  0  0  0  0  0
    6.7780   -5.5508   -1.6856 H   0  0  0  0  0  0  0  0  0  0  0  0
    6.8040   -4.4163    2.2653 H   0  0  0  0  0  0  0  0  0  0  0  0
    7.8197   -2.1450    2.1713 H   0  0  0  0  0  0  0  0  0  0  0  0
    9.6952   -1.6663    0.6114 H   0  0  0  0  0  0  0  0  0  0  0  0
   10.5884   -3.4597   -0.8725 H   0  0  0  0  0  0  0  0  0  0  0  0
   11.1715   -5.6460   -2.1669 H   0  0  0  0  0  0  0  0  0  0  0  0
   11.3720   -7.9472   -3.1049 H   0  0  0  0  0  0  0  0  0  0  0  0
    9.8530   -9.7562   -2.3301 H   0  0  0  0  0  0  0  0  0  0  0  0
    8.1073   -9.2915   -0.6166 H   0  0  0  0  0  0  0  0  0  0  0  0
    9.8862   -6.9161    2.0263 H   0  0  0  0  0  0  0  0  0  0  0  0
   10.3037   -8.0730    4.1709 H   0  0  0  0  0  0  0  0  0  0  0  0
    8.4112   -9.2590    5.3225 H   0  0  0  0  0  0  0  0  0  0  0  0
    6.1689   -9.2524    4.2998 H   0  0  0  0  0  0  0  0  0  0  0  0
    4.4023  -10.7922    6.0796 H   0  0  0  0  0  0  0  0  0  0  0  0
    3.0355  -12.1218    7.7035 H   0  0  0  0  0  0  0  0  0  0  0  0
    2.8325  -13.6735   10.2299 H   0  0  0  0  0  0  0  0  0  0  0  0
    3.9068  -14.6075   12.2814 H   0  0  0  0  0  0  0  0  0  0  0  0
  1  2  2  0
  1 63  1  0
  1 64  1  0
  2  3  1  0
  2 65  1  0
  3  4  2  0
  3 66  1  0
  4  5  1  0
  4 62  1  0
  5  6  2  0
  5 61  1  0
  6  7  1  0
  7  8  1  0
  7 14  2  0
  8  9  2  0
  8 13  1  0
  9 10  1  0
  9 67  1  0
 10 11  2  0
 10 68  1  0
 11 12  1  0
 11 69  1  0
 12 13  2  0
 12 70  1  0
 13 71  1  0
 14 15  1  0
 15 16  1  0
 15 61  2  0
 16 17  2  0
 16 60  1  0
 17 18  1  0
 17 72  1  0
 18 19  2  0
 18 73  1  0
 19 20  1  0
 19 59  1  0
 20 21  1  0
 20 33  1  0
 21 22  2  0
 21 26  1  0
 22 23  1  0
 22 74  1  0
 23 24  2  0
 23 75  1  0
 24 25  1  0
 24 76  1  0
 25 26  2  0
 25 77  1  0
 27 26  1  1
 27 28  1  0
 27 34  1  0
 27 58  1  0
 28 29  1  0
 28 33  2  0
 29 30  2  0
 29 78  1  0
 30 31  1  0
 30 79  1  0
 31 32  2  0
 31 80  1  0
 32 33  1  0
 32 81  1  0
 34 35  2  0
 34 39  1  0
 35 36  1  0
 35 82  1  0
 36 37  2  0
 36 83  1  0
 37 38  1  0
 37 84  1  0
 38 39  2  0
 38 85  1  0
 40 39  1  6
 40 41  1  0
 40 52  1  0
 40 53  1  0
 41 42  2  0
 41 46  1  0
 42 43  1  0
 42 86  1  0
 43 44  2  0
 43 87  1  0
 44 45  1  0
 44 88  1  0
 45 46  2  0
 45 89  1  0
 46 47  1  0
 47 48  2  0
 47 52  1  0
 48 49  1  0
 48 90  1  0
 49 50  2  0
 49 91  1  0
 50 51  1  0
 50 92  1  0
 51 52  2  0
 51 93  1  0
 53 54  2  0
 53 58  1  0
 54 55  1  0
 54 94  1  0
 55 56  2  0
 55 95  1  0
 56 57  1  0
 56 96  1  0
 57 58  2  0
 57 97  1  0
 59 60  2  0
 59 98  1  0
 60 99  1  0
 62 63  2  0
 62100  1  0
 63101  1  0
M  END

