
     RDKit          3D

 35 39  0  0  0  0  0  0  0  0999 V2000
    0.8832    0.1760   -1.5450 F   0  0  0  0  0  0  0  0  0  0  0  0
    2.0571    0.3219   -0.7674 B   0  0  1  0  0  0  0  0  0  0  0  0
    1.7229    0.7733    0.4931 F   0  0  0  0  0  0  0  0  0  0  0  0
    2.7896   -1.0342   -0.7116 N   0  0  0  0  0  0  0  0  0  0  0  0
    2.2922   -2.1888   -0.2089 C   0  0  0  0  0  0  0  0  0  0  0  0
    3.2483   -3.2083   -0.3207 C   0  0  0  0  0  0  0  0  0  0  0  0
    4.3804   -2.6378   -0.9205 C   0  0  0  0  0  0  0  0  0  0  0  0
    4.0775   -1.2804   -1.1583 C   0  0  0  0  0  0  0  0  0  0  0  0
    4.8307   -0.2350   -1.7287 C   0  0  0  0  0  0  0  0  0  0  0  0
    4.3207    1.0355   -1.8775 C   0  0  0  0  0  0  0  0  0  0  0  0
    4.9350    2.2248   -2.4103 C   0  0  0  0  0  0  0  0  0  0  0  0
    6.2004    2.4701   -2.9684 C   0  0  0  0  0  0  0  0  0  0  0  0
    6.4799    3.7489   -3.4372 C   0  0  0  0  0  0  0  0  0  0  0  0
    5.5127    4.7762   -3.3728 C   0  0  0  0  0  0  0  0  0  0  0  0
    4.2573    4.5434   -2.8230 C   0  0  0  0  0  0  0  0  0  0  0  0
    3.9703    3.2620   -2.3156 C   0  0  0  0  0  0  0  0  0  0  0  0
    2.7827    2.6809   -1.7117 C   0  0  0  0  0  0  0  0  0  0  0  0
    1.5681    3.3919   -1.4149 C   0  0  0  0  0  0  0  0  0  0  0  0
    1.3830    4.7682   -1.1817 C   0  0  0  0  0  0  0  0  0  0  0  0
    0.0171    4.9765   -0.9110 C   0  0  0  0  0  0  0  0  0  0  0  0
   -0.6066    3.7328   -0.9925 C   0  0  0  0  0  0  0  0  0  0  0  0
    0.3283    2.7989   -1.2874 N   0  0  0  0  0  0  0  0  0  0  0  0
    0.1753    1.7964   -1.4108 H   0  0  0  0  0  0  0  0  0  0  0  0
    3.0170    1.3680   -1.4759 N   0  0  0  0  0  0  0  0  0  0  0  0
    1.2857   -2.2292    0.2042 H   0  0  0  0  0  0  0  0  0  0  0  0
    3.1205   -4.2394    0.0025 H   0  0  0  0  0  0  0  0  0  0  0  0
    5.3214   -3.1274   -1.1660 H   0  0  0  0  0  0  0  0  0  0  0  0
    5.8525   -0.4361   -2.0547 H   0  0  0  0  0  0  0  0  0  0  0  0
    6.9478    1.6766   -3.0410 H   0  0  0  0  0  0  0  0  0  0  0  0
    7.4581    3.9615   -3.8758 H   0  0  0  0  0  0  0  0  0  0  0  0
    5.7530    5.7649   -3.7707 H   0  0  0  0  0  0  0  0  0  0  0  0
    3.5102    5.3368   -2.8086 H   0  0  0  0  0  0  0  0  0  0  0  0
    2.1678    5.5186   -1.1543 H   0  0  0  0  0  0  0  0  0  0  0  0
   -0.4671    5.9213   -0.6737 H   0  0  0  0  0  0  0  0  0  0  0  0
   -1.6522    3.4596   -0.8657 H   0  0  0  0  0  0  0  0  0  0  0  0
  2  1  1  6
  2  3  1  0
  2  4  1  0
  2 24  1  0
  4  5  1  0
  4  8  1  0
  5  6  2  0
  5 25  1  0
  6  7  1  0
  6 26  1  0
  7  8  2  0
  7 27  1  0
  8  9  1  0
  9 10  2  0
  9 28  1  0
 10 11  1  0
 10 24  1  0
 11 12  2  0
 11 16  1  0
 12 13  1  0
 12 29  1  0
 13 14  2  0
 13 30  1  0
 14 15  1  0
 14 31  1  0
 15 16  2  0
 15 32  1  0
 16 17  1  0
 17 18  1  0
 17 24  2  0
 18 19  2  0
 18 22  1  0
 19 20  1  0
 19 33  1  0
 20 21  2  0
 20 34  1  0
 21 22  1  0
 21 35  1  0
 22 23  1  0
M  CHG  2   2  -1  24   1
M  END

