
     RDKit          3D

 39 40  0  0  0  0  0  0  0  0999 V2000
    2.9400    1.6785   -0.4476 C   0  0  0  0  0  0  0  0  0  0  0  0
    2.6024    0.2796    0.0990 C   0  0  1  0  0  0  0  0  0  0  0  0
    3.6045   -0.0520    1.2291 C   0  0  0  0  0  0  0  0  0  0  0  0
    1.1697    0.3205    0.6795 C   0  0  0  0  0  0  0  0  0  0  0  0
    2.6816   -0.8066   -0.9911 C   0  0  0  0  0  0  0  0  0  0  0  0
    3.0197   -0.5316   -2.3255 C   0  0  0  0  0  0  0  0  0  0  0  0
    3.0835   -1.5439   -3.2869 C   0  0  0  0  0  0  0  0  0  0  0  0
    2.8116   -2.8815   -2.9615 C   0  0  0  0  0  0  0  0  0  0  0  0
    2.9023   -3.9342   -4.0683 C   0  0  1  0  0  0  0  0  0  0  0  0
    3.9291   -3.5971   -4.9916 O   0  0  0  0  0  0  0  0  0  0  0  0
    3.0549   -5.4006   -3.5883 C   0  0  1  0  0  0  0  0  0  0  0  0
    1.9153   -5.8271   -2.8576 O   0  0  0  0  0  0  0  0  0  0  0  0
    3.3781   -6.3460   -4.7404 C   0  0  1  0  0  0  0  0  0  0  0  0
    3.2092   -7.8302   -4.5721 C   0  0  0  0  0  0  0  0  0  0  0  0
    2.2880   -7.0689   -5.4941 C   0  0  0  0  0  0  0  0  0  0  0  0
    2.4657   -3.1658   -1.6298 C   0  0  0  0  0  0  0  0  0  0  0  0
    2.4078   -2.1494   -0.6748 C   0  0  0  0  0  0  0  0  0  0  0  0
    2.8734    2.4217    0.3626 H   0  0  0  0  0  0  0  0  0  0  0  0
    2.2412    1.9903   -1.2396 H   0  0  0  0  0  0  0  0  0  0  0  0
    3.9620    1.7252   -0.8553 H   0  0  0  0  0  0  0  0  0  0  0  0
    3.5590    0.7134    2.0215 H   0  0  0  0  0  0  0  0  0  0  0  0
    4.6366   -0.0831    0.8450 H   0  0  0  0  0  0  0  0  0  0  0  0
    3.3914   -1.0263    1.6945 H   0  0  0  0  0  0  0  0  0  0  0  0
    1.0939    1.0899    1.4656 H   0  0  0  0  0  0  0  0  0  0  0  0
    0.8804   -0.6427    1.1266 H   0  0  0  0  0  0  0  0  0  0  0  0
    0.4332    0.5604   -0.1039 H   0  0  0  0  0  0  0  0  0  0  0  0
    3.2410    0.4889   -2.6395 H   0  0  0  0  0  0  0  0  0  0  0  0
    3.3548   -1.2921   -4.3145 H   0  0  0  0  0  0  0  0  0  0  0  0
    1.9716   -3.8976   -4.6691 H   0  0  0  0  0  0  0  0  0  0  0  0
    4.7263   -3.3960   -4.4801 H   0  0  0  0  0  0  0  0  0  0  0  0
    3.8897   -5.4396   -2.8644 H   0  0  0  0  0  0  0  0  0  0  0  0
    1.1285   -5.6504   -3.3921 H   0  0  0  0  0  0  0  0  0  0  0  0
    4.2242   -6.0060   -5.3416 H   0  0  0  0  0  0  0  0  0  0  0  0
    2.7822   -8.1766   -3.6270 H   0  0  0  0  0  0  0  0  0  0  0  0
    3.9606   -8.4931   -5.0105 H   0  0  0  0  0  0  0  0  0  0  0  0
    1.2489   -6.9494   -5.1710 H   0  0  0  0  0  0  0  0  0  0  0  0
    2.4019   -7.1861   -6.5752 H   0  0  0  0  0  0  0  0  0  0  0  0
    2.2243   -4.1886   -1.3408 H   0  0  0  0  0  0  0  0  0  0  0  0
    2.1380   -2.4224    0.3485 H   0  0  0  0  0  0  0  0  0  0  0  0
  2  1  1  6
  1 18  1  0
  1 19  1  0
  1 20  1  0
  2  3  1  0
  2  4  1  0
  2  5  1  0
  3 21  1  0
  3 22  1  0
  3 23  1  0
  4 24  1  0
  4 25  1  0
  4 26  1  0
  5  6  2  0
  5 17  1  0
  6  7  1  0
  6 27  1  0
  7  8  2  0
  7 28  1  0
  8  9  1  0
  8 16  1  0
  9 10  1  0
  9 11  1  0
  9 29  1  6
 10 30  1  0
 11 12  1  0
 11 13  1  0
 11 31  1  1
 12 32  1  0
 13 14  1  0
 13 15  1  0
 13 33  1  6
 14 15  1  0
 14 34  1  0
 14 35  1  0
 15 36  1  0
 15 37  1  0
 16 17  2  0
 16 38  1  0
 17 39  1  0
M  END

