
     RDKit          3D

 59 61  0  0  0  0  0  0  0  0999 V2000
    9.8642    8.9834   -7.4754 C   0  0  0  0  0  0  0  0  0  0  0  0
   10.1219    8.2260   -6.1953 C   0  0  0  0  0  0  0  0  0  0  0  0
    9.5314    8.6022   -4.9836 C   0  0  0  0  0  0  0  0  0  0  0  0
    9.7568    7.8877   -3.8053 C   0  0  0  0  0  0  0  0  0  0  0  0
   10.5939    6.7616   -3.8147 C   0  0  0  0  0  0  0  0  0  0  0  0
   10.8644    6.0025   -2.6552 N   0  0  0  0  0  0  0  0  0  0  0  0
   10.3863    6.1634   -1.3824 C   0  0  0  0  0  0  0  0  0  0  0  0
    9.6024    7.0281   -1.0348 O   0  0  0  0  0  0  0  0  0  0  0  0
   10.9853    5.2019   -0.3294 C   0  0  1  0  0  0  0  0  0  0  0  0
   12.0313    5.5086   -0.1535 H   0  0  0  0  0  0  0  0  0  0  0  0
   10.2034    5.2302    0.9796 C   0  0  0  0  0  0  0  0  0  0  0  0
   11.1645    3.4786   -0.9723 S   0  0  0  0  0  0  0  0  0  0  0  0
   12.8762    3.1223   -0.5450 C   0  0  0  0  0  0  0  0  0  0  0  0
   13.6201    4.0496   -0.0485 N   0  0  0  0  0  0  0  0  0  0  0  0
   14.9319    3.7647    0.2721 C   0  0  0  0  0  0  0  0  0  0  0  0
   15.7564    4.7710    0.8198 C   0  0  0  0  0  0  0  0  0  0  0  0
   17.0770    4.4876    1.1411 C   0  0  0  0  0  0  0  0  0  0  0  0
   17.6118    3.2015    0.9283 C   0  0  0  0  0  0  0  0  0  0  0  0
   16.8124    2.2011    0.3917 C   0  0  0  0  0  0  0  0  0  0  0  0
   15.4730    2.4755    0.0608 C   0  0  0  0  0  0  0  0  0  0  0  0
   14.6218    1.4216   -0.5036 C   0  0  0  0  0  0  0  0  0  0  0  0
   14.9752    0.2764   -0.7203 O   0  0  0  0  0  0  0  0  0  0  0  0
   13.2926    1.8300   -0.7988 N   0  0  0  0  0  0  0  0  0  0  0  0
   12.4026    0.7915   -1.3474 C   0  0  0  0  0  0  0  0  0  0  0  0
   11.6739   -0.0067   -0.2610 C   0  0  0  0  0  0  0  0  0  0  0  0
   10.6781   -1.0473   -0.8069 C   0  0  1  0  0  0  0  0  0  0  0  0
   11.3577   -2.1340   -1.6519 C   0  0  0  0  0  0  0  0  0  0  0  0
    9.8817   -1.6718    0.3462 C   0  0  0  0  0  0  0  0  0  0  0  0
   11.2095    6.3554   -5.0256 C   0  0  0  0  0  0  0  0  0  0  0  0
   12.1212    5.1520   -5.0716 C   0  0  0  0  0  0  0  0  0  0  0  0
   10.9577    7.0984   -6.1828 C   0  0  0  0  0  0  0  0  0  0  0  0
    9.3645    9.9442   -7.2813 H   0  0  0  0  0  0  0  0  0  0  0  0
    9.2179    8.4075   -8.1608 H   0  0  0  0  0  0  0  0  0  0  0  0
   10.8005    9.1928   -8.0181 H   0  0  0  0  0  0  0  0  0  0  0  0
    8.8760    9.4774   -4.9504 H   0  0  0  0  0  0  0  0  0  0  0  0
    9.2902    8.1911   -2.8714 H   0  0  0  0  0  0  0  0  0  0  0  0
   11.4642    5.1957   -2.7859 H   0  0  0  0  0  0  0  0  0  0  0  0
   10.1201    6.2683    1.3313 H   0  0  0  0  0  0  0  0  0  0  0  0
   10.7192    4.6313    1.7434 H   0  0  0  0  0  0  0  0  0  0  0  0
    9.1825    4.8406    0.8508 H   0  0  0  0  0  0  0  0  0  0  0  0
   15.3290    5.7626    0.9798 H   0  0  0  0  0  0  0  0  0  0  0  0
   17.7092    5.2725    1.5646 H   0  0  0  0  0  0  0  0  0  0  0  0
   18.6529    2.9942    1.1861 H   0  0  0  0  0  0  0  0  0  0  0  0
   17.1926    1.1932    0.2145 H   0  0  0  0  0  0  0  0  0  0  0  0
   13.0466    0.1311   -1.9402 H   0  0  0  0  0  0  0  0  0  0  0  0
   11.6881    1.2725   -2.0314 H   0  0  0  0  0  0  0  0  0  0  0  0
   11.1313    0.6987    0.3903 H   0  0  0  0  0  0  0  0  0  0  0  0
   12.4280   -0.5124    0.3664 H   0  0  0  0  0  0  0  0  0  0  0  0
    9.9595   -0.5111   -1.4568 H   0  0  0  0  0  0  0  0  0  0  0  0
   12.1152   -2.6765   -1.0609 H   0  0  0  0  0  0  0  0  0  0  0  0
   11.8622   -1.7230   -2.5403 H   0  0  0  0  0  0  0  0  0  0  0  0
   10.6206   -2.8716   -2.0081 H   0  0  0  0  0  0  0  0  0  0  0  0
   10.5489   -2.2178    1.0351 H   0  0  0  0  0  0  0  0  0  0  0  0
    9.1322   -2.3876   -0.0278 H   0  0  0  0  0  0  0  0  0  0  0  0
    9.3510   -0.9051    0.9336 H   0  0  0  0  0  0  0  0  0  0  0  0
   13.0041    5.2754   -4.4186 H   0  0  0  0  0  0  0  0  0  0  0  0
   12.4938    4.9801   -6.0910 H   0  0  0  0  0  0  0  0  0  0  0  0
   11.6071    4.2280   -4.7519 H   0  0  0  0  0  0  0  0  0  0  0  0
   11.4369    6.7818   -7.1148 H   0  0  0  0  0  0  0  0  0  0  0  0
  1  2  1  0
  1 32  1  0
  1 33  1  0
  1 34  1  0
  2  3  2  0
  2 31  1  0
  3  4  1  0
  3 35  1  0
  4  5  2  0
  4 36  1  0
  5  6  1  0
  5 29  1  0
  6  7  1  0
  6 37  1  0
  7  8  2  0
  7  9  1  0
  9 10  1  1
  9 11  1  0
  9 12  1  0
 11 38  1  0
 11 39  1  0
 11 40  1  0
 12 13  2  0
 13 14  1  0
 13 23  1  0
 14 15  2  0
 15 16  1  0
 15 20  1  0
 16 17  2  0
 16 41  1  0
 17 18  1  0
 17 42  1  0
 18 19  2  0
 18 43  1  0
 19 20  1  0
 19 44  1  0
 20 21  2  0
 21 22  1  0
 21 23  1  0
 23 24  1  0
 24 25  1  0
 24 45  1  0
 24 46  1  0
 25 26  1  0
 25 47  1  0
 25 48  1  0
 26 27  1  0
 26 28  1  0
 26 49  1  6
 27 50  1  0
 27 51  1  0
 27 52  1  0
 28 53  1  0
 28 54  1  0
 28 55  1  0
 29 30  1  0
 29 31  2  0
 30 56  1  0
 30 57  1  0
 30 58  1  0
 31 59  1  0
M  CHG  2  12   1  22  -1
M  END

