
     RDKit          3D

 37 39  0  0  0  0  0  0  0  0999 V2000
    1.2184    0.1584    0.4818 C   0  0  0  0  0  0  0  0  0  0  0  0
    2.6942    0.1454    0.0334 C   0  0  1  0  0  0  0  0  0  0  0  0
    2.8689    0.2424   -1.4895 C   0  0  0  0  0  0  0  0  0  0  0  0
    3.7896    1.1454   -2.0423 C   0  0  0  0  0  0  0  0  0  0  0  0
    3.9721    1.2227   -3.4200 C   0  0  0  0  0  0  0  0  0  0  0  0
    4.8583    2.1037   -3.9069 F   0  0  0  0  0  0  0  0  0  0  0  0
    3.2623    0.4111   -4.2994 C   0  0  0  0  0  0  0  0  0  0  0  0
    2.3478   -0.4972   -3.7662 C   0  0  0  0  0  0  0  0  0  0  0  0
    2.1622   -0.5759   -2.3875 C   0  0  0  0  0  0  0  0  0  0  0  0
    1.2645   -1.4672   -1.9384 F   0  0  0  0  0  0  0  0  0  0  0  0
    3.4537    1.1691    0.7400 N   0  0  0  0  0  0  0  0  0  0  0  0
    4.3219    0.6639    1.6741 C   0  0  0  0  0  0  0  0  0  0  0  0
    4.9880    1.2756    2.4787 O   0  0  0  0  0  0  0  0  0  0  0  0
    4.2989   -0.7367    1.5232 N   0  0  0  0  0  0  0  0  0  0  0  0
    5.1636   -1.6372    2.2816 C   0  0  0  0  0  0  0  0  0  0  0  0
    4.5412   -2.1435    3.5712 C   0  0  0  0  0  0  0  0  0  0  0  0
    4.2629   -1.2342    4.6079 C   0  0  0  0  0  0  0  0  0  0  0  0
    3.6860   -1.6491    5.8079 C   0  0  0  0  0  0  0  0  0  0  0  0
    3.3794   -2.9998    6.0001 C   0  0  0  0  0  0  0  0  0  0  0  0
    3.6561   -3.9254    4.9947 C   0  0  0  0  0  0  0  0  0  0  0  0
    4.2326   -3.4975    3.7923 C   0  0  0  0  0  0  0  0  0  0  0  0
    4.5718   -4.7175    2.5787 Cl  0  0  0  0  0  0  0  0  0  0  0  0
    3.3937   -1.1452    0.5622 C   0  0  0  0  0  0  0  0  0  0  0  0
    3.1844   -2.2762    0.2062 O   0  0  0  0  0  0  0  0  0  0  0  0
    0.7309    1.0864    0.1432 H   0  0  0  0  0  0  0  0  0  0  0  0
    1.1654    0.1140    1.5802 H   0  0  0  0  0  0  0  0  0  0  0  0
    0.6740   -0.6960    0.0653 H   0  0  0  0  0  0  0  0  0  0  0  0
    4.3794    1.7943   -1.3952 H   0  0  0  0  0  0  0  0  0  0  0  0
    3.4289    0.4940   -5.3747 H   0  0  0  0  0  0  0  0  0  0  0  0
    1.7657   -1.1618   -4.4073 H   0  0  0  0  0  0  0  0  0  0  0  0
    3.1398    2.1289    0.8269 H   0  0  0  0  0  0  0  0  0  0  0  0
    6.0769   -1.0694    2.5110 H   0  0  0  0  0  0  0  0  0  0  0  0
    5.4184   -2.4766    1.6240 H   0  0  0  0  0  0  0  0  0  0  0  0
    4.5157   -0.1820    4.4537 H   0  0  0  0  0  0  0  0  0  0  0  0
    3.4822   -0.9195    6.5952 H   0  0  0  0  0  0  0  0  0  0  0  0
    2.9289   -3.3386    6.9364 H   0  0  0  0  0  0  0  0  0  0  0  0
    3.4305   -4.9846    5.1283 H   0  0  0  0  0  0  0  0  0  0  0  0
  2  1  1  6
  1 25  1  0
  1 26  1  0
  1 27  1  0
  2  3  1  0
  2 11  1  0
  2 23  1  0
  3  4  2  0
  3  9  1  0
  4  5  1  0
  4 28  1  0
  5  6  1  0
  5  7  2  0
  7  8  1  0
  7 29  1  0
  8  9  2  0
  8 30  1  0
  9 10  1  0
 11 12  1  0
 11 31  1  0
 12 13  2  0
 12 14  1  0
 14 15  1  0
 14 23  1  0
 15 16  1  0
 15 32  1  0
 15 33  1  0
 16 17  2  0
 16 21  1  0
 17 18  1  0
 17 34  1  0
 18 19  2  0
 18 35  1  0
 19 20  1  0
 19 36  1  0
 20 21  2  0
 20 37  1  0
 21 22  1  0
 23 24  2  0
M  END

