
     RDKit          3D

 48 52  0  0  0  0  0  0  0  0999 V2000
    1.0954    0.4958   -0.8103 O   0  0  0  0  0  0  0  0  0  0  0  0
    2.1181    0.1602   -0.2305 C   0  0  0  0  0  0  0  0  0  0  0  0
    2.7354   -1.0401   -0.4413 N   0  0  0  0  0  0  0  0  0  0  0  0
    2.2402   -1.9990   -1.4259 C   0  0  0  0  0  0  0  0  0  0  0  0
    2.9187   -1.9009   -2.7803 C   0  0  0  0  0  0  0  0  0  0  0  0
    2.5813   -0.8621   -3.6610 C   0  0  0  0  0  0  0  0  0  0  0  0
    3.2067   -0.7210   -4.9139 C   0  0  0  0  0  0  0  0  0  0  0  0
    4.1726   -1.6559   -5.2454 C   0  0  0  0  0  0  0  0  0  0  0  0
    4.5139   -2.6946   -4.3777 C   0  0  0  0  0  0  0  0  0  0  0  0
    3.9082   -2.8437   -3.1424 C   0  0  0  0  0  0  0  0  0  0  0  0
    5.4838   -3.4678   -4.9525 O   0  0  0  0  0  0  0  0  0  0  0  0
    5.7528   -2.8987   -6.2326 C   0  0  0  0  0  0  0  0  0  0  0  0
    4.9196   -1.7525   -6.3859 O   0  0  0  0  0  0  0  0  0  0  0  0
    2.7687    1.0763    0.7808 C   0  0  0  0  0  0  0  0  0  0  0  0
    3.6093    0.6119    1.8096 C   0  0  0  0  0  0  0  0  0  0  0  0
    4.1768    1.4889    2.7455 C   0  0  0  0  0  0  0  0  0  0  0  0
    3.8777    2.8389    2.6230 C   0  0  0  0  0  0  0  0  0  0  0  0
    3.0322    3.3075    1.6109 C   0  0  0  0  0  0  0  0  0  0  0  0
    2.4591    2.4476    0.6869 C   0  0  0  0  0  0  0  0  0  0  0  0
    2.9065    4.7924    1.7598 C   0  0  0  0  0  0  0  0  0  0  0  0
    2.2732    5.5784    1.0940 O   0  0  0  0  0  0  0  0  0  0  0  0
    3.7012    5.1273    2.8675 N   0  0  0  0  0  0  0  0  0  0  0  0
    3.8458    6.4859    3.3791 C   0  0  0  0  0  0  0  0  0  0  0  0
    2.7666    6.8815    4.3670 C   0  0  0  0  0  0  0  0  0  0  0  0
    1.5224    7.3658    3.9399 C   0  0  0  0  0  0  0  0  0  0  0  0
    0.5654    7.7041    4.8969 C   0  0  0  0  0  0  0  0  0  0  0  0
    0.8881    7.5458    6.2489 C   0  0  0  0  0  0  0  0  0  0  0  0
    2.0669    7.0833    6.6711 N   0  0  0  0  0  0  0  0  0  0  0  0
    2.9764    6.7602    5.7499 C   0  0  0  0  0  0  0  0  0  0  0  0
    4.3189    4.0082    3.4473 C   0  0  0  0  0  0  0  0  0  0  0  0
    5.0525    4.0324    4.4075 O   0  0  0  0  0  0  0  0  0  0  0  0
    3.6870   -1.1561   -0.1138 H   0  0  0  0  0  0  0  0  0  0  0  0
    1.1637   -1.8055   -1.5246 H   0  0  0  0  0  0  0  0  0  0  0  0
    2.3663   -3.0131   -1.0143 H   0  0  0  0  0  0  0  0  0  0  0  0
    1.8132   -0.1462   -3.3598 H   0  0  0  0  0  0  0  0  0  0  0  0
    2.9414    0.0846   -5.6002 H   0  0  0  0  0  0  0  0  0  0  0  0
    4.1845   -3.6683   -2.4817 H   0  0  0  0  0  0  0  0  0  0  0  0
    5.5228   -3.6359   -7.0238 H   0  0  0  0  0  0  0  0  0  0  0  0
    6.8149   -2.5984   -6.2907 H   0  0  0  0  0  0  0  0  0  0  0  0
    3.8057   -0.4585    1.9063 H   0  0  0  0  0  0  0  0  0  0  0  0
    4.8231    1.1268    3.5478 H   0  0  0  0  0  0  0  0  0  0  0  0
    1.7834    2.7974   -0.0952 H   0  0  0  0  0  0  0  0  0  0  0  0
    3.8321    7.1603    2.5109 H   0  0  0  0  0  0  0  0  0  0  0  0
    4.8347    6.5411    3.8551 H   0  0  0  0  0  0  0  0  0  0  0  0
    1.3123    7.4641    2.8714 H   0  0  0  0  0  0  0  0  0  0  0  0
   -0.4152    8.0860    4.6032 H   0  0  0  0  0  0  0  0  0  0  0  0
    0.1577    7.8063    7.0246 H   0  0  0  0  0  0  0  0  0  0  0  0
    3.9348    6.3739    6.1188 H   0  0  0  0  0  0  0  0  0  0  0  0
  1  2  2  0
  2  3  1  0
  2 14  1  0
  3  4  1  0
  3 32  1  0
  4  5  1  0
  4 33  1  0
  4 34  1  0
  5  6  2  0
  5 10  1  0
  6  7  1  0
  6 35  1  0
  7  8  2  0
  7 36  1  0
  8  9  1  0
  8 13  1  0
  9 10  2  0
  9 11  1  0
 10 37  1  0
 11 12  1  0
 12 13  1  0
 12 38  1  0
 12 39  1  0
 14 15  2  0
 14 19  1  0
 15 16  1  0
 15 40  1  0
 16 17  2  0
 16 41  1  0
 17 18  1  0
 17 30  1  0
 18 19  2  0
 18 20  1  0
 19 42  1  0
 20 21  2  0
 20 22  1  0
 22 23  1  0
 22 30  1  0
 23 24  1  0
 23 43  1  0
 23 44  1  0
 24 25  2  0
 24 29  1  0
 25 26  1  0
 25 45  1  0
 26 27  2  0
 26 46  1  0
 27 28  1  0
 27 47  1  0
 28 29  2  0
 29 48  1  0
 30 31  2  0
M  END

