
     RDKit          3D

 36 37  0  0  0  0  0  0  0  0999 V2000
    4.5653   -2.2548    0.5669 C   0  0  0  0  0  0  0  0  0  0  0  0
    3.4189   -1.6643   -0.2364 C   0  0  0  0  0  0  0  0  0  0  0  0
    3.8798   -1.0596   -1.4616 O   0  0  0  0  0  0  0  0  0  0  0  0
    4.3200    0.2146   -1.3987 C   0  0  0  0  0  0  0  0  0  0  0  0
    4.3235    0.8748   -0.3901 O   0  0  0  0  0  0  0  0  0  0  0  0
    4.8199    0.7052   -2.7518 C   0  0  0  0  0  0  0  0  0  0  0  0
    6.3356    0.7302   -2.8343 C   0  0  0  0  0  0  0  0  0  0  0  0
    7.0218    1.8967   -2.5599 C   0  0  0  0  0  0  0  0  0  0  0  0
    8.4331    1.9820   -2.6108 C   0  0  0  0  0  0  0  0  0  0  0  0
    9.1942    0.8743   -2.9481 C   0  0  0  0  0  0  0  0  0  0  0  0
   10.5360    0.8584   -3.0301 O   0  0  0  0  0  0  0  0  0  0  0  0
   11.2732    2.0387   -2.7538 C   0  0  0  0  0  0  0  0  0  0  0  0
   12.7464    1.7206   -2.9210 C   0  0  0  0  0  0  0  0  0  0  0  0
    8.5299   -0.3735   -3.2407 C   0  0  0  0  0  0  0  0  0  0  0  0
    9.2990   -1.4397   -3.5697 N   0  0  0  0  0  0  0  0  0  0  0  0
    8.7137   -2.5876   -3.8305 C   0  0  0  0  0  0  0  0  0  0  0  0
    7.3115   -2.7772   -3.7808 C   0  0  0  0  0  0  0  0  0  0  0  0
    6.5101   -1.7056   -3.4498 C   0  0  0  0  0  0  0  0  0  0  0  0
    7.0966   -0.4398   -3.1693 C   0  0  0  0  0  0  0  0  0  0  0  0
    4.1706   -2.7708    1.4570 H   0  0  0  0  0  0  0  0  0  0  0  0
    5.2512   -1.4650    0.9065 H   0  0  0  0  0  0  0  0  0  0  0  0
    5.1333   -2.9846   -0.0307 H   0  0  0  0  0  0  0  0  0  0  0  0
    2.8770   -0.9068    0.3490 H   0  0  0  0  0  0  0  0  0  0  0  0
    2.7125   -2.4426   -0.5597 H   0  0  0  0  0  0  0  0  0  0  0  0
    4.4412    1.7311   -2.8640 H   0  0  0  0  0  0  0  0  0  0  0  0
    4.3800    0.0906   -3.5493 H   0  0  0  0  0  0  0  0  0  0  0  0
    6.4591    2.7949   -2.2923 H   0  0  0  0  0  0  0  0  0  0  0  0
    8.9067    2.9367   -2.3844 H   0  0  0  0  0  0  0  0  0  0  0  0
   11.0587    2.3845   -1.7246 H   0  0  0  0  0  0  0  0  0  0  0  0
   10.9635    2.8466   -3.4440 H   0  0  0  0  0  0  0  0  0  0  0  0
   13.0514    0.9215   -2.2285 H   0  0  0  0  0  0  0  0  0  0  0  0
   13.3547    2.6149   -2.7147 H   0  0  0  0  0  0  0  0  0  0  0  0
   12.9559    1.3828   -3.9472 H   0  0  0  0  0  0  0  0  0  0  0  0
    9.3682   -3.4284   -4.0950 H   0  0  0  0  0  0  0  0  0  0  0  0
    6.8817   -3.7577   -3.9992 H   0  0  0  0  0  0  0  0  0  0  0  0
    5.4288   -1.8306   -3.3800 H   0  0  0  0  0  0  0  0  0  0  0  0
  1  2  1  0
  1 20  1  0
  1 21  1  0
  1 22  1  0
  2  3  1  0
  2 23  1  0
  2 24  1  0
  3  4  1  0
  4  5  2  0
  4  6  1  0
  6  7  1  0
  6 25  1  0
  6 26  1  0
  7  8  2  0
  7 19  1  0
  8  9  1  0
  8 27  1  0
  9 10  2  0
  9 28  1  0
 10 11  1  0
 10 14  1  0
 11 12  1  0
 12 13  1  0
 12 29  1  0
 12 30  1  0
 13 31  1  0
 13 32  1  0
 13 33  1  0
 14 15  1  0
 14 19  2  0
 15 16  2  0
 16 17  1  0
 16 34  1  0
 17 18  2  0
 17 35  1  0
 18 19  1  0
 18 36  1  0
M  END

