
     RDKit          3D

 56 58  0  0  0  0  0  0  0  0999 V2000
   -1.1144   -0.1909    1.8275 C   0  0  0  0  0  0  0  0  0  0  0  0
    0.3893   -0.1865    1.5420 C   0  0  0  0  0  0  0  0  0  0  0  0
    1.2020   -1.2149    2.3567 C   0  0  1  0  0  0  0  0  0  0  0  0
    0.8503   -2.6840    2.0240 C   0  0  0  0  0  0  0  0  0  0  0  0
    1.3804   -3.1387    0.6558 C   0  0  0  0  0  0  0  0  0  0  0  0
    2.8918   -2.9010    0.5330 C   0  0  0  0  0  0  0  0  0  0  0  0
    3.2555   -1.4425    0.8370 C   0  0  0  0  0  0  0  0  0  0  0  0
    2.7263   -0.9754    2.2102 C   0  0  2  0  0  0  0  0  0  0  0  0
    3.4379   -1.6028    3.3244 N   0  0  0  0  0  0  0  0  0  0  0  0
    4.6608   -1.1107    3.7350 C   0  0  0  0  0  0  0  0  0  0  0  0
    5.1483   -0.1022    3.2378 O   0  0  0  0  0  0  0  0  0  0  0  0
    5.3079   -1.8208    4.7402 N   0  0  0  0  0  0  0  0  0  0  0  0
    4.6723   -2.7598    5.6582 C   0  0  0  0  0  0  0  0  0  0  0  0
    5.5910   -3.9529    5.9395 C   0  0  0  0  0  0  0  0  0  0  0  0
    6.9727   -3.5099    6.4741 C   0  0  2  0  0  0  0  0  0  0  0  0
    6.9172   -3.0512    7.9172 C   0  0  0  0  0  0  0  0  0  0  0  0
    6.2822   -3.7015    9.0114 C   0  0  0  0  0  0  0  0  0  0  0  0
    6.4804   -3.0622   10.1608 N   0  0  0  0  0  0  0  0  0  0  0  0
    7.2378   -2.0040    9.8475 N   0  0  0  0  0  0  0  0  0  0  0  0
    7.6022   -1.0430   10.8790 C   0  0  0  0  0  0  0  0  0  0  0  0
    6.4232   -0.1899   11.3406 C   0  0  0  0  0  0  0  0  0  0  0  0
    7.5222   -1.9519    8.5162 C   0  0  0  0  0  0  0  0  0  0  0  0
    7.5584   -2.4590    5.5081 C   0  0  0  0  0  0  0  0  0  0  0  0
    6.5904   -1.3082    5.2142 C   0  0  0  0  0  0  0  0  0  0  0  0
   -1.6224    0.6162    1.2759 H   0  0  0  0  0  0  0  0  0  0  0  0
   -1.3184   -0.0385    2.9008 H   0  0  0  0  0  0  0  0  0  0  0  0
   -1.5941   -1.1374    1.5312 H   0  0  0  0  0  0  0  0  0  0  0  0
    0.7906    0.8167    1.7684 H   0  0  0  0  0  0  0  0  0  0  0  0
    0.5540   -0.3326    0.4607 H   0  0  0  0  0  0  0  0  0  0  0  0
    0.9598   -1.0404    3.4203 H   0  0  0  0  0  0  0  0  0  0  0  0
   -0.2390   -2.8385    2.0859 H   0  0  0  0  0  0  0  0  0  0  0  0
    1.2765   -3.3423    2.8048 H   0  0  0  0  0  0  0  0  0  0  0  0
    0.8589   -2.5891   -0.1481 H   0  0  0  0  0  0  0  0  0  0  0  0
    1.1429   -4.2043    0.4976 H   0  0  0  0  0  0  0  0  0  0  0  0
    3.2467   -3.1808   -0.4730 H   0  0  0  0  0  0  0  0  0  0  0  0
    3.4243   -3.5685    1.2363 H   0  0  0  0  0  0  0  0  0  0  0  0
    2.8307   -0.7897    0.0543 H   0  0  0  0  0  0  0  0  0  0  0  0
    4.3449   -1.2851    0.8118 H   0  0  0  0  0  0  0  0  0  0  0  0
    2.9342    0.0996    2.3057 H   0  0  0  0  0  0  0  0  0  0  0  0
    3.2127   -2.5665    3.5299 H   0  0  0  0  0  0  0  0  0  0  0  0
    3.7158   -3.1139    5.2537 H   0  0  0  0  0  0  0  0  0  0  0  0
    4.4305   -2.2468    6.6111 H   0  0  0  0  0  0  0  0  0  0  0  0
    5.7378   -4.5129    5.0001 H   0  0  0  0  0  0  0  0  0  0  0  0
    5.0988   -4.6373    6.6488 H   0  0  0  0  0  0  0  0  0  0  0  0
    7.6326   -4.3957    6.4417 H   0  0  0  0  0  0  0  0  0  0  0  0
    5.6968   -4.6215    9.0036 H   0  0  0  0  0  0  0  0  0  0  0  0
    8.4085   -0.4158   10.4689 H   0  0  0  0  0  0  0  0  0  0  0  0
    8.0215   -1.6092   11.7255 H   0  0  0  0  0  0  0  0  0  0  0  0
    6.0185    0.4111   10.5111 H   0  0  0  0  0  0  0  0  0  0  0  0
    6.7390    0.4958   12.1426 H   0  0  0  0  0  0  0  0  0  0  0  0
    5.6186   -0.8325   11.7273 H   0  0  0  0  0  0  0  0  0  0  0  0
    8.1303   -1.1498    8.1040 H   0  0  0  0  0  0  0  0  0  0  0  0
    7.8007   -2.9592    4.5553 H   0  0  0  0  0  0  0  0  0  0  0  0
    8.5070   -2.0562    5.8993 H   0  0  0  0  0  0  0  0  0  0  0  0
    6.9872   -0.6402    4.4407 H   0  0  0  0  0  0  0  0  0  0  0  0
    6.4351   -0.6940    6.1231 H   0  0  0  0  0  0  0  0  0  0  0  0
  1  2  1  0
  1 25  1  0
  1 26  1  0
  1 27  1  0
  2  3  1  0
  2 28  1  0
  2 29  1  0
  3  4  1  0
  3  8  1  0
  3 30  1  1
  4  5  1  0
  4 31  1  0
  4 32  1  0
  5  6  1  0
  5 33  1  0
  5 34  1  0
  6  7  1  0
  6 35  1  0
  6 36  1  0
  7  8  1  0
  7 37  1  0
  7 38  1  0
  8  9  1  0
  8 39  1  6
  9 10  1  0
  9 40  1  0
 10 11  2  0
 10 12  1  0
 12 13  1  0
 12 24  1  0
 13 14  1  0
 13 41  1  0
 13 42  1  0
 14 15  1  0
 14 43  1  0
 14 44  1  0
 15 16  1  0
 15 23  1  0
 15 45  1  1
 16 17  1  0
 16 22  2  0
 17 18  2  0
 17 46  1  0
 18 19  1  0
 19 20  1  0
 19 22  1  0
 20 21  1  0
 20 47  1  0
 20 48  1  0
 21 49  1  0
 21 50  1  0
 21 51  1  0
 22 52  1  0
 23 24  1  0
 23 53  1  0
 23 54  1  0
 24 55  1  0
 24 56  1  0
M  END

