
     RDKit          3D

 36 37  0  0  0  0  0  0  0  0999 V2000
    0.8665   -0.4955   -0.4216 C   0  0  0  0  0  0  0  0  0  0  0  0
    2.3069   -0.8852   -0.6882 C   0  0  0  0  0  0  0  0  0  0  0  0
    3.0380   -0.7711    0.5288 O   0  0  0  0  0  0  0  0  0  0  0  0
    4.3965   -1.0605    0.4444 C   0  0  1  0  0  0  0  0  0  0  0  0
    5.0307   -0.5542    1.7607 C   0  0  1  0  0  0  0  0  0  0  0  0
    4.5904   -1.3470    2.8088 O   0  0  0  0  0  0  0  0  0  0  0  0
    4.7624   -0.7995    4.1136 C   0  0  0  0  0  0  0  0  0  0  0  0
    4.2233   -1.7883    5.1274 C   0  0  0  0  0  0  0  0  0  0  0  0
    6.4856   -0.4977    1.6835 N   0  0  0  0  0  0  0  0  0  0  0  0
    7.3735   -1.5598    1.6972 C   0  0  0  0  0  0  0  0  0  0  0  0
    8.6225   -0.9905    1.5962 C   0  0  0  0  0  0  0  0  0  0  0  0
    8.5290    0.3785    1.5207 N   0  0  0  0  0  0  0  0  0  0  0  0
    7.2472    0.6425    1.5785 C   0  0  0  0  0  0  0  0  0  0  0  0
    4.6500   -2.4687    0.1711 N   0  0  0  0  0  0  0  0  0  0  0  0
    5.4025   -2.9806   -0.8737 C   0  0  0  0  0  0  0  0  0  0  0  0
    5.3224   -4.3471   -0.7506 C   0  0  0  0  0  0  0  0  0  0  0  0
    4.5397   -4.6879    0.3271 N   0  0  0  0  0  0  0  0  0  0  0  0
    4.1517   -3.5529    0.8575 C   0  0  0  0  0  0  0  0  0  0  0  0
    0.2746   -0.5679   -1.3471 H   0  0  0  0  0  0  0  0  0  0  0  0
    0.8031    0.5375   -0.0463 H   0  0  0  0  0  0  0  0  0  0  0  0
    0.4184   -1.1633    0.3300 H   0  0  0  0  0  0  0  0  0  0  0  0
    2.7610   -0.2240   -1.4539 H   0  0  0  0  0  0  0  0  0  0  0  0
    2.3680   -1.9203   -1.0708 H   0  0  0  0  0  0  0  0  0  0  0  0
    4.8770   -0.4999   -0.3805 H   0  0  0  0  0  0  0  0  0  0  0  0
    4.6875    0.4917    1.8728 H   0  0  0  0  0  0  0  0  0  0  0  0
    4.2232    0.1664    4.1768 H   0  0  0  0  0  0  0  0  0  0  0  0
    5.8331   -0.5946    4.2968 H   0  0  0  0  0  0  0  0  0  0  0  0
    3.1550   -1.9863    4.9507 H   0  0  0  0  0  0  0  0  0  0  0  0
    4.3396   -1.3882    6.1465 H   0  0  0  0  0  0  0  0  0  0  0  0
    4.7673   -2.7432    5.0658 H   0  0  0  0  0  0  0  0  0  0  0  0
    7.0403   -2.5900    1.7833 H   0  0  0  0  0  0  0  0  0  0  0  0
    9.5849   -1.5013    1.5771 H   0  0  0  0  0  0  0  0  0  0  0  0
    6.7919    1.6341    1.5539 H   0  0  0  0  0  0  0  0  0  0  0  0
    5.9198   -2.3360   -1.5802 H   0  0  0  0  0  0  0  0  0  0  0  0
    5.7872   -5.1016   -1.3846 H   0  0  0  0  0  0  0  0  0  0  0  0
    3.5169   -3.4261    1.7315 H   0  0  0  0  0  0  0  0  0  0  0  0
  1  2  1  0
  1 19  1  0
  1 20  1  0
  1 21  1  0
  2  3  1  0
  2 22  1  0
  2 23  1  0
  3  4  1  0
  4  5  1  0
  4 14  1  0
  4 24  1  6
  5  6  1  0
  5  9  1  0
  5 25  1  1
  6  7  1  0
  7  8  1  0
  7 26  1  0
  7 27  1  0
  8 28  1  0
  8 29  1  0
  8 30  1  0
  9 10  1  0
  9 13  1  0
 10 11  2  0
 10 31  1  0
 11 12  1  0
 11 32  1  0
 12 13  2  0
 13 33  1  0
 14 15  1  0
 14 18  1  0
 15 16  2  0
 15 34  1  0
 16 17  1  0
 16 35  1  0
 17 18  2  0
 18 36  1  0
M  END

