
     RDKit          3D

 79 80  0  0  0  0  0  0  0  0999 V2000
   10.5769   -3.2140    3.7628 C   0  0  0  0  0  0  0  0  0  0  0  0
    9.0394   -3.1357    3.7663 C   0  0  1  0  0  0  0  0  0  0  0  0
    8.5810   -2.7390    5.1888 C   0  0  0  0  0  0  0  0  0  0  0  0
    8.6109   -2.0395    2.7633 C   0  0  0  0  0  0  0  0  0  0  0  0
    8.3892   -4.4776    3.3712 C   0  0  0  0  0  0  0  0  0  0  0  0
    9.1348   -5.6233    3.0498 C   0  0  0  0  0  0  0  0  0  0  0  0
    8.4936   -6.8149    2.6976 C   0  0  0  0  0  0  0  0  0  0  0  0
    7.1042   -6.9139    2.6514 C   0  0  0  0  0  0  0  0  0  0  0  0
    6.3420   -5.7775    2.9712 C   0  0  0  0  0  0  0  0  0  0  0  0
    4.9295   -5.7667    2.9593 N   0  0  0  0  0  0  0  0  0  0  0  0
    4.0557   -6.7773    2.6619 C   0  0  0  0  0  0  0  0  0  0  0  0
    4.3819   -7.9010    2.3121 O   0  0  0  0  0  0  0  0  0  0  0  0
    2.5718   -6.4134    2.8256 C   0  0  2  0  0  0  0  0  0  0  0  0
    2.4115   -5.3296    2.6993 H   0  0  0  0  0  0  0  0  0  0  0  0
    2.0339   -6.8278    4.2160 C   0  0  0  0  0  0  0  0  0  0  0  0
    2.6208   -6.0418    5.4010 C   0  0  0  0  0  0  0  0  0  0  0  0
    2.0000   -6.4294    6.7264 C   0  0  0  0  0  0  0  0  0  0  0  0
    2.5955   -7.4036    7.5431 C   0  0  0  0  0  0  0  0  0  0  0  0
    2.0051   -7.7891    8.7503 C   0  0  0  0  0  0  0  0  0  0  0  0
    0.8042   -7.2045    9.1624 C   0  0  0  0  0  0  0  0  0  0  0  0
    0.2002   -6.2322    8.3591 C   0  0  0  0  0  0  0  0  0  0  0  0
    0.7938   -5.8502    7.1531 C   0  0  0  0  0  0  0  0  0  0  0  0
    1.8485   -7.0803    1.7617 N   0  0  0  0  0  0  0  0  0  0  0  0
    0.7662   -6.5100    1.1605 C   0  0  0  0  0  0  0  0  0  0  0  0
    0.2967   -5.4441    1.5258 O   0  0  0  0  0  0  0  0  0  0  0  0
    0.1330   -7.3654    0.0466 C   0  0  1  0  0  0  0  0  0  0  0  0
    0.9482   -7.9297   -0.4501 H   0  0  0  0  0  0  0  0  0  0  0  0
   -0.8844   -8.2180    0.6701 N   0  0  0  0  0  0  0  0  0  0  0  0
   -0.5331   -6.4591   -0.9839 C   0  0  0  0  0  0  0  0  0  0  0  0
    0.4927   -5.6543   -1.7748 C   0  0  0  0  0  0  0  0  0  0  0  0
    1.6878   -5.7210   -1.5060 O   0  0  0  0  0  0  0  0  0  0  0  0
    0.0465   -4.8519   -2.8014 N   0  0  0  0  0  0  0  0  0  0  0  0
   -1.3689   -4.6273   -3.1037 C   0  0  0  0  0  0  0  0  0  0  0  0
   -1.8616   -5.3222   -4.3753 C   0  0  0  0  0  0  0  0  0  0  0  0
   -1.7513   -6.7759   -4.2516 N   0  0  0  0  0  0  0  0  0  0  0  0
    1.0463   -3.9892   -3.4482 C   0  0  0  0  0  0  0  0  0  0  0  0
    1.9664   -4.6762   -4.4612 C   0  0  0  0  0  0  0  0  0  0  0  0
    1.2470   -5.1756   -5.6350 N   0  0  0  0  0  0  0  0  0  0  0  0
    6.9905   -4.5835    3.3240 C   0  0  0  0  0  0  0  0  0  0  0  0
   10.9998   -2.2384    4.0497 H   0  0  0  0  0  0  0  0  0  0  0  0
   10.9735   -3.4662    2.7670 H   0  0  0  0  0  0  0  0  0  0  0  0
   10.9520   -3.9605    4.4802 H   0  0  0  0  0  0  0  0  0  0  0  0
    9.0398   -1.7823    5.4883 H   0  0  0  0  0  0  0  0  0  0  0  0
    8.8745   -3.5031    5.9260 H   0  0  0  0  0  0  0  0  0  0  0  0
    7.4888   -2.6166    5.2513 H   0  0  0  0  0  0  0  0  0  0  0  0
    9.0701   -1.0733    3.0298 H   0  0  0  0  0  0  0  0  0  0  0  0
    7.5196   -1.8956    2.7505 H   0  0  0  0  0  0  0  0  0  0  0  0
    8.9261   -2.2959    1.7395 H   0  0  0  0  0  0  0  0  0  0  0  0
   10.2239   -5.6001    3.0696 H   0  0  0  0  0  0  0  0  0  0  0  0
    9.0948   -7.6939    2.4499 H   0  0  0  0  0  0  0  0  0  0  0  0
    6.6051   -7.8388    2.3738 H   0  0  0  0  0  0  0  0  0  0  0  0
    4.5062   -4.8748    3.1882 H   0  0  0  0  0  0  0  0  0  0  0  0
    2.2117   -7.9076    4.3533 H   0  0  0  0  0  0  0  0  0  0  0  0
    0.9427   -6.6812    4.1880 H   0  0  0  0  0  0  0  0  0  0  0  0
    2.4626   -4.9623    5.2271 H   0  0  0  0  0  0  0  0  0  0  0  0
    3.7106   -6.1976    5.4541 H   0  0  0  0  0  0  0  0  0  0  0  0
    3.5377   -7.8639    7.2305 H   0  0  0  0  0  0  0  0  0  0  0  0
    2.4876   -8.5473    9.3728 H   0  0  0  0  0  0  0  0  0  0  0  0
    0.3423   -7.5025   10.1071 H   0  0  0  0  0  0  0  0  0  0  0  0
   -0.7371   -5.7661    8.6742 H   0  0  0  0  0  0  0  0  0  0  0  0
    0.3146   -5.0866    6.5328 H   0  0  0  0  0  0  0  0  0  0  0  0
    2.2996   -7.8992    1.3642 H   0  0  0  0  0  0  0  0  0  0  0  0
   -0.4545   -8.8350    1.3595 H   0  0  0  0  0  0  0  0  0  0  0  0
   -1.3108   -8.8224   -0.0330 H   0  0  0  0  0  0  0  0  0  0  0  0
   -1.2033   -5.7756   -0.4381 H   0  0  0  0  0  0  0  0  0  0  0  0
   -1.1619   -7.0499   -1.6695 H   0  0  0  0  0  0  0  0  0  0  0  0
   -1.5336   -3.5408   -3.2052 H   0  0  0  0  0  0  0  0  0  0  0  0
   -1.9765   -4.9615   -2.2540 H   0  0  0  0  0  0  0  0  0  0  0  0
   -1.3172   -4.9041   -5.2447 H   0  0  0  0  0  0  0  0  0  0  0  0
   -2.9275   -5.0651   -4.5012 H   0  0  0  0  0  0  0  0  0  0  0  0
   -0.7702   -7.0466   -4.1706 H   0  0  0  0  0  0  0  0  0  0  0  0
   -2.1072   -7.2368   -5.0887 H   0  0  0  0  0  0  0  0  0  0  0  0
    1.6798   -3.5502   -2.6606 H   0  0  0  0  0  0  0  0  0  0  0  0
    0.5027   -3.1781   -3.9552 H   0  0  0  0  0  0  0  0  0  0  0  0
    2.5578   -5.4436   -3.9276 H   0  0  0  0  0  0  0  0  0  0  0  0
    2.6817   -3.9094   -4.8049 H   0  0  0  0  0  0  0  0  0  0  0  0
    0.7798   -6.0555   -5.4145 H   0  0  0  0  0  0  0  0  0  0  0  0
    1.9068   -5.3991   -6.3797 H   0  0  0  0  0  0  0  0  0  0  0  0
    6.3744   -3.7133    3.5685 H   0  0  0  0  0  0  0  0  0  0  0  0
  2  1  1  1
  1 40  1  0
  1 41  1  0
  1 42  1  0
  2  3  1  0
  2  4  1  0
  2  5  1  0
  3 43  1  0
  3 44  1  0
  3 45  1  0
  4 46  1  0
  4 47  1  0
  4 48  1  0
  5  6  2  0
  5 39  1  0
  6  7  1  0
  6 49  1  0
  7  8  2  0
  7 50  1  0
  8  9  1  0
  8 51  1  0
  9 10  1  0
  9 39  2  0
 10 11  1  0
 10 52  1  0
 11 12  2  0
 11 13  1  0
 13 14  1  6
 13 15  1  0
 13 23  1  0
 15 16  1  0
 15 53  1  0
 15 54  1  0
 16 17  1  0
 16 55  1  0
 16 56  1  0
 17 18  2  0
 17 22  1  0
 18 19  1  0
 18 57  1  0
 19 20  2  0
 19 58  1  0
 20 21  1  0
 20 59  1  0
 21 22  2  0
 21 60  1  0
 22 61  1  0
 23 24  1  0
 23 62  1  0
 24 25  2  0
 24 26  1  0
 26 27  1  6
 26 28  1  0
 26 29  1  0
 28 63  1  0
 28 64  1  0
 29 30  1  0
 29 65  1  0
 29 66  1  0
 30 31  2  0
 30 32  1  0
 32 33  1  0
 32 36  1  0
 33 34  1  0
 33 67  1  0
 33 68  1  0
 34 35  1  0
 34 69  1  0
 34 70  1  0
 35 71  1  0
 35 72  1  0
 36 37  1  0
 36 73  1  0
 36 74  1  0
 37 38  1  0
 37 75  1  0
 37 76  1  0
 38 77  1  0
 38 78  1  0
 39 79  1  0
M  END

