
     RDKit          3D

 43 46  0  0  0  0  0  0  0  0999 V2000
    3.0652    1.2936   -1.7055 C   0  0  0  0  0  0  0  0  0  0  0  0
    2.5878    0.2230   -0.9191 O   0  0  0  0  0  0  0  0  0  0  0  0
    3.1666   -0.9985   -1.0309 C   0  0  0  0  0  0  0  0  0  0  0  0
    4.2052   -1.2996   -1.9230 C   0  0  0  0  0  0  0  0  0  0  0  0
    4.7655   -2.5763   -1.9600 C   0  0  0  0  0  0  0  0  0  0  0  0
    4.3043   -3.5945   -1.1114 C   0  0  0  0  0  0  0  0  0  0  0  0
    4.9311   -4.9441   -1.1656 C   0  0  0  0  0  0  0  0  0  0  0  0
    4.6933   -5.9269   -0.1834 C   0  0  0  0  0  0  0  0  0  0  0  0
    5.3106   -7.1709   -0.2989 C   0  0  0  0  0  0  0  0  0  0  0  0
    6.1570   -7.4118   -1.3830 C   0  0  0  0  0  0  0  0  0  0  0  0
    6.3466   -6.3739   -2.3005 C   0  0  0  0  0  0  0  0  0  0  0  0
    5.7571   -5.1852   -2.1990 N   0  0  0  0  0  0  0  0  0  0  0  0
    3.2422   -3.2920   -0.2421 C   0  0  0  0  0  0  0  0  0  0  0  0
    2.6664   -2.0195   -0.1802 C   0  0  0  0  0  0  0  0  0  0  0  0
    1.6054   -1.7347    0.7206 N   0  0  0  0  0  0  0  0  0  0  0  0
    0.3036   -1.3437    0.1861 C   0  0  0  0  0  0  0  0  0  0  0  0
    1.6623   -2.1942    2.0186 C   0  0  0  0  0  0  0  0  0  0  0  0
    0.4916   -2.5438    2.5900 O   0  0  0  0  0  0  0  0  0  0  0  0
    0.7108   -2.9444    3.8828 C   0  0  0  0  0  0  0  0  0  0  0  0
    2.0592   -2.8702    4.1504 C   0  0  0  0  0  0  0  0  0  0  0  0
    2.8636   -3.1480    5.3031 C   0  0  0  0  0  0  0  0  0  0  0  0
    4.2148   -2.9247    5.2343 C   0  0  0  0  0  0  0  0  0  0  0  0
    4.8402   -2.4219    4.0415 C   0  0  0  0  0  0  0  0  0  0  0  0
    4.1064   -2.1487    2.9126 C   0  0  0  0  0  0  0  0  0  0  0  0
    2.6975   -2.3697    2.9400 C   0  0  0  0  0  0  0  0  0  0  0  0
    2.4694    2.1732   -1.4275 H   0  0  0  0  0  0  0  0  0  0  0  0
    2.9376    1.1002   -2.7855 H   0  0  0  0  0  0  0  0  0  0  0  0
    4.1306    1.5039   -1.5046 H   0  0  0  0  0  0  0  0  0  0  0  0
    4.5982   -0.5296   -2.5871 H   0  0  0  0  0  0  0  0  0  0  0  0
    5.5773   -2.8052   -2.6508 H   0  0  0  0  0  0  0  0  0  0  0  0
    4.0491   -5.7189    0.6715 H   0  0  0  0  0  0  0  0  0  0  0  0
    5.1364   -7.9419    0.4563 H   0  0  0  0  0  0  0  0  0  0  0  0
    6.6624   -8.3712   -1.5139 H   0  0  0  0  0  0  0  0  0  0  0  0
    7.0106   -6.5153   -3.1624 H   0  0  0  0  0  0  0  0  0  0  0  0
    2.8278   -4.0572    0.4149 H   0  0  0  0  0  0  0  0  0  0  0  0
    0.4542   -0.7498   -0.7220 H   0  0  0  0  0  0  0  0  0  0  0  0
   -0.2336   -0.7276    0.9210 H   0  0  0  0  0  0  0  0  0  0  0  0
   -0.3249   -2.2214   -0.0526 H   0  0  0  0  0  0  0  0  0  0  0  0
   -0.1704   -3.2079    4.4580 H   0  0  0  0  0  0  0  0  0  0  0  0
    2.4027   -3.5298    6.2176 H   0  0  0  0  0  0  0  0  0  0  0  0
    4.8410   -3.1317    6.1066 H   0  0  0  0  0  0  0  0  0  0  0  0
    5.9203   -2.2563    4.0408 H   0  0  0  0  0  0  0  0  0  0  0  0
    4.5911   -1.7700    2.0110 H   0  0  0  0  0  0  0  0  0  0  0  0
  1  2  1  0
  1 26  1  0
  1 27  1  0
  1 28  1  0
  2  3  1  0
  3  4  2  0
  3 14  1  0
  4  5  1  0
  4 29  1  0
  5  6  2  0
  5 30  1  0
  6  7  1  0
  6 13  1  0
  7  8  2  0
  7 12  1  0
  8  9  1  0
  8 31  1  0
  9 10  2  0
  9 32  1  0
 10 11  1  0
 10 33  1  0
 11 12  2  0
 11 34  1  0
 13 14  2  0
 13 35  1  0
 14 15  1  0
 15 16  1  0
 15 17  1  0
 16 36  1  0
 16 37  1  0
 16 38  1  0
 17 18  1  0
 17 25  2  0
 18 19  1  0
 19 20  2  0
 19 39  1  0
 20 21  1  0
 20 25  1  0
 21 22  2  0
 21 40  1  0
 22 23  1  0
 22 41  1  0
 23 24  2  0
 23 42  1  0
 24 25  1  0
 24 43  1  0
M  END

