
     RDKit          3D

 40 41  0  0  0  0  0  0  0  0999 V2000
    3.3060   -3.0989    0.1548 C   0  0  0  0  0  0  0  0  0  0  0  0
    4.4585   -2.3241    0.7017 C   0  0  0  0  0  0  0  0  0  0  0  0
    4.6518   -1.0196    0.6172 N   0  0  0  0  0  0  0  0  0  0  0  0
    5.8524   -0.8229    1.2397 C   0  0  0  0  0  0  0  0  0  0  0  0
    6.5048    0.5190    1.4011 C   0  0  0  0  0  0  0  0  0  0  0  0
    6.9148    1.1028    0.1165 N   0  0  0  0  0  0  0  0  0  0  0  0
    5.8429    1.7210   -0.6684 C   0  0  0  0  0  0  0  0  0  0  0  0
    8.3793    1.9669    0.1640 S   0  0  1  0  0  0  0  0  0  0  0  0
    8.4669    2.6785   -1.1141 O   0  0  0  0  0  0  0  0  0  0  0  0
    8.5092    2.6986    1.4322 O   0  0  0  0  0  0  0  0  0  0  0  0
    9.6040    0.6528    0.1725 C   0  0  0  0  0  0  0  0  0  0  0  0
    9.7194   -0.1849   -0.9371 C   0  0  0  0  0  0  0  0  0  0  0  0
   10.7205   -1.1549   -0.9276 C   0  0  0  0  0  0  0  0  0  0  0  0
   11.6014   -1.2974    0.1562 C   0  0  0  0  0  0  0  0  0  0  0  0
   12.6883   -2.3527    0.0949 C   0  0  0  0  0  0  0  0  0  0  0  0
   14.0131   -1.7445   -0.0290 N   0  0  0  0  0  0  0  0  0  0  0  0
   11.4779   -0.4370    1.2727 C   0  0  0  0  0  0  0  0  0  0  0  0
   12.3959   -0.5621    2.4631 C   0  0  0  0  0  0  0  0  0  0  0  0
   10.4705    0.5386    1.2602 C   0  0  0  0  0  0  0  0  0  0  0  0
    6.4060   -1.9307    1.7099 N   0  0  0  0  0  0  0  0  0  0  0  0
    5.5089   -2.8745    1.3610 N   0  0  0  0  0  0  0  0  0  0  0  0
    5.6682   -3.8451    1.6072 H   0  0  0  0  0  0  0  0  0  0  0  0
    2.3929   -2.4914    0.2157 H   0  0  0  0  0  0  0  0  0  0  0  0
    3.1470   -4.0369    0.7077 H   0  0  0  0  0  0  0  0  0  0  0  0
    3.4678   -3.3510   -0.9066 H   0  0  0  0  0  0  0  0  0  0  0  0
    7.3888    0.3808    2.0358 H   0  0  0  0  0  0  0  0  0  0  0  0
    5.8231    1.2065    1.9368 H   0  0  0  0  0  0  0  0  0  0  0  0
    5.0517    0.9706   -0.8005 H   0  0  0  0  0  0  0  0  0  0  0  0
    6.2321    2.0264   -1.6466 H   0  0  0  0  0  0  0  0  0  0  0  0
    5.4076    2.6056   -0.1643 H   0  0  0  0  0  0  0  0  0  0  0  0
    9.0436   -0.0767   -1.7868 H   0  0  0  0  0  0  0  0  0  0  0  0
   10.8256   -1.8230   -1.7876 H   0  0  0  0  0  0  0  0  0  0  0  0
   12.4375   -3.0631   -0.7204 H   0  0  0  0  0  0  0  0  0  0  0  0
   12.6779   -2.9431    1.0276 H   0  0  0  0  0  0  0  0  0  0  0  0
   14.0894   -1.2355   -0.9100 H   0  0  0  0  0  0  0  0  0  0  0  0
   14.7383   -2.4618   -0.0367 H   0  0  0  0  0  0  0  0  0  0  0  0
   13.4467   -0.5677    2.1387 H   0  0  0  0  0  0  0  0  0  0  0  0
   12.2200   -1.5112    3.0000 H   0  0  0  0  0  0  0  0  0  0  0  0
   12.2366    0.2580    3.1776 H   0  0  0  0  0  0  0  0  0  0  0  0
   10.3535    1.2252    2.1010 H   0  0  0  0  0  0  0  0  0  0  0  0
  1  2  1  0
  1 23  1  0
  1 24  1  0
  1 25  1  0
  2  3  2  0
  2 21  1  0
  3  4  1  0
  4  5  1  0
  4 20  2  0
  5  6  1  0
  5 26  1  0
  5 27  1  0
  6  7  1  0
  8  6  1  1
  7 28  1  0
  7 29  1  0
  7 30  1  0
  8  9  2  0
  8 10  2  0
  8 11  1  0
 11 12  2  0
 11 19  1  0
 12 13  1  0
 12 31  1  0
 13 14  2  0
 13 32  1  0
 14 15  1  0
 14 17  1  0
 15 16  1  0
 15 33  1  0
 15 34  1  0
 16 35  1  0
 16 36  1  0
 17 18  1  0
 17 19  2  0
 18 37  1  0
 18 38  1  0
 18 39  1  0
 19 40  1  0
 20 21  1  0
 21 22  1  0
M  END

