
     RDKit          3D

 48 50  0  0  0  0  0  0  0  0999 V2000
    1.0301   -0.0066    0.7823 C   0  0  0  0  0  0  0  0  0  0  0  0
    2.5118    0.0433    0.5033 C   0  0  0  0  0  0  0  0  0  0  0  0
    3.3530    0.9511    1.1659 C   0  0  0  0  0  0  0  0  0  0  0  0
    4.7207    0.9980    0.8961 C   0  0  0  0  0  0  0  0  0  0  0  0
    5.2955    0.1242   -0.0372 C   0  0  0  0  0  0  0  0  0  0  0  0
    6.7775    0.2364   -0.2749 C   0  0  0  0  0  0  0  0  0  0  0  0
    7.4105    1.2296    0.0572 O   0  0  0  0  0  0  0  0  0  0  0  0
    7.3836   -0.8342   -0.8799 N   0  0  0  0  0  0  0  0  0  0  0  0
    8.8335   -0.8737   -1.0784 C   0  0  1  0  0  0  0  0  0  0  0  0
    9.2935   -2.3126   -1.3512 C   0  0  0  0  0  0  0  0  0  0  0  0
    8.8737   -2.8147   -2.7372 C   0  0  0  0  0  0  0  0  0  0  0  0
    9.3141   -1.8925   -3.7807 N   0  0  0  0  0  0  0  0  0  0  0  0
    9.7863   -2.4523   -4.9621 C   0  0  0  0  0  0  0  0  0  0  0  0
    9.8313   -3.6612   -5.1307 O   0  0  0  0  0  0  0  0  0  0  0  0
   10.2254   -1.5408   -5.9128 N   0  0  0  0  0  0  0  0  0  0  0  0
   10.6998   -1.7996   -7.2091 C   0  0  0  0  0  0  0  0  0  0  0  0
   10.7541   -3.0814   -7.7886 C   0  0  0  0  0  0  0  0  0  0  0  0
   11.2318   -3.2232   -9.0929 C   0  0  0  0  0  0  0  0  0  0  0  0
   11.6637   -2.1293   -9.8469 C   0  0  0  0  0  0  0  0  0  0  0  0
   11.6065   -0.8641   -9.2583 C   0  0  0  0  0  0  0  0  0  0  0  0
   12.1375    0.5394  -10.1624 Cl  0  0  0  0  0  0  0  0  0  0  0  0
   11.1322   -0.6889   -7.9598 C   0  0  0  0  0  0  0  0  0  0  0  0
    8.8341   -0.5224   -3.5961 C   0  0  0  0  0  0  0  0  0  0  0  0
    9.2719    0.0371   -2.2414 C   0  0  0  0  0  0  0  0  0  0  0  0
    4.4583   -0.7790   -0.7137 C   0  0  0  0  0  0  0  0  0  0  0  0
    3.0906   -0.8171   -0.4455 C   0  0  0  0  0  0  0  0  0  0  0  0
    0.7452    0.6880    1.5858 H   0  0  0  0  0  0  0  0  0  0  0  0
    0.7130   -1.0195    1.0809 H   0  0  0  0  0  0  0  0  0  0  0  0
    0.4469    0.2599   -0.1154 H   0  0  0  0  0  0  0  0  0  0  0  0
    2.9270    1.6357    1.9047 H   0  0  0  0  0  0  0  0  0  0  0  0
    5.3718    1.7131    1.4025 H   0  0  0  0  0  0  0  0  0  0  0  0
    6.8648   -1.7003   -0.9512 H   0  0  0  0  0  0  0  0  0  0  0  0
    9.3043   -0.4955   -0.1560 H   0  0  0  0  0  0  0  0  0  0  0  0
    8.9067   -2.9936   -0.5738 H   0  0  0  0  0  0  0  0  0  0  0  0
   10.3927   -2.3411   -1.2819 H   0  0  0  0  0  0  0  0  0  0  0  0
    7.7717   -2.9384   -2.7886 H   0  0  0  0  0  0  0  0  0  0  0  0
    9.3066   -3.7982   -2.9524 H   0  0  0  0  0  0  0  0  0  0  0  0
   10.2978   -0.5740   -5.6288 H   0  0  0  0  0  0  0  0  0  0  0  0
   10.4314   -3.9414   -7.2083 H   0  0  0  0  0  0  0  0  0  0  0  0
   11.2705   -4.2227   -9.5339 H   0  0  0  0  0  0  0  0  0  0  0  0
   12.0380   -2.2471  -10.8643 H   0  0  0  0  0  0  0  0  0  0  0  0
   11.0993    0.3169   -7.5345 H   0  0  0  0  0  0  0  0  0  0  0  0
    7.7276   -0.5089   -3.6592 H   0  0  0  0  0  0  0  0  0  0  0  0
    9.1871    0.1366   -4.3994 H   0  0  0  0  0  0  0  0  0  0  0  0
    8.8581    1.0442   -2.0877 H   0  0  0  0  0  0  0  0  0  0  0  0
   10.3716    0.1228   -2.2212 H   0  0  0  0  0  0  0  0  0  0  0  0
    4.8619   -1.4441   -1.4818 H   0  0  0  0  0  0  0  0  0  0  0  0
    2.4566   -1.5234   -0.9896 H   0  0  0  0  0  0  0  0  0  0  0  0
  1  2  1  0
  1 27  1  0
  1 28  1  0
  1 29  1  0
  2  3  2  0
  2 26  1  0
  3  4  1  0
  3 30  1  0
  4  5  2  0
  4 31  1  0
  5  6  1  0
  5 25  1  0
  6  7  2  0
  6  8  1  0
  8  9  1  0
  8 32  1  0
  9 10  1  0
  9 24  1  0
  9 33  1  1
 10 11  1  0
 10 34  1  0
 10 35  1  0
 11 12  1  0
 11 36  1  0
 11 37  1  0
 12 13  1  0
 12 23  1  0
 13 14  2  0
 13 15  1  0
 15 16  1  0
 15 38  1  0
 16 17  2  0
 16 22  1  0
 17 18  1  0
 17 39  1  0
 18 19  2  0
 18 40  1  0
 19 20  1  0
 19 41  1  0
 20 21  1  0
 20 22  2  0
 22 42  1  0
 23 24  1  0
 23 43  1  0
 23 44  1  0
 24 45  1  0
 24 46  1  0
 25 26  2  0
 25 47  1  0
 26 48  1  0
M  END

