
     RDKit          3D

 17 17  0  0  0  0  0  0  0  0999 V2000
    2.2182    1.5734    0.0867 O   0  0  0  0  0  0  0  0  0  0  0  0
    2.0412    0.3711   -0.0342 N   0  0  0  0  0  0  0  0  0  0  0  0
    1.3361   -0.3252    0.6853 O   0  0  0  0  0  0  0  0  0  0  0  0
    2.7191   -0.2934   -1.1197 C   0  0  0  0  0  0  0  0  0  0  0  0
    3.5580    0.2879   -2.0394 C   0  0  0  0  0  0  0  0  0  0  0  0
    4.0541   -0.6708   -2.9610 C   0  0  0  0  0  0  0  0  0  0  0  0
    3.5915   -1.9520   -2.7257 C   0  0  0  0  0  0  0  0  0  0  0  0
    3.8774   -3.1922   -3.5258 C   0  0  0  0  0  0  0  0  0  0  0  0
    2.7429   -3.5363   -4.4973 C   0  0  0  0  0  0  0  0  0  0  0  0
    3.1404   -5.0112   -5.4574 Cl  0  0  0  0  0  0  0  0  0  0  0  0
    2.5238   -2.0006   -1.3505 S   0  0  0  0  0  0  0  0  0  0  0  0
    3.7921    1.3517   -2.0293 H   0  0  0  0  0  0  0  0  0  0  0  0
    4.7396   -0.4320   -3.7760 H   0  0  0  0  0  0  0  0  0  0  0  0
    4.0529   -4.0550   -2.8634 H   0  0  0  0  0  0  0  0  0  0  0  0
    4.8045   -3.0369   -4.0990 H   0  0  0  0  0  0  0  0  0  0  0  0
    2.5686   -2.7195   -5.2109 H   0  0  0  0  0  0  0  0  0  0  0  0
    1.8043   -3.7398   -3.9637 H   0  0  0  0  0  0  0  0  0  0  0  0
  1  2  2  0
  2  3  1  0
  2  4  1  0
  4  5  2  0
  4 11  1  0
  5  6  1  0
  5 12  1  0
  6  7  2  0
  6 13  1  0
  7  8  1  0
  7 11  1  0
  8  9  1  0
  8 14  1  0
  8 15  1  0
  9 10  1  0
  9 16  1  0
  9 17  1  0
M  CHG  2   2   1   3  -1
M  END

