
     RDKit          3D

 64 65  0  0  0  0  0  0  0  0999 V2000
   -1.5465  -10.5927    1.7300 C   0  0  0  0  0  0  0  0  0  0  0  0
   -0.1111  -10.1702    1.5585 C   0  0  0  0  0  0  0  0  0  0  0  0
    0.9197  -10.9267    2.1372 C   0  0  0  0  0  0  0  0  0  0  0  0
    2.2535  -10.5349    2.0370 C   0  0  0  0  0  0  0  0  0  0  0  0
    2.5822   -9.3644    1.3514 C   0  0  0  0  0  0  0  0  0  0  0  0
    1.5900   -8.5861    0.7437 C   0  0  0  0  0  0  0  0  0  0  0  0
    1.9495   -7.3276   -0.0084 C   0  0  0  0  0  0  0  0  0  0  0  0
    0.2431   -9.0046    0.8441 C   0  0  0  0  0  0  0  0  0  0  0  0
   -0.7498   -8.1824    0.2408 N   0  0  0  0  0  0  0  0  0  0  0  0
   -1.6624   -8.5764   -0.7010 C   0  0  0  0  0  0  0  0  0  0  0  0
   -1.7753   -9.7043   -1.1436 O   0  0  0  0  0  0  0  0  0  0  0  0
   -2.5601   -7.4271   -1.2060 C   0  0  0  0  0  0  0  0  0  0  0  0
   -3.3281   -6.7428   -0.1779 N   0  0  0  0  0  0  0  0  0  0  0  0
   -2.8018   -5.7594    0.5829 C   0  0  0  0  0  0  0  0  0  0  0  0
   -1.6257   -5.4084    0.5260 O   0  0  0  0  0  0  0  0  0  0  0  0
   -3.7545   -5.0802    1.5732 C   0  0  1  0  0  0  0  0  0  0  0  0
   -3.7336   -3.5646    1.4369 C   0  0  0  0  0  0  0  0  0  0  0  0
   -5.0768   -5.6063    1.3488 O   0  0  0  0  0  0  0  0  0  0  0  0
   -5.8715   -5.8546    2.4032 C   0  0  0  0  0  0  0  0  0  0  0  0
   -5.6271   -5.5380    3.5373 O   0  0  0  0  0  0  0  0  0  0  0  0
   -7.1525   -6.5532    1.9749 C   0  0  0  0  0  0  0  0  0  0  0  0
   -6.8820   -7.4529    0.9287 O   0  0  0  0  0  0  0  0  0  0  0  0
   -7.9125   -8.1809    0.3979 C   0  0  0  0  0  0  0  0  0  0  0  0
   -9.2465   -8.0774    0.8005 C   0  0  0  0  0  0  0  0  0  0  0  0
  -10.2244   -8.8704    0.1818 C   0  0  0  0  0  0  0  0  0  0  0  0
   -9.9152   -9.7789   -0.8374 C   0  0  0  0  0  0  0  0  0  0  0  0
  -10.9701  -10.6614   -1.5320 C   0  0  1  0  0  0  0  0  0  0  0  0
  -12.3848  -10.4207   -0.9752 C   0  0  0  0  0  0  0  0  0  0  0  0
  -10.9870  -10.3476   -3.0462 C   0  0  0  0  0  0  0  0  0  0  0  0
  -10.6151  -12.1515   -1.3209 C   0  0  0  0  0  0  0  0  0  0  0  0
   -8.5593   -9.8632   -1.2179 C   0  0  0  0  0  0  0  0  0  0  0  0
   -7.5741   -9.0868   -0.6193 C   0  0  0  0  0  0  0  0  0  0  0  0
   -1.6448  -11.3285    2.5413 H   0  0  0  0  0  0  0  0  0  0  0  0
   -1.9399  -11.0308    0.7995 H   0  0  0  0  0  0  0  0  0  0  0  0
   -2.1887   -9.7287    1.9662 H   0  0  0  0  0  0  0  0  0  0  0  0
    0.6597  -11.8334    2.6906 H   0  0  0  0  0  0  0  0  0  0  0  0
    3.0385  -11.1376    2.5010 H   0  0  0  0  0  0  0  0  0  0  0  0
    3.6266   -9.0498    1.2751 H   0  0  0  0  0  0  0  0  0  0  0  0
    3.0399   -7.1965   -0.0564 H   0  0  0  0  0  0  0  0  0  0  0  0
    1.5288   -6.4240    0.4668 H   0  0  0  0  0  0  0  0  0  0  0  0
    1.5621   -7.3499   -1.0404 H   0  0  0  0  0  0  0  0  0  0  0  0
   -0.6890   -7.1733    0.3985 H   0  0  0  0  0  0  0  0  0  0  0  0
   -3.2498   -7.8684   -1.9355 H   0  0  0  0  0  0  0  0  0  0  0  0
   -1.9257   -6.6853   -1.7197 H   0  0  0  0  0  0  0  0  0  0  0  0
   -4.3072   -6.9759   -0.0395 H   0  0  0  0  0  0  0  0  0  0  0  0
   -3.4360   -5.3654    2.5888 H   0  0  0  0  0  0  0  0  0  0  0  0
   -4.1351   -3.2576    0.4590 H   0  0  0  0  0  0  0  0  0  0  0  0
   -2.6955   -3.2133    1.5175 H   0  0  0  0  0  0  0  0  0  0  0  0
   -4.3330   -3.1038    2.2349 H   0  0  0  0  0  0  0  0  0  0  0  0
   -7.8751   -5.7727    1.6623 H   0  0  0  0  0  0  0  0  0  0  0  0
   -7.5645   -7.0584    2.8647 H   0  0  0  0  0  0  0  0  0  0  0  0
   -9.5494   -7.3911    1.5918 H   0  0  0  0  0  0  0  0  0  0  0  0
  -11.2530   -8.7584    0.5254 H   0  0  0  0  0  0  0  0  0  0  0  0
  -12.7124   -9.3792   -1.1200 H   0  0  0  0  0  0  0  0  0  0  0  0
  -12.4492  -10.6545    0.0991 H   0  0  0  0  0  0  0  0  0  0  0  0
  -13.1064  -11.0686   -1.4972 H   0  0  0  0  0  0  0  0  0  0  0  0
  -11.2448   -9.2921   -3.2279 H   0  0  0  0  0  0  0  0  0  0  0  0
  -11.7331  -10.9744   -3.5619 H   0  0  0  0  0  0  0  0  0  0  0  0
  -10.0105  -10.5392   -3.5167 H   0  0  0  0  0  0  0  0  0  0  0  0
  -10.6018  -12.4065   -0.2492 H   0  0  0  0  0  0  0  0  0  0  0  0
   -9.6270  -12.4021   -1.7363 H   0  0  0  0  0  0  0  0  0  0  0  0
  -11.3575  -12.7989   -1.8161 H   0  0  0  0  0  0  0  0  0  0  0  0
   -8.2566  -10.5575   -2.0053 H   0  0  0  0  0  0  0  0  0  0  0  0
   -6.5292   -9.1730   -0.9251 H   0  0  0  0  0  0  0  0  0  0  0  0
  1  2  1  0
  1 33  1  0
  1 34  1  0
  1 35  1  0
  2  3  2  0
  2  8  1  0
  3  4  1  0
  3 36  1  0
  4  5  2  0
  4 37  1  0
  5  6  1  0
  5 38  1  0
  6  7  1  0
  6  8  2  0
  7 39  1  0
  7 40  1  0
  7 41  1  0
  8  9  1  0
  9 10  1  0
  9 42  1  0
 10 11  2  0
 10 12  1  0
 12 13  1  0
 12 43  1  0
 12 44  1  0
 13 14  1  0
 13 45  1  0
 14 15  2  0
 14 16  1  0
 16 17  1  0
 16 18  1  0
 16 46  1  1
 17 47  1  0
 17 48  1  0
 17 49  1  0
 18 19  1  0
 19 20  2  0
 19 21  1  0
 21 22  1  0
 21 50  1  0
 21 51  1  0
 22 23  1  0
 23 24  2  0
 23 32  1  0
 24 25  1  0
 24 52  1  0
 25 26  2  0
 25 53  1  0
 26 27  1  0
 26 31  1  0
 27 28  1  1
 27 29  1  0
 27 30  1  0
 28 54  1  0
 28 55  1  0
 28 56  1  0
 29 57  1  0
 29 58  1  0
 29 59  1  0
 30 60  1  0
 30 61  1  0
 30 62  1  0
 31 32  2  0
 31 63  1  0
 32 64  1  0
M  END

