
     RDKit          3D

 54 57  0  0  0  0  0  0  0  0999 V2000
    1.4655   -0.0428    1.1499 C   0  0  0  0  0  0  0  0  0  0  0  0
    2.8300    0.0172    0.4621 C   0  0  0  0  0  0  0  0  0  0  0  0
    3.4205    1.3571    0.3124 N   0  0  0  0  0  0  0  0  0  0  0  0
    2.9172    2.1514   -0.7048 C   0  0  0  0  0  0  0  0  0  0  0  0
    2.0164    1.7674   -1.4344 O   0  0  0  0  0  0  0  0  0  0  0  0
    3.5917    3.4699   -0.9052 C   0  0  0  0  0  0  0  0  0  0  0  0
    3.0447    4.3747   -1.8250 C   0  0  0  0  0  0  0  0  0  0  0  0
    3.7114    5.5576   -2.1325 C   0  0  0  0  0  0  0  0  0  0  0  0
    4.9478    5.8274   -1.5310 C   0  0  0  0  0  0  0  0  0  0  0  0
    5.5156    4.9409   -0.6156 C   0  0  0  0  0  0  0  0  0  0  0  0
    4.8256    3.7616   -0.2863 C   0  0  0  0  0  0  0  0  0  0  0  0
    5.2954    2.8240    0.6506 N   0  0  0  0  0  0  0  0  0  0  0  0
    6.5582    2.7694    1.2377 C   0  0  0  0  0  0  0  0  0  0  0  0
    7.5044    3.4658    0.9499 O   0  0  0  0  0  0  0  0  0  0  0  0
    6.5097    1.6989    2.3184 C   0  0  0  0  0  0  0  0  0  0  0  0
    5.2201    0.9279    2.0360 C   0  0  0  0  0  0  0  0  0  0  0  0
    4.3142    1.9499    1.2953 C   0  0  2  0  0  0  0  0  0  0  0  0
    3.4943    2.7738    2.3444 C   0  0  0  0  0  0  0  0  0  0  0  0
    2.3173    2.6410    2.5561 O   0  0  0  0  0  0  0  0  0  0  0  0
    4.2929    3.6175    3.0158 O   0  0  0  0  0  0  0  0  0  0  0  0
    3.7103    4.3998    4.0709 C   0  0  0  0  0  0  0  0  0  0  0  0
    3.6556    3.6374    5.3792 C   0  0  0  0  0  0  0  0  0  0  0  0
    4.9755    3.3590    5.7959 O   0  0  0  0  0  0  0  0  0  0  0  0
    5.1872    2.6960    6.9732 C   0  0  0  0  0  0  0  0  0  0  0  0
    4.1574    2.1946    7.7793 C   0  0  0  0  0  0  0  0  0  0  0  0
    4.4686    1.5234    8.9687 C   0  0  0  0  0  0  0  0  0  0  0  0
    5.7967    1.3552    9.3534 C   0  0  0  0  0  0  0  0  0  0  0  0
    6.8171    1.8648    8.5405 C   0  0  0  0  0  0  0  0  0  0  0  0
    6.5424    2.5393    7.3473 C   0  0  0  0  0  0  0  0  0  0  0  0
    7.6350    3.0950    6.4724 C   0  0  0  0  0  0  0  0  0  0  0  0
    1.1048   -1.0845    1.1431 H   0  0  0  0  0  0  0  0  0  0  0  0
    0.7375    0.5751    0.6063 H   0  0  0  0  0  0  0  0  0  0  0  0
    1.5076    0.3097    2.1891 H   0  0  0  0  0  0  0  0  0  0  0  0
    2.7319   -0.3835   -0.5573 H   0  0  0  0  0  0  0  0  0  0  0  0
    3.5515   -0.6206    0.9904 H   0  0  0  0  0  0  0  0  0  0  0  0
    2.0984    4.1063   -2.2983 H   0  0  0  0  0  0  0  0  0  0  0  0
    3.2813    6.2624   -2.8477 H   0  0  0  0  0  0  0  0  0  0  0  0
    5.4840    6.7477   -1.7776 H   0  0  0  0  0  0  0  0  0  0  0  0
    6.4819    5.1410   -0.1588 H   0  0  0  0  0  0  0  0  0  0  0  0
    6.4833    2.2116    3.2925 H   0  0  0  0  0  0  0  0  0  0  0  0
    7.4177    1.0814    2.2824 H   0  0  0  0  0  0  0  0  0  0  0  0
    4.7373    0.5120    2.9308 H   0  0  0  0  0  0  0  0  0  0  0  0
    5.4248    0.1016    1.3415 H   0  0  0  0  0  0  0  0  0  0  0  0
    2.6948    4.7063    3.7821 H   0  0  0  0  0  0  0  0  0  0  0  0
    4.3582    5.2812    4.1673 H   0  0  0  0  0  0  0  0  0  0  0  0
    3.0709    2.7091    5.2506 H   0  0  0  0  0  0  0  0  0  0  0  0
    3.1296    4.2622    6.1266 H   0  0  0  0  0  0  0  0  0  0  0  0
    3.1125    2.3170    7.4937 H   0  0  0  0  0  0  0  0  0  0  0  0
    3.6586    1.1346    9.5910 H   0  0  0  0  0  0  0  0  0  0  0  0
    6.0435    0.8335   10.2809 H   0  0  0  0  0  0  0  0  0  0  0  0
    7.8612    1.7393    8.8413 H   0  0  0  0  0  0  0  0  0  0  0  0
    8.6226    2.9454    6.9316 H   0  0  0  0  0  0  0  0  0  0  0  0
    7.4945    4.1727    6.2902 H   0  0  0  0  0  0  0  0  0  0  0  0
    7.6437    2.6134    5.4801 H   0  0  0  0  0  0  0  0  0  0  0  0
  1  2  1  0
  1 31  1  0
  1 32  1  0
  1 33  1  0
  2  3  1  0
  2 34  1  0
  2 35  1  0
  3  4  1  0
  3 17  1  0
  4  5  2  0
  4  6  1  0
  6  7  1  0
  6 11  2  0
  7  8  2  0
  7 36  1  0
  8  9  1  0
  8 37  1  0
  9 10  2  0
  9 38  1  0
 10 11  1  0
 10 39  1  0
 11 12  1  0
 12 13  1  0
 12 17  1  0
 13 14  2  0
 13 15  1  0
 15 16  1  0
 15 40  1  0
 15 41  1  0
 16 17  1  0
 16 42  1  0
 16 43  1  0
 17 18  1  1
 18 19  2  0
 18 20  1  0
 20 21  1  0
 21 22  1  0
 21 44  1  0
 21 45  1  0
 22 23  1  0
 22 46  1  0
 22 47  1  0
 23 24  1  0
 24 25  2  0
 24 29  1  0
 25 26  1  0
 25 48  1  0
 26 27  2  0
 26 49  1  0
 27 28  1  0
 27 50  1  0
 28 29  2  0
 28 51  1  0
 29 30  1  0
 30 52  1  0
 30 53  1  0
 30 54  1  0
M  END

