
     RDKit          3D

 41 43  0  0  0  0  0  0  0  0999 V2000
    4.4332   -1.8366    1.2499 C   0  0  0  0  0  0  0  0  0  0  0  0
    3.9856   -0.7785    0.2710 C   0  0  0  0  0  0  0  0  0  0  0  0
    4.6542    0.4516    0.1901 C   0  0  0  0  0  0  0  0  0  0  0  0
    4.2762    1.4330   -0.7307 C   0  0  0  0  0  0  0  0  0  0  0  0
    3.2067    1.1986   -1.5964 C   0  0  0  0  0  0  0  0  0  0  0  0
    2.5179   -0.0147   -1.5219 C   0  0  0  0  0  0  0  0  0  0  0  0
    2.8921   -0.9995   -0.5965 C   0  0  0  0  0  0  0  0  0  0  0  0
    2.2075   -2.3477   -0.6099 C   0  0  0  0  0  0  0  0  0  0  0  0
    2.8261   -3.3437   -0.9663 O   0  0  0  0  0  0  0  0  0  0  0  0
    0.8886   -2.4089   -0.2255 N   0  0  0  0  0  0  0  0  0  0  0  0
    0.0625   -1.3084    0.2636 C   0  0  0  0  0  0  0  0  0  0  0  0
   -1.1748   -1.1241   -0.6249 C   0  0  0  0  0  0  0  0  0  0  0  0
   -1.9491   -2.4364   -0.8044 C   0  0  0  0  0  0  0  0  0  0  0  0
   -1.0210   -3.5708   -1.2745 C   0  0  2  0  0  0  0  0  0  0  0  0
   -1.7387   -4.8829   -1.3811 C   0  0  0  0  0  0  0  0  0  0  0  0
   -2.8051   -5.2352   -0.6981 N   0  0  0  0  0  0  0  0  0  0  0  0
   -3.1234   -6.5230   -1.0399 N   0  0  0  0  0  0  0  0  0  0  0  0
   -2.2404   -6.9188   -1.9188 C   0  0  0  0  0  0  0  0  0  0  0  0
   -1.3286   -5.9282   -2.1778 N   0  0  0  0  0  0  0  0  0  0  0  0
   -0.2287   -5.9648   -3.1255 C   0  0  0  0  0  0  0  0  0  0  0  0
    0.1873   -3.6818   -0.3131 C   0  0  0  0  0  0  0  0  0  0  0  0
    5.2596   -1.4737    1.8777 H   0  0  0  0  0  0  0  0  0  0  0  0
    4.7614   -2.7418    0.7172 H   0  0  0  0  0  0  0  0  0  0  0  0
    3.6107   -2.1457    1.9163 H   0  0  0  0  0  0  0  0  0  0  0  0
    5.4959    0.6400    0.8626 H   0  0  0  0  0  0  0  0  0  0  0  0
    4.8219    2.3791   -0.7727 H   0  0  0  0  0  0  0  0  0  0  0  0
    2.9079    1.9543   -2.3271 H   0  0  0  0  0  0  0  0  0  0  0  0
    1.6826   -0.2050   -2.2013 H   0  0  0  0  0  0  0  0  0  0  0  0
    0.6595   -0.3905    0.3128 H   0  0  0  0  0  0  0  0  0  0  0  0
   -0.2603   -1.5459    1.2957 H   0  0  0  0  0  0  0  0  0  0  0  0
   -0.8515   -0.7420   -1.6096 H   0  0  0  0  0  0  0  0  0  0  0  0
   -1.8289   -0.3541   -0.1839 H   0  0  0  0  0  0  0  0  0  0  0  0
   -2.7775   -2.3056   -1.5181 H   0  0  0  0  0  0  0  0  0  0  0  0
   -2.4140   -2.7429    0.1469 H   0  0  0  0  0  0  0  0  0  0  0  0
   -0.6177   -3.3083   -2.2695 H   0  0  0  0  0  0  0  0  0  0  0  0
   -2.2076   -7.8971   -2.3979 H   0  0  0  0  0  0  0  0  0  0  0  0
   -0.0842   -6.9988   -3.4658 H   0  0  0  0  0  0  0  0  0  0  0  0
    0.7059   -5.6192   -2.6602 H   0  0  0  0  0  0  0  0  0  0  0  0
   -0.4386   -5.3345   -4.0045 H   0  0  0  0  0  0  0  0  0  0  0  0
    0.9116   -4.4367   -0.6402 H   0  0  0  0  0  0  0  0  0  0  0  0
   -0.1846   -3.9726    0.6863 H   0  0  0  0  0  0  0  0  0  0  0  0
  1  2  1  0
  1 22  1  0
  1 23  1  0
  1 24  1  0
  2  3  2  0
  2  7  1  0
  3  4  1  0
  3 25  1  0
  4  5  2  0
  4 26  1  0
  5  6  1  0
  5 27  1  0
  6  7  2  0
  6 28  1  0
  7  8  1  0
  8  9  2  0
  8 10  1  0
 10 11  1  0
 10 21  1  0
 11 12  1  0
 11 29  1  0
 11 30  1  0
 12 13  1  0
 12 31  1  0
 12 32  1  0
 13 14  1  0
 13 33  1  0
 13 34  1  0
 14 15  1  0
 14 21  1  0
 14 35  1  6
 15 16  2  0
 15 19  1  0
 16 17  1  0
 17 18  2  0
 18 19  1  0
 18 36  1  0
 19 20  1  0
 20 37  1  0
 20 38  1  0
 20 39  1  0
 21 40  1  0
 21 41  1  0
M  END

