
     RDKit          3D

 23 23  0  0  0  0  0  0  0  0999 V2000
    4.3623    0.7572   -3.0144 O   0  0  0  0  0  0  0  0  0  0  0  0
    3.2999    0.2959   -2.6968 C   0  0  0  0  0  0  0  0  0  0  0  0
    3.0771   -0.5580   -1.6900 O   0  0  0  0  0  0  0  0  0  0  0  0
    4.2139   -0.9778   -0.9057 C   0  0  0  0  0  0  0  0  0  0  0  0
    4.8913   -2.2155   -1.5005 C   0  0  1  0  0  0  0  0  0  0  0  0
    6.1364   -2.6167   -0.6799 C   0  0  0  0  0  0  0  0  0  0  0  0
    5.7754   -3.2935    0.6521 C   0  0  0  0  0  0  0  0  0  0  0  0
    4.7849   -4.4468    0.4228 C   0  0  0  0  0  0  0  0  0  0  0  0
    3.6065   -4.0719   -0.3502 N   0  0  0  0  0  0  0  0  0  0  0  0
    3.9303   -3.4234   -1.6140 C   0  0  0  0  0  0  0  0  0  0  0  0
    2.3340    0.5209   -3.1981 H   0  0  0  0  0  0  0  0  0  0  0  0
    3.8011   -1.1772    0.0935 H   0  0  0  0  0  0  0  0  0  0  0  0
    4.9289   -0.1448   -0.8384 H   0  0  0  0  0  0  0  0  0  0  0  0
    5.2218   -1.9348   -2.5153 H   0  0  0  0  0  0  0  0  0  0  0  0
    6.7863   -1.7409   -0.5114 H   0  0  0  0  0  0  0  0  0  0  0  0
    6.7295   -3.3244   -1.2862 H   0  0  0  0  0  0  0  0  0  0  0  0
    5.3285   -2.5606    1.3486 H   0  0  0  0  0  0  0  0  0  0  0  0
    6.6885   -3.6671    1.1471 H   0  0  0  0  0  0  0  0  0  0  0  0
    4.4591   -4.8803    1.3827 H   0  0  0  0  0  0  0  0  0  0  0  0
    5.3029   -5.2581   -0.1238 H   0  0  0  0  0  0  0  0  0  0  0  0
    2.9769   -3.4956    0.2063 H   0  0  0  0  0  0  0  0  0  0  0  0
    2.9950   -3.1175   -2.1082 H   0  0  0  0  0  0  0  0  0  0  0  0
    4.4028   -4.1764   -2.2715 H   0  0  0  0  0  0  0  0  0  0  0  0
  1  2  2  0
  2  3  1  0
  2 11  1  0
  3  4  1  0
  4  5  1  0
  4 12  1  0
  4 13  1  0
  5  6  1  0
  5 10  1  0
  5 14  1  6
  6  7  1  0
  6 15  1  0
  6 16  1  0
  7  8  1  0
  7 17  1  0
  7 18  1  0
  8  9  1  0
  8 19  1  0
  8 20  1  0
  9 10  1  0
  9 21  1  0
 10 22  1  0
 10 23  1  0
M  END

