
     RDKit          3D

 39 39  0  0  0  0  0  0  0  0999 V2000
    5.9765   -3.7838    4.0340 C   0  0  0  0  0  0  0  0  0  0  0  0
    6.3101   -2.8705    2.8798 C   0  0  0  0  0  0  0  0  0  0  0  0
    7.6203   -2.4250    2.6420 C   0  0  0  0  0  0  0  0  0  0  0  0
    7.9298   -1.5980    1.5611 C   0  0  0  0  0  0  0  0  0  0  0  0
    6.9334   -1.1492    0.6805 C   0  0  0  0  0  0  0  0  0  0  0  0
    7.2091   -0.4458   -0.4388 O   0  0  0  0  0  0  0  0  0  0  0  0
    7.6814    0.9296   -0.4209 C   0  0  1  0  0  0  0  0  0  0  0  0
    7.1736    1.6951    0.7957 C   0  0  0  0  0  0  0  0  0  0  0  0
    9.2042    0.9083   -0.6375 C   0  0  0  0  0  0  0  0  0  0  0  0
    9.9242    2.2335   -1.0096 C   0  0  1  0  0  0  0  0  0  0  0  0
    9.1926    3.0044   -2.1228 C   0  0  0  0  0  0  0  0  0  0  0  0
   10.1499    3.0421    0.2027 N   0  0  0  0  0  0  0  0  0  0  0  0
   11.3072    1.7864   -1.5800 C   0  0  0  0  0  0  0  0  0  0  0  0
   12.3339    1.8935   -0.7028 N   0  0  0  0  0  0  0  0  0  0  0  0
   11.4163    1.3502   -2.7130 O   0  0  0  0  0  0  0  0  0  0  0  0
    5.6158   -1.5832    0.9391 C   0  0  0  0  0  0  0  0  0  0  0  0
    4.4946   -1.1393    0.0922 N   0  0  0  0  0  0  0  0  0  0  0  0
    4.5026    0.0106   -0.3184 O   0  0  0  0  0  0  0  0  0  0  0  0
    3.6041   -1.9474   -0.1191 O   0  0  0  0  0  0  0  0  0  0  0  0
    5.3137   -2.4453    1.9938 C   0  0  0  0  0  0  0  0  0  0  0  0
    6.8676   -4.0130    4.6363 H   0  0  0  0  0  0  0  0  0  0  0  0
    5.5556   -4.7391    3.6789 H   0  0  0  0  0  0  0  0  0  0  0  0
    5.2261   -3.3295    4.7018 H   0  0  0  0  0  0  0  0  0  0  0  0
    8.4254   -2.7493    3.3071 H   0  0  0  0  0  0  0  0  0  0  0  0
    8.9643   -1.3096    1.3700 H   0  0  0  0  0  0  0  0  0  0  0  0
    7.2014    1.3506   -1.3162 H   0  0  0  0  0  0  0  0  0  0  0  0
    7.6805    1.3909    1.7248 H   0  0  0  0  0  0  0  0  0  0  0  0
    6.0928    1.5341    0.9098 H   0  0  0  0  0  0  0  0  0  0  0  0
    7.3296    2.7754    0.6520 H   0  0  0  0  0  0  0  0  0  0  0  0
    9.3838    0.1998   -1.4594 H   0  0  0  0  0  0  0  0  0  0  0  0
    9.7035    0.5010    0.2579 H   0  0  0  0  0  0  0  0  0  0  0  0
    8.2054    3.3559   -1.7860 H   0  0  0  0  0  0  0  0  0  0  0  0
    9.0684    2.3776   -3.0165 H   0  0  0  0  0  0  0  0  0  0  0  0
    9.7798    3.8880   -2.4223 H   0  0  0  0  0  0  0  0  0  0  0  0
    9.3128    3.0903    0.7784 H   0  0  0  0  0  0  0  0  0  0  0  0
   10.3780    4.0040   -0.0540 H   0  0  0  0  0  0  0  0  0  0  0  0
   12.1389    2.2641    0.2214 H   0  0  0  0  0  0  0  0  0  0  0  0
   13.2571    1.5877   -0.9837 H   0  0  0  0  0  0  0  0  0  0  0  0
    4.2786   -2.7705    2.1111 H   0  0  0  0  0  0  0  0  0  0  0  0
  1  2  1  0
  1 21  1  0
  1 22  1  0
  1 23  1  0
  2  3  2  0
  2 20  1  0
  3  4  1  0
  3 24  1  0
  4  5  2  0
  4 25  1  0
  5  6  1  0
  5 16  1  0
  6  7  1  0
  7  8  1  0
  7  9  1  0
  7 26  1  6
  8 27  1  0
  8 28  1  0
  8 29  1  0
  9 10  1  0
  9 30  1  0
  9 31  1  0
 10 11  1  0
 10 12  1  0
 10 13  1  6
 11 32  1  0
 11 33  1  0
 11 34  1  0
 12 35  1  0
 12 36  1  0
 13 14  1  0
 13 15  2  0
 14 37  1  0
 14 38  1  0
 16 17  1  0
 16 20  2  0
 17 18  2  0
 17 19  1  0
 20 39  1  0
M  CHG  2  17   1  19  -1
M  END

