
     RDKit          3D

 45 47  0  0  0  0  0  0  0  0999 V2000
    1.9411    1.3800    1.6655 C   0  0  0  0  0  0  0  0  0  0  0  0
    3.0218    1.7002    0.6500 C   0  0  0  0  0  0  0  0  0  0  0  0
    3.9285    0.6130    0.6144 O   0  0  0  0  0  0  0  0  0  0  0  0
    4.9980    0.6554   -0.2271 C   0  0  0  0  0  0  0  0  0  0  0  0
    5.8518   -0.4562   -0.2090 C   0  0  0  0  0  0  0  0  0  0  0  0
    6.9773   -0.5140   -1.0326 C   0  0  0  0  0  0  0  0  0  0  0  0
    7.2697    0.5524   -1.8981 C   0  0  0  0  0  0  0  0  0  0  0  0
    8.3428    0.5953   -2.7416 O   0  0  0  0  0  0  0  0  0  0  0  0
    9.2378   -0.4933   -2.7814 C   0  0  0  0  0  0  0  0  0  0  0  0
   10.3084   -0.1441   -3.8060 C   0  0  0  0  0  0  0  0  0  0  0  0
   11.4794   -1.5519   -3.9391 S   0  0  0  0  0  0  0  0  0  0  0  0
   12.6787   -0.7788   -4.9569 C   0  0  0  0  0  0  0  0  0  0  0  0
   12.6813    0.4473   -5.4244 N   0  0  0  0  0  0  0  0  0  0  0  0
   13.8325    0.6080   -6.1544 N   0  0  0  0  0  0  0  0  0  0  0  0
   14.4982   -0.5212   -6.1321 C   0  0  0  0  0  0  0  0  0  0  0  0
   15.8219   -0.7262   -6.7480 C   0  0  0  0  0  0  0  0  0  0  0  0
   16.8193    0.2298   -6.4811 C   0  0  0  0  0  0  0  0  0  0  0  0
   18.0877    0.1147   -7.0484 C   0  0  0  0  0  0  0  0  0  0  0  0
   19.3038    1.3132   -6.6914 Cl  0  0  0  0  0  0  0  0  0  0  0  0
   18.3970   -0.9551   -7.8941 C   0  0  0  0  0  0  0  0  0  0  0  0
   17.4135   -1.8996   -8.1848 C   0  0  0  0  0  0  0  0  0  0  0  0
   16.1379   -1.7809   -7.6272 C   0  0  0  0  0  0  0  0  0  0  0  0
   14.9177   -2.9424   -8.1229 Cl  0  0  0  0  0  0  0  0  0  0  0  0
   13.8040   -1.4481   -5.3679 N   0  0  0  0  0  0  0  0  0  0  0  0
   14.1353   -2.7314   -4.9580 N   0  0  0  0  0  0  0  0  0  0  0  0
    6.4178    1.6639   -1.9178 C   0  0  0  0  0  0  0  0  0  0  0  0
    5.2926    1.7216   -1.0939 C   0  0  0  0  0  0  0  0  0  0  0  0
    1.2139    2.2048    1.7227 H   0  0  0  0  0  0  0  0  0  0  0  0
    2.3790    1.2306    2.6643 H   0  0  0  0  0  0  0  0  0  0  0  0
    1.4049    0.4605    1.3847 H   0  0  0  0  0  0  0  0  0  0  0  0
    3.5534    2.6314    0.9266 H   0  0  0  0  0  0  0  0  0  0  0  0
    2.5797    1.8613   -0.3523 H   0  0  0  0  0  0  0  0  0  0  0  0
    5.6152   -1.2799    0.4677 H   0  0  0  0  0  0  0  0  0  0  0  0
    7.6166   -1.3961   -0.9884 H   0  0  0  0  0  0  0  0  0  0  0  0
    8.7106   -1.4236   -3.0698 H   0  0  0  0  0  0  0  0  0  0  0  0
    9.6962   -0.6646   -1.7885 H   0  0  0  0  0  0  0  0  0  0  0  0
   10.8622    0.7559   -3.5072 H   0  0  0  0  0  0  0  0  0  0  0  0
    9.8565    0.0487   -4.7891 H   0  0  0  0  0  0  0  0  0  0  0  0
   16.5817    1.0668   -5.8243 H   0  0  0  0  0  0  0  0  0  0  0  0
   19.3940   -1.0402   -8.3287 H   0  0  0  0  0  0  0  0  0  0  0  0
   17.6266   -2.7267   -8.8637 H   0  0  0  0  0  0  0  0  0  0  0  0
   15.0099   -2.7145   -4.4323 H   0  0  0  0  0  0  0  0  0  0  0  0
   14.2464   -3.3322   -5.7758 H   0  0  0  0  0  0  0  0  0  0  0  0
    6.6549    2.4875   -2.5945 H   0  0  0  0  0  0  0  0  0  0  0  0
    4.6537    2.6038   -1.1378 H   0  0  0  0  0  0  0  0  0  0  0  0
  1  2  1  0
  1 28  1  0
  1 29  1  0
  1 30  1  0
  2  3  1  0
  2 31  1  0
  2 32  1  0
  3  4  1  0
  4  5  2  0
  4 27  1  0
  5  6  1  0
  5 33  1  0
  6  7  2  0
  6 34  1  0
  7  8  1  0
  7 26  1  0
  8  9  1  0
  9 10  1  0
  9 35  1  0
  9 36  1  0
 10 11  1  0
 10 37  1  0
 10 38  1  0
 11 12  1  0
 12 13  2  0
 12 24  1  0
 13 14  1  0
 14 15  2  0
 15 16  1  0
 15 24  1  0
 16 17  2  0
 16 22  1  0
 17 18  1  0
 17 39  1  0
 18 19  1  0
 18 20  2  0
 20 21  1  0
 20 40  1  0
 21 22  2  0
 21 41  1  0
 22 23  1  0
 24 25  1  0
 25 42  1  0
 25 43  1  0
 26 27  2  0
 26 44  1  0
 27 45  1  0
M  END

