
     RDKit          3D

 50 56  0  0  0  0  0  0  0  0999 V2000
    1.9117   -0.9606   -0.7887 C   0  0  0  0  0  0  0  0  0  0  0  0
    1.7474    0.4256   -0.8567 C   0  0  0  0  0  0  0  0  0  0  0  0
    0.6301    1.0465   -0.4679 N   0  0  0  0  0  0  0  0  0  0  0  0
   -0.3715    0.3014   -0.0015 C   0  0  0  0  0  0  0  0  0  0  0  0
   -0.3304   -1.1028    0.1019 C   0  0  0  0  0  0  0  0  0  0  0  0
   -1.4703   -1.8719    0.6778 C   0  0  0  0  0  0  0  0  0  0  0  0
   -1.2640   -2.5765    1.8790 C   0  0  0  0  0  0  0  0  0  0  0  0
   -2.2933   -3.2826    2.5070 C   0  0  0  0  0  0  0  0  0  0  0  0
   -3.5751   -3.3042    1.9474 C   0  0  0  0  0  0  0  0  0  0  0  0
   -3.7935   -2.6278    0.7522 C   0  0  0  0  0  0  0  0  0  0  0  0
   -2.7580   -1.9202    0.0994 C   0  0  0  0  0  0  0  0  0  0  0  0
   -3.3020   -1.3769   -1.1662 C   0  0  0  0  0  0  0  0  0  0  0  0
   -2.7082   -0.6590   -2.2148 C   0  0  0  0  0  0  0  0  0  0  0  0
   -3.4862   -0.2886   -3.3165 C   0  0  0  0  0  0  0  0  0  0  0  0
   -4.8434   -0.6263   -3.3840 C   0  0  0  0  0  0  0  0  0  0  0  0
   -5.4408   -1.3535   -2.3477 C   0  0  0  0  0  0  0  0  0  0  0  0
   -4.6678   -1.7269   -1.2518 C   0  0  0  0  0  0  0  0  0  0  0  0
   -5.1025   -2.5414   -0.0346 C   0  0  1  0  0  0  0  0  0  0  0  0
   -5.7029   -3.9070   -0.3868 C   0  0  0  0  0  0  0  0  0  0  0  0
   -5.1292   -4.9474   -1.1126 C   0  0  0  0  0  0  0  0  0  0  0  0
   -5.8682   -6.1207   -1.3151 C   0  0  0  0  0  0  0  0  0  0  0  0
   -7.1640   -6.2456   -0.7958 C   0  0  0  0  0  0  0  0  0  0  0  0
   -7.7428   -5.2016   -0.0668 C   0  0  0  0  0  0  0  0  0  0  0  0
   -7.0069   -4.0290    0.1366 C   0  0  0  0  0  0  0  0  0  0  0  0
   -7.3458   -2.7865    0.8477 C   0  0  0  0  0  0  0  0  0  0  0  0
   -8.5056   -2.4061    1.5319 C   0  0  0  0  0  0  0  0  0  0  0  0
   -8.5569   -1.1401    2.1244 C   0  0  0  0  0  0  0  0  0  0  0  0
   -7.4655   -0.2655    2.0348 C   0  0  0  0  0  0  0  0  0  0  0  0
   -6.3029   -0.6441    1.3501 C   0  0  0  0  0  0  0  0  0  0  0  0
   -6.2492   -1.9039    0.7600 C   0  0  0  0  0  0  0  0  0  0  0  0
    0.8572   -1.7333   -0.2993 C   0  0  0  0  0  0  0  0  0  0  0  0
    2.8456   -1.4241   -1.1153 H   0  0  0  0  0  0  0  0  0  0  0  0
    2.5547    1.0614   -1.2395 H   0  0  0  0  0  0  0  0  0  0  0  0
   -1.2731    0.8371    0.3188 H   0  0  0  0  0  0  0  0  0  0  0  0
   -0.2727   -2.5470    2.3385 H   0  0  0  0  0  0  0  0  0  0  0  0
   -2.0950   -3.8102    3.4432 H   0  0  0  0  0  0  0  0  0  0  0  0
   -4.3886   -3.8465    2.4352 H   0  0  0  0  0  0  0  0  0  0  0  0
   -1.6530   -0.3899   -2.1867 H   0  0  0  0  0  0  0  0  0  0  0  0
   -3.0255    0.2720   -4.1338 H   0  0  0  0  0  0  0  0  0  0  0  0
   -5.4373   -0.3265   -4.2512 H   0  0  0  0  0  0  0  0  0  0  0  0
   -6.4969   -1.6296   -2.4001 H   0  0  0  0  0  0  0  0  0  0  0  0
   -4.1193   -4.8524   -1.5196 H   0  0  0  0  0  0  0  0  0  0  0  0
   -5.4304   -6.9453   -1.8834 H   0  0  0  0  0  0  0  0  0  0  0  0
   -7.7274   -7.1673   -0.9627 H   0  0  0  0  0  0  0  0  0  0  0  0
   -8.7540   -5.3038    0.3354 H   0  0  0  0  0  0  0  0  0  0  0  0
   -9.3597   -3.0843    1.6042 H   0  0  0  0  0  0  0  0  0  0  0  0
   -9.4566   -0.8296    2.6618 H   0  0  0  0  0  0  0  0  0  0  0  0
   -7.5214    0.7207    2.5026 H   0  0  0  0  0  0  0  0  0  0  0  0
   -5.4537    0.0404    1.2814 H   0  0  0  0  0  0  0  0  0  0  0  0
    0.9446   -2.8212   -0.2359 H   0  0  0  0  0  0  0  0  0  0  0  0
  1  2  2  0
  1 31  1  0
  1 32  1  0
  2  3  1  0
  2 33  1  0
  3  4  2  0
  4  5  1  0
  4 34  1  0
  5  6  1  0
  5 31  2  0
  6  7  2  0
  6 11  1  0
  7  8  1  0
  7 35  1  0
  8  9  2  0
  8 36  1  0
  9 10  1  0
  9 37  1  0
 10 11  2  0
 18 10  1  1
 11 12  1  0
 12 13  2  0
 12 17  1  0
 13 14  1  0
 13 38  1  0
 14 15  2  0
 14 39  1  0
 15 16  1  0
 15 40  1  0
 16 17  2  0
 16 41  1  0
 17 18  1  0
 18 19  1  0
 18 30  1  0
 19 20  2  0
 19 24  1  0
 20 21  1  0
 20 42  1  0
 21 22  2  0
 21 43  1  0
 22 23  1  0
 22 44  1  0
 23 24  2  0
 23 45  1  0
 24 25  1  0
 25 26  2  0
 25 30  1  0
 26 27  1  0
 26 46  1  0
 27 28  2  0
 27 47  1  0
 28 29  1  0
 28 48  1  0
 29 30  2  0
 29 49  1  0
 31 50  1  0
M  END

