
     RDKit          3D

 39 40  0  0  0  0  0  0  0  0999 V2000
    1.9236   -0.7648    2.4449 C   0  0  0  0  0  0  0  0  0  0  0  0
    2.6023   -2.1133    2.4776 C   0  0  0  0  0  0  0  0  0  0  0  0
    2.9402   -2.6799    3.7170 C   0  0  0  0  0  0  0  0  0  0  0  0
    3.5324   -3.9405    3.8160 C   0  0  0  0  0  0  0  0  0  0  0  0
    3.8037   -4.6643    2.6544 C   0  0  0  0  0  0  0  0  0  0  0  0
    3.4803   -4.1109    1.4139 C   0  0  0  0  0  0  0  0  0  0  0  0
    2.8840   -2.8447    1.2979 C   0  0  0  0  0  0  0  0  0  0  0  0
    2.5781   -2.3085   -0.0863 C   0  0  0  0  0  0  0  0  0  0  0  0
    1.0814   -2.2285   -0.4829 C   0  0  1  0  0  0  0  0  0  0  0  0
    0.9248   -1.8242   -1.9528 C   0  0  0  0  0  0  0  0  0  0  0  0
    0.3700   -3.4642   -0.2080 N   0  0  0  0  0  0  0  0  0  0  0  0
   -0.5740   -3.5791    0.7658 C   0  0  0  0  0  0  0  0  0  0  0  0
   -0.9422   -2.6628    1.4911 O   0  0  0  0  0  0  0  0  0  0  0  0
   -1.1537   -4.9550    0.8804 C   0  0  0  0  0  0  0  0  0  0  0  0
   -2.1149   -5.2955    1.7983 C   0  0  0  0  0  0  0  0  0  0  0  0
   -2.5215   -6.9643    1.6399 S   0  0  0  0  0  0  0  0  0  0  0  0
   -1.3578   -7.0881    0.3264 C   0  0  0  0  0  0  0  0  0  0  0  0
   -1.1842   -8.3896   -0.4077 C   0  0  0  0  0  0  0  0  0  0  0  0
   -1.5738   -9.5122    0.4305 N   0  0  0  0  0  0  0  0  0  0  0  0
   -0.7362   -5.9792    0.0605 N   0  0  0  0  0  0  0  0  0  0  0  0
    2.0726   -0.2262    3.3926 H   0  0  0  0  0  0  0  0  0  0  0  0
    0.8373   -0.8879    2.2966 H   0  0  0  0  0  0  0  0  0  0  0  0
    2.3011   -0.1238    1.6322 H   0  0  0  0  0  0  0  0  0  0  0  0
    2.7290   -2.1128    4.6283 H   0  0  0  0  0  0  0  0  0  0  0  0
    3.7823   -4.3518    4.7976 H   0  0  0  0  0  0  0  0  0  0  0  0
    4.2697   -5.6516    2.7100 H   0  0  0  0  0  0  0  0  0  0  0  0
    3.7027   -4.6740    0.5025 H   0  0  0  0  0  0  0  0  0  0  0  0
    3.0972   -2.9405   -0.8276 H   0  0  0  0  0  0  0  0  0  0  0  0
    3.0019   -1.2958   -0.2051 H   0  0  0  0  0  0  0  0  0  0  0  0
    0.5866   -1.4750    0.1442 H   0  0  0  0  0  0  0  0  0  0  0  0
    1.3561   -2.5872   -2.6236 H   0  0  0  0  0  0  0  0  0  0  0  0
    1.4421   -0.8731   -2.1560 H   0  0  0  0  0  0  0  0  0  0  0  0
   -0.1373   -1.7018   -2.2136 H   0  0  0  0  0  0  0  0  0  0  0  0
    0.5914   -4.3117   -0.7236 H   0  0  0  0  0  0  0  0  0  0  0  0
   -2.5626   -4.6399    2.5422 H   0  0  0  0  0  0  0  0  0  0  0  0
   -0.1475   -8.4080   -0.8008 H   0  0  0  0  0  0  0  0  0  0  0  0
   -1.8462   -8.3758   -1.2923 H   0  0  0  0  0  0  0  0  0  0  0  0
   -0.8606   -9.7141    1.1312 H   0  0  0  0  0  0  0  0  0  0  0  0
   -1.7040  -10.3575   -0.1217 H   0  0  0  0  0  0  0  0  0  0  0  0
  1  2  1  0
  1 21  1  0
  1 22  1  0
  1 23  1  0
  2  3  2  0
  2  7  1  0
  3  4  1  0
  3 24  1  0
  4  5  2  0
  4 25  1  0
  5  6  1  0
  5 26  1  0
  6  7  2  0
  6 27  1  0
  7  8  1  0
  8  9  1  0
  8 28  1  0
  8 29  1  0
  9 10  1  0
  9 11  1  0
  9 30  1  1
 10 31  1  0
 10 32  1  0
 10 33  1  0
 11 12  1  0
 11 34  1  0
 12 13  2  0
 12 14  1  0
 14 15  2  0
 14 20  1  0
 15 16  1  0
 15 35  1  0
 16 17  1  0
 17 18  1  0
 17 20  2  0
 18 19  1  0
 18 36  1  0
 18 37  1  0
 19 38  1  0
 19 39  1  0
M  END

