
     RDKit          3D

 55 56  0  0  0  0  0  0  0  0999 V2000
    0.6827   -1.4540   -0.3417 C   0  0  0  0  0  0  0  0  0  0  0  0
    2.1523   -1.7093   -0.6629 C   0  0  0  0  0  0  0  0  0  0  0  0
    3.0152   -1.8090    0.5186 N   0  0  0  0  0  0  0  0  0  0  0  0
    2.6085   -2.8040    1.5065 C   0  0  0  0  0  0  0  0  0  0  0  0
    2.6041   -4.2437    0.9677 C   0  0  0  0  0  0  0  0  0  0  0  0
    1.6380   -4.7711    0.4846 O   0  0  0  0  0  0  0  0  0  0  0  0
    3.7978   -4.8872    0.9806 O   0  0  0  0  0  0  0  0  0  0  0  0
    4.4231   -1.8604    0.1673 C   0  0  1  0  0  0  0  0  0  0  0  0
    5.0489   -0.5832   -0.4508 C   0  0  0  0  0  0  0  0  0  0  0  0
    6.3076   -0.8066    0.4251 C   0  0  2  0  0  0  0  0  0  0  0  0
    7.3490   -1.5013   -0.3151 N   0  0  0  0  0  0  0  0  0  0  0  0
    8.4752   -1.9377    0.3740 C   0  0  0  0  0  0  0  0  0  0  0  0
    8.5284   -1.8651    1.5971 O   0  0  0  0  0  0  0  0  0  0  0  0
    9.4977   -2.4723   -0.3890 N   0  0  0  0  0  0  0  0  0  0  0  0
    9.3181   -2.7288   -1.8062 C   0  0  0  0  0  0  0  0  0  0  0  0
   10.7348   -2.8166    0.3626 C   0  0  1  0  0  0  0  0  0  0  0  0
   11.6703   -3.8076   -0.3536 C   0  0  0  0  0  0  0  0  0  0  0  0
   12.5643   -3.1973   -1.4481 C   0  0  0  0  0  0  0  0  0  0  0  0
   13.3172   -1.9567   -0.9609 C   0  0  2  0  0  0  0  0  0  0  0  0
   14.2800   -2.4022   -0.0138 O   0  0  0  0  0  0  0  0  0  0  0  0
   15.2969   -1.4878    0.2988 C   0  0  0  0  0  0  0  0  0  0  0  0
   12.3318   -0.9399   -0.3588 C   0  0  0  0  0  0  0  0  0  0  0  0
   11.5252   -1.5597    0.7861 C   0  0  0  0  0  0  0  0  0  0  0  0
    5.4580   -1.7489    1.3164 C   0  0  0  0  0  0  0  0  0  0  0  0
    0.1363   -1.2140   -1.2669 H   0  0  0  0  0  0  0  0  0  0  0  0
    0.5734   -0.6051    0.3523 H   0  0  0  0  0  0  0  0  0  0  0  0
    0.2034   -2.3405    0.0992 H   0  0  0  0  0  0  0  0  0  0  0  0
    2.5401   -0.8700   -1.2633 H   0  0  0  0  0  0  0  0  0  0  0  0
    2.2329   -2.6132   -1.3067 H   0  0  0  0  0  0  0  0  0  0  0  0
    1.5881   -2.5881    1.8493 H   0  0  0  0  0  0  0  0  0  0  0  0
    3.2731   -2.7242    2.3826 H   0  0  0  0  0  0  0  0  0  0  0  0
    4.4714   -4.3451    1.4162 H   0  0  0  0  0  0  0  0  0  0  0  0
    4.6645   -2.7338   -0.4763 H   0  0  0  0  0  0  0  0  0  0  0  0
    4.4969    0.3113   -0.1274 H   0  0  0  0  0  0  0  0  0  0  0  0
    5.1894   -0.5492   -1.5430 H   0  0  0  0  0  0  0  0  0  0  0  0
    6.7105    0.0782    0.9457 H   0  0  0  0  0  0  0  0  0  0  0  0
    7.4631   -1.2115   -1.2793 H   0  0  0  0  0  0  0  0  0  0  0  0
    8.2703   -2.9942   -2.0110 H   0  0  0  0  0  0  0  0  0  0  0  0
    9.9215   -3.5866   -2.1242 H   0  0  0  0  0  0  0  0  0  0  0  0
    9.5913   -1.8708   -2.4528 H   0  0  0  0  0  0  0  0  0  0  0  0
   10.3788   -3.2957    1.2858 H   0  0  0  0  0  0  0  0  0  0  0  0
   11.1070   -4.6717   -0.7430 H   0  0  0  0  0  0  0  0  0  0  0  0
   12.3346   -4.2108    0.4265 H   0  0  0  0  0  0  0  0  0  0  0  0
   11.9774   -2.9091   -2.3346 H   0  0  0  0  0  0  0  0  0  0  0  0
   13.2999   -3.9457   -1.7840 H   0  0  0  0  0  0  0  0  0  0  0  0
   13.8484   -1.4938   -1.8187 H   0  0  0  0  0  0  0  0  0  0  0  0
   16.0153   -2.0019    0.9547 H   0  0  0  0  0  0  0  0  0  0  0  0
   14.9262   -0.5914    0.8330 H   0  0  0  0  0  0  0  0  0  0  0  0
   15.8349   -1.1443   -0.6085 H   0  0  0  0  0  0  0  0  0  0  0  0
   11.6590   -0.5914   -1.1627 H   0  0  0  0  0  0  0  0  0  0  0  0
   12.8688   -0.0432   -0.0079 H   0  0  0  0  0  0  0  0  0  0  0  0
   10.8338   -0.8324    1.2343 H   0  0  0  0  0  0  0  0  0  0  0  0
   12.2235   -1.8604    1.5847 H   0  0  0  0  0  0  0  0  0  0  0  0
    5.0396   -1.1943    2.1694 H   0  0  0  0  0  0  0  0  0  0  0  0
    5.9690   -2.6508    1.6841 H   0  0  0  0  0  0  0  0  0  0  0  0
  1  2  1  0
  1 25  1  0
  1 26  1  0
  1 27  1  0
  2  3  1  0
  2 28  1  0
  2 29  1  0
  3  4  1  0
  3  8  1  0
  4  5  1  0
  4 30  1  0
  4 31  1  0
  5  6  2  0
  5  7  1  0
  7 32  1  0
  8  9  1  0
  8 24  1  0
  8 33  1  6
  9 10  1  0
  9 34  1  0
  9 35  1  0
 10 11  1  0
 10 24  1  0
 10 36  1  1
 11 12  1  0
 11 37  1  0
 12 13  2  0
 12 14  1  0
 14 15  1  0
 14 16  1  0
 15 38  1  0
 15 39  1  0
 15 40  1  0
 16 17  1  0
 16 23  1  0
 16 41  1  1
 17 18  1  0
 17 42  1  0
 17 43  1  0
 18 19  1  0
 18 44  1  0
 18 45  1  0
 19 20  1  0
 19 22  1  0
 19 46  1  6
 20 21  1  0
 21 47  1  0
 21 48  1  0
 21 49  1  0
 22 23  1  0
 22 50  1  0
 22 51  1  0
 23 52  1  0
 23 53  1  0
 24 54  1  0
 24 55  1  0
M  END

