
     RDKit          3D

 47 49  0  0  0  0  0  0  0  0999 V2000
    0.0968   -1.1346   -2.4467 C   0  0  0  0  0  0  0  0  0  0  0  0
    1.5918   -1.0819   -2.1938 C   0  0  0  0  0  0  0  0  0  0  0  0
    2.2183   -2.0071   -3.0642 O   0  0  0  0  0  0  0  0  0  0  0  0
    3.5710   -2.1526   -3.0294 C   0  0  0  0  0  0  0  0  0  0  0  0
    4.4331   -1.4418   -2.1836 C   0  0  0  0  0  0  0  0  0  0  0  0
    5.8156   -1.6603   -2.2217 C   0  0  0  0  0  0  0  0  0  0  0  0
    6.3639   -2.5975   -3.1102 C   0  0  0  0  0  0  0  0  0  0  0  0
    7.7420   -2.8714   -3.2151 N   0  0  0  0  0  0  0  0  0  0  0  0
    8.7630   -2.3624   -2.4692 C   0  0  0  0  0  0  0  0  0  0  0  0
    8.6522   -1.5240   -1.5883 O   0  0  0  0  0  0  0  0  0  0  0  0
   10.1492   -2.9294   -2.8478 C   0  0  1  0  0  0  0  0  0  0  0  0
   11.2733   -2.0511   -2.3105 C   0  0  0  0  0  0  0  0  0  0  0  0
   10.3726   -4.6458   -2.1548 S   0  0  0  0  0  0  0  0  0  0  0  0
    9.7663   -5.6235   -3.4951 C   0  0  0  0  0  0  0  0  0  0  0  0
    9.0015   -5.2053   -4.4840 N   0  0  0  0  0  0  0  0  0  0  0  0
    8.8267   -6.2832   -5.3217 C   0  0  0  0  0  0  0  0  0  0  0  0
    9.4884   -7.3751   -4.8290 C   0  0  0  0  0  0  0  0  0  0  0  0
   10.0955   -6.9551   -3.6483 N   0  0  0  0  0  0  0  0  0  0  0  0
   10.9236   -7.7626   -2.8176 C   0  0  0  0  0  0  0  0  0  0  0  0
   11.9478   -8.5267   -3.3950 C   0  0  0  0  0  0  0  0  0  0  0  0
   12.7463   -9.3347   -2.5825 C   0  0  0  0  0  0  0  0  0  0  0  0
   12.5463   -9.3799   -1.2006 C   0  0  0  0  0  0  0  0  0  0  0  0
   11.5253   -8.6068   -0.6518 C   0  0  0  0  0  0  0  0  0  0  0  0
   11.3152   -8.6459    0.6682 F   0  0  0  0  0  0  0  0  0  0  0  0
   10.6998   -7.8042   -1.4357 C   0  0  0  0  0  0  0  0  0  0  0  0
    5.4904   -3.3097   -3.9572 C   0  0  0  0  0  0  0  0  0  0  0  0
    4.1193   -3.0926   -3.9190 C   0  0  0  0  0  0  0  0  0  0  0  0
   -0.4278   -0.4257   -1.7875 H   0  0  0  0  0  0  0  0  0  0  0  0
   -0.2943   -2.1454   -2.2542 H   0  0  0  0  0  0  0  0  0  0  0  0
   -0.1295   -0.8725   -3.4917 H   0  0  0  0  0  0  0  0  0  0  0  0
    1.8191   -1.3358   -1.1405 H   0  0  0  0  0  0  0  0  0  0  0  0
    1.9830   -0.0624   -2.3760 H   0  0  0  0  0  0  0  0  0  0  0  0
    4.0453   -0.7052   -1.4795 H   0  0  0  0  0  0  0  0  0  0  0  0
    6.4778   -1.1056   -1.5610 H   0  0  0  0  0  0  0  0  0  0  0  0
    8.0082   -3.6094   -3.8791 H   0  0  0  0  0  0  0  0  0  0  0  0
   10.2190   -3.0484   -3.9384 H   0  0  0  0  0  0  0  0  0  0  0  0
   11.2112   -1.9594   -1.2169 H   0  0  0  0  0  0  0  0  0  0  0  0
   11.1741   -1.0357   -2.7230 H   0  0  0  0  0  0  0  0  0  0  0  0
   12.2559   -2.4568   -2.5903 H   0  0  0  0  0  0  0  0  0  0  0  0
    8.2217   -6.2139   -6.2242 H   0  0  0  0  0  0  0  0  0  0  0  0
    9.5604   -8.4043   -5.1688 H   0  0  0  0  0  0  0  0  0  0  0  0
   12.1243   -8.4720   -4.4702 H   0  0  0  0  0  0  0  0  0  0  0  0
   13.5456   -9.9287   -3.0315 H   0  0  0  0  0  0  0  0  0  0  0  0
   13.1633   -9.9978   -0.5461 H   0  0  0  0  0  0  0  0  0  0  0  0
    9.8950   -7.2376   -0.9662 H   0  0  0  0  0  0  0  0  0  0  0  0
    5.8999   -4.0468   -4.6534 H   0  0  0  0  0  0  0  0  0  0  0  0
    3.4434   -3.6450   -4.5751 H   0  0  0  0  0  0  0  0  0  0  0  0
  1  2  1  0
  1 28  1  0
  1 29  1  0
  1 30  1  0
  2  3  1  0
  2 31  1  0
  2 32  1  0
  3  4  1  0
  4  5  2  0
  4 27  1  0
  5  6  1  0
  5 33  1  0
  6  7  2  0
  6 34  1  0
  7  8  1  0
  7 26  1  0
  8  9  1  0
  8 35  1  0
  9 10  2  0
  9 11  1  0
 11 12  1  0
 11 13  1  0
 11 36  1  6
 12 37  1  0
 12 38  1  0
 12 39  1  0
 13 14  1  0
 14 15  2  0
 14 18  1  0
 15 16  1  0
 16 17  2  0
 16 40  1  0
 17 18  1  0
 17 41  1  0
 18 19  1  0
 19 20  2  0
 19 25  1  0
 20 21  1  0
 20 42  1  0
 21 22  2  0
 21 43  1  0
 22 23  1  0
 22 44  1  0
 23 24  1  0
 23 25  2  0
 25 45  1  0
 26 27  2  0
 26 46  1  0
 27 47  1  0
M  END

