
     RDKit          3D

 33 34  0  0  0  0  0  0  0  0999 V2000
    3.0748   -0.0564   -2.1538 C   0  0  0  0  0  0  0  0  0  0  0  0
    3.4908   -0.0113   -0.7671 N   0  0  0  0  0  0  0  0  0  0  0  0
    4.0666    1.1071   -0.2879 N   0  0  0  0  0  0  0  0  0  0  0  0
    4.3631    0.8329    0.9776 C   0  0  0  0  0  0  0  0  0  0  0  0
    3.9808   -0.4829    1.3257 C   0  0  0  0  0  0  0  0  0  0  0  0
    3.4174   -1.0077    0.1689 C   0  0  0  0  0  0  0  0  0  0  0  0
    2.7965   -2.3477   -0.0923 C   0  0  0  0  0  0  0  0  0  0  0  0
    1.2667   -2.3783    0.0872 C   0  0  0  0  0  0  0  0  0  0  0  0
    0.6380   -3.7551   -0.2166 C   0  0  1  0  0  0  0  0  0  0  0  0
    1.2072   -4.8712    0.5384 N   0  0  0  0  0  0  0  0  0  0  0  0
   -0.8892   -3.7795   -0.0724 C   0  0  0  0  0  0  0  0  0  0  0  0
   -1.5512   -5.0204   -0.0584 C   0  0  0  0  0  0  0  0  0  0  0  0
   -2.9417   -5.0881    0.0297 C   0  0  0  0  0  0  0  0  0  0  0  0
   -3.7115   -3.9236    0.1120 C   0  0  0  0  0  0  0  0  0  0  0  0
   -3.0548   -2.6934    0.1047 C   0  0  0  0  0  0  0  0  0  0  0  0
   -3.9880   -1.2140    0.2153 Cl  0  0  0  0  0  0  0  0  0  0  0  0
   -1.6610   -2.6117    0.0152 C   0  0  0  0  0  0  0  0  0  0  0  0
    3.2950    0.9261   -2.5872 H   0  0  0  0  0  0  0  0  0  0  0  0
    1.9955   -0.2561   -2.2459 H   0  0  0  0  0  0  0  0  0  0  0  0
    3.6274   -0.8278   -2.7145 H   0  0  0  0  0  0  0  0  0  0  0  0
    4.8452    1.5884    1.5980 H   0  0  0  0  0  0  0  0  0  0  0  0
    4.0969   -0.9890    2.2818 H   0  0  0  0  0  0  0  0  0  0  0  0
    3.2571   -3.0706    0.5984 H   0  0  0  0  0  0  0  0  0  0  0  0
    3.0519   -2.6916   -1.1109 H   0  0  0  0  0  0  0  0  0  0  0  0
    0.8194   -1.6172   -0.5724 H   0  0  0  0  0  0  0  0  0  0  0  0
    1.0187   -2.0757    1.1197 H   0  0  0  0  0  0  0  0  0  0  0  0
    0.8515   -3.9752   -1.2816 H   0  0  0  0  0  0  0  0  0  0  0  0
    1.1280   -4.7113    1.5438 H   0  0  0  0  0  0  0  0  0  0  0  0
    2.1927   -5.0078    0.3232 H   0  0  0  0  0  0  0  0  0  0  0  0
   -0.9507   -5.9297   -0.1038 H   0  0  0  0  0  0  0  0  0  0  0  0
   -3.4395   -6.0614    0.0370 H   0  0  0  0  0  0  0  0  0  0  0  0
   -4.7995   -3.9640    0.1840 H   0  0  0  0  0  0  0  0  0  0  0  0
   -1.2040   -1.6233    0.0165 H   0  0  0  0  0  0  0  0  0  0  0  0
  1  2  1  0
  1 18  1  0
  1 19  1  0
  1 20  1  0
  2  3  1  0
  2  6  1  0
  3  4  2  0
  4  5  1  0
  4 21  1  0
  5  6  2  0
  5 22  1  0
  6  7  1  0
  7  8  1  0
  7 23  1  0
  7 24  1  0
  8  9  1  0
  8 25  1  0
  8 26  1  0
  9 10  1  0
  9 11  1  0
  9 27  1  6
 10 28  1  0
 10 29  1  0
 11 12  2  0
 11 17  1  0
 12 13  1  0
 12 30  1  0
 13 14  2  0
 13 31  1  0
 14 15  1  0
 14 32  1  0
 15 16  1  0
 15 17  2  0
 17 33  1  0
M  END

