
     RDKit          3D

 78 77  0  0  0  0  0  0  0  0999 V2000
   10.1617   -7.1634    7.5150 C   0  0  0  0  0  0  0  0  0  0  0  0
   10.9275   -5.8929    7.9130 C   0  0  1  0  0  0  0  0  0  0  0  0
   11.3076   -5.9418    9.4003 C   0  0  0  0  0  0  0  0  0  0  0  0
   12.1998   -5.6525    7.0697 C   0  0  0  0  0  0  0  0  0  0  0  0
   12.0451   -5.1415    5.6192 C   0  0  2  0  0  0  0  0  0  0  0  0
   13.0575   -4.9918    5.2102 H   0  0  0  0  0  0  0  0  0  0  0  0
   11.3792   -3.8610    5.5697 N   0  0  0  0  0  0  0  0  0  0  0  0
   11.4647   -3.1106    4.4288 C   0  0  0  0  0  0  0  0  0  0  0  0
   12.2894   -3.3260    3.5551 O   0  0  0  0  0  0  0  0  0  0  0  0
   10.4005   -2.0007    4.2785 C   0  0  1  0  0  0  0  0  0  0  0  0
   10.6413   -1.5381    3.3100 H   0  0  0  0  0  0  0  0  0  0  0  0
    9.0833   -2.6308    4.1028 N   0  0  0  0  0  0  0  0  0  0  0  0
    8.3833   -3.2967    5.0583 C   0  0  0  0  0  0  0  0  0  0  0  0
    8.6646   -3.2709    6.2542 O   0  0  0  0  0  0  0  0  0  0  0  0
    7.1802   -4.1033    4.5275 C   0  0  2  0  0  0  0  0  0  0  0  0
    6.4119   -3.3830    4.1996 H   0  0  0  0  0  0  0  0  0  0  0  0
    6.5881   -5.0006    5.6138 C   0  0  0  0  0  0  0  0  0  0  0  0
    7.5832   -4.8309    3.3328 N   0  0  0  0  0  0  0  0  0  0  0  0
    6.7092   -5.0390    2.2992 C   0  0  0  0  0  0  0  0  0  0  0  0
    5.6342   -4.4835    2.1845 O   0  0  0  0  0  0  0  0  0  0  0  0
    7.2376   -5.9298    1.4306 O   0  0  0  0  0  0  0  0  0  0  0  0
    6.5442   -6.3111    0.1995 C   0  0  1  0  0  0  0  0  0  0  0  0
    6.3575   -5.0858   -0.7019 C   0  0  0  0  0  0  0  0  0  0  0  0
    7.5129   -7.3089   -0.4401 C   0  0  0  0  0  0  0  0  0  0  0  0
    5.2110   -6.9894    0.5328 C   0  0  0  0  0  0  0  0  0  0  0  0
   10.4447   -0.8902    5.3551 C   0  0  1  0  0  0  0  0  0  0  0  0
   11.8623   -0.3143    5.4641 C   0  0  0  0  0  0  0  0  0  0  0  0
    9.4229    0.2092    5.0421 C   0  0  0  0  0  0  0  0  0  0  0  0
   11.3530   -6.1389    4.6601 C   0  0  0  0  0  0  0  0  0  0  0  0
   10.2051   -5.9930    4.2612 O   0  0  0  0  0  0  0  0  0  0  0  0
   12.1252   -7.1999    4.2896 N   0  0  0  0  0  0  0  0  0  0  0  0
   11.6556   -8.2312    3.3794 C   0  0  2  0  0  0  0  0  0  0  0  0
   10.6280   -7.9373    3.1105 H   0  0  0  0  0  0  0  0  0  0  0  0
   11.5723   -9.5347    4.0753 C   0  0  0  0  0  0  0  0  0  0  0  0
   11.5287  -10.5628    4.6080 N   0  0  0  0  0  0  0  0  0  0  0  0
   12.5238   -8.3141    2.1081 C   0  0  0  0  0  0  0  0  0  0  0  0
   12.0197   -9.3285    1.0857 C   0  0  0  0  0  0  0  0  0  0  0  0
   12.9931   -9.4832   -0.0862 C   0  0  0  0  0  0  0  0  0  0  0  0
   12.4711  -10.0966   -1.1868 N   0  0  0  0  0  0  0  0  0  0  0  0
   14.1473   -9.1019   -0.0314 O   0  0  0  0  0  0  0  0  0  0  0  0
    9.2982   -7.3158    8.1820 H   0  0  0  0  0  0  0  0  0  0  0  0
   10.8031   -8.0579    7.5953 H   0  0  0  0  0  0  0  0  0  0  0  0
    9.7718   -7.1128    6.4890 H   0  0  0  0  0  0  0  0  0  0  0  0
   10.2446   -5.0352    7.7765 H   0  0  0  0  0  0  0  0  0  0  0  0
   12.0047   -6.7733    9.6037 H   0  0  0  0  0  0  0  0  0  0  0  0
   10.4179   -6.0938   10.0315 H   0  0  0  0  0  0  0  0  0  0  0  0
   11.7955   -5.0090    9.7264 H   0  0  0  0  0  0  0  0  0  0  0  0
   12.7974   -6.5814    7.0549 H   0  0  0  0  0  0  0  0  0  0  0  0
   12.8233   -4.8995    7.5796 H   0  0  0  0  0  0  0  0  0  0  0  0
   10.5459   -3.7258    6.1456 H   0  0  0  0  0  0  0  0  0  0  0  0
    8.8374   -2.8811    3.1502 H   0  0  0  0  0  0  0  0  0  0  0  0
    5.6913   -5.5048    5.2250 H   0  0  0  0  0  0  0  0  0  0  0  0
    6.3101   -4.4073    6.4960 H   0  0  0  0  0  0  0  0  0  0  0  0
    7.3170   -5.7600    5.9342 H   0  0  0  0  0  0  0  0  0  0  0  0
    8.3941   -5.4448    3.4118 H   0  0  0  0  0  0  0  0  0  0  0  0
    7.3270   -4.5989   -0.8924 H   0  0  0  0  0  0  0  0  0  0  0  0
    5.6795   -4.3575   -0.2393 H   0  0  0  0  0  0  0  0  0  0  0  0
    5.9359   -5.3962   -1.6708 H   0  0  0  0  0  0  0  0  0  0  0  0
    8.4846   -6.8309   -0.6376 H   0  0  0  0  0  0  0  0  0  0  0  0
    7.1054   -7.6804   -1.3926 H   0  0  0  0  0  0  0  0  0  0  0  0
    7.6773   -8.1680    0.2286 H   0  0  0  0  0  0  0  0  0  0  0  0
    4.5188   -6.2834    1.0087 H   0  0  0  0  0  0  0  0  0  0  0  0
    5.3738   -7.8399    1.2135 H   0  0  0  0  0  0  0  0  0  0  0  0
    4.7476   -7.3739   -0.3893 H   0  0  0  0  0  0  0  0  0  0  0  0
   10.1721   -1.3419    6.3209 H   0  0  0  0  0  0  0  0  0  0  0  0
   12.1968    0.1155    4.5045 H   0  0  0  0  0  0  0  0  0  0  0  0
   12.5967   -1.0779    5.7631 H   0  0  0  0  0  0  0  0  0  0  0  0
   11.8927    0.4882    6.2177 H   0  0  0  0  0  0  0  0  0  0  0  0
    9.6544    0.7055    4.0837 H   0  0  0  0  0  0  0  0  0  0  0  0
    9.4323    0.9810    5.8278 H   0  0  0  0  0  0  0  0  0  0  0  0
    8.4001   -0.1903    4.9767 H   0  0  0  0  0  0  0  0  0  0  0  0
   13.0906   -7.2429    4.5979 H   0  0  0  0  0  0  0  0  0  0  0  0
   13.5623   -8.5646    2.3754 H   0  0  0  0  0  0  0  0  0  0  0  0
   12.5500   -7.3063    1.6658 H   0  0  0  0  0  0  0  0  0  0  0  0
   11.0199   -9.0492    0.7103 H   0  0  0  0  0  0  0  0  0  0  0  0
   11.9084  -10.3237    1.5534 H   0  0  0  0  0  0  0  0  0  0  0  0
   11.5232  -10.4467   -1.2173 H   0  0  0  0  0  0  0  0  0  0  0  0
   13.0870  -10.2816   -1.9700 H   0  0  0  0  0  0  0  0  0  0  0  0
  1  2  1  0
  1 41  1  0
  1 42  1  0
  1 43  1  0
  2  3  1  0
  2  4  1  0
  2 44  1  1
  3 45  1  0
  3 46  1  0
  3 47  1  0
  4  5  1  0
  4 48  1  0
  4 49  1  0
  5  6  1  6
  5  7  1  0
  5 29  1  0
  7  8  1  0
  7 50  1  0
  8  9  2  0
  8 10  1  0
 10 11  1  6
 10 12  1  0
 10 26  1  0
 12 13  1  0
 12 51  1  0
 13 14  2  0
 13 15  1  0
 15 16  1  6
 15 17  1  0
 15 18  1  0
 17 52  1  0
 17 53  1  0
 17 54  1  0
 18 19  1  0
 18 55  1  0
 19 20  2  0
 19 21  1  0
 22 21  1  1
 22 23  1  0
 22 24  1  0
 22 25  1  0
 23 56  1  0
 23 57  1  0
 23 58  1  0
 24 59  1  0
 24 60  1  0
 24 61  1  0
 25 62  1  0
 25 63  1  0
 25 64  1  0
 26 27  1  0
 26 28  1  0
 26 65  1  1
 27 66  1  0
 27 67  1  0
 27 68  1  0
 28 69  1  0
 28 70  1  0
 28 71  1  0
 29 30  2  0
 29 31  1  0
 31 32  1  0
 31 72  1  0
 32 33  1  6
 32 34  1  0
 32 36  1  0
 34 35  3  0
 36 37  1  0
 36 73  1  0
 36 74  1  0
 37 38  1  0
 37 75  1  0
 37 76  1  0
 38 39  1  0
 38 40  2  0
 39 77  1  0
 39 78  1  0
M  END

