
     RDKit          3D

 85 92  0  0  0  0  0  0  0  0999 V2000
    3.2720    1.4893    5.1792 C   0  0  0  0  0  0  0  0  0  0  0  0
    3.2312    0.1065    4.9013 O   0  0  0  0  0  0  0  0  0  0  0  0
    3.0503   -0.3105    3.6258 C   0  0  0  0  0  0  0  0  0  0  0  0
    2.8912    0.5482    2.5360 C   0  0  0  0  0  0  0  0  0  0  0  0
    2.7067    0.0131    1.2466 C   0  0  0  0  0  0  0  0  0  0  0  0
    2.5602    0.9275    0.2569 O   0  0  0  0  0  0  0  0  0  0  0  0
    2.3642    0.4888   -1.0703 C   0  0  0  0  0  0  0  0  0  0  0  0
    2.6845   -1.3728    1.0491 C   0  0  0  0  0  0  0  0  0  0  0  0
    2.8429   -2.2284    2.1571 C   0  0  0  0  0  0  0  0  0  0  0  0
    2.8184   -3.7103    1.9491 C   0  0  0  0  0  0  0  0  0  0  0  0
    3.9843   -4.3660    1.4957 C   0  0  0  0  0  0  0  0  0  0  0  0
    5.3076   -3.8705    1.2208 C   0  0  0  0  0  0  0  0  0  0  0  0
    5.8261   -2.4724    1.3527 C   0  0  0  0  0  0  0  0  0  0  0  0
    6.0362   -4.9811    0.7940 C   0  0  0  0  0  0  0  0  0  0  0  0
    8.0305   -4.8885    0.1139 I   0  0  0  0  0  0  0  0  0  0  0  0
    5.1923   -6.1359    0.8088 C   0  0  0  0  0  0  0  0  0  0  0  0
    5.4085   -7.5236    0.4691 C   0  0  0  0  0  0  0  0  0  0  0  0
    6.5865   -8.1957    0.4080 C   0  0  0  0  0  0  0  0  0  0  0  0
    6.7438   -9.6062    0.1310 C   0  0  0  0  0  0  0  0  0  0  0  0
    7.9654  -10.2559    0.2374 C   0  0  0  0  0  0  0  0  0  0  0  0
    7.8238  -11.5920   -0.0330 N   0  0  0  0  0  0  0  0  0  0  0  0
    8.5650  -12.2790    0.0117 H   0  0  0  0  0  0  0  0  0  0  0  0
    6.5093  -11.8660   -0.3254 C   0  0  0  0  0  0  0  0  0  0  0  0
    5.9089  -13.0895   -0.6510 C   0  0  0  0  0  0  0  0  0  0  0  0
    4.5458  -13.0954   -0.9026 C   0  0  0  0  0  0  0  0  0  0  0  0
    3.8211  -11.8901   -0.8220 C   0  0  0  0  0  0  0  0  0  0  0  0
    2.3694  -11.9374   -1.0673 N   0  0  0  0  0  0  0  0  0  0  0  0
    1.8659  -13.0298   -1.2958 O   0  0  0  0  0  0  0  0  0  0  0  0
    1.7443  -10.8887   -1.0226 O   0  0  0  0  0  0  0  0  0  0  0  0
    4.4037  -10.6644   -0.5038 C   0  0  0  0  0  0  0  0  0  0  0  0
    5.7824  -10.6387   -0.2414 C   0  0  0  0  0  0  0  0  0  0  0  0
    3.9649   -5.7266    1.2342 N   0  0  0  0  0  0  0  0  0  0  0  0
    2.7909   -6.6897    1.5816 B   0  0  1  0  0  0  0  0  0  0  0  0
    2.4315   -7.4324    0.4594 F   0  0  0  0  0  0  0  0  0  0  0  0
    3.2098   -7.5365    2.6143 F   0  0  0  0  0  0  0  0  0  0  0  0
    1.5806   -5.8193    2.0445 N   0  0  0  0  0  0  0  0  0  0  0  0
    0.3093   -6.2509    2.2779 C   0  0  0  0  0  0  0  0  0  0  0  0
   -0.2005   -7.5994    2.2386 C   0  0  0  0  0  0  0  0  0  0  0  0
    0.4983   -8.7646    2.3011 C   0  0  0  0  0  0  0  0  0  0  0  0
   -0.0435  -10.0978    2.1910 C   0  0  0  0  0  0  0  0  0  0  0  0
   -1.3453  -10.5081    1.9402 C   0  0  0  0  0  0  0  0  0  0  0  0
   -1.4006  -11.8787    1.8668 N   0  0  0  0  0  0  0  0  0  0  0  0
   -2.2349  -12.4134    1.6621 H   0  0  0  0  0  0  0  0  0  0  0  0
   -0.1461  -12.4102    2.0529 C   0  0  0  0  0  0  0  0  0  0  0  0
    0.2909  -13.7429    2.0333 C   0  0  0  0  0  0  0  0  0  0  0  0
    1.6443  -13.9812    2.2217 C   0  0  0  0  0  0  0  0  0  0  0  0
    2.5246  -12.8984    2.4297 C   0  0  0  0  0  0  0  0  0  0  0  0
    3.9600  -13.1858    2.5820 N   0  0  0  0  0  0  0  0  0  0  0  0
    4.3221  -14.3513    2.4883 O   0  0  0  0  0  0  0  0  0  0  0  0
    4.7155  -12.2458    2.7822 O   0  0  0  0  0  0  0  0  0  0  0  0
    2.1040  -11.5713    2.4665 C   0  0  0  0  0  0  0  0  0  0  0  0
    0.7413  -11.3175    2.2689 C   0  0  0  0  0  0  0  0  0  0  0  0
   -0.4852   -5.0937    2.5604 C   0  0  0  0  0  0  0  0  0  0  0  0
   -2.5410   -5.1407    3.0247 I   0  0  0  0  0  0  0  0  0  0  0  0
    0.3100   -3.9554    2.5233 C   0  0  0  0  0  0  0  0  0  0  0  0
   -0.1474   -2.5531    2.7793 C   0  0  0  0  0  0  0  0  0  0  0  0
    1.6282   -4.4307    2.1843 C   0  0  0  0  0  0  0  0  0  0  0  0
    3.0236   -1.7075    3.4355 C   0  0  0  0  0  0  0  0  0  0  0  0
    3.4272    1.5855    6.2620 H   0  0  0  0  0  0  0  0  0  0  0  0
    2.3261    1.9906    4.9064 H   0  0  0  0  0  0  0  0  0  0  0  0
    4.1040    1.9891    4.6516 H   0  0  0  0  0  0  0  0  0  0  0  0
    2.9022    1.6324    2.6354 H   0  0  0  0  0  0  0  0  0  0  0  0
    2.2695    1.3928   -1.6865 H   0  0  0  0  0  0  0  0  0  0  0  0
    1.4432   -0.1125   -1.1722 H   0  0  0  0  0  0  0  0  0  0  0  0
    3.2192   -0.1065   -1.4372 H   0  0  0  0  0  0  0  0  0  0  0  0
    2.5446   -1.8052    0.0595 H   0  0  0  0  0  0  0  0  0  0  0  0
    5.5240   -2.0140    2.3039 H   0  0  0  0  0  0  0  0  0  0  0  0
    5.4463   -1.8199    0.5506 H   0  0  0  0  0  0  0  0  0  0  0  0
    6.9231   -2.4673    1.2967 H   0  0  0  0  0  0  0  0  0  0  0  0
    4.4858   -8.0730    0.3038 H   0  0  0  0  0  0  0  0  0  0  0  0
    7.5181   -7.6685    0.6255 H   0  0  0  0  0  0  0  0  0  0  0  0
    8.9341   -9.8381    0.5063 H   0  0  0  0  0  0  0  0  0  0  0  0
    6.4897  -14.0130   -0.6955 H   0  0  0  0  0  0  0  0  0  0  0  0
    4.0146  -14.0129   -1.1498 H   0  0  0  0  0  0  0  0  0  0  0  0
    3.7647   -9.7838   -0.4578 H   0  0  0  0  0  0  0  0  0  0  0  0
   -1.2914   -7.6414    2.1766 H   0  0  0  0  0  0  0  0  0  0  0  0
    1.5753   -8.7180    2.4493 H   0  0  0  0  0  0  0  0  0  0  0  0
   -2.2433   -9.9118    1.7922 H   0  0  0  0  0  0  0  0  0  0  0  0
   -0.4023  -14.5686    1.8594 H   0  0  0  0  0  0  0  0  0  0  0  0
    2.0529  -14.9901    2.2007 H   0  0  0  0  0  0  0  0  0  0  0  0
    2.8328  -10.7762    2.6250 H   0  0  0  0  0  0  0  0  0  0  0  0
   -1.2425   -2.5224    2.8579 H   0  0  0  0  0  0  0  0  0  0  0  0
    0.1625   -1.8676    1.9785 H   0  0  0  0  0  0  0  0  0  0  0  0
    0.2715   -2.1553    3.7163 H   0  0  0  0  0  0  0  0  0  0  0  0
    3.1485   -2.3575    4.3026 H   0  0  0  0  0  0  0  0  0  0  0  0
  1  2  1  0
  1 59  1  0
  1 60  1  0
  1 61  1  0
  2  3  1  0
  3  4  2  0
  3 58  1  0
  4  5  1  0
  4 62  1  0
  5  6  1  0
  5  8  2  0
  6  7  1  0
  7 63  1  0
  7 64  1  0
  7 65  1  0
  8  9  1  0
  8 66  1  0
  9 10  1  0
  9 58  2  0
 10 11  2  0
 10 57  1  0
 11 12  1  0
 11 32  1  0
 12 13  1  0
 12 14  2  0
 13 67  1  0
 13 68  1  0
 13 69  1  0
 14 15  1  0
 14 16  1  0
 16 17  1  0
 16 32  2  0
 17 18  2  0
 17 70  1  0
 18 19  1  0
 18 71  1  0
 19 20  2  0
 19 31  1  0
 20 21  1  0
 20 72  1  0
 21 22  1  0
 21 23  1  0
 23 24  1  0
 23 31  2  0
 24 25  2  0
 24 73  1  0
 25 26  1  0
 25 74  1  0
 26 27  1  0
 26 30  2  0
 27 28  1  0
 27 29  1  0
 30 31  1  0
 30 75  1  0
 32 33  1  0
 33 34  1  6
 33 35  1  0
 33 36  1  0
 36 37  1  0
 36 57  2  0
 37 38  2  0
 37 53  1  0
 38 39  1  0
 38 76  1  0
 39 40  2  0
 39 77  1  0
 40 41  1  0
 40 52  1  0
 41 42  2  0
 41 78  1  0
 42 43  1  0
 42 44  1  0
 44 45  1  0
 44 52  2  0
 45 46  2  0
 45 79  1  0
 46 47  1  0
 46 80  1  0
 47 48  1  0
 47 51  2  0
 48 49  2  0
 48 50  1  0
 51 52  1  0
 51 81  1  0
 53 54  1  0
 53 55  2  0
 55 56  1  0
 55 57  1  0
 56 82  1  0
 56 83  1  0
 56 84  1  0
 58 85  1  0
M  CHG  8  28  -1  29  -1  32   1  33  -1  36   1  42   1  48   1  50  -1
M  END

