
     RDKit          3D

 41 41  0  0  0  0  0  0  0  0999 V2000
    0.8766   -0.4109    0.3448 C   0  0  0  0  0  0  0  0  0  0  0  0
    2.3918   -0.2705    0.1484 C   0  0  1  0  0  0  0  0  0  0  0  0
    2.7050    0.8280   -0.8767 C   0  0  0  0  0  0  0  0  0  0  0  0
    3.0936   -0.0413    1.5007 C   0  0  0  0  0  0  0  0  0  0  0  0
    4.6257   -0.0780    1.4665 C   0  0  0  0  0  0  0  0  0  0  0  0
    5.2566    0.0817    2.8554 C   0  0  0  0  0  0  0  0  0  0  0  0
    6.7889   -0.0679    2.8746 C   0  0  1  0  0  0  0  0  0  0  0  0
    7.5255    1.0287    2.0950 C   0  0  0  0  0  0  0  0  0  0  0  0
    7.3243   -0.1922    4.2476 N   0  0  0  0  0  0  0  0  0  0  0  0
    7.9593   -1.3540    4.5959 C   0  0  0  0  0  0  0  0  0  0  0  0
    8.0071   -2.3531    3.8971 O   0  0  0  0  0  0  0  0  0  0  0  0
    8.6527   -1.3432    5.9605 C   0  0  0  0  0  0  0  0  0  0  0  0
    9.1148   -0.0260    6.3484 N   0  0  0  0  0  0  0  0  0  0  0  0
    8.4590    1.1249    6.0380 C   0  0  0  0  0  0  0  0  0  0  0  0
    8.8070    2.2283    6.4154 O   0  0  0  0  0  0  0  0  0  0  0  0
    7.1869    0.9140    5.2049 C   0  0  2  0  0  0  0  0  0  0  0  0
    5.9837    0.7771    6.1586 C   0  0  0  0  0  0  0  0  0  0  0  0
    0.3648   -0.6187   -0.6089 H   0  0  0  0  0  0  0  0  0  0  0  0
    0.4443    0.5171    0.7579 H   0  0  0  0  0  0  0  0  0  0  0  0
    0.6331   -1.2293    1.0418 H   0  0  0  0  0  0  0  0  0  0  0  0
    2.7669   -1.2289   -0.2597 H   0  0  0  0  0  0  0  0  0  0  0  0
    2.3747    1.8153   -0.5089 H   0  0  0  0  0  0  0  0  0  0  0  0
    2.1848    0.6393   -1.8298 H   0  0  0  0  0  0  0  0  0  0  0  0
    3.7810    0.8975   -1.1000 H   0  0  0  0  0  0  0  0  0  0  0  0
    2.7397   -0.8092    2.2124 H   0  0  0  0  0  0  0  0  0  0  0  0
    2.7592    0.9286    1.9169 H   0  0  0  0  0  0  0  0  0  0  0  0
    5.0005    0.7120    0.7952 H   0  0  0  0  0  0  0  0  0  0  0  0
    4.9579   -1.0365    1.0264 H   0  0  0  0  0  0  0  0  0  0  0  0
    4.8320   -0.6824    3.5286 H   0  0  0  0  0  0  0  0  0  0  0  0
    4.9659    1.0638    3.2718 H   0  0  0  0  0  0  0  0  0  0  0  0
    7.0318   -1.0382    2.4184 H   0  0  0  0  0  0  0  0  0  0  0  0
    7.2890    2.0395    2.4666 H   0  0  0  0  0  0  0  0  0  0  0  0
    7.2475    0.9985    1.0311 H   0  0  0  0  0  0  0  0  0  0  0  0
    8.6148    0.8854    2.1592 H   0  0  0  0  0  0  0  0  0  0  0  0
    9.5046   -2.0297    5.8685 H   0  0  0  0  0  0  0  0  0  0  0  0
    7.9628   -1.7875    6.7058 H   0  0  0  0  0  0  0  0  0  0  0  0
    9.9314    0.0683    6.9448 H   0  0  0  0  0  0  0  0  0  0  0  0
    7.0752    1.8433    4.6319 H   0  0  0  0  0  0  0  0  0  0  0  0
    6.0546   -0.1384    6.7668 H   0  0  0  0  0  0  0  0  0  0  0  0
    5.0376    0.7421    5.6019 H   0  0  0  0  0  0  0  0  0  0  0  0
    5.9566    1.6412    6.8395 H   0  0  0  0  0  0  0  0  0  0  0  0
  1  2  1  0
  1 18  1  0
  1 19  1  0
  1 20  1  0
  2  3  1  0
  2  4  1  0
  2 21  1  6
  3 22  1  0
  3 23  1  0
  3 24  1  0
  4  5  1  0
  4 25  1  0
  4 26  1  0
  5  6  1  0
  5 27  1  0
  5 28  1  0
  6  7  1  0
  6 29  1  0
  6 30  1  0
  7  8  1  0
  7  9  1  0
  7 31  1  6
  8 32  1  0
  8 33  1  0
  8 34  1  0
  9 10  1  0
  9 16  1  0
 10 11  2  0
 10 12  1  0
 12 13  1  0
 12 35  1  0
 12 36  1  0
 13 14  1  0
 13 37  1  0
 14 15  2  0
 14 16  1  0
 16 17  1  0
 16 38  1  6
 17 39  1  0
 17 40  1  0
 17 41  1  0
M  END

