
     RDKit          3D

 65 67  0  0  0  0  0  0  0  0999 V2000
    8.5664    4.9744   -7.3859 C   0  0  0  0  0  0  0  0  0  0  0  0
    7.4675    3.9172   -7.3004 C   0  0  0  0  0  0  0  0  0  0  0  0
    6.1210    4.4763   -7.4854 N   0  0  0  0  0  0  0  0  0  0  0  0
    5.6864    4.8135   -8.8509 C   0  0  0  0  0  0  0  0  0  0  0  0
    5.3271    3.6179   -9.7345 C   0  0  0  0  0  0  0  0  0  0  0  0
    4.9339    3.9808   -6.3997 S   0  0  1  0  0  0  0  0  0  0  0  0
    3.6556    4.4371   -6.9538 O   0  0  0  0  0  0  0  0  0  0  0  0
    5.1399    2.5811   -6.0129 O   0  0  0  0  0  0  0  0  0  0  0  0
    5.2638    4.9642   -4.9303 C   0  0  0  0  0  0  0  0  0  0  0  0
    4.9390    6.3250   -4.9148 C   0  0  0  0  0  0  0  0  0  0  0  0
    5.1538    7.0807   -3.7662 C   0  0  0  0  0  0  0  0  0  0  0  0
    5.6754    6.4868   -2.5992 C   0  0  0  0  0  0  0  0  0  0  0  0
    5.9326    7.1672   -1.4679 O   0  0  0  0  0  0  0  0  0  0  0  0
    5.4603    8.4992   -1.3089 C   0  0  0  0  0  0  0  0  0  0  0  0
    6.3609    9.5745   -1.9337 C   0  0  0  0  0  0  0  0  0  0  0  0
    5.8868   10.6511   -2.2575 O   0  0  0  0  0  0  0  0  0  0  0  0
    7.6720    9.2419   -2.0227 N   0  0  0  0  0  0  0  0  0  0  0  0
    8.6849   10.1447   -2.5836 C   0  0  1  0  0  0  0  0  0  0  0  0
    9.9558   10.0853   -1.7332 C   0  0  0  0  0  0  0  0  0  0  0  0
    8.9064    9.8834   -4.0722 C   0  0  0  0  0  0  0  0  0  0  0  0
    9.7886    8.8966   -4.5400 C   0  0  0  0  0  0  0  0  0  0  0  0
    9.9360    8.6795   -5.9088 C   0  0  0  0  0  0  0  0  0  0  0  0
    9.2186    9.4285   -6.8563 C   0  0  0  0  0  0  0  0  0  0  0  0
    8.3258   10.4179   -6.3978 C   0  0  0  0  0  0  0  0  0  0  0  0
    8.1858   10.6240   -5.0159 C   0  0  0  0  0  0  0  0  0  0  0  0
    7.4930   11.2404   -7.3661 C   0  0  0  0  0  0  0  0  0  0  0  0
    8.0192   11.2102   -8.8041 C   0  0  0  0  0  0  0  0  0  0  0  0
    8.3432    9.7754   -9.2270 C   0  0  0  0  0  0  0  0  0  0  0  0
    9.4461    9.1913   -8.3388 C   0  0  0  0  0  0  0  0  0  0  0  0
    5.9809    5.1063   -2.6397 C   0  0  0  0  0  0  0  0  0  0  0  0
    6.5061    4.3950   -1.4581 N   0  0  0  0  0  0  0  0  0  0  0  0
    6.1156    4.7405   -0.3584 O   0  0  0  0  0  0  0  0  0  0  0  0
    7.2871    3.4806   -1.6758 O   0  0  0  0  0  0  0  0  0  0  0  0
    5.7860    4.3517   -3.7956 C   0  0  0  0  0  0  0  0  0  0  0  0
    9.5500    4.5070   -7.2190 H   0  0  0  0  0  0  0  0  0  0  0  0
    8.4223    5.7606   -6.6289 H   0  0  0  0  0  0  0  0  0  0  0  0
    8.5969    5.4576   -8.3755 H   0  0  0  0  0  0  0  0  0  0  0  0
    7.5003    3.4256   -6.3180 H   0  0  0  0  0  0  0  0  0  0  0  0
    7.6485    3.1116   -8.0352 H   0  0  0  0  0  0  0  0  0  0  0  0
    6.5079    5.3948   -9.2999 H   0  0  0  0  0  0  0  0  0  0  0  0
    4.8255    5.4911   -8.7740 H   0  0  0  0  0  0  0  0  0  0  0  0
    6.1640    2.9086   -9.8331 H   0  0  0  0  0  0  0  0  0  0  0  0
    5.0613    3.9625  -10.7469 H   0  0  0  0  0  0  0  0  0  0  0  0
    4.4617    3.0790   -9.3209 H   0  0  0  0  0  0  0  0  0  0  0  0
    4.5156    6.7953   -5.8041 H   0  0  0  0  0  0  0  0  0  0  0  0
    4.9243    8.1461   -3.7816 H   0  0  0  0  0  0  0  0  0  0  0  0
    5.4235    8.6662   -0.2215 H   0  0  0  0  0  0  0  0  0  0  0  0
    4.4427    8.6267   -1.7063 H   0  0  0  0  0  0  0  0  0  0  0  0
    7.9437    8.2981   -1.7657 H   0  0  0  0  0  0  0  0  0  0  0  0
    8.2442   11.1474   -2.4914 H   0  0  0  0  0  0  0  0  0  0  0  0
   10.3908    9.0726   -1.7089 H   0  0  0  0  0  0  0  0  0  0  0  0
    9.7356   10.3800   -0.6959 H   0  0  0  0  0  0  0  0  0  0  0  0
   10.7207   10.7661   -2.1352 H   0  0  0  0  0  0  0  0  0  0  0  0
   10.3731    8.2948   -3.8394 H   0  0  0  0  0  0  0  0  0  0  0  0
   10.6339    7.9122   -6.2581 H   0  0  0  0  0  0  0  0  0  0  0  0
    7.4835   11.3851   -4.6623 H   0  0  0  0  0  0  0  0  0  0  0  0
    7.4207   12.2779   -7.0001 H   0  0  0  0  0  0  0  0  0  0  0  0
    6.4572   10.8507   -7.3529 H   0  0  0  0  0  0  0  0  0  0  0  0
    8.9335   11.8264   -8.8804 H   0  0  0  0  0  0  0  0  0  0  0  0
    7.2795   11.6629   -9.4842 H   0  0  0  0  0  0  0  0  0  0  0  0
    8.6526    9.7373  -10.2842 H   0  0  0  0  0  0  0  0  0  0  0  0
    7.4303    9.1574   -9.1447 H   0  0  0  0  0  0  0  0  0  0  0  0
   10.4138    9.6480   -8.6212 H   0  0  0  0  0  0  0  0  0  0  0  0
    9.5645    8.1106   -8.5250 H   0  0  0  0  0  0  0  0  0  0  0  0
    6.0272    3.2888   -3.7931 H   0  0  0  0  0  0  0  0  0  0  0  0
  1  2  1  0
  1 35  1  0
  1 36  1  0
  1 37  1  0
  2  3  1  0
  2 38  1  0
  2 39  1  0
  3  4  1  0
  6  3  1  6
  4  5  1  0
  4 40  1  0
  4 41  1  0
  5 42  1  0
  5 43  1  0
  5 44  1  0
  6  7  2  0
  6  8  2  0
  6  9  1  0
  9 10  2  0
  9 34  1  0
 10 11  1  0
 10 45  1  0
 11 12  2  0
 11 46  1  0
 12 13  1  0
 12 30  1  0
 13 14  1  0
 14 15  1  0
 14 47  1  0
 14 48  1  0
 15 16  2  0
 15 17  1  0
 17 18  1  0
 17 49  1  0
 18 19  1  0
 18 20  1  0
 18 50  1  6
 19 51  1  0
 19 52  1  0
 19 53  1  0
 20 21  2  0
 20 25  1  0
 21 22  1  0
 21 54  1  0
 22 23  2  0
 22 55  1  0
 23 24  1  0
 23 29  1  0
 24 25  2  0
 24 26  1  0
 25 56  1  0
 26 27  1  0
 26 57  1  0
 26 58  1  0
 27 28  1  0
 27 59  1  0
 27 60  1  0
 28 29  1  0
 28 61  1  0
 28 62  1  0
 29 63  1  0
 29 64  1  0
 30 31  1  0
 30 34  2  0
 31 32  2  0
 31 33  1  0
 34 65  1  0
M  CHG  2  31   1  33  -1
M  END

