
     RDKit          3D

 53 55  0  0  0  0  0  0  0  0999 V2000
    6.6602   -0.7156   -0.4792 C   0  0  0  0  0  0  0  0  0  0  0  0
    7.0840   -0.6116   -1.9533 C   0  0  0  0  0  0  0  0  0  0  0  0
    6.4212    0.5364   -2.6811 C   0  0  0  0  0  0  0  0  0  0  0  0
    6.9945    1.8209   -2.6804 C   0  0  0  0  0  0  0  0  0  0  0  0
    6.3686    2.8871   -3.3184 C   0  0  0  0  0  0  0  0  0  0  0  0
    5.1395    2.7092   -3.9790 C   0  0  0  0  0  0  0  0  0  0  0  0
    4.5330    3.9021   -4.6512 C   0  0  0  0  0  0  0  0  0  0  0  0
    5.1244    4.9586   -4.7245 O   0  0  0  0  0  0  0  0  0  0  0  0
    3.0980    3.7898   -5.2102 C   0  0  1  0  0  0  0  0  0  0  0  0
    2.0569    3.8974   -4.0987 C   0  0  0  0  0  0  0  0  0  0  0  0
    2.8485    4.8672   -6.1122 O   0  0  0  0  0  0  0  0  0  0  0  0
    3.4589    4.8042   -7.3171 C   0  0  0  0  0  0  0  0  0  0  0  0
    4.1202    3.8552   -7.6702 O   0  0  0  0  0  0  0  0  0  0  0  0
    3.1985    6.0113   -8.1489 C   0  0  0  0  0  0  0  0  0  0  0  0
    2.4724    7.1209   -7.6714 C   0  0  0  0  0  0  0  0  0  0  0  0
    2.2549    8.2314   -8.4754 C   0  0  0  0  0  0  0  0  0  0  0  0
    2.7621    8.2705   -9.7926 C   0  0  0  0  0  0  0  0  0  0  0  0
    3.4911    7.1498  -10.2836 C   0  0  0  0  0  0  0  0  0  0  0  0
    3.7000    6.0407   -9.4491 C   0  0  0  0  0  0  0  0  0  0  0  0
    4.0061    7.1183  -11.5653 N   0  0  0  0  0  0  0  0  0  0  0  0
    3.8211    8.1251  -12.3523 C   0  0  0  0  0  0  0  0  0  0  0  0
    4.3648    8.1180  -13.7481 C   0  0  0  0  0  0  0  0  0  0  0  0
    3.0669    9.3473  -11.9529 C   0  0  0  0  0  0  0  0  0  0  0  0
    2.8807   10.2846  -12.7145 O   0  0  0  0  0  0  0  0  0  0  0  0
    2.5869    9.3569  -10.6397 N   0  0  0  0  0  0  0  0  0  0  0  0
    1.8609   10.5634  -10.2167 C   0  0  0  0  0  0  0  0  0  0  0  0
    0.3492   10.4570  -10.4123 C   0  0  0  0  0  0  0  0  0  0  0  0
    4.5639    1.4267   -3.9868 C   0  0  0  0  0  0  0  0  0  0  0  0
    5.1979    0.3609   -3.3471 C   0  0  0  0  0  0  0  0  0  0  0  0
    7.1645   -1.5605    0.0164 H   0  0  0  0  0  0  0  0  0  0  0  0
    5.5729   -0.8678   -0.3875 H   0  0  0  0  0  0  0  0  0  0  0  0
    6.9141    0.2029    0.0738 H   0  0  0  0  0  0  0  0  0  0  0  0
    6.8448   -1.5568   -2.4685 H   0  0  0  0  0  0  0  0  0  0  0  0
    8.1791   -0.4937   -2.0091 H   0  0  0  0  0  0  0  0  0  0  0  0
    7.9521    1.9809   -2.1761 H   0  0  0  0  0  0  0  0  0  0  0  0
    6.8174    3.8823   -3.3278 H   0  0  0  0  0  0  0  0  0  0  0  0
    2.9980    2.8423   -5.7603 H   0  0  0  0  0  0  0  0  0  0  0  0
    2.1641    4.8581   -3.5727 H   0  0  0  0  0  0  0  0  0  0  0  0
    2.1749    3.0847   -3.3679 H   0  0  0  0  0  0  0  0  0  0  0  0
    1.0446    3.8430   -4.5262 H   0  0  0  0  0  0  0  0  0  0  0  0
    2.0808    7.1032   -6.6541 H   0  0  0  0  0  0  0  0  0  0  0  0
    1.6846    9.0687   -8.0762 H   0  0  0  0  0  0  0  0  0  0  0  0
    4.2673    5.1956   -9.8407 H   0  0  0  0  0  0  0  0  0  0  0  0
    4.9056    7.1808  -13.9295 H   0  0  0  0  0  0  0  0  0  0  0  0
    5.0355    8.9782  -13.9063 H   0  0  0  0  0  0  0  0  0  0  0  0
    3.5494    8.2309  -14.4811 H   0  0  0  0  0  0  0  0  0  0  0  0
    2.2554   11.3830  -10.8301 H   0  0  0  0  0  0  0  0  0  0  0  0
    2.1191   10.7713   -9.1689 H   0  0  0  0  0  0  0  0  0  0  0  0
    0.1099   10.3099  -11.4761 H   0  0  0  0  0  0  0  0  0  0  0  0
   -0.1375   11.3878  -10.0807 H   0  0  0  0  0  0  0  0  0  0  0  0
   -0.0839    9.6224   -9.8392 H   0  0  0  0  0  0  0  0  0  0  0  0
    3.6218    1.2400   -4.5052 H   0  0  0  0  0  0  0  0  0  0  0  0
    4.7379   -0.6311   -3.3741 H   0  0  0  0  0  0  0  0  0  0  0  0
  1  2  1  0
  1 30  1  0
  1 31  1  0
  1 32  1  0
  2  3  1  0
  2 33  1  0
  2 34  1  0
  3  4  2  0
  3 29  1  0
  4  5  1  0
  4 35  1  0
  5  6  2  0
  5 36  1  0
  6  7  1  0
  6 28  1  0
  7  8  2  0
  7  9  1  0
  9 10  1  0
  9 11  1  0
  9 37  1  6
 10 38  1  0
 10 39  1  0
 10 40  1  0
 11 12  1  0
 12 13  2  0
 12 14  1  0
 14 15  2  0
 14 19  1  0
 15 16  1  0
 15 41  1  0
 16 17  2  0
 16 42  1  0
 17 18  1  0
 17 25  1  0
 18 19  2  0
 18 20  1  0
 19 43  1  0
 20 21  2  0
 21 22  1  0
 21 23  1  0
 22 44  1  0
 22 45  1  0
 22 46  1  0
 23 24  2  0
 23 25  1  0
 25 26  1  0
 26 27  1  0
 26 47  1  0
 26 48  1  0
 27 49  1  0
 27 50  1  0
 27 51  1  0
 28 29  2  0
 28 52  1  0
 29 53  1  0
M  END

