
     RDKit          3D

 43 44  0  0  0  0  0  0  0  0999 V2000
    1.6851   -0.5431   -0.4430 C   0  0  0  0  0  0  0  0  0  0  0  0
    2.3338    0.0024   -1.7102 C   0  0  1  0  0  0  0  0  0  0  0  0
    3.2602    1.1858   -1.4072 C   0  0  0  0  0  0  0  0  0  0  0  0
    3.1766   -0.9693   -2.3988 O   0  0  0  0  0  0  0  0  0  0  0  0
    2.9395   -2.3282   -2.2923 C   0  0  0  0  0  0  0  0  0  0  0  0
    3.8355   -3.1110   -1.5596 C   0  0  0  0  0  0  0  0  0  0  0  0
    3.6832   -4.4956   -1.4736 C   0  0  0  0  0  0  0  0  0  0  0  0
    2.6086   -5.1206   -2.1314 C   0  0  0  0  0  0  0  0  0  0  0  0
    2.3708   -6.5096   -2.1006 N   0  0  0  0  0  0  0  0  0  0  0  0
    3.0914   -7.4844   -1.4352 C   0  0  0  0  0  0  0  0  0  0  0  0
    4.0753   -7.2675   -0.7549 O   0  0  0  0  0  0  0  0  0  0  0  0
    2.5552   -8.7567   -1.6359 N   0  0  0  0  0  0  0  0  0  0  0  0
    3.0170   -9.9664   -1.1203 C   0  0  0  0  0  0  0  0  0  0  0  0
    4.1401  -10.0820   -0.2821 C   0  0  0  0  0  0  0  0  0  0  0  0
    4.5187  -11.3386    0.1804 C   0  0  0  0  0  0  0  0  0  0  0  0
    5.7065  -11.4298    1.0627 N   0  0  0  0  0  0  0  0  0  0  0  0
    6.2891  -10.3953    1.3367 O   0  0  0  0  0  0  0  0  0  0  0  0
    6.0240  -12.5400    1.4582 O   0  0  0  0  0  0  0  0  0  0  0  0
    3.8375  -12.5103   -0.1447 C   0  0  0  0  0  0  0  0  0  0  0  0
    2.7238  -12.4045   -0.9745 C   0  0  0  0  0  0  0  0  0  0  0  0
    2.3227  -11.1568   -1.4521 C   0  0  0  0  0  0  0  0  0  0  0  0
    0.9138  -11.0687   -2.4948 Cl  0  0  0  0  0  0  0  0  0  0  0  0
    1.7131   -4.3288   -2.8729 C   0  0  0  0  0  0  0  0  0  0  0  0
    1.8753   -2.9474   -2.9598 C   0  0  0  0  0  0  0  0  0  0  0  0
    1.2510    0.4935   -2.7059 C   0  0  0  0  0  0  0  0  0  0  0  0
    0.2718    1.1002   -2.3659 O   0  0  0  0  0  0  0  0  0  0  0  0
    1.5317    0.2286   -3.9912 O   0  0  0  0  0  0  0  0  0  0  0  0
    2.4528   -0.8472    0.2836 H   0  0  0  0  0  0  0  0  0  0  0  0
    1.0364   -1.4054   -0.6502 H   0  0  0  0  0  0  0  0  0  0  0  0
    1.0625    0.2469   -0.0026 H   0  0  0  0  0  0  0  0  0  0  0  0
    4.0352    0.8765   -0.6903 H   0  0  0  0  0  0  0  0  0  0  0  0
    2.6840    2.0199   -0.9822 H   0  0  0  0  0  0  0  0  0  0  0  0
    3.7557    1.5318   -2.3266 H   0  0  0  0  0  0  0  0  0  0  0  0
    4.6712   -2.6199   -1.0566 H   0  0  0  0  0  0  0  0  0  0  0  0
    4.3863   -5.0966   -0.9025 H   0  0  0  0  0  0  0  0  0  0  0  0
    1.5632   -6.8064   -2.6351 H   0  0  0  0  0  0  0  0  0  0  0  0
    1.7322   -8.8496   -2.2220 H   0  0  0  0  0  0  0  0  0  0  0  0
    4.7051   -9.1983    0.0003 H   0  0  0  0  0  0  0  0  0  0  0  0
    4.1787  -13.4674    0.2462 H   0  0  0  0  0  0  0  0  0  0  0  0
    2.1543  -13.2900   -1.2601 H   0  0  0  0  0  0  0  0  0  0  0  0
    0.8765   -4.8001   -3.3979 H   0  0  0  0  0  0  0  0  0  0  0  0
    1.1766   -2.3547   -3.5531 H   0  0  0  0  0  0  0  0  0  0  0  0
    2.3723   -0.2711   -3.9924 H   0  0  0  0  0  0  0  0  0  0  0  0
  1  2  1  0
  1 28  1  0
  1 29  1  0
  1 30  1  0
  2  3  1  0
  2  4  1  6
  2 25  1  0
  3 31  1  0
  3 32  1  0
  3 33  1  0
  4  5  1  0
  5  6  2  0
  5 24  1  0
  6  7  1  0
  6 34  1  0
  7  8  2  0
  7 35  1  0
  8  9  1  0
  8 23  1  0
  9 10  1  0
  9 36  1  0
 10 11  2  0
 10 12  1  0
 12 13  1  0
 12 37  1  0
 13 14  2  0
 13 21  1  0
 14 15  1  0
 14 38  1  0
 15 16  1  0
 15 19  2  0
 16 17  2  0
 16 18  1  0
 19 20  1  0
 19 39  1  0
 20 21  2  0
 20 40  1  0
 21 22  1  0
 23 24  2  0
 23 41  1  0
 24 42  1  0
 25 26  2  0
 25 27  1  0
 27 43  1  0
M  CHG  2  16   1  18  -1
M  END

