
     RDKit          3D

 52 54  0  0  0  0  0  0  0  0999 V2000
    2.5803   -8.1701   -4.7461 C   0  0  0  0  0  0  0  0  0  0  0  0
    2.2075   -6.7344   -4.3736 C   0  0  0  0  0  0  0  0  0  0  0  0
    3.4048   -5.7797   -4.3507 C   0  0  0  0  0  0  0  0  0  0  0  0
    3.0261   -4.3352   -3.9762 C   0  0  0  0  0  0  0  0  0  0  0  0
    4.1999   -3.3836   -3.9443 C   0  0  0  0  0  0  0  0  0  0  0  0
    4.4595   -2.4994   -4.9979 C   0  0  0  0  0  0  0  0  0  0  0  0
    5.5495   -1.6091   -5.0208 C   0  0  0  0  0  0  0  0  0  0  0  0
    5.8237   -0.7005   -6.2412 C   0  0  1  0  0  0  0  0  0  0  0  0
    6.6588   -1.4670   -7.2987 C   0  0  0  0  0  0  0  0  0  0  0  0
    7.1293   -2.7740   -7.1009 C   0  0  0  0  0  0  0  0  0  0  0  0
    7.8901   -3.4404   -8.0678 C   0  0  0  0  0  0  0  0  0  0  0  0
    8.2078   -2.8128   -9.2761 C   0  0  0  0  0  0  0  0  0  0  0  0
    8.9419   -3.4100  -10.2526 O   0  0  0  0  0  0  0  0  0  0  0  0
    7.7514   -1.5060   -9.4980 C   0  0  0  0  0  0  0  0  0  0  0  0
    6.9956   -0.8571   -8.5249 C   0  0  0  0  0  0  0  0  0  0  0  0
    4.4870   -0.2181   -6.8878 C   0  0  0  0  0  0  0  0  0  0  0  0
    3.6603    0.7002   -5.9781 C   0  0  0  0  0  0  0  0  0  0  0  0
    4.4657    1.9317   -5.5472 C   0  0  0  0  0  0  0  0  0  0  0  0
    5.8011    1.5283   -4.9108 C   0  0  0  0  0  0  0  0  0  0  0  0
    6.5998    0.5887   -5.8248 C   0  0  0  0  0  0  0  0  0  0  0  0
    6.4063   -1.6444   -3.9107 C   0  0  0  0  0  0  0  0  0  0  0  0
    6.1793   -2.5129   -2.8396 C   0  0  0  0  0  0  0  0  0  0  0  0
    5.0841   -3.3804   -2.8474 C   0  0  0  0  0  0  0  0  0  0  0  0
    4.8249   -4.2404   -1.8210 O   0  0  0  0  0  0  0  0  0  0  0  0
    1.6984   -8.8307   -4.7502 H   0  0  0  0  0  0  0  0  0  0  0  0
    3.3090   -8.5920   -4.0336 H   0  0  0  0  0  0  0  0  0  0  0  0
    3.0366   -8.2185   -5.7493 H   0  0  0  0  0  0  0  0  0  0  0  0
    1.7186   -6.7252   -3.3824 H   0  0  0  0  0  0  0  0  0  0  0  0
    1.4506   -6.3536   -5.0838 H   0  0  0  0  0  0  0  0  0  0  0  0
    3.8963   -5.7796   -5.3405 H   0  0  0  0  0  0  0  0  0  0  0  0
    4.1564   -6.1497   -3.6323 H   0  0  0  0  0  0  0  0  0  0  0  0
    2.5393   -4.3449   -2.9863 H   0  0  0  0  0  0  0  0  0  0  0  0
    2.2781   -3.9591   -4.6944 H   0  0  0  0  0  0  0  0  0  0  0  0
    3.7673   -2.5239   -5.8416 H   0  0  0  0  0  0  0  0  0  0  0  0
    6.9036   -3.2984   -6.1724 H   0  0  0  0  0  0  0  0  0  0  0  0
    8.2378   -4.4610   -7.8753 H   0  0  0  0  0  0  0  0  0  0  0  0
    9.1883   -4.2995   -9.9673 H   0  0  0  0  0  0  0  0  0  0  0  0
    7.9995   -1.0139  -10.4409 H   0  0  0  0  0  0  0  0  0  0  0  0
    6.6625    0.1610   -8.7389 H   0  0  0  0  0  0  0  0  0  0  0  0
    3.8893   -1.0786   -7.2245 H   0  0  0  0  0  0  0  0  0  0  0  0
    4.7355    0.3376   -7.8063 H   0  0  0  0  0  0  0  0  0  0  0  0
    3.3301    0.1441   -5.0841 H   0  0  0  0  0  0  0  0  0  0  0  0
    2.7429    1.0109   -6.5068 H   0  0  0  0  0  0  0  0  0  0  0  0
    3.8785    2.5518   -4.8489 H   0  0  0  0  0  0  0  0  0  0  0  0
    4.6622    2.5638   -6.4335 H   0  0  0  0  0  0  0  0  0  0  0  0
    5.6105    1.0380   -3.9411 H   0  0  0  0  0  0  0  0  0  0  0  0
    6.4050    2.4254   -4.6910 H   0  0  0  0  0  0  0  0  0  0  0  0
    7.5664    0.3240   -5.3691 H   0  0  0  0  0  0  0  0  0  0  0  0
    6.8572    1.1359   -6.7463 H   0  0  0  0  0  0  0  0  0  0  0  0
    7.2806   -0.9945   -3.8636 H   0  0  0  0  0  0  0  0  0  0  0  0
    6.8642   -2.5141   -1.9848 H   0  0  0  0  0  0  0  0  0  0  0  0
    5.4902   -4.1247   -1.1303 H   0  0  0  0  0  0  0  0  0  0  0  0
  1  2  1  0
  1 25  1  0
  1 26  1  0
  1 27  1  0
  2  3  1  0
  2 28  1  0
  2 29  1  0
  3  4  1  0
  3 30  1  0
  3 31  1  0
  4  5  1  0
  4 32  1  0
  4 33  1  0
  5  6  2  0
  5 23  1  0
  6  7  1  0
  6 34  1  0
  8  7  1  1
  7 21  2  0
  8  9  1  0
  8 16  1  0
  8 20  1  0
  9 10  2  0
  9 15  1  0
 10 11  1  0
 10 35  1  0
 11 12  2  0
 11 36  1  0
 12 13  1  0
 12 14  1  0
 13 37  1  0
 14 15  2  0
 14 38  1  0
 15 39  1  0
 16 17  1  0
 16 40  1  0
 16 41  1  0
 17 18  1  0
 17 42  1  0
 17 43  1  0
 18 19  1  0
 18 44  1  0
 18 45  1  0
 19 20  1  0
 19 46  1  0
 19 47  1  0
 20 48  1  0
 20 49  1  0
 21 22  1  0
 21 50  1  0
 22 23  2  0
 22 51  1  0
 23 24  1  0
 24 52  1  0
M  END

