
     RDKit          3D

 33 34  0  0  0  0  0  0  0  0999 V2000
    1.0141   -0.0131    0.4215 F   0  0  0  0  0  0  0  0  0  0  0  0
    2.3533   -0.0719    0.3891 C   0  0  0  0  0  0  0  0  0  0  0  0
    3.0649    1.1165    0.3253 C   0  0  0  0  0  0  0  0  0  0  0  0
    4.4779    1.0877    0.2844 C   0  0  0  0  0  0  0  0  0  0  0  0
    5.1846    2.2664    0.2401 N   0  0  0  0  0  0  0  0  0  0  0  0
    6.6169    2.3517    0.0462 C   0  0  0  0  0  0  0  0  0  0  0  0
    7.0858    3.8124    0.0964 C   0  0  0  0  0  0  0  0  0  0  0  0
    8.5817    3.9542   -0.0786 C   0  0  0  0  0  0  0  0  0  0  0  0
    9.1477    4.0925   -1.3560 C   0  0  0  0  0  0  0  0  0  0  0  0
   10.5323    4.1863   -1.5215 C   0  0  0  0  0  0  0  0  0  0  0  0
   11.3764    4.1428   -0.4080 C   0  0  0  0  0  0  0  0  0  0  0  0
   10.8262    4.0066    0.8700 C   0  0  0  0  0  0  0  0  0  0  0  0
    9.4411    3.9130    1.0309 C   0  0  0  0  0  0  0  0  0  0  0  0
    5.1216   -0.1698    0.3034 C   0  0  0  0  0  0  0  0  0  0  0  0
    4.3670   -1.3438    0.3757 C   0  0  0  0  0  0  0  0  0  0  0  0
    5.0837   -2.6703    0.4662 C   0  0  1  0  0  0  0  0  0  0  0  0
    6.2680   -2.6486   -0.1723 F   0  0  0  0  0  0  0  0  0  0  0  0
    5.3379   -3.0061    1.7463 F   0  0  0  0  0  0  0  0  0  0  0  0
    4.3591   -3.6709   -0.0634 F   0  0  0  0  0  0  0  0  0  0  0  0
    2.9704   -1.3216    0.4168 C   0  0  0  0  0  0  0  0  0  0  0  0
    2.5173    2.0614    0.3099 H   0  0  0  0  0  0  0  0  0  0  0  0
    4.6494    3.1018    0.0383 H   0  0  0  0  0  0  0  0  0  0  0  0
    6.9284    1.8976   -0.9164 H   0  0  0  0  0  0  0  0  0  0  0  0
    7.1340    1.7817    0.8382 H   0  0  0  0  0  0  0  0  0  0  0  0
    6.7745    4.2472    1.0609 H   0  0  0  0  0  0  0  0  0  0  0  0
    6.5653    4.3805   -0.6948 H   0  0  0  0  0  0  0  0  0  0  0  0
    8.4946    4.1331   -2.2330 H   0  0  0  0  0  0  0  0  0  0  0  0
   10.9532    4.2974   -2.5242 H   0  0  0  0  0  0  0  0  0  0  0  0
   12.4592    4.2189   -0.5353 H   0  0  0  0  0  0  0  0  0  0  0  0
   11.4780    3.9767    1.7470 H   0  0  0  0  0  0  0  0  0  0  0  0
    9.0188    3.8122    2.0353 H   0  0  0  0  0  0  0  0  0  0  0  0
    6.2067   -0.2385    0.2534 H   0  0  0  0  0  0  0  0  0  0  0  0
    2.3732   -2.2315    0.4599 H   0  0  0  0  0  0  0  0  0  0  0  0
  1  2  1  0
  2  3  2  0
  2 20  1  0
  3  4  1  0
  3 21  1  0
  4  5  1  0
  4 14  2  0
  5  6  1  0
  5 22  1  0
  6  7  1  0
  6 23  1  0
  6 24  1  0
  7  8  1  0
  7 25  1  0
  7 26  1  0
  8  9  2  0
  8 13  1  0
  9 10  1  0
  9 27  1  0
 10 11  2  0
 10 28  1  0
 11 12  1  0
 11 29  1  0
 12 13  2  0
 12 30  1  0
 13 31  1  0
 14 15  1  0
 14 32  1  0
 15 16  1  0
 15 20  2  0
 16 17  1  6
 16 18  1  0
 16 19  1  0
 20 33  1  0
M  END

