
     RDKit          3D

 34 34  0  0  0  0  0  0  0  0999 V2000
    6.4448    2.3073   -5.5625 C   0  0  0  0  0  0  0  0  0  0  0  0
    5.1117    1.7150   -5.1584 C   0  0  0  0  0  0  0  0  0  0  0  0
    5.3768    0.5488   -4.3527 O   0  0  0  0  0  0  0  0  0  0  0  0
    4.3655   -0.1824   -3.8954 C   0  0  0  0  0  0  0  0  0  0  0  0
    2.7588    0.1127   -4.1007 S   0  0  0  0  0  0  0  0  0  0  0  0
    4.8827   -1.5880   -2.9688 S   0  0  0  0  0  0  0  0  0  0  0  0
    6.7593   -1.5528   -3.0564 C   0  0  1  0  0  0  0  0  0  0  0  0
    7.2739   -2.4092   -1.8888 C   0  0  0  0  0  0  0  0  0  0  0  0
    7.2465   -2.0003   -4.3538 C   0  0  0  0  0  0  0  0  0  0  0  0
    7.6672   -2.3811   -5.4313 C   0  0  0  0  0  0  0  0  0  0  0  0
    8.1366   -2.8780   -6.6889 C   0  0  0  0  0  0  0  0  0  0  0  0
    8.7786   -2.0728   -7.5665 C   0  0  0  0  0  0  0  0  0  0  0  0
    9.2690   -2.5216   -8.9156 C   0  0  0  0  0  0  0  0  0  0  0  0
    8.6841   -3.8746   -9.3395 C   0  0  0  0  0  0  0  0  0  0  0  0
    8.7017   -4.8645   -8.1710 C   0  0  0  0  0  0  0  0  0  0  0  0
    7.8693   -4.3459   -6.9932 C   0  0  0  0  0  0  0  0  0  0  0  0
    6.2785    3.1959   -6.1911 H   0  0  0  0  0  0  0  0  0  0  0  0
    7.0401    1.5815   -6.1369 H   0  0  0  0  0  0  0  0  0  0  0  0
    7.0278    2.6147   -4.6806 H   0  0  0  0  0  0  0  0  0  0  0  0
    4.5073    1.4063   -6.0262 H   0  0  0  0  0  0  0  0  0  0  0  0
    4.4982    2.4148   -4.5685 H   0  0  0  0  0  0  0  0  0  0  0  0
    7.0348   -0.4996   -2.9005 H   0  0  0  0  0  0  0  0  0  0  0  0
    6.9499   -3.4561   -1.9916 H   0  0  0  0  0  0  0  0  0  0  0  0
    6.9059   -2.0180   -0.9284 H   0  0  0  0  0  0  0  0  0  0  0  0
    8.3744   -2.3953   -1.8787 H   0  0  0  0  0  0  0  0  0  0  0  0
    8.9618   -1.0309   -7.2845 H   0  0  0  0  0  0  0  0  0  0  0  0
   10.3761   -2.5745   -8.8951 H   0  0  0  0  0  0  0  0  0  0  0  0
    9.0362   -1.7460   -9.6670 H   0  0  0  0  0  0  0  0  0  0  0  0
    9.2410   -4.2760  -10.2018 H   0  0  0  0  0  0  0  0  0  0  0  0
    7.6419   -3.7321   -9.6774 H   0  0  0  0  0  0  0  0  0  0  0  0
    9.7455   -5.0180   -7.8420 H   0  0  0  0  0  0  0  0  0  0  0  0
    8.3263   -5.8508   -8.4892 H   0  0  0  0  0  0  0  0  0  0  0  0
    8.0653   -4.9420   -6.0865 H   0  0  0  0  0  0  0  0  0  0  0  0
    6.7897   -4.4705   -7.1990 H   0  0  0  0  0  0  0  0  0  0  0  0
  1  2  1  0
  1 17  1  0
  1 18  1  0
  1 19  1  0
  2  3  1  0
  2 20  1  0
  2 21  1  0
  3  4  1  0
  4  5  2  0
  4  6  1  0
  6  7  1  0
  7  8  1  0
  7  9  1  0
  7 22  1  1
  8 23  1  0
  8 24  1  0
  8 25  1  0
  9 10  3  0
 10 11  1  0
 11 12  2  0
 11 16  1  0
 12 13  1  0
 12 26  1  0
 13 14  1  0
 13 27  1  0
 13 28  1  0
 14 15  1  0
 14 29  1  0
 14 30  1  0
 15 16  1  0
 15 31  1  0
 15 32  1  0
 16 33  1  0
 16 34  1  0
M  END

