
     RDKit          3D

 34 34  0  0  0  0  0  0  0  0999 V2000
    0.5619    3.1254   -1.3896 C   0  0  0  0  0  0  0  0  0  0  0  0
    1.9078    3.4656   -1.5920 O   0  0  0  0  0  0  0  0  0  0  0  0
    2.7526    2.3639   -1.7875 C   0  0  0  0  0  0  0  0  0  0  0  0
    4.1597    2.9002   -1.9940 C   0  0  0  0  0  0  0  0  0  0  0  0
    5.0169    1.7941   -2.1884 O   0  0  0  0  0  0  0  0  0  0  0  0
    6.3575    1.9956   -2.3899 C   0  0  0  0  0  0  0  0  0  0  0  0
    6.9349    3.2719   -2.4232 C   0  0  0  0  0  0  0  0  0  0  0  0
    8.3121    3.4529   -2.6280 C   0  0  0  0  0  0  0  0  0  0  0  0
    8.9537    4.8148   -2.6703 C   0  0  0  0  0  0  0  0  0  0  0  0
    9.0789    2.3015   -2.7991 C   0  0  0  0  0  0  0  0  0  0  0  0
   10.4069    2.4299   -3.0000 F   0  0  0  0  0  0  0  0  0  0  0  0
    8.5223    1.0264   -2.7730 C   0  0  0  0  0  0  0  0  0  0  0  0
    7.1524    0.8400   -2.5689 C   0  0  0  0  0  0  0  0  0  0  0  0
    6.5740   -0.5706   -2.5234 C   0  0  1  0  0  0  0  0  0  0  0  0
    6.1259   -0.9602   -1.0993 C   0  0  0  0  0  0  0  0  0  0  0  0
    5.5465   -0.7410   -3.5555 N   0  0  0  0  0  0  0  0  0  0  0  0
   -0.0028    4.0582   -1.2472 H   0  0  0  0  0  0  0  0  0  0  0  0
    0.4251    2.4891   -0.4916 H   0  0  0  0  0  0  0  0  0  0  0  0
    0.1356    2.5835   -2.2583 H   0  0  0  0  0  0  0  0  0  0  0  0
    2.4456    1.7687   -2.6732 H   0  0  0  0  0  0  0  0  0  0  0  0
    2.7379    1.6793   -0.9137 H   0  0  0  0  0  0  0  0  0  0  0  0
    4.4624    3.4892   -1.1092 H   0  0  0  0  0  0  0  0  0  0  0  0
    4.1720    3.5748   -2.8693 H   0  0  0  0  0  0  0  0  0  0  0  0
    6.3160    4.1590   -2.2885 H   0  0  0  0  0  0  0  0  0  0  0  0
    8.2170    5.6081   -2.4791 H   0  0  0  0  0  0  0  0  0  0  0  0
    9.4179    5.0072   -3.6519 H   0  0  0  0  0  0  0  0  0  0  0  0
    9.7571    4.9016   -1.9208 H   0  0  0  0  0  0  0  0  0  0  0  0
    9.1809    0.1676   -2.9213 H   0  0  0  0  0  0  0  0  0  0  0  0
    7.4026   -1.2458   -2.7977 H   0  0  0  0  0  0  0  0  0  0  0  0
    5.3084   -0.3103   -0.7531 H   0  0  0  0  0  0  0  0  0  0  0  0
    6.9566   -0.8831   -0.3785 H   0  0  0  0  0  0  0  0  0  0  0  0
    5.7661   -2.0032   -1.0887 H   0  0  0  0  0  0  0  0  0  0  0  0
    4.7529   -0.1375   -3.3397 H   0  0  0  0  0  0  0  0  0  0  0  0
    5.1982   -1.7005   -3.5321 H   0  0  0  0  0  0  0  0  0  0  0  0
  1  2  1  0
  1 17  1  0
  1 18  1  0
  1 19  1  0
  2  3  1  0
  3  4  1  0
  3 20  1  0
  3 21  1  0
  4  5  1  0
  4 22  1  0
  4 23  1  0
  5  6  1  0
  6  7  2  0
  6 13  1  0
  7  8  1  0
  7 24  1  0
  8  9  1  0
  8 10  2  0
  9 25  1  0
  9 26  1  0
  9 27  1  0
 10 11  1  0
 10 12  1  0
 12 13  2  0
 12 28  1  0
 13 14  1  0
 14 15  1  0
 14 16  1  0
 14 29  1  6
 15 30  1  0
 15 31  1  0
 15 32  1  0
 16 33  1  0
 16 34  1  0
M  END

