
     RDKit          3D

 51 57  0  0  0  0  0  0  0  0999 V2000
    2.4409    0.2686   -1.4065 C   0  0  0  0  0  0  0  0  0  0  0  0
    2.9084   -0.2476   -0.1788 O   0  0  0  0  0  0  0  0  0  0  0  0
    3.2015    0.6047    0.8316 C   0  0  0  0  0  0  0  0  0  0  0  0
    3.0722    1.9974    0.7428 C   0  0  0  0  0  0  0  0  0  0  0  0
    3.4081    2.7646    1.8579 C   0  0  0  0  0  0  0  0  0  0  0  0
    3.2715    4.1072    1.7386 O   0  0  0  0  0  0  0  0  0  0  0  0
    3.5578    5.0180    2.7396 C   0  0  0  0  0  0  0  0  0  0  0  0
    3.3762    6.1761    2.4533 O   0  0  0  0  0  0  0  0  0  0  0  0
    4.0461    4.4683    4.0244 C   0  0  0  0  0  0  0  0  0  0  0  0
    4.3712    5.3405    5.1292 C   0  0  0  0  0  0  0  0  0  0  0  0
    4.2510    6.7583    5.0697 C   0  0  0  0  0  0  0  0  0  0  0  0
    4.5658    7.5699    6.1354 C   0  0  0  0  0  0  0  0  0  0  0  0
    5.0333    7.0279    7.3692 C   0  0  0  0  0  0  0  0  0  0  0  0
    5.3445    7.8493    8.4360 N   0  0  0  0  0  0  0  0  0  0  0  0
    5.8302    7.2723    9.6709 C   0  0  0  0  0  0  0  0  0  0  0  0
    5.2207    9.2885    8.3136 C   0  0  0  0  0  0  0  0  0  0  0  0
    5.1594    5.6347    7.4429 C   0  0  0  0  0  0  0  0  0  0  0  0
    4.8420    4.7785    6.3620 C   0  0  0  0  0  0  0  0  0  0  0  0
    4.9859    3.3374    6.4811 C   0  0  0  0  0  0  0  0  0  0  0  0
    5.4519    2.7215    7.6870 C   0  0  0  0  0  0  0  0  0  0  0  0
    5.5866    1.3664    7.7986 C   0  0  0  0  0  0  0  0  0  0  0  0
    5.2675    0.4954    6.7127 C   0  0  0  0  0  0  0  0  0  0  0  0
    5.4073   -0.9051    6.8308 C   0  0  0  0  0  0  0  0  0  0  0  0
    5.0918   -1.7309    5.7648 C   0  0  0  0  0  0  0  0  0  0  0  0
    4.6315   -1.1791    4.5611 C   0  0  0  0  0  0  0  0  0  0  0  0
    4.4767    0.2017    4.3957 C   0  0  0  0  0  0  0  0  0  0  0  0
    3.9948    0.7863    3.1362 C   0  0  0  0  0  0  0  0  0  0  0  0
    3.6586    0.0134    2.0192 C   0  0  0  0  0  0  0  0  0  0  0  0
    3.8679    2.2010    3.0585 C   0  0  0  0  0  0  0  0  0  0  0  0
    4.1904    3.0784    4.1565 C   0  0  0  0  0  0  0  0  0  0  0  0
    4.6617    2.5003    5.3862 C   0  0  0  0  0  0  0  0  0  0  0  0
    4.7985    1.0686    5.4887 C   0  0  0  0  0  0  0  0  0  0  0  0
    2.2712   -0.5948   -2.0635 H   0  0  0  0  0  0  0  0  0  0  0  0
    3.1819    0.9380   -1.8786 H   0  0  0  0  0  0  0  0  0  0  0  0
    1.4908    0.8186   -1.2847 H   0  0  0  0  0  0  0  0  0  0  0  0
    2.7234    2.5112   -0.1508 H   0  0  0  0  0  0  0  0  0  0  0  0
    3.8977    7.2084    4.1468 H   0  0  0  0  0  0  0  0  0  0  0  0
    4.4488    8.6463    6.0147 H   0  0  0  0  0  0  0  0  0  0  0  0
    6.7776    6.7178    9.5306 H   0  0  0  0  0  0  0  0  0  0  0  0
    5.1004    6.5711   10.1175 H   0  0  0  0  0  0  0  0  0  0  0  0
    6.0148    8.0702   10.4013 H   0  0  0  0  0  0  0  0  0  0  0  0
    4.1855    9.6020    8.0858 H   0  0  0  0  0  0  0  0  0  0  0  0
    5.8752    9.7030    7.5245 H   0  0  0  0  0  0  0  0  0  0  0  0
    5.5070    9.7586    9.2631 H   0  0  0  0  0  0  0  0  0  0  0  0
    5.5150    5.1936    8.3679 H   0  0  0  0  0  0  0  0  0  0  0  0
    5.7091    3.3395    8.5456 H   0  0  0  0  0  0  0  0  0  0  0  0
    5.9450    0.9262    8.7330 H   0  0  0  0  0  0  0  0  0  0  0  0
    5.7671   -1.3244    7.7740 H   0  0  0  0  0  0  0  0  0  0  0  0
    5.1995   -2.8145    5.8553 H   0  0  0  0  0  0  0  0  0  0  0  0
    4.3909   -1.8535    3.7392 H   0  0  0  0  0  0  0  0  0  0  0  0
    3.7377   -1.0724    2.0263 H   0  0  0  0  0  0  0  0  0  0  0  0
  1  2  1  0
  1 33  1  0
  1 34  1  0
  1 35  1  0
  2  3  1  0
  3  4  2  0
  3 28  1  0
  4  5  1  0
  4 36  1  0
  5  6  1  0
  5 29  2  0
  6  7  1  0
  7  8  2  0
  7  9  1  0
  9 10  1  0
  9 30  2  0
 10 11  2  0
 10 18  1  0
 11 12  1  0
 11 37  1  0
 12 13  2  0
 12 38  1  0
 13 14  1  0
 13 17  1  0
 14 15  1  0
 14 16  1  0
 15 39  1  0
 15 40  1  0
 15 41  1  0
 16 42  1  0
 16 43  1  0
 16 44  1  0
 17 18  2  0
 17 45  1  0
 18 19  1  0
 19 20  1  0
 19 31  2  0
 20 21  2  0
 20 46  1  0
 21 22  1  0
 21 47  1  0
 22 23  1  0
 22 32  2  0
 23 24  2  0
 23 48  1  0
 24 25  1  0
 24 49  1  0
 25 26  2  0
 25 50  1  0
 26 27  1  0
 26 32  1  0
 27 28  2  0
 27 29  1  0
 28 51  1  0
 29 30  1  0
 30 31  1  0
 31 32  1  0
M  END

