
     RDKit          3D

 79 83  0  0  0  0  0  0  0  0999 V2000
    2.7707   -5.9363    7.7875 N   0  0  0  0  0  0  0  0  0  0  0  0
    2.3511   -5.2101    6.6781 C   0  0  0  0  0  0  0  0  0  0  0  0
    1.7896   -5.7488    5.7374 O   0  0  0  0  0  0  0  0  0  0  0  0
    2.5693   -3.8439    6.7341 N   0  0  0  0  0  0  0  0  0  0  0  0
    2.3275   -3.0433    5.5381 C   0  0  0  0  0  0  0  0  0  0  0  0
    1.4767   -1.8155    5.8790 C   0  0  0  0  0  0  0  0  0  0  0  0
    2.0219   -1.0305    6.9852 N   0  0  0  0  0  0  0  0  0  0  0  0
    3.1000   -0.1031    6.6731 C   0  0  0  0  0  0  0  0  0  0  0  0
    2.8148    1.2628    7.2949 C   0  0  0  0  0  0  0  0  0  0  0  0
    3.9242    2.1085    7.0196 O   0  0  0  0  0  0  0  0  0  0  0  0
    3.9273    3.3979    7.4158 C   0  0  0  0  0  0  0  0  0  0  0  0
    2.8740    3.9940    8.1223 C   0  0  0  0  0  0  0  0  0  0  0  0
    2.9476    5.3340    8.5011 C   0  0  0  0  0  0  0  0  0  0  0  0
    4.0652    6.1282    8.1881 C   0  0  0  0  0  0  0  0  0  0  0  0
    4.1386    7.5577    8.5899 C   0  0  0  0  0  0  0  0  0  0  0  0
    5.3589    8.1486    8.9673 C   0  0  0  0  0  0  0  0  0  0  0  0
    5.4256    9.4920    9.3439 C   0  0  0  0  0  0  0  0  0  0  0  0
    4.2710   10.2668    9.3530 C   0  0  0  0  0  0  0  0  0  0  0  0
    4.3118   11.5522    9.7109 F   0  0  0  0  0  0  0  0  0  0  0  0
    3.0495    9.6942    8.9837 C   0  0  0  0  0  0  0  0  0  0  0  0
    1.9481   10.4501    8.9862 F   0  0  0  0  0  0  0  0  0  0  0  0
    2.9810    8.3595    8.6049 C   0  0  0  0  0  0  0  0  0  0  0  0
    5.1117    5.5189    7.4817 C   0  0  0  0  0  0  0  0  0  0  0  0
    5.0842    4.1684    7.0857 C   0  0  0  0  0  0  0  0  0  0  0  0
    6.1557    3.5151    6.3551 C   0  0  0  0  0  0  0  0  0  0  0  0
    7.3928    3.9470    5.9984 C   0  0  0  0  0  0  0  0  0  0  0  0
    8.2007    5.4901    6.2917 S   0  0  0  0  0  0  0  0  0  0  0  0
    9.6917    4.9592    5.4852 C   0  0  0  0  0  0  0  0  0  0  0  0
   11.0119    5.9282    5.3382 S   0  0  0  0  0  0  0  0  0  0  0  0
    9.5491    3.6696    5.0336 N   0  0  0  0  0  0  0  0  0  0  0  0
   10.6201    2.9449    4.3498 C   0  0  0  0  0  0  0  0  0  0  0  0
   10.6605    3.2449    2.8509 C   0  0  0  0  0  0  0  0  0  0  0  0
   11.7373    2.4165    2.1542 C   0  0  0  0  0  0  0  0  0  0  0  0
   12.2482    1.4446    2.6760 O   0  0  0  0  0  0  0  0  0  0  0  0
   12.0485    2.8678    0.8863 N   0  0  0  0  0  0  0  0  0  0  0  0
   12.9439    2.3311   -0.0512 C   0  0  0  0  0  0  0  0  0  0  0  0
   13.7075    1.1697    0.1823 C   0  0  0  0  0  0  0  0  0  0  0  0
   14.5688    0.7032   -0.8062 C   0  0  0  0  0  0  0  0  0  0  0  0
   14.7169    1.3717   -2.0315 C   0  0  0  0  0  0  0  0  0  0  0  0
   15.6611    0.7935   -3.0434 C   0  0  0  0  0  0  0  0  0  0  0  0
   16.0691   -0.3372   -2.9972 O   0  0  0  0  0  0  0  0  0  0  0  0
   16.0557    1.6190   -4.0436 O   0  0  0  0  0  0  0  0  0  0  0  0
   13.9429    2.5210   -2.2603 C   0  0  0  0  0  0  0  0  0  0  0  0
   13.0695    2.9951   -1.2867 C   0  0  0  0  0  0  0  0  0  0  0  0
    8.3070    3.0386    5.2553 C   0  0  0  0  0  0  0  0  0  0  0  0
    8.0624    1.9130    4.8792 O   0  0  0  0  0  0  0  0  0  0  0  0
    2.2285   -1.8678    8.1602 C   0  0  0  0  0  0  0  0  0  0  0  0
    3.0892   -3.1169    7.8830 C   0  0  0  0  0  0  0  0  0  0  0  0
    2.6911   -6.9357    7.6339 H   0  0  0  0  0  0  0  0  0  0  0  0
    3.6239   -5.6597    8.2602 H   0  0  0  0  0  0  0  0  0  0  0  0
    1.8250   -3.6873    4.8053 H   0  0  0  0  0  0  0  0  0  0  0  0
    3.2954   -2.7195    5.1036 H   0  0  0  0  0  0  0  0  0  0  0  0
    0.4650   -2.1550    6.1644 H   0  0  0  0  0  0  0  0  0  0  0  0
    1.3654   -1.1708    4.9932 H   0  0  0  0  0  0  0  0  0  0  0  0
    3.1860    0.0242    5.5825 H   0  0  0  0  0  0  0  0  0  0  0  0
    4.0952   -0.4464    7.0176 H   0  0  0  0  0  0  0  0  0  0  0  0
    1.8873    1.6818    6.8674 H   0  0  0  0  0  0  0  0  0  0  0  0
    2.6708    1.1681    8.3866 H   0  0  0  0  0  0  0  0  0  0  0  0
    1.9923    3.4138    8.3924 H   0  0  0  0  0  0  0  0  0  0  0  0
    2.1217    5.7621    9.0736 H   0  0  0  0  0  0  0  0  0  0  0  0
    6.2698    7.5479    8.9919 H   0  0  0  0  0  0  0  0  0  0  0  0
    6.3683    9.9536    9.6450 H   0  0  0  0  0  0  0  0  0  0  0  0
    2.0101    7.9677    8.2969 H   0  0  0  0  0  0  0  0  0  0  0  0
    5.9661    6.1335    7.1994 H   0  0  0  0  0  0  0  0  0  0  0  0
    5.9528    2.4881    6.0412 H   0  0  0  0  0  0  0  0  0  0  0  0
   10.4420    1.8754    4.5113 H   0  0  0  0  0  0  0  0  0  0  0  0
   11.5711    3.2258    4.8212 H   0  0  0  0  0  0  0  0  0  0  0  0
   10.8359    4.3204    2.6840 H   0  0  0  0  0  0  0  0  0  0  0  0
    9.6866    2.9932    2.3945 H   0  0  0  0  0  0  0  0  0  0  0  0
   11.5609    3.7034    0.5833 H   0  0  0  0  0  0  0  0  0  0  0  0
   13.6109    0.6508    1.1326 H   0  0  0  0  0  0  0  0  0  0  0  0
   15.1544   -0.2032   -0.6402 H   0  0  0  0  0  0  0  0  0  0  0  0
   15.7734    2.5262   -3.8642 H   0  0  0  0  0  0  0  0  0  0  0  0
   13.9847    3.0486   -3.2180 H   0  0  0  0  0  0  0  0  0  0  0  0
   12.4683    3.8866   -1.4879 H   0  0  0  0  0  0  0  0  0  0  0  0
    1.2424   -2.2042    8.5273 H   0  0  0  0  0  0  0  0  0  0  0  0
    2.6882   -1.2734    8.9664 H   0  0  0  0  0  0  0  0  0  0  0  0
    3.0639   -3.7599    8.7726 H   0  0  0  0  0  0  0  0  0  0  0  0
    4.1442   -2.8185    7.7113 H   0  0  0  0  0  0  0  0  0  0  0  0
  1  2  1  0
  1 49  1  0
  1 50  1  0
  2  3  2  0
  2  4  1  0
  4  5  1  0
  4 48  1  0
  5  6  1  0
  5 51  1  0
  5 52  1  0
  6  7  1  0
  6 53  1  0
  6 54  1  0
  7  8  1  0
  7 47  1  0
  8  9  1  0
  8 55  1  0
  8 56  1  0
  9 10  1  0
  9 57  1  0
  9 58  1  0
 10 11  1  0
 11 12  2  0
 11 24  1  0
 12 13  1  0
 12 59  1  0
 13 14  2  0
 13 60  1  0
 14 15  1  0
 14 23  1  0
 15 16  2  0
 15 22  1  0
 16 17  1  0
 16 61  1  0
 17 18  2  0
 17 62  1  0
 18 19  1  0
 18 20  1  0
 20 21  1  0
 20 22  2  0
 22 63  1  0
 23 24  2  0
 23 64  1  0
 24 25  1  0
 25 26  2  0
 25 65  1  0
 26 27  1  0
 26 45  1  0
 27 28  1  0
 28 29  2  0
 28 30  1  0
 30 31  1  0
 30 45  1  0
 31 32  1  0
 31 66  1  0
 31 67  1  0
 32 33  1  0
 32 68  1  0
 32 69  1  0
 33 34  2  0
 33 35  1  0
 35 36  1  0
 35 70  1  0
 36 37  2  0
 36 44  1  0
 37 38  1  0
 37 71  1  0
 38 39  2  0
 38 72  1  0
 39 40  1  0
 39 43  1  0
 40 41  2  0
 40 42  1  0
 42 73  1  0
 43 44  2  0
 43 74  1  0
 44 75  1  0
 45 46  2  0
 47 48  1  0
 47 76  1  0
 47 77  1  0
 48 78  1  0
 48 79  1  0
M  END

