
     RDKit          3D

 40 43  0  0  0  0  0  0  0  0999 V2000
    1.1644   -0.2459   -0.0990 C   0  0  0  0  0  0  0  0  0  0  0  0
    2.5520   -0.0622   -0.1901 O   0  0  0  0  0  0  0  0  0  0  0  0
    2.9278    1.2579   -0.4851 C   0  0  0  0  0  0  0  0  0  0  0  0
    4.4357    1.3597   -0.5942 C   0  0  0  0  0  0  0  0  0  0  0  0
    5.1950    0.1628   -0.5928 C   0  0  0  0  0  0  0  0  0  0  0  0
    6.5692    0.1217   -0.6696 C   0  0  0  0  0  0  0  0  0  0  0  0
    7.3034   -1.1663   -0.6079 C   0  0  0  0  0  0  0  0  0  0  0  0
    8.5143   -1.3782   -1.2999 C   0  0  0  0  0  0  0  0  0  0  0  0
    9.1556   -2.6178   -1.2536 C   0  0  0  0  0  0  0  0  0  0  0  0
    8.6178   -3.6723   -0.5107 C   0  0  0  0  0  0  0  0  0  0  0  0
    7.4256   -3.4744    0.1928 C   0  0  0  0  0  0  0  0  0  0  0  0
    6.7800   -2.2387    0.1454 C   0  0  0  0  0  0  0  0  0  0  0  0
    7.2981    1.3804   -0.8162 C   0  0  0  0  0  0  0  0  0  0  0  0
    8.5117    1.4849   -0.9700 O   0  0  0  0  0  0  0  0  0  0  0  0
    6.5000    2.5555   -0.7805 N   0  0  0  0  0  0  0  0  0  0  0  0
    5.1121    2.5709   -0.6864 C   0  0  0  0  0  0  0  0  0  0  0  0
    4.5046    3.9038   -0.6569 C   0  0  0  0  0  0  0  0  0  0  0  0
    2.8203    4.2955   -0.9416 S   0  0  0  0  0  0  0  0  0  0  0  0
    3.1034    5.9743   -0.6699 C   0  0  0  0  0  0  0  0  0  0  0  0
    4.4191    6.2324   -0.3735 C   0  0  0  0  0  0  0  0  0  0  0  0
    5.2211    5.0580   -0.3715 C   0  0  0  0  0  0  0  0  0  0  0  0
    6.6952    4.9438   -0.1201 C   0  0  0  0  0  0  0  0  0  0  0  0
    7.2459    3.8124   -0.9757 C   0  0  0  0  0  0  0  0  0  0  0  0
    0.9818   -1.3053    0.1312 H   0  0  0  0  0  0  0  0  0  0  0  0
    0.6497    0.0042   -1.0489 H   0  0  0  0  0  0  0  0  0  0  0  0
    0.7162    0.3736    0.7041 H   0  0  0  0  0  0  0  0  0  0  0  0
    2.5514    1.9470    0.2999 H   0  0  0  0  0  0  0  0  0  0  0  0
    2.4468    1.5823   -1.4346 H   0  0  0  0  0  0  0  0  0  0  0  0
    4.6332   -0.7679   -0.5278 H   0  0  0  0  0  0  0  0  0  0  0  0
    8.9504   -0.5596   -1.8689 H   0  0  0  0  0  0  0  0  0  0  0  0
   10.0894   -2.7584   -1.8048 H   0  0  0  0  0  0  0  0  0  0  0  0
    9.1273   -4.6388   -0.4727 H   0  0  0  0  0  0  0  0  0  0  0  0
    7.0000   -4.2839    0.7918 H   0  0  0  0  0  0  0  0  0  0  0  0
    5.8645   -2.0953    0.7238 H   0  0  0  0  0  0  0  0  0  0  0  0
    2.2776    6.6803   -0.7467 H   0  0  0  0  0  0  0  0  0  0  0  0
    4.8064    7.2320   -0.1686 H   0  0  0  0  0  0  0  0  0  0  0  0
    6.8949    4.7466    0.9495 H   0  0  0  0  0  0  0  0  0  0  0  0
    7.2159    5.8804   -0.3735 H   0  0  0  0  0  0  0  0  0  0  0  0
    8.2922    3.5835   -0.7483 H   0  0  0  0  0  0  0  0  0  0  0  0
    7.1932    4.0897   -2.0442 H   0  0  0  0  0  0  0  0  0  0  0  0
  1  2  1  0
  1 24  1  0
  1 25  1  0
  1 26  1  0
  2  3  1  0
  3  4  1  0
  3 27  1  0
  3 28  1  0
  4  5  1  0
  4 16  2  0
  5  6  2  0
  5 29  1  0
  6  7  1  0
  6 13  1  0
  7  8  2  0
  7 12  1  0
  8  9  1  0
  8 30  1  0
  9 10  2  0
  9 31  1  0
 10 11  1  0
 10 32  1  0
 11 12  2  0
 11 33  1  0
 12 34  1  0
 13 14  2  0
 13 15  1  0
 15 16  1  0
 15 23  1  0
 16 17  1  0
 17 18  1  0
 17 21  2  0
 18 19  1  0
 19 20  2  0
 19 35  1  0
 20 21  1  0
 20 36  1  0
 21 22  1  0
 22 23  1  0
 22 37  1  0
 22 38  1  0
 23 39  1  0
 23 40  1  0
M  END

