
     RDKit          3D

 35 37  0  0  0  0  0  0  0  0999 V2000
    1.0542   -1.3783   -1.4804 O   0  0  0  0  0  0  0  0  0  0  0  0
    2.0027   -0.7099   -1.1730 C   0  0  0  0  0  0  0  0  0  0  0  0
    2.2139    1.0254   -1.6419 S   0  0  0  0  0  0  0  0  0  0  0  0
    3.7921    1.1067   -0.8500 C   0  0  0  0  0  0  0  0  0  0  0  0
    4.6646    2.1371   -0.7455 C   0  0  0  0  0  0  0  0  0  0  0  0
    4.6091    3.5108   -1.2339 C   0  0  0  0  0  0  0  0  0  0  0  0
    3.5312    4.0519   -1.9713 C   0  0  0  0  0  0  0  0  0  0  0  0
    3.5736    5.3784   -2.3939 C   0  0  0  0  0  0  0  0  0  0  0  0
    4.6710    6.1936   -2.1007 C   0  0  0  0  0  0  0  0  0  0  0  0
    5.7478    5.6711   -1.3698 C   0  0  0  0  0  0  0  0  0  0  0  0
    6.8435    6.4041   -1.0497 O   0  0  0  0  0  0  0  0  0  0  0  0
    5.7107    4.3395   -0.9429 C   0  0  0  0  0  0  0  0  0  0  0  0
    4.1354   -0.2123   -0.2332 C   0  0  0  0  0  0  0  0  0  0  0  0
    5.1565   -0.4794    0.3613 O   0  0  0  0  0  0  0  0  0  0  0  0
    3.1018   -1.1300   -0.4333 N   0  0  0  0  0  0  0  0  0  0  0  0
    3.1828   -2.4981    0.0840 C   0  0  0  0  0  0  0  0  0  0  0  0
    3.2020   -2.5729    1.5962 C   0  0  0  0  0  0  0  0  0  0  0  0
    2.1352   -2.0462    2.3382 C   0  0  0  0  0  0  0  0  0  0  0  0
    1.1211   -1.4803    1.6636 F   0  0  0  0  0  0  0  0  0  0  0  0
    2.0735   -2.0776    3.7265 C   0  0  0  0  0  0  0  0  0  0  0  0
    3.1261   -2.6726    4.4244 C   0  0  0  0  0  0  0  0  0  0  0  0
    4.2077   -3.2221    3.7356 C   0  0  0  0  0  0  0  0  0  0  0  0
    4.2382   -3.1689    2.3376 C   0  0  0  0  0  0  0  0  0  0  0  0
    5.6103   -3.8911    1.5275 Cl  0  0  0  0  0  0  0  0  0  0  0  0
    5.5704    1.8698   -0.1903 H   0  0  0  0  0  0  0  0  0  0  0  0
    2.6602    3.4455   -2.2172 H   0  0  0  0  0  0  0  0  0  0  0  0
    2.7375    5.7911   -2.9637 H   0  0  0  0  0  0  0  0  0  0  0  0
    4.6926    7.2345   -2.4386 H   0  0  0  0  0  0  0  0  0  0  0  0
    6.7504    7.2999   -1.3995 H   0  0  0  0  0  0  0  0  0  0  0  0
    6.5598    3.9533   -0.3753 H   0  0  0  0  0  0  0  0  0  0  0  0
    4.0880   -2.9723   -0.3145 H   0  0  0  0  0  0  0  0  0  0  0  0
    2.3023   -3.0191   -0.3179 H   0  0  0  0  0  0  0  0  0  0  0  0
    1.2094   -1.6431    4.2316 H   0  0  0  0  0  0  0  0  0  0  0  0
    3.1032   -2.7110    5.5159 H   0  0  0  0  0  0  0  0  0  0  0  0
    5.0340   -3.6924    4.2693 H   0  0  0  0  0  0  0  0  0  0  0  0
  1  2  2  0
  2  3  1  0
  2 15  1  0
  3  4  1  0
  4  5  2  0
  4 13  1  0
  5  6  1  0
  5 25  1  0
  6  7  2  0
  6 12  1  0
  7  8  1  0
  7 26  1  0
  8  9  2  0
  8 27  1  0
  9 10  1  0
  9 28  1  0
 10 11  1  0
 10 12  2  0
 11 29  1  0
 12 30  1  0
 13 14  2  0
 13 15  1  0
 15 16  1  0
 16 17  1  0
 16 31  1  0
 16 32  1  0
 17 18  2  0
 17 23  1  0
 18 19  1  0
 18 20  1  0
 20 21  2  0
 20 33  1  0
 21 22  1  0
 21 34  1  0
 22 23  2  0
 22 35  1  0
 23 24  1  0
M  END

