
     RDKit          3D

 38 39  0  0  0  0  0  0  0  0999 V2000
    7.5275    0.9442    1.3615 C   0  0  0  0  0  0  0  0  0  0  0  0
    6.3949    0.6367    0.4266 C   0  0  0  0  0  0  0  0  0  0  0  0
    5.8826   -0.5790    0.2031 C   0  0  0  0  0  0  0  0  0  0  0  0
    4.7370   -0.8716   -0.7368 C   0  0  0  0  0  0  0  0  0  0  0  0
    5.1059   -1.8139   -1.8605 C   0  0  0  0  0  0  0  0  0  0  0  0
    5.2657   -1.4121   -3.1472 C   0  0  0  0  0  0  0  0  0  0  0  0
    5.6205   -2.2611   -4.1760 N   0  0  0  0  0  0  0  0  0  0  0  0
    5.7806   -1.8025   -5.5661 C   0  0  1  0  0  0  0  0  0  0  0  0
    6.7454   -2.1987   -5.9255 H   0  0  0  0  0  0  0  0  0  0  0  0
    4.6586   -2.2131   -6.5235 C   0  0  0  0  0  0  0  0  0  0  0  0
    4.8308   -1.1808   -7.6415 C   0  0  2  0  0  0  0  0  0  0  0  0
    3.8789   -0.9796   -8.1648 H   0  0  0  0  0  0  0  0  0  0  0  0
    5.8578   -1.5349   -8.5517 O   0  0  0  0  0  0  0  0  0  0  0  0
    5.3195    0.0699   -6.8776 C   0  0  1  0  0  0  0  0  0  0  0  0
    6.1784    0.4907   -7.4284 H   0  0  0  0  0  0  0  0  0  0  0  0
    4.2664    1.1484   -6.6652 C   0  0  0  0  0  0  0  0  0  0  0  0
    3.0935    0.6577   -6.0533 O   0  0  0  0  0  0  0  0  0  0  0  0
    5.7668   -0.3938   -5.5877 O   0  0  0  0  0  0  0  0  0  0  0  0
    5.8666   -3.6172   -3.9567 C   0  0  0  0  0  0  0  0  0  0  0  0
    6.1865   -4.3794   -4.8492 O   0  0  0  0  0  0  0  0  0  0  0  0
    5.7041   -4.0084   -2.6415 N   0  0  0  0  0  0  0  0  0  0  0  0
    5.8747   -4.9941   -2.4568 H   0  0  0  0  0  0  0  0  0  0  0  0
    5.3321   -3.2251   -1.5355 C   0  0  0  0  0  0  0  0  0  0  0  0
    5.2270   -3.7258   -0.4303 O   0  0  0  0  0  0  0  0  0  0  0  0
    8.3685    1.4224    0.8285 H   0  0  0  0  0  0  0  0  0  0  0  0
    7.9078    0.0353    1.8526 H   0  0  0  0  0  0  0  0  0  0  0  0
    7.2161    1.6531    2.1493 H   0  0  0  0  0  0  0  0  0  0  0  0
    5.9610    1.4956   -0.1054 H   0  0  0  0  0  0  0  0  0  0  0  0
    6.2977   -1.4498    0.7248 H   0  0  0  0  0  0  0  0  0  0  0  0
    4.3485    0.0694   -1.1580 H   0  0  0  0  0  0  0  0  0  0  0  0
    3.9174   -1.3393   -0.1620 H   0  0  0  0  0  0  0  0  0  0  0  0
    5.1441   -0.3726   -3.4496 H   0  0  0  0  0  0  0  0  0  0  0  0
    3.6849   -2.0725   -6.0299 H   0  0  0  0  0  0  0  0  0  0  0  0
    4.7504   -3.2537   -6.8623 H   0  0  0  0  0  0  0  0  0  0  0  0
    5.5958   -2.3443   -9.0102 H   0  0  0  0  0  0  0  0  0  0  0  0
    4.7180    1.9778   -6.0867 H   0  0  0  0  0  0  0  0  0  0  0  0
    3.9732    1.5560   -7.6461 H   0  0  0  0  0  0  0  0  0  0  0  0
    3.3223    0.4005   -5.1504 H   0  0  0  0  0  0  0  0  0  0  0  0
  1  2  1  0
  1 25  1  0
  1 26  1  0
  1 27  1  0
  2  3  2  0
  2 28  1  0
  3  4  1  0
  3 29  1  0
  4  5  1  0
  4 30  1  0
  4 31  1  0
  5  6  2  0
  5 23  1  0
  6  7  1  0
  6 32  1  0
  7  8  1  0
  7 19  1  0
  8  9  1  6
  8 10  1  0
  8 18  1  0
 10 11  1  0
 10 33  1  0
 10 34  1  0
 11 12  1  6
 11 13  1  0
 11 14  1  0
 13 35  1  0
 14 15  1  6
 14 16  1  0
 14 18  1  0
 16 17  1  0
 16 36  1  0
 16 37  1  0
 17 38  1  0
 19 20  2  0
 19 21  1  0
 21 22  1  0
 21 23  1  0
 23 24  2  0
M  END

