
     RDKit          3D

 30 30  0  0  0  0  0  0  0  0999 V2000
    4.0322    1.0875   -0.1968 C   0  0  0  0  0  0  0  0  0  0  0  0
    2.7625    0.2526   -0.0184 C   0  0  0  0  0  0  0  0  0  0  0  0
    2.7571   -0.9796   -0.7850 N   0  0  0  0  0  0  0  0  0  0  0  0
    2.6473   -1.0159   -2.2359 C   0  0  0  0  0  0  0  0  0  0  0  0
    2.2859   -2.4828   -2.5384 C   0  0  2  0  0  0  0  0  0  0  0  0
    0.7587   -2.6544   -2.6753 C   0  0  0  0  0  0  0  0  0  0  0  0
   -0.0135   -1.7127   -2.7032 O   0  0  0  0  0  0  0  0  0  0  0  0
    0.3371   -3.9549   -2.7734 N   0  0  0  0  0  0  0  0  0  0  0  0
   -1.0465   -4.3220   -2.9982 C   0  0  0  0  0  0  0  0  0  0  0  0
   -1.7106   -5.1377   -1.8792 C   0  0  0  0  0  0  0  0  0  0  0  0
   -1.1897   -4.9648   -0.6328 N   0  0  0  0  0  0  0  0  0  0  0  0
   -2.6493   -5.8704   -2.1230 O   0  0  0  0  0  0  0  0  0  0  0  0
    2.8823   -3.2459   -1.3368 C   0  0  0  0  0  0  0  0  0  0  0  0
    2.8910   -2.2126   -0.2052 C   0  0  0  0  0  0  0  0  0  0  0  0
    3.0055   -2.4450    0.9826 O   0  0  0  0  0  0  0  0  0  0  0  0
    3.9765    1.9990    0.4193 H   0  0  0  0  0  0  0  0  0  0  0  0
    4.1733    1.4039   -1.2431 H   0  0  0  0  0  0  0  0  0  0  0  0
    4.9236    0.5203    0.1144 H   0  0  0  0  0  0  0  0  0  0  0  0
    1.8737    0.8462   -0.2985 H   0  0  0  0  0  0  0  0  0  0  0  0
    2.6479   -0.0449    1.0345 H   0  0  0  0  0  0  0  0  0  0  0  0
    3.5982   -0.7328   -2.7250 H   0  0  0  0  0  0  0  0  0  0  0  0
    1.8547   -0.3382   -2.5859 H   0  0  0  0  0  0  0  0  0  0  0  0
    2.7314   -2.8101   -3.4922 H   0  0  0  0  0  0  0  0  0  0  0  0
    1.0343   -4.6897   -2.8045 H   0  0  0  0  0  0  0  0  0  0  0  0
   -1.1689   -4.9060   -3.9235 H   0  0  0  0  0  0  0  0  0  0  0  0
   -1.6117   -3.3842   -3.1168 H   0  0  0  0  0  0  0  0  0  0  0  0
   -0.4848   -4.2652   -0.4412 H   0  0  0  0  0  0  0  0  0  0  0  0
   -1.6602   -5.4124    0.1453 H   0  0  0  0  0  0  0  0  0  0  0  0
    3.9237   -3.5555   -1.5272 H   0  0  0  0  0  0  0  0  0  0  0  0
    2.3309   -4.1423   -1.0209 H   0  0  0  0  0  0  0  0  0  0  0  0
  1  2  1  0
  1 16  1  0
  1 17  1  0
  1 18  1  0
  2  3  1  0
  2 19  1  0
  2 20  1  0
  3  4  1  0
  3 14  1  0
  4  5  1  0
  4 21  1  0
  4 22  1  0
  5  6  1  0
  5 13  1  0
  5 23  1  6
  6  7  2  0
  6  8  1  0
  8  9  1  0
  8 24  1  0
  9 10  1  0
  9 25  1  0
  9 26  1  0
 10 11  1  0
 10 12  2  0
 11 27  1  0
 11 28  1  0
 13 14  1  0
 13 29  1  0
 13 30  1  0
 14 15  2  0
M  END

