
     RDKit          3D

  8  7  0  0  0  0  0  0  0  0999 V2000
    2.8966    0.3895    0.9843 O   0  0  0  0  0  0  0  0  0  0  0  0
    2.3633   -0.0858    0.0438 C   0  0  0  0  0  0  0  0  0  0  0  0
    0.6266   -0.1989   -0.1771 Cl  0  0  0  0  0  0  0  0  0  0  0  0
    3.0143   -0.6877   -1.1442 N   0  0  0  0  0  0  0  0  0  0  0  0
    4.2449   -0.6366   -1.0435 N   0  0  0  0  0  0  0  0  0  0  0  0
    4.8958   -1.2382   -2.2316 C   0  0  0  0  0  0  0  0  0  0  0  0
    4.3626   -1.7139   -3.1718 O   0  0  0  0  0  0  0  0  0  0  0  0
    6.6326   -1.1265   -2.0100 Cl  0  0  0  0  0  0  0  0  0  0  0  0
  1  2  2  0
  2  3  1  0
  2  4  1  0
  4  5  2  0
  5  6  1  0
  6  7  2  0
  6  8  1  0
M  END

