
     RDKit          3D

 64 72  0  0  0  0  0  0  0  0999 V2000
    0.2762    0.5583    1.2663 C   0  0  0  0  0  0  0  0  0  0  0  0
   -0.4973   -0.5573    1.3568 C   0  0  0  0  0  0  0  0  0  0  0  0
    0.1892   -1.6389    0.8526 O   0  0  0  0  0  0  0  0  0  0  0  0
    1.3939   -1.1871    0.4495 C   0  0  0  0  0  0  0  0  0  0  0  0
    2.2209   -2.1206   -0.1515 N   0  0  0  0  0  0  0  0  0  0  0  0
    3.5359   -1.6433   -0.3204 O   0  0  0  0  0  0  0  0  0  0  0  0
    4.0448   -2.5524   -1.3156 C   0  0  2  0  0  0  0  0  0  0  0  0
    3.6162   -2.2034   -2.7037 C   0  0  0  0  0  0  0  0  0  0  0  0
    4.4642   -1.6953   -3.5861 N   0  0  0  0  0  0  0  0  0  0  0  0
    3.7262   -1.4656   -4.7115 C   0  0  0  0  0  0  0  0  0  0  0  0
    2.4116   -1.8420   -4.5030 C   0  0  0  0  0  0  0  0  0  0  0  0
    2.3570   -2.3056   -3.2169 N   0  0  0  0  0  0  0  0  0  0  0  0
    1.5479   -2.7263   -2.7282 H   0  0  0  0  0  0  0  0  0  0  0  0
    3.6565   -3.9507   -0.6785 C   0  0  2  0  0  0  0  0  0  0  0  0
    4.7717   -4.3381    0.2750 C   0  0  0  0  0  0  0  0  0  0  0  0
    5.3683   -5.5597    0.4951 C   0  0  0  0  0  0  0  0  0  0  0  0
    6.3899   -5.3668    1.4856 C   0  0  0  0  0  0  0  0  0  0  0  0
    7.3221   -6.2143    2.1160 C   0  0  0  0  0  0  0  0  0  0  0  0
    8.1885   -5.6790    3.0636 C   0  0  0  0  0  0  0  0  0  0  0  0
    8.1466   -4.3068    3.3975 C   0  0  0  0  0  0  0  0  0  0  0  0
    7.2386   -3.4428    2.7907 C   0  0  0  0  0  0  0  0  0  0  0  0
    6.3664   -3.9851    1.8364 C   0  0  0  0  0  0  0  0  0  0  0  0
    5.3827   -3.3875    1.0809 N   0  0  0  0  0  0  0  0  0  0  0  0
    5.0868   -2.4205    1.1392 H   0  0  0  0  0  0  0  0  0  0  0  0
    3.4740   -5.0820   -1.6691 C   0  0  0  0  0  0  0  0  0  0  0  0
    2.6593   -6.0793   -1.4863 N   0  0  0  0  0  0  0  0  0  0  0  0
    2.7742   -7.0237   -2.4703 C   0  0  0  0  0  0  0  0  0  0  0  0
    3.7134   -6.7567   -3.4314 C   0  0  0  0  0  0  0  0  0  0  0  0
    4.4793   -5.2450   -3.1028 S   0  0  0  0  0  0  0  0  0  0  0  0
    2.2656   -3.5620    0.1396 C   0  0  1  0  0  0  0  0  0  0  0  0
    2.3728   -3.9043    1.6321 C   0  0  0  0  0  0  0  0  0  0  0  0
    2.4810   -2.9488    2.6971 C   0  0  0  0  0  0  0  0  0  0  0  0
    2.5837   -3.5932    3.9041 C   0  0  0  0  0  0  0  0  0  0  0  0
    2.5462   -5.2922    3.6411 S   0  0  0  0  0  0  0  0  0  0  0  0
    2.3971   -5.1702    1.9900 N   0  0  0  0  0  0  0  0  0  0  0  0
    0.9986   -4.1440   -0.4720 C   0  0  0  0  0  0  0  0  0  0  0  0
    0.4932   -3.8086   -1.6208 N   0  0  0  0  0  0  0  0  0  0  0  0
   -0.6700   -4.5581   -1.7368 C   0  0  0  0  0  0  0  0  0  0  0  0
   -1.6375   -4.6483   -2.7459 C   0  0  0  0  0  0  0  0  0  0  0  0
   -2.7069   -5.5183   -2.5278 C   0  0  0  0  0  0  0  0  0  0  0  0
   -2.8167   -6.2764   -1.3431 C   0  0  0  0  0  0  0  0  0  0  0  0
   -1.8589   -6.1941   -0.3282 C   0  0  0  0  0  0  0  0  0  0  0  0
   -0.8018   -5.3235   -0.5674 C   0  0  0  0  0  0  0  0  0  0  0  0
    0.2643   -5.0323    0.2311 O   0  0  0  0  0  0  0  0  0  0  0  0
    1.5272    0.1586    0.6747 C   0  0  0  0  0  0  0  0  0  0  0  0
   -0.0021    1.5612    1.5844 H   0  0  0  0  0  0  0  0  0  0  0  0
   -1.4954   -0.7656    1.7284 H   0  0  0  0  0  0  0  0  0  0  0  0
    5.1320   -2.4184   -1.3101 H   0  0  0  0  0  0  0  0  0  0  0  0
    4.1669   -1.0439   -5.6142 H   0  0  0  0  0  0  0  0  0  0  0  0
    1.5359   -1.8154   -5.1475 H   0  0  0  0  0  0  0  0  0  0  0  0
    5.0941   -6.4938    0.0137 H   0  0  0  0  0  0  0  0  0  0  0  0
    7.3612   -7.2771    1.8636 H   0  0  0  0  0  0  0  0  0  0  0  0
    8.9154   -6.3268    3.5601 H   0  0  0  0  0  0  0  0  0  0  0  0
    8.8411   -3.9155    4.1453 H   0  0  0  0  0  0  0  0  0  0  0  0
    7.2092   -2.3811    3.0481 H   0  0  0  0  0  0  0  0  0  0  0  0
    2.1368   -7.9090   -2.4458 H   0  0  0  0  0  0  0  0  0  0  0  0
    3.9774   -7.3469   -4.3073 H   0  0  0  0  0  0  0  0  0  0  0  0
    2.4839   -1.8667    2.5798 H   0  0  0  0  0  0  0  0  0  0  0  0
    2.6794   -3.1511    4.8956 H   0  0  0  0  0  0  0  0  0  0  0  0
   -1.5540   -4.0610   -3.6621 H   0  0  0  0  0  0  0  0  0  0  0  0
   -3.4812   -5.6172   -3.2924 H   0  0  0  0  0  0  0  0  0  0  0  0
   -3.6715   -6.9450   -1.2162 H   0  0  0  0  0  0  0  0  0  0  0  0
   -1.9297   -6.7747    0.5927 H   0  0  0  0  0  0  0  0  0  0  0  0
    2.3908    0.7704    0.4351 H   0  0  0  0  0  0  0  0  0  0  0  0
  1  2  2  0
  1 45  1  0
  1 46  1  0
  2  3  1  0
  2 47  1  0
  3  4  1  0
  4  5  1  0
  4 45  2  0
  5  6  1  0
  5 30  1  0
  6  7  1  0
  7  8  1  0
  7 14  1  0
  7 48  1  6
  8  9  2  0
  8 12  1  0
  9 10  1  0
 10 11  2  0
 10 49  1  0
 11 12  1  0
 11 50  1  0
 12 13  1  0
 14 15  1  1
 14 25  1  0
 14 30  1  0
 15 16  2  0
 15 23  1  0
 16 17  1  0
 16 51  1  0
 17 18  2  0
 17 22  1  0
 18 19  1  0
 18 52  1  0
 19 20  2  0
 19 53  1  0
 20 21  1  0
 20 54  1  0
 21 22  2  0
 21 55  1  0
 22 23  1  0
 23 24  1  0
 25 26  2  0
 25 29  1  0
 26 27  1  0
 27 28  2  0
 27 56  1  0
 28 29  1  0
 28 57  1  0
 30 31  1  1
 30 36  1  0
 31 32  1  0
 31 35  2  0
 32 33  2  0
 32 58  1  0
 33 34  1  0
 33 59  1  0
 34 35  1  0
 36 37  2  0
 36 44  1  0
 37 38  1  0
 38 39  2  0
 38 43  1  0
 39 40  1  0
 39 60  1  0
 40 41  2  0
 40 61  1  0
 41 42  1  0
 41 62  1  0
 42 43  2  0
 42 63  1  0
 43 44  1  0
 45 64  1  0
M  END

