
     RDKit          3D

 29 30  0  0  0  0  0  0  0  0999 V2000
    2.5140    0.3341   -1.0341 C   0  0  0  0  0  0  0  0  0  0  0  0
    2.0958    0.1025    0.3120 O   0  0  0  0  0  0  0  0  0  0  0  0
    2.9533    0.4789    1.3083 C   0  0  0  0  0  0  0  0  0  0  0  0
    3.0039    1.7964    1.7934 C   0  0  0  0  0  0  0  0  0  0  0  0
    1.7102    3.2844    1.0065 I   0  0  0  0  0  0  0  0  0  0  0  0
    3.8668    2.1457    2.8370 C   0  0  0  0  0  0  0  0  0  0  0  0
    4.6748    1.1597    3.4038 C   0  0  0  0  0  0  0  0  0  0  0  0
    5.8642    1.6245    4.8154 Br  0  0  0  0  0  0  0  0  0  0  0  0
    4.6160   -0.1638    2.9598 C   0  0  0  0  0  0  0  0  0  0  0  0
    3.7510   -0.5142    1.9192 C   0  0  0  0  0  0  0  0  0  0  0  0
    3.6318   -1.9609    1.4220 C   0  0  1  0  0  0  0  0  0  0  0  0
    4.6527   -2.8560    1.9297 N   0  0  0  0  0  0  0  0  0  0  0  0
    4.5977   -3.4921    3.1447 C   0  0  0  0  0  0  0  0  0  0  0  0
    5.5351   -4.0563    3.6625 O   0  0  0  0  0  0  0  0  0  0  0  0
    3.3383   -3.4347    3.7717 N   0  0  0  0  0  0  0  0  0  0  0  0
    2.1474   -2.9755    3.2462 C   0  0  0  0  0  0  0  0  0  0  0  0
    1.1223   -2.9201    3.8780 O   0  0  0  0  0  0  0  0  0  0  0  0
    2.2424   -2.5742    1.7592 C   0  0  2  0  0  0  0  0  0  0  0  0
    1.9669   -3.7437    0.9160 C   0  0  0  0  0  0  0  0  0  0  0  0
    1.7609   -4.6594    0.2370 N   0  0  0  0  0  0  0  0  0  0  0  0
    1.7149   -0.0524   -1.6802 H   0  0  0  0  0  0  0  0  0  0  0  0
    3.4544   -0.1992   -1.2587 H   0  0  0  0  0  0  0  0  0  0  0  0
    2.6531    1.4082   -1.2342 H   0  0  0  0  0  0  0  0  0  0  0  0
    3.9031    3.1698    3.2081 H   0  0  0  0  0  0  0  0  0  0  0  0
    5.2552   -0.9150    3.4230 H   0  0  0  0  0  0  0  0  0  0  0  0
    3.7169   -1.9517    0.3264 H   0  0  0  0  0  0  0  0  0  0  0  0
    5.5680   -2.8709    1.4940 H   0  0  0  0  0  0  0  0  0  0  0  0
    3.3113   -3.8099    4.7173 H   0  0  0  0  0  0  0  0  0  0  0  0
    1.4532   -1.8330    1.5754 H   0  0  0  0  0  0  0  0  0  0  0  0
  1  2  1  0
  1 21  1  0
  1 22  1  0
  1 23  1  0
  2  3  1  0
  3  4  2  0
  3 10  1  0
  4  5  1  0
  4  6  1  0
  6  7  2  0
  6 24  1  0
  7  8  1  0
  7  9  1  0
  9 10  2  0
  9 25  1  0
 10 11  1  0
 11 12  1  0
 11 18  1  0
 11 26  1  6
 12 13  1  0
 12 27  1  0
 13 14  2  0
 13 15  1  0
 15 16  1  0
 15 28  1  0
 16 17  2  0
 16 18  1  0
 18 19  1  0
 18 29  1  6
 19 20  3  0
M  END

