
     RDKit          3D

 51 54  0  0  0  0  0  0  0  0999 V2000
    7.3945    1.5161    1.9275 C   0  0  0  0  0  0  0  0  0  0  0  0
    6.7725    0.6252    1.0294 O   0  0  0  0  0  0  0  0  0  0  0  0
    6.0603    1.1266   -0.0020 C   0  0  0  0  0  0  0  0  0  0  0  0
    5.8839    2.4793   -0.2608 C   0  0  0  0  0  0  0  0  0  0  0  0
    5.1188    2.9124   -1.3695 C   0  0  0  0  0  0  0  0  0  0  0  0
    4.9727    4.2716   -1.5895 N   0  0  0  0  0  0  0  0  0  0  0  0
    4.2623    4.6353   -2.6105 C   0  0  0  0  0  0  0  0  0  0  0  0
    4.0708    6.1092   -2.8617 C   0  0  0  0  0  0  0  0  0  0  0  0
    4.9812    6.7764   -4.3268 S   0  0  0  0  0  0  0  0  0  0  0  0
    3.7893    6.4775   -5.5908 C   0  0  0  0  0  0  0  0  0  0  0  0
    2.8115    5.6012   -5.5572 N   0  0  0  0  0  0  0  0  0  0  0  0
    2.1132    5.7020   -6.7315 N   0  0  0  0  0  0  0  0  0  0  0  0
    2.6875    6.6248   -7.4610 C   0  0  0  0  0  0  0  0  0  0  0  0
    2.2533    7.0494   -8.8212 C   0  0  0  0  0  0  0  0  0  0  0  0
    3.7652    7.1637   -6.7790 N   0  0  0  0  0  0  0  0  0  0  0  0
    4.6615    8.2298   -7.2203 C   0  0  0  0  0  0  0  0  0  0  0  0
    5.7371    7.7842   -8.1959 C   0  0  0  0  0  0  0  0  0  0  0  0
    5.9017    8.4542   -9.4160 C   0  0  0  0  0  0  0  0  0  0  0  0
    6.9068    8.0718  -10.3105 C   0  0  0  0  0  0  0  0  0  0  0  0
    7.7552    7.0084   -9.9948 C   0  0  0  0  0  0  0  0  0  0  0  0
    7.5968    6.3322   -8.7800 C   0  0  0  0  0  0  0  0  0  0  0  0
    6.5969    6.7183   -7.8854 C   0  0  0  0  0  0  0  0  0  0  0  0
    3.6517    3.7678   -3.4755 N   0  0  0  0  0  0  0  0  0  0  0  0
    3.1290    4.1634   -4.2767 H   0  0  0  0  0  0  0  0  0  0  0  0
    3.7360    2.3744   -3.3679 C   0  0  0  0  0  0  0  0  0  0  0  0
    3.1871    1.6391   -4.1710 O   0  0  0  0  0  0  0  0  0  0  0  0
    4.5338    1.9441   -2.2115 C   0  0  0  0  0  0  0  0  0  0  0  0
    4.7116    0.5701   -1.9517 C   0  0  0  0  0  0  0  0  0  0  0  0
    5.4618    0.1478   -0.8650 C   0  0  0  0  0  0  0  0  0  0  0  0
    5.6920   -1.1413   -0.5276 O   0  0  0  0  0  0  0  0  0  0  0  0
    5.1334   -2.1578   -1.3292 C   0  0  0  0  0  0  0  0  0  0  0  0
    7.9099    0.8972    2.6741 H   0  0  0  0  0  0  0  0  0  0  0  0
    6.6587    2.1613    2.4402 H   0  0  0  0  0  0  0  0  0  0  0  0
    8.1351    2.1595    1.4193 H   0  0  0  0  0  0  0  0  0  0  0  0
    6.3236    3.2479    0.3728 H   0  0  0  0  0  0  0  0  0  0  0  0
    4.4896    6.6482   -2.0037 H   0  0  0  0  0  0  0  0  0  0  0  0
    3.0111    6.3708   -2.9933 H   0  0  0  0  0  0  0  0  0  0  0  0
    1.3850    6.4419   -9.1068 H   0  0  0  0  0  0  0  0  0  0  0  0
    3.0509    6.9047   -9.5673 H   0  0  0  0  0  0  0  0  0  0  0  0
    1.9577    8.1119   -8.8452 H   0  0  0  0  0  0  0  0  0  0  0  0
    5.1156    8.6556   -6.3109 H   0  0  0  0  0  0  0  0  0  0  0  0
    4.0519    9.0260   -7.6726 H   0  0  0  0  0  0  0  0  0  0  0  0
    5.2382    9.2858   -9.6713 H   0  0  0  0  0  0  0  0  0  0  0  0
    7.0220    8.6044  -11.2579 H   0  0  0  0  0  0  0  0  0  0  0  0
    8.5388    6.7047  -10.6934 H   0  0  0  0  0  0  0  0  0  0  0  0
    8.2576    5.4998   -8.5259 H   0  0  0  0  0  0  0  0  0  0  0  0
    6.4881    6.1850   -6.9370 H   0  0  0  0  0  0  0  0  0  0  0  0
    4.2366   -0.1319   -2.6365 H   0  0  0  0  0  0  0  0  0  0  0  0
    5.4398   -3.1126   -0.8814 H   0  0  0  0  0  0  0  0  0  0  0  0
    5.5049   -2.1109   -2.3688 H   0  0  0  0  0  0  0  0  0  0  0  0
    4.0299   -2.1053   -1.3478 H   0  0  0  0  0  0  0  0  0  0  0  0
  1  2  1  0
  1 32  1  0
  1 33  1  0
  1 34  1  0
  2  3  1  0
  3  4  2  0
  3 29  1  0
  4  5  1  0
  4 35  1  0
  5  6  1  0
  5 27  2  0
  6  7  2  0
  7  8  1  0
  7 23  1  0
  8  9  1  0
  8 36  1  0
  8 37  1  0
  9 10  1  0
 10 11  2  0
 10 15  1  0
 11 12  1  0
 12 13  2  0
 13 14  1  0
 13 15  1  0
 14 38  1  0
 14 39  1  0
 14 40  1  0
 15 16  1  0
 16 17  1  0
 16 41  1  0
 16 42  1  0
 17 18  2  0
 17 22  1  0
 18 19  1  0
 18 43  1  0
 19 20  2  0
 19 44  1  0
 20 21  1  0
 20 45  1  0
 21 22  2  0
 21 46  1  0
 22 47  1  0
 23 24  1  0
 23 25  1  0
 25 26  2  0
 25 27  1  0
 27 28  1  0
 28 29  2  0
 28 48  1  0
 29 30  1  0
 30 31  1  0
 31 49  1  0
 31 50  1  0
 31 51  1  0
M  END

