
     RDKit          3D

 55 57  0  0  0  0  0  0  0  0999 V2000
    3.8330   -0.1765   -2.6541 C   0  0  0  0  0  0  0  0  0  0  0  0
    4.8613    0.9062   -2.9373 C   0  0  0  0  0  0  0  0  0  0  0  0
    4.6767    2.0748   -2.1156 O   0  0  0  0  0  0  0  0  0  0  0  0
    5.1800    2.0317   -0.8665 C   0  0  0  0  0  0  0  0  0  0  0  0
    5.7849    1.0565   -0.4518 O   0  0  0  0  0  0  0  0  0  0  0  0
    5.0403    3.2655   -0.0694 C   0  0  0  0  0  0  0  0  0  0  0  0
    4.2333    4.3409   -0.3258 C   0  0  0  0  0  0  0  0  0  0  0  0
    3.1341    4.3249   -1.3825 C   0  0  0  0  0  0  0  0  0  0  0  0
    2.1407    3.2889   -1.1284 N   0  0  0  0  0  0  0  0  0  0  0  0
    1.2975    3.4739    0.0551 C   0  0  0  0  0  0  0  0  0  0  0  0
    0.1028    4.4147   -0.1983 C   0  0  0  0  0  0  0  0  0  0  0  0
   -0.6927    4.0319   -1.3624 N   0  0  0  0  0  0  0  0  0  0  0  0
   -1.6602    2.9753   -1.1305 C   0  0  0  0  0  0  0  0  0  0  0  0
    0.1530    3.8548   -2.5411 C   0  0  0  0  0  0  0  0  0  0  0  0
    1.3385    2.9040   -2.2889 C   0  0  0  0  0  0  0  0  0  0  0  0
    4.4055    5.5149    0.4127 N   0  0  0  0  0  0  0  0  0  0  0  0
    3.4715    6.6403    0.3534 C   0  0  0  0  0  0  0  0  0  0  0  0
    5.6132    5.7773    1.1098 C   0  0  0  0  0  0  0  0  0  0  0  0
    5.8858    6.8883    1.5289 O   0  0  0  0  0  0  0  0  0  0  0  0
    6.4319    4.6964    1.2497 N   0  0  0  0  0  0  0  0  0  0  0  0
    5.9467    3.3317    1.1545 C   0  0  1  0  0  0  0  0  0  0  0  0
    6.8072    2.6757    0.9643 H   0  0  0  0  0  0  0  0  0  0  0  0
    5.2669    2.8331    2.4437 C   0  0  0  0  0  0  0  0  0  0  0  0
    4.9611    3.6920    3.5083 C   0  0  0  0  0  0  0  0  0  0  0  0
    4.3358    3.2069    4.6597 C   0  0  0  0  0  0  0  0  0  0  0  0
    4.0092    1.8543    4.7741 C   0  0  0  0  0  0  0  0  0  0  0  0
    3.2307    1.2795    6.2217 Cl  0  0  0  0  0  0  0  0  0  0  0  0
    4.3227    0.9826    3.7159 C   0  0  0  0  0  0  0  0  0  0  0  0
    3.9478   -0.7161    3.8166 Cl  0  0  0  0  0  0  0  0  0  0  0  0
    4.9457    1.4725    2.5668 C   0  0  0  0  0  0  0  0  0  0  0  0
    3.9829   -1.0182   -3.3496 H   0  0  0  0  0  0  0  0  0  0  0  0
    2.8084    0.2019   -2.7876 H   0  0  0  0  0  0  0  0  0  0  0  0
    3.9401   -0.5574   -1.6286 H   0  0  0  0  0  0  0  0  0  0  0  0
    4.7710    1.2814   -3.9673 H   0  0  0  0  0  0  0  0  0  0  0  0
    5.8810    0.5231   -2.7849 H   0  0  0  0  0  0  0  0  0  0  0  0
    3.6124    4.0871   -2.3420 H   0  0  0  0  0  0  0  0  0  0  0  0
    2.7120    5.3394   -1.4896 H   0  0  0  0  0  0  0  0  0  0  0  0
    1.9146    3.8360    0.8938 H   0  0  0  0  0  0  0  0  0  0  0  0
    0.9207    2.4808    0.3600 H   0  0  0  0  0  0  0  0  0  0  0  0
    0.4711    5.4457   -0.3614 H   0  0  0  0  0  0  0  0  0  0  0  0
   -0.5495    4.4526    0.6901 H   0  0  0  0  0  0  0  0  0  0  0  0
   -2.3252    3.2608   -0.2989 H   0  0  0  0  0  0  0  0  0  0  0  0
   -1.2368    1.9765   -0.8833 H   0  0  0  0  0  0  0  0  0  0  0  0
   -2.2896    2.8493   -2.0267 H   0  0  0  0  0  0  0  0  0  0  0  0
    0.5382    4.8473   -2.8436 H   0  0  0  0  0  0  0  0  0  0  0  0
   -0.4651    3.4886   -3.3781 H   0  0  0  0  0  0  0  0  0  0  0  0
    1.9906    2.8481   -3.1755 H   0  0  0  0  0  0  0  0  0  0  0  0
    0.9527    1.8830   -2.1111 H   0  0  0  0  0  0  0  0  0  0  0  0
    2.4411    6.3015    0.5201 H   0  0  0  0  0  0  0  0  0  0  0  0
    3.5257    7.1789   -0.6065 H   0  0  0  0  0  0  0  0  0  0  0  0
    3.7568    7.3412    1.1445 H   0  0  0  0  0  0  0  0  0  0  0  0
    7.2678    4.8883    1.7912 H   0  0  0  0  0  0  0  0  0  0  0  0
    5.2166    4.7517    3.4629 H   0  0  0  0  0  0  0  0  0  0  0  0
    4.0983    3.8782    5.4868 H   0  0  0  0  0  0  0  0  0  0  0  0
    5.1859    0.7845    1.7551 H   0  0  0  0  0  0  0  0  0  0  0  0
  1  2  1  0
  1 31  1  0
  1 32  1  0
  1 33  1  0
  2  3  1  0
  2 34  1  0
  2 35  1  0
  3  4  1  0
  4  5  2  0
  4  6  1  0
  6  7  2  0
  6 21  1  0
  7  8  1  0
  7 16  1  0
  8  9  1  0
  8 36  1  0
  8 37  1  0
  9 10  1  0
  9 15  1  0
 10 11  1  0
 10 38  1  0
 10 39  1  0
 11 12  1  0
 11 40  1  0
 11 41  1  0
 12 13  1  0
 12 14  1  0
 13 42  1  0
 13 43  1  0
 13 44  1  0
 14 15  1  0
 14 45  1  0
 14 46  1  0
 15 47  1  0
 15 48  1  0
 16 17  1  0
 16 18  1  0
 17 49  1  0
 17 50  1  0
 17 51  1  0
 18 19  2  0
 18 20  1  0
 20 21  1  0
 20 52  1  0
 21 22  1  6
 21 23  1  0
 23 24  2  0
 23 30  1  0
 24 25  1  0
 24 53  1  0
 25 26  2  0
 25 54  1  0
 26 27  1  0
 26 28  1  0
 28 29  1  0
 28 30  2  0
 30 55  1  0
M  END

