
     RDKit          3D

 43 43  0  0  0  0  0  0  0  0999 V2000
    4.9318    0.5221    3.3185 C   0  0  0  0  0  0  0  0  0  0  0  0
    4.6950    0.1497    1.8654 C   0  0  0  0  0  0  0  0  0  0  0  0
    4.5175    1.3342    1.1146 O   0  0  0  0  0  0  0  0  0  0  0  0
    4.4564    1.1987   -0.2987 C   0  0  1  0  0  0  0  0  0  0  0  0
    3.1142    0.5572   -0.7567 C   0  0  1  0  0  0  0  0  0  0  0  0
    1.8493    1.2977   -0.2996 C   0  0  0  0  0  0  0  0  0  0  0  0
    3.0886    0.2634   -2.2624 C   0  0  0  0  0  0  0  0  0  0  0  0
    4.8205    2.5606   -0.9425 C   0  0  1  0  0  0  0  0  0  0  0  0
    4.0187    3.7332   -0.5501 N   0  0  0  0  0  0  0  0  0  0  0  0
    4.1769    4.2923    0.7887 C   0  0  0  0  0  0  0  0  0  0  0  0
    6.3073    2.9051   -0.8928 C   0  0  0  0  0  0  0  0  0  0  0  0
    7.2543    2.2546   -0.1093 C   0  0  0  0  0  0  0  0  0  0  0  0
    8.6224    2.5780   -0.1883 C   0  0  0  0  0  0  0  0  0  0  0  0
    9.6550    1.8752    0.6563 C   0  0  0  0  0  0  0  0  0  0  0  0
    8.9627    3.5847   -1.0945 C   0  0  0  0  0  0  0  0  0  0  0  0
    8.0836    4.2562   -1.8408 N   0  0  0  0  0  0  0  0  0  0  0  0
    6.7874    3.9466   -1.7459 C   0  0  0  0  0  0  0  0  0  0  0  0
    5.9039    4.6437   -2.5403 N   0  0  0  0  0  0  0  0  0  0  0  0
    5.0764   -0.3831    3.9291 H   0  0  0  0  0  0  0  0  0  0  0  0
    4.0706    1.0770    3.7219 H   0  0  0  0  0  0  0  0  0  0  0  0
    5.8244    1.1584    3.4195 H   0  0  0  0  0  0  0  0  0  0  0  0
    3.8099   -0.5114    1.7870 H   0  0  0  0  0  0  0  0  0  0  0  0
    5.5572   -0.4252    1.4663 H   0  0  0  0  0  0  0  0  0  0  0  0
    5.2442    0.4883   -0.6250 H   0  0  0  0  0  0  0  0  0  0  0  0
    3.0972   -0.4250   -0.2521 H   0  0  0  0  0  0  0  0  0  0  0  0
    1.6336    2.1832   -0.9209 H   0  0  0  0  0  0  0  0  0  0  0  0
    1.9313    1.6214    0.7488 H   0  0  0  0  0  0  0  0  0  0  0  0
    0.9688    0.6400   -0.3831 H   0  0  0  0  0  0  0  0  0  0  0  0
    3.0163    1.1847   -2.8634 H   0  0  0  0  0  0  0  0  0  0  0  0
    2.2174   -0.3599   -2.5202 H   0  0  0  0  0  0  0  0  0  0  0  0
    3.9920   -0.2774   -2.5892 H   0  0  0  0  0  0  0  0  0  0  0  0
    4.6080    2.4322   -2.0194 H   0  0  0  0  0  0  0  0  0  0  0  0
    3.0377    3.5748   -0.7586 H   0  0  0  0  0  0  0  0  0  0  0  0
    5.2420    4.4909    0.9813 H   0  0  0  0  0  0  0  0  0  0  0  0
    3.8084    3.6456    1.6037 H   0  0  0  0  0  0  0  0  0  0  0  0
    3.6487    5.2590    0.8352 H   0  0  0  0  0  0  0  0  0  0  0  0
    6.9334    1.4743    0.5830 H   0  0  0  0  0  0  0  0  0  0  0  0
    9.4828    2.0383    1.7344 H   0  0  0  0  0  0  0  0  0  0  0  0
   10.6694    2.2357    0.4266 H   0  0  0  0  0  0  0  0  0  0  0  0
    9.6457    0.7839    0.4917 H   0  0  0  0  0  0  0  0  0  0  0  0
   10.0161    3.8709   -1.2170 H   0  0  0  0  0  0  0  0  0  0  0  0
    6.3131    5.4582   -2.9856 H   0  0  0  0  0  0  0  0  0  0  0  0
    4.9812    4.7652   -2.1181 H   0  0  0  0  0  0  0  0  0  0  0  0
  1  2  1  0
  1 19  1  0
  1 20  1  0
  1 21  1  0
  2  3  1  0
  2 22  1  0
  2 23  1  0
  3  4  1  0
  4  5  1  0
  4  8  1  0
  4 24  1  6
  5  6  1  0
  5  7  1  0
  5 25  1  1
  6 26  1  0
  6 27  1  0
  6 28  1  0
  7 29  1  0
  7 30  1  0
  7 31  1  0
  8  9  1  0
  8 11  1  0
  8 32  1  6
  9 10  1  0
  9 33  1  0
 10 34  1  0
 10 35  1  0
 10 36  1  0
 11 12  2  0
 11 17  1  0
 12 13  1  0
 12 37  1  0
 13 14  1  0
 13 15  2  0
 14 38  1  0
 14 39  1  0
 14 40  1  0
 15 16  1  0
 15 41  1  0
 16 17  2  0
 17 18  1  0
 18 42  1  0
 18 43  1  0
M  END

