
     RDKit          3D

 50 52  0  0  0  0  0  0  0  0999 V2000
    1.2974   -0.0766    2.3205 C   0  0  0  0  0  0  0  0  0  0  0  0
    2.2883   -0.2652    1.1958 C   0  0  0  0  0  0  0  0  0  0  0  0
    2.3674    0.6944    0.1788 C   0  0  0  0  0  0  0  0  0  0  0  0
    3.2706    0.5472   -0.8730 C   0  0  0  0  0  0  0  0  0  0  0  0
    4.1068   -0.5648   -0.9028 C   0  0  0  0  0  0  0  0  0  0  0  0
    4.0677   -1.5405    0.1060 C   0  0  0  0  0  0  0  0  0  0  0  0
    5.0991   -2.6620   -0.0062 C   0  0  1  0  0  0  0  0  0  0  0  0
    6.1948   -2.6564    1.0822 C   0  0  0  0  0  0  0  0  0  0  0  0
    6.6915   -4.1063    1.1079 C   0  0  0  0  0  0  0  0  0  0  0  0
    5.4049   -4.9171    0.8950 C   0  0  0  0  0  0  0  0  0  0  0  0
    4.5755   -4.0439    0.0557 N   0  0  0  0  0  0  0  0  0  0  0  0
    3.7842   -4.4910   -0.9857 C   0  0  0  0  0  0  0  0  0  0  0  0
    3.5114   -3.7885   -1.9506 O   0  0  0  0  0  0  0  0  0  0  0  0
    3.3302   -5.7917   -0.8612 N   0  0  0  0  0  0  0  0  0  0  0  0
    2.5091   -6.4084   -1.8847 C   0  0  0  0  0  0  0  0  0  0  0  0
    0.9998   -6.2573   -1.6465 C   0  0  1  0  0  0  0  0  0  0  0  0
    0.4338   -4.8262   -1.7003 C   0  0  0  0  0  0  0  0  0  0  0  0
   -0.9949   -4.8703   -2.2813 C   0  0  0  0  0  0  0  0  0  0  0  0
   -0.9382   -5.7660   -3.5153 C   0  0  0  0  0  0  0  0  0  0  0  0
    0.0507   -7.2005   -2.9523 S   0  0  1  0  0  0  0  0  0  0  0  0
    0.9494   -7.6733   -4.0181 O   0  0  0  0  0  0  0  0  0  0  0  0
   -0.8513   -8.1375   -2.2626 O   0  0  0  0  0  0  0  0  0  0  0  0
    3.1398   -1.3989    1.1651 C   0  0  0  0  0  0  0  0  0  0  0  0
    3.0076   -2.4086    2.2847 C   0  0  0  0  0  0  0  0  0  0  0  0
    0.7433    0.8661    2.2053 H   0  0  0  0  0  0  0  0  0  0  0  0
    1.7914   -0.0558    3.3068 H   0  0  0  0  0  0  0  0  0  0  0  0
    0.5578   -0.8948    2.3606 H   0  0  0  0  0  0  0  0  0  0  0  0
    1.7062    1.5650    0.2135 H   0  0  0  0  0  0  0  0  0  0  0  0
    3.3178    1.2937   -1.6700 H   0  0  0  0  0  0  0  0  0  0  0  0
    4.8042   -0.6956   -1.7340 H   0  0  0  0  0  0  0  0  0  0  0  0
    5.5802   -2.5326   -0.9904 H   0  0  0  0  0  0  0  0  0  0  0  0
    5.7688   -2.3780    2.0583 H   0  0  0  0  0  0  0  0  0  0  0  0
    6.9836   -1.9261    0.8510 H   0  0  0  0  0  0  0  0  0  0  0  0
    7.2131   -4.3758    2.0385 H   0  0  0  0  0  0  0  0  0  0  0  0
    7.3849   -4.2860    0.2701 H   0  0  0  0  0  0  0  0  0  0  0  0
    4.9163   -5.1386    1.8651 H   0  0  0  0  0  0  0  0  0  0  0  0
    5.5917   -5.8786    0.3921 H   0  0  0  0  0  0  0  0  0  0  0  0
    3.3843   -6.2470    0.0412 H   0  0  0  0  0  0  0  0  0  0  0  0
    2.7603   -7.4780   -1.9546 H   0  0  0  0  0  0  0  0  0  0  0  0
    2.7754   -5.9524   -2.8471 H   0  0  0  0  0  0  0  0  0  0  0  0
    0.6944   -6.7767   -0.7245 H   0  0  0  0  0  0  0  0  0  0  0  0
    1.0852   -4.2067   -2.3352 H   0  0  0  0  0  0  0  0  0  0  0  0
    0.4435   -4.3655   -0.7011 H   0  0  0  0  0  0  0  0  0  0  0  0
   -1.3529   -3.8606   -2.5340 H   0  0  0  0  0  0  0  0  0  0  0  0
   -1.7002   -5.3001   -1.5508 H   0  0  0  0  0  0  0  0  0  0  0  0
   -0.3873   -5.3104   -4.3512 H   0  0  0  0  0  0  0  0  0  0  0  0
   -1.9021   -6.1630   -3.8607 H   0  0  0  0  0  0  0  0  0  0  0  0
    3.5802   -3.3214    2.1018 H   0  0  0  0  0  0  0  0  0  0  0  0
    1.9560   -2.7096    2.4212 H   0  0  0  0  0  0  0  0  0  0  0  0
    3.3327   -1.9846    3.2512 H   0  0  0  0  0  0  0  0  0  0  0  0
  1  2  1  0
  1 25  1  0
  1 26  1  0
  1 27  1  0
  2  3  2  0
  2 23  1  0
  3  4  1  0
  3 28  1  0
  4  5  2  0
  4 29  1  0
  5  6  1  0
  5 30  1  0
  6  7  1  0
  6 23  2  0
  7  8  1  0
  7 11  1  0
  7 31  1  6
  8  9  1  0
  8 32  1  0
  8 33  1  0
  9 10  1  0
  9 34  1  0
  9 35  1  0
 10 11  1  0
 10 36  1  0
 10 37  1  0
 11 12  1  0
 12 13  2  0
 12 14  1  0
 14 15  1  0
 14 38  1  0
 15 16  1  0
 15 39  1  0
 15 40  1  0
 16 17  1  0
 16 20  1  0
 16 41  1  1
 17 18  1  0
 17 42  1  0
 17 43  1  0
 18 19  1  0
 18 44  1  0
 18 45  1  0
 20 19  1  6
 19 46  1  0
 19 47  1  0
 20 21  2  0
 20 22  2  0
 23 24  1  0
 24 48  1  0
 24 49  1  0
 24 50  1  0
M  END

