
     RDKit          3D

 63 68  0  0  0  0  0  0  0  0999 V2000
    0.7754    1.1444    0.9238 Cl  0  0  0  0  0  0  0  0  0  0  0  0
    2.3714    0.6985    0.3673 C   0  0  0  0  0  0  0  0  0  0  0  0
    3.5023    1.2365    0.9865 C   0  0  0  0  0  0  0  0  0  0  0  0
    4.7624    0.8563    0.5344 C   0  0  0  0  0  0  0  0  0  0  0  0
    4.9401   -0.0483   -0.5285 C   0  0  0  0  0  0  0  0  0  0  0  0
    6.3233   -0.3495   -0.9628 C   0  0  0  0  0  0  0  0  0  0  0  0
    7.1776    0.6191   -1.0283 N   0  0  0  0  0  0  0  0  0  0  0  0
    8.4600    0.3611   -1.3392 N   0  0  0  0  0  0  0  0  0  0  0  0
    8.9064   -0.9269   -1.8904 C   0  0  2  0  0  0  0  0  0  0  0  0
    9.8889   -0.7177   -3.0036 C   0  0  0  0  0  0  0  0  0  0  0  0
   11.1905   -1.0417   -2.9121 C   0  0  0  0  0  0  0  0  0  0  0  0
   12.2375   -0.8600   -3.9293 C   0  0  0  0  0  0  0  0  0  0  0  0
   11.9845   -0.3181   -5.2063 C   0  0  0  0  0  0  0  0  0  0  0  0
   13.0130   -0.1674   -6.1344 C   0  0  0  0  0  0  0  0  0  0  0  0
   14.3203   -0.5535   -5.8122 C   0  0  0  0  0  0  0  0  0  0  0  0
   14.5886   -1.0930   -4.5517 C   0  0  0  0  0  0  0  0  0  0  0  0
   13.5572   -1.2441   -3.6226 C   0  0  0  0  0  0  0  0  0  0  0  0
    7.6996   -1.5855   -2.4073 N   0  0  0  0  0  0  0  0  0  0  0  0
    6.7340   -1.6368   -1.3726 N   0  0  0  0  0  0  0  0  0  0  0  0
    6.4875   -2.8320   -0.7398 C   0  0  0  0  0  0  0  0  0  0  0  0
    5.6467   -2.8310    0.3132 N   0  0  0  0  0  0  0  0  0  0  0  0
    5.4939   -3.9533    0.9630 N   0  0  0  0  0  0  0  0  0  0  0  0
    6.1069   -5.0878    0.5793 C   0  0  0  0  0  0  0  0  0  0  0  0
    5.9461   -6.2369    1.5091 C   0  0  0  0  0  0  0  0  0  0  0  0
    4.7209   -6.4224    2.1756 C   0  0  0  0  0  0  0  0  0  0  0  0
    4.5597   -7.4646    3.0899 C   0  0  0  0  0  0  0  0  0  0  0  0
    5.6223   -8.3311    3.3657 C   0  0  0  0  0  0  0  0  0  0  0  0
    6.8504   -8.1434    2.7241 C   0  0  0  0  0  0  0  0  0  0  0  0
    7.0124   -7.1058    1.8040 C   0  0  0  0  0  0  0  0  0  0  0  0
    6.8482   -5.0866   -0.6389 C   0  0  0  0  0  0  0  0  0  0  0  0
    7.3707   -6.2981   -1.3273 C   0  0  0  0  0  0  0  0  0  0  0  0
    6.6211   -7.4861   -1.3958 C   0  0  0  0  0  0  0  0  0  0  0  0
    7.1045   -8.5863   -2.1054 C   0  0  0  0  0  0  0  0  0  0  0  0
    8.3470   -8.5228   -2.7444 C   0  0  0  0  0  0  0  0  0  0  0  0
    9.0983   -7.3447   -2.6848 C   0  0  0  0  0  0  0  0  0  0  0  0
    8.6085   -6.2368   -1.9918 C   0  0  0  0  0  0  0  0  0  0  0  0
    7.0585   -3.9255   -1.2588 N   0  0  0  0  0  0  0  0  0  0  0  0
    3.7755   -0.5503   -1.1429 C   0  0  0  0  0  0  0  0  0  0  0  0
    3.8567   -1.6133   -2.5338 Cl  0  0  0  0  0  0  0  0  0  0  0  0
    2.5005   -0.1917   -0.6991 C   0  0  0  0  0  0  0  0  0  0  0  0
    3.3920    1.9342    1.8176 H   0  0  0  0  0  0  0  0  0  0  0  0
    5.6557    1.2593    1.0140 H   0  0  0  0  0  0  0  0  0  0  0  0
    8.9618    1.1864   -1.6461 H   0  0  0  0  0  0  0  0  0  0  0  0
    9.3776   -1.5230   -1.0801 H   0  0  0  0  0  0  0  0  0  0  0  0
    9.4648   -0.2631   -3.9050 H   0  0  0  0  0  0  0  0  0  0  0  0
   11.5358   -1.4958   -1.9751 H   0  0  0  0  0  0  0  0  0  0  0  0
   10.9717   -0.0129   -5.4779 H   0  0  0  0  0  0  0  0  0  0  0  0
   12.7952    0.2542   -7.1190 H   0  0  0  0  0  0  0  0  0  0  0  0
   15.1242   -0.4336   -6.5426 H   0  0  0  0  0  0  0  0  0  0  0  0
   15.6050   -1.3977   -4.2899 H   0  0  0  0  0  0  0  0  0  0  0  0
   13.7736   -1.6668   -2.6374 H   0  0  0  0  0  0  0  0  0  0  0  0
    7.8923   -2.5544   -2.6652 H   0  0  0  0  0  0  0  0  0  0  0  0
    3.9006   -5.7328    1.9700 H   0  0  0  0  0  0  0  0  0  0  0  0
    3.5985   -7.5990    3.5928 H   0  0  0  0  0  0  0  0  0  0  0  0
    5.4961   -9.1457    4.0835 H   0  0  0  0  0  0  0  0  0  0  0  0
    7.6919   -8.8048    2.9460 H   0  0  0  0  0  0  0  0  0  0  0  0
    7.9813   -6.9620    1.3220 H   0  0  0  0  0  0  0  0  0  0  0  0
    5.6477   -7.5443   -0.9061 H   0  0  0  0  0  0  0  0  0  0  0  0
    6.5054   -9.4985   -2.1611 H   0  0  0  0  0  0  0  0  0  0  0  0
    8.7267   -9.3888   -3.2925 H   0  0  0  0  0  0  0  0  0  0  0  0
   10.0681   -7.2868   -3.1854 H   0  0  0  0  0  0  0  0  0  0  0  0
    9.1842   -5.3102   -1.9553 H   0  0  0  0  0  0  0  0  0  0  0  0
    1.6185   -0.5960   -1.1950 H   0  0  0  0  0  0  0  0  0  0  0  0
  1  2  1  0
  2  3  2  0
  2 40  1  0
  3  4  1  0
  3 41  1  0
  4  5  2  0
  4 42  1  0
  5  6  1  0
  5 38  1  0
  6  7  2  0
  6 19  1  0
  7  8  1  0
  8  9  1  0
  8 43  1  0
  9 10  1  0
  9 18  1  0
  9 44  1  1
 10 11  2  0
 10 45  1  0
 11 12  1  0
 11 46  1  0
 12 13  2  0
 12 17  1  0
 13 14  1  0
 13 47  1  0
 14 15  2  0
 14 48  1  0
 15 16  1  0
 15 49  1  0
 16 17  2  0
 16 50  1  0
 17 51  1  0
 18 19  1  0
 18 52  1  0
 19 20  1  0
 20 21  2  0
 20 37  1  0
 21 22  1  0
 22 23  2  0
 23 24  1  0
 23 30  1  0
 24 25  2  0
 24 29  1  0
 25 26  1  0
 25 53  1  0
 26 27  2  0
 26 54  1  0
 27 28  1  0
 27 55  1  0
 28 29  2  0
 28 56  1  0
 29 57  1  0
 30 31  1  0
 30 37  2  0
 31 32  2  0
 31 36  1  0
 32 33  1  0
 32 58  1  0
 33 34  2  0
 33 59  1  0
 34 35  1  0
 34 60  1  0
 35 36  2  0
 35 61  1  0
 36 62  1  0
 38 39  1  0
 38 40  2  0
 40 63  1  0
M  END

