
     RDKit          3D

 59 60  0  0  0  0  0  0  0  0999 V2000
    3.9642   -4.4826    1.7254 C   0  0  0  0  0  0  0  0  0  0  0  0
    4.6260   -3.5231    0.7643 C   0  0  0  0  0  0  0  0  0  0  0  0
    6.0152   -3.6268    0.5573 C   0  0  0  0  0  0  0  0  0  0  0  0
    6.9432   -4.7969    1.4815 Cl  0  0  0  0  0  0  0  0  0  0  0  0
    6.7044   -2.8460   -0.3712 C   0  0  0  0  0  0  0  0  0  0  0  0
    5.9883   -1.9336   -1.1395 C   0  0  0  0  0  0  0  0  0  0  0  0
    4.6149   -1.7881   -0.9444 C   0  0  0  0  0  0  0  0  0  0  0  0
    3.9249   -2.5390    0.0180 C   0  0  0  0  0  0  0  0  0  0  0  0
    2.4066   -2.4159    0.1776 C   0  0  1  0  0  0  0  0  0  0  0  0
    1.9550   -2.2761    1.5547 O   0  0  0  0  0  0  0  0  0  0  0  0
    2.2502   -0.9965    2.5563 S   0  0  1  0  0  0  0  0  0  0  0  0
    2.3479   -1.9255    4.0826 C   0  0  0  0  0  0  0  0  0  0  0  0
    3.5567   -0.4203    2.2478 O   0  0  0  0  0  0  0  0  0  0  0  0
    1.0573   -0.1615    2.6126 O   0  0  0  0  0  0  0  0  0  0  0  0
    1.5807   -1.5312   -0.7924 C   0  0  1  0  0  0  0  0  0  0  0  0
    0.1056   -1.9977   -0.7623 C   0  0  0  0  0  0  0  0  0  0  0  0
   -0.6849   -0.7879   -1.2384 C   0  0  0  0  0  0  0  0  0  0  0  0
    0.2144    0.3911   -0.9037 C   0  0  0  0  0  0  0  0  0  0  0  0
   -0.1155    1.5605   -0.9779 O   0  0  0  0  0  0  0  0  0  0  0  0
    1.4676   -0.0795   -0.5665 N   0  0  0  0  0  0  0  0  0  0  0  0
    2.6251    0.8259   -0.4838 C   0  0  0  0  0  0  0  0  0  0  0  0
    2.4435    2.1008    0.3676 C   0  0  0  0  0  0  0  0  0  0  0  0
    1.9628    3.2592   -0.3448 N   0  0  0  0  0  0  0  0  0  0  0  0
    2.7513    4.3304   -0.6203 C   0  0  0  0  0  0  0  0  0  0  0  0
    3.9087    4.4643   -0.2625 O   0  0  0  0  0  0  0  0  0  0  0  0
    2.0488    5.2337   -1.3518 O   0  0  0  0  0  0  0  0  0  0  0  0
    2.6305    6.5025   -1.7708 C   0  0  1  0  0  0  0  0  0  0  0  0
    3.8303    6.2585   -2.6945 C   0  0  0  0  0  0  0  0  0  0  0  0
    1.4859    7.1665   -2.5409 C   0  0  0  0  0  0  0  0  0  0  0  0
    3.0136    7.3419   -0.5458 C   0  0  0  0  0  0  0  0  0  0  0  0
    4.2601   -5.5161    1.4886 H   0  0  0  0  0  0  0  0  0  0  0  0
    2.8720   -4.4171    1.7201 H   0  0  0  0  0  0  0  0  0  0  0  0
    4.3082   -4.3037    2.7581 H   0  0  0  0  0  0  0  0  0  0  0  0
    7.7815   -2.9712   -0.4902 H   0  0  0  0  0  0  0  0  0  0  0  0
    6.5011   -1.3264   -1.8887 H   0  0  0  0  0  0  0  0  0  0  0  0
    4.0825   -1.0714   -1.5649 H   0  0  0  0  0  0  0  0  0  0  0  0
    2.0213   -3.4256   -0.0419 H   0  0  0  0  0  0  0  0  0  0  0  0
    3.2049   -2.6065    4.0328 H   0  0  0  0  0  0  0  0  0  0  0  0
    1.4040   -2.4672    4.2185 H   0  0  0  0  0  0  0  0  0  0  0  0
    2.4834   -1.1783    4.8760 H   0  0  0  0  0  0  0  0  0  0  0  0
    2.0037   -1.7248   -1.7983 H   0  0  0  0  0  0  0  0  0  0  0  0
   -0.1597   -2.2361    0.2781 H   0  0  0  0  0  0  0  0  0  0  0  0
   -0.0407   -2.9018   -1.3715 H   0  0  0  0  0  0  0  0  0  0  0  0
   -1.6720   -0.6623   -0.7724 H   0  0  0  0  0  0  0  0  0  0  0  0
   -0.8357   -0.7815   -2.3319 H   0  0  0  0  0  0  0  0  0  0  0  0
    2.9493    1.1206   -1.5002 H   0  0  0  0  0  0  0  0  0  0  0  0
    3.4359    0.2591   -0.0205 H   0  0  0  0  0  0  0  0  0  0  0  0
    3.4322    2.3676    0.7648 H   0  0  0  0  0  0  0  0  0  0  0  0
    1.7936    1.8680    1.2246 H   0  0  0  0  0  0  0  0  0  0  0  0
    1.0303    3.1971   -0.7434 H   0  0  0  0  0  0  0  0  0  0  0  0
    3.5330    5.6249   -3.5453 H   0  0  0  0  0  0  0  0  0  0  0  0
    4.6457    5.7633   -2.1525 H   0  0  0  0  0  0  0  0  0  0  0  0
    4.1969    7.2172   -3.0947 H   0  0  0  0  0  0  0  0  0  0  0  0
    1.1827    6.5425   -3.3955 H   0  0  0  0  0  0  0  0  0  0  0  0
    1.7979    8.1521   -2.9192 H   0  0  0  0  0  0  0  0  0  0  0  0
    0.6100    7.3023   -1.8884 H   0  0  0  0  0  0  0  0  0  0  0  0
    3.8182    6.8586    0.0225 H   0  0  0  0  0  0  0  0  0  0  0  0
    2.1417    7.4715    0.1146 H   0  0  0  0  0  0  0  0  0  0  0  0
    3.3517    8.3403   -0.8661 H   0  0  0  0  0  0  0  0  0  0  0  0
  1  2  1  0
  1 31  1  0
  1 32  1  0
  1 33  1  0
  2  3  2  0
  2  8  1  0
  3  4  1  0
  3  5  1  0
  5  6  2  0
  5 34  1  0
  6  7  1  0
  6 35  1  0
  7  8  2  0
  7 36  1  0
  8  9  1  0
  9 10  1  0
  9 15  1  0
  9 37  1  6
 11 10  1  6
 11 12  1  0
 11 13  2  0
 11 14  2  0
 12 38  1  0
 12 39  1  0
 12 40  1  0
 15 16  1  0
 15 20  1  0
 15 41  1  6
 16 17  1  0
 16 42  1  0
 16 43  1  0
 17 18  1  0
 17 44  1  0
 17 45  1  0
 18 19  2  0
 18 20  1  0
 20 21  1  0
 21 22  1  0
 21 46  1  0
 21 47  1  0
 22 23  1  0
 22 48  1  0
 22 49  1  0
 23 24  1  0
 23 50  1  0
 24 25  2  0
 24 26  1  0
 27 26  1  1
 27 28  1  0
 27 29  1  0
 27 30  1  0
 28 51  1  0
 28 52  1  0
 28 53  1  0
 29 54  1  0
 29 55  1  0
 29 56  1  0
 30 57  1  0
 30 58  1  0
 30 59  1  0
M  END

