
     RDKit          3D

 75 82  0  0  0  0  0  0  0  0999 V2000
    1.4819   -0.6609   -0.2279 C   0  0  0  0  0  0  0  0  0  0  0  0
    2.7842   -0.3420    0.3112 N   0  0  0  0  0  0  0  0  0  0  0  0
    3.6380   -1.2039    1.0003 C   0  0  0  0  0  0  0  0  0  0  0  0
    3.4673   -2.5520    1.3390 C   0  0  0  0  0  0  0  0  0  0  0  0
    4.4951   -3.1837    2.0412 C   0  0  0  0  0  0  0  0  0  0  0  0
    5.6689   -2.4961    2.4015 C   0  0  0  0  0  0  0  0  0  0  0  0
    5.8368   -1.1538    2.0633 C   0  0  0  0  0  0  0  0  0  0  0  0
    4.8197   -0.4958    1.3582 C   0  0  0  0  0  0  0  0  0  0  0  0
    4.6579    0.8556    0.8556 C   0  0  0  0  0  0  0  0  0  0  0  0
    5.4484    2.0048    0.8832 C   0  0  0  0  0  0  0  0  0  0  0  0
    4.9914    3.1972    0.2857 C   0  0  0  0  0  0  0  0  0  0  0  0
    5.8502    4.3703    0.3378 C   0  0  0  0  0  0  0  0  0  0  0  0
    5.6083    5.6043   -0.1762 C   0  0  0  0  0  0  0  0  0  0  0  0
    6.5649    6.6912   -0.0431 C   0  0  0  0  0  0  0  0  0  0  0  0
    7.6501    6.4386    0.6222 O   0  0  0  0  0  0  0  0  0  0  0  0
    8.8322    7.3671    0.6694 B   0  0  2  0  0  0  0  0  0  0  0  0
    9.7213    6.9957   -0.3082 F   0  0  0  0  0  0  0  0  0  0  0  0
    9.3546    7.3514    1.9292 F   0  0  0  0  0  0  0  0  0  0  0  0
    8.3371    8.7547    0.3666 O   0  0  0  0  0  0  0  0  0  0  0  0
    7.2505    8.9997   -0.2992 C   0  0  0  0  0  0  0  0  0  0  0  0
    7.0269   10.3773   -0.7072 C   0  0  0  0  0  0  0  0  0  0  0  0
    7.9280   11.3584   -0.4403 C   0  0  0  0  0  0  0  0  0  0  0  0
    7.8382   12.7700   -0.7806 C   0  0  0  0  0  0  0  0  0  0  0  0
    6.7234   13.3296   -1.4648 C   0  0  0  0  0  0  0  0  0  0  0  0
    6.6549   14.6789   -1.7832 C   0  0  0  0  0  0  0  0  0  0  0  0
    7.7301   15.5029   -1.4095 C   0  0  0  0  0  0  0  0  0  0  0  0
    8.8615   14.9765   -0.7234 C   0  0  0  0  0  0  0  0  0  0  0  0
    8.9048   13.6166   -0.4154 C   0  0  0  0  0  0  0  0  0  0  0  0
    9.7606   16.0933   -0.5011 C   0  0  0  0  0  0  0  0  0  0  0  0
   11.0157   16.2222    0.1096 C   0  0  0  0  0  0  0  0  0  0  0  0
   11.6229   17.4766    0.1540 C   0  0  0  0  0  0  0  0  0  0  0  0
   10.9868   18.6001   -0.4060 C   0  0  0  0  0  0  0  0  0  0  0  0
    9.7373   18.4990   -1.0199 C   0  0  0  0  0  0  0  0  0  0  0  0
    9.1291   17.2383   -1.0632 C   0  0  0  0  0  0  0  0  0  0  0  0
    7.9017   16.8579   -1.6068 N   0  0  0  0  0  0  0  0  0  0  0  0
    6.9470   17.7139   -2.2732 C   0  0  0  0  0  0  0  0  0  0  0  0
    6.3151    7.9752   -0.5880 C   0  0  0  0  0  0  0  0  0  0  0  0
    5.0748    8.2557   -1.3778 C   0  0  0  0  0  0  0  0  0  0  0  0
    5.0661    8.1007   -2.7754 C   0  0  0  0  0  0  0  0  0  0  0  0
    3.9106    8.3605   -3.5184 C   0  0  0  0  0  0  0  0  0  0  0  0
    2.7421    8.7806   -2.8758 C   0  0  0  0  0  0  0  0  0  0  0  0
    2.7357    8.9393   -1.4864 C   0  0  0  0  0  0  0  0  0  0  0  0
    3.8920    8.6790   -0.7450 C   0  0  0  0  0  0  0  0  0  0  0  0
    3.7143    3.2029   -0.3415 C   0  0  0  0  0  0  0  0  0  0  0  0
    2.9082    2.0737   -0.3835 C   0  0  0  0  0  0  0  0  0  0  0  0
    3.3851    0.8968    0.2183 C   0  0  0  0  0  0  0  0  0  0  0  0
    1.2432   -1.7115   -0.0234 H   0  0  0  0  0  0  0  0  0  0  0  0
    1.4553   -0.5093   -1.3202 H   0  0  0  0  0  0  0  0  0  0  0  0
    0.6970   -0.0350    0.2293 H   0  0  0  0  0  0  0  0  0  0  0  0
    2.5644   -3.1032    1.0690 H   0  0  0  0  0  0  0  0  0  0  0  0
    4.3827   -4.2356    2.3157 H   0  0  0  0  0  0  0  0  0  0  0  0
    6.4538   -3.0208    2.9509 H   0  0  0  0  0  0  0  0  0  0  0  0
    6.7490   -0.6215    2.3439 H   0  0  0  0  0  0  0  0  0  0  0  0
    6.4281    1.9909    1.3677 H   0  0  0  0  0  0  0  0  0  0  0  0
    6.8065    4.2381    0.8536 H   0  0  0  0  0  0  0  0  0  0  0  0
    4.6860    5.8299   -0.7108 H   0  0  0  0  0  0  0  0  0  0  0  0
    6.0989   10.5832   -1.2399 H   0  0  0  0  0  0  0  0  0  0  0  0
    8.8332   11.0538    0.0943 H   0  0  0  0  0  0  0  0  0  0  0  0
    5.8921   12.6825   -1.7506 H   0  0  0  0  0  0  0  0  0  0  0  0
    5.7865   15.0801   -2.3090 H   0  0  0  0  0  0  0  0  0  0  0  0
    9.7655   13.1956    0.1107 H   0  0  0  0  0  0  0  0  0  0  0  0
   11.5113   15.3509    0.5448 H   0  0  0  0  0  0  0  0  0  0  0  0
   12.6010   17.5910    0.6269 H   0  0  0  0  0  0  0  0  0  0  0  0
   11.4796   19.5746   -0.3611 H   0  0  0  0  0  0  0  0  0  0  0  0
    9.2608   19.3828   -1.4486 H   0  0  0  0  0  0  0  0  0  0  0  0
    7.3219   18.7443   -2.2908 H   0  0  0  0  0  0  0  0  0  0  0  0
    5.9763   17.7110   -1.7493 H   0  0  0  0  0  0  0  0  0  0  0  0
    6.7809   17.3909   -3.3149 H   0  0  0  0  0  0  0  0  0  0  0  0
    5.9785    7.7723   -3.2797 H   0  0  0  0  0  0  0  0  0  0  0  0
    3.9240    8.2340   -4.6041 H   0  0  0  0  0  0  0  0  0  0  0  0
    1.8383    8.9839   -3.4562 H   0  0  0  0  0  0  0  0  0  0  0  0
    1.8262    9.2674   -0.9762 H   0  0  0  0  0  0  0  0  0  0  0  0
    3.8842    8.8037    0.3410 H   0  0  0  0  0  0  0  0  0  0  0  0
    3.3513    4.1216   -0.8060 H   0  0  0  0  0  0  0  0  0  0  0  0
    1.9326    2.1080   -0.8721 H   0  0  0  0  0  0  0  0  0  0  0  0
  1  2  1  0
  1 47  1  0
  1 48  1  0
  1 49  1  0
  2  3  1  0
  2 46  1  0
  3  4  2  0
  3  8  1  0
  4  5  1  0
  4 50  1  0
  5  6  2  0
  5 51  1  0
  6  7  1  0
  6 52  1  0
  7  8  2  0
  7 53  1  0
  8  9  1  0
  9 10  1  0
  9 46  2  0
 10 11  2  0
 10 54  1  0
 11 12  1  0
 11 44  1  0
 12 13  2  0
 12 55  1  0
 13 14  1  0
 13 56  1  0
 14 15  1  0
 14 37  2  0
 15 16  1  0
 16 17  1  6
 16 18  1  0
 16 19  1  0
 19 20  1  0
 20 21  2  0
 20 37  1  0
 21 22  1  0
 21 57  1  0
 22 23  2  0
 22 58  1  0
 23 24  1  0
 23 28  1  0
 24 25  2  0
 24 59  1  0
 25 26  1  0
 25 60  1  0
 26 27  1  0
 26 35  2  0
 27 28  2  0
 27 29  1  0
 28 61  1  0
 29 30  2  0
 29 34  1  0
 30 31  1  0
 30 62  1  0
 31 32  2  0
 31 63  1  0
 32 33  1  0
 32 64  1  0
 33 34  2  0
 33 65  1  0
 34 35  1  0
 35 36  1  0
 36 66  1  0
 36 67  1  0
 36 68  1  0
 37 38  1  0
 38 39  2  0
 38 43  1  0
 39 40  1  0
 39 69  1  0
 40 41  2  0
 40 70  1  0
 41 42  1  0
 41 71  1  0
 42 43  2  0
 42 72  1  0
 43 73  1  0
 44 45  2  0
 44 74  1  0
 45 46  1  0
 45 75  1  0
M  CHG  2  16  -1  35   1
M  END

