
     RDKit          3D

 48 51  0  0  0  0  0  0  0  0999 V2000
    4.8961    0.0618    1.6401 C   0  0  0  0  0  0  0  0  0  0  0  0
    4.2670    0.9657    0.5964 C   0  0  0  0  0  0  0  0  0  0  0  0
    3.4382    1.7983    0.9333 O   0  0  0  0  0  0  0  0  0  0  0  0
    4.6570    0.8353   -0.8275 C   0  0  0  0  0  0  0  0  0  0  0  0
    4.0711    1.6454   -1.8266 C   0  0  0  0  0  0  0  0  0  0  0  0
    3.0271    2.7068   -1.7342 C   0  0  0  0  0  0  0  0  0  0  0  0
    4.6253    1.2986   -3.0052 N   0  0  0  0  0  0  0  0  0  0  0  0
    4.3485    1.7046   -3.8904 H   0  0  0  0  0  0  0  0  0  0  0  0
    5.5589    0.2743   -2.8421 C   0  0  0  0  0  0  0  0  0  0  0  0
    6.3189   -0.2763   -3.9555 C   0  0  0  0  0  0  0  0  0  0  0  0
    7.0871   -1.2214   -3.8608 O   0  0  0  0  0  0  0  0  0  0  0  0
    6.1752    0.4361   -5.3220 C   0  0  0  0  0  0  0  0  0  0  0  0
    6.5715   -0.4131   -6.4301 N   0  0  0  0  0  0  0  0  0  0  0  0
    7.8855   -0.7700   -6.5811 C   0  0  0  0  0  0  0  0  0  0  0  0
    8.3590   -1.5632   -7.4946 N   0  0  0  0  0  0  0  0  0  0  0  0
    7.4186   -2.0748   -8.3306 C   0  0  0  0  0  0  0  0  0  0  0  0
    6.0450   -1.8016   -8.2776 C   0  0  0  0  0  0  0  0  0  0  0  0
    5.4832   -2.5501   -9.3442 C   0  0  0  0  0  0  0  0  0  0  0  0
    6.4171   -3.2167   -9.9898 N   0  0  0  0  0  0  0  0  0  0  0  0
    7.6067   -2.9373   -9.3825 N   0  0  0  0  0  0  0  0  0  0  0  0
    8.7989   -3.5331   -9.8872 C   0  0  0  0  0  0  0  0  0  0  0  0
   10.0407   -3.3235   -9.2680 C   0  0  0  0  0  0  0  0  0  0  0  0
   11.1780   -3.9319   -9.8036 C   0  0  0  0  0  0  0  0  0  0  0  0
   11.1050   -4.7424  -10.9377 C   0  0  0  0  0  0  0  0  0  0  0  0
    9.8571   -4.9372  -11.5367 C   0  0  0  0  0  0  0  0  0  0  0  0
    9.7344   -5.9483  -12.9598 Cl  0  0  0  0  0  0  0  0  0  0  0  0
    8.7025   -4.3444  -11.0284 C   0  0  0  0  0  0  0  0  0  0  0  0
    5.5174   -0.9190   -7.2697 C   0  0  0  0  0  0  0  0  0  0  0  0
    4.3610   -0.5852   -7.0835 O   0  0  0  0  0  0  0  0  0  0  0  0
    5.5962   -0.0336   -1.4735 C   0  0  0  0  0  0  0  0  0  0  0  0
    6.4795   -1.0789   -0.8584 C   0  0  0  0  0  0  0  0  0  0  0  0
    4.4606    0.3081    2.6169 H   0  0  0  0  0  0  0  0  0  0  0  0
    5.9876    0.2012    1.6809 H   0  0  0  0  0  0  0  0  0  0  0  0
    4.7126   -0.9997    1.4128 H   0  0  0  0  0  0  0  0  0  0  0  0
    3.3544    3.5204   -1.0702 H   0  0  0  0  0  0  0  0  0  0  0  0
    2.1055    2.3101   -1.2835 H   0  0  0  0  0  0  0  0  0  0  0  0
    2.7954    3.1203   -2.7284 H   0  0  0  0  0  0  0  0  0  0  0  0
    6.7933    1.3503   -5.3005 H   0  0  0  0  0  0  0  0  0  0  0  0
    5.1348    0.7217   -5.5269 H   0  0  0  0  0  0  0  0  0  0  0  0
    8.5751   -0.3214   -5.8613 H   0  0  0  0  0  0  0  0  0  0  0  0
    4.4406   -2.6198   -9.6518 H   0  0  0  0  0  0  0  0  0  0  0  0
   10.1067   -2.6925   -8.3846 H   0  0  0  0  0  0  0  0  0  0  0  0
   12.1449   -3.7691   -9.3211 H   0  0  0  0  0  0  0  0  0  0  0  0
   11.9933   -5.2181  -11.3553 H   0  0  0  0  0  0  0  0  0  0  0  0
    7.7348   -4.5018  -11.4992 H   0  0  0  0  0  0  0  0  0  0  0  0
    7.0976   -1.5539   -1.6275 H   0  0  0  0  0  0  0  0  0  0  0  0
    5.8841   -1.8641   -0.3657 H   0  0  0  0  0  0  0  0  0  0  0  0
    7.1397   -0.6476   -0.0897 H   0  0  0  0  0  0  0  0  0  0  0  0
  1  2  1  0
  1 32  1  0
  1 33  1  0
  1 34  1  0
  2  3  2  0
  2  4  1  0
  4  5  2  0
  4 30  1  0
  5  6  1  0
  5  7  1  0
  6 35  1  0
  6 36  1  0
  6 37  1  0
  7  8  1  0
  7  9  1  0
  9 10  1  0
  9 30  2  0
 10 11  2  0
 10 12  1  0
 12 13  1  0
 12 38  1  0
 12 39  1  0
 13 14  1  0
 13 28  1  0
 14 15  2  0
 14 40  1  0
 15 16  1  0
 16 17  2  0
 16 20  1  0
 17 18  1  0
 17 28  1  0
 18 19  2  0
 18 41  1  0
 19 20  1  0
 20 21  1  0
 21 22  2  0
 21 27  1  0
 22 23  1  0
 22 42  1  0
 23 24  2  0
 23 43  1  0
 24 25  1  0
 24 44  1  0
 25 26  1  0
 25 27  2  0
 27 45  1  0
 28 29  2  0
 30 31  1  0
 31 46  1  0
 31 47  1  0
 31 48  1  0
M  END

