
     RDKit          3D

 42 43  0  0  0  0  0  0  0  0999 V2000
   10.9344    2.6306   -4.9913 C   0  0  0  0  0  0  0  0  0  0  0  0
    9.9310    1.9643   -4.0880 C   0  0  0  0  0  0  0  0  0  0  0  0
    9.6566    0.5964   -4.1970 C   0  0  0  0  0  0  0  0  0  0  0  0
    8.7405   -0.0235   -3.3552 C   0  0  0  0  0  0  0  0  0  0  0  0
    8.5201   -1.3435   -3.4855 F   0  0  0  0  0  0  0  0  0  0  0  0
    8.0766    0.7131   -2.3731 C   0  0  0  0  0  0  0  0  0  0  0  0
    6.8321   -0.0313   -1.2988 S   0  0  1  0  0  0  0  0  0  0  0  0
    6.4233    1.0286   -0.3715 O   0  0  0  0  0  0  0  0  0  0  0  0
    5.8608   -0.7188   -2.1479 O   0  0  0  0  0  0  0  0  0  0  0  0
    7.5908   -1.1997   -0.3906 N   0  0  0  0  0  0  0  0  0  0  0  0
    8.4276   -0.8442    0.7488 C   0  0  0  0  0  0  0  0  0  0  0  0
    8.1066   -1.7903    1.9127 C   0  0  2  0  0  0  0  0  0  0  0  0
    9.0772   -1.6361    3.0724 C   0  0  0  0  0  0  0  0  0  0  0  0
    8.1733   -3.1440    1.4860 O   0  0  0  0  0  0  0  0  0  0  0  0
    7.3476   -3.5162    0.3676 C   0  0  2  0  0  0  0  0  0  0  0  0
    5.8570   -3.4386    0.7265 C   0  0  0  0  0  0  0  0  0  0  0  0
    7.7569   -4.9507    0.0415 C   0  0  0  0  0  0  0  0  0  0  0  0
    7.6816   -2.5899   -0.8211 C   0  0  0  0  0  0  0  0  0  0  0  0
    8.3318    2.0809   -2.2552 C   0  0  0  0  0  0  0  0  0  0  0  0
    9.2543    2.7239   -3.0979 C   0  0  0  0  0  0  0  0  0  0  0  0
    9.5391    4.0739   -2.9305 N   0  0  0  0  0  0  0  0  0  0  0  0
   11.4185    1.9062   -5.6606 H   0  0  0  0  0  0  0  0  0  0  0  0
   11.7217    3.1371   -4.4063 H   0  0  0  0  0  0  0  0  0  0  0  0
   10.4619    3.4013   -5.6283 H   0  0  0  0  0  0  0  0  0  0  0  0
   10.1637   -0.0129   -4.9487 H   0  0  0  0  0  0  0  0  0  0  0  0
    8.2202    0.1943    1.0385 H   0  0  0  0  0  0  0  0  0  0  0  0
    9.5001   -0.9358    0.4833 H   0  0  0  0  0  0  0  0  0  0  0  0
    7.0815   -1.5539    2.2588 H   0  0  0  0  0  0  0  0  0  0  0  0
   10.1046   -1.8655    2.7479 H   0  0  0  0  0  0  0  0  0  0  0  0
    8.8118   -2.3339    3.8801 H   0  0  0  0  0  0  0  0  0  0  0  0
    9.0519   -0.6102    3.4722 H   0  0  0  0  0  0  0  0  0  0  0  0
    5.6726   -3.9654    1.6752 H   0  0  0  0  0  0  0  0  0  0  0  0
    5.2497   -3.9120   -0.0602 H   0  0  0  0  0  0  0  0  0  0  0  0
    5.5109   -2.3998    0.8236 H   0  0  0  0  0  0  0  0  0  0  0  0
    7.5273   -5.6104    0.8918 H   0  0  0  0  0  0  0  0  0  0  0  0
    8.8396   -5.0038   -0.1483 H   0  0  0  0  0  0  0  0  0  0  0  0
    7.2211   -5.3218   -0.8458 H   0  0  0  0  0  0  0  0  0  0  0  0
    6.9815   -2.7519   -1.6494 H   0  0  0  0  0  0  0  0  0  0  0  0
    8.7045   -2.8106   -1.1782 H   0  0  0  0  0  0  0  0  0  0  0  0
    7.7896    2.6411   -1.4911 H   0  0  0  0  0  0  0  0  0  0  0  0
    8.8773    4.6000   -2.3714 H   0  0  0  0  0  0  0  0  0  0  0  0
    9.8469    4.5825   -3.7509 H   0  0  0  0  0  0  0  0  0  0  0  0
  1  2  1  0
  1 22  1  0
  1 23  1  0
  1 24  1  0
  2  3  2  0
  2 20  1  0
  3  4  1  0
  3 25  1  0
  4  5  1  0
  4  6  2  0
  7  6  1  6
  6 19  1  0
  7  8  2  0
  7  9  2  0
  7 10  1  0
 10 11  1  0
 10 18  1  0
 11 12  1  0
 11 26  1  0
 11 27  1  0
 12 13  1  0
 12 14  1  0
 12 28  1  1
 13 29  1  0
 13 30  1  0
 13 31  1  0
 14 15  1  0
 15 16  1  1
 15 17  1  0
 15 18  1  0
 16 32  1  0
 16 33  1  0
 16 34  1  0
 17 35  1  0
 17 36  1  0
 17 37  1  0
 18 38  1  0
 18 39  1  0
 19 20  2  0
 19 40  1  0
 20 21  1  0
 21 41  1  0
 21 42  1  0
M  END

