
     RDKit          3D

 32 32  0  0  0  0  0  0  0  0999 V2000
    1.2864   -0.6280   -1.2477 C   0  0  0  0  0  0  0  0  0  0  0  0
    2.5279   -0.2932   -0.5814 N   0  0  0  0  0  0  0  0  0  0  0  0
    3.4288    0.6656   -0.9263 C   0  0  0  0  0  0  0  0  0  0  0  0
    4.4571    0.6105    0.0091 C   0  0  0  0  0  0  0  0  0  0  0  0
    5.7335    1.4289    0.0487 C   0  0  1  0  0  0  0  0  0  0  0  0
    6.7440    1.0939   -0.9550 N   0  0  0  0  0  0  0  0  0  0  0  0
    5.3724    2.9042   -0.1382 C   0  0  0  0  0  0  0  0  0  0  0  0
    5.1941    3.3952   -1.2314 O   0  0  0  0  0  0  0  0  0  0  0  0
    5.2454    3.5320    1.0314 O   0  0  0  0  0  0  0  0  0  0  0  0
    4.8258    4.9394    1.1406 C   0  0  1  0  0  0  0  0  0  0  0  0
    3.4243    5.1120    0.5469 C   0  0  0  0  0  0  0  0  0  0  0  0
    4.8091    5.1712    2.6521 C   0  0  0  0  0  0  0  0  0  0  0  0
    5.8593    5.8420    0.4600 C   0  0  0  0  0  0  0  0  0  0  0  0
    4.0570   -0.4343    0.8813 C   0  0  0  0  0  0  0  0  0  0  0  0
    2.8957   -0.9706    0.5154 N   0  0  0  0  0  0  0  0  0  0  0  0
    1.1402    0.0487   -2.0999 H   0  0  0  0  0  0  0  0  0  0  0  0
    0.4413   -0.5223   -0.5511 H   0  0  0  0  0  0  0  0  0  0  0  0
    1.3143   -1.6669   -1.6105 H   0  0  0  0  0  0  0  0  0  0  0  0
    3.2839    1.3150   -1.7873 H   0  0  0  0  0  0  0  0  0  0  0  0
    6.1725    1.3157    1.0517 H   0  0  0  0  0  0  0  0  0  0  0  0
    6.4078    1.4082   -1.8674 H   0  0  0  0  0  0  0  0  0  0  0  0
    6.8435    0.0807   -1.0121 H   0  0  0  0  0  0  0  0  0  0  0  0
    2.7213    4.4030    1.0112 H   0  0  0  0  0  0  0  0  0  0  0  0
    3.4289    4.9483   -0.5382 H   0  0  0  0  0  0  0  0  0  0  0  0
    3.0625    6.1326    0.7475 H   0  0  0  0  0  0  0  0  0  0  0  0
    4.0991    4.4872    3.1410 H   0  0  0  0  0  0  0  0  0  0  0  0
    4.5092    6.2062    2.8759 H   0  0  0  0  0  0  0  0  0  0  0  0
    5.8072    4.9958    3.0811 H   0  0  0  0  0  0  0  0  0  0  0  0
    5.8874    5.6678   -0.6231 H   0  0  0  0  0  0  0  0  0  0  0  0
    6.8624    5.6569    0.8747 H   0  0  0  0  0  0  0  0  0  0  0  0
    5.6040    6.8977    0.6421 H   0  0  0  0  0  0  0  0  0  0  0  0
    4.5781   -0.8080    1.7638 H   0  0  0  0  0  0  0  0  0  0  0  0
  1  2  1  0
  1 16  1  0
  1 17  1  0
  1 18  1  0
  2  3  1  0
  2 15  1  0
  3  4  2  0
  3 19  1  0
  4  5  1  0
  4 14  1  0
  5  6  1  0
  5  7  1  0
  5 20  1  1
  6 21  1  0
  6 22  1  0
  7  8  2  0
  7  9  1  0
 10  9  1  1
 10 11  1  0
 10 12  1  0
 10 13  1  0
 11 23  1  0
 11 24  1  0
 11 25  1  0
 12 26  1  0
 12 27  1  0
 12 28  1  0
 13 29  1  0
 13 30  1  0
 13 31  1  0
 14 15  2  0
 14 32  1  0
M  END

