
     RDKit          3D

 22 23  0  0  0  0  0  0  0  0999 V2000
    1.1418   -0.1895    0.7401 N   0  0  0  0  0  0  0  0  0  0  0  0
    2.3305   -0.0198    0.3057 C   0  0  0  0  0  0  0  0  0  0  0  0
    3.1794    1.1750    0.1385 C   0  0  0  0  0  0  0  0  0  0  0  0
    2.9423    2.4085    0.6707 C   0  0  0  0  0  0  0  0  0  0  0  0
    1.8858    2.7386    1.4831 N   0  0  0  0  0  0  0  0  0  0  0  0
    3.9139    3.5420    0.3849 C   0  0  1  0  0  0  0  0  0  0  0  0
    3.3623    4.7359    0.7473 F   0  0  0  0  0  0  0  0  0  0  0  0
    5.0496    3.3829    1.1148 F   0  0  0  0  0  0  0  0  0  0  0  0
    4.4168    0.7977   -0.6256 C   0  0  1  0  0  0  0  0  0  0  0  0
    4.7965    1.4598   -1.4096 H   0  0  0  0  0  0  0  0  0  0  0  0
    5.3961   -0.1040    0.0911 C   0  0  0  0  0  0  0  0  0  0  0  0
    4.3856   -0.7006   -0.8486 C   0  0  1  0  0  0  0  0  0  0  0  0
    4.7102   -1.1552   -1.7870 H   0  0  0  0  0  0  0  0  0  0  0  0
    3.1005   -1.2372   -0.2563 C   0  0  1  0  0  0  0  0  0  0  0  0
    3.3147   -2.1590    0.7251 F   0  0  0  0  0  0  0  0  0  0  0  0
    2.3659   -1.8556   -1.2195 F   0  0  0  0  0  0  0  0  0  0  0  0
    0.6999    0.6982    0.9935 H   0  0  0  0  0  0  0  0  0  0  0  0
    1.5134    2.0188    2.0930 H   0  0  0  0  0  0  0  0  0  0  0  0
    1.8915    3.6738    1.8732 H   0  0  0  0  0  0  0  0  0  0  0  0
    4.1931    3.6059   -0.6786 H   0  0  0  0  0  0  0  0  0  0  0  0
    5.2700   -0.2581    1.1664 H   0  0  0  0  0  0  0  0  0  0  0  0
    6.4354   -0.0988   -0.2483 H   0  0  0  0  0  0  0  0  0  0  0  0
  1  2  2  0
  1 17  1  0
  2  3  1  0
  2 14  1  0
  3  4  2  0
  3  9  1  0
  4  5  1  0
  4  6  1  0
  5 18  1  0
  5 19  1  0
  6  7  1  0
  6  8  1  0
  6 20  1  6
  9 10  1  6
  9 11  1  0
  9 12  1  0
 11 12  1  0
 11 21  1  0
 11 22  1  0
 12 13  1  6
 12 14  1  0
 14 15  1  1
 14 16  1  0
M  END

