
     RDKit          3D

 36 36  0  0  0  0  0  0  0  0999 V2000
    3.6936   -0.4554   -1.5537 C   0  0  0  0  0  0  0  0  0  0  0  0
    2.7906   -0.2044   -0.3410 C   0  0  1  0  0  0  0  0  0  0  0  0
    2.6632    1.2879   -0.0160 C   0  0  0  0  0  0  0  0  0  0  0  0
    1.4101   -0.8282   -0.5585 C   0  0  0  0  0  0  0  0  0  0  0  0
    3.2968   -0.9325    0.8244 O   0  0  0  0  0  0  0  0  0  0  0  0
    4.5127   -0.6699    1.3549 C   0  0  0  0  0  0  0  0  0  0  0  0
    5.2949    0.1581    0.9246 O   0  0  0  0  0  0  0  0  0  0  0  0
    4.7608   -1.4563    2.4518 N   0  0  0  0  0  0  0  0  0  0  0  0
    3.8737   -2.4949    2.9623 C   0  0  0  0  0  0  0  0  0  0  0  0
    4.5660   -3.8654    2.9112 C   0  0  0  0  0  0  0  0  0  0  0  0
    5.9474   -3.8623    3.5804 C   0  0  2  0  0  0  0  0  0  0  0  0
    6.6058   -5.0454    3.1866 F   0  0  0  0  0  0  0  0  0  0  0  0
    5.8343   -3.8754    5.1159 C   0  0  0  0  0  0  0  0  0  0  0  0
    6.3945   -4.9481    5.7229 N   0  0  0  0  0  0  0  0  0  0  0  0
    5.2777   -2.9675    5.7142 O   0  0  0  0  0  0  0  0  0  0  0  0
    6.7967   -2.6814    3.0886 C   0  0  0  0  0  0  0  0  0  0  0  0
    6.0425   -1.3455    3.1371 C   0  0  0  0  0  0  0  0  0  0  0  0
    3.2469    0.0019   -2.4506 H   0  0  0  0  0  0  0  0  0  0  0  0
    3.7952   -1.5367   -1.7378 H   0  0  0  0  0  0  0  0  0  0  0  0
    4.6912   -0.0272   -1.3961 H   0  0  0  0  0  0  0  0  0  0  0  0
    2.1772    1.8106   -0.8548 H   0  0  0  0  0  0  0  0  0  0  0  0
    3.6483    1.7377    0.1596 H   0  0  0  0  0  0  0  0  0  0  0  0
    2.0416    1.4319    0.8818 H   0  0  0  0  0  0  0  0  0  0  0  0
    0.9124   -0.3613   -1.4220 H   0  0  0  0  0  0  0  0  0  0  0  0
    0.7752   -0.6846    0.3290 H   0  0  0  0  0  0  0  0  0  0  0  0
    1.4979   -1.9086   -0.7499 H   0  0  0  0  0  0  0  0  0  0  0  0
    2.9595   -2.5128    2.3611 H   0  0  0  0  0  0  0  0  0  0  0  0
    3.6033   -2.2604    4.0045 H   0  0  0  0  0  0  0  0  0  0  0  0
    4.7294   -4.1574    1.8608 H   0  0  0  0  0  0  0  0  0  0  0  0
    3.9272   -4.6350    3.3739 H   0  0  0  0  0  0  0  0  0  0  0  0
    6.8398   -5.6748    5.1785 H   0  0  0  0  0  0  0  0  0  0  0  0
    6.3535   -5.0087    6.7332 H   0  0  0  0  0  0  0  0  0  0  0  0
    7.0769   -2.9105    2.0474 H   0  0  0  0  0  0  0  0  0  0  0  0
    7.7271   -2.6200    3.6758 H   0  0  0  0  0  0  0  0  0  0  0  0
    6.6237   -0.5592    2.6415 H   0  0  0  0  0  0  0  0  0  0  0  0
    5.8720   -1.0543    4.1860 H   0  0  0  0  0  0  0  0  0  0  0  0
  1  2  1  0
  1 18  1  0
  1 19  1  0
  1 20  1  0
  2  3  1  0
  2  4  1  0
  2  5  1  1
  3 21  1  0
  3 22  1  0
  3 23  1  0
  4 24  1  0
  4 25  1  0
  4 26  1  0
  5  6  1  0
  6  7  2  0
  6  8  1  0
  8  9  1  0
  8 17  1  0
  9 10  1  0
  9 27  1  0
  9 28  1  0
 10 11  1  0
 10 29  1  0
 10 30  1  0
 11 12  1  6
 11 13  1  0
 11 16  1  0
 13 14  1  0
 13 15  2  0
 14 31  1  0
 14 32  1  0
 16 17  1  0
 16 33  1  0
 16 34  1  0
 17 35  1  0
 17 36  1  0
M  END

