
     RDKit          3D

 32 33  0  0  0  0  0  0  0  0999 V2000
    0.8062   -0.0848    0.0357 C   0  0  0  0  0  0  0  0  0  0  0  0
    2.3393   -0.0912    0.1465 C   0  0  1  0  0  0  0  0  0  0  0  0
    2.7804    0.2228    1.5807 C   0  0  0  0  0  0  0  0  0  0  0  0
    2.9033   -1.4580   -0.2873 C   0  0  0  0  0  0  0  0  0  0  0  0
    2.6661   -1.7066   -1.6686 O   0  0  0  0  0  0  0  0  0  0  0  0
    3.1581   -0.7108   -2.5333 C   0  0  2  0  0  0  0  0  0  0  0  0
    4.6801   -0.7837   -2.7085 C   0  0  0  0  0  0  0  0  0  0  0  0
    5.4085    0.3470   -3.1045 C   0  0  0  0  0  0  0  0  0  0  0  0
    6.7873    0.2665   -3.3404 C   0  0  0  0  0  0  0  0  0  0  0  0
    7.4536   -0.9470   -3.1895 C   0  0  0  0  0  0  0  0  0  0  0  0
    6.7334   -2.0901   -2.8031 C   0  0  0  0  0  0  0  0  0  0  0  0
    7.4293   -3.3921   -2.6433 C   0  0  0  0  0  0  0  0  0  0  0  0
    8.6135   -3.5670   -2.8165 O   0  0  0  0  0  0  0  0  0  0  0  0
    5.3540   -2.0031   -2.5689 C   0  0  0  0  0  0  0  0  0  0  0  0
    2.7140    0.5771   -2.1824 O   0  0  0  0  0  0  0  0  0  0  0  0
    2.9523    0.9351   -0.8256 C   0  0  0  0  0  0  0  0  0  0  0  0
    0.3622   -0.8383    0.7066 H   0  0  0  0  0  0  0  0  0  0  0  0
    0.4841   -0.3086   -0.9906 H   0  0  0  0  0  0  0  0  0  0  0  0
    0.3977    0.8996    0.3167 H   0  0  0  0  0  0  0  0  0  0  0  0
    2.3767   -0.5198    2.2884 H   0  0  0  0  0  0  0  0  0  0  0  0
    2.4144    1.2133    1.8973 H   0  0  0  0  0  0  0  0  0  0  0  0
    3.8782    0.2217    1.6818 H   0  0  0  0  0  0  0  0  0  0  0  0
    2.4169   -2.2820    0.2574 H   0  0  0  0  0  0  0  0  0  0  0  0
    3.9884   -1.4989   -0.0673 H   0  0  0  0  0  0  0  0  0  0  0  0
    2.6843   -0.9203   -3.5066 H   0  0  0  0  0  0  0  0  0  0  0  0
    4.8833    1.2967   -3.2276 H   0  0  0  0  0  0  0  0  0  0  0  0
    7.3375    1.1605   -3.6449 H   0  0  0  0  0  0  0  0  0  0  0  0
    8.5274   -1.0408   -3.3662 H   0  0  0  0  0  0  0  0  0  0  0  0
    6.7597   -4.2395   -2.3387 H   0  0  0  0  0  0  0  0  0  0  0  0
    4.7932   -2.8943   -2.2739 H   0  0  0  0  0  0  0  0  0  0  0  0
    2.5019    1.9307   -0.6911 H   0  0  0  0  0  0  0  0  0  0  0  0
    4.0398    1.0251   -0.6343 H   0  0  0  0  0  0  0  0  0  0  0  0
  2  1  1  1
  1 17  1  0
  1 18  1  0
  1 19  1  0
  2  3  1  0
  2  4  1  0
  2 16  1  0
  3 20  1  0
  3 21  1  0
  3 22  1  0
  4  5  1  0
  4 23  1  0
  4 24  1  0
  5  6  1  0
  6  7  1  0
  6 15  1  0
  6 25  1  6
  7  8  2  0
  7 14  1  0
  8  9  1  0
  8 26  1  0
  9 10  2  0
  9 27  1  0
 10 11  1  0
 10 28  1  0
 11 12  1  0
 11 14  2  0
 12 13  2  0
 12 29  1  0
 14 30  1  0
 15 16  1  0
 16 31  1  0
 16 32  1  0
M  END

