
     RDKit          3D

 45 47  0  0  0  0  0  0  0  0999 V2000
    5.7678    2.3087    0.9366 C   0  0  0  0  0  0  0  0  0  0  0  0
    5.2668    1.2028    0.1896 O   0  0  0  0  0  0  0  0  0  0  0  0
    4.0064    1.2776   -0.2822 C   0  0  0  0  0  0  0  0  0  0  0  0
    3.2539    2.3267   -0.0288 N   0  0  0  0  0  0  0  0  0  0  0  0
    2.0109    2.3164   -0.5362 C   0  0  0  0  0  0  0  0  0  0  0  0
    1.4791    1.3508   -1.2661 N   0  0  0  0  0  0  0  0  0  0  0  0
    2.2466    0.2783   -1.5316 C   0  0  0  0  0  0  0  0  0  0  0  0
    3.5577    0.1728   -1.0561 C   0  0  0  0  0  0  0  0  0  0  0  0
    4.4551   -0.8805   -1.2470 N   0  0  0  0  0  0  0  0  0  0  0  0
    4.2230   -2.0422   -1.9668 C   0  0  0  0  0  0  0  0  0  0  0  0
    3.1730   -2.2519   -2.5559 O   0  0  0  0  0  0  0  0  0  0  0  0
    5.2690   -2.9587   -1.9832 N   0  0  0  0  0  0  0  0  0  0  0  0
    4.9860   -4.2430   -2.6370 C   0  0  0  0  0  0  0  0  0  0  0  0
    4.2623   -5.2513   -1.7360 C   0  0  0  0  0  0  0  0  0  0  0  0
    4.8897   -5.4876   -0.3513 C   0  0  0  0  0  0  0  0  0  0  0  0
    4.8581   -4.2601    0.5819 C   0  0  0  0  0  0  0  0  0  0  0  0
    5.9953   -3.2339    0.4188 C   0  0  0  0  0  0  0  0  0  0  0  0
    6.4020   -2.9622   -1.0474 C   0  0  2  0  0  0  0  0  0  0  0  0
    7.3602   -1.7836   -1.2470 C   0  0  0  0  0  0  0  0  0  0  0  0
    7.5713   -1.2446   -2.5260 C   0  0  0  0  0  0  0  0  0  0  0  0
    8.4958   -0.2115   -2.6915 C   0  0  0  0  0  0  0  0  0  0  0  0
    9.2119    0.3100   -1.6907 N   0  0  0  0  0  0  0  0  0  0  0  0
    9.0157   -0.1998   -0.4750 C   0  0  0  0  0  0  0  0  0  0  0  0
    8.1112   -1.2325   -0.1993 C   0  0  0  0  0  0  0  0  0  0  0  0
    6.8003    2.0488    1.2015 H   0  0  0  0  0  0  0  0  0  0  0  0
    5.1671    2.4754    1.8435 H   0  0  0  0  0  0  0  0  0  0  0  0
    5.7493    3.2299    0.3350 H   0  0  0  0  0  0  0  0  0  0  0  0
    1.3882    3.1926   -0.3204 H   0  0  0  0  0  0  0  0  0  0  0  0
    1.8229   -0.5221   -2.1377 H   0  0  0  0  0  0  0  0  0  0  0  0
    5.3823   -0.6965   -0.8786 H   0  0  0  0  0  0  0  0  0  0  0  0
    5.9509   -4.6538   -2.9781 H   0  0  0  0  0  0  0  0  0  0  0  0
    4.3743   -4.0433   -3.5260 H   0  0  0  0  0  0  0  0  0  0  0  0
    4.1989   -6.2093   -2.2813 H   0  0  0  0  0  0  0  0  0  0  0  0
    3.2248   -4.9029   -1.5992 H   0  0  0  0  0  0  0  0  0  0  0  0
    5.9242   -5.8680   -0.4510 H   0  0  0  0  0  0  0  0  0  0  0  0
    4.3258   -6.3013    0.1341 H   0  0  0  0  0  0  0  0  0  0  0  0
    4.8738   -4.6008    1.6303 H   0  0  0  0  0  0  0  0  0  0  0  0
    3.8860   -3.7539    0.4535 H   0  0  0  0  0  0  0  0  0  0  0  0
    6.8928   -3.5947    0.9489 H   0  0  0  0  0  0  0  0  0  0  0  0
    5.7016   -2.2960    0.9177 H   0  0  0  0  0  0  0  0  0  0  0  0
    6.9925   -3.8373   -1.3625 H   0  0  0  0  0  0  0  0  0  0  0  0
    7.0095   -1.6225   -3.3824 H   0  0  0  0  0  0  0  0  0  0  0  0
    8.6632    0.2159   -3.6874 H   0  0  0  0  0  0  0  0  0  0  0  0
    9.6091    0.2329    0.3399 H   0  0  0  0  0  0  0  0  0  0  0  0
    8.0103   -1.5901    0.8259 H   0  0  0  0  0  0  0  0  0  0  0  0
  1  2  1  0
  1 25  1  0
  1 26  1  0
  1 27  1  0
  2  3  1  0
  3  4  2  0
  3  8  1  0
  4  5  1  0
  5  6  2  0
  5 28  1  0
  6  7  1  0
  7  8  2  0
  7 29  1  0
  8  9  1  0
  9 10  1  0
  9 30  1  0
 10 11  2  0
 10 12  1  0
 12 13  1  0
 12 18  1  0
 13 14  1  0
 13 31  1  0
 13 32  1  0
 14 15  1  0
 14 33  1  0
 14 34  1  0
 15 16  1  0
 15 35  1  0
 15 36  1  0
 16 17  1  0
 16 37  1  0
 16 38  1  0
 17 18  1  0
 17 39  1  0
 17 40  1  0
 18 19  1  0
 18 41  1  6
 19 20  2  0
 19 24  1  0
 20 21  1  0
 20 42  1  0
 21 22  2  0
 21 43  1  0
 22 23  1  0
 23 24  2  0
 23 44  1  0
 24 45  1  0
M  END

