
     RDKit          3D

 37 38  0  0  0  0  0  0  0  0999 V2000
    3.8579   -2.4335   -1.6688 C   0  0  0  0  0  0  0  0  0  0  0  0
    3.0171   -1.4177   -0.8926 C   0  0  0  0  0  0  0  0  0  0  0  0
    3.0278   -0.0738   -1.4895 N   0  0  0  0  0  0  0  0  0  0  0  0
    1.9251    0.2162   -2.4160 C   0  0  0  0  0  0  0  0  0  0  0  0
    0.6591    0.8889   -1.8270 C   0  0  1  0  0  0  0  0  0  0  0  0
    0.1425    0.3340   -0.4804 C   0  0  0  0  0  0  0  0  0  0  0  0
   -0.5113    1.5547    0.1808 C   0  0  0  0  0  0  0  0  0  0  0  0
    0.4446    2.6813   -0.2276 C   0  0  0  0  0  0  0  0  0  0  0  0
    0.7915    2.3292   -1.5952 N   0  0  0  0  0  0  0  0  0  0  0  0
    4.1183    0.7165   -1.2250 C   0  0  0  0  0  0  0  0  0  0  0  0
    5.0289    0.2485   -0.3926 N   0  0  0  0  0  0  0  0  0  0  0  0
    6.1253    0.9825   -0.0797 C   0  0  0  0  0  0  0  0  0  0  0  0
    6.3530    2.2151   -0.6086 C   0  0  0  0  0  0  0  0  0  0  0  0
    5.4274    2.7322   -1.4951 N   0  0  0  0  0  0  0  0  0  0  0  0
    5.6233    4.0452   -2.1035 C   0  0  0  0  0  0  0  0  0  0  0  0
    4.2829    2.0525   -1.8761 C   0  0  0  0  0  0  0  0  0  0  0  0
    3.5120    2.5727   -2.6882 O   0  0  0  0  0  0  0  0  0  0  0  0
    3.7781   -3.4282   -1.2006 H   0  0  0  0  0  0  0  0  0  0  0  0
    4.9175   -2.1408   -1.6686 H   0  0  0  0  0  0  0  0  0  0  0  0
    3.5180   -2.5237   -2.7134 H   0  0  0  0  0  0  0  0  0  0  0  0
    3.3835   -1.3470    0.1404 H   0  0  0  0  0  0  0  0  0  0  0  0
    1.9706   -1.7502   -0.8551 H   0  0  0  0  0  0  0  0  0  0  0  0
    1.6229   -0.7493   -2.8529 H   0  0  0  0  0  0  0  0  0  0  0  0
    2.2884    0.8398   -3.2392 H   0  0  0  0  0  0  0  0  0  0  0  0
   -0.1149    0.7082   -2.6050 H   0  0  0  0  0  0  0  0  0  0  0  0
    0.9907    0.0105    0.1435 H   0  0  0  0  0  0  0  0  0  0  0  0
   -0.5365   -0.5251   -0.5997 H   0  0  0  0  0  0  0  0  0  0  0  0
   -0.6230    1.4533    1.2714 H   0  0  0  0  0  0  0  0  0  0  0  0
   -1.5110    1.7379   -0.2477 H   0  0  0  0  0  0  0  0  0  0  0  0
    1.3137    2.7053    0.4687 H   0  0  0  0  0  0  0  0  0  0  0  0
   -0.0343    3.6757   -0.1706 H   0  0  0  0  0  0  0  0  0  0  0  0
    1.6507    2.7286   -1.9628 H   0  0  0  0  0  0  0  0  0  0  0  0
    6.8392    0.5404    0.6208 H   0  0  0  0  0  0  0  0  0  0  0  0
    7.2267    2.8271   -0.3863 H   0  0  0  0  0  0  0  0  0  0  0  0
    6.5460    4.4882   -1.7097 H   0  0  0  0  0  0  0  0  0  0  0  0
    4.7675    4.6986   -1.8799 H   0  0  0  0  0  0  0  0  0  0  0  0
    5.6872    3.9538   -3.1977 H   0  0  0  0  0  0  0  0  0  0  0  0
  1  2  1  0
  1 18  1  0
  1 19  1  0
  1 20  1  0
  2  3  1  0
  2 21  1  0
  2 22  1  0
  3  4  1  0
  3 10  1  0
  4  5  1  0
  4 23  1  0
  4 24  1  0
  5  6  1  0
  5  9  1  0
  5 25  1  6
  6  7  1  0
  6 26  1  0
  6 27  1  0
  7  8  1  0
  7 28  1  0
  7 29  1  0
  8  9  1  0
  8 30  1  0
  8 31  1  0
  9 32  1  0
 10 11  2  0
 10 16  1  0
 11 12  1  0
 12 13  2  0
 12 33  1  0
 13 14  1  0
 13 34  1  0
 14 15  1  0
 14 16  1  0
 15 35  1  0
 15 36  1  0
 15 37  1  0
 16 17  2  0
M  END

