
     RDKit          3D

 43 45  0  0  0  0  0  0  0  0999 V2000
    1.9857    0.7389   -1.0887 C   0  0  0  0  0  0  0  0  0  0  0  0
    2.3176    0.6726    0.3812 C   0  0  0  0  0  0  0  0  0  0  0  0
    3.1376    1.6315    0.9937 C   0  0  0  0  0  0  0  0  0  0  0  0
    3.4258    1.5614    2.3578 C   0  0  0  0  0  0  0  0  0  0  0  0
    2.8855    0.5340    3.1341 C   0  0  0  0  0  0  0  0  0  0  0  0
    2.0567   -0.4435    2.5645 C   0  0  0  0  0  0  0  0  0  0  0  0
    1.4355   -1.5395    3.3933 C   0  0  0  0  0  0  0  0  0  0  0  0
    1.7947   -0.3571    1.1840 C   0  0  0  0  0  0  0  0  0  0  0  0
    0.9481   -1.2903    0.6106 O   0  0  0  0  0  0  0  0  0  0  0  0
    1.5479   -2.4836    0.1103 C   0  0  0  0  0  0  0  0  0  0  0  0
    0.6992   -3.7047    0.4833 C   0  0  0  0  0  0  0  0  0  0  0  0
    1.1620   -4.5441    1.2470 O   0  0  0  0  0  0  0  0  0  0  0  0
   -0.5559   -3.8163   -0.0542 N   0  0  0  0  0  0  0  0  0  0  0  0
   -1.1825   -2.7151   -0.8002 C   0  0  0  0  0  0  0  0  0  0  0  0
   -2.3260   -3.1904   -1.7028 C   0  0  0  0  0  0  0  0  0  0  0  0
   -3.2714   -3.9934   -0.8662 C   0  0  0  0  0  0  0  0  0  0  0  0
   -5.0025   -4.0177   -0.9887 S   0  0  0  0  0  0  0  0  0  0  0  0
   -5.1270   -5.1130    0.3505 C   0  0  0  0  0  0  0  0  0  0  0  0
   -3.8958   -5.4304    0.8631 C   0  0  0  0  0  0  0  0  0  0  0  0
   -2.8259   -4.7831    0.1640 C   0  0  0  0  0  0  0  0  0  0  0  0
   -1.3516   -4.9838    0.4139 C   0  0  1  0  0  0  0  0  0  0  0  0
   -1.1679   -5.0764    1.4968 H   0  0  0  0  0  0  0  0  0  0  0  0
   -0.8584   -6.2848   -0.2483 C   0  0  0  0  0  0  0  0  0  0  0  0
    2.3073    1.6963   -1.5236 H   0  0  0  0  0  0  0  0  0  0  0  0
    0.9034    0.6255   -1.2577 H   0  0  0  0  0  0  0  0  0  0  0  0
    2.4845   -0.0649   -1.6576 H   0  0  0  0  0  0  0  0  0  0  0  0
    3.5512    2.4431    0.3885 H   0  0  0  0  0  0  0  0  0  0  0  0
    4.0676    2.3156    2.8201 H   0  0  0  0  0  0  0  0  0  0  0  0
    3.1027    0.4870    4.2048 H   0  0  0  0  0  0  0  0  0  0  0  0
    1.7294   -1.4468    4.4487 H   0  0  0  0  0  0  0  0  0  0  0  0
    1.7240   -2.5443    3.0448 H   0  0  0  0  0  0  0  0  0  0  0  0
    0.3350   -1.4977    3.3377 H   0  0  0  0  0  0  0  0  0  0  0  0
    2.5334   -2.6527    0.5661 H   0  0  0  0  0  0  0  0  0  0  0  0
    1.6821   -2.4138   -0.9866 H   0  0  0  0  0  0  0  0  0  0  0  0
   -0.4161   -2.2189   -1.4097 H   0  0  0  0  0  0  0  0  0  0  0  0
   -1.5722   -1.9561   -0.1010 H   0  0  0  0  0  0  0  0  0  0  0  0
   -1.9278   -3.7917   -2.5408 H   0  0  0  0  0  0  0  0  0  0  0  0
   -2.8159   -2.3100   -2.1471 H   0  0  0  0  0  0  0  0  0  0  0  0
   -6.1050   -5.4529    0.6880 H   0  0  0  0  0  0  0  0  0  0  0  0
   -3.7541   -6.0992    1.7142 H   0  0  0  0  0  0  0  0  0  0  0  0
   -1.0043   -6.2469   -1.3392 H   0  0  0  0  0  0  0  0  0  0  0  0
   -1.4277   -7.1432    0.1410 H   0  0  0  0  0  0  0  0  0  0  0  0
    0.2051   -6.4437   -0.0252 H   0  0  0  0  0  0  0  0  0  0  0  0
  1  2  1  0
  1 24  1  0
  1 25  1  0
  1 26  1  0
  2  3  2  0
  2  8  1  0
  3  4  1  0
  3 27  1  0
  4  5  2  0
  4 28  1  0
  5  6  1  0
  5 29  1  0
  6  7  1  0
  6  8  2  0
  7 30  1  0
  7 31  1  0
  7 32  1  0
  8  9  1  0
  9 10  1  0
 10 11  1  0
 10 33  1  0
 10 34  1  0
 11 12  2  0
 11 13  1  0
 13 14  1  0
 13 21  1  0
 14 15  1  0
 14 35  1  0
 14 36  1  0
 15 16  1  0
 15 37  1  0
 15 38  1  0
 16 17  1  0
 16 20  2  0
 17 18  1  0
 18 19  2  0
 18 39  1  0
 19 20  1  0
 19 40  1  0
 20 21  1  0
 21 22  1  1
 21 23  1  0
 23 41  1  0
 23 42  1  0
 23 43  1  0
M  END

