
     RDKit          3D

 60 62  0  0  0  0  0  0  0  0999 V2000
   -0.2449   -3.3767   -6.6525 C   0  0  0  0  0  0  0  0  0  0  0  0
   -1.6905   -3.3624   -6.1265 C   0  0  0  0  0  0  0  0  0  0  0  0
   -2.0764   -4.6075   -5.3517 C   0  0  0  0  0  0  0  0  0  0  0  0
   -2.7819   -5.6336   -5.9943 C   0  0  0  0  0  0  0  0  0  0  0  0
   -3.1284   -6.8162   -5.3375 C   0  0  0  0  0  0  0  0  0  0  0  0
   -2.7628   -6.9836   -4.0007 C   0  0  0  0  0  0  0  0  0  0  0  0
   -2.0624   -5.9827   -3.3266 C   0  0  0  0  0  0  0  0  0  0  0  0
   -1.7146   -4.7933   -3.9927 C   0  0  0  0  0  0  0  0  0  0  0  0
   -1.0122   -3.7614   -3.3390 N   0  0  0  0  0  0  0  0  0  0  0  0
   -0.5497   -3.6942   -2.0546 C   0  0  0  0  0  0  0  0  0  0  0  0
   -0.6547   -4.5520   -1.1963 O   0  0  0  0  0  0  0  0  0  0  0  0
    0.2166   -2.3893   -1.7580 C   0  0  0  0  0  0  0  0  0  0  0  0
   -0.0905   -1.2972   -2.6726 N   0  0  0  0  0  0  0  0  0  0  0  0
   -1.3096   -0.5509   -2.3279 C   0  0  0  0  0  0  0  0  0  0  0  0
   -1.0686    0.4976   -1.2294 C   0  0  0  0  0  0  0  0  0  0  0  0
    0.0249    1.4259   -1.5453 N   0  0  0  0  0  0  0  0  0  0  0  0
   -0.2253    2.5400   -2.4721 C   0  0  1  0  0  0  0  0  0  0  0  0
   -1.6584    3.0874   -2.4402 C   0  0  0  0  0  0  0  0  0  0  0  0
    0.7228    3.7278   -2.1690 C   0  0  0  0  0  0  0  0  0  0  0  0
    0.9886    4.5509   -3.0252 O   0  0  0  0  0  0  0  0  0  0  0  0
    1.1434    3.7625   -0.8644 N   0  0  0  0  0  0  0  0  0  0  0  0
    1.9422    4.7050   -0.2119 C   0  0  0  0  0  0  0  0  0  0  0  0
    2.4570    5.8494   -0.8532 C   0  0  0  0  0  0  0  0  0  0  0  0
    3.2446    6.7471   -0.1387 C   0  0  0  0  0  0  0  0  0  0  0  0
    3.5394    6.5335    1.2211 C   0  0  0  0  0  0  0  0  0  0  0  0
    4.3525    7.4653    1.9481 C   0  0  0  0  0  0  0  0  0  0  0  0
    5.0109    8.2186    2.5387 N   0  0  0  0  0  0  0  0  0  0  0  0
    3.0229    5.3886    1.8584 C   0  0  0  0  0  0  0  0  0  0  0  0
    2.2365    4.4897    1.1499 C   0  0  0  0  0  0  0  0  0  0  0  0
    1.2441    0.6668   -1.8748 C   0  0  0  0  0  0  0  0  0  0  0  0
    1.0103   -0.3782   -2.9785 C   0  0  0  0  0  0  0  0  0  0  0  0
   -0.0186   -2.4567   -7.2156 H   0  0  0  0  0  0  0  0  0  0  0  0
   -0.0832   -4.2348   -7.3233 H   0  0  0  0  0  0  0  0  0  0  0  0
    0.4874   -3.4605   -5.8335 H   0  0  0  0  0  0  0  0  0  0  0  0
   -2.3794   -3.2554   -6.9795 H   0  0  0  0  0  0  0  0  0  0  0  0
   -1.8509   -2.4575   -5.5123 H   0  0  0  0  0  0  0  0  0  0  0  0
   -3.0673   -5.4937   -7.0413 H   0  0  0  0  0  0  0  0  0  0  0  0
   -3.6803   -7.5970   -5.8663 H   0  0  0  0  0  0  0  0  0  0  0  0
   -3.0246   -7.9018   -3.4684 H   0  0  0  0  0  0  0  0  0  0  0  0
   -1.7735   -6.1018   -2.2847 H   0  0  0  0  0  0  0  0  0  0  0  0
   -0.8117   -2.9087   -3.8593 H   0  0  0  0  0  0  0  0  0  0  0  0
    1.2875   -2.6398   -1.8416 H   0  0  0  0  0  0  0  0  0  0  0  0
    0.0366   -2.1738   -0.6880 H   0  0  0  0  0  0  0  0  0  0  0  0
   -2.0920   -1.2613   -2.0164 H   0  0  0  0  0  0  0  0  0  0  0  0
   -1.6796   -0.0520   -3.2418 H   0  0  0  0  0  0  0  0  0  0  0  0
   -0.7985   -0.0163   -0.2901 H   0  0  0  0  0  0  0  0  0  0  0  0
   -1.9918    1.0527   -1.0170 H   0  0  0  0  0  0  0  0  0  0  0  0
    0.0039    2.2783   -3.5231 H   0  0  0  0  0  0  0  0  0  0  0  0
   -1.9581    3.3739   -1.4198 H   0  0  0  0  0  0  0  0  0  0  0  0
   -2.3872    2.3625   -2.8311 H   0  0  0  0  0  0  0  0  0  0  0  0
   -1.7033    3.9832   -3.0753 H   0  0  0  0  0  0  0  0  0  0  0  0
    0.8234    2.9471   -0.3382 H   0  0  0  0  0  0  0  0  0  0  0  0
    2.2308    6.0151   -1.9042 H   0  0  0  0  0  0  0  0  0  0  0  0
    3.6408    7.6321   -0.6406 H   0  0  0  0  0  0  0  0  0  0  0  0
    3.2429    5.2100    2.9126 H   0  0  0  0  0  0  0  0  0  0  0  0
    1.8395    3.6044    1.6541 H   0  0  0  0  0  0  0  0  0  0  0  0
    1.5937    0.1597   -0.9575 H   0  0  0  0  0  0  0  0  0  0  0  0
    2.0423    1.3650   -2.1729 H   0  0  0  0  0  0  0  0  0  0  0  0
    1.9292   -0.9587   -3.1572 H   0  0  0  0  0  0  0  0  0  0  0  0
    0.7723    0.1350   -3.9271 H   0  0  0  0  0  0  0  0  0  0  0  0
  1  2  1  0
  1 32  1  0
  1 33  1  0
  1 34  1  0
  2  3  1  0
  2 35  1  0
  2 36  1  0
  3  4  2  0
  3  8  1  0
  4  5  1  0
  4 37  1  0
  5  6  2  0
  5 38  1  0
  6  7  1  0
  6 39  1  0
  7  8  2  0
  7 40  1  0
  8  9  1  0
  9 10  1  0
  9 41  1  0
 10 11  2  0
 10 12  1  0
 12 13  1  0
 12 42  1  0
 12 43  1  0
 13 14  1  0
 13 31  1  0
 14 15  1  0
 14 44  1  0
 14 45  1  0
 15 16  1  0
 15 46  1  0
 15 47  1  0
 16 17  1  0
 16 30  1  0
 17 18  1  0
 17 19  1  0
 17 48  1  6
 18 49  1  0
 18 50  1  0
 18 51  1  0
 19 20  2  0
 19 21  1  0
 21 22  1  0
 21 52  1  0
 22 23  2  0
 22 29  1  0
 23 24  1  0
 23 53  1  0
 24 25  2  0
 24 54  1  0
 25 26  1  0
 25 28  1  0
 26 27  3  0
 28 29  2  0
 28 55  1  0
 29 56  1  0
 30 31  1  0
 30 57  1  0
 30 58  1  0
 31 59  1  0
 31 60  1  0
M  END

