
     RDKit          3D

 37 38  0  0  0  0  0  0  0  0999 V2000
    1.5798   -0.2327    0.6074 C   0  0  0  0  0  0  0  0  0  0  0  0
    2.6283   -0.2796   -0.3960 N   0  0  0  0  0  0  0  0  0  0  0  0
    3.8606    0.3838   -0.0241 C   0  0  0  0  0  0  0  0  0  0  0  0
    4.7984   -0.4549    0.8271 C   0  0  0  0  0  0  0  0  0  0  0  0
    4.6632   -1.8171    0.9309 C   0  0  0  0  0  0  0  0  0  0  0  0
    5.5936   -2.5711    1.7347 C   0  0  0  0  0  0  0  0  0  0  0  0
    5.6237   -3.7712    1.9495 O   0  0  0  0  0  0  0  0  0  0  0  0
    6.5870   -1.7425    2.3327 N   0  0  0  0  0  0  0  0  0  0  0  0
    7.2482   -2.2522    2.9087 H   0  0  0  0  0  0  0  0  0  0  0  0
    6.6663   -0.3872    2.1637 C   0  0  0  0  0  0  0  0  0  0  0  0
    7.6902    0.2988    2.7589 N   0  0  0  0  0  0  0  0  0  0  0  0
    8.6584   -0.3089    3.6647 C   0  0  0  0  0  0  0  0  0  0  0  0
    8.2625   -0.2571    5.1465 C   0  0  0  0  0  0  0  0  0  0  0  0
    7.9299    1.1468    5.6785 C   0  0  0  0  0  0  0  0  0  0  0  0
    6.6602    1.7761    5.0731 C   0  0  0  0  0  0  0  0  0  0  0  0
    6.8064    2.4739    3.7072 C   0  0  0  0  0  0  0  0  0  0  0  0
    7.7065    1.7600    2.6797 C   0  0  0  0  0  0  0  0  0  0  0  0
    5.7841    0.2659    1.4382 N   0  0  0  0  0  0  0  0  0  0  0  0
    0.6715   -0.7230    0.2235 H   0  0  0  0  0  0  0  0  0  0  0  0
    1.3060    0.7966    0.9310 H   0  0  0  0  0  0  0  0  0  0  0  0
    1.8931   -0.7854    1.5078 H   0  0  0  0  0  0  0  0  0  0  0  0
    2.2878    0.0827   -1.2821 H   0  0  0  0  0  0  0  0  0  0  0  0
    3.7069    1.3433    0.5177 H   0  0  0  0  0  0  0  0  0  0  0  0
    4.4164    0.6480   -0.9413 H   0  0  0  0  0  0  0  0  0  0  0  0
    3.8621   -2.3433    0.4153 H   0  0  0  0  0  0  0  0  0  0  0  0
    9.6117    0.2275    3.5225 H   0  0  0  0  0  0  0  0  0  0  0  0
    8.8656   -1.3463    3.3576 H   0  0  0  0  0  0  0  0  0  0  0  0
    9.0923   -0.6905    5.7321 H   0  0  0  0  0  0  0  0  0  0  0  0
    7.3906   -0.9152    5.3125 H   0  0  0  0  0  0  0  0  0  0  0  0
    8.7969    1.8198    5.5399 H   0  0  0  0  0  0  0  0  0  0  0  0
    7.7922    1.0632    6.7694 H   0  0  0  0  0  0  0  0  0  0  0  0
    6.2520    2.5147    5.7829 H   0  0  0  0  0  0  0  0  0  0  0  0
    5.8895    0.9887    4.9979 H   0  0  0  0  0  0  0  0  0  0  0  0
    7.2134    3.4908    3.8485 H   0  0  0  0  0  0  0  0  0  0  0  0
    5.8015    2.5984    3.2750 H   0  0  0  0  0  0  0  0  0  0  0  0
    8.7556    2.0613    2.8236 H   0  0  0  0  0  0  0  0  0  0  0  0
    7.4108    2.0559    1.6649 H   0  0  0  0  0  0  0  0  0  0  0  0
  1  2  1  0
  1 19  1  0
  1 20  1  0
  1 21  1  0
  2  3  1  0
  2 22  1  0
  3  4  1  0
  3 23  1  0
  3 24  1  0
  4  5  2  0
  4 18  1  0
  5  6  1  0
  5 25  1  0
  6  7  2  0
  6  8  1  0
  8  9  1  0
  8 10  1  0
 10 11  1  0
 10 18  2  0
 11 12  1  0
 11 17  1  0
 12 13  1  0
 12 26  1  0
 12 27  1  0
 13 14  1  0
 13 28  1  0
 13 29  1  0
 14 15  1  0
 14 30  1  0
 14 31  1  0
 15 16  1  0
 15 32  1  0
 15 33  1  0
 16 17  1  0
 16 34  1  0
 16 35  1  0
 17 36  1  0
 17 37  1  0
M  END

