
     RDKit          3D

 46 47  0  0  0  0  0  0  0  0999 V2000
    8.8615   -0.9849   -2.1522 C   0  0  0  0  0  0  0  0  0  0  0  0
    7.3673   -0.6264   -2.1013 C   0  0  0  0  0  0  0  0  0  0  0  0
    7.1102    0.8582   -2.2291 C   0  0  0  0  0  0  0  0  0  0  0  0
    6.9608    1.4601   -3.4918 C   0  0  0  0  0  0  0  0  0  0  0  0
    6.7638    2.8318   -3.6149 C   0  0  0  0  0  0  0  0  0  0  0  0
    6.7075    3.6527   -2.4745 C   0  0  0  0  0  0  0  0  0  0  0  0
    6.4885    5.1173   -2.6697 C   0  0  0  0  0  0  0  0  0  0  0  0
    6.3915    5.6117   -3.7745 O   0  0  0  0  0  0  0  0  0  0  0  0
    6.3883    5.9994   -1.4174 C   0  0  0  0  0  0  0  0  0  0  0  0
    6.0826    7.3351   -1.7592 O   0  0  0  0  0  0  0  0  0  0  0  0
    7.1110    8.0901   -2.2222 C   0  0  0  0  0  0  0  0  0  0  0  0
    8.2513    7.6889   -2.2444 O   0  0  0  0  0  0  0  0  0  0  0  0
    6.6662    9.4617   -2.5968 C   0  0  0  0  0  0  0  0  0  0  0  0
    5.6417   10.0314   -1.8321 C   0  0  0  0  0  0  0  0  0  0  0  0
    5.3545   11.3887   -1.9250 C   0  0  0  0  0  0  0  0  0  0  0  0
    4.2940   11.9620   -1.0989 N   0  0  0  0  0  0  0  0  0  0  0  0
    3.6679   11.2076   -0.3662 O   0  0  0  0  0  0  0  0  0  0  0  0
    4.0936   13.1666   -1.1888 O   0  0  0  0  0  0  0  0  0  0  0  0
    6.0911   12.2128   -2.7847 C   0  0  0  0  0  0  0  0  0  0  0  0
    7.0752   11.6582   -3.5823 C   0  0  0  0  0  0  0  0  0  0  0  0
    7.3694   10.2625   -3.5612 C   0  0  0  0  0  0  0  0  0  0  0  0
    8.2631    9.7421   -4.4586 N   0  0  0  0  0  0  0  0  0  0  0  0
    9.1946   10.6066   -5.1614 C   0  0  0  0  0  0  0  0  0  0  0  0
    8.1839    8.3816   -4.9758 C   0  0  0  0  0  0  0  0  0  0  0  0
    6.8548    3.0579   -1.2091 C   0  0  0  0  0  0  0  0  0  0  0  0
    7.0538    1.6821   -1.0933 C   0  0  0  0  0  0  0  0  0  0  0  0
    9.0075   -2.0727   -2.0576 H   0  0  0  0  0  0  0  0  0  0  0  0
    9.4164   -0.4953   -1.3361 H   0  0  0  0  0  0  0  0  0  0  0  0
    9.3163   -0.6625   -3.1024 H   0  0  0  0  0  0  0  0  0  0  0  0
    6.9373   -0.9909   -1.1535 H   0  0  0  0  0  0  0  0  0  0  0  0
    6.8380   -1.1578   -2.9098 H   0  0  0  0  0  0  0  0  0  0  0  0
    6.9954    0.8371   -4.3903 H   0  0  0  0  0  0  0  0  0  0  0  0
    6.6448    3.3003   -4.5938 H   0  0  0  0  0  0  0  0  0  0  0  0
    7.3351    5.9412   -0.8566 H   0  0  0  0  0  0  0  0  0  0  0  0
    5.5683    5.6480   -0.7737 H   0  0  0  0  0  0  0  0  0  0  0  0
    5.0913    9.4224   -1.1178 H   0  0  0  0  0  0  0  0  0  0  0  0
    5.8568   13.2762   -2.8320 H   0  0  0  0  0  0  0  0  0  0  0  0
    7.5977   12.3068   -4.2836 H   0  0  0  0  0  0  0  0  0  0  0  0
    9.5762   11.3974   -4.5006 H   0  0  0  0  0  0  0  0  0  0  0  0
    8.7509   11.0810   -6.0587 H   0  0  0  0  0  0  0  0  0  0  0  0
   10.0563   10.0067   -5.4889 H   0  0  0  0  0  0  0  0  0  0  0  0
    7.2189    7.9173   -4.7389 H   0  0  0  0  0  0  0  0  0  0  0  0
    8.9740    7.7335   -4.5653 H   0  0  0  0  0  0  0  0  0  0  0  0
    8.2776    8.4173   -6.0745 H   0  0  0  0  0  0  0  0  0  0  0  0
    6.8175    3.6606   -0.2993 H   0  0  0  0  0  0  0  0  0  0  0  0
    7.1633    1.2371   -0.1002 H   0  0  0  0  0  0  0  0  0  0  0  0
  1  2  1  0
  1 27  1  0
  1 28  1  0
  1 29  1  0
  2  3  1  0
  2 30  1  0
  2 31  1  0
  3  4  2  0
  3 26  1  0
  4  5  1  0
  4 32  1  0
  5  6  2  0
  5 33  1  0
  6  7  1  0
  6 25  1  0
  7  8  2  0
  7  9  1  0
  9 10  1  0
  9 34  1  0
  9 35  1  0
 10 11  1  0
 11 12  2  0
 11 13  1  0
 13 14  2  0
 13 21  1  0
 14 15  1  0
 14 36  1  0
 15 16  1  0
 15 19  2  0
 16 17  2  0
 16 18  1  0
 19 20  1  0
 19 37  1  0
 20 21  2  0
 20 38  1  0
 21 22  1  0
 22 23  1  0
 22 24  1  0
 23 39  1  0
 23 40  1  0
 23 41  1  0
 24 42  1  0
 24 43  1  0
 24 44  1  0
 25 26  2  0
 25 45  1  0
 26 46  1  0
M  CHG  2  16   1  18  -1
M  END

