
     RDKit          3D

 75 76  0  0  0  0  0  0  0  0999 V2000
    9.8489   -3.0667   -0.4774 C   0  0  0  0  0  0  0  0  0  0  0  0
   10.2943   -2.8900   -1.9302 C   0  0  0  0  0  0  0  0  0  0  0  0
    9.1702   -2.4357   -2.8749 C   0  0  0  0  0  0  0  0  0  0  0  0
    8.5252   -1.0848   -2.5676 C   0  0  0  0  0  0  0  0  0  0  0  0
    7.3121   -0.9244   -2.5707 O   0  0  0  0  0  0  0  0  0  0  0  0
    9.3894   -0.0575   -2.3129 N   0  0  0  0  0  0  0  0  0  0  0  0
    8.9058    1.3078   -2.1695 C   0  0  1  0  0  0  0  0  0  0  0  0
    8.2632    1.5731   -3.0239 H   0  0  0  0  0  0  0  0  0  0  0  0
    8.0962    1.5037   -0.8743 C   0  0  0  0  0  0  0  0  0  0  0  0
    8.0891    2.8995   -0.5956 O   0  0  0  0  0  0  0  0  0  0  0  0
    7.1129    3.3880    0.2401 C   0  0  2  0  0  0  0  0  0  0  0  0
    6.8962    2.6809    1.0729 H   0  0  0  0  0  0  0  0  0  0  0  0
    5.9254    3.5699   -0.5196 O   0  0  0  0  0  0  0  0  0  0  0  0
    4.8262    4.0855    0.2199 C   0  0  2  0  0  0  0  0  0  0  0  0
    3.6298    4.0520   -0.7260 C   0  0  0  0  0  0  0  0  0  0  0  0
    3.3616    2.7544   -1.1806 O   0  0  0  0  0  0  0  0  0  0  0  0
    5.1603    5.4730    0.7909 C   0  0  2  0  0  0  0  0  0  0  0  0
    4.3395    5.8033    1.4546 H   0  0  0  0  0  0  0  0  0  0  0  0
    5.3939    6.4453   -0.2274 O   0  0  0  0  0  0  0  0  0  0  0  0
    6.4499    5.3971    1.6265 C   0  0  2  0  0  0  0  0  0  0  0  0
    6.2356    4.7475    2.4918 H   0  0  0  0  0  0  0  0  0  0  0  0
    6.8135    6.6439    2.1461 O   0  0  0  0  0  0  0  0  0  0  0  0
    7.5941    4.7312    0.8258 C   0  0  2  0  0  0  0  0  0  0  0  0
    8.0983    5.6000   -0.2215 N   0  0  0  0  0  0  0  0  0  0  0  0
    9.4275    5.7282   -0.4874 C   0  0  0  0  0  0  0  0  0  0  0  0
   10.3104    5.2843    0.2372 O   0  0  0  0  0  0  0  0  0  0  0  0
    9.7592    6.4481   -1.7900 C   0  0  0  0  0  0  0  0  0  0  0  0
   11.0213    7.7586   -1.5661 S   0  0  0  0  0  0  0  0  0  0  0  0
   10.1081    2.2671   -2.2237 C   0  0  0  0  0  0  0  0  0  0  0  0
   10.2352    3.0410   -3.1481 O   0  0  0  0  0  0  0  0  0  0  0  0
   11.0969    2.2387   -1.0702 C   0  0  0  0  0  0  0  0  0  0  0  0
   12.5479    2.4244   -1.5218 C   0  0  1  0  0  0  0  0  0  0  0  0
   12.5323    3.1528   -2.3533 H   0  0  0  0  0  0  0  0  0  0  0  0
   13.4408    3.0397   -0.4101 C   0  0  0  0  0  0  0  0  0  0  0  0
   13.4452    2.3029    0.9147 C   0  0  0  0  0  0  0  0  0  0  0  0
   14.2571    1.1759    1.1261 C   0  0  0  0  0  0  0  0  0  0  0  0
   14.2413    0.4991    2.3488 C   0  0  0  0  0  0  0  0  0  0  0  0
   13.4125    0.9398    3.3850 C   0  0  0  0  0  0  0  0  0  0  0  0
   12.6028    2.0623    3.1890 C   0  0  0  0  0  0  0  0  0  0  0  0
   12.6192    2.7379    1.9651 C   0  0  0  0  0  0  0  0  0  0  0  0
   13.0648    1.1219   -2.1493 C   0  0  0  0  0  0  0  0  0  0  0  0
   14.3818    1.0798   -2.4772 N   0  0  0  0  0  0  0  0  0  0  0  0
   12.3266    0.1705   -2.3875 O   0  0  0  0  0  0  0  0  0  0  0  0
   10.6781   -3.4250    0.1532 H   0  0  0  0  0  0  0  0  0  0  0  0
    9.0253   -3.7956   -0.3956 H   0  0  0  0  0  0  0  0  0  0  0  0
    9.4940   -2.1161   -0.0469 H   0  0  0  0  0  0  0  0  0  0  0  0
   10.6876   -3.8486   -2.3110 H   0  0  0  0  0  0  0  0  0  0  0  0
   11.1419   -2.1856   -1.9807 H   0  0  0  0  0  0  0  0  0  0  0  0
    8.3448   -3.1634   -2.8805 H   0  0  0  0  0  0  0  0  0  0  0  0
    9.5578   -2.3844   -3.9084 H   0  0  0  0  0  0  0  0  0  0  0  0
   10.4004   -0.1904   -2.3822 H   0  0  0  0  0  0  0  0  0  0  0  0
    8.5728    0.9555   -0.0407 H   0  0  0  0  0  0  0  0  0  0  0  0
    7.0799    1.1110   -1.0208 H   0  0  0  0  0  0  0  0  0  0  0  0
    4.6027    3.4111    1.0735 H   0  0  0  0  0  0  0  0  0  0  0  0
    3.8284    4.7513   -1.5649 H   0  0  0  0  0  0  0  0  0  0  0  0
    2.7333    4.4097   -0.1921 H   0  0  0  0  0  0  0  0  0  0  0  0
    4.1889    2.4120   -1.5507 H   0  0  0  0  0  0  0  0  0  0  0  0
    4.5539    6.7286   -0.6080 H   0  0  0  0  0  0  0  0  0  0  0  0
    6.9699    7.2268    1.3882 H   0  0  0  0  0  0  0  0  0  0  0  0
    8.4383    4.5382    1.5018 H   0  0  0  0  0  0  0  0  0  0  0  0
    7.4184    5.9143   -0.9072 H   0  0  0  0  0  0  0  0  0  0  0  0
    8.8774    6.9369   -2.2283 H   0  0  0  0  0  0  0  0  0  0  0  0
   10.1142    5.6832   -2.5007 H   0  0  0  0  0  0  0  0  0  0  0  0
   11.8078    7.0063   -0.7619 H   0  0  0  0  0  0  0  0  0  0  0  0
   10.9823    1.3269   -0.4690 H   0  0  0  0  0  0  0  0  0  0  0  0
   10.8051    3.0898   -0.4324 H   0  0  0  0  0  0  0  0  0  0  0  0
   13.0683    4.0617   -0.2440 H   0  0  0  0  0  0  0  0  0  0  0  0
   14.4758    3.1508   -0.7765 H   0  0  0  0  0  0  0  0  0  0  0  0
   14.9123    0.8248    0.3244 H   0  0  0  0  0  0  0  0  0  0  0  0
   14.8830   -0.3740    2.4941 H   0  0  0  0  0  0  0  0  0  0  0  0
   13.4024    0.4133    4.3428 H   0  0  0  0  0  0  0  0  0  0  0  0
   11.9567    2.4191    3.9956 H   0  0  0  0  0  0  0  0  0  0  0  0
   11.9856    3.6177    1.8187 H   0  0  0  0  0  0  0  0  0  0  0  0
   14.9968    1.8722   -2.3552 H   0  0  0  0  0  0  0  0  0  0  0  0
   14.7272    0.2616   -2.9657 H   0  0  0  0  0  0  0  0  0  0  0  0
  1  2  1  0
  1 44  1  0
  1 45  1  0
  1 46  1  0
  2  3  1  0
  2 47  1  0
  2 48  1  0
  3  4  1  0
  3 49  1  0
  3 50  1  0
  4  5  2  0
  4  6  1  0
  6  7  1  0
  6 51  1  0
  7  8  1  6
  7  9  1  0
  7 29  1  0
  9 10  1  0
  9 52  1  0
  9 53  1  0
 10 11  1  0
 11 12  1  1
 11 13  1  0
 11 23  1  0
 13 14  1  0
 14 15  1  0
 14 17  1  0
 14 54  1  1
 15 16  1  0
 15 55  1  0
 15 56  1  0
 16 57  1  0
 17 18  1  1
 17 19  1  0
 17 20  1  0
 19 58  1  0
 20 21  1  1
 20 22  1  0
 20 23  1  0
 22 59  1  0
 23 24  1  0
 23 60  1  1
 24 25  1  0
 24 61  1  0
 25 26  2  0
 25 27  1  0
 27 28  1  0
 27 62  1  0
 27 63  1  0
 28 64  1  0
 29 30  2  0
 29 31  1  0
 31 32  1  0
 31 65  1  0
 31 66  1  0
 32 33  1  6
 32 34  1  0
 32 41  1  0
 34 35  1  0
 34 67  1  0
 34 68  1  0
 35 36  2  0
 35 40  1  0
 36 37  1  0
 36 69  1  0
 37 38  2  0
 37 70  1  0
 38 39  1  0
 38 71  1  0
 39 40  2  0
 39 72  1  0
 40 73  1  0
 41 42  1  0
 41 43  2  0
 42 74  1  0
 42 75  1  0
M  END

