
     RDKit          3D

 51 53  0  0  0  0  0  0  0  0999 V2000
    2.6582   -0.9973    3.9732 C   0  0  0  0  0  0  0  0  0  0  0  0
    3.9356   -0.9904    3.1688 C   0  0  0  0  0  0  0  0  0  0  0  0
    4.9016    0.0045    3.3318 C   0  0  0  0  0  0  0  0  0  0  0  0
    6.0815   -0.0175    2.5767 C   0  0  0  0  0  0  0  0  0  0  0  0
    6.3452   -1.0153    1.6359 C   0  0  0  0  0  0  0  0  0  0  0  0
    7.6076   -1.0467    0.7824 C   0  0  1  0  0  0  0  0  0  0  0  0
    7.3303   -0.4995   -0.6319 C   0  0  0  0  0  0  0  0  0  0  0  0
    8.8039   -0.3287    1.4189 C   0  0  0  0  0  0  0  0  0  0  0  0
    5.3584   -2.0197    1.4735 C   0  0  0  0  0  0  0  0  0  0  0  0
    5.6369   -2.9846    0.5439 O   0  0  0  0  0  0  0  0  0  0  0  0
    4.7439   -4.0573    0.3454 C   0  0  0  0  0  0  0  0  0  0  0  0
    5.3709   -4.9655   -0.7147 C   0  0  0  0  0  0  0  0  0  0  0  0
    4.5539   -6.1241   -1.0103 N   0  0  0  0  0  0  0  0  0  0  0  0
    3.6419   -6.2082   -2.0343 C   0  0  0  0  0  0  0  0  0  0  0  0
    2.9893   -7.4292   -2.0089 C   0  0  0  0  0  0  0  0  0  0  0  0
    1.9301   -7.8771   -2.9220 C   0  0  0  0  0  0  0  0  0  0  0  0
    1.1582   -8.9633   -2.4906 N   0  0  0  0  0  0  0  0  0  0  0  0
    1.6370   -7.4140   -4.0929 N   0  0  0  0  0  0  0  0  0  0  0  0
    2.5064   -6.4066   -4.5318 O   0  0  0  0  0  0  0  0  0  0  0  0
    3.5574   -8.1640   -0.8901 C   0  0  0  0  0  0  0  0  0  0  0  0
    3.3821   -9.4581   -0.3582 C   0  0  0  0  0  0  0  0  0  0  0  0
    4.1372   -9.8484    0.7443 C   0  0  0  0  0  0  0  0  0  0  0  0
    5.0764   -8.9772    1.3338 C   0  0  0  0  0  0  0  0  0  0  0  0
    5.2855   -7.6988    0.8230 C   0  0  0  0  0  0  0  0  0  0  0  0
    4.5251   -7.3089   -0.2886 C   0  0  0  0  0  0  0  0  0  0  0  0
    4.1811   -2.0067    2.2277 C   0  0  0  0  0  0  0  0  0  0  0  0
    2.5987   -0.1261    4.6419 H   0  0  0  0  0  0  0  0  0  0  0  0
    2.5806   -1.9046    4.5962 H   0  0  0  0  0  0  0  0  0  0  0  0
    1.7702   -0.9811    3.3190 H   0  0  0  0  0  0  0  0  0  0  0  0
    4.7394    0.8065    4.0568 H   0  0  0  0  0  0  0  0  0  0  0  0
    6.8175    0.7731    2.7351 H   0  0  0  0  0  0  0  0  0  0  0  0
    7.8798   -2.1092    0.6682 H   0  0  0  0  0  0  0  0  0  0  0  0
    7.0496    0.5660   -0.5909 H   0  0  0  0  0  0  0  0  0  0  0  0
    6.5100   -1.0487   -1.1168 H   0  0  0  0  0  0  0  0  0  0  0  0
    8.2252   -0.5901   -1.2700 H   0  0  0  0  0  0  0  0  0  0  0  0
    8.6490    0.7613    1.4768 H   0  0  0  0  0  0  0  0  0  0  0  0
    9.7097   -0.4923    0.8135 H   0  0  0  0  0  0  0  0  0  0  0  0
    9.0067   -0.6957    2.4374 H   0  0  0  0  0  0  0  0  0  0  0  0
    3.7581   -3.6965   -0.0030 H   0  0  0  0  0  0  0  0  0  0  0  0
    4.5825   -4.6186    1.2840 H   0  0  0  0  0  0  0  0  0  0  0  0
    6.3647   -5.2930   -0.3722 H   0  0  0  0  0  0  0  0  0  0  0  0
    5.5216   -4.3930   -1.6416 H   0  0  0  0  0  0  0  0  0  0  0  0
    3.5109   -5.3879   -2.7326 H   0  0  0  0  0  0  0  0  0  0  0  0
    0.8299   -8.8782   -1.5314 H   0  0  0  0  0  0  0  0  0  0  0  0
    0.3932   -9.1556   -3.1332 H   0  0  0  0  0  0  0  0  0  0  0  0
    2.1909   -6.2474   -5.4294 H   0  0  0  0  0  0  0  0  0  0  0  0
    2.6757  -10.1470   -0.8223 H   0  0  0  0  0  0  0  0  0  0  0  0
    4.0055  -10.8514    1.1579 H   0  0  0  0  0  0  0  0  0  0  0  0
    5.6543   -9.3113    2.1991 H   0  0  0  0  0  0  0  0  0  0  0  0
    6.0217   -7.0306    1.2752 H   0  0  0  0  0  0  0  0  0  0  0  0
    3.4327   -2.7891    2.0934 H   0  0  0  0  0  0  0  0  0  0  0  0
  1  2  1  0
  1 27  1  0
  1 28  1  0
  1 29  1  0
  2  3  2  0
  2 26  1  0
  3  4  1  0
  3 30  1  0
  4  5  2  0
  4 31  1  0
  5  6  1  0
  5  9  1  0
  6  7  1  0
  6  8  1  0
  6 32  1  6
  7 33  1  0
  7 34  1  0
  7 35  1  0
  8 36  1  0
  8 37  1  0
  8 38  1  0
  9 10  1  0
  9 26  2  0
 10 11  1  0
 11 12  1  0
 11 39  1  0
 11 40  1  0
 12 13  1  0
 12 41  1  0
 12 42  1  0
 13 14  1  0
 13 25  1  0
 14 15  2  0
 14 43  1  0
 15 16  1  0
 15 20  1  0
 16 17  1  0
 16 18  2  0
 17 44  1  0
 17 45  1  0
 18 19  1  0
 19 46  1  0
 20 21  1  0
 20 25  2  0
 21 22  2  0
 21 47  1  0
 22 23  1  0
 22 48  1  0
 23 24  2  0
 23 49  1  0
 24 25  1  0
 24 50  1  0
 26 51  1  0
M  END

