
     RDKit          3D

 62 63  0  0  0  0  0  0  0  0999 V2000
    2.6669   -4.2417   -0.3649 C   0  0  0  0  0  0  0  0  0  0  0  0
    3.8037   -3.4393    0.0052 N   0  0  0  0  0  0  0  0  0  0  0  0
    3.9235   -2.9489    1.1862 C   0  0  0  0  0  0  0  0  0  0  0  0
    3.1816   -3.2843    2.3229 N   0  0  0  0  0  0  0  0  0  0  0  0
    3.0055   -4.6557    2.7892 C   0  0  0  0  0  0  0  0  0  0  0  0
    2.0019   -4.7271    3.9448 C   0  0  0  0  0  0  0  0  0  0  0  0
    0.5647   -4.2996    3.6117 C   0  0  0  0  0  0  0  0  0  0  0  0
   -0.1673   -5.2623    2.6750 C   0  0  0  0  0  0  0  0  0  0  0  0
   -1.8834   -4.6848    2.3937 S   0  0  0  0  0  0  0  0  0  0  0  0
   -2.4587   -5.9756    1.2477 C   0  0  0  0  0  0  0  0  0  0  0  0
    4.8289   -1.9119    1.3849 N   0  0  0  0  0  0  0  0  0  0  0  0
    5.7630   -1.8312    2.5092 C   0  0  0  0  0  0  0  0  0  0  0  0
    7.2077   -1.6864    2.0640 C   0  0  0  0  0  0  0  0  0  0  0  0
    7.8830   -0.4882    2.3386 C   0  0  0  0  0  0  0  0  0  0  0  0
    9.2037   -0.2846    1.9306 C   0  0  0  0  0  0  0  0  0  0  0  0
    9.8626   -1.2927    1.2262 C   0  0  0  0  0  0  0  0  0  0  0  0
    9.2011   -2.4912    0.9439 C   0  0  0  0  0  0  0  0  0  0  0  0
    7.8798   -2.7116    1.3540 C   0  0  0  0  0  0  0  0  0  0  0  0
    7.1781   -4.0221    1.0091 C   0  0  0  0  0  0  0  0  0  0  0  0
    8.0801   -5.0907    0.6115 N   0  0  0  0  0  0  0  0  0  0  0  0
    8.7050   -5.8156    1.7161 C   0  0  0  0  0  0  0  0  0  0  0  0
    7.7896   -6.8861    2.3357 C   0  0  0  0  0  0  0  0  0  0  0  0
    7.2619   -7.8402    1.2560 C   0  0  0  0  0  0  0  0  0  0  0  0
    6.6080   -7.0765    0.0910 C   0  0  2  0  0  0  0  0  0  0  0  0
    6.1624   -8.0077   -1.0372 C   0  0  0  0  0  0  0  0  0  0  0  0
    7.5852   -5.9956   -0.4194 C   0  0  0  0  0  0  0  0  0  0  0  0
    2.4443   -4.0901   -1.4351 H   0  0  0  0  0  0  0  0  0  0  0  0
    1.7458   -4.0029    0.2039 H   0  0  0  0  0  0  0  0  0  0  0  0
    2.8575   -5.3277   -0.2464 H   0  0  0  0  0  0  0  0  0  0  0  0
    3.2740   -2.6109    3.0773 H   0  0  0  0  0  0  0  0  0  0  0  0
    3.9663   -5.0941    3.1290 H   0  0  0  0  0  0  0  0  0  0  0  0
    2.6671   -5.2830    1.9530 H   0  0  0  0  0  0  0  0  0  0  0  0
    2.3763   -4.0966    4.7725 H   0  0  0  0  0  0  0  0  0  0  0  0
    2.0042   -5.7595    4.3360 H   0  0  0  0  0  0  0  0  0  0  0  0
    0.5747   -3.2927    3.1625 H   0  0  0  0  0  0  0  0  0  0  0  0
   -0.0073   -4.2185    4.5516 H   0  0  0  0  0  0  0  0  0  0  0  0
   -0.1951   -6.2765    3.1108 H   0  0  0  0  0  0  0  0  0  0  0  0
    0.3426   -5.3298    1.7000 H   0  0  0  0  0  0  0  0  0  0  0  0
   -3.5020   -5.7374    0.9951 H   0  0  0  0  0  0  0  0  0  0  0  0
   -2.4285   -6.9734    1.7134 H   0  0  0  0  0  0  0  0  0  0  0  0
   -1.8655   -5.9856    0.3197 H   0  0  0  0  0  0  0  0  0  0  0  0
    5.1893   -1.5660    0.5012 H   0  0  0  0  0  0  0  0  0  0  0  0
    5.6459   -2.7379    3.1274 H   0  0  0  0  0  0  0  0  0  0  0  0
    5.5187   -0.9751    3.1643 H   0  0  0  0  0  0  0  0  0  0  0  0
    7.3578    0.3014    2.8845 H   0  0  0  0  0  0  0  0  0  0  0  0
    9.7090    0.6573    2.1585 H   0  0  0  0  0  0  0  0  0  0  0  0
   10.8937   -1.1485    0.8923 H   0  0  0  0  0  0  0  0  0  0  0  0
    9.7008   -3.2906    0.3934 H   0  0  0  0  0  0  0  0  0  0  0  0
    6.4671   -3.8402    0.1859 H   0  0  0  0  0  0  0  0  0  0  0  0
    6.5309   -4.3102    1.8648 H   0  0  0  0  0  0  0  0  0  0  0  0
    9.0355   -5.0911    2.4774 H   0  0  0  0  0  0  0  0  0  0  0  0
    9.6196   -6.3074    1.3337 H   0  0  0  0  0  0  0  0  0  0  0  0
    6.9389   -6.3987    2.8454 H   0  0  0  0  0  0  0  0  0  0  0  0
    8.3387   -7.4427    3.1146 H   0  0  0  0  0  0  0  0  0  0  0  0
    6.5491   -8.5637    1.6890 H   0  0  0  0  0  0  0  0  0  0  0  0
    8.1041   -8.4382    0.8567 H   0  0  0  0  0  0  0  0  0  0  0  0
    5.7130   -6.5545    0.4807 H   0  0  0  0  0  0  0  0  0  0  0  0
    7.0249   -8.5355   -1.4801 H   0  0  0  0  0  0  0  0  0  0  0  0
    5.6621   -7.4505   -1.8462 H   0  0  0  0  0  0  0  0  0  0  0  0
    5.4585   -8.7738   -0.6726 H   0  0  0  0  0  0  0  0  0  0  0  0
    7.1134   -5.4014   -1.2185 H   0  0  0  0  0  0  0  0  0  0  0  0
    8.4567   -6.5053   -0.8761 H   0  0  0  0  0  0  0  0  0  0  0  0
  1  2  1  0
  1 27  1  0
  1 28  1  0
  1 29  1  0
  2  3  2  0
  3  4  1  0
  3 11  1  0
  4  5  1  0
  4 30  1  0
  5  6  1  0
  5 31  1  0
  5 32  1  0
  6  7  1  0
  6 33  1  0
  6 34  1  0
  7  8  1  0
  7 35  1  0
  7 36  1  0
  8  9  1  0
  8 37  1  0
  8 38  1  0
  9 10  1  0
 10 39  1  0
 10 40  1  0
 10 41  1  0
 11 12  1  0
 11 42  1  0
 12 13  1  0
 12 43  1  0
 12 44  1  0
 13 14  2  0
 13 18  1  0
 14 15  1  0
 14 45  1  0
 15 16  2  0
 15 46  1  0
 16 17  1  0
 16 47  1  0
 17 18  2  0
 17 48  1  0
 18 19  1  0
 19 20  1  0
 19 49  1  0
 19 50  1  0
 20 21  1  0
 20 26  1  0
 21 22  1  0
 21 51  1  0
 21 52  1  0
 22 23  1  0
 22 53  1  0
 22 54  1  0
 23 24  1  0
 23 55  1  0
 23 56  1  0
 24 25  1  0
 24 26  1  0
 24 57  1  1
 25 58  1  0
 25 59  1  0
 25 60  1  0
 26 61  1  0
 26 62  1  0
M  END

