
     RDKit          3D

 33 34  0  0  0  0  0  0  0  0999 V2000
    4.6078   -3.8729   -0.9120 C   0  0  0  0  0  0  0  0  0  0  0  0
    3.6293   -4.0013    0.2246 C   0  0  0  0  0  0  0  0  0  0  0  0
    3.9744   -4.7456    1.2785 N   0  0  0  0  0  0  0  0  0  0  0  0
    3.1316   -4.8673    2.3071 C   0  0  0  0  0  0  0  0  0  0  0  0
    1.8847   -4.2413    2.3459 C   0  0  0  0  0  0  0  0  0  0  0  0
    1.4995   -3.4558    1.2575 C   0  0  0  0  0  0  0  0  0  0  0  0
    2.3814   -3.3395    0.1819 C   0  0  0  0  0  0  0  0  0  0  0  0
    2.1344   -2.5516   -0.9168 O   0  0  0  0  0  0  0  0  0  0  0  0
    0.8467   -2.3413   -1.3835 C   0  0  0  0  0  0  0  0  0  0  0  0
   -0.0080   -3.4250   -1.6130 C   0  0  0  0  0  0  0  0  0  0  0  0
   -1.2818   -3.2197   -2.1456 C   0  0  0  0  0  0  0  0  0  0  0  0
   -1.6695   -1.9191   -2.4533 C   0  0  0  0  0  0  0  0  0  0  0  0
   -2.8886   -1.7007   -2.9697 F   0  0  0  0  0  0  0  0  0  0  0  0
   -0.8179   -0.8376   -2.2444 C   0  0  0  0  0  0  0  0  0  0  0  0
    0.4615   -1.0229   -1.7000 C   0  0  0  0  0  0  0  0  0  0  0  0
    1.3871    0.1828   -1.4992 C   0  0  1  0  0  0  0  0  0  0  0  0
    0.8487    1.0485   -1.9220 H   0  0  0  0  0  0  0  0  0  0  0  0
    1.6329    0.4882   -0.0159 C   0  0  0  0  0  0  0  0  0  0  0  0
    2.6640    0.1018   -2.2075 N   0  0  0  0  0  0  0  0  0  0  0  0
    5.4496   -4.5552   -0.7377 H   0  0  0  0  0  0  0  0  0  0  0  0
    4.9988   -2.8438   -0.9884 H   0  0  0  0  0  0  0  0  0  0  0  0
    4.1361   -4.1062   -1.8797 H   0  0  0  0  0  0  0  0  0  0  0  0
    3.4644   -5.4953    3.1415 H   0  0  0  0  0  0  0  0  0  0  0  0
    1.2267   -4.3598    3.2098 H   0  0  0  0  0  0  0  0  0  0  0  0
    0.5358   -2.9432    1.2415 H   0  0  0  0  0  0  0  0  0  0  0  0
    0.3295   -4.4352   -1.3733 H   0  0  0  0  0  0  0  0  0  0  0  0
   -1.9648   -4.0502   -2.3327 H   0  0  0  0  0  0  0  0  0  0  0  0
   -1.1653    0.1638   -2.5104 H   0  0  0  0  0  0  0  0  0  0  0  0
    0.6845    0.6413    0.5219 H   0  0  0  0  0  0  0  0  0  0  0  0
    2.2427    1.4000    0.0716 H   0  0  0  0  0  0  0  0  0  0  0  0
    2.1771   -0.3319    0.4771 H   0  0  0  0  0  0  0  0  0  0  0  0
    2.5054   -0.0443   -3.2049 H   0  0  0  0  0  0  0  0  0  0  0  0
    3.1864   -0.7104   -1.8782 H   0  0  0  0  0  0  0  0  0  0  0  0
  1  2  1  0
  1 20  1  0
  1 21  1  0
  1 22  1  0
  2  3  2  0
  2  7  1  0
  3  4  1  0
  4  5  2  0
  4 23  1  0
  5  6  1  0
  5 24  1  0
  6  7  2  0
  6 25  1  0
  7  8  1  0
  8  9  1  0
  9 10  2  0
  9 15  1  0
 10 11  1  0
 10 26  1  0
 11 12  2  0
 11 27  1  0
 12 13  1  0
 12 14  1  0
 14 15  2  0
 14 28  1  0
 15 16  1  0
 16 17  1  6
 16 18  1  0
 16 19  1  0
 18 29  1  0
 18 30  1  0
 18 31  1  0
 19 32  1  0
 19 33  1  0
M  END

