
     RDKit          3D

 54 57  0  0  0  0  0  0  0  0999 V2000
    4.5871    0.2296   -7.4802 C   0  0  0  0  0  0  0  0  0  0  0  0
    3.9513    1.6086   -7.6960 C   0  0  1  0  0  0  0  0  0  0  0  0
    2.5509    1.5417   -8.3395 C   0  0  0  0  0  0  0  0  0  0  0  0
    1.4919    1.0031   -7.3690 C   0  0  0  0  0  0  0  0  0  0  0  0
    1.4906    1.7879   -6.0537 C   0  0  0  0  0  0  0  0  0  0  0  0
    2.8476    1.8288   -5.5053 N   0  0  0  0  0  0  0  0  0  0  0  0
    3.0565    1.9024   -3.8417 S   0  0  1  0  0  0  0  0  0  0  0  0
    2.0209    1.0497   -3.2567 O   0  0  0  0  0  0  0  0  0  0  0  0
    4.4821    1.6795   -3.5938 O   0  0  0  0  0  0  0  0  0  0  0  0
    2.6908    3.5974   -3.3491 C   0  0  0  0  0  0  0  0  0  0  0  0
    1.3763    3.9552   -3.0270 C   0  0  0  0  0  0  0  0  0  0  0  0
    1.0969    5.2746   -2.6732 C   0  0  0  0  0  0  0  0  0  0  0  0
    2.1126    6.2441   -2.6616 C   0  0  0  0  0  0  0  0  0  0  0  0
    1.7532    7.6329   -2.1856 C   0  0  0  0  0  0  0  0  0  0  0  0
    1.0671    7.7695   -1.1815 O   0  0  0  0  0  0  0  0  0  0  0  0
    2.2185    8.7057   -2.8965 N   0  0  0  0  0  0  0  0  0  0  0  0
    1.8515   10.0631   -2.4527 C   0  0  0  0  0  0  0  0  0  0  0  0
    1.9797   10.9094   -3.7236 C   0  0  0  0  0  0  0  0  0  0  0  0
    3.0572   10.1841   -4.5354 C   0  0  1  0  0  0  0  0  0  0  0  0
    3.3248   10.5613   -6.0166 C   0  0  0  0  0  0  0  0  0  0  0  0
    4.8502   10.4964   -5.7443 C   0  0  0  0  0  0  0  0  0  0  0  0
    4.5520   10.5163   -4.2235 C   0  0  0  0  0  0  0  0  0  0  0  0
    2.6947    8.7123   -4.2878 C   0  0  0  0  0  0  0  0  0  0  0  0
    3.4296    5.8585   -2.9562 C   0  0  0  0  0  0  0  0  0  0  0  0
    3.7257    4.5359   -3.2930 C   0  0  0  0  0  0  0  0  0  0  0  0
    3.8678    2.4071   -6.3812 C   0  0  0  0  0  0  0  0  0  0  0  0
    4.6018   -0.3510   -8.4167 H   0  0  0  0  0  0  0  0  0  0  0  0
    4.0438   -0.3546   -6.7223 H   0  0  0  0  0  0  0  0  0  0  0  0
    5.6266    0.3284   -7.1290 H   0  0  0  0  0  0  0  0  0  0  0  0
    4.6071    2.1852   -8.3724 H   0  0  0  0  0  0  0  0  0  0  0  0
    2.5821    0.9263   -9.2540 H   0  0  0  0  0  0  0  0  0  0  0  0
    2.2585    2.5589   -8.6591 H   0  0  0  0  0  0  0  0  0  0  0  0
    1.6798   -0.0602   -7.1478 H   0  0  0  0  0  0  0  0  0  0  0  0
    0.4888    1.0621   -7.8230 H   0  0  0  0  0  0  0  0  0  0  0  0
    0.8346    1.3069   -5.3170 H   0  0  0  0  0  0  0  0  0  0  0  0
    1.1144    2.8180   -6.2317 H   0  0  0  0  0  0  0  0  0  0  0  0
    0.5934    3.1950   -3.0227 H   0  0  0  0  0  0  0  0  0  0  0  0
    0.0863    5.5660   -2.3804 H   0  0  0  0  0  0  0  0  0  0  0  0
    2.5438   10.3995   -1.6609 H   0  0  0  0  0  0  0  0  0  0  0  0
    0.8432   10.0565   -2.0145 H   0  0  0  0  0  0  0  0  0  0  0  0
    2.2353   11.9591   -3.5146 H   0  0  0  0  0  0  0  0  0  0  0  0
    1.0297   10.9033   -4.2862 H   0  0  0  0  0  0  0  0  0  0  0  0
    2.9820   11.5836   -6.2413 H   0  0  0  0  0  0  0  0  0  0  0  0
    2.9144    9.8844   -6.7836 H   0  0  0  0  0  0  0  0  0  0  0  0
    5.4643   11.3180   -6.1420 H   0  0  0  0  0  0  0  0  0  0  0  0
    5.2959    9.5457   -6.0755 H   0  0  0  0  0  0  0  0  0  0  0  0
    4.6618   11.5230   -3.7903 H   0  0  0  0  0  0  0  0  0  0  0  0
    5.1005    9.8055   -3.5851 H   0  0  0  0  0  0  0  0  0  0  0  0
    3.5488    8.0394   -4.4422 H   0  0  0  0  0  0  0  0  0  0  0  0
    1.8929    8.3940   -4.9818 H   0  0  0  0  0  0  0  0  0  0  0  0
    4.2404    6.5869   -2.8862 H   0  0  0  0  0  0  0  0  0  0  0  0
    4.7528    4.2205   -3.4841 H   0  0  0  0  0  0  0  0  0  0  0  0
    4.8306    2.3779   -5.8548 H   0  0  0  0  0  0  0  0  0  0  0  0
    3.6267    3.4673   -6.6056 H   0  0  0  0  0  0  0  0  0  0  0  0
  1  2  1  0
  1 27  1  0
  1 28  1  0
  1 29  1  0
  2  3  1  0
  2 26  1  0
  2 30  1  6
  3  4  1  0
  3 31  1  0
  3 32  1  0
  4  5  1  0
  4 33  1  0
  4 34  1  0
  5  6  1  0
  5 35  1  0
  5 36  1  0
  6  7  1  0
  6 26  1  0
  7  8  2  0
  7  9  2  0
  7 10  1  1
 10 11  2  0
 10 25  1  0
 11 12  1  0
 11 37  1  0
 12 13  2  0
 12 38  1  0
 13 14  1  0
 13 24  1  0
 14 15  2  0
 14 16  1  0
 16 17  1  0
 16 23  1  0
 17 18  1  0
 17 39  1  0
 17 40  1  0
 19 18  1  1
 18 41  1  0
 18 42  1  0
 19 20  1  0
 19 22  1  0
 19 23  1  0
 20 21  1  0
 20 43  1  0
 20 44  1  0
 21 22  1  0
 21 45  1  0
 21 46  1  0
 22 47  1  0
 22 48  1  0
 23 49  1  0
 23 50  1  0
 24 25  2  0
 24 51  1  0
 25 52  1  0
 26 53  1  0
 26 54  1  0
M  END

