
     RDKit          3D

 39 42  0  0  0  0  0  0  0  0999 V2000
    2.3093   -1.2564    1.9471 C   0  0  0  0  0  0  0  0  0  0  0  0
    2.7838   -0.4629    0.7341 C   0  0  1  0  0  0  0  0  0  0  0  0
    4.1994    0.6621    1.1566 S   0  0  0  0  0  0  0  0  0  0  0  0
    3.3830    2.2318    1.3528 C   0  0  0  0  0  0  0  0  0  0  0  0
    4.2116    3.2103    1.7335 N   0  0  0  0  0  0  0  0  0  0  0  0
    3.6710    4.4159    1.8927 C   0  0  0  0  0  0  0  0  0  0  0  0
    2.3094    4.6601    1.6795 C   0  0  0  0  0  0  0  0  0  0  0  0
    1.5443    3.5632    1.2846 C   0  0  0  0  0  0  0  0  0  0  0  0
    2.0764    2.3493    1.1202 N   0  0  0  0  0  0  0  0  0  0  0  0
    3.1435   -1.3356   -0.4543 C   0  0  0  0  0  0  0  0  0  0  0  0
    2.8687   -2.6066   -0.4363 N   0  0  0  0  0  0  0  0  0  0  0  0
    3.1540   -3.2922   -1.5736 C   0  0  0  0  0  0  0  0  0  0  0  0
    2.7991   -4.9908   -1.7167 S   0  0  0  0  0  0  0  0  0  0  0  0
    3.4013   -5.0036   -3.3429 C   0  0  0  0  0  0  0  0  0  0  0  0
    3.8630   -3.7835   -3.7851 C   0  0  0  0  0  0  0  0  0  0  0  0
    4.4145   -3.6114   -5.1539 C   0  0  0  0  0  0  0  0  0  0  0  0
    3.7711   -4.2263   -6.2450 C   0  0  0  0  0  0  0  0  0  0  0  0
    4.2991   -4.1370   -7.5349 C   0  0  0  0  0  0  0  0  0  0  0  0
    5.4822   -3.4283   -7.7598 C   0  0  0  0  0  0  0  0  0  0  0  0
    6.1278   -2.8084   -6.6853 C   0  0  0  0  0  0  0  0  0  0  0  0
    5.6008   -2.8953   -5.3960 C   0  0  0  0  0  0  0  0  0  0  0  0
    3.7214   -2.7829   -2.7493 C   0  0  0  0  0  0  0  0  0  0  0  0
    4.0294   -1.3543   -2.7732 C   0  0  0  0  0  0  0  0  0  0  0  0
    4.5175   -0.6919   -3.6700 O   0  0  0  0  0  0  0  0  0  0  0  0
    3.6942   -0.7296   -1.5483 N   0  0  0  0  0  0  0  0  0  0  0  0
    3.9469    0.2554   -1.4907 H   0  0  0  0  0  0  0  0  0  0  0  0
    2.0038   -0.5660    2.7458 H   0  0  0  0  0  0  0  0  0  0  0  0
    3.1010   -1.9164    2.3302 H   0  0  0  0  0  0  0  0  0  0  0  0
    1.4529   -1.8886    1.6722 H   0  0  0  0  0  0  0  0  0  0  0  0
    1.9926    0.2378    0.4173 H   0  0  0  0  0  0  0  0  0  0  0  0
    4.3476    5.2211    2.2030 H   0  0  0  0  0  0  0  0  0  0  0  0
    1.8721    5.6504    1.8140 H   0  0  0  0  0  0  0  0  0  0  0  0
    0.4693    3.6586    1.0928 H   0  0  0  0  0  0  0  0  0  0  0  0
    3.4158   -5.9387   -3.9006 H   0  0  0  0  0  0  0  0  0  0  0  0
    2.8339   -4.7635   -6.0808 H   0  0  0  0  0  0  0  0  0  0  0  0
    3.7782   -4.6163   -8.3679 H   0  0  0  0  0  0  0  0  0  0  0  0
    5.8964   -3.3536   -8.7687 H   0  0  0  0  0  0  0  0  0  0  0  0
    7.0519   -2.2487   -6.8514 H   0  0  0  0  0  0  0  0  0  0  0  0
    6.1097   -2.3986   -4.5707 H   0  0  0  0  0  0  0  0  0  0  0  0
  1  2  1  0
  1 27  1  0
  1 28  1  0
  1 29  1  0
  2  3  1  0
  2 10  1  0
  2 30  1  6
  3  4  1  0
  4  5  2  0
  4  9  1  0
  5  6  1  0
  6  7  2  0
  6 31  1  0
  7  8  1  0
  7 32  1  0
  8  9  2  0
  8 33  1  0
 10 11  2  0
 10 25  1  0
 11 12  1  0
 12 13  2  0
 12 22  1  0
 13 14  1  0
 14 15  2  0
 14 34  1  0
 15 16  1  0
 15 22  1  0
 16 17  2  0
 16 21  1  0
 17 18  1  0
 17 35  1  0
 18 19  2  0
 18 36  1  0
 19 20  1  0
 19 37  1  0
 20 21  2  0
 20 38  1  0
 21 39  1  0
 22 23  2  0
 23 24  1  0
 23 25  1  0
 25 26  1  0
M  CHG  2  13   1  24  -1
M  END

