
     RDKit          3D

 51 53  0  0  0  0  0  0  0  0999 V2000
    5.6492   -1.4367    1.3459 C   0  0  0  0  0  0  0  0  0  0  0  0
    4.3101   -1.5585    2.0641 C   0  0  1  0  0  0  0  0  0  0  0  0
    3.9650   -0.3984    3.0124 C   0  0  0  0  0  0  0  0  0  0  0  0
    2.4339   -0.4915    3.2464 C   0  0  0  0  0  0  0  0  0  0  0  0
    1.8838   -1.3830    2.1021 C   0  0  0  0  0  0  0  0  0  0  0  0
    3.0781   -1.5864    1.1302 C   0  0  2  0  0  0  0  0  0  0  0  0
    3.0205   -2.7062    0.1939 N   0  0  0  0  0  0  0  0  0  0  0  0
    2.8185   -4.0297    0.7682 C   0  0  0  0  0  0  0  0  0  0  0  0
    3.4014   -5.1638   -0.0796 C   0  0  0  0  0  0  0  0  0  0  0  0
    2.9377   -5.2089   -1.5413 C   0  0  0  0  0  0  0  0  0  0  0  0
    3.5135   -4.1393   -2.3438 N   0  0  0  0  0  0  0  0  0  0  0  0
    2.9030   -2.8084   -2.3473 C   0  0  2  0  0  0  0  0  0  0  0  0
    3.9664   -1.7272   -2.7109 C   0  0  1  0  0  0  0  0  0  0  0  0
    4.9646   -2.1636   -3.8046 C   0  0  0  0  0  0  0  0  0  0  0  0
    4.3518   -2.2045   -5.2121 C   0  0  0  0  0  0  0  0  0  0  0  0
    3.7374   -0.8507   -5.5901 C   0  0  0  0  0  0  0  0  0  0  0  0
    2.7277   -0.3836   -4.5343 C   0  0  0  0  0  0  0  0  0  0  0  0
    3.3379   -0.3755   -3.1228 C   0  0  0  0  0  0  0  0  0  0  0  0
    2.2135   -2.4885   -1.0011 C   0  0  0  0  0  0  0  0  0  0  0  0
    6.4910   -1.4300    2.0577 H   0  0  0  0  0  0  0  0  0  0  0  0
    5.6988   -0.5015    0.7614 H   0  0  0  0  0  0  0  0  0  0  0  0
    5.7956   -2.2739    0.6466 H   0  0  0  0  0  0  0  0  0  0  0  0
    4.3126   -2.4922    2.6581 H   0  0  0  0  0  0  0  0  0  0  0  0
    4.2178    0.5546    2.5149 H   0  0  0  0  0  0  0  0  0  0  0  0
    4.5440   -0.4284    3.9488 H   0  0  0  0  0  0  0  0  0  0  0  0
    1.9709    0.5075    3.2507 H   0  0  0  0  0  0  0  0  0  0  0  0
    2.2118   -0.9378    4.2285 H   0  0  0  0  0  0  0  0  0  0  0  0
    1.0092   -0.9430    1.5974 H   0  0  0  0  0  0  0  0  0  0  0  0
    1.5614   -2.3589    2.4983 H   0  0  0  0  0  0  0  0  0  0  0  0
    3.1591   -0.6792    0.5051 H   0  0  0  0  0  0  0  0  0  0  0  0
    1.7343   -4.2336    0.9332 H   0  0  0  0  0  0  0  0  0  0  0  0
    3.2915   -4.0672    1.7609 H   0  0  0  0  0  0  0  0  0  0  0  0
    3.1345   -6.1192    0.4072 H   0  0  0  0  0  0  0  0  0  0  0  0
    4.5011   -5.0877   -0.0848 H   0  0  0  0  0  0  0  0  0  0  0  0
    1.8259   -5.2572   -1.5845 H   0  0  0  0  0  0  0  0  0  0  0  0
    3.2924   -6.1581   -1.9755 H   0  0  0  0  0  0  0  0  0  0  0  0
    3.6505   -4.4563   -3.2982 H   0  0  0  0  0  0  0  0  0  0  0  0
    2.0796   -2.7574   -3.0946 H   0  0  0  0  0  0  0  0  0  0  0  0
    4.5499   -1.5772   -1.7868 H   0  0  0  0  0  0  0  0  0  0  0  0
    5.4055   -3.1342   -3.5337 H   0  0  0  0  0  0  0  0  0  0  0  0
    5.7995   -1.4394   -3.8108 H   0  0  0  0  0  0  0  0  0  0  0  0
    3.5689   -2.9848   -5.2657 H   0  0  0  0  0  0  0  0  0  0  0  0
    5.1195   -2.4953   -5.9495 H   0  0  0  0  0  0  0  0  0  0  0  0
    3.2597   -0.9027   -6.5835 H   0  0  0  0  0  0  0  0  0  0  0  0
    4.5470   -0.1017   -5.6739 H   0  0  0  0  0  0  0  0  0  0  0  0
    1.8456   -1.0486   -4.5586 H   0  0  0  0  0  0  0  0  0  0  0  0
    2.3529    0.6239   -4.7834 H   0  0  0  0  0  0  0  0  0  0  0  0
    2.5789   -0.0500   -2.3920 H   0  0  0  0  0  0  0  0  0  0  0  0
    4.1305    0.3938   -3.0883 H   0  0  0  0  0  0  0  0  0  0  0  0
    1.2717   -3.0708   -0.9400 H   0  0  0  0  0  0  0  0  0  0  0  0
    1.8965   -1.4363   -1.0394 H   0  0  0  0  0  0  0  0  0  0  0  0
  1  2  1  0
  1 20  1  0
  1 21  1  0
  1 22  1  0
  2  3  1  0
  2  6  1  0
  2 23  1  1
  3  4  1  0
  3 24  1  0
  3 25  1  0
  4  5  1  0
  4 26  1  0
  4 27  1  0
  5  6  1  0
  5 28  1  0
  5 29  1  0
  6  7  1  0
  6 30  1  6
  7  8  1  0
  7 19  1  0
  8  9  1  0
  8 31  1  0
  8 32  1  0
  9 10  1  0
  9 33  1  0
  9 34  1  0
 10 11  1  0
 10 35  1  0
 10 36  1  0
 11 12  1  0
 11 37  1  0
 12 13  1  0
 12 19  1  0
 12 38  1  6
 13 14  1  0
 13 18  1  0
 13 39  1  1
 14 15  1  0
 14 40  1  0
 14 41  1  0
 15 16  1  0
 15 42  1  0
 15 43  1  0
 16 17  1  0
 16 44  1  0
 16 45  1  0
 17 18  1  0
 17 46  1  0
 17 47  1  0
 18 48  1  0
 18 49  1  0
 19 50  1  0
 19 51  1  0
M  END

