
     RDKit          3D

 33 33  0  0  0  0  0  0  0  0999 V2000
    5.1581    4.4008    4.4529 C   0  0  0  0  0  0  0  0  0  0  0  0
    3.9608    4.1073    3.5476 C   0  0  0  0  0  0  0  0  0  0  0  0
    4.3148    4.0012    2.1417 N   0  0  0  0  0  0  0  0  0  0  0  0
    4.3693    2.8125    1.4816 C   0  0  0  0  0  0  0  0  0  0  0  0
    4.0692    1.7336    1.9665 O   0  0  0  0  0  0  0  0  0  0  0  0
    4.8552    2.9250    0.0221 C   0  0  0  0  0  0  0  0  0  0  0  0
    6.2732    3.2327   -0.1064 N   0  0  0  0  0  0  0  0  0  0  0  0
    6.7291    4.5201   -0.0216 C   0  0  0  0  0  0  0  0  0  0  0  0
    5.9828    5.4744    0.1622 O   0  0  0  0  0  0  0  0  0  0  0  0
    8.1072    4.6335   -0.1829 N   0  0  0  0  0  0  0  0  0  0  0  0
    8.8951    5.7753   -0.1045 C   0  0  0  0  0  0  0  0  0  0  0  0
    8.3858    7.0673    0.1473 C   0  0  0  0  0  0  0  0  0  0  0  0
    9.2358    8.1656    0.2192 C   0  0  0  0  0  0  0  0  0  0  0  0
   10.6075    7.9907    0.0370 C   0  0  0  0  0  0  0  0  0  0  0  0
   11.5085    9.1516    0.1117 N   0  0  0  0  0  0  0  0  0  0  0  0
   11.0058   10.2410    0.3374 O   0  0  0  0  0  0  0  0  0  0  0  0
   12.7020    8.9522   -0.0563 O   0  0  0  0  0  0  0  0  0  0  0  0
   11.1516    6.7321   -0.2186 C   0  0  0  0  0  0  0  0  0  0  0  0
   10.2968    5.6408   -0.2870 C   0  0  0  0  0  0  0  0  0  0  0  0
   10.9769    4.0532   -0.6092 Cl  0  0  0  0  0  0  0  0  0  0  0  0
    4.8358    4.4940    5.5025 H   0  0  0  0  0  0  0  0  0  0  0  0
    5.6554    5.3432    4.1697 H   0  0  0  0  0  0  0  0  0  0  0  0
    5.9025    3.5909    4.3954 H   0  0  0  0  0  0  0  0  0  0  0  0
    3.1966    4.8954    3.6647 H   0  0  0  0  0  0  0  0  0  0  0  0
    3.4940    3.1518    3.8259 H   0  0  0  0  0  0  0  0  0  0  0  0
    4.6453    4.8275    1.6444 H   0  0  0  0  0  0  0  0  0  0  0  0
    4.2885    3.7068   -0.5054 H   0  0  0  0  0  0  0  0  0  0  0  0
    4.6597    1.9562   -0.4546 H   0  0  0  0  0  0  0  0  0  0  0  0
    6.9261    2.4604   -0.0424 H   0  0  0  0  0  0  0  0  0  0  0  0
    8.6243    3.7902   -0.4129 H   0  0  0  0  0  0  0  0  0  0  0  0
    7.3126    7.1822    0.2770 H   0  0  0  0  0  0  0  0  0  0  0  0
    8.8475    9.1650    0.4132 H   0  0  0  0  0  0  0  0  0  0  0  0
   12.2255    6.6209   -0.3589 H   0  0  0  0  0  0  0  0  0  0  0  0
  1  2  1  0
  1 21  1  0
  1 22  1  0
  1 23  1  0
  2  3  1  0
  2 24  1  0
  2 25  1  0
  3  4  1  0
  3 26  1  0
  4  5  2  0
  4  6  1  0
  6  7  1  0
  6 27  1  0
  6 28  1  0
  7  8  1  0
  7 29  1  0
  8  9  2  0
  8 10  1  0
 10 11  1  0
 10 30  1  0
 11 12  2  0
 11 19  1  0
 12 13  1  0
 12 31  1  0
 13 14  2  0
 13 32  1  0
 14 15  1  0
 14 18  1  0
 15 16  2  0
 15 17  1  0
 18 19  2  0
 18 33  1  0
 19 20  1  0
M  CHG  2  15   1  17  -1
M  END

