
     RDKit          3D

 54 56  0  0  0  0  0  0  0  0999 V2000
    1.8961   -0.7817    0.4637 C   0  0  0  0  0  0  0  0  0  0  0  0
    3.1606    0.0430    0.2946 C   0  0  0  0  0  0  0  0  0  0  0  0
    3.9382    0.1876    1.2196 O   0  0  0  0  0  0  0  0  0  0  0  0
    3.4305    0.6737   -1.0359 C   0  0  0  0  0  0  0  0  0  0  0  0
    2.5763    0.5628   -2.1460 C   0  0  0  0  0  0  0  0  0  0  0  0
    2.8849    1.1855   -3.3512 C   0  0  0  0  0  0  0  0  0  0  0  0
    4.0685    1.9399   -3.5278 C   0  0  0  0  0  0  0  0  0  0  0  0
    4.3476    2.5606   -4.7425 N   0  0  0  0  0  0  0  0  0  0  0  0
    4.1459    1.8617   -6.0101 C   0  0  0  0  0  0  0  0  0  0  0  0
    3.6114    2.8077   -7.0835 C   0  0  0  0  0  0  0  0  0  0  0  0
    4.4734    3.9789   -7.1991 N   0  0  0  0  0  0  0  0  0  0  0  0
    4.8983    4.3842   -8.4437 C   0  0  0  0  0  0  0  0  0  0  0  0
    4.6000    3.7714   -9.4574 O   0  0  0  0  0  0  0  0  0  0  0  0
    5.7641    5.6427   -8.5197 C   0  0  0  0  0  0  0  0  0  0  0  0
    6.2206    5.9163   -9.9503 C   0  0  0  0  0  0  0  0  0  0  0  0
    6.9279    7.1984  -10.0000 N   0  0  0  0  0  0  0  0  0  0  0  0
    7.4045    7.7921  -11.5110 S   0  0  1  0  0  0  0  0  0  0  0  0
    8.4691    8.7507  -11.2057 O   0  0  0  0  0  0  0  0  0  0  0  0
    7.6110    6.6913  -12.4571 O   0  0  0  0  0  0  0  0  0  0  0  0
    5.9524    8.6932  -12.0527 C   0  0  0  0  0  0  0  0  0  0  0  0
    5.6606    9.9299  -11.4651 C   0  0  0  0  0  0  0  0  0  0  0  0
    4.5452   10.6443  -11.8968 C   0  0  0  0  0  0  0  0  0  0  0  0
    3.7506   10.1067  -12.9124 C   0  0  0  0  0  0  0  0  0  0  0  0
    2.6809   10.7935  -13.3253 F   0  0  0  0  0  0  0  0  0  0  0  0
    4.0410    8.8821  -13.5108 C   0  0  0  0  0  0  0  0  0  0  0  0
    5.1602    8.1679  -13.0766 C   0  0  0  0  0  0  0  0  0  0  0  0
    4.6936    4.6734   -5.9392 C   0  0  0  0  0  0  0  0  0  0  0  0
    5.2265    3.7164   -4.8640 C   0  0  0  0  0  0  0  0  0  0  0  0
    4.9199    2.0130   -2.3966 C   0  0  0  0  0  0  0  0  0  0  0  0
    6.0968    2.6687   -2.4977 F   0  0  0  0  0  0  0  0  0  0  0  0
    4.6122    1.4177   -1.1876 C   0  0  0  0  0  0  0  0  0  0  0  0
    1.8611   -1.1649    1.4913 H   0  0  0  0  0  0  0  0  0  0  0  0
    1.8765   -1.6276   -0.2425 H   0  0  0  0  0  0  0  0  0  0  0  0
    0.9976   -0.1733    0.2705 H   0  0  0  0  0  0  0  0  0  0  0  0
    1.6431    0.0015   -2.0740 H   0  0  0  0  0  0  0  0  0  0  0  0
    2.1795    1.1153   -4.1808 H   0  0  0  0  0  0  0  0  0  0  0  0
    3.4495    1.0256   -5.8726 H   0  0  0  0  0  0  0  0  0  0  0  0
    5.1090    1.4327   -6.3577 H   0  0  0  0  0  0  0  0  0  0  0  0
    2.5862    3.1274   -6.8156 H   0  0  0  0  0  0  0  0  0  0  0  0
    3.5776    2.3173   -8.0642 H   0  0  0  0  0  0  0  0  0  0  0  0
    6.6407    5.5352   -7.8567 H   0  0  0  0  0  0  0  0  0  0  0  0
    5.1979    6.5115   -8.1427 H   0  0  0  0  0  0  0  0  0  0  0  0
    5.3394    5.9737  -10.6055 H   0  0  0  0  0  0  0  0  0  0  0  0
    6.8305    5.0795  -10.3291 H   0  0  0  0  0  0  0  0  0  0  0  0
    7.7477    7.2651   -9.3940 H   0  0  0  0  0  0  0  0  0  0  0  0
    6.3110   10.3284  -10.6845 H   0  0  0  0  0  0  0  0  0  0  0  0
    4.2828   11.6132  -11.4680 H   0  0  0  0  0  0  0  0  0  0  0  0
    3.3962    8.5070  -14.3076 H   0  0  0  0  0  0  0  0  0  0  0  0
    5.4309    7.2129  -13.5299 H   0  0  0  0  0  0  0  0  0  0  0  0
    3.7399    5.1113   -5.5859 H   0  0  0  0  0  0  0  0  0  0  0  0
    5.4070    5.4954   -6.0708 H   0  0  0  0  0  0  0  0  0  0  0  0
    5.2736    4.2495   -3.9081 H   0  0  0  0  0  0  0  0  0  0  0  0
    6.2595    3.4129   -5.1290 H   0  0  0  0  0  0  0  0  0  0  0  0
    5.3061    1.5019   -0.3494 H   0  0  0  0  0  0  0  0  0  0  0  0
  1  2  1  0
  1 32  1  0
  1 33  1  0
  1 34  1  0
  2  3  2  0
  2  4  1  0
  4  5  2  0
  4 31  1  0
  5  6  1  0
  5 35  1  0
  6  7  2  0
  6 36  1  0
  7  8  1  0
  7 29  1  0
  8  9  1  0
  8 28  1  0
  9 10  1  0
  9 37  1  0
  9 38  1  0
 10 11  1  0
 10 39  1  0
 10 40  1  0
 11 12  1  0
 11 27  1  0
 12 13  2  0
 12 14  1  0
 14 15  1  0
 14 41  1  0
 14 42  1  0
 15 16  1  0
 15 43  1  0
 15 44  1  0
 17 16  1  1
 16 45  1  0
 17 18  2  0
 17 19  2  0
 17 20  1  0
 20 21  2  0
 20 26  1  0
 21 22  1  0
 21 46  1  0
 22 23  2  0
 22 47  1  0
 23 24  1  0
 23 25  1  0
 25 26  2  0
 25 48  1  0
 26 49  1  0
 27 28  1  0
 27 50  1  0
 27 51  1  0
 28 52  1  0
 28 53  1  0
 29 30  1  0
 29 31  2  0
 31 54  1  0
M  END

