
     RDKit          3D

 43 46  0  0  0  0  0  0  0  0999 V2000
    2.4693   -0.3951    0.6174 O   0  0  0  0  0  0  0  0  0  0  0  0
    2.0412   -0.3390   -0.5242 C   0  0  0  0  0  0  0  0  0  0  0  0
    0.5280   -0.3842   -0.8165 C   0  0  0  0  0  0  0  0  0  0  0  0
    0.0138    0.8135   -1.4562 N   0  0  0  0  0  0  0  0  0  0  0  0
    0.1034    1.0152   -2.8285 C   0  0  0  0  0  0  0  0  0  0  0  0
    0.6426    0.2767   -3.6383 O   0  0  0  0  0  0  0  0  0  0  0  0
   -0.5262    2.2288   -3.0697 N   0  0  0  0  0  0  0  0  0  0  0  0
   -0.5880    2.6240   -3.9990 H   0  0  0  0  0  0  0  0  0  0  0  0
   -0.9707    2.7988   -1.8853 C   0  0  0  0  0  0  0  0  0  0  0  0
   -1.6342    3.9929   -1.6192 C   0  0  0  0  0  0  0  0  0  0  0  0
   -1.9260    4.2577   -0.2777 C   0  0  0  0  0  0  0  0  0  0  0  0
   -2.5649    5.4011    0.0184 F   0  0  0  0  0  0  0  0  0  0  0  0
   -1.5785    3.3920    0.7600 C   0  0  0  0  0  0  0  0  0  0  0  0
   -0.9093    2.1920    0.4790 C   0  0  0  0  0  0  0  0  0  0  0  0
   -0.6162    1.9022   -0.8502 C   0  0  0  0  0  0  0  0  0  0  0  0
    2.8183   -0.2378   -1.6337 N   0  0  0  0  0  0  0  0  0  0  0  0
    4.2680   -0.1767   -1.5552 C   0  0  0  0  0  0  0  0  0  0  0  0
    4.9398   -1.5661   -1.5180 C   0  0  0  0  0  0  0  0  0  0  0  0
    6.4384   -1.4956   -1.4694 C   0  0  0  0  0  0  0  0  0  0  0  0
    7.2342   -1.6264   -0.3528 C   0  0  0  0  0  0  0  0  0  0  0  0
    8.5632   -1.4637   -0.6919 N   0  0  0  0  0  0  0  0  0  0  0  0
    9.3409   -1.5247   -0.0495 H   0  0  0  0  0  0  0  0  0  0  0  0
    8.6617   -1.2222   -2.0442 C   0  0  0  0  0  0  0  0  0  0  0  0
    9.7854   -1.0012   -2.8529 C   0  0  0  0  0  0  0  0  0  0  0  0
    9.5718   -0.7880   -4.2122 C   0  0  0  0  0  0  0  0  0  0  0  0
    8.2690   -0.7967   -4.7575 C   0  0  0  0  0  0  0  0  0  0  0  0
    7.1555   -1.0164   -3.9524 C   0  0  0  0  0  0  0  0  0  0  0  0
    7.3366   -1.2322   -2.5717 C   0  0  0  0  0  0  0  0  0  0  0  0
    0.0132   -0.5341    0.1399 H   0  0  0  0  0  0  0  0  0  0  0  0
    0.3086   -1.2382   -1.4772 H   0  0  0  0  0  0  0  0  0  0  0  0
   -1.9205    4.7023   -2.3965 H   0  0  0  0  0  0  0  0  0  0  0  0
   -1.8298    3.6703    1.7846 H   0  0  0  0  0  0  0  0  0  0  0  0
   -0.6146    1.5190    1.2857 H   0  0  0  0  0  0  0  0  0  0  0  0
    2.3578   -0.2384   -2.5443 H   0  0  0  0  0  0  0  0  0  0  0  0
    4.5378    0.3738   -0.6420 H   0  0  0  0  0  0  0  0  0  0  0  0
    4.6381    0.4018   -2.4160 H   0  0  0  0  0  0  0  0  0  0  0  0
    4.6152   -2.1405   -2.4036 H   0  0  0  0  0  0  0  0  0  0  0  0
    4.5592   -2.1027   -0.6347 H   0  0  0  0  0  0  0  0  0  0  0  0
    6.9441   -1.8307    0.6769 H   0  0  0  0  0  0  0  0  0  0  0  0
   10.7948   -0.9969   -2.4333 H   0  0  0  0  0  0  0  0  0  0  0  0
   10.4278   -0.6124   -4.8688 H   0  0  0  0  0  0  0  0  0  0  0  0
    8.1376   -0.6288   -5.8295 H   0  0  0  0  0  0  0  0  0  0  0  0
    6.1530   -1.0237   -4.3889 H   0  0  0  0  0  0  0  0  0  0  0  0
  1  2  2  0
  2  3  1  0
  2 16  1  0
  3  4  1  0
  3 29  1  0
  3 30  1  0
  4  5  1  0
  4 15  1  0
  5  6  2  0
  5  7  1  0
  7  8  1  0
  7  9  1  0
  9 10  1  0
  9 15  2  0
 10 11  2  0
 10 31  1  0
 11 12  1  0
 11 13  1  0
 13 14  2  0
 13 32  1  0
 14 15  1  0
 14 33  1  0
 16 17  1  0
 16 34  1  0
 17 18  1  0
 17 35  1  0
 17 36  1  0
 18 19  1  0
 18 37  1  0
 18 38  1  0
 19 20  2  0
 19 28  1  0
 20 21  1  0
 20 39  1  0
 21 22  1  0
 21 23  1  0
 23 24  1  0
 23 28  2  0
 24 25  2  0
 24 40  1  0
 25 26  1  0
 25 41  1  0
 26 27  2  0
 26 42  1  0
 27 28  1  0
 27 43  1  0
M  END

