
     RDKit          3D

 53 57  0  0  0  0  0  0  0  0999 V2000
    0.1795   -0.7201    2.2489 O   0  0  0  0  0  0  0  0  0  0  0  0
    0.1944    0.4062    1.8262 C   0  0  0  0  0  0  0  0  0  0  0  0
   -0.8044    0.8466    1.0246 O   0  0  0  0  0  0  0  0  0  0  0  0
    1.2813    1.3907    2.1463 C   0  0  0  0  0  0  0  0  0  0  0  0
    1.5246    2.5520    1.3932 C   0  0  0  0  0  0  0  0  0  0  0  0
    2.5626    3.4167    1.7270 C   0  0  0  0  0  0  0  0  0  0  0  0
    3.3950    3.1572    2.8371 C   0  0  0  0  0  0  0  0  0  0  0  0
    4.4705    4.0832    3.1945 C   0  0  0  0  0  0  0  0  0  0  0  0
    4.6726    5.3872    2.7792 C   0  0  0  0  0  0  0  0  0  0  0  0
    5.7605    6.0293    3.2736 N   0  0  0  0  0  0  0  0  0  0  0  0
    6.4533    5.2707    4.0889 C   0  0  0  0  0  0  0  0  0  0  0  0
    7.6773    5.6921    4.7700 C   0  0  0  0  0  0  0  0  0  0  0  0
    8.2042    6.9747    4.5146 C   0  0  0  0  0  0  0  0  0  0  0  0
    9.3673    7.4100    5.1354 C   0  0  0  0  0  0  0  0  0  0  0  0
   10.0536    6.5826    6.0507 C   0  0  0  0  0  0  0  0  0  0  0  0
   11.2318    7.0233    6.6847 N   0  0  0  0  0  0  0  0  0  0  0  0
   11.3985    8.3949    7.0299 C   0  0  0  0  0  0  0  0  0  0  0  0
   10.3614    9.1076    7.6575 C   0  0  0  0  0  0  0  0  0  0  0  0
   10.5332   10.4516    7.9930 C   0  0  0  0  0  0  0  0  0  0  0  0
   11.7429   11.1012    7.7266 C   0  0  0  0  0  0  0  0  0  0  0  0
   12.7802   10.3925    7.1123 C   0  0  0  0  0  0  0  0  0  0  0  0
   12.6109    9.0527    6.7585 C   0  0  0  0  0  0  0  0  0  0  0  0
   12.2741    6.1035    6.9940 C   0  0  0  0  0  0  0  0  0  0  0  0
   12.7101    5.1672    6.0397 C   0  0  0  0  0  0  0  0  0  0  0  0
   13.7323    4.2687    6.3503 C   0  0  0  0  0  0  0  0  0  0  0  0
   14.3477    4.2996    7.6060 C   0  0  0  0  0  0  0  0  0  0  0  0
   13.9242    5.2368    8.5536 C   0  0  0  0  0  0  0  0  0  0  0  0
   12.8915    6.1281    8.2568 C   0  0  0  0  0  0  0  0  0  0  0  0
    9.5248    5.3011    6.3130 C   0  0  0  0  0  0  0  0  0  0  0  0
    8.3652    4.8681    5.6809 C   0  0  0  0  0  0  0  0  0  0  0  0
    5.7678    3.6586    4.2888 S   0  0  0  0  0  0  0  0  0  0  0  0
    3.1523    1.9800    3.5781 C   0  0  0  0  0  0  0  0  0  0  0  0
    2.1246    1.1100    3.2325 C   0  0  0  0  0  0  0  0  0  0  0  0
   -0.7313    1.8007    0.8851 H   0  0  0  0  0  0  0  0  0  0  0  0
    0.9287    2.7790    0.5037 H   0  0  0  0  0  0  0  0  0  0  0  0
    2.7449    4.2931    1.1029 H   0  0  0  0  0  0  0  0  0  0  0  0
    4.0034    5.9223    2.1027 H   0  0  0  0  0  0  0  0  0  0  0  0
    7.6840    7.6176    3.8027 H   0  0  0  0  0  0  0  0  0  0  0  0
    9.7608    8.4018    4.9080 H   0  0  0  0  0  0  0  0  0  0  0  0
    9.4204    8.6014    7.8813 H   0  0  0  0  0  0  0  0  0  0  0  0
    9.7170   10.9914    8.4803 H   0  0  0  0  0  0  0  0  0  0  0  0
   11.8763   12.1514    7.9966 H   0  0  0  0  0  0  0  0  0  0  0  0
   13.7290   10.8894    6.8939 H   0  0  0  0  0  0  0  0  0  0  0  0
   13.4193    8.5066    6.2686 H   0  0  0  0  0  0  0  0  0  0  0  0
   12.2436    5.1492    5.0528 H   0  0  0  0  0  0  0  0  0  0  0  0
   14.0597    3.5473    5.5972 H   0  0  0  0  0  0  0  0  0  0  0  0
   15.1521    3.5995    7.8434 H   0  0  0  0  0  0  0  0  0  0  0  0
   14.3937    5.2687    9.5403 H   0  0  0  0  0  0  0  0  0  0  0  0
   12.5565    6.8507    9.0033 H   0  0  0  0  0  0  0  0  0  0  0  0
   10.0277    4.6459    7.0255 H   0  0  0  0  0  0  0  0  0  0  0  0
    7.9807    3.8723    5.9180 H   0  0  0  0  0  0  0  0  0  0  0  0
    3.7773    1.7490    4.4439 H   0  0  0  0  0  0  0  0  0  0  0  0
    1.9484    0.1958    3.8025 H   0  0  0  0  0  0  0  0  0  0  0  0
  1  2  2  0
  2  3  1  0
  2  4  1  0
  3 34  1  0
  4  5  2  0
  4 33  1  0
  5  6  1  0
  5 35  1  0
  6  7  2  0
  6 36  1  0
  7  8  1  0
  7 32  1  0
  8  9  2  0
  8 31  1  0
  9 10  1  0
  9 37  1  0
 10 11  2  0
 11 12  1  0
 11 31  1  0
 12 13  2  0
 12 30  1  0
 13 14  1  0
 13 38  1  0
 14 15  2  0
 14 39  1  0
 15 16  1  0
 15 29  1  0
 16 17  1  0
 16 23  1  0
 17 18  2  0
 17 22  1  0
 18 19  1  0
 18 40  1  0
 19 20  2  0
 19 41  1  0
 20 21  1  0
 20 42  1  0
 21 22  2  0
 21 43  1  0
 22 44  1  0
 23 24  2  0
 23 28  1  0
 24 25  1  0
 24 45  1  0
 25 26  2  0
 25 46  1  0
 26 27  1  0
 26 47  1  0
 27 28  2  0
 27 48  1  0
 28 49  1  0
 29 30  2  0
 29 50  1  0
 30 51  1  0
 32 33  2  0
 32 52  1  0
 33 53  1  0
M  END

