
     RDKit          3D

 44 46  0  0  0  0  0  0  0  0999 V2000
    3.2916    0.9045    0.8020 C   0  0  0  0  0  0  0  0  0  0  0  0
    2.1115   -0.0524    0.5640 C   0  0  1  0  0  0  0  0  0  0  0  0
    0.8668    0.7763    0.2494 C   0  0  0  0  0  0  0  0  0  0  0  0
    0.6088    1.2548   -1.0418 C   0  0  0  0  0  0  0  0  0  0  0  0
   -0.5103    2.0642   -1.2554 C   0  0  0  0  0  0  0  0  0  0  0  0
   -1.3668    2.4174   -0.2923 N   0  0  0  0  0  0  0  0  0  0  0  0
   -1.1238    1.9591    0.9375 C   0  0  0  0  0  0  0  0  0  0  0  0
   -0.0337    1.1434    1.2573 C   0  0  0  0  0  0  0  0  0  0  0  0
    2.3679   -1.0108   -0.5184 N   0  0  0  0  0  0  0  0  0  0  0  0
    3.6899   -1.6174   -0.6217 C   0  0  0  0  0  0  0  0  0  0  0  0
    3.9517   -2.7073    0.4325 C   0  0  0  0  0  0  0  0  0  0  0  0
    2.9175   -3.7393    0.3411 N   0  0  0  0  0  0  0  0  0  0  0  0
    3.1934   -5.0870    0.3644 C   0  0  0  0  0  0  0  0  0  0  0  0
    4.1227   -5.6924    1.2467 C   0  0  0  0  0  0  0  0  0  0  0  0
    5.0211   -4.7538    2.6508 Br  0  0  0  0  0  0  0  0  0  0  0  0
    4.2861   -7.0827    1.2392 C   0  0  0  0  0  0  0  0  0  0  0  0
    3.5718   -7.9222    0.5090 N   0  0  0  0  0  0  0  0  0  0  0  0
    2.6422   -7.4210   -0.3261 C   0  0  0  0  0  0  0  0  0  0  0  0
    1.9151   -8.3285   -1.0094 N   0  0  0  0  0  0  0  0  0  0  0  0
    2.4969   -6.0067   -0.4866 C   0  0  0  0  0  0  0  0  0  0  0  0
    1.7842   -5.5284   -1.6589 N   0  0  0  0  0  0  0  0  0  0  0  0
    2.2137   -4.5534   -2.2580 O   0  0  0  0  0  0  0  0  0  0  0  0
    0.7955   -6.1643   -2.0368 O   0  0  0  0  0  0  0  0  0  0  0  0
    1.5446   -3.2174    0.3353 C   0  0  0  0  0  0  0  0  0  0  0  0
    1.3535   -2.0578   -0.6572 C   0  0  0  0  0  0  0  0  0  0  0  0
    2.9965    1.6796    1.5238 H   0  0  0  0  0  0  0  0  0  0  0  0
    3.5838    1.4057   -0.1342 H   0  0  0  0  0  0  0  0  0  0  0  0
    4.1705    0.3873    1.2148 H   0  0  0  0  0  0  0  0  0  0  0  0
    1.9147   -0.5608    1.5337 H   0  0  0  0  0  0  0  0  0  0  0  0
    1.2698    0.9811   -1.8666 H   0  0  0  0  0  0  0  0  0  0  0  0
   -0.7241    2.4446   -2.2618 H   0  0  0  0  0  0  0  0  0  0  0  0
   -1.8366    2.2506    1.7188 H   0  0  0  0  0  0  0  0  0  0  0  0
    0.1066    0.7969    2.2855 H   0  0  0  0  0  0  0  0  0  0  0  0
    4.4763   -0.8534   -0.5569 H   0  0  0  0  0  0  0  0  0  0  0  0
    3.7677   -2.0781   -1.6206 H   0  0  0  0  0  0  0  0  0  0  0  0
    3.9768   -2.2576    1.4427 H   0  0  0  0  0  0  0  0  0  0  0  0
    4.9338   -3.1634    0.2535 H   0  0  0  0  0  0  0  0  0  0  0  0
    5.0184   -7.5276    1.9225 H   0  0  0  0  0  0  0  0  0  0  0  0
    2.1635   -9.3017   -0.8890 H   0  0  0  0  0  0  0  0  0  0  0  0
    1.1478   -8.0259   -1.5962 H   0  0  0  0  0  0  0  0  0  0  0  0
    1.3110   -2.8702    1.3622 H   0  0  0  0  0  0  0  0  0  0  0  0
    0.8342   -4.0261    0.1183 H   0  0  0  0  0  0  0  0  0  0  0  0
    0.3517   -1.6265   -0.5139 H   0  0  0  0  0  0  0  0  0  0  0  0
    1.4002   -2.4531   -1.6821 H   0  0  0  0  0  0  0  0  0  0  0  0
  1  2  1  0
  1 26  1  0
  1 27  1  0
  1 28  1  0
  2  3  1  0
  2  9  1  0
  2 29  1  1
  3  4  2  0
  3  8  1  0
  4  5  1  0
  4 30  1  0
  5  6  2  0
  5 31  1  0
  6  7  1  0
  7  8  2  0
  7 32  1  0
  8 33  1  0
  9 10  1  0
  9 25  1  0
 10 11  1  0
 10 34  1  0
 10 35  1  0
 11 12  1  0
 11 36  1  0
 11 37  1  0
 12 13  1  0
 12 24  1  0
 13 14  2  0
 13 20  1  0
 14 15  1  0
 14 16  1  0
 16 17  2  0
 16 38  1  0
 17 18  1  0
 18 19  1  0
 18 20  2  0
 19 39  1  0
 19 40  1  0
 20 21  1  0
 21 22  2  0
 21 23  1  0
 24 25  1  0
 24 41  1  0
 24 42  1  0
 25 43  1  0
 25 44  1  0
M  CHG  2  21   1  23  -1
M  END

