
     RDKit          3D

 46 46  0  0  0  0  0  0  0  0999 V2000
    0.1777    3.8570    0.5243 C   0  0  0  0  0  0  0  0  0  0  0  0
    1.6665    4.1987    0.5812 C   0  0  0  0  0  0  0  0  0  0  0  0
    2.5273    3.3051   -0.3115 C   0  0  0  0  0  0  0  0  0  0  0  0
    3.9314    3.6864   -0.2524 N   0  0  0  0  0  0  0  0  0  0  0  0
    4.8700    2.8013   -0.9472 C   0  0  1  0  0  0  0  0  0  0  0  0
    4.6457    2.8272   -2.4636 C   0  0  0  0  0  0  0  0  0  0  0  0
    6.3269    3.1329   -0.5592 C   0  0  0  0  0  0  0  0  0  0  0  0
    6.8945    4.4708   -1.0469 C   0  0  1  0  0  0  0  0  0  0  0  0
    6.4309    5.7055   -0.2828 C   0  0  0  0  0  0  0  0  0  0  0  0
    8.7808    4.3096   -0.9100 S   0  0  0  0  0  0  0  0  0  0  0  0
    9.1500    3.0075   -1.5998 O   0  0  0  0  0  0  0  0  0  0  0  0
    9.2687    5.7241   -1.9658 C   0  0  0  0  0  0  0  0  0  0  0  0
    9.7787    6.8165   -1.2509 C   0  0  0  0  0  0  0  0  0  0  0  0
   10.2504    7.9643   -1.8992 C   0  0  0  0  0  0  0  0  0  0  0  0
   10.7828    9.1474   -1.1282 C   0  0  0  0  0  0  0  0  0  0  0  0
   10.2230    7.9641   -3.3022 C   0  0  0  0  0  0  0  0  0  0  0  0
    9.7405    6.8660   -4.0136 C   0  0  0  0  0  0  0  0  0  0  0  0
    9.2453    5.7157   -3.3752 C   0  0  0  0  0  0  0  0  0  0  0  0
    8.7172    4.5625   -4.1944 C   0  0  0  0  0  0  0  0  0  0  0  0
   -0.4106    4.5171    1.1808 H   0  0  0  0  0  0  0  0  0  0  0  0
   -0.0114    2.8181    0.8426 H   0  0  0  0  0  0  0  0  0  0  0  0
   -0.2203    3.9663   -0.4984 H   0  0  0  0  0  0  0  0  0  0  0  0
    2.0233    4.1164    1.6252 H   0  0  0  0  0  0  0  0  0  0  0  0
    1.8296    5.2490    0.2850 H   0  0  0  0  0  0  0  0  0  0  0  0
    2.1725    3.3967   -1.3524 H   0  0  0  0  0  0  0  0  0  0  0  0
    2.3661    2.2376   -0.0284 H   0  0  0  0  0  0  0  0  0  0  0  0
    4.2095    3.7491    0.7274 H   0  0  0  0  0  0  0  0  0  0  0  0
    4.7160    1.7452   -0.6222 H   0  0  0  0  0  0  0  0  0  0  0  0
    4.6596    3.8581   -2.8514 H   0  0  0  0  0  0  0  0  0  0  0  0
    3.6761    2.3835   -2.7352 H   0  0  0  0  0  0  0  0  0  0  0  0
    5.4278    2.2472   -2.9778 H   0  0  0  0  0  0  0  0  0  0  0  0
    6.9672    2.3332   -0.9643 H   0  0  0  0  0  0  0  0  0  0  0  0
    6.4227    3.0773    0.5420 H   0  0  0  0  0  0  0  0  0  0  0  0
    6.7088    4.5845   -2.1246 H   0  0  0  0  0  0  0  0  0  0  0  0
    6.7062    5.6372    0.7835 H   0  0  0  0  0  0  0  0  0  0  0  0
    5.3350    5.7721   -0.3436 H   0  0  0  0  0  0  0  0  0  0  0  0
    6.8646    6.6309   -0.6915 H   0  0  0  0  0  0  0  0  0  0  0  0
    9.8147    6.7619   -0.1585 H   0  0  0  0  0  0  0  0  0  0  0  0
   10.7856    8.9569   -0.0450 H   0  0  0  0  0  0  0  0  0  0  0  0
   10.1737   10.0493   -1.3085 H   0  0  0  0  0  0  0  0  0  0  0  0
   11.8148    9.3915   -1.4302 H   0  0  0  0  0  0  0  0  0  0  0  0
   10.5974    8.8344   -3.8496 H   0  0  0  0  0  0  0  0  0  0  0  0
    9.7468    6.8933   -5.1073 H   0  0  0  0  0  0  0  0  0  0  0  0
    9.1495    4.5772   -5.2060 H   0  0  0  0  0  0  0  0  0  0  0  0
    7.6209    4.6302   -4.3110 H   0  0  0  0  0  0  0  0  0  0  0  0
    8.9387    3.6032   -3.7079 H   0  0  0  0  0  0  0  0  0  0  0  0
  1  2  1  0
  1 20  1  0
  1 21  1  0
  1 22  1  0
  2  3  1  0
  2 23  1  0
  2 24  1  0
  3  4  1  0
  3 25  1  0
  3 26  1  0
  4  5  1  0
  4 27  1  0
  5  6  1  0
  5  7  1  0
  5 28  1  1
  6 29  1  0
  6 30  1  0
  6 31  1  0
  7  8  1  0
  7 32  1  0
  7 33  1  0
  8  9  1  0
  8 10  1  0
  8 34  1  6
  9 35  1  0
  9 36  1  0
  9 37  1  0
 10 11  1  6
 10 12  1  0
 12 13  2  0
 12 18  1  0
 13 14  1  0
 13 38  1  0
 14 15  1  0
 14 16  2  0
 15 39  1  0
 15 40  1  0
 15 41  1  0
 16 17  1  0
 16 42  1  0
 17 18  2  0
 17 43  1  0
 18 19  1  0
 19 44  1  0
 19 45  1  0
 19 46  1  0
M  CHG  2  10   1  11  -1
M  END

