
     RDKit          3D

 50 49  0  0  0  0  0  0  0  0999 V2000
    5.0740   -1.3844   -1.2705 C   0  0  0  0  0  0  0  0  0  0  0  0
    4.2269   -1.3395    0.0038 C   0  0  0  0  0  0  0  0  0  0  0  0
    4.7149   -0.3491    1.0722 C   0  0  0  0  0  0  0  0  0  0  0  0
    4.5121    1.1254    0.7107 C   0  0  1  0  0  0  0  0  0  0  0  0
    3.1057    1.3476    0.6701 O   0  0  0  0  0  0  0  0  0  0  0  0
    2.6499    2.3340   -0.2322 C   0  0  0  0  0  0  0  0  0  0  0  0
    1.1373    2.4221   -0.1367 C   0  0  0  0  0  0  0  0  0  0  0  0
    5.2062    2.1537    1.6573 C   0  0  1  0  0  0  0  0  0  0  0  0
    4.6968    2.1187    3.1180 C   0  0  0  0  0  0  0  0  0  0  0  0
    5.4445    1.1793    4.0735 C   0  0  0  0  0  0  0  0  0  0  0  0
    4.9110    1.1918    5.5090 C   0  0  0  0  0  0  0  0  0  0  0  0
    5.3295    2.7374    6.3856 S   0  0  1  0  0  0  0  0  0  0  0  0
    6.7876    2.9251    6.2891 O   0  0  0  0  0  0  0  0  0  0  0  0
    4.4133    3.8074    5.9495 O   0  0  0  0  0  0  0  0  0  0  0  0
    4.9363    2.3743    8.1296 C   0  0  0  0  0  0  0  0  0  0  0  0
    5.1925    3.6170    8.9740 C   0  0  0  0  0  0  0  0  0  0  0  0
    6.6633    2.1432    1.5924 N   0  0  0  0  0  0  0  0  0  0  0  0
    7.2983    2.7655    0.4415 C   0  0  0  0  0  0  0  0  0  0  0  0
    8.8164    2.7724    0.5913 C   0  0  0  0  0  0  0  0  0  0  0  0
    4.6842   -2.1317   -1.9801 H   0  0  0  0  0  0  0  0  0  0  0  0
    6.1208   -1.6541   -1.0485 H   0  0  0  0  0  0  0  0  0  0  0  0
    5.0883   -0.4159   -1.7965 H   0  0  0  0  0  0  0  0  0  0  0  0
    4.2012   -2.3487    0.4501 H   0  0  0  0  0  0  0  0  0  0  0  0
    3.1823   -1.0895   -0.2456 H   0  0  0  0  0  0  0  0  0  0  0  0
    5.7849   -0.5310    1.2779 H   0  0  0  0  0  0  0  0  0  0  0  0
    4.1698   -0.5443    2.0099 H   0  0  0  0  0  0  0  0  0  0  0  0
    4.9287    1.2997   -0.3010 H   0  0  0  0  0  0  0  0  0  0  0  0
    2.9576    2.0738   -1.2665 H   0  0  0  0  0  0  0  0  0  0  0  0
    3.0996    3.3220   -0.0071 H   0  0  0  0  0  0  0  0  0  0  0  0
    0.6764    1.4505   -0.3736 H   0  0  0  0  0  0  0  0  0  0  0  0
    0.7487    3.1741   -0.8414 H   0  0  0  0  0  0  0  0  0  0  0  0
    0.8289    2.7074    0.8810 H   0  0  0  0  0  0  0  0  0  0  0  0
    4.9010    3.1384    1.2655 H   0  0  0  0  0  0  0  0  0  0  0  0
    3.6223    1.8705    3.1013 H   0  0  0  0  0  0  0  0  0  0  0  0
    4.7693    3.1372    3.5270 H   0  0  0  0  0  0  0  0  0  0  0  0
    6.5111    1.4527    4.0977 H   0  0  0  0  0  0  0  0  0  0  0  0
    5.3899    0.1338    3.7292 H   0  0  0  0  0  0  0  0  0  0  0  0
    5.3710    0.3906    6.1080 H   0  0  0  0  0  0  0  0  0  0  0  0
    3.8149    1.0986    5.5575 H   0  0  0  0  0  0  0  0  0  0  0  0
    5.5758    1.5282    8.4233 H   0  0  0  0  0  0  0  0  0  0  0  0
    3.8806    2.0623    8.1530 H   0  0  0  0  0  0  0  0  0  0  0  0
    6.2467    3.9220    8.8995 H   0  0  0  0  0  0  0  0  0  0  0  0
    4.9604    3.4118   10.0301 H   0  0  0  0  0  0  0  0  0  0  0  0
    4.5643    4.4518    8.6308 H   0  0  0  0  0  0  0  0  0  0  0  0
    7.0430    1.2123    1.7543 H   0  0  0  0  0  0  0  0  0  0  0  0
    6.9326    3.8059    0.3770 H   0  0  0  0  0  0  0  0  0  0  0  0
    7.0341    2.2918   -0.5315 H   0  0  0  0  0  0  0  0  0  0  0  0
    9.1104    3.2804    1.5227 H   0  0  0  0  0  0  0  0  0  0  0  0
    9.2957    3.2837   -0.2584 H   0  0  0  0  0  0  0  0  0  0  0  0
    9.2175    1.7447    0.6266 H   0  0  0  0  0  0  0  0  0  0  0  0
  1  2  1  0
  1 20  1  0
  1 21  1  0
  1 22  1  0
  2  3  1  0
  2 23  1  0
  2 24  1  0
  3  4  1  0
  3 25  1  0
  3 26  1  0
  4  5  1  0
  4  8  1  0
  4 27  1  6
  5  6  1  0
  6  7  1  0
  6 28  1  0
  6 29  1  0
  7 30  1  0
  7 31  1  0
  7 32  1  0
  8  9  1  0
  8 17  1  0
  8 33  1  6
  9 10  1  0
  9 34  1  0
  9 35  1  0
 10 11  1  0
 10 36  1  0
 10 37  1  0
 12 11  1  6
 11 38  1  0
 11 39  1  0
 12 13  2  0
 12 14  2  0
 12 15  1  0
 15 16  1  0
 15 40  1  0
 15 41  1  0
 16 42  1  0
 16 43  1  0
 16 44  1  0
 17 18  1  0
 17 45  1  0
 18 19  1  0
 18 46  1  0
 18 47  1  0
 19 48  1  0
 19 49  1  0
 19 50  1  0
M  END

