
     RDKit          3D

 26 27  0  0  0  0  0  0  0  0999 V2000
    1.2374   -0.5086    0.0721 C   0  0  0  0  0  0  0  0  0  0  0  0
    2.7102   -0.3299   -0.2185 C   0  0  1  0  0  0  0  0  0  0  0  0
    3.2635   -0.4981   -1.5953 C   0  0  0  0  0  0  0  0  0  0  0  0
    3.1988    0.8909   -0.9824 C   0  0  2  0  0  0  0  0  0  0  0  0
    4.4897    1.5126   -0.5425 C   0  0  0  0  0  0  0  0  0  0  0  0
    5.4149    0.8569   -0.0868 O   0  0  0  0  0  0  0  0  0  0  0  0
    4.5485    2.8812   -0.6666 N   0  0  0  0  0  0  0  0  0  0  0  0
    5.7533    3.6208   -0.4132 C   0  0  1  0  0  0  0  0  0  0  0  0
    6.8320    3.4720   -1.4585 C   0  0  0  0  0  0  0  0  0  0  0  0
    6.3010    4.1450   -3.0642 Cl  0  0  0  0  0  0  0  0  0  0  0  0
    5.5903    4.9444    0.2943 C   0  0  0  0  0  0  0  0  0  0  0  0
    6.1862    3.7726    1.0265 C   0  0  0  0  0  0  0  0  0  0  0  0
    1.0000   -1.5687    0.2612 H   0  0  0  0  0  0  0  0  0  0  0  0
    0.6156   -0.1762   -0.7754 H   0  0  0  0  0  0  0  0  0  0  0  0
    0.9292    0.0659    0.9613 H   0  0  0  0  0  0  0  0  0  0  0  0
    3.3912   -0.6321    0.5846 H   0  0  0  0  0  0  0  0  0  0  0  0
    2.5716   -0.7107   -2.4159 H   0  0  0  0  0  0  0  0  0  0  0  0
    4.2624   -0.9305   -1.6953 H   0  0  0  0  0  0  0  0  0  0  0  0
    2.4319    1.5710   -1.3669 H   0  0  0  0  0  0  0  0  0  0  0  0
    3.8456    3.3371   -1.2381 H   0  0  0  0  0  0  0  0  0  0  0  0
    7.0693    2.4123   -1.6177 H   0  0  0  0  0  0  0  0  0  0  0  0
    7.7450    4.0120   -1.1769 H   0  0  0  0  0  0  0  0  0  0  0  0
    4.5726    5.2481    0.5537 H   0  0  0  0  0  0  0  0  0  0  0  0
    6.2440    5.7646   -0.0152 H   0  0  0  0  0  0  0  0  0  0  0  0
    5.5787    3.2583    1.7735 H   0  0  0  0  0  0  0  0  0  0  0  0
    7.2588    3.7722    1.2379 H   0  0  0  0  0  0  0  0  0  0  0  0
  1  2  1  0
  1 13  1  0
  1 14  1  0
  1 15  1  0
  2  3  1  0
  2  4  1  0
  2 16  1  1
  3  4  1  0
  3 17  1  0
  3 18  1  0
  4  5  1  0
  4 19  1  6
  5  6  2  0
  5  7  1  0
  8  7  1  1
  7 20  1  0
  8  9  1  0
  8 11  1  0
  8 12  1  0
  9 10  1  0
  9 21  1  0
  9 22  1  0
 11 12  1  0
 11 23  1  0
 11 24  1  0
 12 25  1  0
 12 26  1  0
M  END

