
     RDKit          3D

 49 50  0  0  0  0  0  0  0  0999 V2000
    1.1397    0.2344    0.3101 C   0  0  0  0  0  0  0  0  0  0  0  0
    2.5887    0.0890    0.2937 N   0  0  0  0  0  0  0  0  0  0  0  0
    3.1840   -0.2505   -0.9975 C   0  0  0  0  0  0  0  0  0  0  0  0
    3.0420   -1.7242   -1.4057 C   0  0  2  0  0  0  0  0  0  0  0  0
    3.8927   -2.7616   -0.5971 C   0  0  0  0  0  0  0  0  0  0  0  0
    4.5743   -3.6040   -1.7011 C   0  0  2  0  0  0  0  0  0  0  0  0
    5.6953   -2.7543   -2.3422 C   0  0  0  0  0  0  0  0  0  0  0  0
    4.9021   -1.6824   -3.1562 C   0  0  0  0  0  0  0  0  0  0  0  0
    3.4247   -2.0487   -2.8760 C   0  0  1  0  0  0  0  0  0  0  0  0
    3.5055   -3.5884   -2.8149 C   0  0  0  0  0  0  0  0  0  0  0  0
    3.2611    0.2851    1.4830 C   0  0  0  0  0  0  0  0  0  0  0  0
    2.6900    0.5545    2.5293 O   0  0  0  0  0  0  0  0  0  0  0  0
    4.6533    0.1197    1.4540 N   0  0  0  0  0  0  0  0  0  0  0  0
    5.4645    0.6021    2.5732 C   0  0  1  0  0  0  0  0  0  0  0  0
    4.7484    0.7250    3.4035 H   0  0  0  0  0  0  0  0  0  0  0  0
    6.4193   -0.5317    3.0237 C   0  0  0  0  0  0  0  0  0  0  0  0
    7.4472   -0.3706    3.6275 O   0  0  0  0  0  0  0  0  0  0  0  0
    5.9744   -1.7634    2.7251 O   0  0  0  0  0  0  0  0  0  0  0  0
    6.1447    1.9899    2.3232 C   0  0  1  0  0  0  0  0  0  0  0  0
    5.0853    2.9731    1.7844 C   0  0  0  0  0  0  0  0  0  0  0  0
    6.6814    2.5494    3.6567 C   0  0  0  0  0  0  0  0  0  0  0  0
    7.2949    1.8660    1.3058 C   0  0  0  0  0  0  0  0  0  0  0  0
    0.6333   -0.7125    0.0561 H   0  0  0  0  0  0  0  0  0  0  0  0
    0.8215    1.0000   -0.4189 H   0  0  0  0  0  0  0  0  0  0  0  0
    0.8285    0.5391    1.3150 H   0  0  0  0  0  0  0  0  0  0  0  0
    4.2395    0.0564   -1.0221 H   0  0  0  0  0  0  0  0  0  0  0  0
    2.6872    0.3760   -1.7605 H   0  0  0  0  0  0  0  0  0  0  0  0
    1.9757   -1.9809   -1.2929 H   0  0  0  0  0  0  0  0  0  0  0  0
    3.2543   -3.3852    0.0475 H   0  0  0  0  0  0  0  0  0  0  0  0
    4.6376   -2.2835    0.0575 H   0  0  0  0  0  0  0  0  0  0  0  0
    4.9087   -4.5942   -1.3592 H   0  0  0  0  0  0  0  0  0  0  0  0
    6.3243   -3.3704   -3.0036 H   0  0  0  0  0  0  0  0  0  0  0  0
    6.3634   -2.3141   -1.5849 H   0  0  0  0  0  0  0  0  0  0  0  0
    5.1105   -1.7673   -4.2341 H   0  0  0  0  0  0  0  0  0  0  0  0
    5.1566   -0.6491   -2.8748 H   0  0  0  0  0  0  0  0  0  0  0  0
    2.7180   -1.6291   -3.6083 H   0  0  0  0  0  0  0  0  0  0  0  0
    3.8503   -4.0443   -3.7569 H   0  0  0  0  0  0  0  0  0  0  0  0
    2.5559   -4.0637   -2.5205 H   0  0  0  0  0  0  0  0  0  0  0  0
    5.1093    0.1546    0.5500 H   0  0  0  0  0  0  0  0  0  0  0  0
    5.1545   -1.6477    2.2076 H   0  0  0  0  0  0  0  0  0  0  0  0
    4.2127    3.0304    2.4529 H   0  0  0  0  0  0  0  0  0  0  0  0
    4.7222    2.6920    0.7832 H   0  0  0  0  0  0  0  0  0  0  0  0
    5.5207    3.9815    1.7019 H   0  0  0  0  0  0  0  0  0  0  0  0
    5.8644    2.6648    4.3883 H   0  0  0  0  0  0  0  0  0  0  0  0
    7.1237    3.5458    3.4939 H   0  0  0  0  0  0  0  0  0  0  0  0
    7.4429    1.8913    4.0915 H   0  0  0  0  0  0  0  0  0  0  0  0
    6.9476    1.4687    0.3350 H   0  0  0  0  0  0  0  0  0  0  0  0
    8.0952    1.2120    1.6809 H   0  0  0  0  0  0  0  0  0  0  0  0
    7.7329    2.8560    1.1013 H   0  0  0  0  0  0  0  0  0  0  0  0
  1  2  1  0
  1 23  1  0
  1 24  1  0
  1 25  1  0
  2  3  1  0
  2 11  1  0
  3  4  1  0
  3 26  1  0
  3 27  1  0
  4  5  1  0
  4  9  1  0
  4 28  1  6
  5  6  1  0
  5 29  1  0
  5 30  1  0
  6  7  1  0
  6 10  1  0
  6 31  1  1
  7  8  1  0
  7 32  1  0
  7 33  1  0
  8  9  1  0
  8 34  1  0
  8 35  1  0
  9 10  1  0
  9 36  1  6
 10 37  1  0
 10 38  1  0
 11 12  2  0
 11 13  1  0
 13 14  1  0
 13 39  1  0
 14 15  1  1
 14 16  1  0
 14 19  1  0
 16 17  2  0
 16 18  1  0
 18 40  1  0
 19 20  1  6
 19 21  1  0
 19 22  1  0
 20 41  1  0
 20 42  1  0
 20 43  1  0
 21 44  1  0
 21 45  1  0
 21 46  1  0
 22 47  1  0
 22 48  1  0
 22 49  1  0
M  END

