
     RDKit          3D

 49 53  0  0  0  0  0  0  0  0999 V2000
    0.6247    0.1611    0.4125 C   0  0  0  0  0  0  0  0  0  0  0  0
    2.1125    0.0983    0.2394 C   0  0  0  0  0  0  0  0  0  0  0  0
    2.9802    1.1254   -0.0543 C   0  0  0  0  0  0  0  0  0  0  0  0
    4.3410    0.7145   -0.1448 C   0  0  0  0  0  0  0  0  0  0  0  0
    4.5174   -0.6356    0.0834 C   0  0  0  0  0  0  0  0  0  0  0  0
    5.7087   -1.4757    0.0594 C   0  0  0  0  0  0  0  0  0  0  0  0
    5.5691   -2.8291    0.0229 N   0  0  0  0  0  0  0  0  0  0  0  0
    6.7961   -3.3246   -0.0462 C   0  0  0  0  0  0  0  0  0  0  0  0
    7.2858   -4.6483   -0.1028 C   0  0  0  0  0  0  0  0  0  0  0  0
    8.6394   -4.8531   -0.1601 C   0  0  0  0  0  0  0  0  0  0  0  0
    9.5322   -3.7167   -0.1516 C   0  0  0  0  0  0  0  0  0  0  0  0
   10.9068   -3.8759   -0.2430 N   0  0  0  0  0  0  0  0  0  0  0  0
   11.5623   -5.1056    0.1988 C   0  0  0  0  0  0  0  0  0  0  0  0
   12.9015   -5.2904   -0.5135 C   0  0  0  0  0  0  0  0  0  0  0  0
   13.7318   -4.1177   -0.3032 N   0  0  0  0  0  0  0  0  0  0  0  0
   13.0958   -2.9235   -0.8382 C   0  0  0  0  0  0  0  0  0  0  0  0
   11.7591   -2.6888   -0.1404 C   0  0  0  0  0  0  0  0  0  0  0  0
    9.0813   -2.4735   -0.0882 N   0  0  0  0  0  0  0  0  0  0  0  0
    7.7494   -2.3067   -0.0655 N   0  0  0  0  0  0  0  0  0  0  0  0
    7.0743   -1.1060    0.0192 C   0  0  0  0  0  0  0  0  0  0  0  0
    7.7647    0.1923    0.0868 C   0  0  0  0  0  0  0  0  0  0  0  0
    7.4435    1.1326    1.0890 C   0  0  0  0  0  0  0  0  0  0  0  0
    8.1379    2.3392    1.1075 C   0  0  0  0  0  0  0  0  0  0  0  0
    9.0940    2.6705    0.2356 N   0  0  0  0  0  0  0  0  0  0  0  0
    9.4125    1.7809   -0.7134 C   0  0  0  0  0  0  0  0  0  0  0  0
   10.4349    2.1329   -1.5688 N   0  0  0  0  0  0  0  0  0  0  0  0
    8.7695    0.5275   -0.8242 C   0  0  0  0  0  0  0  0  0  0  0  0
    2.9758   -1.4055    0.4015 S   0  0  0  0  0  0  0  0  0  0  0  0
    0.2692    1.1885    0.2434 H   0  0  0  0  0  0  0  0  0  0  0  0
    0.3140   -0.1400    1.4275 H   0  0  0  0  0  0  0  0  0  0  0  0
    0.0984   -0.4993   -0.2972 H   0  0  0  0  0  0  0  0  0  0  0  0
    2.6486    2.1547   -0.2062 H   0  0  0  0  0  0  0  0  0  0  0  0
    5.1601    1.3919   -0.3824 H   0  0  0  0  0  0  0  0  0  0  0  0
    6.5717   -5.4730   -0.1031 H   0  0  0  0  0  0  0  0  0  0  0  0
    9.0287   -5.8664   -0.2250 H   0  0  0  0  0  0  0  0  0  0  0  0
   10.9304   -5.9754   -0.0146 H   0  0  0  0  0  0  0  0  0  0  0  0
   11.7390   -5.0761    1.2935 H   0  0  0  0  0  0  0  0  0  0  0  0
   12.6970   -5.4920   -1.5905 H   0  0  0  0  0  0  0  0  0  0  0  0
   13.4042   -6.1787   -0.0980 H   0  0  0  0  0  0  0  0  0  0  0  0
   14.6584   -4.2501   -0.7028 H   0  0  0  0  0  0  0  0  0  0  0  0
   12.9136   -2.9880   -1.9356 H   0  0  0  0  0  0  0  0  0  0  0  0
   13.7446   -2.0510   -0.6606 H   0  0  0  0  0  0  0  0  0  0  0  0
   11.2349   -1.8381   -0.5892 H   0  0  0  0  0  0  0  0  0  0  0  0
   11.9367   -2.4387    0.9246 H   0  0  0  0  0  0  0  0  0  0  0  0
    6.6777    0.9178    1.8348 H   0  0  0  0  0  0  0  0  0  0  0  0
    7.9091    3.0867    1.8770 H   0  0  0  0  0  0  0  0  0  0  0  0
   10.6834    3.1156   -1.5529 H   0  0  0  0  0  0  0  0  0  0  0  0
   10.4806    1.6810   -2.4729 H   0  0  0  0  0  0  0  0  0  0  0  0
    9.0594   -0.1714   -1.6099 H   0  0  0  0  0  0  0  0  0  0  0  0
  1  2  1  0
  1 29  1  0
  1 30  1  0
  1 31  1  0
  2  3  2  0
  2 28  1  0
  3  4  1  0
  3 32  1  0
  4  5  2  0
  4 33  1  0
  5  6  1  0
  5 28  1  0
  6  7  1  0
  6 20  2  0
  7  8  2  0
  8  9  1  0
  8 19  1  0
  9 10  2  0
  9 34  1  0
 10 11  1  0
 10 35  1  0
 11 12  1  0
 11 18  2  0
 12 13  1  0
 12 17  1  0
 13 14  1  0
 13 36  1  0
 13 37  1  0
 14 15  1  0
 14 38  1  0
 14 39  1  0
 15 16  1  0
 15 40  1  0
 16 17  1  0
 16 41  1  0
 16 42  1  0
 17 43  1  0
 17 44  1  0
 18 19  1  0
 19 20  1  0
 20 21  1  0
 21 22  2  0
 21 27  1  0
 22 23  1  0
 22 45  1  0
 23 24  2  0
 23 46  1  0
 24 25  1  0
 25 26  1  0
 25 27  2  0
 26 47  1  0
 26 48  1  0
 27 49  1  0
M  END

