
     RDKit          3D

 36 36  0  0  0  0  0  0  0  0999 V2000
    1.7439   -0.2025    1.2170 C   0  0  0  0  0  0  0  0  0  0  0  0
    2.9355   -0.0876    0.4762 O   0  0  0  0  0  0  0  0  0  0  0  0
    3.3926    1.1497    0.1416 C   0  0  0  0  0  0  0  0  0  0  0  0
    2.7523    2.3464    0.4901 C   0  0  0  0  0  0  0  0  0  0  0  0
    3.3313    3.5546    0.0737 C   0  0  0  0  0  0  0  0  0  0  0  0
    4.5094    3.5868   -0.6593 C   0  0  0  0  0  0  0  0  0  0  0  0
    5.1612    2.3779   -1.0098 C   0  0  0  0  0  0  0  0  0  0  0  0
    6.3524    2.4267   -1.7152 N   0  0  0  0  0  0  0  0  0  0  0  0
    6.9745    1.2627   -2.3095 C   0  0  0  0  0  0  0  0  0  0  0  0
    8.3110    1.6127   -2.9662 C   0  0  0  0  0  0  0  0  0  0  0  0
    9.3808    2.1212   -1.9944 C   0  0  0  0  0  0  0  0  0  0  0  0
   10.7031    2.4735   -2.6944 C   0  0  0  0  0  0  0  0  0  0  0  0
   11.7567    3.0311   -1.7744 C   0  0  0  0  0  0  0  0  0  0  0  0
   12.2977    2.2055   -0.8193 N   0  0  0  0  0  0  0  0  0  0  0  0
   12.1221    4.2541   -1.9600 N   0  0  0  0  0  0  0  0  0  0  0  0
   13.0989    4.6181   -1.0041 O   0  0  0  0  0  0  0  0  0  0  0  0
    4.5814    1.1641   -0.6075 C   0  0  0  0  0  0  0  0  0  0  0  0
    1.5699   -1.2769    1.3678 H   0  0  0  0  0  0  0  0  0  0  0  0
    0.8790    0.2268    0.6788 H   0  0  0  0  0  0  0  0  0  0  0  0
    1.8220    0.2878    2.2046 H   0  0  0  0  0  0  0  0  0  0  0  0
    1.8279    2.3554    1.0659 H   0  0  0  0  0  0  0  0  0  0  0  0
    2.8408    4.4960    0.3366 H   0  0  0  0  0  0  0  0  0  0  0  0
    4.9457    4.5424   -0.9629 H   0  0  0  0  0  0  0  0  0  0  0  0
    6.5237    3.3020   -2.1973 H   0  0  0  0  0  0  0  0  0  0  0  0
    6.3119    0.7788   -3.0582 H   0  0  0  0  0  0  0  0  0  0  0  0
    7.1479    0.5080   -1.5217 H   0  0  0  0  0  0  0  0  0  0  0  0
    8.1411    2.3679   -3.7571 H   0  0  0  0  0  0  0  0  0  0  0  0
    8.6812    0.7146   -3.4902 H   0  0  0  0  0  0  0  0  0  0  0  0
    9.5477    1.3505   -1.2194 H   0  0  0  0  0  0  0  0  0  0  0  0
    9.0068    3.0088   -1.4585 H   0  0  0  0  0  0  0  0  0  0  0  0
   10.5266    3.2321   -3.4711 H   0  0  0  0  0  0  0  0  0  0  0  0
   11.1067    1.5764   -3.1995 H   0  0  0  0  0  0  0  0  0  0  0  0
   11.7670    1.3963   -0.5263 H   0  0  0  0  0  0  0  0  0  0  0  0
   12.8478    2.6673   -0.1033 H   0  0  0  0  0  0  0  0  0  0  0  0
   13.2746    5.5395   -1.2262 H   0  0  0  0  0  0  0  0  0  0  0  0
    5.0262    0.2018   -0.8579 H   0  0  0  0  0  0  0  0  0  0  0  0
  1  2  1  0
  1 18  1  0
  1 19  1  0
  1 20  1  0
  2  3  1  0
  3  4  2  0
  3 17  1  0
  4  5  1  0
  4 21  1  0
  5  6  2  0
  5 22  1  0
  6  7  1  0
  6 23  1  0
  7  8  1  0
  7 17  2  0
  8  9  1  0
  8 24  1  0
  9 10  1  0
  9 25  1  0
  9 26  1  0
 10 11  1  0
 10 27  1  0
 10 28  1  0
 11 12  1  0
 11 29  1  0
 11 30  1  0
 12 13  1  0
 12 31  1  0
 12 32  1  0
 13 14  1  0
 13 15  2  0
 14 33  1  0
 14 34  1  0
 15 16  1  0
 16 35  1  0
 17 36  1  0
M  END

