
     RDKit          3D

 32 32  0  0  0  0  0  0  0  0999 V2000
    0.9177    0.6125   -1.9931 C   0  0  0  0  0  0  0  0  0  0  0  0
    2.3974    0.2361   -1.9608 C   0  0  0  0  0  0  0  0  0  0  0  0
    3.1233    1.0779   -1.0223 N   0  0  0  0  0  0  0  0  0  0  0  0
    4.6013    1.0640   -0.9828 C   0  0  1  0  0  0  0  0  0  0  0  0
    5.1035    1.8678   -2.2062 C   0  0  0  0  0  0  0  0  0  0  0  0
    4.5394    3.2081   -2.2022 N   0  0  0  0  0  0  0  0  0  0  0  0
    5.0337    1.7765    0.3215 C   0  0  0  0  0  0  0  0  0  0  0  0
    4.7666    0.9409    1.5739 C   0  0  0  0  0  0  0  0  0  0  0  0
    5.3152   -0.3581    1.4793 O   0  0  0  0  0  0  0  0  0  0  0  0
    4.8163   -1.0663    0.3619 C   0  0  0  0  0  0  0  0  0  0  0  0
    5.1910   -0.3906   -0.9676 C   0  0  2  0  0  0  0  0  0  0  0  0
    6.7065   -0.4850   -1.2022 C   0  0  0  0  0  0  0  0  0  0  0  0
    0.3648   -0.0190   -2.7065 H   0  0  0  0  0  0  0  0  0  0  0  0
    0.7847    1.6672   -2.2805 H   0  0  0  0  0  0  0  0  0  0  0  0
    0.4523    0.4756   -1.0018 H   0  0  0  0  0  0  0  0  0  0  0  0
    2.8288    0.3741   -2.9666 H   0  0  0  0  0  0  0  0  0  0  0  0
    2.4816   -0.8517   -1.7446 H   0  0  0  0  0  0  0  0  0  0  0  0
    2.7243    0.9940   -0.0916 H   0  0  0  0  0  0  0  0  0  0  0  0
    4.8796    1.2764   -3.1232 H   0  0  0  0  0  0  0  0  0  0  0  0
    6.2011    1.9457   -2.1583 H   0  0  0  0  0  0  0  0  0  0  0  0
    3.5256    3.1298   -2.1110 H   0  0  0  0  0  0  0  0  0  0  0  0
    4.7417    3.6929   -3.0748 H   0  0  0  0  0  0  0  0  0  0  0  0
    4.5259    2.7502    0.3848 H   0  0  0  0  0  0  0  0  0  0  0  0
    6.1125    1.9897    0.2646 H   0  0  0  0  0  0  0  0  0  0  0  0
    3.6752    0.8722    1.7811 H   0  0  0  0  0  0  0  0  0  0  0  0
    5.2237    1.4139    2.4570 H   0  0  0  0  0  0  0  0  0  0  0  0
    3.7140   -1.1714    0.4413 H   0  0  0  0  0  0  0  0  0  0  0  0
    5.2469   -2.0786    0.4154 H   0  0  0  0  0  0  0  0  0  0  0  0
    4.7002   -0.9632   -1.7735 H   0  0  0  0  0  0  0  0  0  0  0  0
    7.2754    0.0549   -0.4307 H   0  0  0  0  0  0  0  0  0  0  0  0
    7.0029   -0.0960   -2.1871 H   0  0  0  0  0  0  0  0  0  0  0  0
    7.0269   -1.5391   -1.1608 H   0  0  0  0  0  0  0  0  0  0  0  0
  1  2  1  0
  1 13  1  0
  1 14  1  0
  1 15  1  0
  2  3  1  0
  2 16  1  0
  2 17  1  0
  4  3  1  6
  3 18  1  0
  4  5  1  0
  4  7  1  0
  4 11  1  0
  5  6  1  0
  5 19  1  0
  5 20  1  0
  6 21  1  0
  6 22  1  0
  7  8  1  0
  7 23  1  0
  7 24  1  0
  8  9  1  0
  8 25  1  0
  8 26  1  0
  9 10  1  0
 10 11  1  0
 10 27  1  0
 10 28  1  0
 11 12  1  0
 11 29  1  6
 12 30  1  0
 12 31  1  0
 12 32  1  0
M  END

