
     RDKit          3D

 55 55  0  0  0  0  0  0  0  0999 V2000
    1.1469    5.4388    1.5452 C   0  0  0  0  0  0  0  0  0  0  0  0
    2.6408    5.1420    1.4087 C   0  0  0  0  0  0  0  0  0  0  0  0
    3.0184    3.6922    1.7344 C   0  0  0  0  0  0  0  0  0  0  0  0
    4.5169    3.4108    1.5925 C   0  0  0  0  0  0  0  0  0  0  0  0
    4.9773    2.0115    2.0425 C   0  0  1  0  0  0  0  0  0  0  0  0
    4.3557    0.8408    1.2506 C   0  0  0  0  0  0  0  0  0  0  0  0
    4.6321    0.8136   -0.2565 C   0  0  0  0  0  0  0  0  0  0  0  0
    6.5066    1.9286    2.0605 C   0  0  0  0  0  0  0  0  0  0  0  0
    7.0090    2.8650    2.9886 O   0  0  0  0  0  0  0  0  0  0  0  0
    8.4078    2.9775    3.0182 C   0  0  0  0  0  0  0  0  0  0  0  0
    8.8011    4.0600    4.0054 C   0  0  0  0  0  0  0  0  0  0  0  0
    8.2820    5.3415    3.6287 O   0  0  0  0  0  0  0  0  0  0  0  0
    9.0021    6.0921    2.7677 C   0  0  0  0  0  0  0  0  0  0  0  0
   10.0793    5.7542    2.3380 O   0  0  0  0  0  0  0  0  0  0  0  0
    8.2830    7.3988    2.4527 C   0  0  1  0  0  0  0  0  0  0  0  0
    9.0911    8.2956    1.4990 C   0  0  0  0  0  0  0  0  0  0  0  0
    9.0706    7.8065    0.0447 C   0  0  0  0  0  0  0  0  0  0  0  0
    7.6395    7.5817   -0.4587 C   0  0  0  0  0  0  0  0  0  0  0  0
    6.8762    6.6288    0.4682 C   0  0  0  0  0  0  0  0  0  0  0  0
    6.8493    7.1262    1.9315 C   0  0  2  0  0  0  0  0  0  0  0  0
    5.9530    8.3530    2.1477 C   0  0  0  0  0  0  0  0  0  0  0  0
    6.2786    9.3403    2.7499 O   0  0  0  0  0  0  0  0  0  0  0  0
    4.6998    8.2539    1.6459 O   0  0  0  0  0  0  0  0  0  0  0  0
    0.9193    6.4902    1.3089 H   0  0  0  0  0  0  0  0  0  0  0  0
    0.7949    5.2450    2.5719 H   0  0  0  0  0  0  0  0  0  0  0  0
    0.5501    4.8064    0.8668 H   0  0  0  0  0  0  0  0  0  0  0  0
    3.2078    5.8191    2.0746 H   0  0  0  0  0  0  0  0  0  0  0  0
    2.9676    5.3755    0.3772 H   0  0  0  0  0  0  0  0  0  0  0  0
    2.4362    3.0184    1.0806 H   0  0  0  0  0  0  0  0  0  0  0  0
    2.6988    3.4601    2.7674 H   0  0  0  0  0  0  0  0  0  0  0  0
    5.0770    4.1443    2.1954 H   0  0  0  0  0  0  0  0  0  0  0  0
    4.8254    3.5819    0.5440 H   0  0  0  0  0  0  0  0  0  0  0  0
    4.6621    1.8871    3.0950 H   0  0  0  0  0  0  0  0  0  0  0  0
    3.2651    0.8473    1.4142 H   0  0  0  0  0  0  0  0  0  0  0  0
    4.7108   -0.1045    1.6985 H   0  0  0  0  0  0  0  0  0  0  0  0
    4.2405    1.7089   -0.7657 H   0  0  0  0  0  0  0  0  0  0  0  0
    4.1509   -0.0610   -0.7225 H   0  0  0  0  0  0  0  0  0  0  0  0
    5.7087    0.7496   -0.4830 H   0  0  0  0  0  0  0  0  0  0  0  0
    6.9239    2.1344    1.0526 H   0  0  0  0  0  0  0  0  0  0  0  0
    6.8284    0.9025    2.3381 H   0  0  0  0  0  0  0  0  0  0  0  0
    8.8129    3.2193    2.0151 H   0  0  0  0  0  0  0  0  0  0  0  0
    8.8838    2.0254    3.3379 H   0  0  0  0  0  0  0  0  0  0  0  0
    9.8969    4.1097    4.0840 H   0  0  0  0  0  0  0  0  0  0  0  0
    8.3615    3.8475    4.9899 H   0  0  0  0  0  0  0  0  0  0  0  0
    8.1722    7.9165    3.4195 H   0  0  0  0  0  0  0  0  0  0  0  0
   10.1286    8.3637    1.8596 H   0  0  0  0  0  0  0  0  0  0  0  0
    8.6601    9.3076    1.5570 H   0  0  0  0  0  0  0  0  0  0  0  0
    9.6377    6.8636   -0.0293 H   0  0  0  0  0  0  0  0  0  0  0  0
    9.5884    8.5365   -0.5993 H   0  0  0  0  0  0  0  0  0  0  0  0
    7.6505    7.1754   -1.4837 H   0  0  0  0  0  0  0  0  0  0  0  0
    7.1043    8.5478   -0.5138 H   0  0  0  0  0  0  0  0  0  0  0  0
    7.3592    5.6363    0.4556 H   0  0  0  0  0  0  0  0  0  0  0  0
    5.8543    6.4503    0.0888 H   0  0  0  0  0  0  0  0  0  0  0  0
    6.4028    6.3351    2.5586 H   0  0  0  0  0  0  0  0  0  0  0  0
    4.5737    7.4066    1.1947 H   0  0  0  0  0  0  0  0  0  0  0  0
  1  2  1  0
  1 24  1  0
  1 25  1  0
  1 26  1  0
  2  3  1  0
  2 27  1  0
  2 28  1  0
  3  4  1  0
  3 29  1  0
  3 30  1  0
  4  5  1  0
  4 31  1  0
  4 32  1  0
  5  6  1  0
  5  8  1  0
  5 33  1  1
  6  7  1  0
  6 34  1  0
  6 35  1  0
  7 36  1  0
  7 37  1  0
  7 38  1  0
  8  9  1  0
  8 39  1  0
  8 40  1  0
  9 10  1  0
 10 11  1  0
 10 41  1  0
 10 42  1  0
 11 12  1  0
 11 43  1  0
 11 44  1  0
 12 13  1  0
 13 14  2  0
 13 15  1  0
 15 16  1  0
 15 20  1  0
 15 45  1  1
 16 17  1  0
 16 46  1  0
 16 47  1  0
 17 18  1  0
 17 48  1  0
 17 49  1  0
 18 19  1  0
 18 50  1  0
 18 51  1  0
 19 20  1  0
 19 52  1  0
 19 53  1  0
 20 21  1  0
 20 54  1  1
 21 22  2  0
 21 23  1  0
 23 55  1  0
M  END

