
     RDKit          3D

 43 45  0  0  0  0  0  0  0  0999 V2000
    2.7128   -1.4066    0.9616 C   0  0  0  0  0  0  0  0  0  0  0  0
    2.6445   -0.1484    0.0917 C   0  0  0  0  0  0  0  0  0  0  0  0
    3.0350    1.1768    0.7773 C   0  0  1  0  0  0  0  0  0  0  0  0
    4.4970    1.1497    1.2617 C   0  0  0  0  0  0  0  0  0  0  0  0
    2.8130    2.3878   -0.1658 C   0  0  0  0  0  0  0  0  0  0  0  0
    2.6552    3.5936    0.7664 C   0  0  0  0  0  0  0  0  0  0  0  0
    2.0925    2.9999    1.9802 N   0  0  0  0  0  0  0  0  0  0  0  0
    1.7139    3.8006    3.0258 C   0  0  0  0  0  0  0  0  0  0  0  0
    1.8504    5.0182    3.0016 O   0  0  0  0  0  0  0  0  0  0  0  0
    1.1925    3.1316    4.1311 N   0  0  0  0  0  0  0  0  0  0  0  0
    0.5594    3.9266    5.1898 C   0  0  2  0  0  0  0  0  0  0  0  0
    1.5860    4.6574    6.0811 C   0  0  0  0  0  0  0  0  0  0  0  0
    2.2321    3.7171    7.1030 C   0  0  0  0  0  0  0  0  0  0  0  0
    1.1860    3.1544    8.0670 C   0  0  0  0  0  0  0  0  0  0  0  0
    0.0476    2.6666    7.2985 N   0  0  0  0  0  0  0  0  0  0  0  0
   -0.8470    1.7886    7.7899 N   0  0  0  0  0  0  0  0  0  0  0  0
   -1.6699    1.6135    6.7656 C   0  0  0  0  0  0  0  0  0  0  0  0
   -1.3598    2.3292    5.6532 N   0  0  0  0  0  0  0  0  0  0  0  0
   -0.2758    2.9954    6.0237 C   0  0  0  0  0  0  0  0  0  0  0  0
    2.0908    1.5408    1.9523 C   0  0  0  0  0  0  0  0  0  0  0  0
    2.3778   -2.2888    0.3935 H   0  0  0  0  0  0  0  0  0  0  0  0
    2.0645   -1.3272    1.8500 H   0  0  0  0  0  0  0  0  0  0  0  0
    3.7351   -1.6159    1.3133 H   0  0  0  0  0  0  0  0  0  0  0  0
    1.6180   -0.0412   -0.3021 H   0  0  0  0  0  0  0  0  0  0  0  0
    3.2924   -0.2816   -0.7933 H   0  0  0  0  0  0  0  0  0  0  0  0
    5.1835    0.9669    0.4189 H   0  0  0  0  0  0  0  0  0  0  0  0
    4.6628    0.3592    2.0096 H   0  0  0  0  0  0  0  0  0  0  0  0
    4.7848    2.1045    1.7282 H   0  0  0  0  0  0  0  0  0  0  0  0
    1.8858    2.2354   -0.7435 H   0  0  0  0  0  0  0  0  0  0  0  0
    3.6339    2.5150   -0.8881 H   0  0  0  0  0  0  0  0  0  0  0  0
    1.9880    4.3710    0.3632 H   0  0  0  0  0  0  0  0  0  0  0  0
    3.6180    4.0890    0.9845 H   0  0  0  0  0  0  0  0  0  0  0  0
    0.7200    2.2522    3.9460 H   0  0  0  0  0  0  0  0  0  0  0  0
   -0.1027    4.6803    4.7295 H   0  0  0  0  0  0  0  0  0  0  0  0
    1.0645    5.4761    6.6079 H   0  0  0  0  0  0  0  0  0  0  0  0
    2.3317    5.1273    5.4278 H   0  0  0  0  0  0  0  0  0  0  0  0
    3.0075    4.2417    7.6826 H   0  0  0  0  0  0  0  0  0  0  0  0
    2.7300    2.8880    6.5723 H   0  0  0  0  0  0  0  0  0  0  0  0
    0.8364    3.9303    8.7702 H   0  0  0  0  0  0  0  0  0  0  0  0
    1.5710    2.3145    8.6631 H   0  0  0  0  0  0  0  0  0  0  0  0
   -2.5259    0.9417    6.8286 H   0  0  0  0  0  0  0  0  0  0  0  0
    1.0738    1.1380    1.7681 H   0  0  0  0  0  0  0  0  0  0  0  0
    2.4414    1.1292    2.9130 H   0  0  0  0  0  0  0  0  0  0  0  0
  1  2  1  0
  1 21  1  0
  1 22  1  0
  1 23  1  0
  3  2  1  6
  2 24  1  0
  2 25  1  0
  3  4  1  0
  3  5  1  0
  3 20  1  0
  4 26  1  0
  4 27  1  0
  4 28  1  0
  5  6  1  0
  5 29  1  0
  5 30  1  0
  6  7  1  0
  6 31  1  0
  6 32  1  0
  7  8  1  0
  7 20  1  0
  8  9  2  0
  8 10  1  0
 10 11  1  0
 10 33  1  0
 11 12  1  0
 11 19  1  0
 11 34  1  6
 12 13  1  0
 12 35  1  0
 12 36  1  0
 13 14  1  0
 13 37  1  0
 13 38  1  0
 14 15  1  0
 14 39  1  0
 14 40  1  0
 15 16  1  0
 15 19  1  0
 16 17  2  0
 17 18  1  0
 17 41  1  0
 18 19  2  0
 20 42  1  0
 20 43  1  0
M  END

