
     RDKit          3D

 54 59  0  0  0  0  0  0  0  0999 V2000
    3.8865   -0.5233    1.1920 C   0  0  0  0  0  0  0  0  0  0  0  0
    3.2964    0.3996    0.3055 O   0  0  0  0  0  0  0  0  0  0  0  0
    3.7018    0.4300   -0.9892 C   0  0  0  0  0  0  0  0  0  0  0  0
    4.6954   -0.3968   -1.5342 C   0  0  0  0  0  0  0  0  0  0  0  0
    5.0337   -0.2790   -2.8861 C   0  0  0  0  0  0  0  0  0  0  0  0
    4.4074    0.6509   -3.7310 C   0  0  0  0  0  0  0  0  0  0  0  0
    4.7776    0.7673   -5.1664 C   0  0  0  0  0  0  0  0  0  0  0  0
    5.1145   -0.3721   -5.9187 C   0  0  0  0  0  0  0  0  0  0  0  0
    5.4704   -0.2877   -7.2745 C   0  0  0  0  0  0  0  0  0  0  0  0
    5.8117   -1.4473   -8.0590 C   0  0  0  0  0  0  0  0  0  0  0  0
    6.1511   -1.3400   -9.3764 C   0  0  0  0  0  0  0  0  0  0  0  0
    6.1805   -0.0627  -10.0428 C   0  0  0  0  0  0  0  0  0  0  0  0
    6.5297    0.0742  -11.3960 C   0  0  0  0  0  0  0  0  0  0  0  0
    6.5606    1.3279  -12.0323 C   0  0  0  0  0  0  0  0  0  0  0  0
    6.9349    1.4447  -13.4666 C   0  0  0  0  0  0  0  0  0  0  0  0
    6.5540    0.4641  -14.4071 C   0  0  0  0  0  0  0  0  0  0  0  0
    6.9010    0.5691  -15.7484 C   0  0  0  0  0  0  0  0  0  0  0  0
    7.6509    1.6671  -16.2057 C   0  0  0  0  0  0  0  0  0  0  0  0
    7.9435    1.6849  -17.5305 O   0  0  0  0  0  0  0  0  0  0  0  0
    8.6836    2.7614  -18.0590 C   0  0  0  0  0  0  0  0  0  0  0  0
    8.0419    2.6538  -15.2885 C   0  0  0  0  0  0  0  0  0  0  0  0
    7.6826    2.5336  -13.9424 C   0  0  0  0  0  0  0  0  0  0  0  0
    6.2292    2.4679  -11.2785 C   0  0  0  0  0  0  0  0  0  0  0  0
    5.8747    2.3836   -9.9224 C   0  0  0  0  0  0  0  0  0  0  0  0
    5.5268    3.5425   -9.1397 C   0  0  0  0  0  0  0  0  0  0  0  0
    5.1821    3.4346   -7.8237 C   0  0  0  0  0  0  0  0  0  0  0  0
    5.1480    2.1568   -7.1586 C   0  0  0  0  0  0  0  0  0  0  0  0
    4.8003    2.0201   -5.8049 C   0  0  0  0  0  0  0  0  0  0  0  0
    5.4899    0.9914   -7.9115 C   0  0  0  0  0  0  0  0  0  0  0  0
    5.8473    1.1037   -9.2874 C   0  0  0  0  0  0  0  0  0  0  0  0
    3.4118    1.4722   -3.1605 C   0  0  0  0  0  0  0  0  0  0  0  0
    3.0624    1.3670   -1.8198 C   0  0  0  0  0  0  0  0  0  0  0  0
    3.4044   -0.3734    2.1675 H   0  0  0  0  0  0  0  0  0  0  0  0
    4.9732   -0.3534    1.3014 H   0  0  0  0  0  0  0  0  0  0  0  0
    3.7224   -1.5676    0.8694 H   0  0  0  0  0  0  0  0  0  0  0  0
    5.2199   -1.1273   -0.9180 H   0  0  0  0  0  0  0  0  0  0  0  0
    5.8279   -0.9163   -3.2821 H   0  0  0  0  0  0  0  0  0  0  0  0
    5.0757   -1.3581   -5.4493 H   0  0  0  0  0  0  0  0  0  0  0  0
    5.7942   -2.4266   -7.5728 H   0  0  0  0  0  0  0  0  0  0  0  0
    6.4081   -2.2327   -9.9533 H   0  0  0  0  0  0  0  0  0  0  0  0
    6.8089   -0.8214  -11.9563 H   0  0  0  0  0  0  0  0  0  0  0  0
    5.9502   -0.3868  -14.0835 H   0  0  0  0  0  0  0  0  0  0  0  0
    6.5936   -0.1867  -16.4741 H   0  0  0  0  0  0  0  0  0  0  0  0
    8.7928    2.5687  -19.1348 H   0  0  0  0  0  0  0  0  0  0  0  0
    9.6890    2.8325  -17.6056 H   0  0  0  0  0  0  0  0  0  0  0  0
    8.1638    3.7268  -17.9201 H   0  0  0  0  0  0  0  0  0  0  0  0
    8.6331    3.5135  -15.6050 H   0  0  0  0  0  0  0  0  0  0  0  0
    8.0199    3.3017  -13.2424 H   0  0  0  0  0  0  0  0  0  0  0  0
    6.2194    3.4483  -11.7610 H   0  0  0  0  0  0  0  0  0  0  0  0
    5.5449    4.5219   -9.6257 H   0  0  0  0  0  0  0  0  0  0  0  0
    4.9228    4.3271   -7.2475 H   0  0  0  0  0  0  0  0  0  0  0  0
    4.5672    2.9210   -5.2321 H   0  0  0  0  0  0  0  0  0  0  0  0
    2.8820    2.1919   -3.7889 H   0  0  0  0  0  0  0  0  0  0  0  0
    2.2832    1.9971   -1.3861 H   0  0  0  0  0  0  0  0  0  0  0  0
  1  2  1  0
  1 33  1  0
  1 34  1  0
  1 35  1  0
  2  3  1  0
  3  4  2  0
  3 32  1  0
  4  5  1  0
  4 36  1  0
  5  6  2  0
  5 37  1  0
  6  7  1  0
  6 31  1  0
  7  8  2  0
  7 28  1  0
  8  9  1  0
  8 38  1  0
  9 10  2  0
  9 29  1  0
 10 11  1  0
 10 39  1  0
 11 12  2  0
 11 40  1  0
 12 13  1  0
 12 30  1  0
 13 14  2  0
 13 41  1  0
 14 15  1  0
 14 23  1  0
 15 16  2  0
 15 22  1  0
 16 17  1  0
 16 42  1  0
 17 18  2  0
 17 43  1  0
 18 19  1  0
 18 21  1  0
 19 20  1  0
 20 44  1  0
 20 45  1  0
 20 46  1  0
 21 22  2  0
 21 47  1  0
 22 48  1  0
 23 24  2  0
 23 49  1  0
 24 25  1  0
 24 30  1  0
 25 26  2  0
 25 50  1  0
 26 27  1  0
 26 51  1  0
 27 28  2  0
 27 29  1  0
 28 52  1  0
 29 30  2  0
 31 32  2  0
 31 53  1  0
 32 54  1  0
M  END

