
     RDKit          3D

 52 53  0  0  0  0  0  0  0  0999 V2000
    0.5720    1.9522    0.0803 C   0  0  0  0  0  0  0  0  0  0  0  0
    1.6408    0.9923    0.6071 C   0  0  0  0  0  0  0  0  0  0  0  0
    2.6961    1.6411    1.3669 N   0  0  0  0  0  0  0  0  0  0  0  0
    3.8409    2.0958    0.7469 C   0  0  0  0  0  0  0  0  0  0  0  0
    4.0879    1.8789   -0.4334 O   0  0  0  0  0  0  0  0  0  0  0  0
    4.7124    2.8019    1.5504 N   0  0  0  0  0  0  0  0  0  0  0  0
    4.5671    3.0646    2.9822 C   0  0  0  0  0  0  0  0  0  0  0  0
    5.7574    3.9764    3.2983 C   0  0  0  0  0  0  0  0  0  0  0  0
    6.8270    3.5188    2.2850 C   0  0  2  0  0  0  0  0  0  0  0  0
    7.9004    4.4573    2.0471 N   0  0  0  0  0  0  0  0  0  0  0  0
    9.0897    4.3976    2.7146 C   0  0  0  0  0  0  0  0  0  0  0  0
    9.3462    3.5335    3.5383 O   0  0  0  0  0  0  0  0  0  0  0  0
   10.1347    5.4701    2.3611 C   0  0  1  0  0  0  0  0  0  0  0  0
   11.1943    4.9048    1.3898 C   0  0  0  0  0  0  0  0  0  0  0  0
   10.6661    4.8483   -0.0468 C   0  0  0  0  0  0  0  0  0  0  0  0
   10.1204    6.2074   -0.4913 C   0  0  0  0  0  0  0  0  0  0  0  0
    9.0812    6.6639    0.4533 N   0  0  0  0  0  0  0  0  0  0  0  0
    8.1671    8.0119   -0.1002 S   0  0  1  0  0  0  0  0  0  0  0  0
    7.4605    8.5424    1.0706 O   0  0  0  0  0  0  0  0  0  0  0  0
    9.0087    8.8873   -0.9245 O   0  0  0  0  0  0  0  0  0  0  0  0
    6.9425    7.2307   -1.1888 C   0  0  0  0  0  0  0  0  0  0  0  0
    6.0966    8.2982   -1.8740 C   0  0  0  0  0  0  0  0  0  0  0  0
    9.5869    6.8072    1.8373 C   0  0  0  0  0  0  0  0  0  0  0  0
    6.0023    3.2227    1.0228 C   0  0  0  0  0  0  0  0  0  0  0  0
   -0.2062    1.4025   -0.4743 H   0  0  0  0  0  0  0  0  0  0  0  0
    1.0208    2.6905   -0.6022 H   0  0  0  0  0  0  0  0  0  0  0  0
    0.0775    2.4973    0.9020 H   0  0  0  0  0  0  0  0  0  0  0  0
    2.1274    0.4786   -0.2339 H   0  0  0  0  0  0  0  0  0  0  0  0
    1.1795    0.2186    1.2446 H   0  0  0  0  0  0  0  0  0  0  0  0
    2.4780    1.9565    2.3029 H   0  0  0  0  0  0  0  0  0  0  0  0
    4.6089    2.1269    3.5705 H   0  0  0  0  0  0  0  0  0  0  0  0
    3.6052    3.5572    3.2120 H   0  0  0  0  0  0  0  0  0  0  0  0
    6.1006    3.8979    4.3395 H   0  0  0  0  0  0  0  0  0  0  0  0
    5.4980    5.0302    3.1017 H   0  0  0  0  0  0  0  0  0  0  0  0
    7.2906    2.5933    2.6601 H   0  0  0  0  0  0  0  0  0  0  0  0
    7.7903    5.1833    1.3428 H   0  0  0  0  0  0  0  0  0  0  0  0
   10.6285    5.6744    3.3236 H   0  0  0  0  0  0  0  0  0  0  0  0
   11.5161    3.9107    1.7355 H   0  0  0  0  0  0  0  0  0  0  0  0
   12.0826    5.5601    1.4247 H   0  0  0  0  0  0  0  0  0  0  0  0
    9.8676    4.0921   -0.1290 H   0  0  0  0  0  0  0  0  0  0  0  0
   11.4672    4.5445   -0.7400 H   0  0  0  0  0  0  0  0  0  0  0  0
    9.6857    6.1352   -1.4990 H   0  0  0  0  0  0  0  0  0  0  0  0
   10.9360    6.9534   -0.5482 H   0  0  0  0  0  0  0  0  0  0  0  0
    6.3477    6.5716   -0.5401 H   0  0  0  0  0  0  0  0  0  0  0  0
    7.4976    6.6154   -1.9118 H   0  0  0  0  0  0  0  0  0  0  0  0
    5.5754    8.9190   -1.1305 H   0  0  0  0  0  0  0  0  0  0  0  0
    5.3428    7.8175   -2.5159 H   0  0  0  0  0  0  0  0  0  0  0  0
    6.7241    8.9519   -2.4966 H   0  0  0  0  0  0  0  0  0  0  0  0
    8.7688    7.1814    2.4654 H   0  0  0  0  0  0  0  0  0  0  0  0
   10.4007    7.5576    1.8726 H   0  0  0  0  0  0  0  0  0  0  0  0
    6.4410    2.4424    0.3839 H   0  0  0  0  0  0  0  0  0  0  0  0
    5.9049    4.1329    0.3953 H   0  0  0  0  0  0  0  0  0  0  0  0
  1  2  1  0
  1 25  1  0
  1 26  1  0
  1 27  1  0
  2  3  1  0
  2 28  1  0
  2 29  1  0
  3  4  1  0
  3 30  1  0
  4  5  2  0
  4  6  1  0
  6  7  1  0
  6 24  1  0
  7  8  1  0
  7 31  1  0
  7 32  1  0
  8  9  1  0
  8 33  1  0
  8 34  1  0
  9 10  1  0
  9 24  1  0
  9 35  1  1
 10 11  1  0
 10 36  1  0
 11 12  2  0
 11 13  1  0
 13 14  1  0
 13 23  1  0
 13 37  1  1
 14 15  1  0
 14 38  1  0
 14 39  1  0
 15 16  1  0
 15 40  1  0
 15 41  1  0
 16 17  1  0
 16 42  1  0
 16 43  1  0
 17 18  1  0
 17 23  1  0
 18 19  2  0
 18 20  2  0
 18 21  1  6
 21 22  1  0
 21 44  1  0
 21 45  1  0
 22 46  1  0
 22 47  1  0
 22 48  1  0
 23 49  1  0
 23 50  1  0
 24 51  1  0
 24 52  1  0
M  END

