
     RDKit          3D

 50 53  0  0  0  0  0  0  0  0999 V2000
    3.9490    2.3897   -2.0011 C   0  0  0  0  0  0  0  0  0  0  0  0
    4.9683    1.4501   -0.8238 S   0  0  0  0  0  0  0  0  0  0  0  0
    4.3881    2.0669    0.7245 C   0  0  0  0  0  0  0  0  0  0  0  0
    3.4261    2.9911    0.7427 N   0  0  0  0  0  0  0  0  0  0  0  0
    3.0786    3.4246    1.9564 C   0  0  0  0  0  0  0  0  0  0  0  0
    3.6610    2.9855    3.1460 C   0  0  0  0  0  0  0  0  0  0  0  0
    3.1465    3.5940    4.4164 C   0  0  0  0  0  0  0  0  0  0  0  0
    2.0133    4.0136    4.5200 O   0  0  0  0  0  0  0  0  0  0  0  0
    4.0825    3.6701    5.4550 N   0  0  0  0  0  0  0  0  0  0  0  0
    3.6990    4.2831    6.6492 N   0  0  0  0  0  0  0  0  0  0  0  0
    4.3820    3.7195    7.8162 C   0  0  0  0  0  0  0  0  0  0  0  0
    5.8237    4.2441    7.9637 C   0  0  0  0  0  0  0  0  0  0  0  0
    5.9042    5.7024    7.9443 N   0  0  0  0  0  0  0  0  0  0  0  0
    5.6035    6.3548    9.2055 C   0  0  0  0  0  0  0  0  0  0  0  0
    5.2202    6.2587    6.7777 C   0  0  0  0  0  0  0  0  0  0  0  0
    3.7751    5.7531    6.6287 C   0  0  0  0  0  0  0  0  0  0  0  0
    4.6362    1.9403    3.0014 C   0  0  0  0  0  0  0  0  0  0  0  0
    5.1914    1.3491    4.1030 N   0  0  0  0  0  0  0  0  0  0  0  0
    6.1302    0.3085    4.2403 C   0  0  0  0  0  0  0  0  0  0  0  0
    6.4084   -0.0823    5.5877 C   0  0  0  0  0  0  0  0  0  0  0  0
    7.3170   -1.0802    5.8883 C   0  0  0  0  0  0  0  0  0  0  0  0
    7.9853   -1.7286    4.8303 C   0  0  0  0  0  0  0  0  0  0  0  0
    8.9581   -2.7690    4.6838 C   0  0  0  0  0  0  0  0  0  0  0  0
    9.2362   -2.9873    3.4127 N   0  0  0  0  0  0  0  0  0  0  0  0
    8.4773   -2.1226    2.7047 N   0  0  0  0  0  0  0  0  0  0  0  0
    8.5344   -2.1234    1.6944 H   0  0  0  0  0  0  0  0  0  0  0  0
    7.6955   -1.3306    3.4987 C   0  0  0  0  0  0  0  0  0  0  0  0
    6.7756   -0.3193    3.1737 C   0  0  0  0  0  0  0  0  0  0  0  0
    4.9880    1.5197    1.7829 N   0  0  0  0  0  0  0  0  0  0  0  0
    4.2606    2.0522   -2.9997 H   0  0  0  0  0  0  0  0  0  0  0  0
    4.1246    3.4680   -1.8953 H   0  0  0  0  0  0  0  0  0  0  0  0
    2.8830    2.1791   -1.8468 H   0  0  0  0  0  0  0  0  0  0  0  0
    2.2883    4.1806    2.0143 H   0  0  0  0  0  0  0  0  0  0  0  0
    5.0509    3.7959    5.1422 H   0  0  0  0  0  0  0  0  0  0  0  0
    4.3548    2.6206    7.7440 H   0  0  0  0  0  0  0  0  0  0  0  0
    3.7903    3.9988    8.7047 H   0  0  0  0  0  0  0  0  0  0  0  0
    6.4459    3.8498    7.1361 H   0  0  0  0  0  0  0  0  0  0  0  0
    6.2770    3.8658    8.8948 H   0  0  0  0  0  0  0  0  0  0  0  0
    6.2582    5.9512    9.9948 H   0  0  0  0  0  0  0  0  0  0  0  0
    4.5549    6.2533    9.5639 H   0  0  0  0  0  0  0  0  0  0  0  0
    5.8155    7.4331    9.1218 H   0  0  0  0  0  0  0  0  0  0  0  0
    5.8006    5.9871    5.8740 H   0  0  0  0  0  0  0  0  0  0  0  0
    5.2405    7.3594    6.8346 H   0  0  0  0  0  0  0  0  0  0  0  0
    3.2981    6.1134    5.7052 H   0  0  0  0  0  0  0  0  0  0  0  0
    3.1563    6.1174    7.4659 H   0  0  0  0  0  0  0  0  0  0  0  0
    4.8155    1.6911    4.9823 H   0  0  0  0  0  0  0  0  0  0  0  0
    5.8786    0.4248    6.3993 H   0  0  0  0  0  0  0  0  0  0  0  0
    7.5061   -1.3569    6.9282 H   0  0  0  0  0  0  0  0  0  0  0  0
    9.4528   -3.3534    5.4595 H   0  0  0  0  0  0  0  0  0  0  0  0
    6.5582   -0.0285    2.1502 H   0  0  0  0  0  0  0  0  0  0  0  0
  1  2  1  0
  1 30  1  0
  1 31  1  0
  1 32  1  0
  2  3  2  0
  3  4  1  0
  3 29  1  0
  4  5  2  0
  5  6  1  0
  5 33  1  0
  6  7  2  0
  6 17  1  0
  7  8  1  0
  7  9  1  0
  9 10  1  0
  9 34  1  0
 10 11  1  0
 10 16  1  0
 11 12  1  0
 11 35  1  0
 11 36  1  0
 12 13  1  0
 12 37  1  0
 12 38  1  0
 13 14  1  0
 13 15  1  0
 14 39  1  0
 14 40  1  0
 14 41  1  0
 15 16  1  0
 15 42  1  0
 15 43  1  0
 16 44  1  0
 16 45  1  0
 17 18  1  0
 17 29  2  0
 18 19  1  0
 18 46  1  0
 19 20  2  0
 19 28  1  0
 20 21  1  0
 20 47  1  0
 21 22  2  0
 21 48  1  0
 22 23  1  0
 22 27  1  0
 23 24  2  0
 23 49  1  0
 24 25  1  0
 25 26  1  0
 25 27  1  0
 27 28  2  0
 28 50  1  0
M  CHG  2   2   1   8  -1
M  END

