
     RDKit          3D

 50 52  0  0  0  0  0  0  0  0999 V2000
   -0.2845   -3.8286   -2.3055 C   0  0  0  0  0  0  0  0  0  0  0  0
    1.1281   -3.3260   -2.1031 C   0  0  0  0  0  0  0  0  0  0  0  0
    1.6496   -2.3784   -2.9974 C   0  0  0  0  0  0  0  0  0  0  0  0
    2.9464   -1.8898   -2.8476 C   0  0  0  0  0  0  0  0  0  0  0  0
    3.7540   -2.3322   -1.8021 C   0  0  0  0  0  0  0  0  0  0  0  0
    3.2473   -3.2796   -0.8975 C   0  0  0  0  0  0  0  0  0  0  0  0
    4.0182   -3.7570    0.1852 N   0  0  0  0  0  0  0  0  0  0  0  0
    5.3157   -3.4850    0.5129 C   0  0  0  0  0  0  0  0  0  0  0  0
    6.0731   -2.7497   -0.0961 O   0  0  0  0  0  0  0  0  0  0  0  0
    5.8096   -4.1522    1.8107 C   0  0  0  0  0  0  0  0  0  0  0  0
    5.0397   -5.7161    2.3357 S   0  0  0  0  0  0  0  0  0  0  0  0
    5.6528   -6.9047    1.1498 C   0  0  0  0  0  0  0  0  0  0  0  0
    5.2799   -8.2432    1.3558 C   0  0  0  0  0  0  0  0  0  0  0  0
    5.6957   -9.2564    0.4947 C   0  0  0  0  0  0  0  0  0  0  0  0
    6.5115   -8.9464   -0.6103 C   0  0  0  0  0  0  0  0  0  0  0  0
    6.9819   -9.8974   -1.5334 N   0  0  0  0  0  0  0  0  0  0  0  0
    6.7530  -11.2495   -1.5567 C   0  0  0  0  0  0  0  0  0  0  0  0
    6.0724  -11.8347   -0.7282 O   0  0  0  0  0  0  0  0  0  0  0  0
    7.3970  -12.0261   -2.6882 C   0  0  0  0  0  0  0  0  0  0  0  0
    7.1551  -13.4125   -2.6997 C   0  0  0  0  0  0  0  0  0  0  0  0
    7.6868  -14.2431   -3.6832 C   0  0  0  0  0  0  0  0  0  0  0  0
    8.4859  -13.7012   -4.6960 C   0  0  0  0  0  0  0  0  0  0  0  0
    8.7465  -12.3305   -4.7157 C   0  0  0  0  0  0  0  0  0  0  0  0
    8.2030  -11.5236   -3.7210 C   0  0  0  0  0  0  0  0  0  0  0  0
    8.4884  -10.1988   -3.7882 F   0  0  0  0  0  0  0  0  0  0  0  0
    6.8855   -7.6069   -0.8136 C   0  0  0  0  0  0  0  0  0  0  0  0
    6.4647   -6.5952    0.0489 C   0  0  0  0  0  0  0  0  0  0  0  0
    1.9309   -3.7887   -1.0380 C   0  0  0  0  0  0  0  0  0  0  0  0
    1.4217   -4.8125   -0.0477 C   0  0  0  0  0  0  0  0  0  0  0  0
   -0.7451   -3.3487   -3.1809 H   0  0  0  0  0  0  0  0  0  0  0  0
   -0.9292   -3.6165   -1.4361 H   0  0  0  0  0  0  0  0  0  0  0  0
   -0.3173   -4.9185   -2.4722 H   0  0  0  0  0  0  0  0  0  0  0  0
    1.0252   -2.0230   -3.8213 H   0  0  0  0  0  0  0  0  0  0  0  0
    3.3384   -1.1526   -3.5532 H   0  0  0  0  0  0  0  0  0  0  0  0
    4.7682   -1.9634   -1.6720 H   0  0  0  0  0  0  0  0  0  0  0  0
    3.5752   -4.4433    0.7904 H   0  0  0  0  0  0  0  0  0  0  0  0
    5.6095   -3.4592    2.6448 H   0  0  0  0  0  0  0  0  0  0  0  0
    6.9013   -4.2509    1.7347 H   0  0  0  0  0  0  0  0  0  0  0  0
    4.6519   -8.5048    2.2119 H   0  0  0  0  0  0  0  0  0  0  0  0
    5.3994  -10.2879    0.6670 H   0  0  0  0  0  0  0  0  0  0  0  0
    7.5627   -9.5265   -2.2761 H   0  0  0  0  0  0  0  0  0  0  0  0
    6.5286  -13.8064   -1.8976 H   0  0  0  0  0  0  0  0  0  0  0  0
    7.4787  -15.3150   -3.6617 H   0  0  0  0  0  0  0  0  0  0  0  0
    8.9083  -14.3429   -5.4729 H   0  0  0  0  0  0  0  0  0  0  0  0
    9.3644  -11.8680   -5.4877 H   0  0  0  0  0  0  0  0  0  0  0  0
    7.5174   -7.3444   -1.6672 H   0  0  0  0  0  0  0  0  0  0  0  0
    6.7805   -5.5727   -0.1604 H   0  0  0  0  0  0  0  0  0  0  0  0
    1.3965   -4.4117    0.9818 H   0  0  0  0  0  0  0  0  0  0  0  0
    2.0585   -5.7143   -0.0255 H   0  0  0  0  0  0  0  0  0  0  0  0
    0.4049   -5.1471   -0.2819 H   0  0  0  0  0  0  0  0  0  0  0  0
  1  2  1  0
  1 30  1  0
  1 31  1  0
  1 32  1  0
  2  3  2  0
  2 28  1  0
  3  4  1  0
  3 33  1  0
  4  5  2  0
  4 34  1  0
  5  6  1  0
  5 35  1  0
  6  7  1  0
  6 28  2  0
  7  8  1  0
  7 36  1  0
  8  9  2  0
  8 10  1  0
 10 11  1  0
 10 37  1  0
 10 38  1  0
 11 12  1  0
 12 13  2  0
 12 27  1  0
 13 14  1  0
 13 39  1  0
 14 15  2  0
 14 40  1  0
 15 16  1  0
 15 26  1  0
 16 17  1  0
 16 41  1  0
 17 18  2  0
 17 19  1  0
 19 20  2  0
 19 24  1  0
 20 21  1  0
 20 42  1  0
 21 22  2  0
 21 43  1  0
 22 23  1  0
 22 44  1  0
 23 24  2  0
 23 45  1  0
 24 25  1  0
 26 27  2  0
 26 46  1  0
 27 47  1  0
 28 29  1  0
 29 48  1  0
 29 49  1  0
 29 50  1  0
M  END

