
     RDKit          3D

 51 53  0  0  0  0  0  0  0  0999 V2000
    3.2597   -3.0125   -0.1699 C   0  0  0  0  0  0  0  0  0  0  0  0
    3.5030   -1.5575   -0.4856 C   0  0  0  0  0  0  0  0  0  0  0  0
    2.4614   -0.7323   -0.9501 C   0  0  0  0  0  0  0  0  0  0  0  0
    2.6600    0.6234   -1.2526 C   0  0  0  0  0  0  0  0  0  0  0  0
    3.9357    1.1418   -1.0774 C   0  0  0  0  0  0  0  0  0  0  0  0
    4.9818    0.3350   -0.6168 C   0  0  0  0  0  0  0  0  0  0  0  0
    4.7909   -1.0052   -0.3177 C   0  0  0  0  0  0  0  0  0  0  0  0
    6.2183    1.1745   -0.5384 C   0  0  0  0  0  0  0  0  0  0  0  0
    7.3350    0.8646   -0.1922 O   0  0  0  0  0  0  0  0  0  0  0  0
    5.8317    2.4556   -0.9638 N   0  0  0  0  0  0  0  0  0  0  0  0
    6.7387    3.5861   -1.0413 C   0  0  0  0  0  0  0  0  0  0  0  0
    6.9628    4.2755    0.3111 C   0  0  0  0  0  0  0  0  0  0  0  0
    7.8675    5.5033    0.1951 C   0  0  0  0  0  0  0  0  0  0  0  0
    7.1954    6.6791   -0.4815 C   0  0  0  0  0  0  0  0  0  0  0  0
    6.0012    6.8918   -0.4745 O   0  0  0  0  0  0  0  0  0  0  0  0
    8.0818    7.4893   -1.0778 O   0  0  0  0  0  0  0  0  0  0  0  0
    7.6018    8.7295   -1.6294 C   0  0  0  0  0  0  0  0  0  0  0  0
    7.0895    8.5940   -3.0765 C   0  0  0  0  0  0  0  0  0  0  0  0
    7.7342    9.0689   -3.9937 O   0  0  0  0  0  0  0  0  0  0  0  0
    5.8886    7.9418   -3.1891 N   0  0  0  0  0  0  0  0  0  0  0  0
    5.1402    7.6684   -4.3561 C   0  0  0  0  0  0  0  0  0  0  0  0
    5.6515    7.9319   -5.6379 C   0  0  0  0  0  0  0  0  0  0  0  0
    4.8843    7.6348   -6.7634 C   0  0  0  0  0  0  0  0  0  0  0  0
    3.6143    7.0787   -6.6330 C   0  0  0  0  0  0  0  0  0  0  0  0
    3.1158    6.8279   -5.3514 C   0  0  0  0  0  0  0  0  0  0  0  0
    1.5062    6.1239   -5.2476 Cl  0  0  0  0  0  0  0  0  0  0  0  0
    3.8417    7.1149   -4.1827 C   0  0  0  0  0  0  0  0  0  0  0  0
    3.2896    6.8481   -2.8045 C   0  0  0  0  0  0  0  0  0  0  0  0
    4.4695    2.5174   -1.3081 C   0  0  0  0  0  0  0  0  0  0  0  0
    3.8947    3.5029   -1.7091 O   0  0  0  0  0  0  0  0  0  0  0  0
    2.2120   -3.2976   -0.3421 H   0  0  0  0  0  0  0  0  0  0  0  0
    3.5044   -3.2363    0.8816 H   0  0  0  0  0  0  0  0  0  0  0  0
    3.8954   -3.6643   -0.7920 H   0  0  0  0  0  0  0  0  0  0  0  0
    1.4659   -1.1656   -1.0789 H   0  0  0  0  0  0  0  0  0  0  0  0
    1.8429    1.2515   -1.6142 H   0  0  0  0  0  0  0  0  0  0  0  0
    5.6244   -1.6158    0.0394 H   0  0  0  0  0  0  0  0  0  0  0  0
    6.3032    4.2896   -1.7661 H   0  0  0  0  0  0  0  0  0  0  0  0
    7.6983    3.2211   -1.4402 H   0  0  0  0  0  0  0  0  0  0  0  0
    7.4166    3.5548    1.0086 H   0  0  0  0  0  0  0  0  0  0  0  0
    5.9914    4.5836    0.7279 H   0  0  0  0  0  0  0  0  0  0  0  0
    8.8099    5.2832   -0.3303 H   0  0  0  0  0  0  0  0  0  0  0  0
    8.1579    5.8554    1.2011 H   0  0  0  0  0  0  0  0  0  0  0  0
    8.4730    9.3917   -1.6672 H   0  0  0  0  0  0  0  0  0  0  0  0
    6.8250    9.1464   -0.9698 H   0  0  0  0  0  0  0  0  0  0  0  0
    5.4965    7.6125   -2.3084 H   0  0  0  0  0  0  0  0  0  0  0  0
    6.6409    8.3710   -5.7320 H   0  0  0  0  0  0  0  0  0  0  0  0
    5.2869    7.8405   -7.7583 H   0  0  0  0  0  0  0  0  0  0  0  0
    3.0049    6.8385   -7.5049 H   0  0  0  0  0  0  0  0  0  0  0  0
    2.2102    6.6644   -2.8467 H   0  0  0  0  0  0  0  0  0  0  0  0
    3.4559    7.7032   -2.1294 H   0  0  0  0  0  0  0  0  0  0  0  0
    3.7488    5.9586   -2.3406 H   0  0  0  0  0  0  0  0  0  0  0  0
  1  2  1  0
  1 31  1  0
  1 32  1  0
  1 33  1  0
  2  3  2  0
  2  7  1  0
  3  4  1  0
  3 34  1  0
  4  5  2  0
  4 35  1  0
  5  6  1  0
  5 29  1  0
  6  7  2  0
  6  8  1  0
  7 36  1  0
  8  9  2  0
  8 10  1  0
 10 11  1  0
 10 29  1  0
 11 12  1  0
 11 37  1  0
 11 38  1  0
 12 13  1  0
 12 39  1  0
 12 40  1  0
 13 14  1  0
 13 41  1  0
 13 42  1  0
 14 15  2  0
 14 16  1  0
 16 17  1  0
 17 18  1  0
 17 43  1  0
 17 44  1  0
 18 19  2  0
 18 20  1  0
 20 21  1  0
 20 45  1  0
 21 22  2  0
 21 27  1  0
 22 23  1  0
 22 46  1  0
 23 24  2  0
 23 47  1  0
 24 25  1  0
 24 48  1  0
 25 26  1  0
 25 27  2  0
 27 28  1  0
 28 49  1  0
 28 50  1  0
 28 51  1  0
 29 30  2  0
M  END

