
     RDKit          3D

 51 54  0  0  0  0  0  0  0  0999 V2000
    1.9213   -0.6775   -0.2474 C   0  0  0  0  0  0  0  0  0  0  0  0
    2.4376    0.4874   -1.1139 C   0  0  1  0  0  0  0  0  0  0  0  0
    1.3047    1.1133   -1.9417 C   0  0  0  0  0  0  0  0  0  0  0  0
    3.1977    1.4950   -0.2550 C   0  0  0  0  0  0  0  0  0  0  0  0
    2.5142    2.5092    0.4375 C   0  0  0  0  0  0  0  0  0  0  0  0
    3.1810    3.4107    1.2692 C   0  0  0  0  0  0  0  0  0  0  0  0
    4.5651    3.3144    1.4286 C   0  0  0  0  0  0  0  0  0  0  0  0
    5.2624    2.3154    0.7481 C   0  0  0  0  0  0  0  0  0  0  0  0
    4.5984    1.4048   -0.0896 C   0  0  0  0  0  0  0  0  0  0  0  0
    5.4089    0.3286   -0.7637 C   0  0  0  0  0  0  0  0  0  0  0  0
    5.3959   -0.8481   -0.1776 N   0  0  0  0  0  0  0  0  0  0  0  0
    6.1433   -1.8248   -0.7478 C   0  0  0  0  0  0  0  0  0  0  0  0
    6.2370   -3.0739   -0.2808 N   0  0  0  0  0  0  0  0  0  0  0  0
    7.0789   -3.6651   -1.1631 N   0  0  0  0  0  0  0  0  0  0  0  0
    7.3039   -4.6444   -1.0293 H   0  0  0  0  0  0  0  0  0  0  0  0
    7.5281   -2.8735   -2.1678 C   0  0  0  0  0  0  0  0  0  0  0  0
    8.3474   -3.3440   -3.1850 N   0  0  0  0  0  0  0  0  0  0  0  0
    6.9255   -1.6219   -1.9415 C   0  0  0  0  0  0  0  0  0  0  0  0
    6.9053   -0.3521   -2.5830 C   0  0  0  0  0  0  0  0  0  0  0  0
    6.1491    0.6415   -1.9755 C   0  0  0  0  0  0  0  0  0  0  0  0
    6.0378    2.0221   -2.5938 C   0  0  0  0  0  0  0  0  0  0  0  0
    7.0781    2.2879   -3.6860 C   0  0  0  0  0  0  0  0  0  0  0  0
    7.2396    1.1161   -4.6760 C   0  0  1  0  0  0  0  0  0  0  0  0
    5.9141    0.8186   -5.4033 C   0  0  0  0  0  0  0  0  0  0  0  0
    8.3171    1.4582   -5.7169 C   0  0  0  0  0  0  0  0  0  0  0  0
    7.6848   -0.1181   -3.8608 C   0  0  0  0  0  0  0  0  0  0  0  0
    1.4121   -1.4319   -0.8705 H   0  0  0  0  0  0  0  0  0  0  0  0
    1.1992   -0.3150    0.5036 H   0  0  0  0  0  0  0  0  0  0  0  0
    2.7537   -1.1652    0.2802 H   0  0  0  0  0  0  0  0  0  0  0  0
    3.1604    0.0599   -1.8283 H   0  0  0  0  0  0  0  0  0  0  0  0
    0.4770    1.4717   -1.3082 H   0  0  0  0  0  0  0  0  0  0  0  0
    0.8796    0.3651   -2.6303 H   0  0  0  0  0  0  0  0  0  0  0  0
    1.6601    1.9654   -2.5432 H   0  0  0  0  0  0  0  0  0  0  0  0
    1.4307    2.5956    0.3284 H   0  0  0  0  0  0  0  0  0  0  0  0
    2.6174    4.1869    1.7938 H   0  0  0  0  0  0  0  0  0  0  0  0
    5.0992    4.0096    2.0815 H   0  0  0  0  0  0  0  0  0  0  0  0
    6.3453    2.2263    0.8733 H   0  0  0  0  0  0  0  0  0  0  0  0
    8.8973   -4.1666   -2.9542 H   0  0  0  0  0  0  0  0  0  0  0  0
    8.9260   -2.6304   -3.6143 H   0  0  0  0  0  0  0  0  0  0  0  0
    6.1247    2.7919   -1.8124 H   0  0  0  0  0  0  0  0  0  0  0  0
    5.0183    2.1544   -3.0008 H   0  0  0  0  0  0  0  0  0  0  0  0
    8.0597    2.4782   -3.2154 H   0  0  0  0  0  0  0  0  0  0  0  0
    6.8147    3.2090   -4.2335 H   0  0  0  0  0  0  0  0  0  0  0  0
    5.5405    1.7165   -5.9226 H   0  0  0  0  0  0  0  0  0  0  0  0
    5.1285    0.4759   -4.7131 H   0  0  0  0  0  0  0  0  0  0  0  0
    6.0542    0.0291   -6.1599 H   0  0  0  0  0  0  0  0  0  0  0  0
    8.0100    2.3176   -6.3350 H   0  0  0  0  0  0  0  0  0  0  0  0
    8.5017    0.6084   -6.3955 H   0  0  0  0  0  0  0  0  0  0  0  0
    9.2738    1.7184   -5.2342 H   0  0  0  0  0  0  0  0  0  0  0  0
    8.7551   -0.0044   -3.5992 H   0  0  0  0  0  0  0  0  0  0  0  0
    7.6198   -1.0186   -4.4964 H   0  0  0  0  0  0  0  0  0  0  0  0
  1  2  1  0
  1 27  1  0
  1 28  1  0
  1 29  1  0
  2  3  1  0
  2  4  1  0
  2 30  1  6
  3 31  1  0
  3 32  1  0
  3 33  1  0
  4  5  2  0
  4  9  1  0
  5  6  1  0
  5 34  1  0
  6  7  2  0
  6 35  1  0
  7  8  1  0
  7 36  1  0
  8  9  2  0
  8 37  1  0
  9 10  1  0
 10 11  2  0
 10 20  1  0
 11 12  1  0
 12 13  2  0
 12 18  1  0
 13 14  1  0
 14 15  1  0
 14 16  1  0
 16 17  1  0
 16 18  2  0
 17 38  1  0
 17 39  1  0
 18 19  1  0
 19 20  2  0
 19 26  1  0
 20 21  1  0
 21 22  1  0
 21 40  1  0
 21 41  1  0
 22 23  1  0
 22 42  1  0
 22 43  1  0
 23 24  1  6
 23 25  1  0
 23 26  1  0
 24 44  1  0
 24 45  1  0
 24 46  1  0
 25 47  1  0
 25 48  1  0
 25 49  1  0
 26 50  1  0
 26 51  1  0
M  END

