
     RDKit          3D

 42 43  0  0  0  0  0  0  0  0999 V2000
    1.8062   -1.5101   -0.1913 C   0  0  0  0  0  0  0  0  0  0  0  0
    2.6417   -0.2409   -0.3644 C   0  0  0  0  0  0  0  0  0  0  0  0
    3.0892    0.3245    0.9047 N   0  0  0  0  0  0  0  0  0  0  0  0
    4.1856   -0.3818    1.5615 C   0  0  0  0  0  0  0  0  0  0  0  0
    5.5702   -0.0336    0.9876 C   0  0  0  0  0  0  0  0  0  0  0  0
    5.7968    1.4843    1.0022 C   0  0  0  0  0  0  0  0  0  0  0  0
    4.6366    2.2353    0.3142 C   0  0  2  0  0  0  0  0  0  0  0  0
    4.7026    3.6892    0.3787 N   0  0  0  0  0  0  0  0  0  0  0  0
    5.7913    4.3295   -0.3416 C   0  0  0  0  0  0  0  0  0  0  0  0
    5.6307    5.8356   -0.4284 C   0  0  0  0  0  0  0  0  0  0  0  0
    4.4087    6.4730   -0.1884 C   0  0  0  0  0  0  0  0  0  0  0  0
    4.2893    7.8624   -0.2834 C   0  0  0  0  0  0  0  0  0  0  0  0
    5.4022    8.6304   -0.6275 C   0  0  0  0  0  0  0  0  0  0  0  0
    6.6430    8.0308   -0.8845 C   0  0  0  0  0  0  0  0  0  0  0  0
    7.8580    8.8427   -1.2647 C   0  0  0  0  0  0  0  0  0  0  0  0
    6.7389    6.6289   -0.7843 C   0  0  0  0  0  0  0  0  0  0  0  0
    7.9132    5.9758   -1.0343 O   0  0  0  0  0  0  0  0  0  0  0  0
    3.2964    1.7650    0.9197 C   0  0  0  0  0  0  0  0  0  0  0  0
    1.4415   -1.8689   -1.1676 H   0  0  0  0  0  0  0  0  0  0  0  0
    0.9395   -1.3143    0.4590 H   0  0  0  0  0  0  0  0  0  0  0  0
    2.3872   -2.3298    0.2609 H   0  0  0  0  0  0  0  0  0  0  0  0
    2.0204    0.5224   -0.8608 H   0  0  0  0  0  0  0  0  0  0  0  0
    3.4775   -0.4503   -1.0698 H   0  0  0  0  0  0  0  0  0  0  0  0
    4.0050   -1.4665    1.5081 H   0  0  0  0  0  0  0  0  0  0  0  0
    4.1696   -0.1185    2.6364 H   0  0  0  0  0  0  0  0  0  0  0  0
    5.6484   -0.4092   -0.0484 H   0  0  0  0  0  0  0  0  0  0  0  0
    6.3576   -0.5502    1.5634 H   0  0  0  0  0  0  0  0  0  0  0  0
    6.7610    1.7377    0.5309 H   0  0  0  0  0  0  0  0  0  0  0  0
    5.8576    1.8358    2.0511 H   0  0  0  0  0  0  0  0  0  0  0  0
    4.6382    1.9635   -0.7586 H   0  0  0  0  0  0  0  0  0  0  0  0
    4.6972    3.9988    1.3515 H   0  0  0  0  0  0  0  0  0  0  0  0
    5.8090    3.9137   -1.3673 H   0  0  0  0  0  0  0  0  0  0  0  0
    6.7976    4.1122    0.0705 H   0  0  0  0  0  0  0  0  0  0  0  0
    3.5512    5.8509    0.0738 H   0  0  0  0  0  0  0  0  0  0  0  0
    3.3281    8.3451   -0.0910 H   0  0  0  0  0  0  0  0  0  0  0  0
    5.3156    9.7182   -0.7026 H   0  0  0  0  0  0  0  0  0  0  0  0
    7.6243    9.9164   -1.2895 H   0  0  0  0  0  0  0  0  0  0  0  0
    8.2425    8.5728   -2.2658 H   0  0  0  0  0  0  0  0  0  0  0  0
    8.6890    8.7115   -0.5465 H   0  0  0  0  0  0  0  0  0  0  0  0
    8.6055    6.6172   -1.2360 H   0  0  0  0  0  0  0  0  0  0  0  0
    2.4678    2.2665    0.3964 H   0  0  0  0  0  0  0  0  0  0  0  0
    3.2604    2.1103    1.9730 H   0  0  0  0  0  0  0  0  0  0  0  0
  1  2  1  0
  1 19  1  0
  1 20  1  0
  1 21  1  0
  2  3  1  0
  2 22  1  0
  2 23  1  0
  3  4  1  0
  3 18  1  0
  4  5  1  0
  4 24  1  0
  4 25  1  0
  5  6  1  0
  5 26  1  0
  5 27  1  0
  6  7  1  0
  6 28  1  0
  6 29  1  0
  7  8  1  0
  7 18  1  0
  7 30  1  6
  8  9  1  0
  8 31  1  0
  9 10  1  0
  9 32  1  0
  9 33  1  0
 10 11  2  0
 10 16  1  0
 11 12  1  0
 11 34  1  0
 12 13  2  0
 12 35  1  0
 13 14  1  0
 13 36  1  0
 14 15  1  0
 14 16  2  0
 15 37  1  0
 15 38  1  0
 15 39  1  0
 16 17  1  0
 17 40  1  0
 18 41  1  0
 18 42  1  0
M  END

