
     RDKit          3D

 51 54  0  0  0  0  0  0  0  0999 V2000
    1.3528   -2.1186   -0.8765 C   0  0  0  0  0  0  0  0  0  0  0  0
    2.7336   -1.7902   -0.7158 O   0  0  0  0  0  0  0  0  0  0  0  0
    3.1173   -0.5752   -1.1287 C   0  0  0  0  0  0  0  0  0  0  0  0
    2.2981    0.1968   -1.6057 O   0  0  0  0  0  0  0  0  0  0  0  0
    4.5763   -0.3372   -1.0023 C   0  0  0  0  0  0  0  0  0  0  0  0
    5.3732   -1.4948   -0.8758 C   0  0  0  0  0  0  0  0  0  0  0  0
    6.7659   -1.4488   -0.8876 C   0  0  0  0  0  0  0  0  0  0  0  0
    7.4179   -0.2262   -1.0203 C   0  0  0  0  0  0  0  0  0  0  0  0
    6.6435    0.9325   -1.1084 C   0  0  0  0  0  0  0  0  0  0  0  0
    5.2058    0.9448   -1.0968 C   0  0  0  0  0  0  0  0  0  0  0  0
    4.8317    2.3643   -1.1666 C   0  0  0  0  0  0  0  0  0  0  0  0
    3.6342    3.1474   -1.1142 C   0  0  0  0  0  0  0  0  0  0  0  0
    2.3987    2.6618   -0.9920 O   0  0  0  0  0  0  0  0  0  0  0  0
    3.7308    4.5472   -1.1627 C   0  0  0  0  0  0  0  0  0  0  0  0
    4.9488    5.2330   -1.2612 C   0  0  0  0  0  0  0  0  0  0  0  0
    4.9867    6.7548   -1.3258 C   0  0  1  0  0  0  0  0  0  0  0  0
    4.2843    7.2940   -2.5840 C   0  0  0  0  0  0  0  0  0  0  0  0
    4.4174    7.3992   -0.0501 C   0  0  0  0  0  0  0  0  0  0  0  0
    6.1362    4.4965   -1.3042 C   0  0  0  0  0  0  0  0  0  0  0  0
    6.0572    3.1020   -1.2368 C   0  0  0  0  0  0  0  0  0  0  0  0
    7.1263    2.2216   -1.2012 N   0  0  0  0  0  0  0  0  0  0  0  0
    8.5267    2.5850   -1.1635 C   0  0  0  0  0  0  0  0  0  0  0  0
    9.2713    2.4723   -2.4869 C   0  0  0  0  0  0  0  0  0  0  0  0
    8.6087    2.5795   -3.7172 C   0  0  0  0  0  0  0  0  0  0  0  0
    9.3251    2.5156   -4.9164 C   0  0  0  0  0  0  0  0  0  0  0  0
   10.7122    2.3458   -4.9018 C   0  0  0  0  0  0  0  0  0  0  0  0
   11.3808    2.2360   -3.6786 C   0  0  0  0  0  0  0  0  0  0  0  0
   10.6634    2.2963   -2.4813 C   0  0  0  0  0  0  0  0  0  0  0  0
    1.2376   -3.1350   -0.4809 H   0  0  0  0  0  0  0  0  0  0  0  0
    1.0631   -2.0842   -1.9373 H   0  0  0  0  0  0  0  0  0  0  0  0
    0.7175   -1.4154   -0.3182 H   0  0  0  0  0  0  0  0  0  0  0  0
    4.8709   -2.4571   -0.7986 H   0  0  0  0  0  0  0  0  0  0  0  0
    7.3424   -2.3732   -0.8106 H   0  0  0  0  0  0  0  0  0  0  0  0
    8.5068   -0.1744   -1.0621 H   0  0  0  0  0  0  0  0  0  0  0  0
    2.3558    1.7108   -1.2563 H   0  0  0  0  0  0  0  0  0  0  0  0
    2.7829    5.0870   -1.1245 H   0  0  0  0  0  0  0  0  0  0  0  0
    6.0501    7.0439   -1.3939 H   0  0  0  0  0  0  0  0  0  0  0  0
    3.2086    7.0546   -2.5762 H   0  0  0  0  0  0  0  0  0  0  0  0
    4.7159    6.8604   -3.4997 H   0  0  0  0  0  0  0  0  0  0  0  0
    4.3825    8.3905   -2.6458 H   0  0  0  0  0  0  0  0  0  0  0  0
    3.3474    7.1666    0.0739 H   0  0  0  0  0  0  0  0  0  0  0  0
    4.5182    8.4965   -0.0895 H   0  0  0  0  0  0  0  0  0  0  0  0
    4.9430    7.0399    0.8485 H   0  0  0  0  0  0  0  0  0  0  0  0
    7.0978    5.0049   -1.3885 H   0  0  0  0  0  0  0  0  0  0  0  0
    9.0326    1.9667   -0.4037 H   0  0  0  0  0  0  0  0  0  0  0  0
    8.5904    3.6197   -0.7910 H   0  0  0  0  0  0  0  0  0  0  0  0
    7.5244    2.7102   -3.7378 H   0  0  0  0  0  0  0  0  0  0  0  0
    8.7935    2.5985   -5.8679 H   0  0  0  0  0  0  0  0  0  0  0  0
   11.2704    2.2946   -5.8400 H   0  0  0  0  0  0  0  0  0  0  0  0
   12.4648    2.0964   -3.6561 H   0  0  0  0  0  0  0  0  0  0  0  0
   11.1935    2.2031   -1.5281 H   0  0  0  0  0  0  0  0  0  0  0  0
  1  2  1  0
  1 29  1  0
  1 30  1  0
  1 31  1  0
  2  3  1  0
  3  4  2  0
  3  5  1  0
  5  6  2  0
  5 10  1  0
  6  7  1  0
  6 32  1  0
  7  8  2  0
  7 33  1  0
  8  9  1  0
  8 34  1  0
  9 10  2  0
  9 21  1  0
 10 11  1  0
 11 12  2  0
 11 20  1  0
 12 13  1  0
 12 14  1  0
 13 35  1  0
 14 15  2  0
 14 36  1  0
 15 16  1  0
 15 19  1  0
 16 17  1  0
 16 18  1  0
 16 37  1  6
 17 38  1  0
 17 39  1  0
 17 40  1  0
 18 41  1  0
 18 42  1  0
 18 43  1  0
 19 20  2  0
 19 44  1  0
 20 21  1  0
 21 22  1  0
 22 23  1  0
 22 45  1  0
 22 46  1  0
 23 24  2  0
 23 28  1  0
 24 25  1  0
 24 47  1  0
 25 26  2  0
 25 48  1  0
 26 27  1  0
 26 49  1  0
 27 28  2  0
 27 50  1  0
 28 51  1  0
M  END

