
     RDKit          3D

 50 51  0  0  0  0  0  0  0  0999 V2000
    3.2999    0.4203    0.9048 C   0  0  0  0  0  0  0  0  0  0  0  0
    2.5395   -0.0407   -0.3403 C   0  0  0  0  0  0  0  0  0  0  0  0
    3.2085    0.2857   -1.5887 N   0  0  0  0  0  0  0  0  0  0  0  0
    2.9461    1.4395   -2.2738 C   0  0  0  0  0  0  0  0  0  0  0  0
    2.1159    2.2550   -1.8962 O   0  0  0  0  0  0  0  0  0  0  0  0
    3.7448    1.6599   -3.5356 C   0  0  0  0  0  0  0  0  0  0  0  0
    3.7996    2.9608   -4.0484 C   0  0  0  0  0  0  0  0  0  0  0  0
    4.5267    3.2119   -5.2100 C   0  0  0  0  0  0  0  0  0  0  0  0
    5.2037    2.1946   -5.8948 C   0  0  0  0  0  0  0  0  0  0  0  0
    5.9847    2.5012   -7.1495 C   0  0  0  0  0  0  0  0  0  0  0  0
    5.1284    0.8755   -5.3811 C   0  0  0  0  0  0  0  0  0  0  0  0
    5.7924   -0.1427   -6.0965 N   0  0  0  0  0  0  0  0  0  0  0  0
    5.9802   -1.4696   -5.7337 C   0  0  0  0  0  0  0  0  0  0  0  0
    5.5803   -1.9560   -4.6901 O   0  0  0  0  0  0  0  0  0  0  0  0
    6.6763   -2.1816   -6.6999 N   0  0  0  0  0  0  0  0  0  0  0  0
    7.0621   -3.5360   -6.6834 C   0  0  0  0  0  0  0  0  0  0  0  0
    7.6824   -4.0420   -7.8418 C   0  0  0  0  0  0  0  0  0  0  0  0
    8.1009   -5.3694   -7.8900 C   0  0  0  0  0  0  0  0  0  0  0  0
    7.9076   -6.2138   -6.7933 C   0  0  0  0  0  0  0  0  0  0  0  0
    7.2912   -5.7250   -5.6328 C   0  0  0  0  0  0  0  0  0  0  0  0
    7.0423   -6.6312   -4.4461 C   0  0  0  0  0  0  0  0  0  0  0  0
    5.6098   -7.1778   -4.4085 C   0  0  0  0  0  0  0  0  0  0  0  0
    5.3570   -8.1133   -3.2328 C   0  0  0  0  0  0  0  0  0  0  0  0
    6.1914   -8.4541   -2.4410 O   0  0  0  0  0  0  0  0  0  0  0  0
    4.0852   -8.5693   -3.1253 O   0  0  0  0  0  0  0  0  0  0  0  0
    6.8722   -4.3865   -5.5817 C   0  0  0  0  0  0  0  0  0  0  0  0
    4.3969    0.6198   -4.2107 C   0  0  0  0  0  0  0  0  0  0  0  0
    2.7527    0.1371    1.8187 H   0  0  0  0  0  0  0  0  0  0  0  0
    3.4182    1.5147    0.9016 H   0  0  0  0  0  0  0  0  0  0  0  0
    4.3026   -0.0356    0.9576 H   0  0  0  0  0  0  0  0  0  0  0  0
    1.5526    0.4422   -0.3744 H   0  0  0  0  0  0  0  0  0  0  0  0
    2.3773   -1.1315   -0.3085 H   0  0  0  0  0  0  0  0  0  0  0  0
    4.0081   -0.2710   -1.8646 H   0  0  0  0  0  0  0  0  0  0  0  0
    3.2667    3.7547   -3.5233 H   0  0  0  0  0  0  0  0  0  0  0  0
    4.5764    4.2304   -5.6053 H   0  0  0  0  0  0  0  0  0  0  0  0
    5.9425    3.5732   -7.3861 H   0  0  0  0  0  0  0  0  0  0  0  0
    5.5877    1.9628   -8.0302 H   0  0  0  0  0  0  0  0  0  0  0  0
    7.0520    2.2319   -7.0506 H   0  0  0  0  0  0  0  0  0  0  0  0
    6.2232    0.1624   -6.9589 H   0  0  0  0  0  0  0  0  0  0  0  0
    6.9134   -1.6958   -7.5564 H   0  0  0  0  0  0  0  0  0  0  0  0
    7.8399   -3.3882   -8.7054 H   0  0  0  0  0  0  0  0  0  0  0  0
    8.5862   -5.7472   -8.7936 H   0  0  0  0  0  0  0  0  0  0  0  0
    8.2439   -7.2531   -6.8361 H   0  0  0  0  0  0  0  0  0  0  0  0
    7.2350   -6.0904   -3.5064 H   0  0  0  0  0  0  0  0  0  0  0  0
    7.7419   -7.4803   -4.4589 H   0  0  0  0  0  0  0  0  0  0  0  0
    5.3817   -7.7273   -5.3403 H   0  0  0  0  0  0  0  0  0  0  0  0
    4.8803   -6.3487   -4.3638 H   0  0  0  0  0  0  0  0  0  0  0  0
    3.5318   -8.2017   -3.8291 H   0  0  0  0  0  0  0  0  0  0  0  0
    6.3971   -3.9903   -4.6868 H   0  0  0  0  0  0  0  0  0  0  0  0
    4.3401   -0.4078   -3.8626 H   0  0  0  0  0  0  0  0  0  0  0  0
  1  2  1  0
  1 28  1  0
  1 29  1  0
  1 30  1  0
  2  3  1  0
  2 31  1  0
  2 32  1  0
  3  4  1  0
  3 33  1  0
  4  5  2  0
  4  6  1  0
  6  7  2  0
  6 27  1  0
  7  8  1  0
  7 34  1  0
  8  9  2  0
  8 35  1  0
  9 10  1  0
  9 11  1  0
 10 36  1  0
 10 37  1  0
 10 38  1  0
 11 12  1  0
 11 27  2  0
 12 13  1  0
 12 39  1  0
 13 14  2  0
 13 15  1  0
 15 16  1  0
 15 40  1  0
 16 17  2  0
 16 26  1  0
 17 18  1  0
 17 41  1  0
 18 19  2  0
 18 42  1  0
 19 20  1  0
 19 43  1  0
 20 21  1  0
 20 26  2  0
 21 22  1  0
 21 44  1  0
 21 45  1  0
 22 23  1  0
 22 46  1  0
 22 47  1  0
 23 24  2  0
 23 25  1  0
 25 48  1  0
 26 49  1  0
 27 50  1  0
M  END

