
     RDKit          3D

 28 28  0  0  0  0  0  0  0  0999 V2000
    0.7619    0.6091    0.4842 C   0  0  0  0  0  0  0  0  0  0  0  0
    2.1759    0.1398    0.1383 C   0  0  1  0  0  0  0  0  0  0  0  0
    2.6988   -0.9040    1.1244 C   0  0  0  0  0  0  0  0  0  0  0  0
    2.1479   -0.3412   -1.2463 O   0  0  0  0  0  0  0  0  0  0  0  0
    2.3808   -1.6250   -1.6036 C   0  0  0  0  0  0  0  0  0  0  0  0
    1.4995   -2.6862   -1.3405 C   0  0  0  0  0  0  0  0  0  0  0  0
    0.4060   -2.4402   -0.6067 F   0  0  0  0  0  0  0  0  0  0  0  0
    1.7187   -3.9803   -1.8028 C   0  0  0  0  0  0  0  0  0  0  0  0
    2.8582   -4.2326   -2.5711 C   0  0  0  0  0  0  0  0  0  0  0  0
    3.1509   -5.8444   -3.1674 Cl  0  0  0  0  0  0  0  0  0  0  0  0
    3.7646   -3.2125   -2.8728 C   0  0  0  0  0  0  0  0  0  0  0  0
    3.5112   -1.9379   -2.3775 C   0  0  0  0  0  0  0  0  0  0  0  0
    4.3689   -0.9474   -2.6600 F   0  0  0  0  0  0  0  0  0  0  0  0
    3.1238    1.3636    0.1878 C   0  0  0  0  0  0  0  0  0  0  0  0
    3.2504    2.0030    1.2216 O   0  0  0  0  0  0  0  0  0  0  0  0
    3.7863    1.6645   -0.9547 N   0  0  0  0  0  0  0  0  0  0  0  0
    4.6883    2.7299   -1.0263 N   0  0  0  0  0  0  0  0  0  0  0  0
    0.0737   -0.2467    0.5121 H   0  0  0  0  0  0  0  0  0  0  0  0
    0.4068    1.3209   -0.2759 H   0  0  0  0  0  0  0  0  0  0  0  0
    0.7688    1.1137    1.4600 H   0  0  0  0  0  0  0  0  0  0  0  0
    1.9996   -1.7453    1.2270 H   0  0  0  0  0  0  0  0  0  0  0  0
    2.8107   -0.4166    2.1025 H   0  0  0  0  0  0  0  0  0  0  0  0
    3.6853   -1.2862    0.8203 H   0  0  0  0  0  0  0  0  0  0  0  0
    1.0021   -4.7662   -1.5646 H   0  0  0  0  0  0  0  0  0  0  0  0
    4.6553   -3.3943   -3.4737 H   0  0  0  0  0  0  0  0  0  0  0  0
    3.6823    1.0850   -1.7793 H   0  0  0  0  0  0  0  0  0  0  0  0
    5.3621    2.6261   -0.2627 H   0  0  0  0  0  0  0  0  0  0  0  0
    4.1807    3.5915   -0.8080 H   0  0  0  0  0  0  0  0  0  0  0  0
  1  2  1  0
  1 18  1  0
  1 19  1  0
  1 20  1  0
  2  3  1  0
  2  4  1  6
  2 14  1  0
  3 21  1  0
  3 22  1  0
  3 23  1  0
  4  5  1  0
  5  6  2  0
  5 12  1  0
  6  7  1  0
  6  8  1  0
  8  9  2  0
  8 24  1  0
  9 10  1  0
  9 11  1  0
 11 12  2  0
 11 25  1  0
 12 13  1  0
 14 15  2  0
 14 16  1  0
 16 17  1  0
 16 26  1  0
 17 27  1  0
 17 28  1  0
M  END

