
     RDKit          3D

 32 32  0  0  0  0  0  0  0  0999 V2000
    1.1163   -0.3410    0.0851 C   0  0  0  0  0  0  0  0  0  0  0  0
    2.4459    0.2257    0.2480 N   0  0  0  0  0  0  0  0  0  0  0  0
    2.8533    1.1774   -0.7808 C   0  0  1  0  0  0  0  0  0  0  0  0
    2.3300    2.5767   -0.4291 C   0  0  0  0  0  0  0  0  0  0  0  0
    2.6345    3.4611   -1.4772 O   0  0  0  0  0  0  0  0  0  0  0  0
    2.1896    4.7742   -1.2676 C   0  0  0  0  0  0  0  0  0  0  0  0
    4.3716    1.2222   -0.9208 C   0  0  0  0  0  0  0  0  0  0  0  0
    4.9890   -0.3729   -1.6441 S   0  0  0  0  0  0  0  0  0  0  0  0
    4.3896   -0.4754   -3.0273 O   0  0  0  0  0  0  0  0  0  0  0  0
    6.7217    0.1648   -1.8835 C   0  0  0  0  0  0  0  0  0  0  0  0
    7.1679    0.3014   -3.1964 C   0  0  0  0  0  0  0  0  0  0  0  0
    8.5046    0.6303   -3.4123 C   0  0  0  0  0  0  0  0  0  0  0  0
    8.9489    0.7722   -4.6673 F   0  0  0  0  0  0  0  0  0  0  0  0
    9.3968    0.8098   -2.3552 C   0  0  0  0  0  0  0  0  0  0  0  0
    8.9408    0.6622   -1.0415 C   0  0  0  0  0  0  0  0  0  0  0  0
    7.6075    0.3333   -0.8192 C   0  0  0  0  0  0  0  0  0  0  0  0
    7.1527    0.1932    0.4399 F   0  0  0  0  0  0  0  0  0  0  0  0
    0.9299   -1.0776    0.8820 H   0  0  0  0  0  0  0  0  0  0  0  0
    0.9522   -0.8406   -0.8939 H   0  0  0  0  0  0  0  0  0  0  0  0
    0.3456    0.4403    0.1860 H   0  0  0  0  0  0  0  0  0  0  0  0
    3.1276   -0.5261    0.3245 H   0  0  0  0  0  0  0  0  0  0  0  0
    2.4454    0.9166   -1.7805 H   0  0  0  0  0  0  0  0  0  0  0  0
    2.7849    2.9073    0.5283 H   0  0  0  0  0  0  0  0  0  0  0  0
    1.2342    2.5281   -0.2643 H   0  0  0  0  0  0  0  0  0  0  0  0
    2.4778    5.3720   -2.1447 H   0  0  0  0  0  0  0  0  0  0  0  0
    2.6451    5.2288   -0.3642 H   0  0  0  0  0  0  0  0  0  0  0  0
    1.0875    4.8251   -1.1531 H   0  0  0  0  0  0  0  0  0  0  0  0
    4.8720    1.3465    0.0535 H   0  0  0  0  0  0  0  0  0  0  0  0
    4.6651    2.0240   -1.6110 H   0  0  0  0  0  0  0  0  0  0  0  0
    6.4640    0.1459   -4.0184 H   0  0  0  0  0  0  0  0  0  0  0  0
   10.4371    1.0616   -2.5688 H   0  0  0  0  0  0  0  0  0  0  0  0
    9.6082    0.7968   -0.1879 H   0  0  0  0  0  0  0  0  0  0  0  0
  1  2  1  0
  1 18  1  0
  1 19  1  0
  1 20  1  0
  2  3  1  0
  2 21  1  0
  3  4  1  0
  3  7  1  0
  3 22  1  6
  4  5  1  0
  4 23  1  0
  4 24  1  0
  5  6  1  0
  6 25  1  0
  6 26  1  0
  6 27  1  0
  7  8  1  0
  7 28  1  0
  7 29  1  0
  8  9  1  6
  8 10  1  0
 10 11  2  0
 10 16  1  0
 11 12  1  0
 11 30  1  0
 12 13  1  0
 12 14  2  0
 14 15  1  0
 14 31  1  0
 15 16  2  0
 15 32  1  0
 16 17  1  0
M  CHG  2   8   1   9  -1
M  END

