
     RDKit          3D

 36 37  0  0  0  0  0  0  0  0999 V2000
    1.7929    1.5011   -0.3390 C   0  0  0  0  0  0  0  0  0  0  0  0
    2.0242    0.1145   -0.3909 O   0  0  0  0  0  0  0  0  0  0  0  0
    2.5113   -0.4329   -1.5399 C   0  0  0  0  0  0  0  0  0  0  0  0
    2.7184   -1.8189   -1.5324 C   0  0  0  0  0  0  0  0  0  0  0  0
    3.2142   -2.4792   -2.6576 C   0  0  0  0  0  0  0  0  0  0  0  0
    3.5150   -1.7550   -3.8235 C   0  0  0  0  0  0  0  0  0  0  0  0
    4.0020   -2.3041   -4.9728 O   0  0  0  0  0  0  0  0  0  0  0  0
    4.2356   -3.7006   -5.0397 C   0  0  0  0  0  0  0  0  0  0  0  0
    4.7667   -4.0357   -6.4259 C   0  0  0  0  0  0  0  0  0  0  0  0
    6.1161   -3.3665   -6.7818 C   0  0  1  0  0  0  0  0  0  0  0  0
    7.3023   -4.0278   -6.0668 C   0  0  0  0  0  0  0  0  0  0  0  0
    7.5521   -5.3272   -6.5718 O   0  0  0  0  0  0  0  0  0  0  0  0
    7.8674   -5.2984   -7.9523 C   0  0  0  0  0  0  0  0  0  0  0  0
    6.7284   -4.6833   -8.7601 C   0  0  0  0  0  0  0  0  0  0  0  0
    6.4282   -3.3652   -8.2141 N   0  0  0  0  0  0  0  0  0  0  0  0
    3.3077   -0.3692   -3.8310 C   0  0  0  0  0  0  0  0  0  0  0  0
    2.8117    0.2911   -2.7055 C   0  0  0  0  0  0  0  0  0  0  0  0
    1.4048    1.7186    0.6656 H   0  0  0  0  0  0  0  0  0  0  0  0
    1.0449    1.8254   -1.0862 H   0  0  0  0  0  0  0  0  0  0  0  0
    2.7204    2.0830   -0.4951 H   0  0  0  0  0  0  0  0  0  0  0  0
    2.4820   -2.3732   -0.6216 H   0  0  0  0  0  0  0  0  0  0  0  0
    3.3610   -3.5584   -2.6118 H   0  0  0  0  0  0  0  0  0  0  0  0
    3.2956   -4.2529   -4.8506 H   0  0  0  0  0  0  0  0  0  0  0  0
    4.9539   -4.0040   -4.2538 H   0  0  0  0  0  0  0  0  0  0  0  0
    4.0102   -3.7214   -7.1659 H   0  0  0  0  0  0  0  0  0  0  0  0
    4.8594   -5.1312   -6.5001 H   0  0  0  0  0  0  0  0  0  0  0  0
    6.0662   -2.3153   -6.4526 H   0  0  0  0  0  0  0  0  0  0  0  0
    7.1134   -4.1383   -4.9883 H   0  0  0  0  0  0  0  0  0  0  0  0
    8.1977   -3.3881   -6.1966 H   0  0  0  0  0  0  0  0  0  0  0  0
    8.0553   -6.3381   -8.2616 H   0  0  0  0  0  0  0  0  0  0  0  0
    8.7925   -4.7086   -8.1172 H   0  0  0  0  0  0  0  0  0  0  0  0
    5.8658   -5.3859   -8.7490 H   0  0  0  0  0  0  0  0  0  0  0  0
    7.0428   -4.5764   -9.8122 H   0  0  0  0  0  0  0  0  0  0  0  0
    5.6941   -2.9022   -8.7456 H   0  0  0  0  0  0  0  0  0  0  0  0
    3.5433    0.1864   -4.7412 H   0  0  0  0  0  0  0  0  0  0  0  0
    2.6648    1.3705   -2.7508 H   0  0  0  0  0  0  0  0  0  0  0  0
  1  2  1  0
  1 18  1  0
  1 19  1  0
  1 20  1  0
  2  3  1  0
  3  4  2  0
  3 17  1  0
  4  5  1  0
  4 21  1  0
  5  6  2  0
  5 22  1  0
  6  7  1  0
  6 16  1  0
  7  8  1  0
  8  9  1  0
  8 23  1  0
  8 24  1  0
  9 10  1  0
  9 25  1  0
  9 26  1  0
 10 11  1  0
 10 15  1  0
 10 27  1  1
 11 12  1  0
 11 28  1  0
 11 29  1  0
 12 13  1  0
 13 14  1  0
 13 30  1  0
 13 31  1  0
 14 15  1  0
 14 32  1  0
 14 33  1  0
 15 34  1  0
 16 17  2  0
 16 35  1  0
 17 36  1  0
M  END

