
     RDKit          3D

 32 33  0  0  0  0  0  0  0  0999 V2000
    0.7889   -0.1195    0.2854 C   0  0  0  0  0  0  0  0  0  0  0  0
    2.2263   -0.0282    0.1167 N   0  0  0  0  0  0  0  0  0  0  0  0
    2.8970   -1.2913   -0.1662 C   0  0  0  0  0  0  0  0  0  0  0  0
    2.7671   -1.7535   -1.6315 C   0  0  0  0  0  0  0  0  0  0  0  0
    3.2140   -0.6642   -2.6323 C   0  0  2  0  0  0  0  0  0  0  0  0
    4.7534   -0.5892   -2.6819 C   0  0  0  0  0  0  0  0  0  0  0  0
    5.2710    0.3626   -3.6729 N   0  0  0  0  0  0  0  0  0  0  0  0
    5.6338    1.5810   -3.2618 N   0  0  0  0  0  0  0  0  0  0  0  0
    6.0385    2.2371   -4.3477 C   0  0  0  0  0  0  0  0  0  0  0  0
    6.5979    3.8619   -4.2392 Cl  0  0  0  0  0  0  0  0  0  0  0  0
    5.9470    1.4508   -5.5082 C   0  0  0  0  0  0  0  0  0  0  0  0
    5.4442    0.2505   -5.0259 C   0  0  0  0  0  0  0  0  0  0  0  0
    5.1653   -0.9338   -5.8028 N   0  0  0  0  0  0  0  0  0  0  0  0
    4.7083   -1.9145   -5.2270 O   0  0  0  0  0  0  0  0  0  0  0  0
    5.4119   -0.8681   -6.9949 O   0  0  0  0  0  0  0  0  0  0  0  0
    2.5366    0.6776   -2.2790 C   0  0  0  0  0  0  0  0  0  0  0  0
    2.6780    1.0272   -0.7850 C   0  0  0  0  0  0  0  0  0  0  0  0
    0.5540   -0.8571    1.0703 H   0  0  0  0  0  0  0  0  0  0  0  0
    0.2147   -0.4123   -0.6225 H   0  0  0  0  0  0  0  0  0  0  0  0
    0.3933    0.8535    0.6196 H   0  0  0  0  0  0  0  0  0  0  0  0
    2.5009   -2.0665    0.5100 H   0  0  0  0  0  0  0  0  0  0  0  0
    3.9663   -1.1772    0.0939 H   0  0  0  0  0  0  0  0  0  0  0  0
    1.7138   -2.0042   -1.8421 H   0  0  0  0  0  0  0  0  0  0  0  0
    3.3402   -2.6837   -1.7893 H   0  0  0  0  0  0  0  0  0  0  0  0
    2.8915   -0.9749   -3.6392 H   0  0  0  0  0  0  0  0  0  0  0  0
    5.1613   -1.5778   -2.9221 H   0  0  0  0  0  0  0  0  0  0  0  0
    5.1819   -0.2508   -1.7302 H   0  0  0  0  0  0  0  0  0  0  0  0
    6.2041    1.6915   -6.5343 H   0  0  0  0  0  0  0  0  0  0  0  0
    1.4668    0.5993   -2.5381 H   0  0  0  0  0  0  0  0  0  0  0  0
    2.9427    1.4980   -2.8925 H   0  0  0  0  0  0  0  0  0  0  0  0
    2.1212    1.9512   -0.5597 H   0  0  0  0  0  0  0  0  0  0  0  0
    3.7375    1.2472   -0.5593 H   0  0  0  0  0  0  0  0  0  0  0  0
  1  2  1  0
  1 18  1  0
  1 19  1  0
  1 20  1  0
  2  3  1  0
  2 17  1  0
  3  4  1  0
  3 21  1  0
  3 22  1  0
  4  5  1  0
  4 23  1  0
  4 24  1  0
  5  6  1  0
  5 16  1  0
  5 25  1  6
  6  7  1  0
  6 26  1  0
  6 27  1  0
  7  8  1  0
  7 12  1  0
  8  9  2  0
  9 10  1  0
  9 11  1  0
 11 12  2  0
 11 28  1  0
 12 13  1  0
 13 14  2  0
 13 15  1  0
 16 17  1  0
 16 29  1  0
 16 30  1  0
 17 31  1  0
 17 32  1  0
M  CHG  2  13   1  15  -1
M  END

