
     RDKit          3D

 38 39  0  0  0  0  0  0  0  0999 V2000
    0.9778    2.8256   -1.8209 C   0  0  0  0  0  0  0  0  0  0  0  0
    2.4663    2.5933   -1.7300 C   0  0  0  0  0  0  0  0  0  0  0  0
    3.0235    1.6959   -0.8100 C   0  0  0  0  0  0  0  0  0  0  0  0
    4.3984    1.4731   -0.7329 C   0  0  0  0  0  0  0  0  0  0  0  0
    5.2878    2.1502   -1.5881 C   0  0  0  0  0  0  0  0  0  0  0  0
    6.6769    1.9657   -1.5577 N   0  0  0  0  0  0  0  0  0  0  0  0
    7.4233    1.1200   -0.7685 C   0  0  0  0  0  0  0  0  0  0  0  0
    6.9504    0.3895    0.0829 O   0  0  0  0  0  0  0  0  0  0  0  0
    8.9458    1.1223   -1.1000 C   0  0  1  0  0  0  0  0  0  0  0  0
    9.6831    0.3443    0.0077 C   0  0  0  0  0  0  0  0  0  0  0  0
    9.1110    0.3588   -2.4335 C   0  0  0  0  0  0  0  0  0  0  0  0
    9.4771    2.5632   -1.1612 C   0  0  0  0  0  0  0  0  0  0  0  0
    9.2520    3.4263   -0.0704 C   0  0  0  0  0  0  0  0  0  0  0  0
    9.7374    4.7325   -0.0572 C   0  0  0  0  0  0  0  0  0  0  0  0
   10.4668    5.1912   -1.1537 C   0  0  0  0  0  0  0  0  0  0  0  0
   10.9382    6.4461   -1.1490 F   0  0  0  0  0  0  0  0  0  0  0  0
   10.7098    4.3729   -2.2504 C   0  0  0  0  0  0  0  0  0  0  0  0
   10.2118    3.0646   -2.2467 C   0  0  0  0  0  0  0  0  0  0  0  0
    4.7214    3.0545   -2.5149 C   0  0  0  0  0  0  0  0  0  0  0  0
    5.8513    4.0252   -3.7267 Br  0  0  0  0  0  0  0  0  0  0  0  0
    3.3479    3.2723   -2.5846 C   0  0  0  0  0  0  0  0  0  0  0  0
    0.4425    2.3150   -1.0070 H   0  0  0  0  0  0  0  0  0  0  0  0
    0.5699    2.4503   -2.7750 H   0  0  0  0  0  0  0  0  0  0  0  0
    0.7322    3.8989   -1.7657 H   0  0  0  0  0  0  0  0  0  0  0  0
    2.3673    1.1502   -0.1264 H   0  0  0  0  0  0  0  0  0  0  0  0
    4.8124    0.7733   -0.0110 H   0  0  0  0  0  0  0  0  0  0  0  0
    7.1979    2.5634   -2.1936 H   0  0  0  0  0  0  0  0  0  0  0  0
    9.2942   -0.6807    0.0824 H   0  0  0  0  0  0  0  0  0  0  0  0
    9.5516    0.8173    0.9909 H   0  0  0  0  0  0  0  0  0  0  0  0
   10.7597    0.3068   -0.2174 H   0  0  0  0  0  0  0  0  0  0  0  0
    8.6585   -0.6405   -2.3466 H   0  0  0  0  0  0  0  0  0  0  0  0
   10.1757    0.2208   -2.6771 H   0  0  0  0  0  0  0  0  0  0  0  0
    8.6291    0.8737   -3.2783 H   0  0  0  0  0  0  0  0  0  0  0  0
    8.6786    3.0720    0.7904 H   0  0  0  0  0  0  0  0  0  0  0  0
    9.5590    5.4012    0.7872 H   0  0  0  0  0  0  0  0  0  0  0  0
   11.2827    4.7616   -3.0946 H   0  0  0  0  0  0  0  0  0  0  0  0
   10.4132    2.4362   -3.1149 H   0  0  0  0  0  0  0  0  0  0  0  0
    2.9618    3.9832   -3.3183 H   0  0  0  0  0  0  0  0  0  0  0  0
  1  2  1  0
  1 22  1  0
  1 23  1  0
  1 24  1  0
  2  3  2  0
  2 21  1  0
  3  4  1  0
  3 25  1  0
  4  5  2  0
  4 26  1  0
  5  6  1  0
  5 19  1  0
  6  7  1  0
  6 27  1  0
  7  8  2  0
  9  7  1  1
  9 10  1  0
  9 11  1  0
  9 12  1  0
 10 28  1  0
 10 29  1  0
 10 30  1  0
 11 31  1  0
 11 32  1  0
 11 33  1  0
 12 13  2  0
 12 18  1  0
 13 14  1  0
 13 34  1  0
 14 15  2  0
 14 35  1  0
 15 16  1  0
 15 17  1  0
 17 18  2  0
 17 36  1  0
 18 37  1  0
 19 20  1  0
 19 21  2  0
 21 38  1  0
M  END

