
     RDKit          3D

 54 56  0  0  0  0  0  0  0  0999 V2000
    5.4599   -0.0868    1.6203 C   0  0  0  0  0  0  0  0  0  0  0  0
    4.3847   -0.6561    0.6964 C   0  0  0  0  0  0  0  0  0  0  0  0
    4.6001   -0.3215   -0.7766 C   0  0  1  0  0  0  0  0  0  0  0  0
    3.5838   -1.0166   -1.6847 C   0  0  0  0  0  0  0  0  0  0  0  0
    3.7433   -2.3871   -1.5942 F   0  0  0  0  0  0  0  0  0  0  0  0
    4.4628    1.0881   -0.9274 O   0  0  0  0  0  0  0  0  0  0  0  0
    5.0619    1.7812   -1.9379 C   0  0  0  0  0  0  0  0  0  0  0  0
    5.9067    1.1863   -2.9174 C   0  0  0  0  0  0  0  0  0  0  0  0
    6.4813    1.9723   -3.8982 C   0  0  0  0  0  0  0  0  0  0  0  0
    6.2470    3.3670   -3.9556 C   0  0  0  0  0  0  0  0  0  0  0  0
    6.8049    4.2312   -4.9347 C   0  0  0  0  0  0  0  0  0  0  0  0
    6.5165    5.5730   -4.9069 C   0  0  0  0  0  0  0  0  0  0  0  0
    5.6505    6.0916   -3.8865 C   0  0  0  0  0  0  0  0  0  0  0  0
    5.3131    7.5345   -3.8181 C   0  0  0  0  0  0  0  0  0  0  0  0
    4.4890    8.0167   -2.7827 C   0  0  0  0  0  0  0  0  0  0  0  0
    4.1428    9.3560   -2.6760 C   0  0  0  0  0  0  0  0  0  0  0  0
    4.6120   10.3212   -3.6075 C   0  0  0  0  0  0  0  0  0  0  0  0
    4.3020   11.6666   -3.4864 N   0  0  0  0  0  0  0  0  0  0  0  0
    3.4446   12.1470   -2.4089 C   0  0  0  0  0  0  0  0  0  0  0  0
    1.9375   11.9937   -2.6484 C   0  0  0  0  0  0  0  0  0  0  0  0
    4.7691   12.6373   -4.4689 C   0  0  0  0  0  0  0  0  0  0  0  0
    3.9396   12.7231   -5.7561 C   0  0  0  0  0  0  0  0  0  0  0  0
    5.4288    9.8315   -4.6592 C   0  0  0  0  0  0  0  0  0  0  0  0
    5.7666    8.4849   -4.7503 C   0  0  0  0  0  0  0  0  0  0  0  0
    5.1230    5.2987   -2.9653 N   0  0  0  0  0  0  0  0  0  0  0  0
    5.3931    3.9682   -2.9705 C   0  0  0  0  0  0  0  0  0  0  0  0
    4.8139    3.1455   -1.9724 C   0  0  0  0  0  0  0  0  0  0  0  0
    5.2546   -0.3445    2.6710 H   0  0  0  0  0  0  0  0  0  0  0  0
    5.5048    1.0100    1.5422 H   0  0  0  0  0  0  0  0  0  0  0  0
    6.4574   -0.4841    1.3683 H   0  0  0  0  0  0  0  0  0  0  0  0
    3.3899   -0.2771    0.9897 H   0  0  0  0  0  0  0  0  0  0  0  0
    4.3434   -1.7545    0.7770 H   0  0  0  0  0  0  0  0  0  0  0  0
    5.6146   -0.6470   -1.0695 H   0  0  0  0  0  0  0  0  0  0  0  0
    3.7239   -0.7143   -2.7358 H   0  0  0  0  0  0  0  0  0  0  0  0
    2.5583   -0.7515   -1.3741 H   0  0  0  0  0  0  0  0  0  0  0  0
    6.1091    0.1155   -2.9072 H   0  0  0  0  0  0  0  0  0  0  0  0
    7.1295    1.5110   -4.6488 H   0  0  0  0  0  0  0  0  0  0  0  0
    7.4636    3.8184   -5.7046 H   0  0  0  0  0  0  0  0  0  0  0  0
    6.9486    6.2358   -5.6561 H   0  0  0  0  0  0  0  0  0  0  0  0
    4.1175    7.2975   -2.0515 H   0  0  0  0  0  0  0  0  0  0  0  0
    3.4947    9.6531   -1.8527 H   0  0  0  0  0  0  0  0  0  0  0  0
    3.6810   13.2115   -2.2519 H   0  0  0  0  0  0  0  0  0  0  0  0
    3.7250   11.6406   -1.4706 H   0  0  0  0  0  0  0  0  0  0  0  0
    1.6090   12.5740   -3.5245 H   0  0  0  0  0  0  0  0  0  0  0  0
    1.3730   12.3545   -1.7729 H   0  0  0  0  0  0  0  0  0  0  0  0
    1.6618   10.9420   -2.8201 H   0  0  0  0  0  0  0  0  0  0  0  0
    5.8216   12.4220   -4.7186 H   0  0  0  0  0  0  0  0  0  0  0  0
    4.7788   13.6228   -3.9768 H   0  0  0  0  0  0  0  0  0  0  0  0
    3.8981   11.7527   -6.2740 H   0  0  0  0  0  0  0  0  0  0  0  0
    4.3819   13.4591   -6.4476 H   0  0  0  0  0  0  0  0  0  0  0  0
    2.9050   13.0356   -5.5466 H   0  0  0  0  0  0  0  0  0  0  0  0
    5.8098   10.5063   -5.4240 H   0  0  0  0  0  0  0  0  0  0  0  0
    6.4002    8.1833   -5.5864 H   0  0  0  0  0  0  0  0  0  0  0  0
    4.1665    3.6008   -1.2224 H   0  0  0  0  0  0  0  0  0  0  0  0
  1  2  1  0
  1 28  1  0
  1 29  1  0
  1 30  1  0
  2  3  1  0
  2 31  1  0
  2 32  1  0
  3  4  1  0
  3  6  1  0
  3 33  1  6
  4  5  1  0
  4 34  1  0
  4 35  1  0
  6  7  1  0
  7  8  2  0
  7 27  1  0
  8  9  1  0
  8 36  1  0
  9 10  2  0
  9 37  1  0
 10 11  1  0
 10 26  1  0
 11 12  2  0
 11 38  1  0
 12 13  1  0
 12 39  1  0
 13 14  1  0
 13 25  2  0
 14 15  2  0
 14 24  1  0
 15 16  1  0
 15 40  1  0
 16 17  2  0
 16 41  1  0
 17 18  1  0
 17 23  1  0
 18 19  1  0
 18 21  1  0
 19 20  1  0
 19 42  1  0
 19 43  1  0
 20 44  1  0
 20 45  1  0
 20 46  1  0
 21 22  1  0
 21 47  1  0
 21 48  1  0
 22 49  1  0
 22 50  1  0
 22 51  1  0
 23 24  2  0
 23 52  1  0
 24 53  1  0
 25 26  1  0
 26 27  2  0
 27 54  1  0
M  END

