
     RDKit          3D

 48 52  0  0  0  0  0  0  0  0999 V2000
    2.5802   -2.1406    0.6202 O   0  0  0  0  0  0  0  0  0  0  0  0
    2.0900   -1.0575    0.3624 C   0  0  0  0  0  0  0  0  0  0  0  0
    0.5688   -0.9174    0.2881 C   0  0  0  0  0  0  0  0  0  0  0  0
    0.1979    0.4054   -0.0257 O   0  0  0  0  0  0  0  0  0  0  0  0
   -1.1234    0.7360   -0.1360 C   0  0  0  0  0  0  0  0  0  0  0  0
   -1.3768    2.1002   -0.4533 C   0  0  0  0  0  0  0  0  0  0  0  0
   -2.6686    2.5472   -0.5894 C   0  0  0  0  0  0  0  0  0  0  0  0
   -3.7777    1.6683   -0.4186 C   0  0  0  0  0  0  0  0  0  0  0  0
   -5.1237    2.1044   -0.5535 C   0  0  0  0  0  0  0  0  0  0  0  0
   -6.1733    1.2251   -0.3811 C   0  0  0  0  0  0  0  0  0  0  0  0
   -5.9167   -0.1322   -0.0654 C   0  0  0  0  0  0  0  0  0  0  0  0
   -4.6205   -0.5861    0.0723 C   0  0  0  0  0  0  0  0  0  0  0  0
   -3.5164    0.2949   -0.0991 C   0  0  0  0  0  0  0  0  0  0  0  0
   -2.1690   -0.1505    0.0381 C   0  0  0  0  0  0  0  0  0  0  0  0
    2.7734    0.1025    0.1208 N   0  0  0  0  0  0  0  0  0  0  0  0
    4.1550    0.3144    0.1149 C   0  0  0  0  0  0  0  0  0  0  0  0
    5.0911   -0.6946    0.3832 C   0  0  0  0  0  0  0  0  0  0  0  0
    6.4778   -0.4590    0.3841 C   0  0  0  0  0  0  0  0  0  0  0  0
    7.3830   -1.5859    0.6863 C   0  0  0  0  0  0  0  0  0  0  0  0
    8.4975   -1.5096    1.3381 N   0  0  0  0  0  0  0  0  0  0  0  0
    9.1037   -2.7387    1.4717 C   0  0  0  0  0  0  0  0  0  0  0  0
   10.3213   -2.9790    2.1342 C   0  0  0  0  0  0  0  0  0  0  0  0
   10.8145   -4.2778    2.1918 C   0  0  0  0  0  0  0  0  0  0  0  0
   10.1111   -5.3456    1.5991 C   0  0  0  0  0  0  0  0  0  0  0  0
    8.9020   -5.1329    0.9391 C   0  0  0  0  0  0  0  0  0  0  0  0
    8.4035   -3.8253    0.8793 C   0  0  0  0  0  0  0  0  0  0  0  0
    6.9428   -3.2295    0.1350 S   0  0  0  0  0  0  0  0  0  0  0  0
    6.9358    0.8446    0.0893 C   0  0  0  0  0  0  0  0  0  0  0  0
    8.6245    1.2573   -0.0097 Cl  0  0  0  0  0  0  0  0  0  0  0  0
    6.0187    1.8638   -0.1800 C   0  0  0  0  0  0  0  0  0  0  0  0
    4.6522    1.6057   -0.1641 C   0  0  0  0  0  0  0  0  0  0  0  0
    3.5396    2.9175   -0.5028 Cl  0  0  0  0  0  0  0  0  0  0  0  0
    0.1599   -1.2351    1.2646 H   0  0  0  0  0  0  0  0  0  0  0  0
    0.2080   -1.6339   -0.4721 H   0  0  0  0  0  0  0  0  0  0  0  0
   -0.5236    2.7691   -0.5828 H   0  0  0  0  0  0  0  0  0  0  0  0
   -2.8583    3.5960   -0.8330 H   0  0  0  0  0  0  0  0  0  0  0  0
   -5.3148    3.1532   -0.7973 H   0  0  0  0  0  0  0  0  0  0  0  0
   -7.2041    1.5719   -0.4873 H   0  0  0  0  0  0  0  0  0  0  0  0
   -6.7530   -0.8229    0.0698 H   0  0  0  0  0  0  0  0  0  0  0  0
   -4.4268   -1.6344    0.3160 H   0  0  0  0  0  0  0  0  0  0  0  0
   -1.9928   -1.1987    0.2814 H   0  0  0  0  0  0  0  0  0  0  0  0
    2.1929    0.9140   -0.0797 H   0  0  0  0  0  0  0  0  0  0  0  0
    4.7097   -1.6870    0.6170 H   0  0  0  0  0  0  0  0  0  0  0  0
   10.8523   -2.1402    2.5881 H   0  0  0  0  0  0  0  0  0  0  0  0
   11.7598   -4.4759    2.7029 H   0  0  0  0  0  0  0  0  0  0  0  0
   10.5185   -6.3579    1.6575 H   0  0  0  0  0  0  0  0  0  0  0  0
    8.3608   -5.9645    0.4830 H   0  0  0  0  0  0  0  0  0  0  0  0
    6.3778    2.8660   -0.4120 H   0  0  0  0  0  0  0  0  0  0  0  0
  1  2  2  0
  2  3  1  0
  2 15  1  0
  3  4  1  0
  3 33  1  0
  3 34  1  0
  4  5  1  0
  5  6  2  0
  5 14  1  0
  6  7  1  0
  6 35  1  0
  7  8  2  0
  7 36  1  0
  8  9  1  0
  8 13  1  0
  9 10  2  0
  9 37  1  0
 10 11  1  0
 10 38  1  0
 11 12  2  0
 11 39  1  0
 12 13  1  0
 12 40  1  0
 13 14  2  0
 14 41  1  0
 15 16  1  0
 15 42  1  0
 16 17  2  0
 16 31  1  0
 17 18  1  0
 17 43  1  0
 18 19  1  0
 18 28  2  0
 19 20  2  0
 19 27  1  0
 20 21  1  0
 21 22  2  0
 21 26  1  0
 22 23  1  0
 22 44  1  0
 23 24  2  0
 23 45  1  0
 24 25  1  0
 24 46  1  0
 25 26  2  0
 25 47  1  0
 26 27  1  0
 28 29  1  0
 28 30  1  0
 30 31  2  0
 30 48  1  0
 31 32  1  0
M  END

