
     RDKit          3D

 43 47  0  0  0  0  0  0  0  0999 V2000
    1.3581    3.2129    0.6071 C   0  0  0  0  0  0  0  0  0  0  0  0
    2.5748    2.5578    1.2288 C   0  0  1  0  0  0  0  0  0  0  0  0
    3.4415    2.1311    0.1738 O   0  0  0  0  0  0  0  0  0  0  0  0
    4.6589    1.6473    0.5568 C   0  0  0  0  0  0  0  0  0  0  0  0
    5.3084    0.6717   -0.1956 C   0  0  0  0  0  0  0  0  0  0  0  0
    6.5814    0.2154    0.1565 C   0  0  0  0  0  0  0  0  0  0  0  0
    7.2166    0.7382    1.2969 C   0  0  0  0  0  0  0  0  0  0  0  0
    8.4938    0.3298    1.7289 N   0  0  0  0  0  0  0  0  0  0  0  0
    9.3379   -0.6116    1.1795 C   0  0  0  0  0  0  0  0  0  0  0  0
    9.0752   -1.2606    0.1796 O   0  0  0  0  0  0  0  0  0  0  0  0
   10.6303   -0.7797    1.9287 C   0  0  2  0  0  0  0  0  0  0  0  0
   11.8497   -1.1170    1.0850 C   0  0  1  0  0  0  0  0  0  0  0  0
   13.2783   -0.9719    1.6594 C   0  0  1  0  0  0  0  0  0  0  0  0
   13.2695   -0.3281    3.0668 C   0  0  0  0  0  0  0  0  0  0  0  0
   12.6114   -1.4355    3.9557 C   0  0  0  0  0  0  0  0  0  0  0  0
   12.3280   -2.5710    2.9428 C   0  0  2  0  0  0  0  0  0  0  0  0
   13.5730   -2.4513    2.0242 C   0  0  0  0  0  0  0  0  0  0  0  0
   11.2169   -2.1819    1.9395 C   0  0  1  0  0  0  0  0  0  0  0  0
    6.5596    1.7201    2.0618 C   0  0  0  0  0  0  0  0  0  0  0  0
    5.2952    2.1811    1.6921 C   0  0  0  0  0  0  0  0  0  0  0  0
    4.6245    3.1940    2.3916 N   0  0  0  0  0  0  0  0  0  0  0  0
    3.2952    3.4906    2.2167 C   0  0  0  0  0  0  0  0  0  0  0  0
    2.7322    4.3751    2.8295 O   0  0  0  0  0  0  0  0  0  0  0  0
    0.8301    2.4930   -0.0342 H   0  0  0  0  0  0  0  0  0  0  0  0
    1.6613    4.0766   -0.0033 H   0  0  0  0  0  0  0  0  0  0  0  0
    0.6833    3.5659    1.3979 H   0  0  0  0  0  0  0  0  0  0  0  0
    2.2660    1.6661    1.8158 H   0  0  0  0  0  0  0  0  0  0  0  0
    4.8023    0.2759   -1.0786 H   0  0  0  0  0  0  0  0  0  0  0  0
    7.0878   -0.5436   -0.4338 H   0  0  0  0  0  0  0  0  0  0  0  0
    8.8361    0.7963    2.5597 H   0  0  0  0  0  0  0  0  0  0  0  0
   10.7512   -0.1460    2.8097 H   0  0  0  0  0  0  0  0  0  0  0  0
   11.7039   -1.1099    0.0016 H   0  0  0  0  0  0  0  0  0  0  0  0
   13.9759   -0.4927    0.9579 H   0  0  0  0  0  0  0  0  0  0  0  0
   12.7306    0.6314    3.0919 H   0  0  0  0  0  0  0  0  0  0  0  0
   14.3014   -0.1206    3.3896 H   0  0  0  0  0  0  0  0  0  0  0  0
   11.7045   -1.0954    4.4788 H   0  0  0  0  0  0  0  0  0  0  0  0
   13.3096   -1.7905    4.7293 H   0  0  0  0  0  0  0  0  0  0  0  0
   12.1584   -3.5509    3.4112 H   0  0  0  0  0  0  0  0  0  0  0  0
   13.5318   -3.1251    1.1543 H   0  0  0  0  0  0  0  0  0  0  0  0
   14.5321   -2.5998    2.5493 H   0  0  0  0  0  0  0  0  0  0  0  0
   10.6023   -2.9671    1.4911 H   0  0  0  0  0  0  0  0  0  0  0  0
    7.0405    2.1394    2.9509 H   0  0  0  0  0  0  0  0  0  0  0  0
    5.1158    3.7412    3.0922 H   0  0  0  0  0  0  0  0  0  0  0  0
  1  2  1  0
  1 24  1  0
  1 25  1  0
  1 26  1  0
  2  3  1  0
  2 22  1  0
  2 27  1  1
  3  4  1  0
  4  5  1  0
  4 20  2  0
  5  6  2  0
  5 28  1  0
  6  7  1  0
  6 29  1  0
  7  8  1  0
  7 19  2  0
  8  9  1  0
  8 30  1  0
  9 10  2  0
  9 11  1  0
 11 12  1  0
 11 18  1  0
 11 31  1  1
 12 13  1  0
 12 18  1  0
 12 32  1  6
 13 14  1  0
 13 17  1  0
 13 33  1  6
 14 15  1  0
 14 34  1  0
 14 35  1  0
 15 16  1  0
 15 36  1  0
 15 37  1  0
 16 17  1  0
 16 18  1  0
 16 38  1  1
 17 39  1  0
 17 40  1  0
 18 41  1  6
 19 20  1  0
 19 42  1  0
 20 21  1  0
 21 22  1  0
 21 43  1  0
 22 23  2  0
M  END

