
     RDKit          3D

 92 98  0  0  0  0  0  0  0  0999 V2000
    0.6403    0.1983    0.1340 C   0  0  0  0  0  0  0  0  0  0  0  0
    2.0286    0.4475    0.1110 O   0  0  0  0  0  0  0  0  0  0  0  0
    2.7934    0.0388    1.1561 C   0  0  0  0  0  0  0  0  0  0  0  0
    2.3009   -0.5819    2.3105 C   0  0  0  0  0  0  0  0  0  0  0  0
    3.1727   -0.9902    3.3268 C   0  0  0  0  0  0  0  0  0  0  0  0
    4.5555   -0.7877    3.2229 C   0  0  0  0  0  0  0  0  0  0  0  0
    5.4884   -1.2303    4.3029 C   0  0  0  0  0  0  0  0  0  0  0  0
    6.2485   -0.2631    5.0080 C   0  0  0  0  0  0  0  0  0  0  0  0
    7.1555   -0.5434    5.9862 N   0  0  0  0  0  0  0  0  0  0  0  0
    7.6364    0.6556    6.4083 C   0  0  0  0  0  0  0  0  0  0  0  0
    8.5879    0.8781    7.4140 C   0  0  0  0  0  0  0  0  0  0  0  0
    9.2562   -0.0371    8.2305 C   0  0  0  0  0  0  0  0  0  0  0  0
   10.1891    0.2920    9.2727 C   0  0  0  0  0  0  0  0  0  0  0  0
   10.5992   -0.8783    9.8649 C   0  0  0  0  0  0  0  0  0  0  0  0
    9.9351   -1.9641    9.1950 C   0  0  0  0  0  0  0  0  0  0  0  0
    9.1445   -1.4034    8.2223 N   0  0  0  0  0  0  0  0  0  0  0  0
    8.5509   -1.9809    7.6226 H   0  0  0  0  0  0  0  0  0  0  0  0
   10.0168   -3.3458    9.4642 C   0  0  0  0  0  0  0  0  0  0  0  0
   10.9479   -3.7900   10.5459 C   0  0  0  0  0  0  0  0  0  0  0  0
   10.4667   -4.4021   11.7100 C   0  0  0  0  0  0  0  0  0  0  0  0
   11.3395   -4.8198   12.7229 C   0  0  0  0  0  0  0  0  0  0  0  0
   12.7162   -4.6302   12.5875 C   0  0  0  0  0  0  0  0  0  0  0  0
   13.6559   -5.0278   13.4934 O   0  0  0  0  0  0  0  0  0  0  0  0
   13.2444   -5.7275   14.6536 C   0  0  0  0  0  0  0  0  0  0  0  0
   13.2176   -3.9942   11.4256 C   0  0  0  0  0  0  0  0  0  0  0  0
   14.5654   -3.8005   11.3854 O   0  0  0  0  0  0  0  0  0  0  0  0
   15.2853   -4.0450   10.1785 C   0  0  0  0  0  0  0  0  0  0  0  0
   16.7697   -3.8702   10.4811 C   0  0  0  0  0  0  0  0  0  0  0  0
   17.2422   -4.5828   11.7637 C   0  0  0  0  0  0  0  0  0  0  0  0
   16.9643   -6.0825   11.7373 C   0  0  0  0  0  0  0  0  0  0  0  0
   17.7274   -6.8837   11.2632 O   0  0  0  0  0  0  0  0  0  0  0  0
   15.7787   -6.4755   12.2407 O   0  0  0  0  0  0  0  0  0  0  0  0
   12.3382   -3.5925   10.4220 C   0  0  0  0  0  0  0  0  0  0  0  0
    9.2564   -4.3133    8.7612 C   0  0  0  0  0  0  0  0  0  0  0  0
    8.3503   -4.0323    7.7823 N   0  0  0  0  0  0  0  0  0  0  0  0
    7.8691   -5.2313    7.3602 C   0  0  0  0  0  0  0  0  0  0  0  0
    6.9195   -5.4538    6.3529 C   0  0  0  0  0  0  0  0  0  0  0  0
    6.2522   -4.5383    5.5355 C   0  0  0  0  0  0  0  0  0  0  0  0
    5.3228   -4.8681    4.4901 C   0  0  0  0  0  0  0  0  0  0  0  0
    4.9131   -3.6981    3.8977 C   0  0  0  0  0  0  0  0  0  0  0  0
    5.5732   -2.6118    4.5709 C   0  0  0  0  0  0  0  0  0  0  0  0
    6.3620   -3.1724    5.5456 N   0  0  0  0  0  0  0  0  0  0  0  0
    6.9548   -2.5952    6.1461 H   0  0  0  0  0  0  0  0  0  0  0  0
    8.4914   -6.3296    8.0953 C   0  0  0  0  0  0  0  0  0  0  0  0
    9.3627   -5.7592    8.9681 C   0  0  0  0  0  0  0  0  0  0  0  0
    7.0121    1.7536    5.6750 C   0  0  0  0  0  0  0  0  0  0  0  0
    6.1401    1.1825    4.8030 C   0  0  0  0  0  0  0  0  0  0  0  0
    5.0410   -0.1537    2.0629 C   0  0  0  0  0  0  0  0  0  0  0  0
    4.1895    0.2578    1.0394 C   0  0  0  0  0  0  0  0  0  0  0  0
    4.7294    0.7974   -0.0933 O   0  0  0  0  0  0  0  0  0  0  0  0
    4.4690    2.1721   -0.3612 C   0  0  0  0  0  0  0  0  0  0  0  0
    5.1462    2.5266   -1.6747 C   0  0  0  0  0  0  0  0  0  0  0  0
    4.9550    3.9926   -2.0506 C   0  0  0  0  0  0  0  0  0  0  0  0
    5.5978    4.3615   -3.3831 C   0  0  0  0  0  0  0  0  0  0  0  0
    6.1763    3.5932   -4.0983 O   0  0  0  0  0  0  0  0  0  0  0  0
    5.4723    5.6644   -3.7369 O   0  0  0  0  0  0  0  0  0  0  0  0
    0.2381    0.5818   -0.8132 H   0  0  0  0  0  0  0  0  0  0  0  0
    0.1415    0.7184    0.9717 H   0  0  0  0  0  0  0  0  0  0  0  0
    0.4207   -0.8819    0.2049 H   0  0  0  0  0  0  0  0  0  0  0  0
    1.2312   -0.7562    2.4286 H   0  0  0  0  0  0  0  0  0  0  0  0
    2.7625   -1.4648    4.2209 H   0  0  0  0  0  0  0  0  0  0  0  0
    8.8410    1.9240    7.6038 H   0  0  0  0  0  0  0  0  0  0  0  0
   10.4868    1.3068    9.5310 H   0  0  0  0  0  0  0  0  0  0  0  0
   11.2874   -0.9918   10.6981 H   0  0  0  0  0  0  0  0  0  0  0  0
    9.3927   -4.5533   11.8344 H   0  0  0  0  0  0  0  0  0  0  0  0
   10.9319   -5.2996   13.6128 H   0  0  0  0  0  0  0  0  0  0  0  0
   14.1597   -5.9782   15.2051 H   0  0  0  0  0  0  0  0  0  0  0  0
   12.7116   -6.6595   14.3977 H   0  0  0  0  0  0  0  0  0  0  0  0
   12.5969   -5.1010   15.2908 H   0  0  0  0  0  0  0  0  0  0  0  0
   14.9806   -3.3426    9.3831 H   0  0  0  0  0  0  0  0  0  0  0  0
   15.0617   -5.0689    9.8272 H   0  0  0  0  0  0  0  0  0  0  0  0
   16.9983   -2.7962   10.5792 H   0  0  0  0  0  0  0  0  0  0  0  0
   17.3403   -4.2435    9.6149 H   0  0  0  0  0  0  0  0  0  0  0  0
   16.7602   -4.1155   12.6355 H   0  0  0  0  0  0  0  0  0  0  0  0
   18.3301   -4.4589   11.8600 H   0  0  0  0  0  0  0  0  0  0  0  0
   15.2438   -5.7280   12.5742 H   0  0  0  0  0  0  0  0  0  0  0  0
   12.7328   -3.1187    9.5222 H   0  0  0  0  0  0  0  0  0  0  0  0
    6.6677   -6.4998    6.1620 H   0  0  0  0  0  0  0  0  0  0  0  0
    5.0283   -5.8832    4.2295 H   0  0  0  0  0  0  0  0  0  0  0  0
    4.2282   -3.5833    3.0621 H   0  0  0  0  0  0  0  0  0  0  0  0
    8.2863   -7.3889    7.9426 H   0  0  0  0  0  0  0  0  0  0  0  0
   10.0251   -6.2556    9.6731 H   0  0  0  0  0  0  0  0  0  0  0  0
    7.2173    2.8129    5.8278 H   0  0  0  0  0  0  0  0  0  0  0  0
    5.4760    1.6773    4.0987 H   0  0  0  0  0  0  0  0  0  0  0  0
    6.1112    0.0113    1.9254 H   0  0  0  0  0  0  0  0  0  0  0  0
    4.8685    2.7914    0.4667 H   0  0  0  0  0  0  0  0  0  0  0  0
    3.3817    2.3519   -0.4214 H   0  0  0  0  0  0  0  0  0  0  0  0
    4.7450    1.8831   -2.4729 H   0  0  0  0  0  0  0  0  0  0  0  0
    6.2207    2.2956   -1.6071 H   0  0  0  0  0  0  0  0  0  0  0  0
    5.3744    4.6584   -1.2727 H   0  0  0  0  0  0  0  0  0  0  0  0
    3.8797    4.2463   -2.1131 H   0  0  0  0  0  0  0  0  0  0  0  0
    4.9857    6.1559   -3.0601 H   0  0  0  0  0  0  0  0  0  0  0  0
  1  2  1  0
  1 57  1  0
  1 58  1  0
  1 59  1  0
  2  3  1  0
  3  4  2  0
  3 49  1  0
  4  5  1  0
  4 60  1  0
  5  6  2  0
  5 61  1  0
  6  7  1  0
  6 48  1  0
  7  8  1  0
  7 41  2  0
  8  9  2  0
  8 47  1  0
  9 10  1  0
 10 11  2  0
 10 46  1  0
 11 12  1  0
 11 62  1  0
 12 13  2  0
 12 16  1  0
 13 14  1  0
 13 63  1  0
 14 15  2  0
 14 64  1  0
 15 16  1  0
 15 18  1  0
 16 17  1  0
 18 19  1  0
 18 34  2  0
 19 20  2  0
 19 33  1  0
 20 21  1  0
 20 65  1  0
 21 22  2  0
 21 66  1  0
 22 23  1  0
 22 25  1  0
 23 24  1  0
 24 67  1  0
 24 68  1  0
 24 69  1  0
 25 26  1  0
 25 33  2  0
 26 27  1  0
 27 28  1  0
 27 70  1  0
 27 71  1  0
 28 29  1  0
 28 72  1  0
 28 73  1  0
 29 30  1  0
 29 74  1  0
 29 75  1  0
 30 31  2  0
 30 32  1  0
 32 76  1  0
 33 77  1  0
 34 35  1  0
 34 45  1  0
 35 36  2  0
 36 37  1  0
 36 44  1  0
 37 38  2  0
 37 78  1  0
 38 39  1  0
 38 42  1  0
 39 40  2  0
 39 79  1  0
 40 41  1  0
 40 80  1  0
 41 42  1  0
 42 43  1  0
 44 45  2  0
 44 81  1  0
 45 82  1  0
 46 47  2  0
 46 83  1  0
 47 84  1  0
 48 49  2  0
 48 85  1  0
 49 50  1  0
 50 51  1  0
 51 52  1  0
 51 86  1  0
 51 87  1  0
 52 53  1  0
 52 88  1  0
 52 89  1  0
 53 54  1  0
 53 90  1  0
 53 91  1  0
 54 55  2  0
 54 56  1  0
 56 92  1  0
M  END

