
     RDKit          3D

  8  7  0  0  0  0  0  0  0  0999 V2000
    1.1078    0.0330    0.0401 C   0  0  0  0  0  0  0  0  0  0  0  0
    2.6257    0.0101    0.0898 C   0  0  0  0  0  0  0  0  0  0  0  0
    3.2704   -0.4137    1.0072 O   0  0  0  0  0  0  0  0  0  0  0  0
    3.2470    0.5154   -1.0043 O   0  0  0  0  0  0  0  0  0  0  0  0
    0.7066   -0.3950    0.9667 H   0  0  0  0  0  0  0  0  0  0  0  0
    0.7383   -0.5530   -0.8182 H   0  0  0  0  0  0  0  0  0  0  0  0
    0.7383    1.0665   -0.0702 H   0  0  0  0  0  0  0  0  0  0  0  0
    2.6006    0.8171   -1.6577 H   0  0  0  0  0  0  0  0  0  0  0  0
  1  2  1  0
  1  5  1  0
  1  6  1  0
  1  7  1  0
  2  3  2  0
  2  4  1  0
  4  8  1  0
M  END

