
     RDKit          3D

 37 37  0  0  0  0  0  0  0  0999 V2000
    1.3588    0.8627   -2.1608 C   0  0  0  0  0  0  0  0  0  0  0  0
    2.5261    0.9364   -1.3004 N   0  0  0  0  0  0  0  0  0  0  0  0
    2.4507    1.9198   -0.2331 C   0  0  0  0  0  0  0  0  0  0  0  0
    3.3482   -0.1799   -1.2463 C   0  0  0  0  0  0  0  0  0  0  0  0
    3.0259   -1.2507   -1.7440 O   0  0  0  0  0  0  0  0  0  0  0  0
    4.5654   -0.0069   -0.5777 N   0  0  0  0  0  0  0  0  0  0  0  0
    5.3221   -1.2242   -0.2776 C   0  0  0  0  0  0  0  0  0  0  0  0
    6.3305   -1.5507   -1.3837 C   0  0  0  0  0  0  0  0  0  0  0  0
    7.1944   -0.3964   -1.6870 N   0  0  0  0  0  0  0  0  0  0  0  0
    8.6251   -0.2761   -0.8106 S   0  0  1  0  0  0  0  0  0  0  0  0
    9.1781    1.0480   -1.1091 O   0  0  0  0  0  0  0  0  0  0  0  0
    8.4513   -0.6916    0.5853 O   0  0  0  0  0  0  0  0  0  0  0  0
    9.5137   -1.5057   -1.5529 N   0  0  0  0  0  0  0  0  0  0  0  0
    9.9485   -1.2067   -2.9139 C   0  0  0  0  0  0  0  0  0  0  0  0
   10.5077   -2.1714   -0.7121 C   0  0  0  0  0  0  0  0  0  0  0  0
    6.4493    0.8423   -1.9436 C   0  0  0  0  0  0  0  0  0  0  0  0
    5.4282    1.1489   -0.8377 C   0  0  0  0  0  0  0  0  0  0  0  0
    1.1406    1.8597   -2.5787 H   0  0  0  0  0  0  0  0  0  0  0  0
    0.4615    0.5149   -1.6134 H   0  0  0  0  0  0  0  0  0  0  0  0
    1.5478    0.1567   -2.9778 H   0  0  0  0  0  0  0  0  0  0  0  0
    1.4491    1.8956    0.2356 H   0  0  0  0  0  0  0  0  0  0  0  0
    2.6198    2.9486   -0.6008 H   0  0  0  0  0  0  0  0  0  0  0  0
    3.1886    1.6970    0.5466 H   0  0  0  0  0  0  0  0  0  0  0  0
    4.6151   -2.0547   -0.1611 H   0  0  0  0  0  0  0  0  0  0  0  0
    5.8644   -1.0723    0.6697 H   0  0  0  0  0  0  0  0  0  0  0  0
    5.7891   -1.8116   -2.3078 H   0  0  0  0  0  0  0  0  0  0  0  0
    6.9633   -2.4061   -1.1099 H   0  0  0  0  0  0  0  0  0  0  0  0
    9.1124   -0.7790   -3.4828 H   0  0  0  0  0  0  0  0  0  0  0  0
   10.2474   -2.1489   -3.3990 H   0  0  0  0  0  0  0  0  0  0  0  0
   10.7999   -0.5017   -2.9435 H   0  0  0  0  0  0  0  0  0  0  0  0
   10.0829   -2.3620    0.2800 H   0  0  0  0  0  0  0  0  0  0  0  0
   11.4368   -1.5801   -0.5981 H   0  0  0  0  0  0  0  0  0  0  0  0
   10.7639   -3.1347   -1.1804 H   0  0  0  0  0  0  0  0  0  0  0  0
    5.9224    0.7079   -2.9048 H   0  0  0  0  0  0  0  0  0  0  0  0
    7.1637    1.6677   -2.0580 H   0  0  0  0  0  0  0  0  0  0  0  0
    4.8246    2.0138   -1.1387 H   0  0  0  0  0  0  0  0  0  0  0  0
    5.9629    1.4181    0.0907 H   0  0  0  0  0  0  0  0  0  0  0  0
  1  2  1  0
  1 18  1  0
  1 19  1  0
  1 20  1  0
  2  3  1  0
  2  4  1  0
  3 21  1  0
  3 22  1  0
  3 23  1  0
  4  5  2  0
  4  6  1  0
  6  7  1  0
  6 17  1  0
  7  8  1  0
  7 24  1  0
  7 25  1  0
  8  9  1  0
  8 26  1  0
  8 27  1  0
  9 10  1  0
  9 16  1  0
 10 11  2  0
 10 12  2  0
 10 13  1  6
 13 14  1  0
 13 15  1  0
 14 28  1  0
 14 29  1  0
 14 30  1  0
 15 31  1  0
 15 32  1  0
 15 33  1  0
 16 17  1  0
 16 34  1  0
 16 35  1  0
 17 36  1  0
 17 37  1  0
M  END

