
     RDKit          3D

 57 59  0  0  0  0  0  0  0  0999 V2000
    3.2160   -2.8693    5.1540 C   0  0  0  0  0  0  0  0  0  0  0  0
    2.7940   -1.9932    3.9741 C   0  0  0  0  0  0  0  0  0  0  0  0
    3.7995   -0.9075    3.6075 C   0  0  0  0  0  0  0  0  0  0  0  0
    5.0758   -1.4521    3.2170 O   0  0  0  0  0  0  0  0  0  0  0  0
    5.2727   -1.7202    1.9070 C   0  0  0  0  0  0  0  0  0  0  0  0
    4.4232   -1.5604    1.0635 O   0  0  0  0  0  0  0  0  0  0  0  0
    6.6873   -2.1814    1.6305 C   0  0  0  0  0  0  0  0  0  0  0  0
    7.2768   -3.1645    2.6531 C   0  0  1  0  0  0  0  0  0  0  0  0
    6.6218   -4.5612    2.6583 C   0  0  0  0  0  0  0  0  0  0  0  0
    6.8185   -5.4704    1.0750 P   0  0  2  0  0  0  0  0  0  0  0  0
    8.1172   -5.1921    0.3986 O   0  0  0  0  0  0  0  0  0  0  0  0
    5.5103   -4.9955    0.1758 O   0  0  0  0  0  0  0  0  0  0  0  0
    4.2317   -5.4191    0.4477 C   0  0  0  0  0  0  0  0  0  0  0  0
    3.1984   -4.5326    0.1249 C   0  0  0  0  0  0  0  0  0  0  0  0
    1.8743   -4.8949    0.3633 C   0  0  0  0  0  0  0  0  0  0  0  0
    1.5822   -6.1397    0.9342 C   0  0  0  0  0  0  0  0  0  0  0  0
    2.6170   -7.0165    1.2487 C   0  0  0  0  0  0  0  0  0  0  0  0
    3.9681   -6.6929    1.0062 C   0  0  0  0  0  0  0  0  0  0  0  0
    5.0694   -7.6488    1.2794 C   0  0  0  0  0  0  0  0  0  0  0  0
    4.8314   -9.0269    1.4525 C   0  0  0  0  0  0  0  0  0  0  0  0
    5.8774   -9.9199    1.6816 C   0  0  0  0  0  0  0  0  0  0  0  0
    7.2020   -9.4715    1.7253 C   0  0  0  0  0  0  0  0  0  0  0  0
    7.4669   -8.1152    1.5406 C   0  0  0  0  0  0  0  0  0  0  0  0
    6.4157   -7.2112    1.3342 C   0  0  0  0  0  0  0  0  0  0  0  0
    8.8016   -3.2096    2.5137 C   0  0  0  0  0  0  0  0  0  0  0  0
    9.4588   -2.3489    1.9836 O   0  0  0  0  0  0  0  0  0  0  0  0
    9.3260   -4.2816    3.1311 O   0  0  0  0  0  0  0  0  0  0  0  0
   10.7494   -4.4680    3.0352 C   0  0  0  0  0  0  0  0  0  0  0  0
   11.5025   -3.7144    4.1249 C   0  0  0  0  0  0  0  0  0  0  0  0
   13.0061   -3.9912    4.0801 C   0  0  0  0  0  0  0  0  0  0  0  0
    2.4545   -3.6340    5.3732 H   0  0  0  0  0  0  0  0  0  0  0  0
    3.3615   -2.2698    6.0685 H   0  0  0  0  0  0  0  0  0  0  0  0
    4.1637   -3.3909    4.9475 H   0  0  0  0  0  0  0  0  0  0  0  0
    1.8404   -1.4856    4.2051 H   0  0  0  0  0  0  0  0  0  0  0  0
    2.6016   -2.6113    3.0813 H   0  0  0  0  0  0  0  0  0  0  0  0
    4.0220   -0.2673    4.4751 H   0  0  0  0  0  0  0  0  0  0  0  0
    3.4151   -0.2864    2.7860 H   0  0  0  0  0  0  0  0  0  0  0  0
    7.3253   -1.2825    1.6254 H   0  0  0  0  0  0  0  0  0  0  0  0
    6.7154   -2.5887    0.6112 H   0  0  0  0  0  0  0  0  0  0  0  0
    7.1071   -2.7374    3.6574 H   0  0  0  0  0  0  0  0  0  0  0  0
    5.5488   -4.4904    2.9005 H   0  0  0  0  0  0  0  0  0  0  0  0
    7.0906   -5.1831    3.4346 H   0  0  0  0  0  0  0  0  0  0  0  0
    3.4657   -3.5566   -0.2828 H   0  0  0  0  0  0  0  0  0  0  0  0
    1.0704   -4.1974    0.1155 H   0  0  0  0  0  0  0  0  0  0  0  0
    0.5478   -6.4244    1.1395 H   0  0  0  0  0  0  0  0  0  0  0  0
    2.3734   -7.9759    1.7078 H   0  0  0  0  0  0  0  0  0  0  0  0
    3.8147   -9.4156    1.3816 H   0  0  0  0  0  0  0  0  0  0  0  0
    5.6562  -10.9827    1.8097 H   0  0  0  0  0  0  0  0  0  0  0  0
    8.0205  -10.1767    1.8875 H   0  0  0  0  0  0  0  0  0  0  0  0
    8.4941   -7.7424    1.5387 H   0  0  0  0  0  0  0  0  0  0  0  0
   11.0800   -4.1517    2.0348 H   0  0  0  0  0  0  0  0  0  0  0  0
   10.8987   -5.5541    3.1322 H   0  0  0  0  0  0  0  0  0  0  0  0
   11.0900   -4.0038    5.1071 H   0  0  0  0  0  0  0  0  0  0  0  0
   11.3141   -2.6359    4.0009 H   0  0  0  0  0  0  0  0  0  0  0  0
   13.2261   -5.0634    4.2177 H   0  0  0  0  0  0  0  0  0  0  0  0
   13.5342   -3.4405    4.8737 H   0  0  0  0  0  0  0  0  0  0  0  0
   13.4432   -3.6835    3.1159 H   0  0  0  0  0  0  0  0  0  0  0  0
  1  2  1  0
  1 31  1  0
  1 32  1  0
  1 33  1  0
  2  3  1  0
  2 34  1  0
  2 35  1  0
  3  4  1  0
  3 36  1  0
  3 37  1  0
  4  5  1  0
  5  6  2  0
  5  7  1  0
  7  8  1  0
  7 38  1  0
  7 39  1  0
  8  9  1  0
  8 25  1  0
  8 40  1  1
 10  9  1  1
  9 41  1  0
  9 42  1  0
 10 11  2  0
 10 12  1  0
 10 24  1  0
 12 13  1  0
 13 14  1  0
 13 18  2  0
 14 15  2  0
 14 43  1  0
 15 16  1  0
 15 44  1  0
 16 17  2  0
 16 45  1  0
 17 18  1  0
 17 46  1  0
 18 19  1  0
 19 20  1  0
 19 24  2  0
 20 21  2  0
 20 47  1  0
 21 22  1  0
 21 48  1  0
 22 23  2  0
 22 49  1  0
 23 24  1  0
 23 50  1  0
 25 26  2  0
 25 27  1  0
 27 28  1  0
 28 29  1  0
 28 51  1  0
 28 52  1  0
 29 30  1  0
 29 53  1  0
 29 54  1  0
 30 55  1  0
 30 56  1  0
 30 57  1  0
M  END

