
     RDKit          3D

 51 51  0  0  0  0  0  0  0  0999 V2000
    4.7870   -6.7404    1.4605 C   0  0  0  0  0  0  0  0  0  0  0  0
    4.0965   -5.3853    1.5985 C   0  0  0  0  0  0  0  0  0  0  0  0
    4.8046   -4.2822    0.9480 N   0  0  0  0  0  0  0  0  0  0  0  0
    4.9592   -4.4042   -0.5038 C   0  0  0  0  0  0  0  0  0  0  0  0
    3.6744   -4.3712   -1.3446 C   0  0  0  0  0  0  0  0  0  0  0  0
    4.3435   -2.9659    1.3906 C   0  0  0  0  0  0  0  0  0  0  0  0
    4.9104   -2.5779    2.7597 C   0  0  0  0  0  0  0  0  0  0  0  0
    6.3505   -2.7112    2.7502 N   0  0  0  0  0  0  0  0  0  0  0  0
    7.1710   -1.9474    3.5245 C   0  0  0  0  0  0  0  0  0  0  0  0
    6.7422   -1.0925    4.2888 O   0  0  0  0  0  0  0  0  0  0  0  0
    8.6522   -2.2131    3.3965 C   0  0  0  0  0  0  0  0  0  0  0  0
    9.2323   -2.9496    2.3516 C   0  0  0  0  0  0  0  0  0  0  0  0
   10.6132   -3.1455    2.3015 C   0  0  0  0  0  0  0  0  0  0  0  0
   11.4407   -2.6112    3.2988 C   0  0  0  0  0  0  0  0  0  0  0  0
   12.8613   -2.8323    3.2593 N   0  0  0  0  0  0  0  0  0  0  0  0
   13.5940   -1.9980    2.4168 C   0  0  0  0  0  0  0  0  0  0  0  0
   15.0664   -2.3218    2.2209 C   0  0  0  0  0  0  0  0  0  0  0  0
   13.0725   -1.0473    1.8668 O   0  0  0  0  0  0  0  0  0  0  0  0
   13.3966   -4.1017    3.7724 C   0  0  1  0  0  0  0  0  0  0  0  0
   12.7645   -4.4856    5.1156 C   0  0  0  0  0  0  0  0  0  0  0  0
   13.3140   -5.1491    2.7506 N   0  0  0  0  0  0  0  0  0  0  0  0
   10.8685   -1.8528    4.3276 C   0  0  0  0  0  0  0  0  0  0  0  0
    9.4897   -1.6556    4.3741 C   0  0  0  0  0  0  0  0  0  0  0  0
    4.2652   -7.4933    2.0720 H   0  0  0  0  0  0  0  0  0  0  0  0
    5.8326   -6.6836    1.8032 H   0  0  0  0  0  0  0  0  0  0  0  0
    4.7895   -7.1099    0.4233 H   0  0  0  0  0  0  0  0  0  0  0  0
    4.0243   -5.1425    2.6702 H   0  0  0  0  0  0  0  0  0  0  0  0
    3.0452   -5.4672    1.2420 H   0  0  0  0  0  0  0  0  0  0  0  0
    5.5071   -5.3365   -0.7160 H   0  0  0  0  0  0  0  0  0  0  0  0
    5.6256   -3.5879   -0.8304 H   0  0  0  0  0  0  0  0  0  0  0  0
    3.0005   -5.2101   -1.1081 H   0  0  0  0  0  0  0  0  0  0  0  0
    3.9223   -4.4414   -2.4160 H   0  0  0  0  0  0  0  0  0  0  0  0
    3.1114   -3.4356   -1.1961 H   0  0  0  0  0  0  0  0  0  0  0  0
    3.2357   -2.8878    1.4271 H   0  0  0  0  0  0  0  0  0  0  0  0
    4.6903   -2.2218    0.6560 H   0  0  0  0  0  0  0  0  0  0  0  0
    4.4606   -3.1955    3.5611 H   0  0  0  0  0  0  0  0  0  0  0  0
    4.6557   -1.5356    3.0011 H   0  0  0  0  0  0  0  0  0  0  0  0
    6.7031   -3.4940    2.2101 H   0  0  0  0  0  0  0  0  0  0  0  0
    8.6175   -3.3529    1.5432 H   0  0  0  0  0  0  0  0  0  0  0  0
   11.0652   -3.6949    1.4731 H   0  0  0  0  0  0  0  0  0  0  0  0
   15.6284   -2.2731    3.1675 H   0  0  0  0  0  0  0  0  0  0  0  0
   15.4749   -1.5771    1.5273 H   0  0  0  0  0  0  0  0  0  0  0  0
   15.1894   -3.3306    1.7987 H   0  0  0  0  0  0  0  0  0  0  0  0
   14.4671   -3.9358    3.9549 H   0  0  0  0  0  0  0  0  0  0  0  0
   11.6904   -4.7026    5.0116 H   0  0  0  0  0  0  0  0  0  0  0  0
   12.8799   -3.6849    5.8626 H   0  0  0  0  0  0  0  0  0  0  0  0
   13.2580   -5.3905    5.5037 H   0  0  0  0  0  0  0  0  0  0  0  0
   12.3556   -5.4964    2.6775 H   0  0  0  0  0  0  0  0  0  0  0  0
   13.8866   -5.9495    3.0223 H   0  0  0  0  0  0  0  0  0  0  0  0
   11.5179   -1.4119    5.0867 H   0  0  0  0  0  0  0  0  0  0  0  0
    9.0281   -1.0596    5.1634 H   0  0  0  0  0  0  0  0  0  0  0  0
  1  2  1  0
  1 24  1  0
  1 25  1  0
  1 26  1  0
  2  3  1  0
  2 27  1  0
  2 28  1  0
  3  4  1  0
  3  6  1  0
  4  5  1  0
  4 29  1  0
  4 30  1  0
  5 31  1  0
  5 32  1  0
  5 33  1  0
  6  7  1  0
  6 34  1  0
  6 35  1  0
  7  8  1  0
  7 36  1  0
  7 37  1  0
  8  9  1  0
  8 38  1  0
  9 10  2  0
  9 11  1  0
 11 12  2  0
 11 23  1  0
 12 13  1  0
 12 39  1  0
 13 14  2  0
 13 40  1  0
 14 15  1  0
 14 22  1  0
 15 16  1  0
 15 19  1  0
 16 17  1  0
 16 18  2  0
 17 41  1  0
 17 42  1  0
 17 43  1  0
 19 20  1  0
 19 21  1  0
 19 44  1  1
 20 45  1  0
 20 46  1  0
 20 47  1  0
 21 48  1  0
 21 49  1  0
 22 23  2  0
 22 50  1  0
 23 51  1  0
M  END

