
     RDKit          3D

 57 61  0  0  0  0  0  0  0  0999 V2000
    1.0879    0.2914   -1.0128 C   0  0  0  0  0  0  0  0  0  0  0  0
    2.4844    0.0837   -0.5067 C   0  0  0  0  0  0  0  0  0  0  0  0
    3.5374    1.4693   -0.2929 S   0  0  0  0  0  0  0  0  0  0  0  0
    4.8261    0.3717    0.2068 C   0  0  0  0  0  0  0  0  0  0  0  0
    6.0683    0.8952    0.5494 N   0  0  0  0  0  0  0  0  0  0  0  0
    7.2863    0.2147    0.6057 C   0  0  0  0  0  0  0  0  0  0  0  0
    7.4163   -0.9520    0.3167 O   0  0  0  0  0  0  0  0  0  0  0  0
    8.4334    1.0837    1.1248 C   0  0  1  0  0  0  0  0  0  0  0  0
    8.6131    0.9362    2.6586 C   0  0  0  0  0  0  0  0  0  0  0  0
   10.0606    1.3854    2.8847 C   0  0  0  0  0  0  0  0  0  0  0  0
   10.8223    0.7358    1.7148 C   0  0  0  0  0  0  0  0  0  0  0  0
    9.8141    0.6957    0.5338 C   0  0  0  0  0  0  0  0  0  0  0  0
    4.4926   -0.8720    0.2076 N   0  0  0  0  0  0  0  0  0  0  0  0
    3.1806   -1.0683   -0.1855 C   0  0  0  0  0  0  0  0  0  0  0  0
    2.7029   -2.4670   -0.2464 C   0  0  0  0  0  0  0  0  0  0  0  0
    1.3469   -2.8304   -0.1517 C   0  0  0  0  0  0  0  0  0  0  0  0
    0.9257   -4.1644   -0.2112 C   0  0  0  0  0  0  0  0  0  0  0  0
    1.8960   -5.1594   -0.3514 C   0  0  0  0  0  0  0  0  0  0  0  0
    3.2582   -4.8197   -0.4529 C   0  0  0  0  0  0  0  0  0  0  0  0
    3.6622   -3.4957   -0.3931 C   0  0  0  0  0  0  0  0  0  0  0  0
    4.0755   -6.0690   -0.6939 C   0  0  0  0  0  0  0  0  0  0  0  0
    3.0856   -7.2128   -0.3842 C   0  0  0  0  0  0  0  0  0  0  0  0
    1.7517   -6.5648   -0.4473 N   0  0  0  0  0  0  0  0  0  0  0  0
    0.4007   -7.4545    0.0351 S   0  0  1  0  0  0  0  0  0  0  0  0
   -0.7795   -6.6628   -0.3053 O   0  0  0  0  0  0  0  0  0  0  0  0
    0.6196   -8.7978   -0.4980 O   0  0  0  0  0  0  0  0  0  0  0  0
    0.4976   -7.5679    1.8284 C   0  0  0  0  0  0  0  0  0  0  0  0
   -0.0193   -6.5330    2.6168 C   0  0  0  0  0  0  0  0  0  0  0  0
    0.0871   -6.6235    4.0064 C   0  0  0  0  0  0  0  0  0  0  0  0
    0.6946   -7.7380    4.5955 C   0  0  0  0  0  0  0  0  0  0  0  0
    1.1937   -8.7721    3.7972 C   0  0  0  0  0  0  0  0  0  0  0  0
    1.0960   -8.6940    2.4052 C   0  0  0  0  0  0  0  0  0  0  0  0
    1.0080    1.2249   -1.5903 H   0  0  0  0  0  0  0  0  0  0  0  0
    0.3470    0.3493   -0.1959 H   0  0  0  0  0  0  0  0  0  0  0  0
    0.7896   -0.5359   -1.6741 H   0  0  0  0  0  0  0  0  0  0  0  0
    6.0984    1.8908    0.7335 H   0  0  0  0  0  0  0  0  0  0  0  0
    8.2194    2.1446    0.9047 H   0  0  0  0  0  0  0  0  0  0  0  0
    8.4995   -0.1267    2.9328 H   0  0  0  0  0  0  0  0  0  0  0  0
    7.8705    1.5096    3.2358 H   0  0  0  0  0  0  0  0  0  0  0  0
   10.4524    1.0970    3.8729 H   0  0  0  0  0  0  0  0  0  0  0  0
   10.1212    2.4862    2.8193 H   0  0  0  0  0  0  0  0  0  0  0  0
   11.1174   -0.2895    1.9910 H   0  0  0  0  0  0  0  0  0  0  0  0
   11.7487    1.2749    1.4640 H   0  0  0  0  0  0  0  0  0  0  0  0
    9.7504   -0.3108    0.0969 H   0  0  0  0  0  0  0  0  0  0  0  0
   10.0967    1.3867   -0.2753 H   0  0  0  0  0  0  0  0  0  0  0  0
    0.5864   -2.0650    0.0009 H   0  0  0  0  0  0  0  0  0  0  0  0
   -0.1313   -4.4195   -0.1584 H   0  0  0  0  0  0  0  0  0  0  0  0
    4.7177   -3.2230   -0.4525 H   0  0  0  0  0  0  0  0  0  0  0  0
    4.9795   -6.1255   -0.0690 H   0  0  0  0  0  0  0  0  0  0  0  0
    4.4057   -6.1097   -1.7463 H   0  0  0  0  0  0  0  0  0  0  0  0
    3.2610   -7.6190    0.6290 H   0  0  0  0  0  0  0  0  0  0  0  0
    3.1312   -8.0444   -1.0980 H   0  0  0  0  0  0  0  0  0  0  0  0
   -0.5093   -5.6797    2.1469 H   0  0  0  0  0  0  0  0  0  0  0  0
   -0.3140   -5.8228    4.6324 H   0  0  0  0  0  0  0  0  0  0  0  0
    0.7713   -7.8043    5.6837 H   0  0  0  0  0  0  0  0  0  0  0  0
    1.6541   -9.6489    4.2590 H   0  0  0  0  0  0  0  0  0  0  0  0
    1.4548   -9.5010    1.7644 H   0  0  0  0  0  0  0  0  0  0  0  0
  1  2  1  0
  1 33  1  0
  1 34  1  0
  1 35  1  0
  2  3  1  0
  2 14  2  0
  3  4  1  0
  4  5  1  0
  4 13  2  0
  5  6  1  0
  5 36  1  0
  6  7  2  0
  6  8  1  0
  8  9  1  0
  8 12  1  0
  8 37  1  1
  9 10  1  0
  9 38  1  0
  9 39  1  0
 10 11  1  0
 10 40  1  0
 10 41  1  0
 11 12  1  0
 11 42  1  0
 11 43  1  0
 12 44  1  0
 12 45  1  0
 13 14  1  0
 14 15  1  0
 15 16  2  0
 15 20  1  0
 16 17  1  0
 16 46  1  0
 17 18  2  0
 17 47  1  0
 18 19  1  0
 18 23  1  0
 19 20  2  0
 19 21  1  0
 20 48  1  0
 21 22  1  0
 21 49  1  0
 21 50  1  0
 22 23  1  0
 22 51  1  0
 22 52  1  0
 23 24  1  0
 24 25  2  0
 24 26  2  0
 24 27  1  1
 27 28  2  0
 27 32  1  0
 28 29  1  0
 28 53  1  0
 29 30  2  0
 29 54  1  0
 30 31  1  0
 30 55  1  0
 31 32  2  0
 31 56  1  0
 32 57  1  0
M  END

