
     RDKit          3D

 62 64  0  0  0  0  0  0  0  0999 V2000
    1.8467   -1.8798    0.6828 C   0  0  0  0  0  0  0  0  0  0  0  0
    3.1849   -1.3467    0.4325 N   0  0  0  0  0  0  0  0  0  0  0  0
    4.2231   -2.2545    0.1084 C   0  0  0  0  0  0  0  0  0  0  0  0
    4.0412   -3.4771    0.0881 O   0  0  0  0  0  0  0  0  0  0  0  0
    5.4426   -1.5765   -0.1625 C   0  0  0  0  0  0  0  0  0  0  0  0
    5.6375   -0.2220    0.0505 C   0  0  0  0  0  0  0  0  0  0  0  0
    6.9387    0.1330   -0.0729 N   0  0  0  0  0  0  0  0  0  0  0  0
    7.5701   -1.0145   -0.3624 C   0  0  0  0  0  0  0  0  0  0  0  0
    8.9050   -1.1588   -0.5683 N   0  0  0  0  0  0  0  0  0  0  0  0
    9.8060   -0.0222   -0.4801 C   0  0  0  0  0  0  0  0  0  0  0  0
   10.1524    0.3735    0.9684 C   0  0  0  0  0  0  0  0  0  0  0  0
   11.0372    1.5204    1.0430 N   0  0  0  0  0  0  0  0  0  0  0  0
   12.3874    1.3969    0.8494 C   0  0  0  0  0  0  0  0  0  0  0  0
   12.9084    0.3178    0.6042 O   0  0  0  0  0  0  0  0  0  0  0  0
   13.1977    2.6633    0.9527 C   0  0  0  0  0  0  0  0  0  0  0  0
   12.7605    3.8120    1.6322 C   0  0  0  0  0  0  0  0  0  0  0  0
   13.5728    4.9470    1.6991 C   0  0  0  0  0  0  0  0  0  0  0  0
   14.8307    4.9444    1.0891 C   0  0  0  0  0  0  0  0  0  0  0  0
   15.2791    3.7988    0.4223 C   0  0  0  0  0  0  0  0  0  0  0  0
   14.4708    2.6634    0.3615 C   0  0  0  0  0  0  0  0  0  0  0  0
    6.7139   -2.0747   -0.4631 N   0  0  0  0  0  0  0  0  0  0  0  0
    7.0310   -3.4307   -0.8737 C   0  0  0  0  0  0  0  0  0  0  0  0
    7.6005   -4.2107    0.3184 C   0  0  0  0  0  0  0  0  0  0  0  0
    8.7958   -4.1054    0.5896 O   0  0  0  0  0  0  0  0  0  0  0  0
    6.6782   -4.9067    1.0150 N   0  0  0  0  0  0  0  0  0  0  0  0
    6.9138   -5.6329    2.2853 C   0  0  1  0  0  0  0  0  0  0  0  0
    7.3774   -4.6478    3.3750 C   0  0  0  0  0  0  0  0  0  0  0  0
    5.5689   -6.2620    2.6777 C   0  0  0  0  0  0  0  0  0  0  0  0
    7.9685   -6.7323    2.0680 C   0  0  0  0  0  0  0  0  0  0  0  0
    4.5858    0.5921    0.3950 N   0  0  0  0  0  0  0  0  0  0  0  0
    4.7497    2.0274    0.5937 C   0  0  0  0  0  0  0  0  0  0  0  0
    3.3136    0.0460    0.5776 C   0  0  0  0  0  0  0  0  0  0  0  0
    2.3609    0.7465    0.8651 O   0  0  0  0  0  0  0  0  0  0  0  0
    1.8899   -2.9637    0.5348 H   0  0  0  0  0  0  0  0  0  0  0  0
    1.1218   -1.4241   -0.0069 H   0  0  0  0  0  0  0  0  0  0  0  0
    1.5264   -1.6473    1.7089 H   0  0  0  0  0  0  0  0  0  0  0  0
    9.2811   -2.0799   -0.3365 H   0  0  0  0  0  0  0  0  0  0  0  0
    9.3372    0.8304   -0.9934 H   0  0  0  0  0  0  0  0  0  0  0  0
   10.7349   -0.2748   -1.0118 H   0  0  0  0  0  0  0  0  0  0  0  0
   10.6477   -0.4751    1.4642 H   0  0  0  0  0  0  0  0  0  0  0  0
    9.2263    0.6058    1.5147 H   0  0  0  0  0  0  0  0  0  0  0  0
   10.6274    2.4451    1.0662 H   0  0  0  0  0  0  0  0  0  0  0  0
   11.7945    3.8200    2.1436 H   0  0  0  0  0  0  0  0  0  0  0  0
   13.2258    5.8325    2.2376 H   0  0  0  0  0  0  0  0  0  0  0  0
   15.4652    5.8331    1.1404 H   0  0  0  0  0  0  0  0  0  0  0  0
   16.2655    3.7908   -0.0485 H   0  0  0  0  0  0  0  0  0  0  0  0
   14.8055    1.7531   -0.1397 H   0  0  0  0  0  0  0  0  0  0  0  0
    7.8019   -3.3990   -1.6577 H   0  0  0  0  0  0  0  0  0  0  0  0
    6.1158   -3.8834   -1.2735 H   0  0  0  0  0  0  0  0  0  0  0  0
    5.7063   -4.7556    0.7356 H   0  0  0  0  0  0  0  0  0  0  0  0
    6.6178   -3.8673    3.5420 H   0  0  0  0  0  0  0  0  0  0  0  0
    8.3196   -4.1640    3.0820 H   0  0  0  0  0  0  0  0  0  0  0  0
    7.5385   -5.1783    4.3266 H   0  0  0  0  0  0  0  0  0  0  0  0
    4.7905   -5.4914    2.8007 H   0  0  0  0  0  0  0  0  0  0  0  0
    5.6659   -6.8039    3.6302 H   0  0  0  0  0  0  0  0  0  0  0  0
    5.2271   -6.9762    1.9115 H   0  0  0  0  0  0  0  0  0  0  0  0
    8.9268   -6.2956    1.7563 H   0  0  0  0  0  0  0  0  0  0  0  0
    7.6365   -7.4393    1.2914 H   0  0  0  0  0  0  0  0  0  0  0  0
    8.1247   -7.2953    3.0016 H   0  0  0  0  0  0  0  0  0  0  0  0
    5.8010    2.2743    0.4076 H   0  0  0  0  0  0  0  0  0  0  0  0
    4.4710    2.3078    1.6202 H   0  0  0  0  0  0  0  0  0  0  0  0
    4.1002    2.5847   -0.0969 H   0  0  0  0  0  0  0  0  0  0  0  0
  1  2  1  0
  1 34  1  0
  1 35  1  0
  1 36  1  0
  2  3  1  0
  2 32  1  0
  3  4  2  0
  3  5  1  0
  5  6  2  0
  5 21  1  0
  6  7  1  0
  6 30  1  0
  7  8  2  0
  8  9  1  0
  8 21  1  0
  9 10  1  0
  9 37  1  0
 10 11  1  0
 10 38  1  0
 10 39  1  0
 11 12  1  0
 11 40  1  0
 11 41  1  0
 12 13  1  0
 12 42  1  0
 13 14  2  0
 13 15  1  0
 15 16  2  0
 15 20  1  0
 16 17  1  0
 16 43  1  0
 17 18  2  0
 17 44  1  0
 18 19  1  0
 18 45  1  0
 19 20  2  0
 19 46  1  0
 20 47  1  0
 21 22  1  0
 22 23  1  0
 22 48  1  0
 22 49  1  0
 23 24  2  0
 23 25  1  0
 26 25  1  6
 25 50  1  0
 26 27  1  0
 26 28  1  0
 26 29  1  0
 27 51  1  0
 27 52  1  0
 27 53  1  0
 28 54  1  0
 28 55  1  0
 28 56  1  0
 29 57  1  0
 29 58  1  0
 29 59  1  0
 30 31  1  0
 30 32  1  0
 31 60  1  0
 31 61  1  0
 31 62  1  0
 32 33  2  0
M  END

