
     RDKit          3D

 48 50  0  0  0  0  0  0  0  0999 V2000
    0.8867    0.2681   -1.2637 C   0  0  0  0  0  0  0  0  0  0  0  0
    1.9841    0.8450   -2.1229 C   0  0  0  0  0  0  0  0  0  0  0  0
    2.8697    1.8109   -1.6130 C   0  0  0  0  0  0  0  0  0  0  0  0
    3.8666    2.3281   -2.4527 C   0  0  0  0  0  0  0  0  0  0  0  0
    4.7775    3.2579   -2.0884 O   0  0  0  0  0  0  0  0  0  0  0  0
    4.7916    3.7617   -0.7617 C   0  0  0  0  0  0  0  0  0  0  0  0
    5.9073    4.8020   -0.6517 C   0  0  1  0  0  0  0  0  0  0  0  0
    5.7330    5.9799   -1.6306 C   0  0  0  0  0  0  0  0  0  0  0  0
    4.6061    6.9251   -1.1961 C   0  0  0  0  0  0  0  0  0  0  0  0
    4.7769    7.3715    0.2573 C   0  0  0  0  0  0  0  0  0  0  0  0
    4.9227    6.2141    1.1453 N   0  0  0  0  0  0  0  0  0  0  0  0
    4.3270    6.2797    2.3878 C   0  0  0  0  0  0  0  0  0  0  0  0
    3.6885    7.2623    2.7453 O   0  0  0  0  0  0  0  0  0  0  0  0
    4.4357    5.1174    3.3197 C   0  0  0  0  0  0  0  0  0  0  0  0
    4.2896    3.7496    3.1196 C   0  0  0  0  0  0  0  0  0  0  0  0
    4.3180    3.1632    4.3446 N   0  0  0  0  0  0  0  0  0  0  0  0
    4.1813    1.7556    4.6654 C   0  0  0  0  0  0  0  0  0  0  0  0
    4.4781    4.0531    5.3324 N   0  0  0  0  0  0  0  0  0  0  0  0
    4.5391    5.2353    4.7364 C   0  0  0  0  0  0  0  0  0  0  0  0
    4.7302    6.5091    5.5141 C   0  0  1  0  0  0  0  0  0  0  0  0
    4.7380    6.2643    6.8444 F   0  0  0  0  0  0  0  0  0  0  0  0
    5.9357    7.0624    5.1795 F   0  0  0  0  0  0  0  0  0  0  0  0
    6.0342    5.3340    0.7877 C   0  0  0  0  0  0  0  0  0  0  0  0
    3.9358    1.8522   -3.7715 C   0  0  0  0  0  0  0  0  0  0  0  0
    3.0105    0.8930   -4.1715 C   0  0  0  0  0  0  0  0  0  0  0  0
    2.0559    0.3933   -3.3803 N   0  0  0  0  0  0  0  0  0  0  0  0
    0.9378    0.6230   -0.2242 H   0  0  0  0  0  0  0  0  0  0  0  0
    0.9409   -0.8317   -1.2712 H   0  0  0  0  0  0  0  0  0  0  0  0
   -0.0984    0.5384   -1.6778 H   0  0  0  0  0  0  0  0  0  0  0  0
    2.7626    2.1439   -0.5810 H   0  0  0  0  0  0  0  0  0  0  0  0
    4.9805    2.9317   -0.0541 H   0  0  0  0  0  0  0  0  0  0  0  0
    3.8112    4.2014   -0.5070 H   0  0  0  0  0  0  0  0  0  0  0  0
    6.8498    4.2817   -0.8937 H   0  0  0  0  0  0  0  0  0  0  0  0
    5.5587    5.5976   -2.6474 H   0  0  0  0  0  0  0  0  0  0  0  0
    6.6829    6.5423   -1.6618 H   0  0  0  0  0  0  0  0  0  0  0  0
    3.6243    6.4347   -1.3122 H   0  0  0  0  0  0  0  0  0  0  0  0
    4.5855    7.8147   -1.8465 H   0  0  0  0  0  0  0  0  0  0  0  0
    3.9241    7.9608    0.6134 H   0  0  0  0  0  0  0  0  0  0  0  0
    5.6765    8.0128    0.3497 H   0  0  0  0  0  0  0  0  0  0  0  0
    4.1367    3.1649    2.2158 H   0  0  0  0  0  0  0  0  0  0  0  0
    4.0809    1.1811    3.7353 H   0  0  0  0  0  0  0  0  0  0  0  0
    3.2914    1.5942    5.2918 H   0  0  0  0  0  0  0  0  0  0  0  0
    5.0680    1.4073    5.2150 H   0  0  0  0  0  0  0  0  0  0  0  0
    3.9497    7.2500    5.2815 H   0  0  0  0  0  0  0  0  0  0  0  0
    6.1084    4.5153    1.5127 H   0  0  0  0  0  0  0  0  0  0  0  0
    6.9802    5.9062    0.8591 H   0  0  0  0  0  0  0  0  0  0  0  0
    4.7017    2.2338   -4.4486 H   0  0  0  0  0  0  0  0  0  0  0  0
    3.0459    0.5047   -5.1966 H   0  0  0  0  0  0  0  0  0  0  0  0
  1  2  1  0
  1 27  1  0
  1 28  1  0
  1 29  1  0
  2  3  2  0
  2 26  1  0
  3  4  1  0
  3 30  1  0
  4  5  1  0
  4 24  2  0
  5  6  1  0
  6  7  1  0
  6 31  1  0
  6 32  1  0
  7  8  1  0
  7 23  1  0
  7 33  1  6
  8  9  1  0
  8 34  1  0
  8 35  1  0
  9 10  1  0
  9 36  1  0
  9 37  1  0
 10 11  1  0
 10 38  1  0
 10 39  1  0
 11 12  1  0
 11 23  1  0
 12 13  2  0
 12 14  1  0
 14 15  2  0
 14 19  1  0
 15 16  1  0
 15 40  1  0
 16 17  1  0
 16 18  1  0
 17 41  1  0
 17 42  1  0
 17 43  1  0
 18 19  2  0
 19 20  1  0
 20 21  1  0
 20 22  1  0
 20 44  1  1
 23 45  1  0
 23 46  1  0
 24 25  1  0
 24 47  1  0
 25 26  2  0
 25 48  1  0
M  END

