
     RDKit          3D

 35 38  0  0  0  0  0  0  0  0999 V2000
    1.1239   -0.0047    0.3364 N   0  0  0  0  0  0  0  0  0  0  0  0
    2.4763   -0.1105    0.0893 C   0  0  0  0  0  0  0  0  0  0  0  0
    3.0946    0.6468   -0.9298 C   0  0  0  0  0  0  0  0  0  0  0  0
    4.4665    0.5653   -1.1391 C   0  0  0  0  0  0  0  0  0  0  0  0
    5.3041   -0.2691   -0.3713 C   0  0  0  0  0  0  0  0  0  0  0  0
    6.7719   -0.3096   -0.6030 C   0  0  0  0  0  0  0  0  0  0  0  0
    7.5116    0.8880   -0.6731 C   0  0  0  0  0  0  0  0  0  0  0  0
    8.8799    0.9023   -0.9292 C   0  0  0  0  0  0  0  0  0  0  0  0
    9.6078   -0.2841   -1.1424 C   0  0  0  0  0  0  0  0  0  0  0  0
   11.0457   -0.1518   -1.4072 C   0  0  0  0  0  0  0  0  0  0  0  0
   11.7059    1.0067   -1.4592 N   0  0  0  0  0  0  0  0  0  0  0  0
   12.9749    0.6234   -1.7226 C   0  0  0  0  0  0  0  0  0  0  0  0
   13.1488   -0.6896   -1.8386 N   0  0  0  0  0  0  0  0  0  0  0  0
   11.9155   -1.1655   -1.6340 N   0  0  0  0  0  0  0  0  0  0  0  0
   11.6632   -2.1675   -1.6548 H   0  0  0  0  0  0  0  0  0  0  0  0
    8.8746   -1.4907   -1.0841 C   0  0  0  0  0  0  0  0  0  0  0  0
    7.4948   -1.4930   -0.8154 C   0  0  0  0  0  0  0  0  0  0  0  0
    6.9758   -2.9104   -0.8573 C   0  0  0  0  0  0  0  0  0  0  0  0
    8.1680   -3.6619   -1.1904 N   0  0  0  0  0  0  0  0  0  0  0  0
    9.3015   -2.9124   -1.3023 C   0  0  0  0  0  0  0  0  0  0  0  0
   10.4149   -3.3752   -1.5376 O   0  0  0  0  0  0  0  0  0  0  0  0
    4.6596   -1.0012    0.6373 C   0  0  0  0  0  0  0  0  0  0  0  0
    5.3940   -1.7937    1.4443 F   0  0  0  0  0  0  0  0  0  0  0  0
    3.2932   -0.9444    0.8777 C   0  0  0  0  0  0  0  0  0  0  0  0
    0.5420    0.3898   -0.3919 H   0  0  0  0  0  0  0  0  0  0  0  0
    0.6805   -0.7376    0.8758 H   0  0  0  0  0  0  0  0  0  0  0  0
    2.4869    1.3023   -1.5588 H   0  0  0  0  0  0  0  0  0  0  0  0
    4.9165    1.1555   -1.9412 H   0  0  0  0  0  0  0  0  0  0  0  0
    6.9944    1.8356   -0.5038 H   0  0  0  0  0  0  0  0  0  0  0  0
    9.4279    1.8446   -0.9672 H   0  0  0  0  0  0  0  0  0  0  0  0
   13.8034    1.3226   -1.8352 H   0  0  0  0  0  0  0  0  0  0  0  0
    6.1823   -3.0282   -1.6184 H   0  0  0  0  0  0  0  0  0  0  0  0
    6.5528   -3.2188    0.1126 H   0  0  0  0  0  0  0  0  0  0  0  0
    8.2096   -4.6719   -1.2476 H   0  0  0  0  0  0  0  0  0  0  0  0
    2.8804   -1.5398    1.6947 H   0  0  0  0  0  0  0  0  0  0  0  0
  1  2  1  0
  1 25  1  0
  1 26  1  0
  2  3  2  0
  2 24  1  0
  3  4  1  0
  3 27  1  0
  4  5  2  0
  4 28  1  0
  5  6  1  0
  5 22  1  0
  6  7  2  0
  6 17  1  0
  7  8  1  0
  7 29  1  0
  8  9  2  0
  8 30  1  0
  9 10  1  0
  9 16  1  0
 10 11  2  0
 10 14  1  0
 11 12  1  0
 12 13  2  0
 12 31  1  0
 13 14  1  0
 14 15  1  0
 16 17  2  0
 16 20  1  0
 17 18  1  0
 18 19  1  0
 18 32  1  0
 18 33  1  0
 19 20  1  0
 19 34  1  0
 20 21  2  0
 22 23  1  0
 22 24  2  0
 24 35  1  0
M  END

