
     RDKit          3D

 83 83  0  0  0  0  0  0  0  0999 V2000
    5.4576  -14.3309    3.1156 C   0  0  0  0  0  0  0  0  0  0  0  0
    5.9443  -14.5294    1.8864 C   0  0  0  0  0  0  0  0  0  0  0  0
    6.8671  -15.6620    1.6036 C   0  0  0  0  0  0  0  0  0  0  0  0
    7.2534  -16.4732    2.4144 O   0  0  0  0  0  0  0  0  0  0  0  0
    7.2235  -15.6730    0.3026 O   0  0  0  0  0  0  0  0  0  0  0  0
    8.1090  -16.7137   -0.1273 C   0  0  0  0  0  0  0  0  0  0  0  0
    9.5678  -16.3731    0.1092 C   0  0  0  0  0  0  0  0  0  0  0  0
    9.9322  -15.2820   -0.6965 O   0  0  0  0  0  0  0  0  0  0  0  0
   11.2576  -14.8498   -0.5196 C   0  0  0  0  0  0  0  0  0  0  0  0
   11.4956  -13.6710   -1.4479 C   0  0  0  0  0  0  0  0  0  0  0  0
   12.8218  -13.2408   -1.2746 O   0  0  0  0  0  0  0  0  0  0  0  0
   13.1868  -12.1444   -2.0736 C   0  0  0  0  0  0  0  0  0  0  0  0
   14.6376  -11.8057   -1.7752 C   0  0  0  0  0  0  0  0  0  0  0  0
   15.0012  -10.7075   -2.5725 O   0  0  0  0  0  0  0  0  0  0  0  0
   16.3295  -10.2810   -2.4041 C   0  0  0  0  0  0  0  0  0  0  0  0
   16.5656   -9.0990   -3.3289 C   0  0  0  0  0  0  0  0  0  0  0  0
   17.8927   -8.6724   -3.1599 O   0  0  0  0  0  0  0  0  0  0  0  0
   18.2528   -7.5735   -3.9568 C   0  0  0  0  0  0  0  0  0  0  0  0
   19.7192   -7.2571   -3.7569 C   0  0  0  0  0  0  0  0  0  0  0  0
   20.5055   -8.2514   -4.3635 O   0  0  0  0  0  0  0  0  0  0  0  0
   21.8863   -8.0966   -4.1679 C   0  0  0  0  0  0  0  0  0  0  0  0
   22.5904   -9.2431   -4.8736 C   0  0  0  0  0  0  0  0  0  0  0  0
   23.9758   -9.0874   -4.6869 O   0  0  0  0  0  0  0  0  0  0  0  0
   24.7586  -10.0883   -5.2825 C   0  0  0  0  0  0  0  0  0  0  0  0
   26.2166   -9.7765   -4.9908 C   0  0  0  0  0  0  0  0  0  0  0  0
   27.0070  -10.7764   -5.5883 O   0  0  0  0  0  0  0  0  0  0  0  0
   28.3874  -10.6077   -5.4036 C   0  0  0  0  0  0  0  0  0  0  0  0
   29.1259  -11.7559   -6.0617 C   0  0  0  0  0  0  0  0  0  0  0  0
   28.8252  -13.0165   -5.4407 O   0  0  0  0  0  0  0  0  0  0  0  0
   29.5789  -13.3931   -4.3927 C   0  0  0  0  0  0  0  0  0  0  0  0
   30.5128  -12.7573   -3.9642 O   0  0  0  0  0  0  0  0  0  0  0  0
   29.1303  -14.7019   -3.8207 C   0  0  0  0  0  0  0  0  0  0  0  0
   29.8720  -15.2749   -2.7814 C   0  0  0  0  0  0  0  0  0  0  0  0
   29.4683  -16.4864   -2.2299 C   0  0  0  0  0  0  0  0  0  0  0  0
   28.3091  -17.1560   -2.6582 C   0  0  0  0  0  0  0  0  0  0  0  0
   28.0673  -18.4769   -1.9111 C   0  0  0  0  0  0  0  0  0  0  0  0
   29.0012  -19.0227   -1.3746 O   0  0  0  0  0  0  0  0  0  0  0  0
   26.8389  -18.9557   -1.8210 O   0  0  0  0  0  0  0  0  0  0  0  0
   27.5654  -16.5834   -3.7265 C   0  0  0  0  0  0  0  0  0  0  0  0
   26.2998  -17.1681   -4.2919 C   0  0  0  0  0  0  0  0  0  0  0  0
   25.4709  -17.7715   -3.6425 O   0  0  0  0  0  0  0  0  0  0  0  0
   26.0715  -16.9590   -5.5931 O   0  0  0  0  0  0  0  0  0  0  0  0
   27.9932  -15.3664   -4.2869 C   0  0  0  0  0  0  0  0  0  0  0  0
    4.7785  -13.5037    3.3365 H   0  0  0  0  0  0  0  0  0  0  0  0
    5.7363  -15.0049    3.9309 H   0  0  0  0  0  0  0  0  0  0  0  0
    5.6925  -13.8804    1.0438 H   0  0  0  0  0  0  0  0  0  0  0  0
    7.9240  -16.8259   -1.2049 H   0  0  0  0  0  0  0  0  0  0  0  0
    7.8634  -17.6489    0.3973 H   0  0  0  0  0  0  0  0  0  0  0  0
   10.1756  -17.2710   -0.1360 H   0  0  0  0  0  0  0  0  0  0  0  0
    9.7334  -16.1553    1.1827 H   0  0  0  0  0  0  0  0  0  0  0  0
   11.9827  -15.6564   -0.7545 H   0  0  0  0  0  0  0  0  0  0  0  0
   11.4460  -14.5394    0.5285 H   0  0  0  0  0  0  0  0  0  0  0  0
   10.7731  -12.8633   -1.2111 H   0  0  0  0  0  0  0  0  0  0  0  0
   11.3042  -13.9814   -2.4956 H   0  0  0  0  0  0  0  0  0  0  0  0
   12.5503  -11.2605   -1.8633 H   0  0  0  0  0  0  0  0  0  0  0  0
   13.0758  -12.3752   -3.1530 H   0  0  0  0  0  0  0  0  0  0  0  0
   15.2744  -12.6888   -1.9875 H   0  0  0  0  0  0  0  0  0  0  0  0
   14.7488  -11.5769   -0.6954 H   0  0  0  0  0  0  0  0  0  0  0  0
   17.0488  -11.0892   -2.6482 H   0  0  0  0  0  0  0  0  0  0  0  0
   16.5267   -9.9756   -1.3561 H   0  0  0  0  0  0  0  0  0  0  0  0
   15.8440   -8.2912   -3.0858 H   0  0  0  0  0  0  0  0  0  0  0  0
   16.3683   -9.4053   -4.3767 H   0  0  0  0  0  0  0  0  0  0  0  0
   17.6522   -6.6777   -3.6899 H   0  0  0  0  0  0  0  0  0  0  0  0
   18.0714   -7.7848   -5.0307 H   0  0  0  0  0  0  0  0  0  0  0  0
   19.9305   -7.1928   -2.6698 H   0  0  0  0  0  0  0  0  0  0  0  0
   19.9358   -6.2600   -4.1965 H   0  0  0  0  0  0  0  0  0  0  0  0
   22.1484   -8.1101   -3.0899 H   0  0  0  0  0  0  0  0  0  0  0  0
   22.2514   -7.1317   -4.5782 H   0  0  0  0  0  0  0  0  0  0  0  0
   22.3249   -9.2330   -5.9504 H   0  0  0  0  0  0  0  0  0  0  0  0
   22.2324  -10.2069   -4.4584 H   0  0  0  0  0  0  0  0  0  0  0  0
   24.6018  -10.1278   -6.3802 H   0  0  0  0  0  0  0  0  0  0  0  0
   24.5081  -11.0923   -4.8824 H   0  0  0  0  0  0  0  0  0  0  0  0
   26.3750   -9.7389   -3.8940 H   0  0  0  0  0  0  0  0  0  0  0  0
   26.4663   -8.7724   -5.3907 H   0  0  0  0  0  0  0  0  0  0  0  0
   28.6489  -10.5584   -4.3274 H   0  0  0  0  0  0  0  0  0  0  0  0
   28.7431   -9.6613   -5.8649 H   0  0  0  0  0  0  0  0  0  0  0  0
   30.2095  -11.5758   -6.0202 H   0  0  0  0  0  0  0  0  0  0  0  0
   28.7984  -11.8625   -7.1051 H   0  0  0  0  0  0  0  0  0  0  0  0
   30.7637  -14.7588   -2.4208 H   0  0  0  0  0  0  0  0  0  0  0  0
   30.0528  -16.9610   -1.4410 H   0  0  0  0  0  0  0  0  0  0  0  0
   26.1850  -18.4484   -2.3666 H   0  0  0  0  0  0  0  0  0  0  0  0
   26.8442  -16.5601   -6.0193 H   0  0  0  0  0  0  0  0  0  0  0  0
   27.4165  -14.8863   -5.0794 H   0  0  0  0  0  0  0  0  0  0  0  0
  1  2  2  0
  1 44  1  0
  1 45  1  0
  2  3  1  0
  2 46  1  0
  3  4  2  0
  3  5  1  0
  5  6  1  0
  6  7  1  0
  6 47  1  0
  6 48  1  0
  7  8  1  0
  7 49  1  0
  7 50  1  0
  8  9  1  0
  9 10  1  0
  9 51  1  0
  9 52  1  0
 10 11  1  0
 10 53  1  0
 10 54  1  0
 11 12  1  0
 12 13  1  0
 12 55  1  0
 12 56  1  0
 13 14  1  0
 13 57  1  0
 13 58  1  0
 14 15  1  0
 15 16  1  0
 15 59  1  0
 15 60  1  0
 16 17  1  0
 16 61  1  0
 16 62  1  0
 17 18  1  0
 18 19  1  0
 18 63  1  0
 18 64  1  0
 19 20  1  0
 19 65  1  0
 19 66  1  0
 20 21  1  0
 21 22  1  0
 21 67  1  0
 21 68  1  0
 22 23  1  0
 22 69  1  0
 22 70  1  0
 23 24  1  0
 24 25  1  0
 24 71  1  0
 24 72  1  0
 25 26  1  0
 25 73  1  0
 25 74  1  0
 26 27  1  0
 27 28  1  0
 27 75  1  0
 27 76  1  0
 28 29  1  0
 28 77  1  0
 28 78  1  0
 29 30  1  0
 30 31  2  0
 30 32  1  0
 32 33  2  0
 32 43  1  0
 33 34  1  0
 33 79  1  0
 34 35  2  0
 34 80  1  0
 35 36  1  0
 35 39  1  0
 36 37  2  0
 36 38  1  0
 38 81  1  0
 39 40  1  0
 39 43  2  0
 40 41  2  0
 40 42  1  0
 42 82  1  0
 43 83  1  0
M  END

