
     RDKit          3D

 69 74  0  0  0  0  0  0  0  0999 V2000
   12.1712    5.9600   -5.2783 N   0  0  0  0  0  0  0  0  0  0  0  0
   12.4274    4.7199   -4.7236 C   0  0  0  0  0  0  0  0  0  0  0  0
   13.5048    4.1630   -4.8744 O   0  0  0  0  0  0  0  0  0  0  0  0
   11.3270    4.0732   -3.9599 C   0  0  0  0  0  0  0  0  0  0  0  0
   10.0319    4.4287   -4.1298 C   0  0  0  0  0  0  0  0  0  0  0  0
    8.9691    3.8140   -3.4879 N   0  0  0  0  0  0  0  0  0  0  0  0
    7.6467    4.3669   -3.5969 C   0  0  1  0  0  0  0  0  0  0  0  0
    7.6458    4.9709   -4.5186 H   0  0  0  0  0  0  0  0  0  0  0  0
    6.4835    3.3524   -3.6097 C   0  0  0  0  0  0  0  0  0  0  0  0
    5.7647    3.5410   -2.2613 C   0  0  2  0  0  0  0  0  0  0  0  0
    6.2270    2.8960   -1.4897 H   0  0  0  0  0  0  0  0  0  0  0  0
    4.3790    3.3413   -2.3107 O   0  0  0  0  0  0  0  0  0  0  0  0
    6.0933    5.0124   -1.9469 C   0  0  1  0  0  0  0  0  0  0  0  0
    5.3175    5.6390   -2.4322 H   0  0  0  0  0  0  0  0  0  0  0  0
    6.1787    5.3952   -0.4761 C   0  0  0  0  0  0  0  0  0  0  0  0
    4.8500    5.3847    0.1078 O   0  0  0  0  0  0  0  0  0  0  0  0
    4.3533    4.5755    1.3638 P   0  0  1  0  0  0  0  0  0  0  0  0
    4.2361    5.2559    2.6579 O   0  0  0  0  0  0  0  0  0  0  0  0
    3.0277    3.6975    0.8389 O   0  0  0  0  0  0  0  0  0  0  0  0
    5.1779    3.0973    1.3223 O   0  0  0  0  0  0  0  0  0  0  0  0
    3.8396    2.2529    0.8709 P   0  0  2  0  0  0  0  0  0  0  0  0
    3.8460    1.4064   -0.3319 O   0  0  0  0  0  0  0  0  0  0  0  0
    3.4680    1.5648    2.2993 O   0  0  0  0  0  0  0  0  0  0  0  0
    2.1661    0.8953    2.1852 O   0  0  0  0  0  0  0  0  0  0  0  0
    1.2047    1.6385    2.9386 C   0  0  0  0  0  0  0  0  0  0  0  0
    1.3179    1.5627    4.4568 C   0  0  1  0  0  0  0  0  0  0  0  0
    0.4468    2.1173    4.8522 H   0  0  0  0  0  0  0  0  0  0  0  0
    1.2517    0.2037    4.8668 O   0  0  0  0  0  0  0  0  0  0  0  0
    2.3307   -0.1235    5.7317 C   0  0  1  0  0  0  0  0  0  0  0  0
    2.0165   -0.0793    6.7878 H   0  0  0  0  0  0  0  0  0  0  0  0
    2.7197   -1.4939    5.4909 N   0  0  0  0  0  0  0  0  0  0  0  0
    2.9495   -2.1145    4.2723 C   0  0  0  0  0  0  0  0  0  0  0  0
    3.2745   -3.3774    4.3825 N   0  0  0  0  0  0  0  0  0  0  0  0
    3.2620   -3.6184    5.7412 C   0  0  0  0  0  0  0  0  0  0  0  0
    3.5190   -4.7712    6.5227 C   0  0  0  0  0  0  0  0  0  0  0  0
    3.8708   -5.9527    5.9682 N   0  0  0  0  0  0  0  0  0  0  0  0
    3.4115   -4.6771    7.8578 N   0  0  0  0  0  0  0  0  0  0  0  0
    3.0684   -3.5017    8.4019 C   0  0  0  0  0  0  0  0  0  0  0  0
    2.8062   -2.3499    7.7818 N   0  0  0  0  0  0  0  0  0  0  0  0
    2.9130   -2.4639    6.4558 C   0  0  0  0  0  0  0  0  0  0  0  0
    3.4087    0.9281    5.4334 C   0  0  0  0  0  0  0  0  0  0  0  0
    2.5698    2.1729    5.1311 C   0  0  2  0  0  0  0  0  0  0  0  0
    3.0894    2.8913    4.4747 H   0  0  0  0  0  0  0  0  0  0  0  0
    2.1064    2.8040    6.3126 O   0  0  0  0  0  0  0  0  0  0  0  0
    7.3784    5.2478   -2.4879 O   0  0  0  0  0  0  0  0  0  0  0  0
    9.2768    2.8408   -2.5202 C   0  0  0  0  0  0  0  0  0  0  0  0
   10.5262    2.4066   -2.3013 C   0  0  0  0  0  0  0  0  0  0  0  0
   11.7218    2.9122   -3.0681 C   0  0  0  0  0  0  0  0  0  0  0  0
   12.9748    6.4046   -5.7097 H   0  0  0  0  0  0  0  0  0  0  0  0
   11.5134    6.5816   -4.8243 H   0  0  0  0  0  0  0  0  0  0  0  0
    9.7447    5.2161   -4.8301 H   0  0  0  0  0  0  0  0  0  0  0  0
    6.8222    2.3242   -3.7952 H   0  0  0  0  0  0  0  0  0  0  0  0
    5.7653    3.6173   -4.3997 H   0  0  0  0  0  0  0  0  0  0  0  0
    4.1569    2.4850   -1.9091 H   0  0  0  0  0  0  0  0  0  0  0  0
    6.8435    4.7070    0.0674 H   0  0  0  0  0  0  0  0  0  0  0  0
    6.5644    6.4189   -0.3749 H   0  0  0  0  0  0  0  0  0  0  0  0
    0.2758    1.1292    2.6316 H   0  0  0  0  0  0  0  0  0  0  0  0
    1.1657    2.6837    2.5892 H   0  0  0  0  0  0  0  0  0  0  0  0
    2.8304   -1.5664    3.3376 H   0  0  0  0  0  0  0  0  0  0  0  0
    3.9195   -6.0442    4.9633 H   0  0  0  0  0  0  0  0  0  0  0  0
    4.0112   -6.7545    6.5677 H   0  0  0  0  0  0  0  0  0  0  0  0
    2.9959   -3.4894    9.4962 H   0  0  0  0  0  0  0  0  0  0  0  0
    3.9912    0.6297    4.5498 H   0  0  0  0  0  0  0  0  0  0  0  0
    4.1007    1.0725    6.2757 H   0  0  0  0  0  0  0  0  0  0  0  0
    2.8610    3.2083    6.7604 H   0  0  0  0  0  0  0  0  0  0  0  0
    8.4273    2.4563   -1.9556 H   0  0  0  0  0  0  0  0  0  0  0  0
   10.6787    1.6391   -1.5384 H   0  0  0  0  0  0  0  0  0  0  0  0
   12.1791    2.1086   -3.6777 H   0  0  0  0  0  0  0  0  0  0  0  0
   12.5315    3.2183   -2.3792 H   0  0  0  0  0  0  0  0  0  0  0  0
  1  2  1  0
  1 49  1  0
  1 50  1  0
  2  3  2  0
  2  4  1  0
  4  5  2  0
  4 48  1  0
  5  6  1  0
  5 51  1  0
  6  7  1  0
  6 46  1  0
  7  8  1  6
  7  9  1  0
  7 45  1  0
  9 10  1  0
  9 52  1  0
  9 53  1  0
 10 11  1  1
 10 12  1  0
 10 13  1  0
 12 54  1  0
 13 14  1  6
 13 15  1  0
 13 45  1  0
 15 16  1  0
 15 55  1  0
 15 56  1  0
 17 16  1  6
 17 18  2  0
 17 19  1  0
 17 20  1  0
 19 21  1  0
 20 21  1  0
 21 22  2  0
 21 23  1  1
 23 24  1  0
 24 25  1  0
 25 26  1  0
 25 57  1  0
 25 58  1  0
 26 27  1  1
 26 28  1  0
 26 42  1  0
 28 29  1  0
 29 30  1  1
 29 31  1  0
 29 41  1  0
 31 32  1  0
 31 40  1  0
 32 33  2  0
 32 59  1  0
 33 34  1  0
 34 35  1  0
 34 40  2  0
 35 36  1  0
 35 37  2  0
 36 60  1  0
 36 61  1  0
 37 38  1  0
 38 39  2  0
 38 62  1  0
 39 40  1  0
 41 42  1  0
 41 63  1  0
 41 64  1  0
 42 43  1  6
 42 44  1  0
 44 65  1  0
 46 47  2  0
 46 66  1  0
 47 48  1  0
 47 67  1  0
 48 68  1  0
 48 69  1  0
M  END

