
     RDKit          3D

 64 68  0  0  0  0  0  0  0  0999 V2000
    1.4419   -0.5660   -0.5606 C   0  0  0  0  0  0  0  0  0  0  0  0
    2.9004   -0.3284   -0.1806 C   0  0  0  0  0  0  0  0  0  0  0  0
    3.2550    1.1584   -0.1733 C   0  0  0  0  0  0  0  0  0  0  0  0
    2.4107    2.0090   -0.3912 O   0  0  0  0  0  0  0  0  0  0  0  0
    4.5773    1.5033    0.1010 N   0  0  0  0  0  0  0  0  0  0  0  0
    4.9438    2.8781    0.1085 C   0  0  0  0  0  0  0  0  0  0  0  0
    4.3026    3.7746    0.9765 C   0  0  0  0  0  0  0  0  0  0  0  0
    4.6291    5.1275    1.0012 C   0  0  0  0  0  0  0  0  0  0  0  0
    5.6368    5.6078    0.1583 C   0  0  0  0  0  0  0  0  0  0  0  0
    6.2953    4.7305   -0.6955 C   0  0  0  0  0  0  0  0  0  0  0  0
    5.9558    3.3635   -0.7443 C   0  0  0  0  0  0  0  0  0  0  0  0
    6.6412    2.5840   -1.6966 N   0  0  0  0  0  0  0  0  0  0  0  0
    6.8247    1.2383   -1.8734 C   0  0  0  0  0  0  0  0  0  0  0  0
    6.3989    0.2442   -1.0273 C   0  0  0  0  0  0  0  0  0  0  0  0
    6.5875   -1.1714   -1.3775 C   0  0  0  0  0  0  0  0  0  0  0  0
    6.1557   -2.0735   -0.6683 O   0  0  0  0  0  0  0  0  0  0  0  0
    7.3028   -1.5119   -2.6805 C   0  0  0  0  0  0  0  0  0  0  0  0
    8.2889   -0.4265   -3.1273 C   0  0  1  0  0  0  0  0  0  0  0  0
    9.0660   -0.3466   -2.3476 H   0  0  0  0  0  0  0  0  0  0  0  0
    8.9947   -0.7411   -4.4364 C   0  0  0  0  0  0  0  0  0  0  0  0
    8.2871   -0.9376   -5.6323 C   0  0  0  0  0  0  0  0  0  0  0  0
    8.9528   -1.2219   -6.8274 C   0  0  0  0  0  0  0  0  0  0  0  0
   10.3511   -1.3228   -6.8769 C   0  0  0  0  0  0  0  0  0  0  0  0
   11.0770   -1.6283   -8.1647 C   0  0  0  0  0  0  0  0  0  0  0  0
   11.0585   -1.1278   -5.6802 C   0  0  0  0  0  0  0  0  0  0  0  0
   10.3939   -0.8424   -4.4863 C   0  0  0  0  0  0  0  0  0  0  0  0
    7.5514    0.9197   -3.1660 C   0  0  0  0  0  0  0  0  0  0  0  0
    5.6606    0.5068    0.2679 C   0  0  1  0  0  0  0  0  0  0  0  0
    5.1933   -0.4536    0.5155 H   0  0  0  0  0  0  0  0  0  0  0  0
    6.5374    0.8475    1.4779 C   0  0  0  0  0  0  0  0  0  0  0  0
    7.9313    0.9258    1.4152 C   0  0  0  0  0  0  0  0  0  0  0  0
    8.6912    1.1928    2.5609 C   0  0  0  0  0  0  0  0  0  0  0  0
    8.0859    1.3866    3.8074 C   0  0  0  0  0  0  0  0  0  0  0  0
    8.8966    1.6710    5.0483 C   0  0  0  0  0  0  0  0  0  0  0  0
    6.6831    1.3013    3.8686 C   0  0  0  0  0  0  0  0  0  0  0  0
    5.9267    1.0362    2.7303 C   0  0  0  0  0  0  0  0  0  0  0  0
    1.2119   -1.6424   -0.5457 H   0  0  0  0  0  0  0  0  0  0  0  0
    1.2271   -0.1774   -1.5671 H   0  0  0  0  0  0  0  0  0  0  0  0
    0.7617   -0.0513    0.1334 H   0  0  0  0  0  0  0  0  0  0  0  0
    3.5742   -0.8728   -0.8619 H   0  0  0  0  0  0  0  0  0  0  0  0
    3.1094   -0.7466    0.8200 H   0  0  0  0  0  0  0  0  0  0  0  0
    3.5173    3.3872    1.6254 H   0  0  0  0  0  0  0  0  0  0  0  0
    4.1025    5.8038    1.6780 H   0  0  0  0  0  0  0  0  0  0  0  0
    5.9133    6.6647    0.1674 H   0  0  0  0  0  0  0  0  0  0  0  0
    7.0880    5.1007   -1.3528 H   0  0  0  0  0  0  0  0  0  0  0  0
    7.1373    3.1532   -2.3726 H   0  0  0  0  0  0  0  0  0  0  0  0
    6.5241   -1.6598   -3.4512 H   0  0  0  0  0  0  0  0  0  0  0  0
    7.7951   -2.4862   -2.5463 H   0  0  0  0  0  0  0  0  0  0  0  0
    7.1952   -0.8744   -5.6413 H   0  0  0  0  0  0  0  0  0  0  0  0
    8.3710   -1.3714   -7.7416 H   0  0  0  0  0  0  0  0  0  0  0  0
   10.3755   -1.7956   -8.9952 H   0  0  0  0  0  0  0  0  0  0  0  0
   11.7048   -2.5296   -8.0672 H   0  0  0  0  0  0  0  0  0  0  0  0
   11.7471   -0.8008   -8.4531 H   0  0  0  0  0  0  0  0  0  0  0  0
   12.1502   -1.2023   -5.6812 H   0  0  0  0  0  0  0  0  0  0  0  0
   10.9747   -0.6984   -3.5703 H   0  0  0  0  0  0  0  0  0  0  0  0
    6.8161    0.9217   -3.9917 H   0  0  0  0  0  0  0  0  0  0  0  0
    8.2656    1.7300   -3.3943 H   0  0  0  0  0  0  0  0  0  0  0  0
    8.4390    0.7706    0.4616 H   0  0  0  0  0  0  0  0  0  0  0  0
    9.7806    1.2486    2.4778 H   0  0  0  0  0  0  0  0  0  0  0  0
    9.9719    1.7325    4.8243 H   0  0  0  0  0  0  0  0  0  0  0  0
    8.7566    0.8831    5.8077 H   0  0  0  0  0  0  0  0  0  0  0  0
    8.5948    2.6232    5.5159 H   0  0  0  0  0  0  0  0  0  0  0  0
    6.1766    1.4432    4.8282 H   0  0  0  0  0  0  0  0  0  0  0  0
    4.8378    0.9778    2.8106 H   0  0  0  0  0  0  0  0  0  0  0  0
  1  2  1  0
  1 37  1  0
  1 38  1  0
  1 39  1  0
  2  3  1  0
  2 40  1  0
  2 41  1  0
  3  4  2  0
  3  5  1  0
  5  6  1  0
  5 28  1  0
  6  7  2  0
  6 11  1  0
  7  8  1  0
  7 42  1  0
  8  9  2  0
  8 43  1  0
  9 10  1  0
  9 44  1  0
 10 11  2  0
 10 45  1  0
 11 12  1  0
 12 13  1  0
 12 46  1  0
 13 14  2  0
 13 27  1  0
 14 15  1  0
 14 28  1  0
 15 16  2  0
 15 17  1  0
 17 18  1  0
 17 47  1  0
 17 48  1  0
 18 19  1  1
 18 20  1  0
 18 27  1  0
 20 21  2  0
 20 26  1  0
 21 22  1  0
 21 49  1  0
 22 23  2  0
 22 50  1  0
 23 24  1  0
 23 25  1  0
 24 51  1  0
 24 52  1  0
 24 53  1  0
 25 26  2  0
 25 54  1  0
 26 55  1  0
 27 56  1  0
 27 57  1  0
 28 29  1  1
 28 30  1  0
 30 31  2  0
 30 36  1  0
 31 32  1  0
 31 58  1  0
 32 33  2  0
 32 59  1  0
 33 34  1  0
 33 35  1  0
 34 60  1  0
 34 61  1  0
 34 62  1  0
 35 36  2  0
 35 63  1  0
 36 64  1  0
M  END

