
     RDKit          3D

 56 57  0  0  0  0  0  0  0  0999 V2000
    1.1970   -3.9816   -6.1384 C   0  0  0  0  0  0  0  0  0  0  0  0
    1.7917   -2.8522   -5.3063 C   0  0  0  0  0  0  0  0  0  0  0  0
    1.4231   -1.6984   -5.4642 O   0  0  0  0  0  0  0  0  0  0  0  0
    2.7486   -3.1869   -4.3727 N   0  0  0  0  0  0  0  0  0  0  0  0
    3.3799   -2.1275   -3.5882 C   0  0  0  0  0  0  0  0  0  0  0  0
    3.4338   -2.5210   -2.1058 C   0  0  0  0  0  0  0  0  0  0  0  0
    4.0666   -3.8197   -1.8612 N   0  0  0  0  0  0  0  0  0  0  0  0
    5.5317   -3.8367   -1.9166 C   0  0  1  0  0  0  0  0  0  0  0  0
    6.1628   -2.7889   -0.9557 C   0  0  0  0  0  0  0  0  0  0  0  0
    7.4638   -3.3057   -0.5550 N   0  0  0  0  0  0  0  0  0  0  0  0
    8.6132   -2.8876   -1.3607 C   0  0  1  0  0  0  0  0  0  0  0  0
    8.8945   -1.3855   -1.1916 C   0  0  0  0  0  0  0  0  0  0  0  0
    9.8719   -3.6210   -0.8505 C   0  0  0  0  0  0  0  0  0  0  0  0
   10.1692   -3.5618    0.3339 O   0  0  0  0  0  0  0  0  0  0  0  0
   10.6810   -4.3125   -1.7276 N   0  0  0  0  0  0  0  0  0  0  0  0
   10.5140   -4.4817   -3.1651 C   0  0  0  0  0  0  0  0  0  0  0  0
   11.8741   -4.9222   -1.1447 C   0  0  0  0  0  0  0  0  0  0  0  0
   11.5740   -6.1772   -0.2970 C   0  0  0  0  0  0  0  0  0  0  0  0
   10.8302   -7.2050   -1.0275 C   0  0  0  0  0  0  0  0  0  0  0  0
   10.2213   -7.9868   -1.6292 N   0  0  0  0  0  0  0  0  0  0  0  0
    7.2251   -4.7399   -0.3839 C   0  0  0  0  0  0  0  0  0  0  0  0
    6.1596   -5.1816   -1.4359 C   0  0  2  0  0  0  0  0  0  0  0  0
    6.7521   -6.0369   -2.5609 C   0  0  0  0  0  0  0  0  0  0  0  0
    3.3789   -4.8348   -2.6525 C   0  0  0  0  0  0  0  0  0  0  0  0
    3.3059   -4.5173   -4.1587 C   0  0  0  0  0  0  0  0  0  0  0  0
    0.4711   -3.5310   -6.8256 H   0  0  0  0  0  0  0  0  0  0  0  0
    0.6799   -4.7261   -5.5123 H   0  0  0  0  0  0  0  0  0  0  0  0
    1.9656   -4.5106   -6.7240 H   0  0  0  0  0  0  0  0  0  0  0  0
    2.7950   -1.2115   -3.7400 H   0  0  0  0  0  0  0  0  0  0  0  0
    4.4009   -1.9376   -3.9741 H   0  0  0  0  0  0  0  0  0  0  0  0
    2.3988   -2.5743   -1.7234 H   0  0  0  0  0  0  0  0  0  0  0  0
    3.9425   -1.7350   -1.5301 H   0  0  0  0  0  0  0  0  0  0  0  0
    5.9134   -3.6314   -2.9422 H   0  0  0  0  0  0  0  0  0  0  0  0
    5.5113   -2.7148   -0.0654 H   0  0  0  0  0  0  0  0  0  0  0  0
    6.2440   -1.7847   -1.3914 H   0  0  0  0  0  0  0  0  0  0  0  0
    8.4565   -3.0837   -2.4393 H   0  0  0  0  0  0  0  0  0  0  0  0
    9.0749   -1.1728   -0.1285 H   0  0  0  0  0  0  0  0  0  0  0  0
    8.0528   -0.7718   -1.5432 H   0  0  0  0  0  0  0  0  0  0  0  0
    9.7837   -1.0909   -1.7720 H   0  0  0  0  0  0  0  0  0  0  0  0
    9.5762   -4.0379   -3.5108 H   0  0  0  0  0  0  0  0  0  0  0  0
   10.4989   -5.5508   -3.4309 H   0  0  0  0  0  0  0  0  0  0  0  0
   11.3402   -3.9978   -3.7161 H   0  0  0  0  0  0  0  0  0  0  0  0
   12.3676   -4.1948   -0.4836 H   0  0  0  0  0  0  0  0  0  0  0  0
   12.5642   -5.1737   -1.9629 H   0  0  0  0  0  0  0  0  0  0  0  0
   10.9860   -5.8697    0.5815 H   0  0  0  0  0  0  0  0  0  0  0  0
   12.5182   -6.6113    0.0718 H   0  0  0  0  0  0  0  0  0  0  0  0
    6.8292   -4.9062    0.6329 H   0  0  0  0  0  0  0  0  0  0  0  0
    8.1532   -5.3223   -0.4586 H   0  0  0  0  0  0  0  0  0  0  0  0
    5.3768   -5.7585   -0.9184 H   0  0  0  0  0  0  0  0  0  0  0  0
    7.5277   -5.4842   -3.1165 H   0  0  0  0  0  0  0  0  0  0  0  0
    5.9880   -6.3466   -3.2927 H   0  0  0  0  0  0  0  0  0  0  0  0
    7.2263   -6.9500   -2.1674 H   0  0  0  0  0  0  0  0  0  0  0  0
    2.3444   -4.9175   -2.2720 H   0  0  0  0  0  0  0  0  0  0  0  0
    3.8527   -5.8157   -2.5061 H   0  0  0  0  0  0  0  0  0  0  0  0
    2.6875   -5.2733   -4.6578 H   0  0  0  0  0  0  0  0  0  0  0  0
    4.3172   -4.5795   -4.6081 H   0  0  0  0  0  0  0  0  0  0  0  0
  1  2  1  0
  1 26  1  0
  1 27  1  0
  1 28  1  0
  2  3  2  0
  2  4  1  0
  4  5  1  0
  4 25  1  0
  5  6  1  0
  5 29  1  0
  5 30  1  0
  6  7  1  0
  6 31  1  0
  6 32  1  0
  7  8  1  0
  7 24  1  0
  8  9  1  0
  8 22  1  0
  8 33  1  6
  9 10  1  0
  9 34  1  0
  9 35  1  0
 10 11  1  0
 10 21  1  0
 11 12  1  0
 11 13  1  0
 11 36  1  6
 12 37  1  0
 12 38  1  0
 12 39  1  0
 13 14  2  0
 13 15  1  0
 15 16  1  0
 15 17  1  0
 16 40  1  0
 16 41  1  0
 16 42  1  0
 17 18  1  0
 17 43  1  0
 17 44  1  0
 18 19  1  0
 18 45  1  0
 18 46  1  0
 19 20  3  0
 21 22  1  0
 21 47  1  0
 21 48  1  0
 22 23  1  0
 22 49  1  1
 23 50  1  0
 23 51  1  0
 23 52  1  0
 24 25  1  0
 24 53  1  0
 24 54  1  0
 25 55  1  0
 25 56  1  0
M  END

