
     RDKit          3D

 40 41  0  0  0  0  0  0  0  0999 V2000
    2.6243    0.4618   -1.5713 C   0  0  0  0  0  0  0  0  0  0  0  0
    2.5441   -0.0644   -0.1356 C   0  0  0  0  0  0  0  0  0  0  0  0
    3.1067   -1.4817    0.0995 C   0  0  1  0  0  0  0  0  0  0  0  0
    4.5974   -1.6070   -0.3185 C   0  0  0  0  0  0  0  0  0  0  0  0
    5.5781   -0.6466    0.3583 C   0  0  0  0  0  0  0  0  0  0  0  0
    2.8951   -1.9337    1.5689 C   0  0  0  0  0  0  0  0  0  0  0  0
    2.9017   -3.4658    1.5235 C   0  0  0  0  0  0  0  0  0  0  0  0
    2.4590   -3.7713    0.1586 N   0  0  0  0  0  0  0  0  0  0  0  0
    2.3127   -5.0632   -0.2312 C   0  0  0  0  0  0  0  0  0  0  0  0
    2.5214   -6.0054    0.5225 O   0  0  0  0  0  0  0  0  0  0  0  0
    1.9057   -5.3228   -1.6928 C   0  0  0  0  0  0  0  0  0  0  0  0
    3.0535   -5.3221   -2.5815 N   0  0  0  0  0  0  0  0  0  0  0  0
    4.0775   -6.2331   -2.5945 C   0  0  0  0  0  0  0  0  0  0  0  0
    4.9672   -5.8137   -3.5774 C   0  0  0  0  0  0  0  0  0  0  0  0
    6.1966   -6.3730   -3.9370 N   0  0  0  0  0  0  0  0  0  0  0  0
    4.3757   -4.6283   -4.0921 C   0  0  0  0  0  0  0  0  0  0  0  0
    3.2240   -4.3486   -3.4798 N   0  0  0  0  0  0  0  0  0  0  0  0
    2.2863   -2.5604   -0.6518 C   0  0  0  0  0  0  0  0  0  0  0  0
    2.1456    1.4510   -1.6487 H   0  0  0  0  0  0  0  0  0  0  0  0
    2.1126   -0.2063   -2.2832 H   0  0  0  0  0  0  0  0  0  0  0  0
    3.6641    0.5754   -1.9157 H   0  0  0  0  0  0  0  0  0  0  0  0
    1.4881   -0.0620    0.1885 H   0  0  0  0  0  0  0  0  0  0  0  0
    3.0594    0.6390    0.5409 H   0  0  0  0  0  0  0  0  0  0  0  0
    4.6630   -1.4769   -1.4115 H   0  0  0  0  0  0  0  0  0  0  0  0
    4.9251   -2.6443   -0.1369 H   0  0  0  0  0  0  0  0  0  0  0  0
    5.3655    0.4065    0.1148 H   0  0  0  0  0  0  0  0  0  0  0  0
    6.6081   -0.8547    0.0276 H   0  0  0  0  0  0  0  0  0  0  0  0
    5.5666   -0.7403    1.4563 H   0  0  0  0  0  0  0  0  0  0  0  0
    1.9144   -1.5712    1.9199 H   0  0  0  0  0  0  0  0  0  0  0  0
    3.6517   -1.5318    2.2584 H   0  0  0  0  0  0  0  0  0  0  0  0
    2.2305   -3.9293    2.2637 H   0  0  0  0  0  0  0  0  0  0  0  0
    3.9024   -3.8967    1.6980 H   0  0  0  0  0  0  0  0  0  0  0  0
    1.2007   -4.5810   -2.0879 H   0  0  0  0  0  0  0  0  0  0  0  0
    1.4304   -6.3142   -1.7043 H   0  0  0  0  0  0  0  0  0  0  0  0
    4.0952   -7.0736   -1.9047 H   0  0  0  0  0  0  0  0  0  0  0  0
    6.2737   -7.3651   -3.7347 H   0  0  0  0  0  0  0  0  0  0  0  0
    6.4553   -6.1954   -4.9030 H   0  0  0  0  0  0  0  0  0  0  0  0
    4.7481   -3.9794   -4.8851 H   0  0  0  0  0  0  0  0  0  0  0  0
    1.2192   -2.2654   -0.6910 H   0  0  0  0  0  0  0  0  0  0  0  0
    2.6332   -2.7176   -1.6822 H   0  0  0  0  0  0  0  0  0  0  0  0
  1  2  1  0
  1 19  1  0
  1 20  1  0
  1 21  1  0
  3  2  1  1
  2 22  1  0
  2 23  1  0
  3  4  1  0
  3  6  1  0
  3 18  1  0
  4  5  1  0
  4 24  1  0
  4 25  1  0
  5 26  1  0
  5 27  1  0
  5 28  1  0
  6  7  1  0
  6 29  1  0
  6 30  1  0
  7  8  1  0
  7 31  1  0
  7 32  1  0
  8  9  1  0
  8 18  1  0
  9 10  2  0
  9 11  1  0
 11 12  1  0
 11 33  1  0
 11 34  1  0
 12 13  1  0
 12 17  1  0
 13 14  2  0
 13 35  1  0
 14 15  1  0
 14 16  1  0
 15 36  1  0
 15 37  1  0
 16 17  2  0
 16 38  1  0
 18 39  1  0
 18 40  1  0
M  END

