
     RDKit          3D

 30 30  0  0  0  0  0  0  0  0999 V2000
    1.0534   -0.5249    5.1821 C   0  0  0  0  0  0  0  0  0  0  0  0
    2.5230   -0.1875    4.9485 C   0  0  0  0  0  0  0  0  0  0  0  0
    3.3405   -1.6590    4.2561 S   0  0  1  0  0  0  0  0  0  0  0  0
    3.2551   -2.7282    5.2603 O   0  0  0  0  0  0  0  0  0  0  0  0
    2.7482   -1.8631    2.9092 O   0  0  0  0  0  0  0  0  0  0  0  0
    5.1798   -1.3505    3.9945 C   0  0  2  0  0  0  0  0  0  0  0  0
    5.6345   -1.9525    4.7908 H   0  0  0  0  0  0  0  0  0  0  0  0
    5.8203    0.7052    4.3765 I   0  0  0  0  0  0  0  0  0  0  0  0
    5.5940   -1.8723    2.5869 C   0  0  2  0  0  0  0  0  0  0  0  0
    5.1540   -1.1913    1.8366 H   0  0  0  0  0  0  0  0  0  0  0  0
    5.0998   -3.1828    2.4451 O   0  0  0  0  0  0  0  0  0  0  0  0
    7.1031   -1.9037    2.4211 C   0  0  0  0  0  0  0  0  0  0  0  0
    7.8555   -2.8757    3.0974 C   0  0  0  0  0  0  0  0  0  0  0  0
    9.2424   -2.8959    2.9367 C   0  0  0  0  0  0  0  0  0  0  0  0
    9.8853   -1.9692    2.1156 C   0  0  0  0  0  0  0  0  0  0  0  0
    9.1413   -0.9953    1.4215 C   0  0  0  0  0  0  0  0  0  0  0  0
    9.7595   -0.1061    0.5543 N   0  0  0  0  0  0  0  0  0  0  0  0
    7.7416   -0.9820    1.5885 C   0  0  0  0  0  0  0  0  0  0  0  0
    0.5432    0.3522    5.6087 H   0  0  0  0  0  0  0  0  0  0  0  0
    0.9521   -1.3654    5.8835 H   0  0  0  0  0  0  0  0  0  0  0  0
    0.5587   -0.7931    4.2376 H   0  0  0  0  0  0  0  0  0  0  0  0
    3.0537    0.0575    5.8791 H   0  0  0  0  0  0  0  0  0  0  0  0
    2.6633    0.6259    4.2240 H   0  0  0  0  0  0  0  0  0  0  0  0
    4.1379   -3.1077    2.3110 H   0  0  0  0  0  0  0  0  0  0  0  0
    7.3549   -3.6212    3.7177 H   0  0  0  0  0  0  0  0  0  0  0  0
    9.8378   -3.6507    3.4574 H   0  0  0  0  0  0  0  0  0  0  0  0
   10.9724   -2.0016    1.9980 H   0  0  0  0  0  0  0  0  0  0  0  0
   10.7521    0.0443    0.6900 H   0  0  0  0  0  0  0  0  0  0  0  0
    9.2532    0.7440    0.3364 H   0  0  0  0  0  0  0  0  0  0  0  0
    7.1481   -0.2376    1.0497 H   0  0  0  0  0  0  0  0  0  0  0  0
  1  2  1  0
  1 19  1  0
  1 20  1  0
  1 21  1  0
  3  2  1  1
  2 22  1  0
  2 23  1  0
  3  4  2  0
  3  5  2  0
  3  6  1  0
  6  7  1  1
  6  8  1  0
  6  9  1  0
  9 10  1  6
  9 11  1  0
  9 12  1  0
 11 24  1  0
 12 13  2  0
 12 18  1  0
 13 14  1  0
 13 25  1  0
 14 15  2  0
 14 26  1  0
 15 16  1  0
 15 27  1  0
 16 17  1  0
 16 18  2  0
 17 28  1  0
 17 29  1  0
 18 30  1  0
M  END

