
     RDKit          3D

 56 59  0  0  0  0  0  0  0  0999 V2000
    1.8511   -2.3033    4.7097 N   0  0  0  0  0  0  0  0  0  0  0  0
    2.6859   -1.9410    3.9885 C   0  0  0  0  0  0  0  0  0  0  0  0
    3.7212   -1.4900    3.1003 C   0  0  0  0  0  0  0  0  0  0  0  0
    3.4059   -1.0642    1.7972 C   0  0  0  0  0  0  0  0  0  0  0  0
    4.4142   -0.6172    0.9448 C   0  0  0  0  0  0  0  0  0  0  0  0
    5.7519   -0.5850    1.3675 C   0  0  0  0  0  0  0  0  0  0  0  0
    6.8323   -0.1042    0.4057 C   0  0  1  0  0  0  0  0  0  0  0  0
    7.6829    0.9155    1.0770 N   0  0  0  0  0  0  0  0  0  0  0  0
    8.3710    1.8134    0.2318 C   0  0  0  0  0  0  0  0  0  0  0  0
    8.4363    1.6481   -0.9689 O   0  0  0  0  0  0  0  0  0  0  0  0
    8.9816    2.8406    0.9217 N   0  0  0  0  0  0  0  0  0  0  0  0
    9.7906    3.8710    0.4025 C   0  0  0  0  0  0  0  0  0  0  0  0
   10.3031    4.8173    1.3087 C   0  0  0  0  0  0  0  0  0  0  0  0
   11.1263    5.8500    0.8646 C   0  0  0  0  0  0  0  0  0  0  0  0
   11.4540    5.9637   -0.4884 C   0  0  0  0  0  0  0  0  0  0  0  0
   10.9391    5.0254   -1.3877 C   0  0  0  0  0  0  0  0  0  0  0  0
   11.2351    5.1475   -2.8647 C   0  0  1  0  0  0  0  0  0  0  0  0
   12.3799    5.8143   -3.0920 F   0  0  0  0  0  0  0  0  0  0  0  0
   11.3451    3.9433   -3.4550 F   0  0  0  0  0  0  0  0  0  0  0  0
   10.2576    5.8111   -3.5097 F   0  0  0  0  0  0  0  0  0  0  0  0
   10.1122    3.9826   -0.9594 C   0  0  0  0  0  0  0  0  0  0  0  0
    7.6458   -1.2624   -0.1584 C   0  0  0  0  0  0  0  0  0  0  0  0
    8.8196   -1.7159    0.3740 C   0  0  0  0  0  0  0  0  0  0  0  0
    9.4000   -1.1724    1.4539 O   0  0  0  0  0  0  0  0  0  0  0  0
    9.5803   -2.8864   -0.1810 C   0  0  0  0  0  0  0  0  0  0  0  0
    9.3283   -3.1084   -1.6890 C   0  0  2  0  0  0  0  0  0  0  0  0
   10.1179   -2.1483   -2.5569 C   0  0  0  0  0  0  0  0  0  0  0  0
    9.9693   -0.7960   -2.7728 C   0  0  0  0  0  0  0  0  0  0  0  0
   10.9659   -0.2510   -3.6411 C   0  0  0  0  0  0  0  0  0  0  0  0
   11.8633   -1.1899   -4.0812 C   0  0  0  0  0  0  0  0  0  0  0  0
   11.4988   -2.7532   -3.4383 S   0  0  0  0  0  0  0  0  0  0  0  0
    7.8125   -3.0855   -1.9586 C   0  0  0  0  0  0  0  0  0  0  0  0
    7.0721   -1.8997   -1.3536 C   0  0  0  0  0  0  0  0  0  0  0  0
    6.0101   -1.5210   -1.8297 O   0  0  0  0  0  0  0  0  0  0  0  0
    6.0626   -1.0336    2.6640 C   0  0  0  0  0  0  0  0  0  0  0  0
    5.0625   -1.4751    3.5271 C   0  0  0  0  0  0  0  0  0  0  0  0
    2.3684   -1.0849    1.4584 H   0  0  0  0  0  0  0  0  0  0  0  0
    4.1701   -0.3077   -0.0731 H   0  0  0  0  0  0  0  0  0  0  0  0
    6.3346    0.3577   -0.4581 H   0  0  0  0  0  0  0  0  0  0  0  0
    7.2117    1.3591    1.8638 H   0  0  0  0  0  0  0  0  0  0  0  0
    8.9089    2.8233    1.9323 H   0  0  0  0  0  0  0  0  0  0  0  0
   10.0572    4.7390    2.3721 H   0  0  0  0  0  0  0  0  0  0  0  0
   11.5192    6.5717    1.5844 H   0  0  0  0  0  0  0  0  0  0  0  0
   12.1053    6.7646   -0.8402 H   0  0  0  0  0  0  0  0  0  0  0  0
    9.7260    3.2533   -1.6659 H   0  0  0  0  0  0  0  0  0  0  0  0
    8.9250   -0.3330    1.6489 H   0  0  0  0  0  0  0  0  0  0  0  0
    9.2800   -3.7884    0.3852 H   0  0  0  0  0  0  0  0  0  0  0  0
   10.6500   -2.7307    0.0232 H   0  0  0  0  0  0  0  0  0  0  0  0
    9.6891   -4.1214   -1.9270 H   0  0  0  0  0  0  0  0  0  0  0  0
    9.1861   -0.1876   -2.3203 H   0  0  0  0  0  0  0  0  0  0  0  0
   11.0116    0.8036   -3.9194 H   0  0  0  0  0  0  0  0  0  0  0  0
   12.7124   -1.0540   -4.7494 H   0  0  0  0  0  0  0  0  0  0  0  0
    7.3534   -3.9899   -1.5165 H   0  0  0  0  0  0  0  0  0  0  0  0
    7.5844   -3.1097   -3.0335 H   0  0  0  0  0  0  0  0  0  0  0  0
    7.1010   -1.0592    3.0028 H   0  0  0  0  0  0  0  0  0  0  0  0
    5.3134   -1.8186    4.5325 H   0  0  0  0  0  0  0  0  0  0  0  0
  1  2  3  0
  2  3  1  0
  3  4  2  0
  3 36  1  0
  4  5  1  0
  4 37  1  0
  5  6  2  0
  5 38  1  0
  6  7  1  0
  6 35  1  0
  7  8  1  0
  7 22  1  0
  7 39  1  6
  8  9  1  0
  8 40  1  0
  9 10  2  0
  9 11  1  0
 11 12  1  0
 11 41  1  0
 12 13  2  0
 12 21  1  0
 13 14  1  0
 13 42  1  0
 14 15  2  0
 14 43  1  0
 15 16  1  0
 15 44  1  0
 16 17  1  0
 16 21  2  0
 17 18  1  1
 17 19  1  0
 17 20  1  0
 21 45  1  0
 22 23  2  0
 22 33  1  0
 23 24  1  0
 23 25  1  0
 24 46  1  0
 25 26  1  0
 25 47  1  0
 25 48  1  0
 26 27  1  0
 26 32  1  0
 26 49  1  6
 27 28  2  0
 27 31  1  0
 28 29  1  0
 28 50  1  0
 29 30  2  0
 29 51  1  0
 30 31  1  0
 30 52  1  0
 32 33  1  0
 32 53  1  0
 32 54  1  0
 33 34  2  0
 35 36  2  0
 35 55  1  0
 36 56  1  0
M  END

