
     RDKit          3D

 34 34  0  0  0  0  0  0  0  0999 V2000
    1.0458   -0.4603    0.6109 C   0  0  0  0  0  0  0  0  0  0  0  0
    2.4324   -0.0472    0.1587 C   0  0  0  0  0  0  0  0  0  0  0  0
    3.0903   -1.1933   -0.3684 O   0  0  0  0  0  0  0  0  0  0  0  0
    4.3630   -1.0893   -0.8431 C   0  0  0  0  0  0  0  0  0  0  0  0
    5.1038    0.0939   -0.8610 C   0  0  0  0  0  0  0  0  0  0  0  0
    6.4025    0.0667   -1.3748 C   0  0  0  0  0  0  0  0  0  0  0  0
    7.1039    1.2126   -1.3859 F   0  0  0  0  0  0  0  0  0  0  0  0
    6.9743   -1.0971   -1.8657 C   0  0  0  0  0  0  0  0  0  0  0  0
    6.2282   -2.2825   -1.8466 C   0  0  0  0  0  0  0  0  0  0  0  0
    4.9240   -2.2964   -1.3394 C   0  0  0  0  0  0  0  0  0  0  0  0
    4.1025   -3.4362   -1.2802 N   0  0  0  0  0  0  0  0  0  0  0  0
    4.3805   -4.7201   -1.6692 C   0  0  0  0  0  0  0  0  0  0  0  0
    5.4336   -5.0732   -2.1766 O   0  0  0  0  0  0  0  0  0  0  0  0
    3.2562   -5.7405   -1.3789 C   0  0  1  0  0  0  0  0  0  0  0  0
    3.3270   -6.8908   -2.2645 N   0  0  0  0  0  0  0  0  0  0  0  0
    3.3354   -6.1860    0.0985 C   0  0  0  0  0  0  0  0  0  0  0  0
    2.2001   -7.1219    0.5093 C   0  0  0  0  0  0  0  0  0  0  0  0
    0.5094    0.4075    1.0245 H   0  0  0  0  0  0  0  0  0  0  0  0
    1.1026   -1.2352    1.3907 H   0  0  0  0  0  0  0  0  0  0  0  0
    0.4609   -0.8578   -0.2329 H   0  0  0  0  0  0  0  0  0  0  0  0
    3.0178    0.3603    1.0035 H   0  0  0  0  0  0  0  0  0  0  0  0
    2.3764    0.7380   -0.6177 H   0  0  0  0  0  0  0  0  0  0  0  0
    4.7066    1.0367   -0.4889 H   0  0  0  0  0  0  0  0  0  0  0  0
    7.9918   -1.0769   -2.2591 H   0  0  0  0  0  0  0  0  0  0  0  0
    6.6467   -3.2124   -2.2250 H   0  0  0  0  0  0  0  0  0  0  0  0
    3.1854   -3.2552   -0.8857 H   0  0  0  0  0  0  0  0  0  0  0  0
    2.2801   -5.2436   -1.5340 H   0  0  0  0  0  0  0  0  0  0  0  0
    4.3068   -7.1823   -2.3152 H   0  0  0  0  0  0  0  0  0  0  0  0
    3.0896   -6.6089   -3.2160 H   0  0  0  0  0  0  0  0  0  0  0  0
    3.3474   -5.2909    0.7443 H   0  0  0  0  0  0  0  0  0  0  0  0
    4.3111   -6.6819    0.2489 H   0  0  0  0  0  0  0  0  0  0  0  0
    1.2213   -6.6178    0.4370 H   0  0  0  0  0  0  0  0  0  0  0  0
    2.3241   -7.4649    1.5487 H   0  0  0  0  0  0  0  0  0  0  0  0
    2.1715   -8.0000   -0.1514 H   0  0  0  0  0  0  0  0  0  0  0  0
  1  2  1  0
  1 18  1  0
  1 19  1  0
  1 20  1  0
  2  3  1  0
  2 21  1  0
  2 22  1  0
  3  4  1  0
  4  5  2  0
  4 10  1  0
  5  6  1  0
  5 23  1  0
  6  7  1  0
  6  8  2  0
  8  9  1  0
  8 24  1  0
  9 10  2  0
  9 25  1  0
 10 11  1  0
 11 12  1  0
 11 26  1  0
 12 13  2  0
 12 14  1  0
 14 15  1  0
 14 16  1  0
 14 27  1  1
 15 28  1  0
 15 29  1  0
 16 17  1  0
 16 30  1  0
 16 31  1  0
 17 32  1  0
 17 33  1  0
 17 34  1  0
M  END

