
     RDKit          3D

 58 60  0  0  0  0  0  0  0  0999 V2000
    3.1564   -0.9589    2.7083 C   0  0  0  0  0  0  0  0  0  0  0  0
    3.7450   -0.5307    1.4494 N   0  0  0  0  0  0  0  0  0  0  0  0
    3.4918   -1.3408    0.2673 C   0  0  0  0  0  0  0  0  0  0  0  0
    4.7039   -2.1820   -0.2079 C   0  0  1  0  0  0  0  0  0  0  0  0
    5.1422   -3.2935    0.7587 C   0  0  0  0  0  0  0  0  0  0  0  0
    4.2031   -4.5061    0.7140 C   0  0  0  0  0  0  0  0  0  0  0  0
    4.0198   -4.9654   -0.7373 C   0  0  0  0  0  0  0  0  0  0  0  0
    3.5808   -3.7911   -1.6102 C   0  0  0  0  0  0  0  0  0  0  0  0
    4.4726   -2.6899   -1.5178 O   0  0  0  0  0  0  0  0  0  0  0  0
    4.2826    0.7503    1.3921 C   0  0  0  0  0  0  0  0  0  0  0  0
    4.3505    1.4742    2.3805 O   0  0  0  0  0  0  0  0  0  0  0  0
    4.7169    1.1739    0.1530 N   0  0  0  0  0  0  0  0  0  0  0  0
    5.3975    2.4583    0.0084 C   0  0  0  0  0  0  0  0  0  0  0  0
    6.8986    2.4053    0.1908 C   0  0  0  0  0  0  0  0  0  0  0  0
    7.4919    2.2025    1.4523 C   0  0  0  0  0  0  0  0  0  0  0  0
    8.8710    2.1424    1.5768 C   0  0  0  0  0  0  0  0  0  0  0  0
    9.6759    2.3001    0.4133 C   0  0  0  0  0  0  0  0  0  0  0  0
   11.0548    2.2906    0.4655 N   0  0  0  0  0  0  0  0  0  0  0  0
   11.8501    2.3766   -0.7564 C   0  0  0  0  0  0  0  0  0  0  0  0
   12.2681    1.0158   -1.3285 C   0  0  0  0  0  0  0  0  0  0  0  0
   12.9805    0.0687   -0.3482 C   0  0  0  0  0  0  0  0  0  0  0  0
   12.0938   -0.4426    0.8039 C   0  0  0  0  0  0  0  0  0  0  0  0
   11.9303    0.4889    2.0202 C   0  0  0  0  0  0  0  0  0  0  0  0
   11.7859    1.9889    1.6838 C   0  0  0  0  0  0  0  0  0  0  0  0
    9.1085    2.4807   -0.7908 N   0  0  0  0  0  0  0  0  0  0  0  0
    7.7804    2.5338   -0.8851 C   0  0  0  0  0  0  0  0  0  0  0  0
    3.4819   -1.9782    2.9727 H   0  0  0  0  0  0  0  0  0  0  0  0
    2.0509   -0.9525    2.6625 H   0  0  0  0  0  0  0  0  0  0  0  0
    3.4748   -0.2646    3.4940 H   0  0  0  0  0  0  0  0  0  0  0  0
    3.1781   -0.7061   -0.5786 H   0  0  0  0  0  0  0  0  0  0  0  0
    2.6331   -1.9930    0.4878 H   0  0  0  0  0  0  0  0  0  0  0  0
    5.5528   -1.4888   -0.3285 H   0  0  0  0  0  0  0  0  0  0  0  0
    5.2320   -2.8831    1.7769 H   0  0  0  0  0  0  0  0  0  0  0  0
    6.1540   -3.6169    0.4604 H   0  0  0  0  0  0  0  0  0  0  0  0
    3.2191   -4.2484    1.1468 H   0  0  0  0  0  0  0  0  0  0  0  0
    4.6060   -5.3219    1.3362 H   0  0  0  0  0  0  0  0  0  0  0  0
    3.2791   -5.7795   -0.8108 H   0  0  0  0  0  0  0  0  0  0  0  0
    4.9760   -5.3598   -1.1239 H   0  0  0  0  0  0  0  0  0  0  0  0
    2.5485   -3.4887   -1.3379 H   0  0  0  0  0  0  0  0  0  0  0  0
    3.5624   -4.0708   -2.6748 H   0  0  0  0  0  0  0  0  0  0  0  0
    4.8758    0.4967   -0.5808 H   0  0  0  0  0  0  0  0  0  0  0  0
    4.9482    3.1316    0.7513 H   0  0  0  0  0  0  0  0  0  0  0  0
    5.1625    2.8575   -0.9917 H   0  0  0  0  0  0  0  0  0  0  0  0
    6.8515    2.0884    2.3312 H   0  0  0  0  0  0  0  0  0  0  0  0
    9.3168    1.9788    2.5572 H   0  0  0  0  0  0  0  0  0  0  0  0
   12.7502    2.9736   -0.5236 H   0  0  0  0  0  0  0  0  0  0  0  0
   11.2643    2.9237   -1.5049 H   0  0  0  0  0  0  0  0  0  0  0  0
   12.9219    1.2021   -2.1994 H   0  0  0  0  0  0  0  0  0  0  0  0
   11.3676    0.5113   -1.7203 H   0  0  0  0  0  0  0  0  0  0  0  0
   13.8932    0.5484    0.0541 H   0  0  0  0  0  0  0  0  0  0  0  0
   13.3361   -0.8034   -0.9226 H   0  0  0  0  0  0  0  0  0  0  0  0
   12.4917   -1.4039    1.1704 H   0  0  0  0  0  0  0  0  0  0  0  0
   11.0972   -0.6748    0.3895 H   0  0  0  0  0  0  0  0  0  0  0  0
   12.8004    0.3871    2.6930 H   0  0  0  0  0  0  0  0  0  0  0  0
   11.0589    0.1459    2.6030 H   0  0  0  0  0  0  0  0  0  0  0  0
   12.7892    2.4248    1.5574 H   0  0  0  0  0  0  0  0  0  0  0  0
   11.3385    2.5233    2.5379 H   0  0  0  0  0  0  0  0  0  0  0  0
    7.3809    2.6925   -1.8969 H   0  0  0  0  0  0  0  0  0  0  0  0
  1  2  1  0
  1 27  1  0
  1 28  1  0
  1 29  1  0
  2  3  1  0
  2 10  1  0
  3  4  1  0
  3 30  1  0
  3 31  1  0
  4  5  1  0
  4  9  1  0
  4 32  1  6
  5  6  1  0
  5 33  1  0
  5 34  1  0
  6  7  1  0
  6 35  1  0
  6 36  1  0
  7  8  1  0
  7 37  1  0
  7 38  1  0
  8  9  1  0
  8 39  1  0
  8 40  1  0
 10 11  2  0
 10 12  1  0
 12 13  1  0
 12 41  1  0
 13 14  1  0
 13 42  1  0
 13 43  1  0
 14 15  2  0
 14 26  1  0
 15 16  1  0
 15 44  1  0
 16 17  2  0
 16 45  1  0
 17 18  1  0
 17 25  1  0
 18 19  1  0
 18 24  1  0
 19 20  1  0
 19 46  1  0
 19 47  1  0
 20 21  1  0
 20 48  1  0
 20 49  1  0
 21 22  1  0
 21 50  1  0
 21 51  1  0
 22 23  1  0
 22 52  1  0
 22 53  1  0
 23 24  1  0
 23 54  1  0
 23 55  1  0
 24 56  1  0
 24 57  1  0
 25 26  2  0
 26 58  1  0
M  END

