
     RDKit          3D

 52 56  0  0  0  0  0  0  0  0999 V2000
    0.9538   -0.0059   -0.3504 C   0  0  0  0  0  0  0  0  0  0  0  0
    0.0634    0.9183   -0.7780 C   0  0  0  0  0  0  0  0  0  0  0  0
   -1.3878    0.7774   -0.6410 C   0  0  0  0  0  0  0  0  0  0  0  0
   -2.1249    1.8257   -1.1376 N   0  0  0  0  0  0  0  0  0  0  0  0
   -3.4279    1.7470   -1.0390 C   0  0  0  0  0  0  0  0  0  0  0  0
   -4.0966    0.6389   -0.4486 C   0  0  0  0  0  0  0  0  0  0  0  0
   -5.5044    0.5221   -0.3258 C   0  0  0  0  0  0  0  0  0  0  0  0
   -6.0527   -0.5982    0.2651 C   0  0  0  0  0  0  0  0  0  0  0  0
   -5.2095   -1.6338    0.7503 C   0  0  0  0  0  0  0  0  0  0  0  0
   -3.8372   -1.5446    0.6431 C   0  0  0  0  0  0  0  0  0  0  0  0
   -3.2422   -0.4006    0.0381 C   0  0  0  0  0  0  0  0  0  0  0  0
   -1.8965   -0.3054   -0.0710 N   0  0  0  0  0  0  0  0  0  0  0  0
    2.4085    0.0517   -0.4472 C   0  0  0  0  0  0  0  0  0  0  0  0
    3.1116    1.1205   -1.0468 C   0  0  0  0  0  0  0  0  0  0  0  0
    4.4978    1.1288   -1.1191 C   0  0  0  0  0  0  0  0  0  0  0  0
    5.2581    0.0666   -0.5823 C   0  0  0  0  0  0  0  0  0  0  0  0
    6.6685    0.0780   -0.6540 N   0  0  0  0  0  0  0  0  0  0  0  0
    7.3855    1.2976   -0.5078 C   0  0  0  0  0  0  0  0  0  0  0  0
    7.0401    2.2163    0.4998 C   0  0  0  0  0  0  0  0  0  0  0  0
    7.7459    3.4130    0.6352 C   0  0  0  0  0  0  0  0  0  0  0  0
    8.8160    3.7076   -0.2158 C   0  0  0  0  0  0  0  0  0  0  0  0
    9.1691    2.7920   -1.2124 C   0  0  0  0  0  0  0  0  0  0  0  0
    8.4582    1.6006   -1.3656 C   0  0  0  0  0  0  0  0  0  0  0  0
    7.3873   -1.1314   -0.8637 C   0  0  0  0  0  0  0  0  0  0  0  0
    6.9649   -2.0568   -1.8354 C   0  0  0  0  0  0  0  0  0  0  0  0
    7.6732   -3.2427   -2.0350 C   0  0  0  0  0  0  0  0  0  0  0  0
    8.8213   -3.5201   -1.2856 C   0  0  0  0  0  0  0  0  0  0  0  0
    9.2502   -2.5981   -0.3255 C   0  0  0  0  0  0  0  0  0  0  0  0
    8.5383   -1.4172   -0.1078 C   0  0  0  0  0  0  0  0  0  0  0  0
    4.5694   -1.0031    0.0214 C   0  0  0  0  0  0  0  0  0  0  0  0
    3.1793   -1.0064    0.0780 C   0  0  0  0  0  0  0  0  0  0  0  0
    0.5372   -0.9007    0.1240 H   0  0  0  0  0  0  0  0  0  0  0  0
    0.3757    1.8468   -1.2609 H   0  0  0  0  0  0  0  0  0  0  0  0
   -4.0177    2.5856   -1.4361 H   0  0  0  0  0  0  0  0  0  0  0  0
   -6.1424    1.3265   -0.7035 H   0  0  0  0  0  0  0  0  0  0  0  0
   -7.1366   -0.6949    0.3631 H   0  0  0  0  0  0  0  0  0  0  0  0
   -5.6607   -2.5142    1.2156 H   0  0  0  0  0  0  0  0  0  0  0  0
   -3.1754   -2.3311    1.0107 H   0  0  0  0  0  0  0  0  0  0  0  0
    2.5596    1.9568   -1.4810 H   0  0  0  0  0  0  0  0  0  0  0  0
    5.0091    1.9630   -1.6022 H   0  0  0  0  0  0  0  0  0  0  0  0
    6.2153    1.9858    1.1768 H   0  0  0  0  0  0  0  0  0  0  0  0
    7.4636    4.1154    1.4238 H   0  0  0  0  0  0  0  0  0  0  0  0
    9.3704    4.6422   -0.1028 H   0  0  0  0  0  0  0  0  0  0  0  0
    9.9998    3.0114   -1.8884 H   0  0  0  0  0  0  0  0  0  0  0  0
    8.7305    0.8956   -2.1533 H   0  0  0  0  0  0  0  0  0  0  0  0
    6.0778   -1.8396   -2.4335 H   0  0  0  0  0  0  0  0  0  0  0  0
    7.3306   -3.9502   -2.7947 H   0  0  0  0  0  0  0  0  0  0  0  0
    9.3772   -4.4463   -1.4492 H   0  0  0  0  0  0  0  0  0  0  0  0
   10.1425   -2.8040    0.2715 H   0  0  0  0  0  0  0  0  0  0  0  0
    8.8712   -0.7071    0.6516 H   0  0  0  0  0  0  0  0  0  0  0  0
    5.1326   -1.8332    0.4509 H   0  0  0  0  0  0  0  0  0  0  0  0
    2.6684   -1.8466    0.5563 H   0  0  0  0  0  0  0  0  0  0  0  0
  1  2  2  0
  1 13  1  0
  1 32  1  0
  2  3  1  0
  2 33  1  0
  3  4  2  0
  3 12  1  0
  4  5  1  0
  5  6  2  0
  5 34  1  0
  6  7  1  0
  6 11  1  0
  7  8  2  0
  7 35  1  0
  8  9  1  0
  8 36  1  0
  9 10  2  0
  9 37  1  0
 10 11  1  0
 10 38  1  0
 11 12  2  0
 13 14  2  0
 13 31  1  0
 14 15  1  0
 14 39  1  0
 15 16  2  0
 15 40  1  0
 16 17  1  0
 16 30  1  0
 17 18  1  0
 17 24  1  0
 18 19  2  0
 18 23  1  0
 19 20  1  0
 19 41  1  0
 20 21  2  0
 20 42  1  0
 21 22  1  0
 21 43  1  0
 22 23  2  0
 22 44  1  0
 23 45  1  0
 24 25  2  0
 24 29  1  0
 25 26  1  0
 25 46  1  0
 26 27  2  0
 26 47  1  0
 27 28  1  0
 27 48  1  0
 28 29  2  0
 28 49  1  0
 29 50  1  0
 30 31  2  0
 30 51  1  0
 31 52  1  0
M  END

