
     RDKit          3D

 60 63  0  0  0  0  0  0  0  0999 V2000
    0.5051   -3.9763    2.8810 C   0  0  0  0  0  0  0  0  0  0  0  0
    1.7499   -4.1045    2.1469 N   0  0  0  0  0  0  0  0  0  0  0  0
    1.5223   -4.2546    0.7212 C   0  0  0  0  0  0  0  0  0  0  0  0
    2.7144   -3.0673    2.4751 C   0  0  0  0  0  0  0  0  0  0  0  0
    4.1493   -3.5202    2.2278 C   0  0  0  0  0  0  0  0  0  0  0  0
    4.9974   -2.4366    2.6176 O   0  0  0  0  0  0  0  0  0  0  0  0
    6.3223   -2.5669    2.4834 C   0  0  0  0  0  0  0  0  0  0  0  0
    7.1227   -1.4745    2.8752 C   0  0  0  0  0  0  0  0  0  0  0  0
    8.5049   -1.6442    2.7173 C   0  0  0  0  0  0  0  0  0  0  0  0
    9.3615   -0.5156    3.1106 C   0  0  0  0  0  0  0  0  0  0  0  0
   10.7036   -0.3450    3.2179 C   0  0  0  0  0  0  0  0  0  0  0  0
   11.3271    1.2583    3.7022 S   0  0  0  0  0  0  0  0  0  0  0  0
   13.0456    0.7165    3.6076 C   0  0  0  0  0  0  0  0  0  0  0  0
   14.0031    1.4033    3.8325 O   0  0  0  0  0  0  0  0  0  0  0  0
   13.0522   -0.6139    3.2369 N   0  0  0  0  0  0  0  0  0  0  0  0
   11.8539   -1.3023    3.0217 C   0  0  0  0  0  0  0  0  0  0  0  0
   11.8332   -2.4754    2.7444 O   0  0  0  0  0  0  0  0  0  0  0  0
    9.0253   -2.7692    2.2160 N   0  0  0  0  0  0  0  0  0  0  0  0
    8.1789   -3.7505    1.8849 C   0  0  0  0  0  0  0  0  0  0  0  0
    8.7155   -4.9125    1.4010 N   0  0  0  0  0  0  0  0  0  0  0  0
   10.1530   -5.0707    1.1943 C   0  0  0  0  0  0  0  0  0  0  0  0
   10.6369   -6.4011    1.7700 C   0  0  0  0  0  0  0  0  0  0  0  0
    9.8342   -7.5074    1.2502 N   0  0  0  0  0  0  0  0  0  0  0  0
   10.4672   -8.6955    0.9455 C   0  0  0  0  0  0  0  0  0  0  0  0
   11.6604   -8.8635    1.1506 O   0  0  0  0  0  0  0  0  0  0  0  0
    9.6588   -9.7933    0.2978 C   0  0  0  0  0  0  0  0  0  0  0  0
    8.8092   -9.5649   -0.7965 C   0  0  0  0  0  0  0  0  0  0  0  0
    8.1666  -10.6333   -1.4286 C   0  0  0  0  0  0  0  0  0  0  0  0
    8.3593  -11.9390   -0.9678 C   0  0  0  0  0  0  0  0  0  0  0  0
    9.2142  -12.1751    0.1145 C   0  0  0  0  0  0  0  0  0  0  0  0
    9.8716  -11.1107    0.7331 C   0  0  0  0  0  0  0  0  0  0  0  0
    8.4070   -7.3433    1.5062 C   0  0  0  0  0  0  0  0  0  0  0  0
    7.8997   -6.0194    0.9289 C   0  0  0  0  0  0  0  0  0  0  0  0
    6.8292   -3.6848    1.9970 N   0  0  0  0  0  0  0  0  0  0  0  0
   -0.1467   -4.8388    2.6681 H   0  0  0  0  0  0  0  0  0  0  0  0
   -0.0677   -3.0541    2.6261 H   0  0  0  0  0  0  0  0  0  0  0  0
    0.6995   -3.9625    3.9648 H   0  0  0  0  0  0  0  0  0  0  0  0
    0.8737   -5.1249    0.5327 H   0  0  0  0  0  0  0  0  0  0  0  0
    2.4681   -4.4299    0.1870 H   0  0  0  0  0  0  0  0  0  0  0  0
    1.0356   -3.3630    0.2606 H   0  0  0  0  0  0  0  0  0  0  0  0
    2.6227   -2.8249    3.5455 H   0  0  0  0  0  0  0  0  0  0  0  0
    2.5307   -2.1172    1.9225 H   0  0  0  0  0  0  0  0  0  0  0  0
    4.3370   -3.7697    1.1716 H   0  0  0  0  0  0  0  0  0  0  0  0
    4.3778   -4.4185    2.8229 H   0  0  0  0  0  0  0  0  0  0  0  0
    6.6694   -0.5662    3.2694 H   0  0  0  0  0  0  0  0  0  0  0  0
    8.7725    0.3719    3.3666 H   0  0  0  0  0  0  0  0  0  0  0  0
   13.9363   -1.1093    3.1513 H   0  0  0  0  0  0  0  0  0  0  0  0
   10.6721   -4.2315    1.6715 H   0  0  0  0  0  0  0  0  0  0  0  0
   10.3701   -5.0454    0.1084 H   0  0  0  0  0  0  0  0  0  0  0  0
   10.5678   -6.3733    2.8747 H   0  0  0  0  0  0  0  0  0  0  0  0
   11.6856   -6.5853    1.5078 H   0  0  0  0  0  0  0  0  0  0  0  0
    8.6704   -8.5489   -1.1741 H   0  0  0  0  0  0  0  0  0  0  0  0
    7.5182  -10.4453   -2.2883 H   0  0  0  0  0  0  0  0  0  0  0  0
    7.8520  -12.7736   -1.4584 H   0  0  0  0  0  0  0  0  0  0  0  0
    9.3773  -13.1956    0.4703 H   0  0  0  0  0  0  0  0  0  0  0  0
   10.5666  -11.2868    1.5568 H   0  0  0  0  0  0  0  0  0  0  0  0
    8.2316   -7.3418    2.6005 H   0  0  0  0  0  0  0  0  0  0  0  0
    7.8420   -8.1811    1.0826 H   0  0  0  0  0  0  0  0  0  0  0  0
    6.8597   -5.8452    1.2267 H   0  0  0  0  0  0  0  0  0  0  0  0
    7.9384   -6.0660   -0.1780 H   0  0  0  0  0  0  0  0  0  0  0  0
  1  2  1  0
  1 35  1  0
  1 36  1  0
  1 37  1  0
  2  3  1  0
  2  4  1  0
  3 38  1  0
  3 39  1  0
  3 40  1  0
  4  5  1  0
  4 41  1  0
  4 42  1  0
  5  6  1  0
  5 43  1  0
  5 44  1  0
  6  7  1  0
  7  8  2  0
  7 34  1  0
  8  9  1  0
  8 45  1  0
  9 10  1  0
  9 18  2  0
 10 11  2  0
 10 46  1  0
 11 12  1  0
 11 16  1  0
 12 13  2  0
 13 14  1  0
 13 15  1  0
 15 16  1  0
 15 47  1  0
 16 17  2  0
 18 19  1  0
 19 20  1  0
 19 34  2  0
 20 21  1  0
 20 33  1  0
 21 22  1  0
 21 48  1  0
 21 49  1  0
 22 23  1  0
 22 50  1  0
 22 51  1  0
 23 24  1  0
 23 32  1  0
 24 25  2  0
 24 26  1  0
 26 27  2  0
 26 31  1  0
 27 28  1  0
 27 52  1  0
 28 29  2  0
 28 53  1  0
 29 30  1  0
 29 54  1  0
 30 31  2  0
 30 55  1  0
 31 56  1  0
 32 33  1  0
 32 57  1  0
 32 58  1  0
 33 59  1  0
 33 60  1  0
M  CHG  2  12   1  14  -1
M  END

