
     RDKit          3D

 61 64  0  0  0  0  0  0  0  0999 V2000
    2.3532   -0.7113   -0.0607 C   0  0  0  0  0  0  0  0  0  0  0  0
    3.3531    0.1262    0.7551 C   0  0  1  0  0  0  0  0  0  0  0  0
    2.6123    0.9728    1.7951 C   0  0  0  0  0  0  0  0  0  0  0  0
    4.3254   -0.7427    1.3932 N   0  0  0  0  0  0  0  0  0  0  0  0
    5.3426   -1.5665    0.7393 C   0  0  1  0  0  0  0  0  0  0  0  0
    5.1378   -2.8857    1.5138 C   0  0  0  0  0  0  0  0  0  0  0  0
    5.2042   -2.1929    2.9432 C   0  0  0  0  0  0  0  0  0  0  0  0
    4.9533   -0.6395    2.6780 C   0  0  1  0  0  0  0  0  0  0  0  0
    6.2538    0.2904    2.4842 C   0  0  0  0  0  0  0  0  0  0  0  0
    6.3073    0.9284    1.1401 N   0  0  0  0  0  0  0  0  0  0  0  0
    5.8548    2.2450    1.0894 C   0  0  0  0  0  0  0  0  0  0  0  0
    5.5302    2.8609    2.1030 O   0  0  0  0  0  0  0  0  0  0  0  0
    5.7653    2.8473   -0.1444 N   0  0  0  0  0  0  0  0  0  0  0  0
    5.3913    4.2500   -0.2714 C   0  0  1  0  0  0  0  0  0  0  0  0
    6.5883    5.2035   -0.0976 C   0  0  0  0  0  0  0  0  0  0  0  0
    7.5834    5.0353   -1.2486 C   0  0  0  0  0  0  0  0  0  0  0  0
    6.8985    5.1375   -2.6152 C   0  0  0  0  0  0  0  0  0  0  0  0
    5.7465    4.2442   -2.7084 N   0  0  0  0  0  0  0  0  0  0  0  0
    5.2297    4.0440   -3.9988 C   0  0  0  0  0  0  0  0  0  0  0  0
    4.1315    3.2195   -4.3796 C   0  0  0  0  0  0  0  0  0  0  0  0
    3.9500    3.2252   -5.6973 N   0  0  0  0  0  0  0  0  0  0  0  0
    4.9024    4.0188   -6.1900 N   0  0  0  0  0  0  0  0  0  0  0  0
    4.9436    4.3122   -7.6057 C   0  0  0  0  0  0  0  0  0  0  0  0
    5.6927    4.5553   -5.2095 C   0  0  0  0  0  0  0  0  0  0  0  0
    4.7590    4.4675   -1.6481 C   0  0  0  0  0  0  0  0  0  0  0  0
    6.7509    0.1839   -0.0638 C   0  0  0  0  0  0  0  0  0  0  0  0
    5.8086   -0.9680   -0.5895 C   0  0  0  0  0  0  0  0  0  0  0  0
    1.6544   -0.0606   -0.6128 H   0  0  0  0  0  0  0  0  0  0  0  0
    1.7707   -1.3675    0.6064 H   0  0  0  0  0  0  0  0  0  0  0  0
    2.8629   -1.3534   -0.7958 H   0  0  0  0  0  0  0  0  0  0  0  0
    3.8326    0.8397    0.0514 H   0  0  0  0  0  0  0  0  0  0  0  0
    2.1025    0.3314    2.5330 H   0  0  0  0  0  0  0  0  0  0  0  0
    1.8437    1.5807    1.2932 H   0  0  0  0  0  0  0  0  0  0  0  0
    3.2895    1.6593    2.3232 H   0  0  0  0  0  0  0  0  0  0  0  0
    6.2961   -1.3626    1.2448 H   0  0  0  0  0  0  0  0  0  0  0  0
    5.9495   -3.6199    1.3807 H   0  0  0  0  0  0  0  0  0  0  0  0
    4.1687   -3.3728    1.3304 H   0  0  0  0  0  0  0  0  0  0  0  0
    6.1827   -2.3760    3.4195 H   0  0  0  0  0  0  0  0  0  0  0  0
    4.4280   -2.5792    3.6198 H   0  0  0  0  0  0  0  0  0  0  0  0
    4.3083   -0.2114    3.4571 H   0  0  0  0  0  0  0  0  0  0  0  0
    7.1939   -0.2616    2.6512 H   0  0  0  0  0  0  0  0  0  0  0  0
    6.2223    1.1157    3.2040 H   0  0  0  0  0  0  0  0  0  0  0  0
    6.0443    2.3846   -0.9982 H   0  0  0  0  0  0  0  0  0  0  0  0
    4.6482    4.4616    0.5105 H   0  0  0  0  0  0  0  0  0  0  0  0
    7.0642    5.0183    0.8775 H   0  0  0  0  0  0  0  0  0  0  0  0
    6.2073    6.2404   -0.0778 H   0  0  0  0  0  0  0  0  0  0  0  0
    8.0739    4.0504   -1.1681 H   0  0  0  0  0  0  0  0  0  0  0  0
    8.3833    5.7915   -1.1882 H   0  0  0  0  0  0  0  0  0  0  0  0
    7.6136    4.8636   -3.4062 H   0  0  0  0  0  0  0  0  0  0  0  0
    6.5933    6.1922   -2.8071 H   0  0  0  0  0  0  0  0  0  0  0  0
    3.4813    2.6176   -3.7460 H   0  0  0  0  0  0  0  0  0  0  0  0
    4.4940    3.4674   -8.1428 H   0  0  0  0  0  0  0  0  0  0  0  0
    5.9859    4.4384   -7.9335 H   0  0  0  0  0  0  0  0  0  0  0  0
    4.3796    5.2291   -7.8485 H   0  0  0  0  0  0  0  0  0  0  0  0
    6.5070    5.2346   -5.4456 H   0  0  0  0  0  0  0  0  0  0  0  0
    3.9209    3.7708   -1.7823 H   0  0  0  0  0  0  0  0  0  0  0  0
    4.3443    5.4974   -1.7005 H   0  0  0  0  0  0  0  0  0  0  0  0
    7.7094   -0.2993    0.1984 H   0  0  0  0  0  0  0  0  0  0  0  0
    7.0018    0.8976   -0.8597 H   0  0  0  0  0  0  0  0  0  0  0  0
    6.4217   -1.6636   -1.1847 H   0  0  0  0  0  0  0  0  0  0  0  0
    5.0018   -0.5990   -1.2402 H   0  0  0  0  0  0  0  0  0  0  0  0
  1  2  1  0
  1 28  1  0
  1 29  1  0
  1 30  1  0
  2  3  1  0
  2  4  1  0
  2 31  1  6
  3 32  1  0
  3 33  1  0
  3 34  1  0
  4  5  1  0
  4  8  1  0
  5  6  1  0
  5 27  1  0
  5 35  1  1
  6  7  1  0
  6 36  1  0
  6 37  1  0
  7  8  1  0
  7 38  1  0
  7 39  1  0
  8  9  1  0
  8 40  1  1
  9 10  1  0
  9 41  1  0
  9 42  1  0
 10 11  1  0
 10 26  1  0
 11 12  2  0
 11 13  1  0
 13 14  1  0
 13 43  1  0
 14 15  1  0
 14 25  1  0
 14 44  1  1
 15 16  1  0
 15 45  1  0
 15 46  1  0
 16 17  1  0
 16 47  1  0
 16 48  1  0
 17 18  1  0
 17 49  1  0
 17 50  1  0
 18 19  1  0
 18 25  1  0
 19 20  1  0
 19 24  2  0
 20 21  2  0
 20 51  1  0
 21 22  1  0
 22 23  1  0
 22 24  1  0
 23 52  1  0
 23 53  1  0
 23 54  1  0
 24 55  1  0
 25 56  1  0
 25 57  1  0
 26 27  1  0
 26 58  1  0
 26 59  1  0
 27 60  1  0
 27 61  1  0
M  END

