
     RDKit          3D

 31 33  0  0  0  0  0  0  0  0999 V2000
    1.8339   -1.1922    0.8757 C   0  0  0  0  0  0  0  0  0  0  0  0
    2.5064   -0.2407    0.0693 O   0  0  0  0  0  0  0  0  0  0  0  0
    3.0917   -0.5459   -1.1062 C   0  0  0  0  0  0  0  0  0  0  0  0
    3.7121    0.5239   -1.7644 C   0  0  0  0  0  0  0  0  0  0  0  0
    4.3573    0.3583   -2.9885 C   0  0  0  0  0  0  0  0  0  0  0  0
    4.4321   -0.8803   -3.6451 C   0  0  0  0  0  0  0  0  0  0  0  0
    5.1184   -1.0348   -4.9383 C   0  0  0  0  0  0  0  0  0  0  0  0
    5.7553   -0.0482   -5.6658 C   0  0  0  0  0  0  0  0  0  0  0  0
    6.4103   -0.7081   -7.1190 S   0  0  0  0  0  0  0  0  0  0  0  0
    5.7886   -2.2838   -6.6647 C   0  0  0  0  0  0  0  0  0  0  0  0
    5.9944   -3.4951   -7.5216 C   0  0  0  0  0  0  0  0  0  0  0  0
    5.1569   -2.2773   -5.5294 N   0  0  0  0  0  0  0  0  0  0  0  0
    3.8096   -1.9642   -2.9887 C   0  0  0  0  0  0  0  0  0  0  0  0
    3.7063   -3.6354   -3.5092 S   0  0  0  0  0  0  0  0  0  0  0  0
    2.8066   -3.9811   -2.0470 C   0  0  0  0  0  0  0  0  0  0  0  0
    2.3421   -5.3887   -1.8107 C   0  0  0  0  0  0  0  0  0  0  0  0
    1.6545   -5.5498   -0.6514 N   0  0  0  0  0  0  0  0  0  0  0  0
    2.5798   -6.2785   -2.6095 O   0  0  0  0  0  0  0  0  0  0  0  0
    2.5905   -2.9874   -1.2411 N   0  0  0  0  0  0  0  0  0  0  0  0
    3.1405   -1.8217   -1.7321 C   0  0  0  0  0  0  0  0  0  0  0  0
    1.4771   -0.6342    1.7528 H   0  0  0  0  0  0  0  0  0  0  0  0
    2.5068   -2.0006    1.2001 H   0  0  0  0  0  0  0  0  0  0  0  0
    0.9777   -1.6410    0.3494 H   0  0  0  0  0  0  0  0  0  0  0  0
    3.6735    1.5023   -1.2824 H   0  0  0  0  0  0  0  0  0  0  0  0
    4.8203    1.2344   -3.4469 H   0  0  0  0  0  0  0  0  0  0  0  0
    5.8701    1.0071   -5.4318 H   0  0  0  0  0  0  0  0  0  0  0  0
    6.4787   -3.2441   -8.4754 H   0  0  0  0  0  0  0  0  0  0  0  0
    5.0264   -3.9764   -7.7313 H   0  0  0  0  0  0  0  0  0  0  0  0
    6.6210   -4.2328   -6.9945 H   0  0  0  0  0  0  0  0  0  0  0  0
    1.5001   -4.7577   -0.0407 H   0  0  0  0  0  0  0  0  0  0  0  0
    1.3046   -6.4686   -0.4124 H   0  0  0  0  0  0  0  0  0  0  0  0
  1  2  1  0
  1 21  1  0
  1 22  1  0
  1 23  1  0
  2  3  1  0
  3  4  2  0
  3 20  1  0
  4  5  1  0
  4 24  1  0
  5  6  2  0
  5 25  1  0
  6  7  1  0
  6 13  1  0
  7  8  2  0
  7 12  1  0
  8  9  1  0
  8 26  1  0
  9 10  1  0
 10 11  1  0
 10 12  2  0
 11 27  1  0
 11 28  1  0
 11 29  1  0
 13 14  2  0
 13 20  1  0
 14 15  1  0
 15 16  2  0
 15 19  1  0
 16 17  1  0
 16 18  1  0
 17 30  1  0
 17 31  1  0
 19 20  2  0
M  CHG  2  14   1  18  -1
M  END

