
     RDKit          3D

112114  0  0  0  0  0  0  0  0999 V2000
    0.3337   -0.5310    0.6302 C   0  0  0  0  0  0  0  0  0  0  0  0
    1.7879   -0.1957    0.2537 C   0  0  1  0  0  0  0  0  0  0  0  0
    1.9001    1.2665   -0.2099 C   0  0  0  0  0  0  0  0  0  0  0  0
    3.0274   -0.6838    1.6415 Si  0  0  1  0  0  4  0  0  0  0  0  0
    2.5495    0.2152    3.1891 C   0  0  0  0  0  0  0  0  0  0  0  0
    2.2089    0.7994    4.2127 C   0  0  0  0  0  0  0  0  0  0  0  0
    1.8126    1.4669    5.4081 C   0  0  0  0  0  0  0  0  0  0  0  0
    1.2403    0.7208    6.4770 C   0  0  0  0  0  0  0  0  0  0  0  0
    1.0365   -0.6882    6.3922 C   0  0  0  0  0  0  0  0  0  0  0  0
    0.4867   -1.4012    7.4297 C   0  0  0  0  0  0  0  0  0  0  0  0
    0.0897   -0.7679    8.6487 C   0  0  0  0  0  0  0  0  0  0  0  0
   -0.5278   -1.5549    9.8236 C   0  0  1  0  0  0  0  0  0  0  0  0
   -0.6537   -3.0590    9.5170 C   0  0  0  0  0  0  0  0  0  0  0  0
    0.3644   -1.3923   11.0760 C   0  0  0  0  0  0  0  0  0  0  0  0
   -1.9415   -1.0054   10.1241 C   0  0  0  0  0  0  0  0  0  0  0  0
    0.2782    0.5976    8.7446 C   0  0  0  0  0  0  0  0  0  0  0  0
    0.8440    1.3803    7.6938 C   0  0  0  0  0  0  0  0  0  0  0  0
    1.0230    2.7883    7.8222 C   0  0  0  0  0  0  0  0  0  0  0  0
    0.6379    3.4584    9.0202 C   0  0  0  0  0  0  0  0  0  0  0  0
    0.3148    4.0568   10.0411 C   0  0  0  0  0  0  0  0  0  0  0  0
   -0.1598    4.9980   11.5663 Si  0  0  1  0  0  4  0  0  0  0  0  0
   -0.8667    3.7459   12.8372 C   0  0  1  0  0  0  0  0  0  0  0  0
   -2.1526    3.0644   12.3376 C   0  0  0  0  0  0  0  0  0  0  0  0
    0.1744    2.7014   13.2758 C   0  0  0  0  0  0  0  0  0  0  0  0
    1.4567    5.7686   12.2614 C   0  0  1  0  0  0  0  0  0  0  0  0
    2.2197    6.6553   11.2630 C   0  0  0  0  0  0  0  0  0  0  0  0
    1.2741    6.4828   13.6124 C   0  0  0  0  0  0  0  0  0  0  0  0
   -1.5410    6.2265   11.0443 C   0  0  1  0  0  0  0  0  0  0  0  0
   -2.1819    6.9820   12.2222 C   0  0  0  0  0  0  0  0  0  0  0  0
   -1.1389    7.1929    9.9176 C   0  0  0  0  0  0  0  0  0  0  0  0
    1.5885    3.5357    6.7500 C   0  0  0  0  0  0  0  0  0  0  0  0
    1.7814    4.9467    6.8288 C   0  0  0  0  0  0  0  0  0  0  0  0
    2.3252    5.6602    5.7882 C   0  0  0  0  0  0  0  0  0  0  0  0
    2.7279    5.0250    4.5722 C   0  0  0  0  0  0  0  0  0  0  0  0
    3.3406    5.8106    3.3939 C   0  0  1  0  0  0  0  0  0  0  0  0
    3.4334    7.3202    3.6840 C   0  0  0  0  0  0  0  0  0  0  0  0
    4.7674    5.2843    3.1141 C   0  0  0  0  0  0  0  0  0  0  0  0
    2.4650    5.6161    2.1343 C   0  0  0  0  0  0  0  0  0  0  0  0
    2.5504    3.6577    4.4820 C   0  0  0  0  0  0  0  0  0  0  0  0
    1.9879    2.8755    5.5348 C   0  0  0  0  0  0  0  0  0  0  0  0
    2.8017   -2.5593    1.9960 C   0  0  1  0  0  0  0  0  0  0  0  0
    3.1318   -3.4494    0.7840 C   0  0  0  0  0  0  0  0  0  0  0  0
    3.4883   -3.0695    3.2749 C   0  0  0  0  0  0  0  0  0  0  0  0
    4.8149   -0.1637    1.1428 C   0  0  1  0  0  0  0  0  0  0  0  0
    5.1015    1.3206    1.4388 C   0  0  0  0  0  0  0  0  0  0  0  0
    5.9331   -1.0347    1.7417 C   0  0  0  0  0  0  0  0  0  0  0  0
   -0.3531   -0.2823   -0.1977 H   0  0  0  0  0  0  0  0  0  0  0  0
    0.0069    0.0441    1.5126 H   0  0  0  0  0  0  0  0  0  0  0  0
    0.1915   -1.5984    0.8608 H   0  0  0  0  0  0  0  0  0  0  0  0
    2.0716   -0.8364   -0.6044 H   0  0  0  0  0  0  0  0  0  0  0  0
    1.7017    1.9699    0.6165 H   0  0  0  0  0  0  0  0  0  0  0  0
    1.1622    1.4816   -1.0027 H   0  0  0  0  0  0  0  0  0  0  0  0
    2.8940    1.5023   -0.6202 H   0  0  0  0  0  0  0  0  0  0  0  0
    1.3254   -1.2001    5.4733 H   0  0  0  0  0  0  0  0  0  0  0  0
    0.3552   -2.4759    7.3057 H   0  0  0  0  0  0  0  0  0  0  0  0
    0.3253   -3.5240    9.3215 H   0  0  0  0  0  0  0  0  0  0  0  0
   -1.3039   -3.2505    8.6490 H   0  0  0  0  0  0  0  0  0  0  0  0
   -1.0975   -3.5775   10.3813 H   0  0  0  0  0  0  0  0  0  0  0  0
    1.3802   -1.7761   10.8905 H   0  0  0  0  0  0  0  0  0  0  0  0
   -0.0607   -1.9504   11.9266 H   0  0  0  0  0  0  0  0  0  0  0  0
    0.4551   -0.3387   11.3799 H   0  0  0  0  0  0  0  0  0  0  0  0
   -2.6001   -1.1072    9.2469 H   0  0  0  0  0  0  0  0  0  0  0  0
   -1.9166    0.0589   10.4021 H   0  0  0  0  0  0  0  0  0  0  0  0
   -2.3997   -1.5587   10.9605 H   0  0  0  0  0  0  0  0  0  0  0  0
   -0.0097    1.1285    9.6526 H   0  0  0  0  0  0  0  0  0  0  0  0
   -1.1312    4.3491   13.7268 H   0  0  0  0  0  0  0  0  0  0  0  0
   -1.9694    2.4870   11.4158 H   0  0  0  0  0  0  0  0  0  0  0  0
   -2.9536    3.7874   12.1172 H   0  0  0  0  0  0  0  0  0  0  0  0
   -2.5455    2.3610   13.0926 H   0  0  0  0  0  0  0  0  0  0  0  0
    0.5243    2.0987   12.4207 H   0  0  0  0  0  0  0  0  0  0  0  0
   -0.2546    2.0031   14.0158 H   0  0  0  0  0  0  0  0  0  0  0  0
    1.0625    3.1608   13.7375 H   0  0  0  0  0  0  0  0  0  0  0  0
    2.0852    4.8756   12.4414 H   0  0  0  0  0  0  0  0  0  0  0  0
    1.6848    7.5975   11.0617 H   0  0  0  0  0  0  0  0  0  0  0  0
    2.3792    6.1483   10.2985 H   0  0  0  0  0  0  0  0  0  0  0  0
    3.2127    6.9279   11.6620 H   0  0  0  0  0  0  0  0  0  0  0  0
    0.6753    7.4027   13.5095 H   0  0  0  0  0  0  0  0  0  0  0  0
    2.2505    6.7814   14.0329 H   0  0  0  0  0  0  0  0  0  0  0  0
    0.7766    5.8485   14.3638 H   0  0  0  0  0  0  0  0  0  0  0  0
   -2.3114    5.5504   10.6267 H   0  0  0  0  0  0  0  0  0  0  0  0
   -1.4774    7.6946   12.6817 H   0  0  0  0  0  0  0  0  0  0  0  0
   -2.5330    6.3063   13.0187 H   0  0  0  0  0  0  0  0  0  0  0  0
   -3.0546    7.5675   11.8832 H   0  0  0  0  0  0  0  0  0  0  0  0
   -0.4077    7.9415   10.2634 H   0  0  0  0  0  0  0  0  0  0  0  0
   -2.0180    7.7492    9.5474 H   0  0  0  0  0  0  0  0  0  0  0  0
   -0.6964    6.6650    9.0583 H   0  0  0  0  0  0  0  0  0  0  0  0
    1.4841    5.4613    7.7436 H   0  0  0  0  0  0  0  0  0  0  0  0
    2.4461    6.7367    5.9072 H   0  0  0  0  0  0  0  0  0  0  0  0
    4.0755    7.5353    4.5526 H   0  0  0  0  0  0  0  0  0  0  0  0
    2.4438    7.7665    3.8702 H   0  0  0  0  0  0  0  0  0  0  0  0
    3.8705    7.8385    2.8161 H   0  0  0  0  0  0  0  0  0  0  0  0
    5.4151    5.4097    3.9964 H   0  0  0  0  0  0  0  0  0  0  0  0
    5.2238    5.8362    2.2756 H   0  0  0  0  0  0  0  0  0  0  0  0
    4.7645    4.2163    2.8500 H   0  0  0  0  0  0  0  0  0  0  0  0
    1.4405    5.9838    2.3039 H   0  0  0  0  0  0  0  0  0  0  0  0
    2.3960    4.5572    1.8426 H   0  0  0  0  0  0  0  0  0  0  0  0
    2.8894    6.1711    1.2814 H   0  0  0  0  0  0  0  0  0  0  0  0
    2.8430    3.1254    3.5763 H   0  0  0  0  0  0  0  0  0  0  0  0
    1.7119   -2.6363    2.1708 H   0  0  0  0  0  0  0  0  0  0  0  0
    4.2041   -3.4157    0.5284 H   0  0  0  0  0  0  0  0  0  0  0  0
    2.5699   -3.1577   -0.1179 H   0  0  0  0  0  0  0  0  0  0  0  0
    2.8856   -4.5054    0.9928 H   0  0  0  0  0  0  0  0  0  0  0  0
    4.5845   -3.0896    3.1761 H   0  0  0  0  0  0  0  0  0  0  0  0
    3.1664   -4.1008    3.5038 H   0  0  0  0  0  0  0  0  0  0  0  0
    3.2485   -2.4442    4.1491 H   0  0  0  0  0  0  0  0  0  0  0  0
    4.8382   -0.3008    0.0438 H   0  0  0  0  0  0  0  0  0  0  0  0
    5.1170    1.5072    2.5249 H   0  0  0  0  0  0  0  0  0  0  0  0
    4.3542    1.9988    1.0015 H   0  0  0  0  0  0  0  0  0  0  0  0
    6.0881    1.6140    1.0390 H   0  0  0  0  0  0  0  0  0  0  0  0
    5.9436   -0.9793    2.8430 H   0  0  0  0  0  0  0  0  0  0  0  0
    6.9216   -0.6883    1.3920 H   0  0  0  0  0  0  0  0  0  0  0  0
    5.8419   -2.0948    1.4618 H   0  0  0  0  0  0  0  0  0  0  0  0
  1  2  1  0
  1 47  1  0
  1 48  1  0
  1 49  1  0
  2  3  1  0
  2  4  1  0
  2 50  1  6
  3 51  1  0
  3 52  1  0
  3 53  1  0
  4  5  1  1
  4 41  1  0
  4 44  1  0
  5  6  3  0
  6  7  1  0
  7  8  2  0
  7 40  1  0
  8  9  1  0
  8 17  1  0
  9 10  2  0
  9 54  1  0
 10 11  1  0
 10 55  1  0
 11 12  1  0
 11 16  2  0
 12 13  1  6
 12 14  1  0
 12 15  1  0
 13 56  1  0
 13 57  1  0
 13 58  1  0
 14 59  1  0
 14 60  1  0
 14 61  1  0
 15 62  1  0
 15 63  1  0
 15 64  1  0
 16 17  1  0
 16 65  1  0
 17 18  2  0
 18 19  1  0
 18 31  1  0
 19 20  3  0
 21 20  1  6
 21 22  1  0
 21 25  1  0
 21 28  1  0
 22 23  1  0
 22 24  1  0
 22 66  1  1
 23 67  1  0
 23 68  1  0
 23 69  1  0
 24 70  1  0
 24 71  1  0
 24 72  1  0
 25 26  1  0
 25 27  1  0
 25 73  1  1
 26 74  1  0
 26 75  1  0
 26 76  1  0
 27 77  1  0
 27 78  1  0
 27 79  1  0
 28 29  1  0
 28 30  1  0
 28 80  1  6
 29 81  1  0
 29 82  1  0
 29 83  1  0
 30 84  1  0
 30 85  1  0
 30 86  1  0
 31 32  1  0
 31 40  2  0
 32 33  2  0
 32 87  1  0
 33 34  1  0
 33 88  1  0
 34 35  1  0
 34 39  2  0
 35 36  1  1
 35 37  1  0
 35 38  1  0
 36 89  1  0
 36 90  1  0
 36 91  1  0
 37 92  1  0
 37 93  1  0
 37 94  1  0
 38 95  1  0
 38 96  1  0
 38 97  1  0
 39 40  1  0
 39 98  1  0
 41 42  1  0
 41 43  1  0
 41 99  1  1
 42100  1  0
 42101  1  0
 42102  1  0
 43103  1  0
 43104  1  0
 43105  1  0
 44 45  1  0
 44 46  1  0
 44106  1  6
 45107  1  0
 45108  1  0
 45109  1  0
 46110  1  0
 46111  1  0
 46112  1  0
M  END

