
     RDKit          3D

 35 36  0  0  0  0  0  0  0  0999 V2000
    2.9191   -0.2335   -1.3886 N   0  0  0  0  0  0  0  0  0  0  0  0
    2.4308   -0.1097   -0.1291 C   0  0  0  0  0  0  0  0  0  0  0  0
    1.4253    0.5180    0.1533 O   0  0  0  0  0  0  0  0  0  0  0  0
    3.2766   -0.8476    0.9361 C   0  0  1  0  0  0  0  0  0  0  0  0
    2.8287   -0.5684    2.3801 C   0  0  0  0  0  0  0  0  0  0  0  0
    2.8952   -1.9260    3.1033 C   0  0  2  0  0  0  0  0  0  0  0  0
    4.1617   -2.2206    3.6430 O   0  0  0  0  0  0  0  0  0  0  0  0
    2.4853   -2.8894    1.9804 C   0  0  0  0  0  0  0  0  0  0  0  0
    3.1147   -2.3312    0.7595 N   0  0  0  0  0  0  0  0  0  0  0  0
    4.4936   -3.1182    0.1859 S   0  0  1  0  0  0  0  0  0  0  0  0
    4.9880   -2.2871   -0.9253 O   0  0  0  0  0  0  0  0  0  0  0  0
    5.4257   -3.4272    1.2919 O   0  0  0  0  0  0  0  0  0  0  0  0
    3.8497   -4.6533   -0.4447 C   0  0  0  0  0  0  0  0  0  0  0  0
    2.8942   -4.6243   -1.4611 C   0  0  0  0  0  0  0  0  0  0  0  0
    2.4431   -5.8458   -1.9688 C   0  0  0  0  0  0  0  0  0  0  0  0
    2.9452   -7.0533   -1.4827 C   0  0  0  0  0  0  0  0  0  0  0  0
    2.5388   -8.2717   -1.9320 O   0  0  0  0  0  0  0  0  0  0  0  0
    3.9276   -7.0785   -0.4561 C   0  0  0  0  0  0  0  0  0  0  0  0
    4.4304   -8.2912   -0.0417 N   0  0  0  0  0  0  0  0  0  0  0  0
    4.3701   -5.8512    0.0573 C   0  0  0  0  0  0  0  0  0  0  0  0
    2.3946    0.1803   -2.1499 H   0  0  0  0  0  0  0  0  0  0  0  0
    3.7254   -0.8255   -1.5780 H   0  0  0  0  0  0  0  0  0  0  0  0
    4.3312   -0.5747    0.7765 H   0  0  0  0  0  0  0  0  0  0  0  0
    1.7991   -0.1805    2.3555 H   0  0  0  0  0  0  0  0  0  0  0  0
    3.4662    0.1732    2.8804 H   0  0  0  0  0  0  0  0  0  0  0  0
    2.1804   -1.9637    3.9411 H   0  0  0  0  0  0  0  0  0  0  0  0
    4.7609   -2.5243    2.9380 H   0  0  0  0  0  0  0  0  0  0  0  0
    1.3923   -2.8990    1.8391 H   0  0  0  0  0  0  0  0  0  0  0  0
    2.8179   -3.9195    2.1689 H   0  0  0  0  0  0  0  0  0  0  0  0
    2.5033   -3.6787   -1.8376 H   0  0  0  0  0  0  0  0  0  0  0  0
    1.6857   -5.8628   -2.7586 H   0  0  0  0  0  0  0  0  0  0  0  0
    1.8691   -8.1676   -2.6205 H   0  0  0  0  0  0  0  0  0  0  0  0
    3.8940   -9.1142   -0.2863 H   0  0  0  0  0  0  0  0  0  0  0  0
    4.9110   -8.3277    0.8478 H   0  0  0  0  0  0  0  0  0  0  0  0
    5.1245   -5.8200    0.8454 H   0  0  0  0  0  0  0  0  0  0  0  0
  1  2  1  0
  1 21  1  0
  1 22  1  0
  2  3  2  0
  2  4  1  0
  4  5  1  0
  4  9  1  0
  4 23  1  1
  5  6  1  0
  5 24  1  0
  5 25  1  0
  6  7  1  0
  6  8  1  0
  6 26  1  1
  7 27  1  0
  8  9  1  0
  8 28  1  0
  8 29  1  0
  9 10  1  0
 10 11  2  0
 10 12  2  0
 10 13  1  6
 13 14  2  0
 13 20  1  0
 14 15  1  0
 14 30  1  0
 15 16  2  0
 15 31  1  0
 16 17  1  0
 16 18  1  0
 17 32  1  0
 18 19  1  0
 18 20  2  0
 19 33  1  0
 19 34  1  0
 20 35  1  0
M  END

