
     RDKit          3D

 49 50  0  0  0  0  0  0  0  0999 V2000
    8.7894   -2.2512    5.3978 C   0  0  0  0  0  0  0  0  0  0  0  0
    8.3945   -1.4501    4.2851 O   0  0  0  0  0  0  0  0  0  0  0  0
    9.3326   -0.6224    3.7819 C   0  0  0  0  0  0  0  0  0  0  0  0
   10.4497   -0.5408    4.2313 O   0  0  0  0  0  0  0  0  0  0  0  0
    8.7960    0.1535    2.5971 C   0  0  0  0  0  0  0  0  0  0  0  0
    9.7532    1.2493    2.1123 C   0  0  0  0  0  0  0  0  0  0  0  0
    9.2550    1.9978    0.8918 C   0  0  0  0  0  0  0  0  0  0  0  0
    9.1609    1.1890   -0.3812 C   0  0  0  0  0  0  0  0  0  0  0  0
    8.9237    3.2984    0.9958 C   0  0  0  0  0  0  0  0  0  0  0  0
    8.3529    4.1895   -0.0818 C   0  0  0  0  0  0  0  0  0  0  0  0
    9.0826    5.5028   -0.3177 C   0  0  0  0  0  0  0  0  0  0  0  0
    8.5388    6.7619    0.0123 C   0  0  0  0  0  0  0  0  0  0  0  0
    7.3368    6.9832    0.7190 N   0  0  0  0  0  0  0  0  0  0  0  0
    6.9554    6.4305    1.9215 C   0  0  0  0  0  0  0  0  0  0  0  0
    7.4880    5.5144    2.5026 O   0  0  0  0  0  0  0  0  0  0  0  0
    9.2092    7.9074   -0.4541 C   0  0  0  0  0  0  0  0  0  0  0  0
   10.3881    7.8434   -1.1843 C   0  0  0  0  0  0  0  0  0  0  0  0
   10.9895    6.6246   -1.4963 C   0  0  0  0  0  0  0  0  0  0  0  0
   12.2376    6.5369   -2.3364 C   0  0  0  0  0  0  0  0  0  0  0  0
   10.3136    5.4725   -1.0309 C   0  0  0  0  0  0  0  0  0  0  0  0
   10.8039    4.2404   -1.3721 O   0  0  0  0  0  0  0  0  0  0  0  0
   11.9219    3.7601   -0.6316 C   0  0  0  0  0  0  0  0  0  0  0  0
   10.7811    9.2589   -1.5225 C   0  0  0  0  0  0  0  0  0  0  0  0
    9.7412   10.0771   -0.9741 O   0  0  0  0  0  0  0  0  0  0  0  0
    8.7936    9.3186   -0.3546 C   0  0  0  0  0  0  0  0  0  0  0  0
    7.7965    9.7918    0.1381 O   0  0  0  0  0  0  0  0  0  0  0  0
    7.9131   -2.8530    5.6694 H   0  0  0  0  0  0  0  0  0  0  0  0
    9.0961   -1.6211    6.2467 H   0  0  0  0  0  0  0  0  0  0  0  0
    9.6334   -2.9063    5.1319 H   0  0  0  0  0  0  0  0  0  0  0  0
    7.8150    0.5735    2.8747 H   0  0  0  0  0  0  0  0  0  0  0  0
    8.5835   -0.5835    1.8028 H   0  0  0  0  0  0  0  0  0  0  0  0
   10.7294    0.7799    1.8949 H   0  0  0  0  0  0  0  0  0  0  0  0
    9.9301    1.9551    2.9383 H   0  0  0  0  0  0  0  0  0  0  0  0
    8.2716    0.5334   -0.3859 H   0  0  0  0  0  0  0  0  0  0  0  0
   10.0370    0.5252   -0.4840 H   0  0  0  0  0  0  0  0  0  0  0  0
    9.1129    1.8180   -1.2802 H   0  0  0  0  0  0  0  0  0  0  0  0
    9.0165    3.7846    1.9704 H   0  0  0  0  0  0  0  0  0  0  0  0
    7.3086    4.4204    0.1772 H   0  0  0  0  0  0  0  0  0  0  0  0
    8.3256    3.6547   -1.0420 H   0  0  0  0  0  0  0  0  0  0  0  0
    6.9475    7.9146    0.5541 H   0  0  0  0  0  0  0  0  0  0  0  0
    6.0496    6.9490    2.3179 H   0  0  0  0  0  0  0  0  0  0  0  0
   12.2878    7.3674   -3.0576 H   0  0  0  0  0  0  0  0  0  0  0  0
   12.2625    5.5939   -2.9002 H   0  0  0  0  0  0  0  0  0  0  0  0
   13.1563    6.5856   -1.7259 H   0  0  0  0  0  0  0  0  0  0  0  0
   12.1208    2.7408   -0.9892 H   0  0  0  0  0  0  0  0  0  0  0  0
   11.6966    3.7236    0.4458 H   0  0  0  0  0  0  0  0  0  0  0  0
   12.8211    4.3774   -0.7972 H   0  0  0  0  0  0  0  0  0  0  0  0
   10.8401    9.4459   -2.6087 H   0  0  0  0  0  0  0  0  0  0  0  0
   11.7433    9.5593   -1.0735 H   0  0  0  0  0  0  0  0  0  0  0  0
  1  2  1  0
  1 27  1  0
  1 28  1  0
  1 29  1  0
  2  3  1  0
  3  4  2  0
  3  5  1  0
  5  6  1  0
  5 30  1  0
  5 31  1  0
  6  7  1  0
  6 32  1  0
  6 33  1  0
  7  8  1  0
  7  9  2  0
  8 34  1  0
  8 35  1  0
  8 36  1  0
  9 10  1  0
  9 37  1  0
 10 11  1  0
 10 38  1  0
 10 39  1  0
 11 12  2  0
 11 20  1  0
 12 13  1  0
 12 16  1  0
 13 14  1  0
 13 40  1  0
 14 15  2  0
 14 41  1  0
 16 17  2  0
 16 25  1  0
 17 18  1  0
 17 23  1  0
 18 19  1  0
 18 20  2  0
 19 42  1  0
 19 43  1  0
 19 44  1  0
 20 21  1  0
 21 22  1  0
 22 45  1  0
 22 46  1  0
 22 47  1  0
 23 24  1  0
 23 48  1  0
 23 49  1  0
 24 25  1  0
 25 26  2  0
M  END

