
     RDKit          3D

 28 29  0  0  0  0  0  0  0  0999 V2000
    1.3571   -0.6217    0.1990 C   0  0  0  0  0  0  0  0  0  0  0  0
    2.7582   -0.0862    0.0300 C   0  0  0  0  0  0  0  0  0  0  0  0
    3.1314    0.6009   -1.1387 C   0  0  0  0  0  0  0  0  0  0  0  0
    4.4205    1.1003   -1.3093 C   0  0  0  0  0  0  0  0  0  0  0  0
    5.3886    0.9263   -0.3042 C   0  0  0  0  0  0  0  0  0  0  0  0
    7.0111    1.6123   -0.6360 S   0  0  0  0  0  0  0  0  0  0  0  0
    7.9636    1.2115    0.8192 C   0  0  0  0  0  0  0  0  0  0  0  0
    8.7099    0.0252    0.8760 C   0  0  0  0  0  0  0  0  0  0  0  0
    9.5018   -0.2492    1.9858 C   0  0  0  0  0  0  0  0  0  0  0  0
   10.4225   -1.7445    2.0419 Cl  0  0  0  0  0  0  0  0  0  0  0  0
    9.6044    0.6368    3.0879 C   0  0  0  0  0  0  0  0  0  0  0  0
   10.4094    0.3774    4.1546 N   0  0  0  0  0  0  0  0  0  0  0  0
    8.8347    1.8237    2.9933 C   0  0  0  0  0  0  0  0  0  0  0  0
    8.9078    2.9621    4.3295 Cl  0  0  0  0  0  0  0  0  0  0  0  0
    8.0378    2.1132    1.8910 C   0  0  0  0  0  0  0  0  0  0  0  0
    5.0341    0.2448    0.8653 C   0  0  0  0  0  0  0  0  0  0  0  0
    3.7348   -0.2506    1.0207 C   0  0  0  0  0  0  0  0  0  0  0  0
    0.6075    0.1859    0.1447 H   0  0  0  0  0  0  0  0  0  0  0  0
    1.2327   -1.1285    1.1674 H   0  0  0  0  0  0  0  0  0  0  0  0
    1.1042   -1.3466   -0.5933 H   0  0  0  0  0  0  0  0  0  0  0  0
    2.3956    0.7490   -1.9353 H   0  0  0  0  0  0  0  0  0  0  0  0
    4.6806    1.6305   -2.2298 H   0  0  0  0  0  0  0  0  0  0  0  0
    8.6732   -0.6886    0.0526 H   0  0  0  0  0  0  0  0  0  0  0  0
   10.8131   -0.5452    4.2444 H   0  0  0  0  0  0  0  0  0  0  0  0
   10.3284    0.9607    4.9764 H   0  0  0  0  0  0  0  0  0  0  0  0
    7.4716    3.0447    1.8673 H   0  0  0  0  0  0  0  0  0  0  0  0
    5.7667    0.0965    1.6602 H   0  0  0  0  0  0  0  0  0  0  0  0
    3.4796   -0.7803    1.9435 H   0  0  0  0  0  0  0  0  0  0  0  0
  1  2  1  0
  1 18  1  0
  1 19  1  0
  1 20  1  0
  2  3  2  0
  2 17  1  0
  3  4  1  0
  3 21  1  0
  4  5  2  0
  4 22  1  0
  5  6  1  0
  5 16  1  0
  6  7  1  0
  7  8  2  0
  7 15  1  0
  8  9  1  0
  8 23  1  0
  9 10  1  0
  9 11  2  0
 11 12  1  0
 11 13  1  0
 12 24  1  0
 12 25  1  0
 13 14  1  0
 13 15  2  0
 15 26  1  0
 16 17  2  0
 16 27  1  0
 17 28  1  0
M  END

