
     RDKit          3D

 49 49  0  0  0  0  0  0  0  0999 V2000
    5.9851    0.6771    3.0532 C   0  0  0  0  0  0  0  0  0  0  0  0
    6.7324   -0.5246    2.4875 C   0  0  0  0  0  0  0  0  0  0  0  0
    8.4240   -0.5847    3.1345 S   0  0  1  0  0  0  0  0  0  0  0  0
    9.1436    0.5725    2.5911 O   0  0  0  0  0  0  0  0  0  0  0  0
    8.3408   -0.8259    4.5803 O   0  0  0  0  0  0  0  0  0  0  0  0
    9.0881   -1.9573    2.3822 N   0  0  0  0  0  0  0  0  0  0  0  0
    9.4236   -3.1275    3.2160 C   0  0  0  0  0  0  0  0  0  0  0  0
    8.2313   -4.0422    3.4996 C   0  0  0  0  0  0  0  0  0  0  0  0
    7.4808   -4.5611    2.2643 C   0  0  0  0  0  0  0  0  0  0  0  0
    8.2945   -5.2819    1.2864 N   0  0  0  0  0  0  0  0  0  0  0  0
    9.1403   -6.3401    1.6404 C   0  0  0  0  0  0  0  0  0  0  0  0
    8.8290   -7.3839    2.3192 N   0  0  0  0  0  0  0  0  0  0  0  0
    7.4530   -7.6871    2.6243 C   0  0  0  0  0  0  0  0  0  0  0  0
   10.4171   -6.2073    1.1143 N   0  0  0  0  0  0  0  0  0  0  0  0
   11.4457   -7.2076    1.3163 C   0  0  0  0  0  0  0  0  0  0  0  0
   12.1712   -7.1202    2.6543 C   0  0  0  0  0  0  0  0  0  0  0  0
   11.6977   -7.8488    3.7559 C   0  0  0  0  0  0  0  0  0  0  0  0
   12.3697   -7.7948    4.9766 C   0  0  0  0  0  0  0  0  0  0  0  0
   11.7649   -8.7067    6.3386 Cl  0  0  0  0  0  0  0  0  0  0  0  0
   13.5285   -7.0306    5.1338 C   0  0  0  0  0  0  0  0  0  0  0  0
   14.0004   -6.3007    4.0435 C   0  0  0  0  0  0  0  0  0  0  0  0
   15.4642   -5.3685    4.2088 Cl  0  0  0  0  0  0  0  0  0  0  0  0
   13.3186   -6.3273    2.8151 C   0  0  0  0  0  0  0  0  0  0  0  0
   13.8594   -5.6322    1.7363 O   0  0  0  0  0  0  0  0  0  0  0  0
   13.5682   -4.3192    1.5257 C   0  0  1  0  0  0  0  0  0  0  0  0
   12.5096   -4.1888    0.6581 F   0  0  0  0  0  0  0  0  0  0  0  0
   13.1989   -3.6821    2.6508 F   0  0  0  0  0  0  0  0  0  0  0  0
    4.9625    0.7077    2.6469 H   0  0  0  0  0  0  0  0  0  0  0  0
    6.4955    1.6134    2.7840 H   0  0  0  0  0  0  0  0  0  0  0  0
    5.9237    0.6159    4.1496 H   0  0  0  0  0  0  0  0  0  0  0  0
    6.8409   -0.4828    1.3938 H   0  0  0  0  0  0  0  0  0  0  0  0
    6.2640   -1.4804    2.7647 H   0  0  0  0  0  0  0  0  0  0  0  0
    9.8719   -1.6155    1.8267 H   0  0  0  0  0  0  0  0  0  0  0  0
    9.8770   -2.8178    4.1719 H   0  0  0  0  0  0  0  0  0  0  0  0
   10.2001   -3.6747    2.6613 H   0  0  0  0  0  0  0  0  0  0  0  0
    7.5159   -3.5116    4.1509 H   0  0  0  0  0  0  0  0  0  0  0  0
    8.6021   -4.8979    4.0891 H   0  0  0  0  0  0  0  0  0  0  0  0
    7.0297   -3.7170    1.7214 H   0  0  0  0  0  0  0  0  0  0  0  0
    6.6439   -5.1908    2.6026 H   0  0  0  0  0  0  0  0  0  0  0  0
    8.6754   -4.6859    0.5594 H   0  0  0  0  0  0  0  0  0  0  0  0
    7.3357   -8.7775    2.7399 H   0  0  0  0  0  0  0  0  0  0  0  0
    6.7424   -7.3547    1.8424 H   0  0  0  0  0  0  0  0  0  0  0  0
    7.1216   -7.2412    3.5834 H   0  0  0  0  0  0  0  0  0  0  0  0
   10.7485   -5.2717    0.9180 H   0  0  0  0  0  0  0  0  0  0  0  0
   12.1788   -7.1140    0.5017 H   0  0  0  0  0  0  0  0  0  0  0  0
   10.9664   -8.1926    1.2431 H   0  0  0  0  0  0  0  0  0  0  0  0
   10.7828   -8.4302    3.6433 H   0  0  0  0  0  0  0  0  0  0  0  0
   14.0600   -7.0029    6.0846 H   0  0  0  0  0  0  0  0  0  0  0  0
   14.4369   -3.8230    1.0676 H   0  0  0  0  0  0  0  0  0  0  0  0
  1  2  1  0
  1 28  1  0
  1 29  1  0
  1 30  1  0
  2  3  1  0
  2 31  1  0
  2 32  1  0
  3  4  2  0
  3  5  2  0
  3  6  1  6
  6  7  1  0
  6 33  1  0
  7  8  1  0
  7 34  1  0
  7 35  1  0
  8  9  1  0
  8 36  1  0
  8 37  1  0
  9 10  1  0
  9 38  1  0
  9 39  1  0
 10 11  1  0
 10 40  1  0
 11 12  2  0
 11 14  1  0
 12 13  1  0
 13 41  1  0
 13 42  1  0
 13 43  1  0
 14 15  1  0
 14 44  1  0
 15 16  1  0
 15 45  1  0
 15 46  1  0
 16 17  2  0
 16 23  1  0
 17 18  1  0
 17 47  1  0
 18 19  1  0
 18 20  2  0
 20 21  1  0
 20 48  1  0
 21 22  1  0
 21 23  2  0
 23 24  1  0
 24 25  1  0
 25 26  1  0
 25 27  1  0
 25 49  1  6
M  END

