
     RDKit          3D

 51 53  0  0  0  0  0  0  0  0999 V2000
    2.7781   -1.9601    0.1936 O   0  0  0  0  0  0  0  0  0  0  0  0
    3.0589   -0.8310    0.5673 C   0  0  0  0  0  0  0  0  0  0  0  0
    2.4054   -0.2613    1.8405 C   0  0  0  0  0  0  0  0  0  0  0  0
    1.7197    0.9565    1.6584 O   0  0  0  0  0  0  0  0  0  0  0  0
    0.4494    0.8566    0.9944 C   0  0  1  0  0  0  0  0  0  0  0  0
   -0.6514    0.4127    1.9716 C   0  0  0  0  0  0  0  0  0  0  0  0
   -0.9104    1.4604    3.0627 C   0  0  0  0  0  0  0  0  0  0  0  0
   -1.2247    2.8365    2.4603 C   0  0  0  0  0  0  0  0  0  0  0  0
   -0.1223    3.2879    1.4929 C   0  0  0  0  0  0  0  0  0  0  0  0
    0.1345    2.2349    0.4061 C   0  0  0  0  0  0  0  0  0  0  0  0
    3.9589   -0.0373   -0.1029 N   0  0  0  0  0  0  0  0  0  0  0  0
    4.6429   -0.5698   -1.2761 C   0  0  0  0  0  0  0  0  0  0  0  0
    4.5830    0.4214   -2.4373 C   0  0  0  0  0  0  0  0  0  0  0  0
    5.0832    1.7204   -1.9848 N   0  0  0  0  0  0  0  0  0  0  0  0
    5.7514    2.7753   -3.1103 S   0  0  1  0  0  0  0  0  0  0  0  0
    6.3378    3.8737   -2.3427 O   0  0  0  0  0  0  0  0  0  0  0  0
    6.5357    1.9505   -4.0288 O   0  0  0  0  0  0  0  0  0  0  0  0
    4.3756    3.4609   -4.0565 C   0  0  0  0  0  0  0  0  0  0  0  0
    3.9393    2.8020   -5.2105 C   0  0  0  0  0  0  0  0  0  0  0  0
    2.8511    3.3257   -5.9135 C   0  0  0  0  0  0  0  0  0  0  0  0
    2.2136    4.4894   -5.4754 C   0  0  0  0  0  0  0  0  0  0  0  0
    2.6784    5.1380   -4.3258 C   0  0  0  0  0  0  0  0  0  0  0  0
    1.8977    6.6040   -3.7876 Cl  0  0  0  0  0  0  0  0  0  0  0  0
    3.7657    4.6357   -3.6061 C   0  0  0  0  0  0  0  0  0  0  0  0
    4.3948    2.2734   -0.8201 C   0  0  0  0  0  0  0  0  0  0  0  0
    4.4442    1.2668    0.3331 C   0  0  0  0  0  0  0  0  0  0  0  0
    3.1792   -0.0820    2.6060 H   0  0  0  0  0  0  0  0  0  0  0  0
    1.7470   -1.0642    2.2093 H   0  0  0  0  0  0  0  0  0  0  0  0
    0.5313    0.1180    0.1747 H   0  0  0  0  0  0  0  0  0  0  0  0
   -0.3921   -0.5609    2.4194 H   0  0  0  0  0  0  0  0  0  0  0  0
   -1.5729    0.2412    1.3868 H   0  0  0  0  0  0  0  0  0  0  0  0
   -0.0139    1.5398    3.7014 H   0  0  0  0  0  0  0  0  0  0  0  0
   -1.7340    1.1272    3.7158 H   0  0  0  0  0  0  0  0  0  0  0  0
   -1.3600    3.5829    3.2610 H   0  0  0  0  0  0  0  0  0  0  0  0
   -2.1876    2.7855    1.9178 H   0  0  0  0  0  0  0  0  0  0  0  0
    0.8115    3.4567    2.0558 H   0  0  0  0  0  0  0  0  0  0  0  0
   -0.3883    4.2510    1.0262 H   0  0  0  0  0  0  0  0  0  0  0  0
    0.9616    2.5445   -0.2534 H   0  0  0  0  0  0  0  0  0  0  0  0
   -0.7607    2.1335   -0.2327 H   0  0  0  0  0  0  0  0  0  0  0  0
    4.1625   -1.5192   -1.5434 H   0  0  0  0  0  0  0  0  0  0  0  0
    5.7020   -0.7696   -1.0282 H   0  0  0  0  0  0  0  0  0  0  0  0
    3.5391    0.5027   -2.8029 H   0  0  0  0  0  0  0  0  0  0  0  0
    5.2195    0.0685   -3.2592 H   0  0  0  0  0  0  0  0  0  0  0  0
    4.4632    1.9108   -5.5585 H   0  0  0  0  0  0  0  0  0  0  0  0
    2.4989    2.8279   -6.8201 H   0  0  0  0  0  0  0  0  0  0  0  0
    1.3655    4.9040   -6.0227 H   0  0  0  0  0  0  0  0  0  0  0  0
    4.1471    5.1585   -2.7288 H   0  0  0  0  0  0  0  0  0  0  0  0
    3.3358    2.5034   -1.0552 H   0  0  0  0  0  0  0  0  0  0  0  0
    4.9006    3.2006   -0.5210 H   0  0  0  0  0  0  0  0  0  0  0  0
    3.8253    1.6470    1.1521 H   0  0  0  0  0  0  0  0  0  0  0  0
    5.4909    1.1761    0.6801 H   0  0  0  0  0  0  0  0  0  0  0  0
  1  2  2  0
  2  3  1  0
  2 11  1  0
  3  4  1  0
  3 27  1  0
  3 28  1  0
  4  5  1  0
  5  6  1  0
  5 10  1  0
  5 29  1  6
  6  7  1  0
  6 30  1  0
  6 31  1  0
  7  8  1  0
  7 32  1  0
  7 33  1  0
  8  9  1  0
  8 34  1  0
  8 35  1  0
  9 10  1  0
  9 36  1  0
  9 37  1  0
 10 38  1  0
 10 39  1  0
 11 12  1  0
 11 26  1  0
 12 13  1  0
 12 40  1  0
 12 41  1  0
 13 14  1  0
 13 42  1  0
 13 43  1  0
 14 15  1  0
 14 25  1  0
 15 16  2  0
 15 17  2  0
 15 18  1  6
 18 19  2  0
 18 24  1  0
 19 20  1  0
 19 44  1  0
 20 21  2  0
 20 45  1  0
 21 22  1  0
 21 46  1  0
 22 23  1  0
 22 24  2  0
 24 47  1  0
 25 26  1  0
 25 48  1  0
 25 49  1  0
 26 50  1  0
 26 51  1  0
M  END

