
     RDKit          3D

 38 39  0  0  0  0  0  0  0  0999 V2000
   10.4390    0.6340   -6.2838 C   0  0  0  0  0  0  0  0  0  0  0  0
   10.3087    0.6869   -4.8659 O   0  0  0  0  0  0  0  0  0  0  0  0
    9.5702   -0.2778   -4.3094 C   0  0  0  0  0  0  0  0  0  0  0  0
    9.0318   -1.1585   -4.9441 O   0  0  0  0  0  0  0  0  0  0  0  0
    9.4739   -0.1597   -2.8085 C   0  0  0  0  0  0  0  0  0  0  0  0
    8.7111   -1.1297   -2.1516 C   0  0  0  0  0  0  0  0  0  0  0  0
    8.5838   -1.0666   -0.7483 C   0  0  0  0  0  0  0  0  0  0  0  0
    7.8393   -1.9595   -0.0221 N   0  0  0  0  0  0  0  0  0  0  0  0
    7.1312   -3.1031   -0.5514 C   0  0  0  0  0  0  0  0  0  0  0  0
    8.0109   -4.3451   -0.7223 C   0  0  0  0  0  0  0  0  0  0  0  0
    7.1759   -5.3787   -1.1847 O   0  0  0  0  0  0  0  0  0  0  0  0
    7.7042   -6.6195   -1.4195 C   0  0  0  0  0  0  0  0  0  0  0  0
    9.0502   -6.9604   -1.2410 C   0  0  0  0  0  0  0  0  0  0  0  0
    9.4887   -8.2618   -1.5119 C   0  0  0  0  0  0  0  0  0  0  0  0
    8.6049   -9.2546   -1.9643 C   0  0  0  0  0  0  0  0  0  0  0  0
    9.0326  -10.5657   -2.1800 N   0  0  0  0  0  0  0  0  0  0  0  0
    7.2521   -8.8946   -2.1389 C   0  0  0  0  0  0  0  0  0  0  0  0
    6.8114   -7.6029   -1.8726 C   0  0  0  0  0  0  0  0  0  0  0  0
    9.2630   -0.0050   -0.1074 C   0  0  0  0  0  0  0  0  0  0  0  0
    9.9971    0.8989   -0.8701 C   0  0  0  0  0  0  0  0  0  0  0  0
   10.1141    0.8432   -2.1989 N   0  0  0  0  0  0  0  0  0  0  0  0
   11.0686    1.4874   -6.5647 H   0  0  0  0  0  0  0  0  0  0  0  0
    9.4551    0.7079   -6.7725 H   0  0  0  0  0  0  0  0  0  0  0  0
   10.9103   -0.3093   -6.6008 H   0  0  0  0  0  0  0  0  0  0  0  0
    8.2394   -1.9072   -2.7511 H   0  0  0  0  0  0  0  0  0  0  0  0
    7.8517   -1.8453    0.9830 H   0  0  0  0  0  0  0  0  0  0  0  0
    6.6700   -2.8525   -1.5196 H   0  0  0  0  0  0  0  0  0  0  0  0
    6.3028   -3.3542    0.1293 H   0  0  0  0  0  0  0  0  0  0  0  0
    8.4768   -4.6100    0.2475 H   0  0  0  0  0  0  0  0  0  0  0  0
    8.8303   -4.1410   -1.4377 H   0  0  0  0  0  0  0  0  0  0  0  0
    9.7765   -6.2240   -0.8952 H   0  0  0  0  0  0  0  0  0  0  0  0
   10.5444   -8.5075   -1.3643 H   0  0  0  0  0  0  0  0  0  0  0  0
   10.0229  -10.6735   -2.3714 H   0  0  0  0  0  0  0  0  0  0  0  0
    8.4657  -11.1066   -2.8242 H   0  0  0  0  0  0  0  0  0  0  0  0
    6.5364   -9.6449   -2.4875 H   0  0  0  0  0  0  0  0  0  0  0  0
    5.7634   -7.3294   -2.0131 H   0  0  0  0  0  0  0  0  0  0  0  0
    9.2119    0.1100    0.9791 H   0  0  0  0  0  0  0  0  0  0  0  0
   10.5218    1.7210   -0.3679 H   0  0  0  0  0  0  0  0  0  0  0  0
  1  2  1  0
  1 22  1  0
  1 23  1  0
  1 24  1  0
  2  3  1  0
  3  4  2  0
  3  5  1  0
  5  6  2  0
  5 21  1  0
  6  7  1  0
  6 25  1  0
  7  8  1  0
  7 19  2  0
  8  9  1  0
  8 26  1  0
  9 10  1  0
  9 27  1  0
  9 28  1  0
 10 11  1  0
 10 29  1  0
 10 30  1  0
 11 12  1  0
 12 13  2  0
 12 18  1  0
 13 14  1  0
 13 31  1  0
 14 15  2  0
 14 32  1  0
 15 16  1  0
 15 17  1  0
 16 33  1  0
 16 34  1  0
 17 18  2  0
 17 35  1  0
 18 36  1  0
 19 20  1  0
 19 37  1  0
 20 21  2  0
 20 38  1  0
M  END

