
     RDKit          3D

 40 42  0  0  0  0  0  0  0  0999 V2000
    4.3840   -1.5847    1.9560 C   0  0  0  0  0  0  0  0  0  0  0  0
    3.9781   -0.7556    0.7647 C   0  0  0  0  0  0  0  0  0  0  0  0
    4.7061    0.3836    0.3978 C   0  0  0  0  0  0  0  0  0  0  0  0
    4.3373    1.1281   -0.7233 C   0  0  0  0  0  0  0  0  0  0  0  0
    3.2211    0.7143   -1.4512 C   0  0  0  0  0  0  0  0  0  0  0  0
    2.4977   -0.3534   -1.1112 N   0  0  0  0  0  0  0  0  0  0  0  0
    2.8603   -1.0725   -0.0432 C   0  0  0  0  0  0  0  0  0  0  0  0
    2.0884   -2.3597    0.1954 C   0  0  0  0  0  0  0  0  0  0  0  0
    2.7176   -3.4088    0.3034 O   0  0  0  0  0  0  0  0  0  0  0  0
    0.7238   -2.3133    0.2537 N   0  0  0  0  0  0  0  0  0  0  0  0
   -0.1034   -1.1070    0.2520 C   0  0  0  0  0  0  0  0  0  0  0  0
   -0.9967   -1.0824   -0.9867 C   0  0  0  0  0  0  0  0  0  0  0  0
   -1.7676   -2.3149   -1.0205 N   0  0  0  0  0  0  0  0  0  0  0  0
   -0.9253   -3.4981   -1.0596 C   0  0  0  0  0  0  0  0  0  0  0  0
   -0.0386   -3.5804    0.1929 C   0  0  2  0  0  0  0  0  0  0  0  0
   -0.6577   -3.8999    1.5695 C   0  0  0  0  0  0  0  0  0  0  0  0
    0.2551   -3.8337    2.6465 C   0  0  0  0  0  0  0  0  0  0  0  0
   -0.1013   -4.0979    3.9649 C   0  0  0  0  0  0  0  0  0  0  0  0
   -1.4191   -4.4541    4.2637 C   0  0  0  0  0  0  0  0  0  0  0  0
   -2.3414   -4.5605    3.2288 C   0  0  0  0  0  0  0  0  0  0  0  0
   -1.9683   -4.2991    1.8995 C   0  0  0  0  0  0  0  0  0  0  0  0
   -3.2615   -4.5552    0.7320 Cl  0  0  0  0  0  0  0  0  0  0  0  0
    5.1957   -1.0958    2.5145 H   0  0  0  0  0  0  0  0  0  0  0  0
    4.7143   -2.5834    1.6360 H   0  0  0  0  0  0  0  0  0  0  0  0
    3.5398   -1.7421    2.6460 H   0  0  0  0  0  0  0  0  0  0  0  0
    5.5723    0.6822    0.9954 H   0  0  0  0  0  0  0  0  0  0  0  0
    4.9022    2.0131   -1.0253 H   0  0  0  0  0  0  0  0  0  0  0  0
    2.8938    1.2671   -2.3392 H   0  0  0  0  0  0  0  0  0  0  0  0
    0.5316   -0.2174    0.2943 H   0  0  0  0  0  0  0  0  0  0  0  0
   -0.7396   -1.1265    1.1542 H   0  0  0  0  0  0  0  0  0  0  0  0
   -0.3430   -0.9390   -1.8747 H   0  0  0  0  0  0  0  0  0  0  0  0
   -1.6838   -0.2223   -0.9256 H   0  0  0  0  0  0  0  0  0  0  0  0
   -2.4414   -2.3182   -1.7819 H   0  0  0  0  0  0  0  0  0  0  0  0
   -0.2238   -3.4970   -1.9240 H   0  0  0  0  0  0  0  0  0  0  0  0
   -1.5493   -4.3956   -1.1449 H   0  0  0  0  0  0  0  0  0  0  0  0
    0.7176   -4.3582    0.0149 H   0  0  0  0  0  0  0  0  0  0  0  0
    1.2928   -3.5861    2.4165 H   0  0  0  0  0  0  0  0  0  0  0  0
    0.6504   -4.0329    4.7552 H   0  0  0  0  0  0  0  0  0  0  0  0
   -1.7270   -4.6607    5.2916 H   0  0  0  0  0  0  0  0  0  0  0  0
   -3.3729   -4.8545    3.4288 H   0  0  0  0  0  0  0  0  0  0  0  0
  1  2  1  0
  1 23  1  0
  1 24  1  0
  1 25  1  0
  2  3  2  0
  2  7  1  0
  3  4  1  0
  3 26  1  0
  4  5  2  0
  4 27  1  0
  5  6  1  0
  5 28  1  0
  6  7  2  0
  7  8  1  0
  8  9  2  0
  8 10  1  0
 10 11  1  0
 10 15  1  0
 11 12  1  0
 11 29  1  0
 11 30  1  0
 12 13  1  0
 12 31  1  0
 12 32  1  0
 13 14  1  0
 13 33  1  0
 14 15  1  0
 14 34  1  0
 14 35  1  0
 15 16  1  0
 15 36  1  6
 16 17  2  0
 16 21  1  0
 17 18  1  0
 17 37  1  0
 18 19  2  0
 18 38  1  0
 19 20  1  0
 19 39  1  0
 20 21  2  0
 20 40  1  0
 21 22  1  0
M  END

