
     RDKit          3D

 39 41  0  0  0  0  0  0  0  0999 V2000
    1.9743    0.2990    0.1594 O   0  0  0  0  0  0  0  0  0  0  0  0
    2.4620   -0.7671    0.4151 C   0  0  0  0  0  0  0  0  0  0  0  0
    1.9886   -1.5031    1.4515 O   0  0  0  0  0  0  0  0  0  0  0  0
    3.6122   -1.4032   -0.3510 C   0  0  0  0  0  0  0  0  0  0  0  0
    4.1465   -0.5220   -1.4824 C   0  0  0  0  0  0  0  0  0  0  0  0
    5.1957   -1.2150   -2.3069 C   0  0  0  0  0  0  0  0  0  0  0  0
    6.4661   -0.7603   -2.5230 C   0  0  0  0  0  0  0  0  0  0  0  0
    7.3406   -1.8748   -3.5473 S   0  0  0  0  0  0  0  0  0  0  0  0
    5.8818   -2.8879   -3.6069 C   0  0  0  0  0  0  0  0  0  0  0  0
    5.8312   -4.0326   -4.3556 N   0  0  0  0  0  0  0  0  0  0  0  0
    4.6579   -4.8902   -4.2365 C   0  0  0  0  0  0  0  0  0  0  0  0
    4.8126   -6.0106   -3.1885 C   0  0  0  0  0  0  0  0  0  0  0  0
    5.6815   -7.1841   -3.6000 C   0  0  0  0  0  0  0  0  0  0  0  0
    5.1280   -8.4742   -3.5983 C   0  0  0  0  0  0  0  0  0  0  0  0
    5.8741   -9.5973   -3.9637 C   0  0  0  0  0  0  0  0  0  0  0  0
    7.2066   -9.4406   -4.3448 C   0  0  0  0  0  0  0  0  0  0  0  0
    7.7709   -8.1628   -4.3548 C   0  0  0  0  0  0  0  0  0  0  0  0
    7.0345   -7.0256   -3.9879 C   0  0  0  0  0  0  0  0  0  0  0  0
    7.7128   -5.6690   -4.0238 C   0  0  0  0  0  0  0  0  0  0  0  0
    7.0325   -4.6172   -4.9250 C   0  0  0  0  0  0  0  0  0  0  0  0
    4.8837   -2.4171   -2.9068 N   0  0  0  0  0  0  0  0  0  0  0  0
    2.4790   -2.3341    1.5257 H   0  0  0  0  0  0  0  0  0  0  0  0
    3.2694   -2.3672   -0.7670 H   0  0  0  0  0  0  0  0  0  0  0  0
    4.4179   -1.6509    0.3644 H   0  0  0  0  0  0  0  0  0  0  0  0
    4.5467    0.4164   -1.0716 H   0  0  0  0  0  0  0  0  0  0  0  0
    3.2990   -0.2404   -2.1292 H   0  0  0  0  0  0  0  0  0  0  0  0
    6.9377    0.1483   -2.1549 H   0  0  0  0  0  0  0  0  0  0  0  0
    4.4466   -5.3285   -5.2269 H   0  0  0  0  0  0  0  0  0  0  0  0
    3.8153   -4.2455   -3.9581 H   0  0  0  0  0  0  0  0  0  0  0  0
    3.8069   -6.3902   -2.9469 H   0  0  0  0  0  0  0  0  0  0  0  0
    5.1968   -5.5514   -2.2597 H   0  0  0  0  0  0  0  0  0  0  0  0
    4.0831   -8.5989   -3.2997 H   0  0  0  0  0  0  0  0  0  0  0  0
    5.4129  -10.5881   -3.9512 H   0  0  0  0  0  0  0  0  0  0  0  0
    7.8069  -10.3063   -4.6357 H   0  0  0  0  0  0  0  0  0  0  0  0
    8.8160   -8.0409   -4.6544 H   0  0  0  0  0  0  0  0  0  0  0  0
    8.7474   -5.8049   -4.3767 H   0  0  0  0  0  0  0  0  0  0  0  0
    7.7892   -5.2453   -3.0059 H   0  0  0  0  0  0  0  0  0  0  0  0
    6.7707   -5.0745   -5.8945 H   0  0  0  0  0  0  0  0  0  0  0  0
    7.7433   -3.8064   -5.1466 H   0  0  0  0  0  0  0  0  0  0  0  0
  1  2  2  0
  2  3  1  0
  2  4  1  0
  3 22  1  0
  4  5  1  0
  4 23  1  0
  4 24  1  0
  5  6  1  0
  5 25  1  0
  5 26  1  0
  6  7  2  0
  6 21  1  0
  7  8  1  0
  7 27  1  0
  8  9  1  0
  9 10  1  0
  9 21  2  0
 10 11  1  0
 10 20  1  0
 11 12  1  0
 11 28  1  0
 11 29  1  0
 12 13  1  0
 12 30  1  0
 12 31  1  0
 13 14  1  0
 13 18  2  0
 14 15  2  0
 14 32  1  0
 15 16  1  0
 15 33  1  0
 16 17  2  0
 16 34  1  0
 17 18  1  0
 17 35  1  0
 18 19  1  0
 19 20  1  0
 19 36  1  0
 19 37  1  0
 20 38  1  0
 20 39  1  0
M  END

