
     RDKit          3D

123129  0  0  0  0  0  0  0  0999 V2000
    3.2455   -0.2802    4.3271 C   0  0  0  0  0  0  0  0  0  0  0  0
    2.8122    0.3433    3.1396 O   0  0  0  0  0  0  0  0  0  0  0  0
    3.5040    1.4122    2.6631 C   0  0  0  0  0  0  0  0  0  0  0  0
    4.6367    1.9630    3.2745 C   0  0  0  0  0  0  0  0  0  0  0  0
    5.2970    3.0556    2.6990 C   0  0  0  0  0  0  0  0  0  0  0  0
    4.8475    3.6273    1.5050 C   0  0  0  0  0  0  0  0  0  0  0  0
    5.5881    4.7757    0.8563 C   0  0  0  0  0  0  0  0  0  0  0  0
    6.6672    4.3070   -0.1305 C   0  0  0  0  0  0  0  0  0  0  0  0
    7.3557    5.4351   -0.7325 N   0  0  0  0  0  0  0  0  0  0  0  0
    8.6616    5.3580   -1.1485 C   0  0  0  0  0  0  0  0  0  0  0  0
    9.3323    4.3468   -1.0206 O   0  0  0  0  0  0  0  0  0  0  0  0
    9.2147    6.6213   -1.7266 C   0  0  0  0  0  0  0  0  0  0  0  0
    8.5964    8.1653   -1.1829 S   0  0  0  0  0  0  0  0  0  0  0  0
    9.7474    9.0493   -2.1519 C   0  0  0  0  0  0  0  0  0  0  0  0
    9.7563   10.4977   -2.1659 C   0  0  0  0  0  0  0  0  0  0  0  0
    8.8758   11.3814   -1.5626 C   0  0  0  0  0  0  0  0  0  0  0  0
    9.1979   12.7418   -1.7811 C   0  0  0  0  0  0  0  0  0  0  0  0
   10.3287   12.9249   -2.5607 C   0  0  0  0  0  0  0  0  0  0  0  0
   10.9264   14.1768   -2.9863 C   0  0  0  0  0  0  0  0  0  0  0  0
   10.3448   15.4339   -2.9574 C   0  0  0  0  0  0  0  0  0  0  0  0
   11.1981   16.4809   -3.4138 C   0  0  0  0  0  0  0  0  0  0  0  0
   10.7471   17.8984   -3.4130 C   0  0  0  0  0  0  0  0  0  0  0  0
   11.4584   18.9022   -2.7358 C   0  0  0  0  0  0  0  0  0  0  0  0
   10.9970   20.2220   -2.7073 C   0  0  0  0  0  0  0  0  0  0  0  0
    9.8055   20.6008   -3.3466 C   0  0  0  0  0  0  0  0  0  0  0  0
    9.2669   22.0443   -3.3346 C   0  0  1  0  0  0  0  0  0  0  0  0
   10.1794   22.9995   -2.5443 C   0  0  0  0  0  0  0  0  0  0  0  0
    9.1643   22.5641   -4.7877 C   0  0  0  0  0  0  0  0  0  0  0  0
    7.8651   22.0639   -2.6819 C   0  0  0  0  0  0  0  0  0  0  0  0
    9.0949   19.5870   -4.0173 C   0  0  0  0  0  0  0  0  0  0  0  0
    9.5480   18.2692   -4.0499 C   0  0  0  0  0  0  0  0  0  0  0  0
   12.4403   15.9937   -3.8158 C   0  0  0  0  0  0  0  0  0  0  0  0
   13.6540   16.5936   -4.4433 C   0  0  0  0  0  0  0  0  0  0  0  0
   14.6798   15.9296   -4.5494 O   0  0  0  0  0  0  0  0  0  0  0  0
   13.5609   17.8752   -4.8990 N   0  0  0  0  0  0  0  0  0  0  0  0
   14.6753   18.5261   -5.5635 C   0  0  0  0  0  0  0  0  0  0  0  0
   14.7377   18.2529   -7.0817 C   0  0  0  0  0  0  0  0  0  0  0  0
   15.9154   18.9296   -7.7461 C   0  0  0  0  0  0  0  0  0  0  0  0
   17.1739   18.3286   -7.7654 C   0  0  0  0  0  0  0  0  0  0  0  0
   18.2752   18.9801   -8.3418 C   0  0  0  0  0  0  0  0  0  0  0  0
   18.1385   20.2475   -8.9098 C   0  0  0  0  0  0  0  0  0  0  0  0
   19.1381   20.9551   -9.4928 O   0  0  0  0  0  0  0  0  0  0  0  0
   20.4280   20.3957   -9.5416 C   0  0  0  0  0  0  0  0  0  0  0  0
   16.8610   20.8729   -8.8986 C   0  0  0  0  0  0  0  0  0  0  0  0
   16.8027   22.0995   -9.4757 O   0  0  0  0  0  0  0  0  0  0  0  0
   15.5733   22.7808   -9.5113 C   0  0  0  0  0  0  0  0  0  0  0  0
   15.7774   20.2108   -8.3191 C   0  0  0  0  0  0  0  0  0  0  0  0
   12.5568   14.2711   -3.5877 S   0  0  0  0  0  0  0  0  0  0  0  0
   10.9975   11.3779   -3.0297 S   0  0  0  0  0  0  0  0  0  0  0  0
   10.5659    8.1677   -2.8318 C   0  0  0  0  0  0  0  0  0  0  0  0
   10.2826    6.7855   -2.6022 C   0  0  0  0  0  0  0  0  0  0  0  0
   11.0583    5.7170   -3.2791 C   0  0  0  0  0  0  0  0  0  0  0  0
   12.4531    5.8212   -3.3844 C   0  0  0  0  0  0  0  0  0  0  0  0
   13.2065    4.8492   -4.0497 C   0  0  0  0  0  0  0  0  0  0  0  0
   12.6002    3.7348   -4.6476 C   0  0  0  0  0  0  0  0  0  0  0  0
   13.3934    2.6418   -5.3891 C   0  0  1  0  0  0  0  0  0  0  0  0
   14.9075    2.9197   -5.3888 C   0  0  0  0  0  0  0  0  0  0  0  0
   13.1524    1.2778   -4.7013 C   0  0  0  0  0  0  0  0  0  0  0  0
   12.9164    2.5679   -6.8583 C   0  0  0  0  0  0  0  0  0  0  0  0
   11.1981    3.6437   -4.5455 C   0  0  0  0  0  0  0  0  0  0  0  0
   10.4438    4.6044   -3.8792 C   0  0  0  0  0  0  0  0  0  0  0  0
    3.7046    3.0743    0.9028 C   0  0  0  0  0  0  0  0  0  0  0  0
    3.0298    1.9869    1.4566 C   0  0  0  0  0  0  0  0  0  0  0  0
    1.9547    1.4757    0.7877 O   0  0  0  0  0  0  0  0  0  0  0  0
    0.6940    1.4923    1.4406 C   0  0  0  0  0  0  0  0  0  0  0  0
    2.5483   -1.1067    4.5199 H   0  0  0  0  0  0  0  0  0  0  0  0
    3.2265    0.4124    5.1881 H   0  0  0  0  0  0  0  0  0  0  0  0
    4.2664   -0.6907    4.2254 H   0  0  0  0  0  0  0  0  0  0  0  0
    5.0204    1.5414    4.2038 H   0  0  0  0  0  0  0  0  0  0  0  0
    6.1805    3.4630    3.1983 H   0  0  0  0  0  0  0  0  0  0  0  0
    6.0673    5.4030    1.6259 H   0  0  0  0  0  0  0  0  0  0  0  0
    4.8669    5.4225    0.3246 H   0  0  0  0  0  0  0  0  0  0  0  0
    6.2125    3.6531   -0.8996 H   0  0  0  0  0  0  0  0  0  0  0  0
    7.4243    3.6961    0.3809 H   0  0  0  0  0  0  0  0  0  0  0  0
    6.7974    6.2291   -1.0262 H   0  0  0  0  0  0  0  0  0  0  0  0
    8.0199   11.0518   -0.9713 H   0  0  0  0  0  0  0  0  0  0  0  0
    8.6275   13.5715   -1.3625 H   0  0  0  0  0  0  0  0  0  0  0  0
    9.3279   15.6151   -2.6072 H   0  0  0  0  0  0  0  0  0  0  0  0
   12.3820   18.6454   -2.2122 H   0  0  0  0  0  0  0  0  0  0  0  0
   11.5857   20.9581   -2.1596 H   0  0  0  0  0  0  0  0  0  0  0  0
   11.1921   23.0519   -2.9738 H   0  0  0  0  0  0  0  0  0  0  0  0
   10.2701   22.7020   -1.4878 H   0  0  0  0  0  0  0  0  0  0  0  0
    9.7598   24.0174   -2.5651 H   0  0  0  0  0  0  0  0  0  0  0  0
   10.1513   22.5667   -5.2772 H   0  0  0  0  0  0  0  0  0  0  0  0
    8.7761   23.5958   -4.8003 H   0  0  0  0  0  0  0  0  0  0  0  0
    8.4885   21.9469   -5.3991 H   0  0  0  0  0  0  0  0  0  0  0  0
    7.9086   21.7046   -1.6414 H   0  0  0  0  0  0  0  0  0  0  0  0
    7.1483   21.4299   -3.2256 H   0  0  0  0  0  0  0  0  0  0  0  0
    7.4608   23.0894   -2.6712 H   0  0  0  0  0  0  0  0  0  0  0  0
    8.1616   19.8260   -4.5325 H   0  0  0  0  0  0  0  0  0  0  0  0
    8.9700   17.5132   -4.5874 H   0  0  0  0  0  0  0  0  0  0  0  0
   12.6664   18.3483   -4.8601 H   0  0  0  0  0  0  0  0  0  0  0  0
   15.6021   18.1635   -5.0965 H   0  0  0  0  0  0  0  0  0  0  0  0
   14.6077   19.6102   -5.3772 H   0  0  0  0  0  0  0  0  0  0  0  0
   13.7943   18.5880   -7.5454 H   0  0  0  0  0  0  0  0  0  0  0  0
   14.7982   17.1625   -7.2234 H   0  0  0  0  0  0  0  0  0  0  0  0
   17.3093   17.3346   -7.3308 H   0  0  0  0  0  0  0  0  0  0  0  0
   19.2448   18.4816   -8.3450 H   0  0  0  0  0  0  0  0  0  0  0  0
   21.0696   21.1301  -10.0475 H   0  0  0  0  0  0  0  0  0  0  0  0
   20.4479   19.4500  -10.1144 H   0  0  0  0  0  0  0  0  0  0  0  0
   20.8342   20.2028   -8.5314 H   0  0  0  0  0  0  0  0  0  0  0  0
   15.7590   23.7370  -10.0193 H   0  0  0  0  0  0  0  0  0  0  0  0
   15.1833   22.9862   -8.4969 H   0  0  0  0  0  0  0  0  0  0  0  0
   14.8049   22.2206  -10.0757 H   0  0  0  0  0  0  0  0  0  0  0  0
   14.7951   20.6858   -8.3141 H   0  0  0  0  0  0  0  0  0  0  0  0
   11.3469    8.4982   -3.5182 H   0  0  0  0  0  0  0  0  0  0  0  0
   12.9681    6.6663   -2.9204 H   0  0  0  0  0  0  0  0  0  0  0  0
   14.2883    4.9775   -4.0898 H   0  0  0  0  0  0  0  0  0  0  0  0
   15.3179    2.9582   -4.3676 H   0  0  0  0  0  0  0  0  0  0  0  0
   15.1518    3.8683   -5.8921 H   0  0  0  0  0  0  0  0  0  0  0  0
   15.4344    2.1155   -5.9264 H   0  0  0  0  0  0  0  0  0  0  0  0
   13.4831    1.3016   -3.6509 H   0  0  0  0  0  0  0  0  0  0  0  0
   13.7132    0.4815   -5.2184 H   0  0  0  0  0  0  0  0  0  0  0  0
   12.0887    0.9957   -4.7092 H   0  0  0  0  0  0  0  0  0  0  0  0
   13.0848    3.5253   -7.3768 H   0  0  0  0  0  0  0  0  0  0  0  0
   11.8437    2.3325   -6.9307 H   0  0  0  0  0  0  0  0  0  0  0  0
   13.4675    1.7836   -7.4033 H   0  0  0  0  0  0  0  0  0  0  0  0
   10.6738    2.7991   -4.9986 H   0  0  0  0  0  0  0  0  0  0  0  0
    9.3594    4.4936   -3.8319 H   0  0  0  0  0  0  0  0  0  0  0  0
    3.3078    3.4831   -0.0301 H   0  0  0  0  0  0  0  0  0  0  0  0
   -0.0557    1.2206    0.6838 H   0  0  0  0  0  0  0  0  0  0  0  0
    0.4582    2.5003    1.8282 H   0  0  0  0  0  0  0  0  0  0  0  0
    0.6506    0.7699    2.2711 H   0  0  0  0  0  0  0  0  0  0  0  0
  1  2  1  0
  1 66  1  0
  1 67  1  0
  1 68  1  0
  2  3  1  0
  3  4  2  0
  3 63  1  0
  4  5  1  0
  4 69  1  0
  5  6  2  0
  5 70  1  0
  6  7  1  0
  6 62  1  0
  7  8  1  0
  7 71  1  0
  7 72  1  0
  8  9  1  0
  8 73  1  0
  8 74  1  0
  9 10  1  0
  9 75  1  0
 10 11  2  0
 10 12  1  0
 12 13  2  0
 12 51  1  0
 13 14  1  0
 14 15  2  0
 14 50  1  0
 15 16  1  0
 15 49  1  0
 16 17  2  0
 16 76  1  0
 17 18  1  0
 17 77  1  0
 18 19  2  0
 18 49  1  0
 19 20  1  0
 19 48  1  0
 20 21  2  0
 20 78  1  0
 21 22  1  0
 21 32  1  0
 22 23  2  0
 22 31  1  0
 23 24  1  0
 23 79  1  0
 24 25  2  0
 24 80  1  0
 25 26  1  0
 25 30  1  0
 26 27  1  1
 26 28  1  0
 26 29  1  0
 27 81  1  0
 27 82  1  0
 27 83  1  0
 28 84  1  0
 28 85  1  0
 28 86  1  0
 29 87  1  0
 29 88  1  0
 29 89  1  0
 30 31  2  0
 30 90  1  0
 31 91  1  0
 32 33  2  0
 32 48  1  0
 33 34  1  0
 33 35  1  0
 35 36  1  0
 35 92  1  0
 36 37  1  0
 36 93  1  0
 36 94  1  0
 37 38  1  0
 37 95  1  0
 37 96  1  0
 38 39  2  0
 38 47  1  0
 39 40  1  0
 39 97  1  0
 40 41  2  0
 40 98  1  0
 41 42  1  0
 41 44  1  0
 42 43  1  0
 43 99  1  0
 43100  1  0
 43101  1  0
 44 45  1  0
 44 47  2  0
 45 46  1  0
 46102  1  0
 46103  1  0
 46104  1  0
 47105  1  0
 50 51  2  0
 50106  1  0
 51 52  1  0
 52 53  2  0
 52 61  1  0
 53 54  1  0
 53107  1  0
 54 55  2  0
 54108  1  0
 55 56  1  0
 55 60  1  0
 56 57  1  6
 56 58  1  0
 56 59  1  0
 57109  1  0
 57110  1  0
 57111  1  0
 58112  1  0
 58113  1  0
 58114  1  0
 59115  1  0
 59116  1  0
 59117  1  0
 60 61  2  0
 60118  1  0
 61119  1  0
 62 63  2  0
 62120  1  0
 63 64  1  0
 64 65  1  0
 65121  1  0
 65122  1  0
 65123  1  0
M  CHG  2  13   1  34  -1
M  END

