
     RDKit          3D

 51 53  0  0  0  0  0  0  0  0999 V2000
    2.5038    1.0694    1.3716 C   0  0  0  0  0  0  0  0  0  0  0  0
    3.8693    0.7954    0.7713 C   0  0  0  0  0  0  0  0  0  0  0  0
    3.8147    1.1133   -0.6104 O   0  0  0  0  0  0  0  0  0  0  0  0
    4.9170    0.9594   -1.3847 C   0  0  0  0  0  0  0  0  0  0  0  0
    6.1577    0.4881   -0.9232 C   0  0  0  0  0  0  0  0  0  0  0  0
    7.2308    0.3701   -1.8118 C   0  0  0  0  0  0  0  0  0  0  0  0
    7.1048    0.7093   -3.1652 C   0  0  0  0  0  0  0  0  0  0  0  0
    8.2807    0.6029   -4.1144 C   0  0  0  0  0  0  0  0  0  0  0  0
    8.9139   -0.7069   -4.0806 N   0  0  0  0  0  0  0  0  0  0  0  0
   10.2689   -0.8710   -4.0769 C   0  0  0  0  0  0  0  0  0  0  0  0
   11.0543    0.0643   -4.1218 O   0  0  0  0  0  0  0  0  0  0  0  0
   10.7674   -2.2973   -4.0156 C   0  0  0  0  0  0  0  0  0  0  0  0
   12.0912   -2.5334   -4.4181 C   0  0  0  0  0  0  0  0  0  0  0  0
   12.6274   -3.8220   -4.3907 C   0  0  0  0  0  0  0  0  0  0  0  0
   11.8577   -4.8955   -3.9348 C   0  0  0  0  0  0  0  0  0  0  0  0
   10.5497   -4.6498   -3.5064 C   0  0  0  0  0  0  0  0  0  0  0  0
    9.5669   -6.0123   -2.8658 S   0  0  1  0  0  0  0  0  0  0  0  0
    8.1606   -5.6532   -3.0394 O   0  0  0  0  0  0  0  0  0  0  0  0
   10.1353   -7.2572   -3.3768 O   0  0  0  0  0  0  0  0  0  0  0  0
    9.8744   -6.0799   -1.2010 N   0  0  0  0  0  0  0  0  0  0  0  0
    9.5525   -5.0638   -0.2680 C   0  0  0  0  0  0  0  0  0  0  0  0
    8.2558   -4.5261   -0.1966 C   0  0  0  0  0  0  0  0  0  0  0  0
    7.9659   -3.5446    0.7533 C   0  0  0  0  0  0  0  0  0  0  0  0
    8.9415   -3.1082    1.6557 C   0  0  0  0  0  0  0  0  0  0  0  0
   10.2256   -3.6570    1.5951 C   0  0  0  0  0  0  0  0  0  0  0  0
   10.5357   -4.6186    0.6319 C   0  0  0  0  0  0  0  0  0  0  0  0
    9.9934   -3.3688   -3.5495 C   0  0  0  0  0  0  0  0  0  0  0  0
    5.8560    1.1724   -3.6112 C   0  0  0  0  0  0  0  0  0  0  0  0
    4.7775    1.3007   -2.7407 C   0  0  0  0  0  0  0  0  0  0  0  0
    2.5059    0.8338    2.4471 H   0  0  0  0  0  0  0  0  0  0  0  0
    1.7333    0.4551    0.8812 H   0  0  0  0  0  0  0  0  0  0  0  0
    2.2301    2.1282    1.2468 H   0  0  0  0  0  0  0  0  0  0  0  0
    4.1493   -0.2672    0.9043 H   0  0  0  0  0  0  0  0  0  0  0  0
    4.6463    1.4058    1.2697 H   0  0  0  0  0  0  0  0  0  0  0  0
    6.3011    0.2146    0.1222 H   0  0  0  0  0  0  0  0  0  0  0  0
    8.1887    0.0006   -1.4354 H   0  0  0  0  0  0  0  0  0  0  0  0
    9.0720    1.3260   -3.8635 H   0  0  0  0  0  0  0  0  0  0  0  0
    7.9475    0.8455   -5.1396 H   0  0  0  0  0  0  0  0  0  0  0  0
    8.3141   -1.5188   -4.1612 H   0  0  0  0  0  0  0  0  0  0  0  0
   12.6823   -1.6796   -4.7545 H   0  0  0  0  0  0  0  0  0  0  0  0
   13.6515   -3.9949   -4.7300 H   0  0  0  0  0  0  0  0  0  0  0  0
   12.2512   -5.9136   -3.9207 H   0  0  0  0  0  0  0  0  0  0  0  0
   10.7426   -6.5827   -1.0318 H   0  0  0  0  0  0  0  0  0  0  0  0
    7.4902   -4.8880   -0.8823 H   0  0  0  0  0  0  0  0  0  0  0  0
    6.9554   -3.1301    0.7971 H   0  0  0  0  0  0  0  0  0  0  0  0
    8.7019   -2.3502    2.4052 H   0  0  0  0  0  0  0  0  0  0  0  0
   10.9985   -3.3277    2.2942 H   0  0  0  0  0  0  0  0  0  0  0  0
   11.5466   -5.0321    0.5753 H   0  0  0  0  0  0  0  0  0  0  0  0
    8.9665   -3.2329   -3.2076 H   0  0  0  0  0  0  0  0  0  0  0  0
    5.7253    1.4400   -4.6640 H   0  0  0  0  0  0  0  0  0  0  0  0
    3.8068    1.6604   -3.0877 H   0  0  0  0  0  0  0  0  0  0  0  0
  1  2  1  0
  1 30  1  0
  1 31  1  0
  1 32  1  0
  2  3  1  0
  2 33  1  0
  2 34  1  0
  3  4  1  0
  4  5  2  0
  4 29  1  0
  5  6  1  0
  5 35  1  0
  6  7  2  0
  6 36  1  0
  7  8  1  0
  7 28  1  0
  8  9  1  0
  8 37  1  0
  8 38  1  0
  9 10  1  0
  9 39  1  0
 10 11  2  0
 10 12  1  0
 12 13  2  0
 12 27  1  0
 13 14  1  0
 13 40  1  0
 14 15  2  0
 14 41  1  0
 15 16  1  0
 15 42  1  0
 16 17  1  0
 16 27  2  0
 17 18  2  0
 17 19  2  0
 17 20  1  1
 20 21  1  0
 20 43  1  0
 21 22  2  0
 21 26  1  0
 22 23  1  0
 22 44  1  0
 23 24  2  0
 23 45  1  0
 24 25  1  0
 24 46  1  0
 25 26  2  0
 25 47  1  0
 26 48  1  0
 27 49  1  0
 28 29  2  0
 28 50  1  0
 29 51  1  0
M  END

