
     RDKit          3D

 50 53  0  0  0  0  0  0  0  0999 V2000
    4.5682    0.9397   -0.7173 C   0  0  0  0  0  0  0  0  0  0  0  0
    2.9935    0.1032   -0.0728 Si  0  0  1  0  0  4  0  0  0  0  0  0
    1.8664    1.3781    0.7629 C   0  0  0  0  0  0  0  0  0  0  0  0
    2.0616   -0.5855   -1.5706 C   0  0  0  0  0  0  0  0  0  0  0  0
    3.4118   -1.3328    1.1167 C   0  0  0  0  0  0  0  0  0  0  0  0
    3.0026   -2.6303    0.7550 C   0  0  0  0  0  0  0  0  0  0  0  0
    3.2574   -3.7440    1.5518 C   0  0  0  0  0  0  0  0  0  0  0  0
    3.9446   -3.6130    2.7687 C   0  0  0  0  0  0  0  0  0  0  0  0
    4.2236   -4.7392    3.6135 C   0  0  0  0  0  0  0  0  0  0  0  0
    4.8927   -4.5943    4.7925 C   0  0  0  0  0  0  0  0  0  0  0  0
    5.3564   -3.3109    5.2578 C   0  0  0  0  0  0  0  0  0  0  0  0
    6.0564   -3.1551    6.4896 C   0  0  0  0  0  0  0  0  0  0  0  0
    6.4759   -4.5913    7.6782 Si  0  0  1  0  0  4  0  0  0  0  0  0
    4.9021   -5.4292    8.3230 C   0  0  0  0  0  0  0  0  0  0  0  0
    7.6043   -5.8644    6.8413 C   0  0  0  0  0  0  0  0  0  0  0  0
    7.4079   -3.9035    9.1764 C   0  0  0  0  0  0  0  0  0  0  0  0
    6.4654   -1.8576    6.8514 C   0  0  0  0  0  0  0  0  0  0  0  0
    6.2103   -0.7437    6.0548 C   0  0  0  0  0  0  0  0  0  0  0  0
    5.5228   -0.8748    4.8380 C   0  0  0  0  0  0  0  0  0  0  0  0
    5.2436    0.2515    3.9934 C   0  0  0  0  0  0  0  0  0  0  0  0
    4.5747    0.1066    2.8143 C   0  0  0  0  0  0  0  0  0  0  0  0
    4.1113   -1.1769    2.3487 C   0  0  0  0  0  0  0  0  0  0  0  0
    4.3819   -2.3162    3.1819 C   0  0  0  0  0  0  0  0  0  0  0  0
    5.0856   -2.1715    4.4247 C   0  0  0  0  0  0  0  0  0  0  0  0
    4.3092    1.7153   -1.4579 H   0  0  0  0  0  0  0  0  0  0  0  0
    5.2205    0.2040   -1.2163 H   0  0  0  0  0  0  0  0  0  0  0  0
    5.1601    1.4204    0.0767 H   0  0  0  0  0  0  0  0  0  0  0  0
    1.5797    2.1619    0.0412 H   0  0  0  0  0  0  0  0  0  0  0  0
    2.3379    1.8741    1.6251 H   0  0  0  0  0  0  0  0  0  0  0  0
    0.9410    0.8988    1.1228 H   0  0  0  0  0  0  0  0  0  0  0  0
    1.8176    0.2414   -2.2585 H   0  0  0  0  0  0  0  0  0  0  0  0
    1.1125   -1.0683   -1.2862 H   0  0  0  0  0  0  0  0  0  0  0  0
    2.6618   -1.3175   -2.1351 H   0  0  0  0  0  0  0  0  0  0  0  0
    2.4642   -2.7850   -0.1827 H   0  0  0  0  0  0  0  0  0  0  0  0
    2.9213   -4.7346    1.2328 H   0  0  0  0  0  0  0  0  0  0  0  0
    3.8856   -5.7276    3.2903 H   0  0  0  0  0  0  0  0  0  0  0  0
    5.0825   -5.4777    5.4020 H   0  0  0  0  0  0  0  0  0  0  0  0
    4.2982   -5.8904    7.5265 H   0  0  0  0  0  0  0  0  0  0  0  0
    4.2608   -4.6980    8.8424 H   0  0  0  0  0  0  0  0  0  0  0  0
    5.1628   -6.2202    9.0465 H   0  0  0  0  0  0  0  0  0  0  0  0
    7.1405   -6.3473    5.9676 H   0  0  0  0  0  0  0  0  0  0  0  0
    7.8774   -6.6580    7.5574 H   0  0  0  0  0  0  0  0  0  0  0  0
    8.5369   -5.3866    6.4983 H   0  0  0  0  0  0  0  0  0  0  0  0
    6.8082   -3.1710    9.7408 H   0  0  0  0  0  0  0  0  0  0  0  0
    8.3575   -3.4215    8.8922 H   0  0  0  0  0  0  0  0  0  0  0  0
    7.6509   -4.7306    9.8643 H   0  0  0  0  0  0  0  0  0  0  0  0
    7.0041   -1.7029    7.7889 H   0  0  0  0  0  0  0  0  0  0  0  0
    6.5461    0.2469    6.3740 H   0  0  0  0  0  0  0  0  0  0  0  0
    5.5811    1.2400    4.3169 H   0  0  0  0  0  0  0  0  0  0  0  0
    4.3846    0.9900    2.2050 H   0  0  0  0  0  0  0  0  0  0  0  0
  2  1  1  6
  1 25  1  0
  1 26  1  0
  1 27  1  0
  2  3  1  0
  2  4  1  0
  2  5  1  0
  3 28  1  0
  3 29  1  0
  3 30  1  0
  4 31  1  0
  4 32  1  0
  4 33  1  0
  5  6  2  0
  5 22  1  0
  6  7  1  0
  6 34  1  0
  7  8  2  0
  7 35  1  0
  8  9  1  0
  8 23  1  0
  9 10  2  0
  9 36  1  0
 10 11  1  0
 10 37  1  0
 11 12  2  0
 11 24  1  0
 12 13  1  0
 12 17  1  0
 13 14  1  1
 13 15  1  0
 13 16  1  0
 14 38  1  0
 14 39  1  0
 14 40  1  0
 15 41  1  0
 15 42  1  0
 15 43  1  0
 16 44  1  0
 16 45  1  0
 16 46  1  0
 17 18  2  0
 17 47  1  0
 18 19  1  0
 18 48  1  0
 19 20  2  0
 19 24  1  0
 20 21  1  0
 20 49  1  0
 21 22  2  0
 21 50  1  0
 22 23  1  0
 23 24  2  0
M  END

