
     RDKit          3D

 26 27  0  0  0  0  0  0  0  0999 V2000
    1.0103   -0.0425   -0.5267 C   0  0  0  0  0  0  0  0  0  0  0  0
    2.4709    0.0127   -0.1576 C   0  0  0  0  0  0  0  0  0  0  0  0
    3.1174    1.2289    0.1249 C   0  0  0  0  0  0  0  0  0  0  0  0
    4.4719    1.2207    0.4612 C   0  0  0  0  0  0  0  0  0  0  0  0
    5.1467    0.0035    0.5077 C   0  0  0  0  0  0  0  0  0  0  0  0
    4.4254   -1.1641    0.2116 C   0  0  0  0  0  0  0  0  0  0  0  0
    5.1829   -2.4715    0.2693 C   0  0  0  0  0  0  0  0  0  0  0  0
    6.3682   -2.4776    0.5638 O   0  0  0  0  0  0  0  0  0  0  0  0
    4.5372   -3.7690   -0.0213 C   0  0  0  0  0  0  0  0  0  0  0  0
    5.1172   -5.0244   -0.0034 C   0  0  0  0  0  0  0  0  0  0  0  0
    4.0991   -5.9513   -0.3492 C   0  0  0  0  0  0  0  0  0  0  0  0
    2.9644   -5.2009   -0.5551 C   0  0  0  0  0  0  0  0  0  0  0  0
    1.5752   -5.5530   -0.9351 C   0  0  0  0  0  0  0  0  0  0  0  0
    1.2191   -6.6836   -1.1371 O   0  0  0  0  0  0  0  0  0  0  0  0
    0.7430   -4.4992   -1.0357 O   0  0  0  0  0  0  0  0  0  0  0  0
    3.2270   -3.8882   -0.3577 O   0  0  0  0  0  0  0  0  0  0  0  0
    3.1271   -1.1531   -0.1106 N   0  0  0  0  0  0  0  0  0  0  0  0
    0.5493    0.9550   -0.5389 H   0  0  0  0  0  0  0  0  0  0  0  0
    0.4582   -0.6734    0.1887 H   0  0  0  0  0  0  0  0  0  0  0  0
    0.8840   -0.4972   -1.5227 H   0  0  0  0  0  0  0  0  0  0  0  0
    2.5597    2.1670    0.0798 H   0  0  0  0  0  0  0  0  0  0  0  0
    4.9931    2.1550    0.6843 H   0  0  0  0  0  0  0  0  0  0  0  0
    6.2036   -0.0749    0.7631 H   0  0  0  0  0  0  0  0  0  0  0  0
    6.1591   -5.2225    0.2347 H   0  0  0  0  0  0  0  0  0  0  0  0
    4.1689   -7.0324   -0.4405 H   0  0  0  0  0  0  0  0  0  0  0  0
    1.2228   -3.6769   -0.8340 H   0  0  0  0  0  0  0  0  0  0  0  0
  1  2  1  0
  1 18  1  0
  1 19  1  0
  1 20  1  0
  2  3  2  0
  2 17  1  0
  3  4  1  0
  3 21  1  0
  4  5  2  0
  4 22  1  0
  5  6  1  0
  5 23  1  0
  6  7  1  0
  6 17  2  0
  7  8  2  0
  7  9  1  0
  9 10  2  0
  9 16  1  0
 10 11  1  0
 10 24  1  0
 11 12  2  0
 11 25  1  0
 12 13  1  0
 12 16  1  0
 13 14  2  0
 13 15  1  0
 15 26  1  0
M  END

