
     RDKit          3D

 51 54  0  0  0  0  0  0  0  0999 V2000
    3.8650   -3.8222    4.3938 C   0  0  0  0  0  0  0  0  0  0  0  0
    3.1943   -2.7335    3.7996 O   0  0  0  0  0  0  0  0  0  0  0  0
    3.6958   -2.1787    2.6671 C   0  0  0  0  0  0  0  0  0  0  0  0
    4.8418   -2.6439    2.0085 C   0  0  0  0  0  0  0  0  0  0  0  0
    5.2793   -2.0127    0.8292 C   0  0  0  0  0  0  0  0  0  0  0  0
    6.4353   -2.4381    0.1511 N   0  0  0  0  0  0  0  0  0  0  0  0
    7.1431   -3.6305    0.3510 C   0  0  0  0  0  0  0  0  0  0  0  0
    6.5457   -4.8809    0.1565 C   0  0  0  0  0  0  0  0  0  0  0  0
    7.3569   -6.0463    0.3467 C   0  0  0  0  0  0  0  0  0  0  0  0
    8.6393   -6.0048    0.6565 N   0  0  0  0  0  0  0  0  0  0  0  0
    9.2424   -4.8030    0.8202 C   0  0  0  0  0  0  0  0  0  0  0  0
   10.6301   -4.7832    1.1381 C   0  0  0  0  0  0  0  0  0  0  0  0
   11.2744   -3.5827    1.3407 C   0  0  0  0  0  0  0  0  0  0  0  0
   12.9799   -3.5535    1.7294 Cl  0  0  0  0  0  0  0  0  0  0  0  0
   10.5775   -2.3516    1.2541 C   0  0  0  0  0  0  0  0  0  0  0  0
    9.2335   -2.3526    0.9441 C   0  0  0  0  0  0  0  0  0  0  0  0
    8.5335   -3.5655    0.6980 C   0  0  0  0  0  0  0  0  0  0  0  0
    6.7869   -7.4367    0.1244 C   0  0  0  0  0  0  0  0  0  0  0  0
    5.2637   -7.4878    0.0018 C   0  0  0  0  0  0  0  0  0  0  0  0
    4.7750   -6.3675   -0.9167 C   0  0  0  0  0  0  0  0  0  0  0  0
    5.1100   -5.0016   -0.3105 C   0  0  0  0  0  0  0  0  0  0  0  0
    4.5779   -0.9042    0.3363 C   0  0  0  0  0  0  0  0  0  0  0  0
    3.4396   -0.4329    1.0015 C   0  0  0  0  0  0  0  0  0  0  0  0
    2.7622    0.6141    0.4466 O   0  0  0  0  0  0  0  0  0  0  0  0
    2.6676    1.8103    1.2102 C   0  0  0  0  0  0  0  0  0  0  0  0
    2.9806   -1.0655    2.1697 C   0  0  0  0  0  0  0  0  0  0  0  0
    1.8728   -0.5957    2.8233 O   0  0  0  0  0  0  0  0  0  0  0  0
    0.6747   -1.3272    2.6056 C   0  0  0  0  0  0  0  0  0  0  0  0
    3.2891   -4.0923    5.2891 H   0  0  0  0  0  0  0  0  0  0  0  0
    4.8928   -3.5547    4.6972 H   0  0  0  0  0  0  0  0  0  0  0  0
    3.9104   -4.6972    3.7205 H   0  0  0  0  0  0  0  0  0  0  0  0
    5.4157   -3.4757    2.4123 H   0  0  0  0  0  0  0  0  0  0  0  0
    6.9639   -1.6885   -0.2793 H   0  0  0  0  0  0  0  0  0  0  0  0
   11.1519   -5.7370    1.2162 H   0  0  0  0  0  0  0  0  0  0  0  0
   11.1096   -1.4189    1.4466 H   0  0  0  0  0  0  0  0  0  0  0  0
    8.7006   -1.4000    0.9105 H   0  0  0  0  0  0  0  0  0  0  0  0
    7.1596   -8.0864    0.9320 H   0  0  0  0  0  0  0  0  0  0  0  0
    7.2475   -7.8291   -0.8009 H   0  0  0  0  0  0  0  0  0  0  0  0
    4.7978   -7.3699    0.9975 H   0  0  0  0  0  0  0  0  0  0  0  0
    4.9501   -8.4757   -0.3726 H   0  0  0  0  0  0  0  0  0  0  0  0
    3.6883   -6.4377   -1.0859 H   0  0  0  0  0  0  0  0  0  0  0  0
    5.2543   -6.4711   -1.9072 H   0  0  0  0  0  0  0  0  0  0  0  0
    4.4286   -4.8140    0.5394 H   0  0  0  0  0  0  0  0  0  0  0  0
    4.9004   -4.1880   -1.0243 H   0  0  0  0  0  0  0  0  0  0  0  0
    4.8870   -0.3994   -0.5809 H   0  0  0  0  0  0  0  0  0  0  0  0
    2.1062    2.5291    0.5968 H   0  0  0  0  0  0  0  0  0  0  0  0
    3.6707    2.2264    1.4167 H   0  0  0  0  0  0  0  0  0  0  0  0
    2.1400    1.6463    2.1619 H   0  0  0  0  0  0  0  0  0  0  0  0
   -0.1200   -0.8132    3.1654 H   0  0  0  0  0  0  0  0  0  0  0  0
    0.7629   -2.3615    2.9781 H   0  0  0  0  0  0  0  0  0  0  0  0
    0.4060   -1.3462    1.5344 H   0  0  0  0  0  0  0  0  0  0  0  0
  1  2  1  0
  1 29  1  0
  1 30  1  0
  1 31  1  0
  2  3  1  0
  3  4  2  0
  3 26  1  0
  4  5  1  0
  4 32  1  0
  5  6  1  0
  5 22  2  0
  6  7  1  0
  6 33  1  0
  7  8  2  0
  7 17  1  0
  8  9  1  0
  8 21  1  0
  9 10  2  0
  9 18  1  0
 10 11  1  0
 11 12  2  0
 11 17  1  0
 12 13  1  0
 12 34  1  0
 13 14  1  0
 13 15  2  0
 15 16  1  0
 15 35  1  0
 16 17  2  0
 16 36  1  0
 18 19  1  0
 18 37  1  0
 18 38  1  0
 19 20  1  0
 19 39  1  0
 19 40  1  0
 20 21  1  0
 20 41  1  0
 20 42  1  0
 21 43  1  0
 21 44  1  0
 22 23  1  0
 22 45  1  0
 23 24  1  0
 23 26  2  0
 24 25  1  0
 25 46  1  0
 25 47  1  0
 25 48  1  0
 26 27  1  0
 27 28  1  0
 28 49  1  0
 28 50  1  0
 28 51  1  0
M  END

