
     RDKit          3D

 94102  0  0  0  0  0  0  0  0999 V2000
    9.5631    2.1886   -4.4554 C   0  0  0  0  0  0  0  0  0  0  0  0
    8.9850    1.6819   -3.1335 C   0  0  0  0  0  0  0  0  0  0  0  0
    8.1459    2.7271   -2.3918 C   0  0  0  0  0  0  0  0  0  0  0  0
    7.5674    2.2269   -1.0647 C   0  0  0  0  0  0  0  0  0  0  0  0
    6.7251    3.2766   -0.3350 C   0  0  0  0  0  0  0  0  0  0  0  0
    6.1334    2.8156    1.0055 C   0  0  0  0  0  0  0  0  0  0  0  0
    7.1119    2.5283    2.0414 N   0  0  0  0  0  0  0  0  0  0  0  0
    7.7335    3.4857    2.8370 C   0  0  0  0  0  0  0  0  0  0  0  0
    7.5854    4.8793    2.8298 C   0  0  0  0  0  0  0  0  0  0  0  0
    8.3255    5.6198    3.7538 C   0  0  0  0  0  0  0  0  0  0  0  0
    9.1973    4.9969    4.6659 C   0  0  0  0  0  0  0  0  0  0  0  0
    9.3419    3.6093    4.6722 C   0  0  0  0  0  0  0  0  0  0  0  0
    8.6087    2.8420    3.7573 C   0  0  0  0  0  0  0  0  0  0  0  0
    8.4999    1.4198    3.4959 C   0  0  0  0  0  0  0  0  0  0  0  0
    9.0849    0.2891    4.0533 C   0  0  0  0  0  0  0  0  0  0  0  0
    8.7708   -1.0041    3.5871 C   0  0  0  0  0  0  0  0  0  0  0  0
    9.3921   -2.2002    4.1813 C   0  0  0  0  0  0  0  0  0  0  0  0
   10.3138   -2.0888    5.2435 C   0  0  0  0  0  0  0  0  0  0  0  0
   10.9065   -3.2121    5.8061 C   0  0  0  0  0  0  0  0  0  0  0  0
   11.8524   -3.4227    6.8857 C   0  0  0  0  0  0  0  0  0  0  0  0
   12.5256   -2.5658    7.7663 C   0  0  0  0  0  0  0  0  0  0  0  0
   13.3822   -3.1092    8.7239 C   0  0  0  0  0  0  0  0  0  0  0  0
   13.5692   -4.5011    8.8045 C   0  0  0  0  0  0  0  0  0  0  0  0
   12.9132   -5.3770    7.9370 C   0  0  0  0  0  0  0  0  0  0  0  0
   12.0518   -4.8301    6.9768 C   0  0  0  0  0  0  0  0  0  0  0  0
   11.2772   -5.4681    6.0099 N   0  0  0  0  0  0  0  0  0  0  0  0
   11.1772   -6.8997    5.7860 C   0  0  0  0  0  0  0  0  0  0  0  0
   12.0003   -7.4291    4.6015 C   0  0  0  0  0  0  0  0  0  0  0  0
   13.5174   -7.2977    4.7603 C   0  0  0  0  0  0  0  0  0  0  0  0
   14.3029   -7.8234    3.5551 C   0  0  0  0  0  0  0  0  0  0  0  0
   15.8224   -7.7024    3.7068 C   0  0  0  0  0  0  0  0  0  0  0  0
   16.6009   -8.2238    2.4983 C   0  0  0  0  0  0  0  0  0  0  0  0
   10.5785   -4.5003    5.2970 C   0  0  0  0  0  0  0  0  0  0  0  0
    9.6716   -4.6436    4.2546 C   0  0  0  0  0  0  0  0  0  0  0  0
    9.0649   -3.5030    3.6844 C   0  0  0  0  0  0  0  0  0  0  0  0
    8.0978   -3.6361    2.5828 C   0  0  0  0  0  0  0  0  0  0  0  0
    7.7424   -4.8946    2.0649 C   0  0  0  0  0  0  0  0  0  0  0  0
    6.8266   -5.0650    1.0212 C   0  0  0  0  0  0  0  0  0  0  0  0
    6.4369   -6.3535    0.4627 C   0  0  0  0  0  0  0  0  0  0  0  0
    7.0263   -7.6256    1.0043 C   0  0  0  0  0  0  0  0  0  0  0  0
    5.5324   -6.3676   -0.5533 C   0  0  0  0  0  0  0  0  0  0  0  0
    4.9315   -5.1592   -1.1137 C   0  0  0  0  0  0  0  0  0  0  0  0
    4.1302   -5.1185   -2.0102 O   0  0  0  0  0  0  0  0  0  0  0  0
    5.3388   -3.9620   -0.5426 O   0  0  0  0  0  0  0  0  0  0  0  0
    6.2402   -3.9000    0.4742 C   0  0  0  0  0  0  0  0  0  0  0  0
    6.5680   -2.6451    0.9615 C   0  0  0  0  0  0  0  0  0  0  0  0
    7.4913   -2.4745    2.0118 C   0  0  0  0  0  0  0  0  0  0  0  0
    7.8302   -1.1372    2.5151 C   0  0  0  0  0  0  0  0  0  0  0  0
    7.2389    0.0125    1.9466 C   0  0  0  0  0  0  0  0  0  0  0  0
    7.5657    1.2720    2.4297 C   0  0  0  0  0  0  0  0  0  0  0  0
   10.1593    1.4120   -4.9604 H   0  0  0  0  0  0  0  0  0  0  0  0
   10.2189    3.0616   -4.2983 H   0  0  0  0  0  0  0  0  0  0  0  0
    8.7644    2.4984   -5.1503 H   0  0  0  0  0  0  0  0  0  0  0  0
    9.8065    1.3444   -2.4757 H   0  0  0  0  0  0  0  0  0  0  0  0
    8.3653    0.7861   -3.3209 H   0  0  0  0  0  0  0  0  0  0  0  0
    7.3212    3.0647   -3.0475 H   0  0  0  0  0  0  0  0  0  0  0  0
    8.7645    3.6245   -2.2036 H   0  0  0  0  0  0  0  0  0  0  0  0
    8.3926    1.8957   -0.4101 H   0  0  0  0  0  0  0  0  0  0  0  0
    6.9502    1.3286   -1.2525 H   0  0  0  0  0  0  0  0  0  0  0  0
    5.8822    3.5871   -0.9785 H   0  0  0  0  0  0  0  0  0  0  0  0
    7.3303    4.1848   -0.1677 H   0  0  0  0  0  0  0  0  0  0  0  0
    5.5227    1.9111    0.8592 H   0  0  0  0  0  0  0  0  0  0  0  0
    5.4481    3.5887    1.3915 H   0  0  0  0  0  0  0  0  0  0  0  0
    6.9168    5.3798    2.1273 H   0  0  0  0  0  0  0  0  0  0  0  0
    8.2249    6.7082    3.7653 H   0  0  0  0  0  0  0  0  0  0  0  0
    9.7633    5.6068    5.3738 H   0  0  0  0  0  0  0  0  0  0  0  0
   10.0166    3.1267    5.3839 H   0  0  0  0  0  0  0  0  0  0  0  0
    9.7972    0.4241    4.8659 H   0  0  0  0  0  0  0  0  0  0  0  0
   10.5744   -1.1107    5.6454 H   0  0  0  0  0  0  0  0  0  0  0  0
   12.3795   -1.4843    7.7048 H   0  0  0  0  0  0  0  0  0  0  0  0
   13.9128   -2.4519    9.4166 H   0  0  0  0  0  0  0  0  0  0  0  0
   14.2448   -4.9096    9.5605 H   0  0  0  0  0  0  0  0  0  0  0  0
   13.0784   -6.4531    8.0110 H   0  0  0  0  0  0  0  0  0  0  0  0
   10.1127   -7.1470    5.6350 H   0  0  0  0  0  0  0  0  0  0  0  0
   11.4804   -7.4081    6.7142 H   0  0  0  0  0  0  0  0  0  0  0  0
   11.6803   -6.9110    3.6804 H   0  0  0  0  0  0  0  0  0  0  0  0
   11.7336   -8.4924    4.4615 H   0  0  0  0  0  0  0  0  0  0  0  0
   13.8379   -7.8399    5.6694 H   0  0  0  0  0  0  0  0  0  0  0  0
   13.7794   -6.2391    4.9317 H   0  0  0  0  0  0  0  0  0  0  0  0
   13.9833   -7.2787    2.6470 H   0  0  0  0  0  0  0  0  0  0  0  0
   14.0375   -8.8827    3.3770 H   0  0  0  0  0  0  0  0  0  0  0  0
   16.1407   -8.2475    4.6142 H   0  0  0  0  0  0  0  0  0  0  0  0
   16.0846   -6.6441    3.8870 H   0  0  0  0  0  0  0  0  0  0  0  0
   16.3892   -9.2906    2.3139 H   0  0  0  0  0  0  0  0  0  0  0  0
   17.6883   -8.1213    2.6423 H   0  0  0  0  0  0  0  0  0  0  0  0
   16.3339   -7.6726    1.5810 H   0  0  0  0  0  0  0  0  0  0  0  0
    9.4362   -5.6387    3.8838 H   0  0  0  0  0  0  0  0  0  0  0  0
    8.1925   -5.7904    2.4863 H   0  0  0  0  0  0  0  0  0  0  0  0
    8.1241   -7.6288    0.9014 H   0  0  0  0  0  0  0  0  0  0  0  0
    6.6292   -8.5033    0.4766 H   0  0  0  0  0  0  0  0  0  0  0  0
    6.8039   -7.7392    2.0783 H   0  0  0  0  0  0  0  0  0  0  0  0
    5.1998   -7.2992   -1.0142 H   0  0  0  0  0  0  0  0  0  0  0  0
    6.0730   -1.7994    0.4891 H   0  0  0  0  0  0  0  0  0  0  0  0
    6.5319   -0.0818    1.1261 H   0  0  0  0  0  0  0  0  0  0  0  0
  1  2  1  0
  1 51  1  0
  1 52  1  0
  1 53  1  0
  2  3  1  0
  2 54  1  0
  2 55  1  0
  3  4  1  0
  3 56  1  0
  3 57  1  0
  4  5  1  0
  4 58  1  0
  4 59  1  0
  5  6  1  0
  5 60  1  0
  5 61  1  0
  6  7  1  0
  6 62  1  0
  6 63  1  0
  7  8  1  0
  7 50  1  0
  8  9  2  0
  8 13  1  0
  9 10  1  0
  9 64  1  0
 10 11  2  0
 10 65  1  0
 11 12  1  0
 11 66  1  0
 12 13  2  0
 12 67  1  0
 13 14  1  0
 14 15  1  0
 14 50  2  0
 15 16  2  0
 15 68  1  0
 16 17  1  0
 16 48  1  0
 17 18  2  0
 17 35  1  0
 18 19  1  0
 18 69  1  0
 19 20  1  0
 19 33  2  0
 20 21  2  0
 20 25  1  0
 21 22  1  0
 21 70  1  0
 22 23  2  0
 22 71  1  0
 23 24  1  0
 23 72  1  0
 24 25  2  0
 24 73  1  0
 25 26  1  0
 26 27  1  0
 26 33  1  0
 27 28  1  0
 27 74  1  0
 27 75  1  0
 28 29  1  0
 28 76  1  0
 28 77  1  0
 29 30  1  0
 29 78  1  0
 29 79  1  0
 30 31  1  0
 30 80  1  0
 30 81  1  0
 31 32  1  0
 31 82  1  0
 31 83  1  0
 32 84  1  0
 32 85  1  0
 32 86  1  0
 33 34  1  0
 34 35  2  0
 34 87  1  0
 35 36  1  0
 36 37  1  0
 36 47  2  0
 37 38  2  0
 37 88  1  0
 38 39  1  0
 38 45  1  0
 39 40  1  0
 39 41  2  0
 40 89  1  0
 40 90  1  0
 40 91  1  0
 41 42  1  0
 41 92  1  0
 42 43  2  0
 42 44  1  0
 44 45  1  0
 45 46  2  0
 46 47  1  0
 46 93  1  0
 47 48  1  0
 48 49  2  0
 49 50  1  0
 49 94  1  0
M  END

