
     RDKit          3D

 46 48  0  0  0  0  0  0  0  0999 V2000
    2.1992   -0.8524   -0.2861 O   0  0  0  0  0  0  0  0  0  0  0  0
    1.9859    0.2106    0.2515 C   0  0  0  0  0  0  0  0  0  0  0  0
    1.1770    1.1541   -0.2537 O   0  0  0  0  0  0  0  0  0  0  0  0
    0.4166    0.8464   -1.4521 C   0  0  1  0  0  0  0  0  0  0  0  0
   -0.8311    0.0378   -1.0785 C   0  0  0  0  0  0  0  0  0  0  0  0
   -1.7923    0.8449   -0.1959 C   0  0  0  0  0  0  0  0  0  0  0  0
   -2.1677    2.1807   -0.8534 C   0  0  0  0  0  0  0  0  0  0  0  0
   -0.9216    2.9981   -1.2230 C   0  0  0  0  0  0  0  0  0  0  0  0
    0.0534    2.1875   -2.0896 C   0  0  0  0  0  0  0  0  0  0  0  0
    2.5544    0.6499    1.6042 C   0  0  2  0  0  0  0  0  0  0  0  0
    3.9924    0.1484    1.8490 C   0  0  0  0  0  0  0  0  0  0  0  0
    4.0520   -1.3309    2.2498 C   0  0  0  0  0  0  0  0  0  0  0  0
    3.0859   -1.6362    3.4024 C   0  0  2  0  0  0  0  0  0  0  0  0
    3.0881   -3.1153    3.8149 C   0  0  0  0  0  0  0  0  0  0  0  0
    2.0922   -3.3969    4.9469 C   0  0  0  0  0  0  0  0  0  0  0  0
    0.6787   -2.9244    4.5813 C   0  0  0  0  0  0  0  0  0  0  0  0
    0.6651   -1.4498    4.1602 C   0  0  0  0  0  0  0  0  0  0  0  0
    1.6599   -1.1722    3.0291 C   0  0  1  0  0  0  0  0  0  0  0  0
    1.5920    0.2389    2.6357 N   0  0  0  0  0  0  0  0  0  0  0  0
    1.0648    0.2532   -2.1142 H   0  0  0  0  0  0  0  0  0  0  0  0
   -0.5253   -0.8990   -0.5879 H   0  0  0  0  0  0  0  0  0  0  0  0
   -1.3327   -0.2510   -2.0198 H   0  0  0  0  0  0  0  0  0  0  0  0
   -1.3057    1.0322    0.7769 H   0  0  0  0  0  0  0  0  0  0  0  0
   -2.6976    0.2510    0.0132 H   0  0  0  0  0  0  0  0  0  0  0  0
   -2.8216    2.7663   -0.1854 H   0  0  0  0  0  0  0  0  0  0  0  0
   -2.7579    1.9820   -1.7681 H   0  0  0  0  0  0  0  0  0  0  0  0
   -0.4031    3.3090   -0.3001 H   0  0  0  0  0  0  0  0  0  0  0  0
   -1.2093    3.9234   -1.7496 H   0  0  0  0  0  0  0  0  0  0  0  0
    0.9745    2.7604   -2.2853 H   0  0  0  0  0  0  0  0  0  0  0  0
   -0.4047    1.9749   -3.0719 H   0  0  0  0  0  0  0  0  0  0  0  0
    2.5484    1.7498    1.5874 H   0  0  0  0  0  0  0  0  0  0  0  0
    4.4160    0.7612    2.6652 H   0  0  0  0  0  0  0  0  0  0  0  0
    4.6154    0.3384    0.9590 H   0  0  0  0  0  0  0  0  0  0  0  0
    5.0833   -1.5981    2.5386 H   0  0  0  0  0  0  0  0  0  0  0  0
    3.7880   -1.9549    1.3809 H   0  0  0  0  0  0  0  0  0  0  0  0
    3.3967   -1.0368    4.2838 H   0  0  0  0  0  0  0  0  0  0  0  0
    4.1068   -3.4195    4.1120 H   0  0  0  0  0  0  0  0  0  0  0  0
    2.8276   -3.7318    2.9342 H   0  0  0  0  0  0  0  0  0  0  0  0
    2.4249   -2.8733    5.8623 H   0  0  0  0  0  0  0  0  0  0  0  0
    2.0840   -4.4725    5.1916 H   0  0  0  0  0  0  0  0  0  0  0  0
   -0.0112   -3.0836    5.4270 H   0  0  0  0  0  0  0  0  0  0  0  0
    0.2945   -3.5409    3.7481 H   0  0  0  0  0  0  0  0  0  0  0  0
    0.9308   -0.8184    5.0306 H   0  0  0  0  0  0  0  0  0  0  0  0
   -0.3427   -1.1368    3.8420 H   0  0  0  0  0  0  0  0  0  0  0  0
    1.3474   -1.7673    2.1503 H   0  0  0  0  0  0  0  0  0  0  0  0
    1.7036    0.8324    3.4572 H   0  0  0  0  0  0  0  0  0  0  0  0
  1  2  2  0
  2  3  1  0
  2 10  1  0
  3  4  1  0
  4  5  1  0
  4  9  1  0
  4 20  1  6
  5  6  1  0
  5 21  1  0
  5 22  1  0
  6  7  1  0
  6 23  1  0
  6 24  1  0
  7  8  1  0
  7 25  1  0
  7 26  1  0
  8  9  1  0
  8 27  1  0
  8 28  1  0
  9 29  1  0
  9 30  1  0
 10 11  1  0
 10 19  1  0
 10 31  1  6
 11 12  1  0
 11 32  1  0
 11 33  1  0
 12 13  1  0
 12 34  1  0
 12 35  1  0
 13 14  1  0
 13 18  1  0
 13 36  1  1
 14 15  1  0
 14 37  1  0
 14 38  1  0
 15 16  1  0
 15 39  1  0
 15 40  1  0
 16 17  1  0
 16 41  1  0
 16 42  1  0
 17 18  1  0
 17 43  1  0
 17 44  1  0
 18 19  1  0
 18 45  1  6
 19 46  1  0
M  END

