
     RDKit          3D

 65 73  0  0  0  0  0  0  0  0999 V2000
   -0.9898   -7.5492   -0.3721 C   0  0  0  0  0  0  0  0  0  0  0  0
   -0.7482   -6.2682   -0.7463 C   0  0  0  0  0  0  0  0  0  0  0  0
   -2.0070   -5.5385   -0.5655 C   0  0  0  0  0  0  0  0  0  0  0  0
   -2.9716   -6.3601   -0.1060 N   0  0  0  0  0  0  0  0  0  0  0  0
   -2.4008   -7.6089    0.0157 C   0  0  0  0  0  0  0  0  0  0  0  0
   -3.0789   -8.7996    0.3340 C   0  0  0  0  0  0  0  0  0  0  0  0
   -2.2994  -10.0455    0.4295 C   0  0  0  0  0  0  0  0  0  0  0  0
   -2.4295  -11.2906   -0.1429 C   0  0  0  0  0  0  0  0  0  0  0  0
   -1.3283  -12.0765    0.3223 C   0  0  0  0  0  0  0  0  0  0  0  0
   -0.6071  -11.2593    1.1463 C   0  0  0  0  0  0  0  0  0  0  0  0
   -1.1807  -10.0346    1.2159 O   0  0  0  0  0  0  0  0  0  0  0  0
   -4.5004   -8.9231    0.5069 C   0  0  0  0  0  0  0  0  0  0  0  0
   -5.2891  -10.0985    0.6757 C   0  0  0  0  0  0  0  0  0  0  0  0
   -6.6280   -9.7281    0.6239 C   0  0  0  0  0  0  0  0  0  0  0  0
   -6.6816   -8.3204    0.4980 C   0  0  0  0  0  0  0  0  0  0  0  0
   -5.3759   -7.8746    0.4415 N   0  0  0  0  0  0  0  0  0  0  0  0
   -5.0523   -6.9212    0.2571 H   0  0  0  0  0  0  0  0  0  0  0  0
   -7.7911   -7.4022    0.4157 C   0  0  0  0  0  0  0  0  0  0  0  0
   -8.9583   -7.7259   -0.3580 C   0  0  0  0  0  0  0  0  0  0  0  0
  -10.1641   -7.0695   -0.5374 C   0  0  0  0  0  0  0  0  0  0  0  0
  -10.9311   -7.8642   -1.4323 C   0  0  0  0  0  0  0  0  0  0  0  0
  -10.1522   -8.9531   -1.7332 C   0  0  0  0  0  0  0  0  0  0  0  0
   -8.9656   -8.8802   -1.0985 O   0  0  0  0  0  0  0  0  0  0  0  0
   -7.6292   -6.1352    1.0142 C   0  0  0  0  0  0  0  0  0  0  0  0
   -8.0425   -4.9575    0.4179 N   0  0  0  0  0  0  0  0  0  0  0  0
   -7.3869   -4.0017    1.0706 C   0  0  0  0  0  0  0  0  0  0  0  0
   -7.0387   -2.7196    0.4120 C   0  0  0  0  0  0  0  0  0  0  0  0
   -8.0437   -1.7223    0.1872 C   0  0  0  0  0  0  0  0  0  0  0  0
   -9.3628   -1.6510    0.6009 C   0  0  0  0  0  0  0  0  0  0  0  0
   -9.8925   -0.4392    0.0719 C   0  0  0  0  0  0  0  0  0  0  0  0
   -8.8682    0.1507   -0.6200 C   0  0  0  0  0  0  0  0  0  0  0  0
   -7.7521   -0.6120   -0.5600 O   0  0  0  0  0  0  0  0  0  0  0  0
   -5.7190   -2.6687   -0.0290 C   0  0  0  0  0  0  0  0  0  0  0  0
   -4.9099   -1.6340   -0.6024 C   0  0  0  0  0  0  0  0  0  0  0  0
   -3.6401   -2.0432   -0.9227 C   0  0  0  0  0  0  0  0  0  0  0  0
   -3.3712   -3.4381   -0.6698 C   0  0  0  0  0  0  0  0  0  0  0  0
   -4.7830   -4.1821    0.0240 S   0  0  0  0  0  0  0  0  0  0  0  0
   -2.1793   -4.1452   -0.8880 C   0  0  0  0  0  0  0  0  0  0  0  0
   -1.0595   -3.4219   -1.5190 C   0  0  0  0  0  0  0  0  0  0  0  0
   -0.9577   -2.6877   -2.6771 C   0  0  0  0  0  0  0  0  0  0  0  0
    0.3963   -2.2272   -2.7582 C   0  0  0  0  0  0  0  0  0  0  0  0
    1.0240   -2.7140   -1.6477 C   0  0  0  0  0  0  0  0  0  0  0  0
    0.1572   -3.4348   -0.8936 O   0  0  0  0  0  0  0  0  0  0  0  0
   -6.6667   -4.5127    2.2292 C   0  0  0  0  0  0  0  0  0  0  0  0
   -6.8109   -5.8710    2.1794 C   0  0  0  0  0  0  0  0  0  0  0  0
   -0.2910   -8.3807   -0.3766 H   0  0  0  0  0  0  0  0  0  0  0  0
    0.1867   -5.8497   -1.1072 H   0  0  0  0  0  0  0  0  0  0  0  0
   -3.2019  -11.5924   -0.8457 H   0  0  0  0  0  0  0  0  0  0  0  0
   -1.1018  -13.1108    0.0721 H   0  0  0  0  0  0  0  0  0  0  0  0
    0.2948  -11.3996    1.7365 H   0  0  0  0  0  0  0  0  0  0  0  0
   -4.8976  -11.1007    0.8195 H   0  0  0  0  0  0  0  0  0  0  0  0
   -7.4948  -10.3776    0.7135 H   0  0  0  0  0  0  0  0  0  0  0  0
  -10.4266   -6.1186   -0.0832 H   0  0  0  0  0  0  0  0  0  0  0  0
  -11.9318   -7.6615   -1.8077 H   0  0  0  0  0  0  0  0  0  0  0  0
  -10.3077   -9.8270   -2.3613 H   0  0  0  0  0  0  0  0  0  0  0  0
   -9.8715   -2.3947    1.2086 H   0  0  0  0  0  0  0  0  0  0  0  0
  -10.9016   -0.0501    0.1889 H   0  0  0  0  0  0  0  0  0  0  0  0
   -8.7863    1.0768   -1.1833 H   0  0  0  0  0  0  0  0  0  0  0  0
   -5.2762   -0.6170   -0.7345 H   0  0  0  0  0  0  0  0  0  0  0  0
   -2.8762   -1.3793   -1.3254 H   0  0  0  0  0  0  0  0  0  0  0  0
   -1.7549   -2.5230   -3.3983 H   0  0  0  0  0  0  0  0  0  0  0  0
    0.8435   -1.6216   -3.5438 H   0  0  0  0  0  0  0  0  0  0  0  0
    2.0395   -2.6375   -1.2679 H   0  0  0  0  0  0  0  0  0  0  0  0
   -6.1071   -3.9180    2.9495 H   0  0  0  0  0  0  0  0  0  0  0  0
   -6.4136   -6.6163    2.8660 H   0  0  0  0  0  0  0  0  0  0  0  0
  1  2  2  0
  1  5  1  0
  1 46  1  0
  2  3  1  0
  2 47  1  0
  3  4  2  0
  3 38  1  0
  4  5  1  0
  5  6  2  0
  6  7  1  0
  6 12  1  0
  7  8  2  0
  7 11  1  0
  8  9  1  0
  8 48  1  0
  9 10  2  0
  9 49  1  0
 10 11  1  0
 10 50  1  0
 12 13  2  0
 12 16  1  0
 13 14  1  0
 13 51  1  0
 14 15  2  0
 14 52  1  0
 15 16  1  0
 15 18  1  0
 16 17  1  0
 18 19  1  0
 18 24  2  0
 19 20  2  0
 19 23  1  0
 20 21  1  0
 20 53  1  0
 21 22  2  0
 21 54  1  0
 22 23  1  0
 22 55  1  0
 24 25  1  0
 24 45  1  0
 25 26  2  0
 26 27  1  0
 26 44  1  0
 27 28  1  0
 27 33  2  0
 28 29  2  0
 28 32  1  0
 29 30  1  0
 29 56  1  0
 30 31  2  0
 30 57  1  0
 31 32  1  0
 31 58  1  0
 33 34  1  0
 33 37  1  0
 34 35  2  0
 34 59  1  0
 35 36  1  0
 35 60  1  0
 36 37  1  0
 36 38  2  0
 38 39  1  0
 39 40  2  0
 39 43  1  0
 40 41  1  0
 40 61  1  0
 41 42  2  0
 41 62  1  0
 42 43  1  0
 42 63  1  0
 44 45  2  0
 44 64  1  0
 45 65  1  0
M  END

