
     RDKit          3D

 34 35  0  0  0  0  0  0  0  0999 V2000
    7.6782    5.0178    1.9735 C   0  0  0  0  0  0  0  0  0  0  0  0
    7.4071    3.6596    1.3727 C   0  0  0  0  0  0  0  0  0  0  0  0
    6.1090    3.2519    1.0304 C   0  0  0  0  0  0  0  0  0  0  0  0
    5.8616    1.9890    0.4960 C   0  0  0  0  0  0  0  0  0  0  0  0
    6.9115    1.0759    0.2816 C   0  0  0  0  0  0  0  0  0  0  0  0
    6.5776   -0.1732   -0.2654 N   0  0  0  0  0  0  0  0  0  0  0  0
    7.3717   -1.2479   -0.6184 C   0  0  0  0  0  0  0  0  0  0  0  0
    8.6192   -1.3055   -0.3941 N   0  0  0  0  0  0  0  0  0  0  0  0
    9.5163   -2.3985   -0.7649 C   0  0  2  0  0  0  0  0  0  0  0  0
    9.8688   -3.1664    0.5262 C   0  0  0  0  0  0  0  0  0  0  0  0
   10.7964   -1.7562   -1.3307 C   0  0  0  0  0  0  0  0  0  0  0  0
    8.9325   -3.3556   -1.8302 C   0  0  0  0  0  0  0  0  0  0  0  0
    7.5315   -3.8637   -1.5107 C   0  0  0  0  0  0  0  0  0  0  0  0
    6.3299   -2.4859   -1.4513 S   0  0  0  0  0  0  0  0  0  0  0  0
    8.2189    1.4700    0.6205 C   0  0  0  0  0  0  0  0  0  0  0  0
    8.4444    2.7409    1.1517 C   0  0  0  0  0  0  0  0  0  0  0  0
    6.8210    5.6958    1.8437 H   0  0  0  0  0  0  0  0  0  0  0  0
    8.5587    5.4956    1.5140 H   0  0  0  0  0  0  0  0  0  0  0  0
    7.8802    4.9474    3.0570 H   0  0  0  0  0  0  0  0  0  0  0  0
    5.2694    3.9369    1.1815 H   0  0  0  0  0  0  0  0  0  0  0  0
    4.8371    1.7051    0.2347 H   0  0  0  0  0  0  0  0  0  0  0  0
    5.5861   -0.3097   -0.4234 H   0  0  0  0  0  0  0  0  0  0  0  0
   10.2652   -2.4695    1.2795 H   0  0  0  0  0  0  0  0  0  0  0  0
   10.6294   -3.9397    0.3298 H   0  0  0  0  0  0  0  0  0  0  0  0
    8.9831   -3.6528    0.9634 H   0  0  0  0  0  0  0  0  0  0  0  0
   11.2523   -1.0907   -0.5822 H   0  0  0  0  0  0  0  0  0  0  0  0
   10.5641   -1.1543   -2.2229 H   0  0  0  0  0  0  0  0  0  0  0  0
   11.5348   -2.5249   -1.6112 H   0  0  0  0  0  0  0  0  0  0  0  0
    9.6102   -4.2199   -1.9361 H   0  0  0  0  0  0  0  0  0  0  0  0
    8.9091   -2.8444   -2.8070 H   0  0  0  0  0  0  0  0  0  0  0  0
    7.4986   -4.4163   -0.5594 H   0  0  0  0  0  0  0  0  0  0  0  0
    7.1607   -4.5342   -2.2994 H   0  0  0  0  0  0  0  0  0  0  0  0
    9.0359    0.7706    0.4635 H   0  0  0  0  0  0  0  0  0  0  0  0
    9.4713    3.0238    1.4042 H   0  0  0  0  0  0  0  0  0  0  0  0
  1  2  1  0
  1 17  1  0
  1 18  1  0
  1 19  1  0
  2  3  2  0
  2 16  1  0
  3  4  1  0
  3 20  1  0
  4  5  2  0
  4 21  1  0
  5  6  1  0
  5 15  1  0
  6  7  1  0
  6 22  1  0
  7  8  2  0
  7 14  1  0
  8  9  1  0
  9 10  1  1
  9 11  1  0
  9 12  1  0
 10 23  1  0
 10 24  1  0
 10 25  1  0
 11 26  1  0
 11 27  1  0
 11 28  1  0
 12 13  1  0
 12 29  1  0
 12 30  1  0
 13 14  1  0
 13 31  1  0
 13 32  1  0
 15 16  2  0
 15 33  1  0
 16 34  1  0
M  END

