
     RDKit          3D

 59 63  0  0  0  0  0  0  0  0999 V2000
    1.6980    3.3521    0.4092 C   0  0  0  0  0  0  0  0  0  0  0  0
    2.2881    3.1491   -0.7706 C   0  0  0  0  0  0  0  0  0  0  0  0
    2.2301    1.8497   -1.5318 C   0  0  0  0  0  0  0  0  0  0  0  0
    3.5519    1.2236   -1.6869 N   0  0  0  0  0  0  0  0  0  0  0  0
    4.3797    1.6088   -2.7529 C   0  0  0  0  0  0  0  0  0  0  0  0
    4.0563    2.4369   -3.5791 O   0  0  0  0  0  0  0  0  0  0  0  0
    5.6725    0.8726   -2.6937 C   0  0  0  0  0  0  0  0  0  0  0  0
    6.6559    1.1711   -3.5792 C   0  0  0  0  0  0  0  0  0  0  0  0
    8.0160    0.6865   -3.7074 C   0  0  0  0  0  0  0  0  0  0  0  0
    9.0575    1.4979   -4.1529 C   0  0  0  0  0  0  0  0  0  0  0  0
   10.2083    0.7856   -4.0522 N   0  0  0  0  0  0  0  0  0  0  0  0
   11.5339    1.1968   -4.3670 C   0  0  0  0  0  0  0  0  0  0  0  0
   11.7820    2.4683   -4.9046 C   0  0  0  0  0  0  0  0  0  0  0  0
   13.0916    2.8508   -5.2012 C   0  0  0  0  0  0  0  0  0  0  0  0
   14.1575    1.9771   -4.9698 C   0  0  0  0  0  0  0  0  0  0  0  0
   13.9016    0.7100   -4.4369 C   0  0  0  0  0  0  0  0  0  0  0  0
   12.5985    0.3140   -4.1340 C   0  0  0  0  0  0  0  0  0  0  0  0
    9.9775   -0.4656   -3.6012 N   0  0  0  0  0  0  0  0  0  0  0  0
    8.6692   -0.5621   -3.3906 C   0  0  0  0  0  0  0  0  0  0  0  0
    8.0964   -1.8588   -2.9824 C   0  0  0  0  0  0  0  0  0  0  0  0
    8.7827   -2.6864   -2.0808 C   0  0  0  0  0  0  0  0  0  0  0  0
    8.2895   -3.9431   -1.7246 C   0  0  0  0  0  0  0  0  0  0  0  0
    7.0863   -4.4024   -2.2840 C   0  0  0  0  0  0  0  0  0  0  0  0
    6.5207   -5.6061   -2.0067 O   0  0  0  0  0  0  0  0  0  0  0  0
    7.1546   -6.4800   -1.0993 C   0  0  0  0  0  0  0  0  0  0  0  0
    6.3394   -7.7425   -0.9538 C   0  0  0  0  0  0  0  0  0  0  0  0
    5.1332   -7.9332   -1.6398 C   0  0  0  0  0  0  0  0  0  0  0  0
    4.3874   -9.1046   -1.4968 C   0  0  0  0  0  0  0  0  0  0  0  0
    4.8530  -10.1123   -0.6497 C   0  0  0  0  0  0  0  0  0  0  0  0
    3.9335  -11.5855   -0.4584 Cl  0  0  0  0  0  0  0  0  0  0  0  0
    6.0511   -9.9587    0.0518 C   0  0  0  0  0  0  0  0  0  0  0  0
    6.7762   -8.7772   -0.1101 C   0  0  0  0  0  0  0  0  0  0  0  0
    8.2794   -8.5943    0.7763 Cl  0  0  0  0  0  0  0  0  0  0  0  0
    6.3954   -3.5894   -3.1977 C   0  0  0  0  0  0  0  0  0  0  0  0
    6.8936   -2.3377   -3.5377 C   0  0  0  0  0  0  0  0  0  0  0  0
    5.6724   -0.2273   -1.3135 S   0  0  0  0  0  0  0  0  0  0  0  0
    4.0464    0.2829   -0.8108 C   0  0  0  0  0  0  0  0  0  0  0  0
    3.2983   -0.3444    0.5103 S   0  0  0  0  0  0  0  0  0  0  0  0
    1.7540    4.3205    0.9143 H   0  0  0  0  0  0  0  0  0  0  0  0
    1.1411    2.5571    0.9149 H   0  0  0  0  0  0  0  0  0  0  0  0
    2.8508    3.9562   -1.2540 H   0  0  0  0  0  0  0  0  0  0  0  0
    1.8606    2.0280   -2.5529 H   0  0  0  0  0  0  0  0  0  0  0  0
    1.5833    1.1222   -1.0245 H   0  0  0  0  0  0  0  0  0  0  0  0
    6.3757    1.9814   -4.2634 H   0  0  0  0  0  0  0  0  0  0  0  0
    9.0309    2.5316   -4.4850 H   0  0  0  0  0  0  0  0  0  0  0  0
   10.9666    3.1656   -5.0990 H   0  0  0  0  0  0  0  0  0  0  0  0
   13.2755    3.8433   -5.6197 H   0  0  0  0  0  0  0  0  0  0  0  0
   15.1800    2.2816   -5.2045 H   0  0  0  0  0  0  0  0  0  0  0  0
   14.7259    0.0165   -4.2527 H   0  0  0  0  0  0  0  0  0  0  0  0
   12.3835   -0.6705   -3.7214 H   0  0  0  0  0  0  0  0  0  0  0  0
    9.7212   -2.3348   -1.6483 H   0  0  0  0  0  0  0  0  0  0  0  0
    8.8486   -4.5500   -1.0127 H   0  0  0  0  0  0  0  0  0  0  0  0
    7.2728   -5.9980   -0.1101 H   0  0  0  0  0  0  0  0  0  0  0  0
    8.1739   -6.7339   -1.4480 H   0  0  0  0  0  0  0  0  0  0  0  0
    4.7803   -7.1389   -2.2976 H   0  0  0  0  0  0  0  0  0  0  0  0
    3.4495   -9.2381   -2.0377 H   0  0  0  0  0  0  0  0  0  0  0  0
    6.4162  -10.7434    0.7139 H   0  0  0  0  0  0  0  0  0  0  0  0
    5.4660   -3.9631   -3.6313 H   0  0  0  0  0  0  0  0  0  0  0  0
    6.3500   -1.7268   -4.2618 H   0  0  0  0  0  0  0  0  0  0  0  0
  1  2  2  0
  1 39  1  0
  1 40  1  0
  2  3  1  0
  2 41  1  0
  3  4  1  0
  3 42  1  0
  3 43  1  0
  4  5  1  0
  4 37  1  0
  5  6  2  0
  5  7  1  0
  7  8  2  0
  7 36  1  0
  8  9  1  0
  8 44  1  0
  9 10  2  0
  9 19  1  0
 10 11  1  0
 10 45  1  0
 11 12  1  0
 11 18  1  0
 12 13  2  0
 12 17  1  0
 13 14  1  0
 13 46  1  0
 14 15  2  0
 14 47  1  0
 15 16  1  0
 15 48  1  0
 16 17  2  0
 16 49  1  0
 17 50  1  0
 18 19  2  0
 19 20  1  0
 20 21  2  0
 20 35  1  0
 21 22  1  0
 21 51  1  0
 22 23  2  0
 22 52  1  0
 23 24  1  0
 23 34  1  0
 24 25  1  0
 25 26  1  0
 25 53  1  0
 25 54  1  0
 26 27  2  0
 26 32  1  0
 27 28  1  0
 27 55  1  0
 28 29  2  0
 28 56  1  0
 29 30  1  0
 29 31  1  0
 31 32  2  0
 31 57  1  0
 32 33  1  0
 34 35  2  0
 34 58  1  0
 35 59  1  0
 36 37  1  0
 37 38  2  0
M  END

