
     RDKit          3D

 54 57  0  0  0  0  0  0  0  0999 V2000
    2.8445   -1.2361    2.1171 C   0  0  0  0  0  0  0  0  0  0  0  0
    4.2152   -0.9583    2.5048 N   0  0  0  0  0  0  0  0  0  0  0  0
    4.7569   -2.0109    3.3464 C   0  0  0  0  0  0  0  0  0  0  0  0
    5.0773   -0.6324    1.3753 C   0  0  0  0  0  0  0  0  0  0  0  0
    4.9120    0.8004    0.8519 C   0  0  0  0  0  0  0  0  0  0  0  0
    5.2470    1.8337    1.8370 N   0  0  0  0  0  0  0  0  0  0  0  0
    4.1697    2.3017    2.7209 C   0  0  0  0  0  0  0  0  0  0  0  0
    4.0066    3.8097    2.9081 C   0  0  0  0  0  0  0  0  0  0  0  0
    3.8540    4.6581    1.7789 C   0  0  0  0  0  0  0  0  0  0  0  0
    3.8363    4.1741    0.4272 C   0  0  0  0  0  0  0  0  0  0  0  0
    3.6828    5.0222   -0.6424 C   0  0  0  0  0  0  0  0  0  0  0  0
    3.5413    6.4260   -0.4491 C   0  0  0  0  0  0  0  0  0  0  0  0
    3.5406    6.9369    0.8226 C   0  0  0  0  0  0  0  0  0  0  0  0
    3.6835    6.0841    1.9643 C   0  0  0  0  0  0  0  0  0  0  0  0
    3.6458    6.6095    3.2599 C   0  0  0  0  0  0  0  0  0  0  0  0
    3.7513    5.7889    4.3870 C   0  0  0  0  0  0  0  0  0  0  0  0
    3.6861    6.3492    5.7038 C   0  0  0  0  0  0  0  0  0  0  0  0
    3.7867    5.5608    6.8197 C   0  0  0  0  0  0  0  0  0  0  0  0
    3.9594    4.1554    6.6702 C   0  0  0  0  0  0  0  0  0  0  0  0
    4.0269    3.5798    5.4247 C   0  0  0  0  0  0  0  0  0  0  0  0
    3.9303    4.3589    4.2189 C   0  0  0  0  0  0  0  0  0  0  0  0
    6.5686    2.0939    2.0895 C   0  0  0  0  0  0  0  0  0  0  0  0
    7.0043    2.8916    3.1891 C   0  0  0  0  0  0  0  0  0  0  0  0
    8.3566    3.1190    3.3566 C   0  0  0  0  0  0  0  0  0  0  0  0
    9.2565    2.5534    2.4432 C   0  0  0  0  0  0  0  0  0  0  0  0
   10.6894    2.7665    2.5851 N   0  0  0  0  0  0  0  0  0  0  0  0
   11.0701    3.4633    3.5173 O   0  0  0  0  0  0  0  0  0  0  0  0
   11.4292    2.2377    1.7652 O   0  0  0  0  0  0  0  0  0  0  0  0
    8.7568    1.7679    1.4015 C   0  0  0  0  0  0  0  0  0  0  0  0
    7.4620    1.5424    1.2367 N   0  0  0  0  0  0  0  0  0  0  0  0
    2.2147   -1.3659    3.0115 H   0  0  0  0  0  0  0  0  0  0  0  0
    2.7469   -2.1569    1.4964 H   0  0  0  0  0  0  0  0  0  0  0  0
    2.4212   -0.4020    1.5363 H   0  0  0  0  0  0  0  0  0  0  0  0
    4.1169   -2.1517    4.2323 H   0  0  0  0  0  0  0  0  0  0  0  0
    5.7639   -1.7384    3.6978 H   0  0  0  0  0  0  0  0  0  0  0  0
    4.8316   -2.9951    2.8287 H   0  0  0  0  0  0  0  0  0  0  0  0
    4.9285   -1.3334    0.5206 H   0  0  0  0  0  0  0  0  0  0  0  0
    6.1252   -0.7492    1.6877 H   0  0  0  0  0  0  0  0  0  0  0  0
    3.8763    0.9747    0.5233 H   0  0  0  0  0  0  0  0  0  0  0  0
    5.5647    0.9229   -0.0218 H   0  0  0  0  0  0  0  0  0  0  0  0
    4.2627    1.7957    3.6895 H   0  0  0  0  0  0  0  0  0  0  0  0
    3.2380    1.9105    2.2881 H   0  0  0  0  0  0  0  0  0  0  0  0
    3.9485    3.1108    0.2354 H   0  0  0  0  0  0  0  0  0  0  0  0
    3.6706    4.6148   -1.6565 H   0  0  0  0  0  0  0  0  0  0  0  0
    3.4287    7.0858   -1.3127 H   0  0  0  0  0  0  0  0  0  0  0  0
    3.4228    8.0107    0.9916 H   0  0  0  0  0  0  0  0  0  0  0  0
    3.5191    7.6873    3.3954 H   0  0  0  0  0  0  0  0  0  0  0  0
    3.5518    7.4303    5.7967 H   0  0  0  0  0  0  0  0  0  0  0  0
    3.7348    6.0006    7.8185 H   0  0  0  0  0  0  0  0  0  0  0  0
    4.0365    3.5245    7.5593 H   0  0  0  0  0  0  0  0  0  0  0  0
    4.1515    2.4994    5.3681 H   0  0  0  0  0  0  0  0  0  0  0  0
    6.2981    3.3212    3.8931 H   0  0  0  0  0  0  0  0  0  0  0  0
    8.7373    3.7212    4.1820 H   0  0  0  0  0  0  0  0  0  0  0  0
    9.4508    1.3115    0.6898 H   0  0  0  0  0  0  0  0  0  0  0  0
  1  2  1  0
  1 31  1  0
  1 32  1  0
  1 33  1  0
  2  3  1  0
  2  4  1  0
  3 34  1  0
  3 35  1  0
  3 36  1  0
  4  5  1  0
  4 37  1  0
  4 38  1  0
  5  6  1  0
  5 39  1  0
  5 40  1  0
  6  7  1  0
  6 22  1  0
  7  8  1  0
  7 41  1  0
  7 42  1  0
  8  9  1  0
  8 21  2  0
  9 10  2  0
  9 14  1  0
 10 11  1  0
 10 43  1  0
 11 12  2  0
 11 44  1  0
 12 13  1  0
 12 45  1  0
 13 14  2  0
 13 46  1  0
 14 15  1  0
 15 16  2  0
 15 47  1  0
 16 17  1  0
 16 21  1  0
 17 18  2  0
 17 48  1  0
 18 19  1  0
 18 49  1  0
 19 20  2  0
 19 50  1  0
 20 21  1  0
 20 51  1  0
 22 23  2  0
 22 30  1  0
 23 24  1  0
 23 52  1  0
 24 25  2  0
 24 53  1  0
 25 26  1  0
 25 29  1  0
 26 27  2  0
 26 28  1  0
 29 30  2  0
 29 54  1  0
M  CHG  2  26   1  28  -1
M  END

