
     RDKit          3D

 38 38  0  0  0  0  0  0  0  0999 V2000
    2.1128    0.2263   -1.0712 C   0  0  0  0  0  0  0  0  0  0  0  0
    3.3519   -0.5272   -0.5833 C   0  0  0  0  0  0  0  0  0  0  0  0
    3.1410   -1.3589    0.6992 C   0  0  1  0  0  0  0  0  0  0  0  0
    2.2494   -2.5909    0.4483 C   0  0  0  0  0  0  0  0  0  0  0  0
    1.7085   -3.2623    1.6851 C   0  0  0  0  0  0  0  0  0  0  0  0
    2.5994   -3.7685    2.5953 N   0  0  0  0  0  0  0  0  0  0  0  0
    0.4246   -3.3549    1.7821 N   0  0  0  0  0  0  0  0  0  0  0  0
    0.0788   -4.0044    2.9899 O   0  0  0  0  0  0  0  0  0  0  0  0
    4.4206   -1.8062    1.2965 N   0  0  0  0  0  0  0  0  0  0  0  0
    5.3539   -0.8712    1.8121 C   0  0  0  0  0  0  0  0  0  0  0  0
    6.6448   -0.7750    1.2292 C   0  0  0  0  0  0  0  0  0  0  0  0
    7.0289   -1.6264    0.0409 C   0  0  0  0  0  0  0  0  0  0  0  0
    7.5833    0.1160    1.7639 C   0  0  0  0  0  0  0  0  0  0  0  0
    7.2513    0.9129    2.8573 C   0  0  0  0  0  0  0  0  0  0  0  0
    8.5358    2.1387    3.5623 Br  0  0  0  0  0  0  0  0  0  0  0  0
    5.9953    0.8091    3.4490 C   0  0  0  0  0  0  0  0  0  0  0  0
    5.0391   -0.0879    2.9517 C   0  0  0  0  0  0  0  0  0  0  0  0
    3.7247   -0.2213    3.6832 C   0  0  0  0  0  0  0  0  0  0  0  0
    2.3480    0.8356   -1.9580 H   0  0  0  0  0  0  0  0  0  0  0  0
    1.7292    0.9081   -0.2940 H   0  0  0  0  0  0  0  0  0  0  0  0
    1.2916   -0.4527   -1.3498 H   0  0  0  0  0  0  0  0  0  0  0  0
    4.1575    0.1999   -0.3849 H   0  0  0  0  0  0  0  0  0  0  0  0
    3.7253   -1.1940   -1.3831 H   0  0  0  0  0  0  0  0  0  0  0  0
    2.6322   -0.7197    1.4355 H   0  0  0  0  0  0  0  0  0  0  0  0
    2.8245   -3.3259   -0.1475 H   0  0  0  0  0  0  0  0  0  0  0  0
    1.3774   -2.3025   -0.1522 H   0  0  0  0  0  0  0  0  0  0  0  0
    3.5248   -3.3491    2.5875 H   0  0  0  0  0  0  0  0  0  0  0  0
    2.2064   -4.0577    3.4840 H   0  0  0  0  0  0  0  0  0  0  0  0
   -0.8846   -4.0033    2.9579 H   0  0  0  0  0  0  0  0  0  0  0  0
    4.8747   -2.4461    0.6498 H   0  0  0  0  0  0  0  0  0  0  0  0
    6.3516   -1.4712   -0.8157 H   0  0  0  0  0  0  0  0  0  0  0  0
    7.0127   -2.7054    0.2790 H   0  0  0  0  0  0  0  0  0  0  0  0
    8.0476   -1.3899   -0.2967 H   0  0  0  0  0  0  0  0  0  0  0  0
    8.5749    0.1916    1.3141 H   0  0  0  0  0  0  0  0  0  0  0  0
    5.7567    1.4133    4.3265 H   0  0  0  0  0  0  0  0  0  0  0  0
    3.8302    0.1063    4.7278 H   0  0  0  0  0  0  0  0  0  0  0  0
    3.3658   -1.2609    3.6817 H   0  0  0  0  0  0  0  0  0  0  0  0
    2.9278    0.3956    3.2331 H   0  0  0  0  0  0  0  0  0  0  0  0
  1  2  1  0
  1 19  1  0
  1 20  1  0
  1 21  1  0
  2  3  1  0
  2 22  1  0
  2 23  1  0
  3  4  1  0
  3  9  1  0
  3 24  1  1
  4  5  1  0
  4 25  1  0
  4 26  1  0
  5  6  1  0
  5  7  2  0
  6 27  1  0
  6 28  1  0
  7  8  1  0
  8 29  1  0
  9 10  1  0
  9 30  1  0
 10 11  2  0
 10 17  1  0
 11 12  1  0
 11 13  1  0
 12 31  1  0
 12 32  1  0
 12 33  1  0
 13 14  2  0
 13 34  1  0
 14 15  1  0
 14 16  1  0
 16 17  2  0
 16 35  1  0
 17 18  1  0
 18 36  1  0
 18 37  1  0
 18 38  1  0
M  END

