
     RDKit          3D

 65 68  0  0  0  0  0  0  0  0999 V2000
    0.1318    2.4838   -0.3781 C   0  0  0  0  0  0  0  0  0  0  0  0
    0.9144    1.2686    0.1301 C   0  0  1  0  0  0  0  0  0  0  0  0
    2.3506    1.2376   -0.4247 C   0  0  0  0  0  0  0  0  0  0  0  0
    2.4172    1.1310   -1.8745 N   0  0  0  0  0  0  0  0  0  0  0  0
    2.8553    2.1325   -2.6834 C   0  0  0  0  0  0  0  0  0  0  0  0
    3.2603    3.2086   -2.2685 O   0  0  0  0  0  0  0  0  0  0  0  0
    2.7485    1.8215   -4.1839 C   0  0  0  0  0  0  0  0  0  0  0  0
    3.7060    2.5550   -4.9873 N   0  0  0  0  0  0  0  0  0  0  0  0
    5.0754    2.1696   -4.9990 C   0  0  0  0  0  0  0  0  0  0  0  0
    6.0036    2.8738   -4.2199 C   0  0  0  0  0  0  0  0  0  0  0  0
    7.3545    2.5178   -4.2190 C   0  0  0  0  0  0  0  0  0  0  0  0
    8.3307    3.2540   -3.3347 C   0  0  1  0  0  0  0  0  0  0  0  0
    7.9393    4.5154   -3.0954 F   0  0  0  0  0  0  0  0  0  0  0  0
    8.4673    2.6490   -2.1385 F   0  0  0  0  0  0  0  0  0  0  0  0
    9.5569    3.3048   -3.8867 F   0  0  0  0  0  0  0  0  0  0  0  0
    7.7934    1.4425   -4.9995 C   0  0  0  0  0  0  0  0  0  0  0  0
    6.8822    0.7190   -5.7669 C   0  0  0  0  0  0  0  0  0  0  0  0
    5.5312    1.0770   -5.7669 C   0  0  0  0  0  0  0  0  0  0  0  0
    4.4116    0.1435   -6.7167 Cl  0  0  0  0  0  0  0  0  0  0  0  0
    3.1700    3.6936   -6.1369 S   0  0  1  0  0  0  0  0  0  0  0  0
    3.8335    3.4072   -7.4086 O   0  0  0  0  0  0  0  0  0  0  0  0
    1.7088    3.6969   -6.0217 O   0  0  0  0  0  0  0  0  0  0  0  0
    3.7927    5.2811   -5.5675 C   0  0  0  0  0  0  0  0  0  0  0  0
    4.5554    6.0437   -6.4563 C   0  0  0  0  0  0  0  0  0  0  0  0
    4.9837    7.3141   -6.0601 C   0  0  0  0  0  0  0  0  0  0  0  0
    4.6499    7.8030   -4.7940 C   0  0  0  0  0  0  0  0  0  0  0  0
    3.8892    7.0231   -3.9145 C   0  0  0  0  0  0  0  0  0  0  0  0
    3.4497    5.7539   -4.2957 C   0  0  0  0  0  0  0  0  0  0  0  0
    0.9032    1.2193    1.6792 C   0  0  0  0  0  0  0  0  0  0  0  0
    1.4700   -0.0459    2.2968 C   0  0  0  0  0  0  0  0  0  0  0  0
    0.6791   -1.1852    2.3106 C   0  0  0  0  0  0  0  0  0  0  0  0
    1.1334   -2.4119    2.8483 C   0  0  0  0  0  0  0  0  0  0  0  0
    2.3966   -2.5013    3.3888 C   0  0  0  0  0  0  0  0  0  0  0  0
    3.2514   -1.3655    3.4123 C   0  0  0  0  0  0  0  0  0  0  0  0
    4.5580   -1.4421    3.9734 C   0  0  0  0  0  0  0  0  0  0  0  0
    5.3900   -0.3443    3.9977 C   0  0  0  0  0  0  0  0  0  0  0  0
    4.9448    0.8871    3.4581 C   0  0  0  0  0  0  0  0  0  0  0  0
    3.6843    0.9956    2.9079 C   0  0  0  0  0  0  0  0  0  0  0  0
    2.7917   -0.1165    2.8609 C   0  0  0  0  0  0  0  0  0  0  0  0
    0.1004    2.5113   -1.4778 H   0  0  0  0  0  0  0  0  0  0  0  0
    0.5945    3.4243   -0.0360 H   0  0  0  0  0  0  0  0  0  0  0  0
   -0.9080    2.4661   -0.0146 H   0  0  0  0  0  0  0  0  0  0  0  0
    0.4029    0.3537   -0.2262 H   0  0  0  0  0  0  0  0  0  0  0  0
    2.9053    0.3957    0.0194 H   0  0  0  0  0  0  0  0  0  0  0  0
    2.8829    2.1630   -0.1595 H   0  0  0  0  0  0  0  0  0  0  0  0
    2.1308    0.2574   -2.3021 H   0  0  0  0  0  0  0  0  0  0  0  0
    1.7411    2.1172   -4.5167 H   0  0  0  0  0  0  0  0  0  0  0  0
    2.8433    0.7374   -4.3720 H   0  0  0  0  0  0  0  0  0  0  0  0
    5.6386    3.6983   -3.6077 H   0  0  0  0  0  0  0  0  0  0  0  0
    8.8501    1.1689   -5.0099 H   0  0  0  0  0  0  0  0  0  0  0  0
    7.2111   -0.1239   -6.3762 H   0  0  0  0  0  0  0  0  0  0  0  0
    4.8030    5.6371   -7.4376 H   0  0  0  0  0  0  0  0  0  0  0  0
    5.5812    7.9212   -6.7446 H   0  0  0  0  0  0  0  0  0  0  0  0
    4.9886    8.7957   -4.4868 H   0  0  0  0  0  0  0  0  0  0  0  0
    3.6395    7.4028   -2.9209 H   0  0  0  0  0  0  0  0  0  0  0  0
    2.8910    5.1247   -3.6013 H   0  0  0  0  0  0  0  0  0  0  0  0
   -0.1469    1.3145    2.0003 H   0  0  0  0  0  0  0  0  0  0  0  0
    1.4113    2.1159    2.0663 H   0  0  0  0  0  0  0  0  0  0  0  0
   -0.3335   -1.1328    1.8989 H   0  0  0  0  0  0  0  0  0  0  0  0
    0.4736   -3.2831    2.8374 H   0  0  0  0  0  0  0  0  0  0  0  0
    2.7584   -3.4429    3.8106 H   0  0  0  0  0  0  0  0  0  0  0  0
    4.8910   -2.3974    4.3884 H   0  0  0  0  0  0  0  0  0  0  0  0
    6.3902   -0.4191    4.4317 H   0  0  0  0  0  0  0  0  0  0  0  0
    5.6045    1.7582    3.4783 H   0  0  0  0  0  0  0  0  0  0  0  0
    3.3701    1.9572    2.5011 H   0  0  0  0  0  0  0  0  0  0  0  0
  1  2  1  0
  1 40  1  0
  1 41  1  0
  1 42  1  0
  2  3  1  0
  2 29  1  0
  2 43  1  6
  3  4  1  0
  3 44  1  0
  3 45  1  0
  4  5  1  0
  4 46  1  0
  5  6  2  0
  5  7  1  0
  7  8  1  0
  7 47  1  0
  7 48  1  0
  8  9  1  0
 20  8  1  1
  9 10  2  0
  9 18  1  0
 10 11  1  0
 10 49  1  0
 11 12  1  0
 11 16  2  0
 12 13  1  1
 12 14  1  0
 12 15  1  0
 16 17  1  0
 16 50  1  0
 17 18  2  0
 17 51  1  0
 18 19  1  0
 20 21  2  0
 20 22  2  0
 20 23  1  0
 23 24  2  0
 23 28  1  0
 24 25  1  0
 24 52  1  0
 25 26  2  0
 25 53  1  0
 26 27  1  0
 26 54  1  0
 27 28  2  0
 27 55  1  0
 28 56  1  0
 29 30  1  0
 29 57  1  0
 29 58  1  0
 30 31  2  0
 30 39  1  0
 31 32  1  0
 31 59  1  0
 32 33  2  0
 32 60  1  0
 33 34  1  0
 33 61  1  0
 34 35  1  0
 34 39  2  0
 35 36  2  0
 35 62  1  0
 36 37  1  0
 36 63  1  0
 37 38  2  0
 37 64  1  0
 38 39  1  0
 38 65  1  0
M  END

