
     RDKit          3D

 41 42  0  0  0  0  0  0  0  0999 V2000
    6.7452   -1.5917   -1.0159 C   0  0  0  0  0  0  0  0  0  0  0  0
    5.3759   -1.9796   -1.2868 N   0  0  0  0  0  0  0  0  0  0  0  0
    4.5374   -1.2442   -2.0524 C   0  0  0  0  0  0  0  0  0  0  0  0
    5.0176   -0.1100   -2.5841 N   0  0  0  0  0  0  0  0  0  0  0  0
    4.2171    0.6264   -3.3530 C   0  0  0  0  0  0  0  0  0  0  0  0
    4.8492    1.8766   -4.0086 C   0  0  1  0  0  0  0  0  0  0  0  0
    5.7349    1.4259   -5.0446 O   0  0  0  0  0  0  0  0  0  0  0  0
    5.1849    0.7541   -6.1517 C   0  0  0  0  0  0  0  0  0  0  0  0
    3.7923    2.8562   -4.5534 C   0  0  0  0  0  0  0  0  0  0  0  0
    3.0356    3.6045   -3.4450 C   0  0  0  0  0  0  0  0  0  0  0  0
    3.9593    4.3309   -2.4472 C   0  0  2  0  0  0  0  0  0  0  0  0
    4.5924    5.5993   -3.0379 C   0  0  0  0  0  0  0  0  0  0  0  0
    5.0097    3.3375   -1.9100 C   0  0  0  0  0  0  0  0  0  0  0  0
    5.7729    2.6129   -3.0240 C   0  0  0  0  0  0  0  0  0  0  0  0
    2.9497    0.3357   -3.6425 N   0  0  0  0  0  0  0  0  0  0  0  0
    2.4152   -0.7902   -3.1239 C   0  0  0  0  0  0  0  0  0  0  0  0
    0.9791   -1.0732   -3.4724 C   0  0  0  0  0  0  0  0  0  0  0  0
    3.1875   -1.6204   -2.3138 C   0  0  0  0  0  0  0  0  0  0  0  0
    2.3927   -3.4133   -1.4700 I   0  0  0  0  0  0  0  0  0  0  0  0
    7.2342   -2.4014   -0.4569 H   0  0  0  0  0  0  0  0  0  0  0  0
    6.8009   -0.6651   -0.4199 H   0  0  0  0  0  0  0  0  0  0  0  0
    7.3002   -1.4149   -1.9500 H   0  0  0  0  0  0  0  0  0  0  0  0
    5.0057   -2.8204   -0.8621 H   0  0  0  0  0  0  0  0  0  0  0  0
    6.0316    0.4382   -6.7797 H   0  0  0  0  0  0  0  0  0  0  0  0
    4.5256    1.3982   -6.7630 H   0  0  0  0  0  0  0  0  0  0  0  0
    4.6095   -0.1472   -5.8680 H   0  0  0  0  0  0  0  0  0  0  0  0
    3.0673    2.3221   -5.1822 H   0  0  0  0  0  0  0  0  0  0  0  0
    4.3319    3.5683   -5.2003 H   0  0  0  0  0  0  0  0  0  0  0  0
    2.4131    2.8783   -2.8967 H   0  0  0  0  0  0  0  0  0  0  0  0
    2.3350    4.3238   -3.9035 H   0  0  0  0  0  0  0  0  0  0  0  0
    3.3367    4.6527   -1.5929 H   0  0  0  0  0  0  0  0  0  0  0  0
    5.2364    5.3854   -3.9057 H   0  0  0  0  0  0  0  0  0  0  0  0
    5.2141    6.1166   -2.2886 H   0  0  0  0  0  0  0  0  0  0  0  0
    3.8164    6.3073   -3.3727 H   0  0  0  0  0  0  0  0  0  0  0  0
    4.5032    2.5903   -1.2734 H   0  0  0  0  0  0  0  0  0  0  0  0
    5.7255    3.8604   -1.2527 H   0  0  0  0  0  0  0  0  0  0  0  0
    6.4815    1.8854   -2.6056 H   0  0  0  0  0  0  0  0  0  0  0  0
    6.3594    3.3258   -3.6250 H   0  0  0  0  0  0  0  0  0  0  0  0
    0.6075   -0.2747   -4.1265 H   0  0  0  0  0  0  0  0  0  0  0  0
    0.3516   -1.1225   -2.5677 H   0  0  0  0  0  0  0  0  0  0  0  0
    0.8758   -2.0423   -3.9868 H   0  0  0  0  0  0  0  0  0  0  0  0
  1  2  1  0
  1 20  1  0
  1 21  1  0
  1 22  1  0
  2  3  1  0
  2 23  1  0
  3  4  2  0
  3 18  1  0
  4  5  1  0
  5  6  1  0
  5 15  2  0
  6  7  1  6
  6  9  1  0
  6 14  1  0
  7  8  1  0
  8 24  1  0
  8 25  1  0
  8 26  1  0
  9 10  1  0
  9 27  1  0
  9 28  1  0
 10 11  1  0
 10 29  1  0
 10 30  1  0
 11 12  1  0
 11 13  1  0
 11 31  1  1
 12 32  1  0
 12 33  1  0
 12 34  1  0
 13 14  1  0
 13 35  1  0
 13 36  1  0
 14 37  1  0
 14 38  1  0
 15 16  1  0
 16 17  1  0
 16 18  2  0
 17 39  1  0
 17 40  1  0
 17 41  1  0
 18 19  1  0
M  END

