
     RDKit          3D

 17 14  0  0  0  0  0  0  0  0999 V2000
    0.9961   -0.1476   -0.0449 C   0  0  0  0  0  0  0  0  0  0  0  0
    2.5105    0.0490   -0.1657 C   0  0  1  0  0  0  0  0  0  0  0  0
    2.8884    0.6242   -1.5344 C   0  0  0  0  0  0  0  0  0  0  0  0
    3.0274    0.9564    0.9609 C   0  0  0  0  0  0  0  0  0  0  0  0
    3.4139   -1.5803    0.1382 S   0  0  0  0  0  0  0  0  0  0  0  0
    2.6703   -2.8235   -1.4485 P   0  0  0  0  0  0  0  0  0  0  0  0
    0.4792    0.8204   -0.1673 H   0  0  0  0  0  0  0  0  0  0  0  0
    0.7256   -0.5605    0.9387 H   0  0  0  0  0  0  0  0  0  0  0  0
    0.6144   -0.8276   -0.8224 H   0  0  0  0  0  0  0  0  0  0  0  0
    2.4003    1.6039   -1.6793 H   0  0  0  0  0  0  0  0  0  0  0  0
    2.5594   -0.0344   -2.3534 H   0  0  0  0  0  0  0  0  0  0  0  0
    3.9764    0.7654   -1.6201 H   0  0  0  0  0  0  0  0  0  0  0  0
    2.5576    1.9509    0.8790 H   0  0  0  0  0  0  0  0  0  0  0  0
    4.1188    1.0898    0.9016 H   0  0  0  0  0  0  0  0  0  0  0  0
    2.7831    0.5455    1.9528 H   0  0  0  0  0  0  0  0  0  0  0  0
    2.3697   -3.9770   -0.6596 H   0  0  0  0  0  0  0  0  0  0  0  0
    3.9278   -3.3468   -1.8821 H   0  0  0  0  0  0  0  0  0  0  0  0
  1  2  1  0
  1  7  1  0
  1  8  1  0
  1  9  1  0
  2  3  1  0
  2  4  1  0
  2  5  1  1
  3 10  1  0
  3 11  1  0
  3 12  1  0
  4 13  1  0
  4 14  1  0
  4 15  1  0
  5  6  1  0
M  CHG  3   6  -2  16   1  17   1
M  END

