
     RDKit          3D

 22 24  0  0  0  0  0  0  0  0999 V2000
   -1.1418    0.0787    0.0025 C   0  0  0  0  0  0  0  0  0  0  0  0
   -0.1894    1.0597   -0.0018 C   0  0  0  0  0  0  0  0  0  0  0  0
    1.0529    0.5102   -0.0076 O   0  0  0  0  0  0  0  0  0  0  0  0
    0.8980   -0.8460   -0.0069 C   0  0  0  0  0  0  0  0  0  0  0  0
    2.1018   -1.6491   -0.0128 C   0  0  0  0  0  0  0  0  0  0  0  0
    2.1445   -2.9632   -0.0126 N   0  0  0  0  0  0  0  0  0  0  0  0
    3.4864   -3.2807   -0.0196 C   0  0  0  0  0  0  0  0  0  0  0  0
    4.1196   -4.5350   -0.0228 C   0  0  0  0  0  0  0  0  0  0  0  0
    5.5118   -4.5690   -0.0299 C   0  0  0  0  0  0  0  0  0  0  0  0
    6.2776   -3.3824   -0.0339 C   0  0  0  0  0  0  0  0  0  0  0  0
    5.6734   -2.1249   -0.0308 C   0  0  0  0  0  0  0  0  0  0  0  0
    4.2751   -2.0952   -0.0237 C   0  0  0  0  0  0  0  0  0  0  0  0
    3.3544   -1.0674   -0.0189 N   0  0  0  0  0  0  0  0  0  0  0  0
    3.5361   -0.0720   -0.0198 H   0  0  0  0  0  0  0  0  0  0  0  0
   -0.4369   -1.1660   -0.0000 C   0  0  0  0  0  0  0  0  0  0  0  0
   -2.2196    0.2265    0.0073 H   0  0  0  0  0  0  0  0  0  0  0  0
   -0.2331    2.1454   -0.0016 H   0  0  0  0  0  0  0  0  0  0  0  0
    3.5220   -5.4489   -0.0197 H   0  0  0  0  0  0  0  0  0  0  0  0
    6.0276   -5.5325   -0.0325 H   0  0  0  0  0  0  0  0  0  0  0  0
    7.3683   -3.4509   -0.0394 H   0  0  0  0  0  0  0  0  0  0  0  0
    6.2698   -1.2095   -0.0339 H   0  0  0  0  0  0  0  0  0  0  0  0
   -0.8430   -2.1740    0.0022 H   0  0  0  0  0  0  0  0  0  0  0  0
  1  2  2  0
  1 15  1  0
  1 16  1  0
  2  3  1  0
  2 17  1  0
  3  4  1  0
  4  5  1  0
  4 15  2  0
  5  6  2  0
  5 13  1  0
  6  7  1  0
  7  8  2  0
  7 12  1  0
  8  9  1  0
  8 18  1  0
  9 10  2  0
  9 19  1  0
 10 11  1  0
 10 20  1  0
 11 12  2  0
 11 21  1  0
 12 13  1  0
 13 14  1  0
 15 22  1  0
M  END

