
     RDKit          3D

 44 45  0  0  0  0  0  0  0  0999 V2000
    3.6497   -3.4798    0.8709 C   0  0  0  0  0  0  0  0  0  0  0  0
    2.9455   -2.6215   -0.1800 C   0  0  0  0  0  0  0  0  0  0  0  0
    3.6835   -2.4273   -1.5254 C   0  0  1  0  0  0  0  0  0  0  0  0
    3.9889   -3.7694   -2.2177 C   0  0  0  0  0  0  0  0  0  0  0  0
    2.8457   -1.5388   -2.3506 N   0  0  0  0  0  0  0  0  0  0  0  0
    4.9800   -1.6635   -1.3307 C   0  0  0  0  0  0  0  0  0  0  0  0
    6.0121   -1.6305   -2.1217 N   0  0  0  0  0  0  0  0  0  0  0  0
    6.8440   -0.7144   -1.5119 C   0  0  0  0  0  0  0  0  0  0  0  0
    8.2344   -0.3631   -2.0288 C   0  0  1  0  0  0  0  0  0  0  0  0
    9.1499   -1.3700   -1.5810 O   0  0  0  0  0  0  0  0  0  0  0  0
    9.0878   -2.6623   -2.1439 C   0  0  0  0  0  0  0  0  0  0  0  0
    8.2196   -0.2252   -3.5642 C   0  0  0  0  0  0  0  0  0  0  0  0
    7.4857    1.0383   -4.0310 C   0  0  0  0  0  0  0  0  0  0  0  0
    8.0608    2.3037   -3.3871 C   0  0  0  0  0  0  0  0  0  0  0  0
    8.0575    2.2175   -1.8526 C   0  0  2  0  0  0  0  0  0  0  0  0
    8.6902    3.4533   -1.2066 C   0  0  0  0  0  0  0  0  0  0  0  0
    8.7603    0.9327   -1.3859 C   0  0  0  0  0  0  0  0  0  0  0  0
    6.3477   -0.2151   -0.4083 N   0  0  0  0  0  0  0  0  0  0  0  0
    5.1128   -0.8400   -0.2858 O   0  0  0  0  0  0  0  0  0  0  0  0
    3.0486   -3.5173    1.7928 H   0  0  0  0  0  0  0  0  0  0  0  0
    4.6340   -3.0673    1.1421 H   0  0  0  0  0  0  0  0  0  0  0  0
    3.7955   -4.5183    0.5346 H   0  0  0  0  0  0  0  0  0  0  0  0
    2.7365   -1.6206    0.2269 H   0  0  0  0  0  0  0  0  0  0  0  0
    1.9642   -3.0682   -0.4208 H   0  0  0  0  0  0  0  0  0  0  0  0
    3.0463   -4.3117   -2.3956 H   0  0  0  0  0  0  0  0  0  0  0  0
    4.6502   -4.4127   -1.6175 H   0  0  0  0  0  0  0  0  0  0  0  0
    4.4849   -3.5960   -3.1839 H   0  0  0  0  0  0  0  0  0  0  0  0
    1.9158   -1.9472   -2.4558 H   0  0  0  0  0  0  0  0  0  0  0  0
    3.2407   -1.4598   -3.2887 H   0  0  0  0  0  0  0  0  0  0  0  0
    9.8068   -3.2777   -1.5827 H   0  0  0  0  0  0  0  0  0  0  0  0
    9.3828   -2.6777   -3.2095 H   0  0  0  0  0  0  0  0  0  0  0  0
    8.0875   -3.1210   -2.0575 H   0  0  0  0  0  0  0  0  0  0  0  0
    7.7624   -1.1158   -4.0199 H   0  0  0  0  0  0  0  0  0  0  0  0
    9.2731   -0.1872   -3.8909 H   0  0  0  0  0  0  0  0  0  0  0  0
    6.4121    0.9538   -3.7842 H   0  0  0  0  0  0  0  0  0  0  0  0
    7.5400    1.1068   -5.1303 H   0  0  0  0  0  0  0  0  0  0  0  0
    7.4929    3.1912   -3.7154 H   0  0  0  0  0  0  0  0  0  0  0  0
    9.1000    2.4525   -3.7374 H   0  0  0  0  0  0  0  0  0  0  0  0
    7.0055    2.1666   -1.5197 H   0  0  0  0  0  0  0  0  0  0  0  0
    9.7505    3.5544   -1.4959 H   0  0  0  0  0  0  0  0  0  0  0  0
    8.6487    3.3959   -0.1070 H   0  0  0  0  0  0  0  0  0  0  0  0
    8.1711    4.3755   -1.5148 H   0  0  0  0  0  0  0  0  0  0  0  0
    8.6995    0.8327   -0.2920 H   0  0  0  0  0  0  0  0  0  0  0  0
    9.8321    0.9813   -1.6429 H   0  0  0  0  0  0  0  0  0  0  0  0
  1  2  1  0
  1 20  1  0
  1 21  1  0
  1 22  1  0
  2  3  1  0
  2 23  1  0
  2 24  1  0
  3  4  1  0
  3  5  1  6
  3  6  1  0
  4 25  1  0
  4 26  1  0
  4 27  1  0
  5 28  1  0
  5 29  1  0
  6  7  2  0
  6 19  1  0
  7  8  1  0
  8  9  1  0
  8 18  2  0
  9 10  1  6
  9 12  1  0
  9 17  1  0
 10 11  1  0
 11 30  1  0
 11 31  1  0
 11 32  1  0
 12 13  1  0
 12 33  1  0
 12 34  1  0
 13 14  1  0
 13 35  1  0
 13 36  1  0
 14 15  1  0
 14 37  1  0
 14 38  1  0
 15 16  1  0
 15 17  1  0
 15 39  1  1
 16 40  1  0
 16 41  1  0
 16 42  1  0
 17 43  1  0
 17 44  1  0
 18 19  1  0
M  END

