
     RDKit          3D

 43 44  0  0  0  0  0  0  0  0999 V2000
    2.3430   -0.8081    0.1293 C   0  0  0  0  0  0  0  0  0  0  0  0
    1.8576    0.4694   -0.2186 O   0  0  0  0  0  0  0  0  0  0  0  0
    2.8245    1.4802   -0.5168 C   0  0  1  0  0  0  0  0  0  0  0  0
    3.6459    1.1320   -1.7952 C   0  0  0  0  0  0  0  0  0  0  0  0
    4.8369    1.3844   -1.8103 O   0  0  0  0  0  0  0  0  0  0  0  0
    2.9891    0.5576   -3.0271 C   0  0  0  0  0  0  0  0  0  0  0  0
    1.6218    0.2338   -3.1346 C   0  0  0  0  0  0  0  0  0  0  0  0
    1.0958   -0.2719   -4.3288 C   0  0  0  0  0  0  0  0  0  0  0  0
   -0.3674   -0.6287   -4.4462 C   0  0  0  0  0  0  0  0  0  0  0  0
    1.9599   -0.4549   -5.4207 C   0  0  0  0  0  0  0  0  0  0  0  0
    3.3254   -0.1484   -5.3454 C   0  0  0  0  0  0  0  0  0  0  0  0
    4.2437   -0.3538   -6.5269 C   0  0  0  0  0  0  0  0  0  0  0  0
    3.8234    0.3581   -4.1390 C   0  0  0  0  0  0  0  0  0  0  0  0
    2.0150    2.7689   -0.7916 C   0  0  0  0  0  0  0  0  0  0  0  0
    1.2696    3.2525    0.4581 C   0  0  0  0  0  0  0  0  0  0  0  0
    2.2189    3.4546    1.6430 C   0  0  0  0  0  0  0  0  0  0  0  0
    3.0449    2.1922    1.9400 C   0  0  2  0  0  0  0  0  0  0  0  0
    4.0242    2.4085    3.0970 C   0  0  0  0  0  0  0  0  0  0  0  0
    3.7769    1.7261    0.6712 C   0  0  0  0  0  0  0  0  0  0  0  0
    1.4820   -1.4928    0.1158 H   0  0  0  0  0  0  0  0  0  0  0  0
    2.7863   -0.8306    1.1415 H   0  0  0  0  0  0  0  0  0  0  0  0
    3.0954   -1.1864   -0.5880 H   0  0  0  0  0  0  0  0  0  0  0  0
    0.9681    0.3645   -2.2735 H   0  0  0  0  0  0  0  0  0  0  0  0
   -0.9300   -0.3245   -3.5515 H   0  0  0  0  0  0  0  0  0  0  0  0
   -0.5052   -1.7161   -4.5743 H   0  0  0  0  0  0  0  0  0  0  0  0
   -0.8313   -0.1423   -5.3201 H   0  0  0  0  0  0  0  0  0  0  0  0
    1.5547   -0.8488   -6.3588 H   0  0  0  0  0  0  0  0  0  0  0  0
    3.6973   -0.7235   -7.4073 H   0  0  0  0  0  0  0  0  0  0  0  0
    5.0378   -1.0824   -6.2928 H   0  0  0  0  0  0  0  0  0  0  0  0
    4.7461    0.5858   -6.8105 H   0  0  0  0  0  0  0  0  0  0  0  0
    4.8794    0.6173   -4.0370 H   0  0  0  0  0  0  0  0  0  0  0  0
    1.3092    2.5931   -1.6171 H   0  0  0  0  0  0  0  0  0  0  0  0
    2.7220    3.5440   -1.1333 H   0  0  0  0  0  0  0  0  0  0  0  0
    0.5014    2.5077    0.7227 H   0  0  0  0  0  0  0  0  0  0  0  0
    0.7378    4.1906    0.2262 H   0  0  0  0  0  0  0  0  0  0  0  0
    1.6505    3.7529    2.5408 H   0  0  0  0  0  0  0  0  0  0  0  0
    2.9121    4.2890    1.4224 H   0  0  0  0  0  0  0  0  0  0  0  0
    2.3357    1.3968    2.2346 H   0  0  0  0  0  0  0  0  0  0  0  0
    4.7583    3.1954    2.8527 H   0  0  0  0  0  0  0  0  0  0  0  0
    4.5884    1.4895    3.3259 H   0  0  0  0  0  0  0  0  0  0  0  0
    3.4979    2.7168    4.0152 H   0  0  0  0  0  0  0  0  0  0  0  0
    4.3683    0.8188    0.8741 H   0  0  0  0  0  0  0  0  0  0  0  0
    4.5125    2.4843    0.3624 H   0  0  0  0  0  0  0  0  0  0  0  0
  1  2  1  0
  1 20  1  0
  1 21  1  0
  1 22  1  0
  3  2  1  1
  3  4  1  0
  3 14  1  0
  3 19  1  0
  4  5  2  0
  4  6  1  0
  6  7  2  0
  6 13  1  0
  7  8  1  0
  7 23  1  0
  8  9  1  0
  8 10  2  0
  9 24  1  0
  9 25  1  0
  9 26  1  0
 10 11  1  0
 10 27  1  0
 11 12  1  0
 11 13  2  0
 12 28  1  0
 12 29  1  0
 12 30  1  0
 13 31  1  0
 14 15  1  0
 14 32  1  0
 14 33  1  0
 15 16  1  0
 15 34  1  0
 15 35  1  0
 16 17  1  0
 16 36  1  0
 16 37  1  0
 17 18  1  0
 17 19  1  0
 17 38  1  1
 18 39  1  0
 18 40  1  0
 18 41  1  0
 19 42  1  0
 19 43  1  0
M  END

