
     RDKit          3D

 94 95  0  0  0  0  0  0  0  0999 V2000
    1.2030   -0.0905    1.2290 C   0  0  0  0  0  0  0  0  0  0  0  0
    3.0604   -0.1544    0.8332 Si  0  0  1  0  0  4  0  0  0  0  0  0
    4.0002   -0.2841    2.4800 C   0  0  0  0  0  0  0  0  0  0  0  0
    3.4129   -1.7289   -0.1724 C   0  0  0  0  0  0  0  0  0  0  0  0
    3.7802    1.7939   -0.3437 Si  0  0  1  0  0  4  0  0  0  0  0  0
    2.6395    2.0380   -1.8508 C   0  0  0  0  0  0  0  0  0  0  0  0
    1.6681    1.1961   -2.3644 C   0  0  0  0  0  0  0  0  0  0  0  0
    1.0480    1.6607   -3.5566 C   0  0  0  0  0  0  0  0  0  0  0  0
    1.5353    2.8795   -3.9921 C   0  0  0  0  0  0  0  0  0  0  0  0
    1.1488    3.6594   -5.1528 C   0  0  0  0  0  0  0  0  0  0  0  0
    1.7452    4.7892   -5.6845 C   0  0  0  0  0  0  0  0  0  0  0  0
    1.0878    5.2850   -6.8430 C   0  0  0  0  0  0  0  0  0  0  0  0
   -0.0208    4.5527   -7.2350 C   0  0  0  0  0  0  0  0  0  0  0  0
   -1.2440    4.9060   -8.6542 Si  0  0  1  0  0  4  0  0  0  0  0  0
   -2.5793    6.7346   -7.9005 Si  0  0  1  0  0  4  0  0  0  0  0  0
   -1.5544    8.3351   -7.8909 C   0  0  0  0  0  0  0  0  0  0  0  0
   -4.0980    6.9949   -9.0143 C   0  0  0  0  0  0  0  0  0  0  0  0
   -3.1656    6.3933   -6.1284 C   0  0  0  0  0  0  0  0  0  0  0  0
   -0.0218    5.4707  -10.6272 Si  0  0  1  0  0  4  0  0  0  0  0  0
    0.7167    3.9180  -11.4341 C   0  0  0  0  0  0  0  0  0  0  0  0
   -1.1925    6.3061  -11.8708 C   0  0  0  0  0  0  0  0  0  0  0  0
    1.4069    6.6721  -10.2702 C   0  0  0  0  0  0  0  0  0  0  0  0
   -2.5972    2.9821   -9.0729 Si  0  0  1  0  0  4  0  0  0  0  0  0
   -1.5341    1.4209   -9.2660 C   0  0  0  0  0  0  0  0  0  0  0  0
   -3.8438    2.6940   -7.6678 C   0  0  0  0  0  0  0  0  0  0  0  0
   -3.5729    3.2476  -10.6829 C   0  0  0  0  0  0  0  0  0  0  0  0
   -0.2472    3.2297   -6.1160 S   0  0  0  0  0  0  0  0  0  0  0  0
    2.7725    3.4422   -2.8888 S   0  0  0  0  0  0  0  0  0  0  0  0
    3.6760    3.7086    1.0821 Si  0  0  1  0  0  4  0  0  0  0  0  0
    5.0726    3.6146    2.3693 C   0  0  0  0  0  0  0  0  0  0  0  0
    3.8808    5.3266    0.1101 C   0  0  0  0  0  0  0  0  0  0  0  0
    2.0094    3.7783    1.9914 C   0  0  0  0  0  0  0  0  0  0  0  0
    5.9863    1.4843   -1.2072 Si  0  0  1  0  0  4  0  0  0  0  0  0
    7.1422    0.7568    0.1159 C   0  0  0  0  0  0  0  0  0  0  0  0
    5.9190    0.3004   -2.6887 C   0  0  0  0  0  0  0  0  0  0  0  0
    6.7184    3.1355   -1.7972 C   0  0  0  0  0  0  0  0  0  0  0  0
    0.9080   -0.9954    1.7883 H   0  0  0  0  0  0  0  0  0  0  0  0
    0.5825   -0.0391    0.3210 H   0  0  0  0  0  0  0  0  0  0  0  0
    0.9539    0.7848    1.8493 H   0  0  0  0  0  0  0  0  0  0  0  0
    3.7214   -1.2186    2.9970 H   0  0  0  0  0  0  0  0  0  0  0  0
    3.7563    0.5529    3.1538 H   0  0  0  0  0  0  0  0  0  0  0  0
    5.0922   -0.2938    2.3358 H   0  0  0  0  0  0  0  0  0  0  0  0
    3.0437   -2.6163    0.3703 H   0  0  0  0  0  0  0  0  0  0  0  0
    4.4936   -1.8658   -0.3396 H   0  0  0  0  0  0  0  0  0  0  0  0
    2.9233   -1.7102   -1.1592 H   0  0  0  0  0  0  0  0  0  0  0  0
    1.4026    0.2457   -1.8993 H   0  0  0  0  0  0  0  0  0  0  0  0
    0.2690    1.1101   -4.0873 H   0  0  0  0  0  0  0  0  0  0  0  0
    2.6405    5.2432   -5.2555 H   0  0  0  0  0  0  0  0  0  0  0  0
    1.4291    6.1715   -7.3798 H   0  0  0  0  0  0  0  0  0  0  0  0
   -1.2355    8.6249   -8.9053 H   0  0  0  0  0  0  0  0  0  0  0  0
   -0.6514    8.2277   -7.2681 H   0  0  0  0  0  0  0  0  0  0  0  0
   -2.1496    9.1674   -7.4766 H   0  0  0  0  0  0  0  0  0  0  0  0
   -3.8134    7.1825  -10.0622 H   0  0  0  0  0  0  0  0  0  0  0  0
   -4.6811    7.8644   -8.6647 H   0  0  0  0  0  0  0  0  0  0  0  0
   -4.7670    6.1190   -8.9988 H   0  0  0  0  0  0  0  0  0  0  0  0
   -2.3110    6.2297   -5.4525 H   0  0  0  0  0  0  0  0  0  0  0  0
   -3.8088    5.5006   -6.0755 H   0  0  0  0  0  0  0  0  0  0  0  0
   -3.7446    7.2508   -5.7438 H   0  0  0  0  0  0  0  0  0  0  0  0
   -0.0664    3.2224  -11.7760 H   0  0  0  0  0  0  0  0  0  0  0  0
    1.3697    3.3731  -10.7331 H   0  0  0  0  0  0  0  0  0  0  0  0
    1.3233    4.1971  -12.3130 H   0  0  0  0  0  0  0  0  0  0  0  0
   -2.0573    5.6700  -12.1179 H   0  0  0  0  0  0  0  0  0  0  0  0
   -0.6553    6.5219  -12.8105 H   0  0  0  0  0  0  0  0  0  0  0  0
   -1.5789    7.2624  -11.4821 H   0  0  0  0  0  0  0  0  0  0  0  0
    2.1807    6.2030   -9.6423 H   0  0  0  0  0  0  0  0  0  0  0  0
    1.0647    7.5892   -9.7646 H   0  0  0  0  0  0  0  0  0  0  0  0
    1.8843    6.9704  -11.2198 H   0  0  0  0  0  0  0  0  0  0  0  0
   -0.9484    1.2159   -8.3563 H   0  0  0  0  0  0  0  0  0  0  0  0
   -0.8275    1.5115  -10.1060 H   0  0  0  0  0  0  0  0  0  0  0  0
   -2.1797    0.5466   -9.4596 H   0  0  0  0  0  0  0  0  0  0  0  0
   -3.3418    2.5628   -6.6961 H   0  0  0  0  0  0  0  0  0  0  0  0
   -4.4343    1.7833   -7.8689 H   0  0  0  0  0  0  0  0  0  0  0  0
   -4.5495    3.5351   -7.5722 H   0  0  0  0  0  0  0  0  0  0  0  0
   -2.9057    3.3241  -11.5566 H   0  0  0  0  0  0  0  0  0  0  0  0
   -4.1885    4.1606  -10.6474 H   0  0  0  0  0  0  0  0  0  0  0  0
   -4.2500    2.3934  -10.8563 H   0  0  0  0  0  0  0  0  0  0  0  0
    6.0648    3.6528    1.8906 H   0  0  0  0  0  0  0  0  0  0  0  0
    5.0247    2.6924    2.9698 H   0  0  0  0  0  0  0  0  0  0  0  0
    5.0057    4.4705    3.0630 H   0  0  0  0  0  0  0  0  0  0  0  0
    4.8423    5.3672   -0.4259 H   0  0  0  0  0  0  0  0  0  0  0  0
    3.8461    6.1825    0.8065 H   0  0  0  0  0  0  0  0  0  0  0  0
    3.0768    5.4599   -0.6305 H   0  0  0  0  0  0  0  0  0  0  0  0
    1.8808    2.9274    2.6797 H   0  0  0  0  0  0  0  0  0  0  0  0
    1.1655    3.7704    1.2826 H   0  0  0  0  0  0  0  0  0  0  0  0
    1.9398    4.7042    2.5883 H   0  0  0  0  0  0  0  0  0  0  0  0
    6.8188   -0.2481    0.4326 H   0  0  0  0  0  0  0  0  0  0  0  0
    7.1912    1.3936    1.0140 H   0  0  0  0  0  0  0  0  0  0  0  0
    8.1664    0.6649   -0.2853 H   0  0  0  0  0  0  0  0  0  0  0  0
    5.5298   -0.6902   -2.4044 H   0  0  0  0  0  0  0  0  0  0  0  0
    6.9278    0.1589   -3.1137 H   0  0  0  0  0  0  0  0  0  0  0  0
    5.2690    0.7005   -3.4832 H   0  0  0  0  0  0  0  0  0  0  0  0
    6.8572    3.8429   -0.9635 H   0  0  0  0  0  0  0  0  0  0  0  0
    6.0703    3.6171   -2.5470 H   0  0  0  0  0  0  0  0  0  0  0  0
    7.7054    2.9684   -2.2625 H   0  0  0  0  0  0  0  0  0  0  0  0
  2  1  1  1
  1 37  1  0
  1 38  1  0
  1 39  1  0
  2  3  1  0
  2  4  1  0
  2  5  1  0
  3 40  1  0
  3 41  1  0
  3 42  1  0
  4 43  1  0
  4 44  1  0
  4 45  1  0
  5  6  1  6
  5 29  1  0
  5 33  1  0
  6  7  2  0
  6 28  1  0
  7  8  1  0
  7 46  1  0
  8  9  2  0
  8 47  1  0
  9 10  1  0
  9 28  1  0
 10 11  2  0
 10 27  1  0
 11 12  1  0
 11 48  1  0
 12 13  2  0
 12 49  1  0
 14 13  1  1
 13 27  1  0
 14 15  1  0
 14 19  1  0
 14 23  1  0
 15 16  1  1
 15 17  1  0
 15 18  1  0
 16 50  1  0
 16 51  1  0
 16 52  1  0
 17 53  1  0
 17 54  1  0
 17 55  1  0
 18 56  1  0
 18 57  1  0
 18 58  1  0
 19 20  1  6
 19 21  1  0
 19 22  1  0
 20 59  1  0
 20 60  1  0
 20 61  1  0
 21 62  1  0
 21 63  1  0
 21 64  1  0
 22 65  1  0
 22 66  1  0
 22 67  1  0
 23 24  1  6
 23 25  1  0
 23 26  1  0
 24 68  1  0
 24 69  1  0
 24 70  1  0
 25 71  1  0
 25 72  1  0
 25 73  1  0
 26 74  1  0
 26 75  1  0
 26 76  1  0
 29 30  1  1
 29 31  1  0
 29 32  1  0
 30 77  1  0
 30 78  1  0
 30 79  1  0
 31 80  1  0
 31 81  1  0
 31 82  1  0
 32 83  1  0
 32 84  1  0
 32 85  1  0
 33 34  1  1
 33 35  1  0
 33 36  1  0
 34 86  1  0
 34 87  1  0
 34 88  1  0
 35 89  1  0
 35 90  1  0
 35 91  1  0
 36 92  1  0
 36 93  1  0
 36 94  1  0
M  END

