
     RDKit          3D

 32 34  0  0  0  0  0  0  0  0999 V2000
    7.1851    0.2459   -5.6702 O   0  0  0  0  0  0  0  0  0  0  0  0
    7.2326   -0.0036   -4.4839 C   0  0  0  0  0  0  0  0  0  0  0  0
    8.0749    0.7109   -3.6122 N   0  0  0  0  0  0  0  0  0  0  0  0
    8.6645    1.4194   -4.0430 H   0  0  0  0  0  0  0  0  0  0  0  0
    8.2524    0.5752   -2.2439 C   0  0  0  0  0  0  0  0  0  0  0  0
    9.0785    1.2496   -1.6510 O   0  0  0  0  0  0  0  0  0  0  0  0
    7.4287   -0.3631   -1.6223 N   0  0  0  0  0  0  0  0  0  0  0  0
    7.3258   -0.4090   -0.1509 C   0  0  2  0  0  0  0  0  0  0  0  0
    6.3618   -0.9102    0.0399 H   0  0  0  0  0  0  0  0  0  0  0  0
    7.2972    0.8764    0.4046 O   0  0  0  0  0  0  0  0  0  0  0  0
    8.1596    0.9709    1.5590 C   0  0  2  0  0  0  0  0  0  0  0  0
    7.5773    1.4908    2.3389 H   0  0  0  0  0  0  0  0  0  0  0  0
    9.4301    1.7905    1.2687 C   0  0  0  0  0  0  0  0  0  0  0  0
    9.1512    2.9654    0.5746 O   0  0  0  0  0  0  0  0  0  0  0  0
    8.4587   -0.4733    1.9528 C   0  0  1  0  0  0  0  0  0  0  0  0
    9.4285   -0.5841    2.4613 H   0  0  0  0  0  0  0  0  0  0  0  0
    7.4802   -1.0625    2.8045 O   0  0  0  0  0  0  0  0  0  0  0  0
    8.4301   -1.2035    0.5894 C   0  0  1  0  0  0  0  0  0  0  0  0
    9.3876   -1.0793    0.0604 H   0  0  0  0  0  0  0  0  0  0  0  0
    8.1489   -2.5686    0.7088 O   0  0  0  0  0  0  0  0  0  0  0  0
    6.6398   -1.2214   -2.3936 C   0  0  0  0  0  0  0  0  0  0  0  0
    5.9059   -2.3603   -1.9337 C   0  0  0  0  0  0  0  0  0  0  0  0
    5.2332   -2.9737   -2.9625 C   0  0  0  0  0  0  0  0  0  0  0  0
    5.4814   -2.2214   -4.4939 S   0  0  0  0  0  0  0  0  0  0  0  0
    6.5148   -1.0378   -3.7639 C   0  0  0  0  0  0  0  0  0  0  0  0
   10.1651    1.1605    0.7315 H   0  0  0  0  0  0  0  0  0  0  0  0
    9.8787    2.0575    2.2421 H   0  0  0  0  0  0  0  0  0  0  0  0
    8.9546    2.6805   -0.3342 H   0  0  0  0  0  0  0  0  0  0  0  0
    6.6448   -0.5846    2.7076 H   0  0  0  0  0  0  0  0  0  0  0  0
    7.6686   -2.6561    1.5518 H   0  0  0  0  0  0  0  0  0  0  0  0
    5.9344   -2.7429   -0.9158 H   0  0  0  0  0  0  0  0  0  0  0  0
    4.6100   -3.8647   -2.8922 H   0  0  0  0  0  0  0  0  0  0  0  0
  1  2  2  0
  2  3  1  0
  2 25  1  0
  3  4  1  0
  3  5  1  0
  5  6  2  0
  5  7  1  0
  7  8  1  0
  7 21  1  0
  8  9  1  6
  8 10  1  0
  8 18  1  0
 10 11  1  0
 11 12  1  1
 11 13  1  0
 11 15  1  0
 13 14  1  0
 13 26  1  0
 13 27  1  0
 14 28  1  0
 15 16  1  1
 15 17  1  0
 15 18  1  0
 17 29  1  0
 18 19  1  6
 18 20  1  0
 20 30  1  0
 21 22  1  0
 21 25  2  0
 22 23  2  0
 22 31  1  0
 23 24  1  0
 23 32  1  0
 24 25  1  0
M  END

