
     RDKit          3D

 48 51  0  0  0  0  0  0  0  0999 V2000
   -0.0697   -0.4671    0.8533 C   0  0  0  0  0  0  0  0  0  0  0  0
    1.3742   -0.1424    0.4414 C   0  0  1  0  0  0  0  0  0  0  0  0
    1.4133   -0.0996   -0.6619 H   0  0  0  0  0  0  0  0  0  0  0  0
    1.7797    1.1605    0.9960 N   0  0  0  0  0  0  0  0  0  0  0  0
    1.9343    2.4208   -0.0943 S   0  0  1  0  0  0  0  0  0  0  0  0
    3.2215    2.4327   -0.7926 O   0  0  0  0  0  0  0  0  0  0  0  0
    0.7031    2.3862   -0.8994 O   0  0  0  0  0  0  0  0  0  0  0  0
    1.9788    3.6801    0.9918 N   0  0  0  0  0  0  0  0  0  0  0  0
    0.7238    4.0898    1.6794 C   0  0  0  0  0  0  0  0  0  0  0  0
    0.8624    5.6238    1.6736 C   0  0  2  0  0  0  0  0  0  0  0  0
    0.6613    6.1335    0.2241 C   0  0  0  0  0  0  0  0  0  0  0  0
    1.9605    5.6620   -0.5050 C   0  0  0  0  0  0  0  0  0  0  0  0
    2.7163    4.9198    0.6188 C   0  0  1  0  0  0  0  0  0  0  0  0
    2.3890    5.7788    1.8498 C   0  0  0  0  0  0  0  0  0  0  0  0
    2.3718   -1.1661    0.9219 C   0  0  0  0  0  0  0  0  0  0  0  0
    3.2179   -0.9508    1.8976 N   0  0  0  0  0  0  0  0  0  0  0  0
    3.9435   -2.0911    2.0913 N   0  0  0  0  0  0  0  0  0  0  0  0
    3.5306   -2.9827    1.2219 C   0  0  0  0  0  0  0  0  0  0  0  0
    2.5203   -2.4463    0.4428 N   0  0  0  0  0  0  0  0  0  0  0  0
    1.7768   -3.0584   -0.6619 C   0  0  0  0  0  0  0  0  0  0  0  0
    2.5958   -4.0831   -1.4497 C   0  0  0  0  0  0  0  0  0  0  0  0
    2.7336   -5.4640   -0.7861 C   0  0  0  0  0  0  0  0  0  0  0  0
    3.0605   -5.4381    0.7172 C   0  0  0  0  0  0  0  0  0  0  0  0
    4.0904   -4.3705    1.1133 C   0  0  0  0  0  0  0  0  0  0  0  0
   -0.7328    0.3216    0.4705 H   0  0  0  0  0  0  0  0  0  0  0  0
   -0.1497   -0.5011    1.9501 H   0  0  0  0  0  0  0  0  0  0  0  0
   -0.4051   -1.4332    0.4439 H   0  0  0  0  0  0  0  0  0  0  0  0
    2.6005    1.0752    1.6058 H   0  0  0  0  0  0  0  0  0  0  0  0
    0.6931    3.6691    2.6979 H   0  0  0  0  0  0  0  0  0  0  0  0
   -0.1656    3.7445    1.1306 H   0  0  0  0  0  0  0  0  0  0  0  0
    0.2275    6.1176    2.4230 H   0  0  0  0  0  0  0  0  0  0  0  0
    0.5674    7.2306    0.2108 H   0  0  0  0  0  0  0  0  0  0  0  0
   -0.2510    5.7207   -0.2326 H   0  0  0  0  0  0  0  0  0  0  0  0
    2.5588    6.5119   -0.8705 H   0  0  0  0  0  0  0  0  0  0  0  0
    1.7627    5.0062   -1.3641 H   0  0  0  0  0  0  0  0  0  0  0  0
    3.7697    4.6949    0.4175 H   0  0  0  0  0  0  0  0  0  0  0  0
    2.7380    6.8173    1.7437 H   0  0  0  0  0  0  0  0  0  0  0  0
    2.7776    5.3542    2.7875 H   0  0  0  0  0  0  0  0  0  0  0  0
    1.4717   -2.2413   -1.3315 H   0  0  0  0  0  0  0  0  0  0  0  0
    0.8500   -3.5189   -0.2762 H   0  0  0  0  0  0  0  0  0  0  0  0
    3.5883   -3.6468   -1.6517 H   0  0  0  0  0  0  0  0  0  0  0  0
    2.1190   -4.2083   -2.4354 H   0  0  0  0  0  0  0  0  0  0  0  0
    3.5205   -6.0199   -1.3239 H   0  0  0  0  0  0  0  0  0  0  0  0
    1.8031   -6.0382   -0.9371 H   0  0  0  0  0  0  0  0  0  0  0  0
    3.4330   -6.4312    1.0154 H   0  0  0  0  0  0  0  0  0  0  0  0
    2.1396   -5.2785    1.3044 H   0  0  0  0  0  0  0  0  0  0  0  0
    4.9368   -4.3808    0.4016 H   0  0  0  0  0  0  0  0  0  0  0  0
    4.5262   -4.5894    2.0989 H   0  0  0  0  0  0  0  0  0  0  0  0
  1  2  1  0
  1 25  1  0
  1 26  1  0
  1 27  1  0
  2  3  1  6
  2  4  1  0
  2 15  1  0
  5  4  1  1
  4 28  1  0
  5  6  2  0
  5  7  2  0
  5  8  1  0
  8  9  1  0
  8 13  1  0
  9 10  1  0
  9 29  1  0
  9 30  1  0
 10 11  1  0
 10 14  1  0
 10 31  1  1
 11 12  1  0
 11 32  1  0
 11 33  1  0
 12 13  1  0
 12 34  1  0
 12 35  1  0
 13 14  1  0
 13 36  1  6
 14 37  1  0
 14 38  1  0
 15 16  2  0
 15 19  1  0
 16 17  1  0
 17 18  2  0
 18 19  1  0
 18 24  1  0
 19 20  1  0
 20 21  1  0
 20 39  1  0
 20 40  1  0
 21 22  1  0
 21 41  1  0
 21 42  1  0
 22 23  1  0
 22 43  1  0
 22 44  1  0
 23 24  1  0
 23 45  1  0
 23 46  1  0
 24 47  1  0
 24 48  1  0
M  END

