
     RDKit          3D

 48 51  0  0  0  0  0  0  0  0999 V2000
    1.1104    0.1427    0.6460 C   0  0  0  0  0  0  0  0  0  0  0  0
    2.5013    0.0782    0.1992 N   0  0  0  0  0  0  0  0  0  0  0  0
    3.1813   -1.1202    0.1431 C   0  0  0  0  0  0  0  0  0  0  0  0
    2.4051   -2.2922    0.2870 N   0  0  0  0  0  0  0  0  0  0  0  0
    1.4120   -2.6570   -0.6031 C   0  0  0  0  0  0  0  0  0  0  0  0
    1.0153   -1.9044   -1.4734 O   0  0  0  0  0  0  0  0  0  0  0  0
    0.8507   -4.0573   -0.4838 C   0  0  0  0  0  0  0  0  0  0  0  0
    0.2587   -4.5441   -1.6659 C   0  0  0  0  0  0  0  0  0  0  0  0
   -0.3100   -5.8088   -1.7523 C   0  0  0  0  0  0  0  0  0  0  0  0
   -0.3099   -6.6268   -0.6180 C   0  0  0  0  0  0  0  0  0  0  0  0
   -1.0157   -8.2161   -0.6908 Cl  0  0  0  0  0  0  0  0  0  0  0  0
    0.2462   -6.1794    0.5808 C   0  0  0  0  0  0  0  0  0  0  0  0
    0.8208   -4.9062    0.6419 C   0  0  0  0  0  0  0  0  0  0  0  0
    1.4484   -4.4382    2.2162 Cl  0  0  0  0  0  0  0  0  0  0  0  0
    4.5489   -1.2086   -0.0384 C   0  0  0  0  0  0  0  0  0  0  0  0
    5.2633   -2.5144   -0.0570 C   0  0  0  0  0  0  0  0  0  0  0  0
    6.0410   -2.8877   -1.1696 C   0  0  0  0  0  0  0  0  0  0  0  0
    6.7171   -4.1073   -1.1918 C   0  0  0  0  0  0  0  0  0  0  0  0
    6.6371   -4.9854   -0.1072 C   0  0  0  0  0  0  0  0  0  0  0  0
    5.8838   -4.6205    1.0115 C   0  0  0  0  0  0  0  0  0  0  0  0
    5.7360   -5.5645    2.1773 C   0  0  1  0  0  0  0  0  0  0  0  0
    6.7510   -6.4406    2.2544 F   0  0  0  0  0  0  0  0  0  0  0  0
    5.6756   -4.9082    3.3511 F   0  0  0  0  0  0  0  0  0  0  0  0
    4.5994   -6.2887    2.0838 F   0  0  0  0  0  0  0  0  0  0  0  0
    5.2187   -3.3882    1.0403 C   0  0  0  0  0  0  0  0  0  0  0  0
    5.3419    0.0025   -0.2741 C   0  0  0  0  0  0  0  0  0  0  0  0
    6.5562   -0.0202   -0.4649 O   0  0  0  0  0  0  0  0  0  0  0  0
    4.5629    1.2600   -0.3249 C   0  0  0  0  0  0  0  0  0  0  0  0
    5.2321    2.4632   -0.6124 C   0  0  0  0  0  0  0  0  0  0  0  0
    4.5426    3.6639   -0.6922 C   0  0  0  0  0  0  0  0  0  0  0  0
    3.1523    3.6686   -0.4922 C   0  0  0  0  0  0  0  0  0  0  0  0
    2.4671    2.4944   -0.2050 C   0  0  0  0  0  0  0  0  0  0  0  0
    3.1657    1.2685   -0.1073 C   0  0  0  0  0  0  0  0  0  0  0  0
    0.8553   -0.7839    1.1680 H   0  0  0  0  0  0  0  0  0  0  0  0
    0.4218    0.2740   -0.2009 H   0  0  0  0  0  0  0  0  0  0  0  0
    0.9959    0.9738    1.3552 H   0  0  0  0  0  0  0  0  0  0  0  0
    2.8249   -3.0327    0.8364 H   0  0  0  0  0  0  0  0  0  0  0  0
    0.2582   -3.8784   -2.5305 H   0  0  0  0  0  0  0  0  0  0  0  0
   -0.7528   -6.1631   -2.6839 H   0  0  0  0  0  0  0  0  0  0  0  0
    0.2325   -6.8124    1.4675 H   0  0  0  0  0  0  0  0  0  0  0  0
    6.1170   -2.2070   -2.0182 H   0  0  0  0  0  0  0  0  0  0  0  0
    7.3163   -4.3783   -2.0644 H   0  0  0  0  0  0  0  0  0  0  0  0
    7.1655   -5.9400   -0.1230 H   0  0  0  0  0  0  0  0  0  0  0  0
    4.6864   -3.0970    1.9495 H   0  0  0  0  0  0  0  0  0  0  0  0
    6.3107    2.4005   -0.7692 H   0  0  0  0  0  0  0  0  0  0  0  0
    5.0700    4.5943   -0.9147 H   0  0  0  0  0  0  0  0  0  0  0  0
    2.5920    4.6040   -0.5687 H   0  0  0  0  0  0  0  0  0  0  0  0
    1.3866    2.5315   -0.0773 H   0  0  0  0  0  0  0  0  0  0  0  0
  1  2  1  0
  1 34  1  0
  1 35  1  0
  1 36  1  0
  2  3  1  0
  2 33  1  0
  3  4  1  0
  3 15  2  0
  4  5  1  0
  4 37  1  0
  5  6  2  0
  5  7  1  0
  7  8  2  0
  7 13  1  0
  8  9  1  0
  8 38  1  0
  9 10  2  0
  9 39  1  0
 10 11  1  0
 10 12  1  0
 12 13  2  0
 12 40  1  0
 13 14  1  0
 15 16  1  0
 15 26  1  0
 16 17  2  0
 16 25  1  0
 17 18  1  0
 17 41  1  0
 18 19  2  0
 18 42  1  0
 19 20  1  0
 19 43  1  0
 20 21  1  0
 20 25  2  0
 21 22  1  1
 21 23  1  0
 21 24  1  0
 25 44  1  0
 26 27  2  0
 26 28  1  0
 28 29  1  0
 28 33  2  0
 29 30  2  0
 29 45  1  0
 30 31  1  0
 30 46  1  0
 31 32  2  0
 31 47  1  0
 32 33  1  0
 32 48  1  0
M  END

