
     RDKit          3D

192198  0  0  0  0  0  0  0  0999 V2000
    6.3357    6.7248    7.0873 C   0  0  0  0  0  0  0  0  0  0  0  0
    6.5497    5.9661    5.9286 O   0  0  0  0  0  0  0  0  0  0  0  0
    7.3221    6.6181    4.9549 C   0  0  0  0  0  0  0  0  0  0  0  0
    7.4689    5.6835    3.7663 C   0  0  0  0  0  0  0  0  0  0  0  0
    8.2427    6.3348    2.7900 O   0  0  0  0  0  0  0  0  0  0  0  0
    8.4614    5.5823    1.6246 C   0  0  0  0  0  0  0  0  0  0  0  0
    9.3053    6.4182    0.6771 C   0  0  0  0  0  0  0  0  0  0  0  0
    9.5262    5.6666   -0.4899 O   0  0  0  0  0  0  0  0  0  0  0  0
   10.2973    6.3194   -1.4650 C   0  0  0  0  0  0  0  0  0  0  0  0
   10.4431    5.3826   -2.6524 C   0  0  0  0  0  0  0  0  0  0  0  0
   11.2073    6.0376   -3.6354 O   0  0  0  0  0  0  0  0  0  0  0  0
   11.4211    5.2830   -4.8027 C   0  0  0  0  0  0  0  0  0  0  0  0
   12.3171    6.0990   -5.7304 C   0  0  1  0  0  0  0  0  0  0  0  0
   13.7017    6.3569   -5.1421 C   0  0  0  0  0  0  0  0  0  0  0  0
   14.3063    5.1443   -4.7720 O   0  0  0  0  0  0  0  0  0  0  0  0
   15.5342    5.3152   -4.1040 C   0  0  0  0  0  0  0  0  0  0  0  0
   16.0648    3.9946   -3.5856 C   0  0  0  0  0  0  0  0  0  0  0  0
   16.6481    3.2391   -4.6162 O   0  0  0  0  0  0  0  0  0  0  0  0
   17.2418    2.0485   -4.1594 C   0  0  0  0  0  0  0  0  0  0  0  0
   18.0033    1.3875   -5.2981 C   0  0  0  0  0  0  0  0  0  0  0  0
   18.6949    0.2943   -4.7467 O   0  0  0  0  0  0  0  0  0  0  0  0
   19.5028   -0.4299   -5.6470 C   0  0  0  0  0  0  0  0  0  0  0  0
   20.2665   -1.4574   -4.8259 C   0  0  0  0  0  0  0  0  0  0  0  0
   21.0971   -2.2088   -5.6793 O   0  0  0  0  0  0  0  0  0  0  0  0
   21.9888   -3.0481   -4.9965 C   0  0  0  0  0  0  0  0  0  0  0  0
   12.3712    5.3626   -6.9464 O   0  0  0  0  0  0  0  0  0  0  0  0
   12.8239    5.9204   -8.1050 C   0  0  0  0  0  0  0  0  0  0  0  0
   12.8191    7.2884   -8.3665 C   0  0  0  0  0  0  0  0  0  0  0  0
   13.2804    7.8212   -9.5875 C   0  0  0  0  0  0  0  0  0  0  0  0
   13.2992    9.2513   -9.8722 C   0  0  0  0  0  0  0  0  0  0  0  0
   12.7506   10.2379   -9.1202 C   0  0  0  0  0  0  0  0  0  0  0  0
   12.7908   11.6686   -9.4046 C   0  0  0  0  0  0  0  0  0  0  0  0
   13.4592   12.2279  -10.5208 C   0  0  0  0  0  0  0  0  0  0  0  0
   13.4697   13.5937  -10.7552 C   0  0  0  0  0  0  0  0  0  0  0  0
   12.8058   14.4863   -9.8747 C   0  0  0  0  0  0  0  0  0  0  0  0
   12.7566   15.9248  -10.0273 C   0  0  0  0  0  0  0  0  0  0  0  0
   13.2564   16.8109  -10.9395 C   0  0  0  0  0  0  0  0  0  0  0  0
   14.0731   16.6693  -12.1788 C   0  0  0  0  0  0  0  0  0  0  0  0
   14.5204   15.6669  -12.7104 O   0  0  0  0  0  0  0  0  0  0  0  0
   14.2712   18.0590  -12.7063 C   0  0  0  0  0  0  0  0  0  0  0  0
   14.9665   18.4640  -13.8451 C   0  0  0  0  0  0  0  0  0  0  0  0
   15.0110   19.8330  -14.1322 C   0  0  0  0  0  0  0  0  0  0  0  0
   14.3741   20.7686  -13.2973 C   0  0  0  0  0  0  0  0  0  0  0  0
   13.6776   20.3567  -12.1554 C   0  0  0  0  0  0  0  0  0  0  0  0
   13.6368   18.9917  -11.8747 C   0  0  0  0  0  0  0  0  0  0  0  0
   12.9779   18.2733  -10.7422 C   0  0  0  0  0  0  0  0  0  0  0  0
   12.3413   18.7794   -9.8391 O   0  0  0  0  0  0  0  0  0  0  0  0
   12.1384   13.9291   -8.7567 C   0  0  0  0  0  0  0  0  0  0  0  0
   12.1315   12.5609   -8.5286 C   0  0  0  0  0  0  0  0  0  0  0  0
   13.7534    6.9108  -10.5740 C   0  0  0  0  0  0  0  0  0  0  0  0
   14.1519    7.4590  -11.7547 O   0  0  0  0  0  0  0  0  0  0  0  0
   14.8887    6.7161  -12.7199 C   0  0  1  0  0  0  0  0  0  0  0  0
   13.9215    6.1128  -13.7412 C   0  0  0  0  0  0  0  0  0  0  0  0
   14.6462    5.2637  -14.5941 O   0  0  0  0  0  0  0  0  0  0  0  0
   13.8760    4.6531  -15.6031 C   0  0  0  0  0  0  0  0  0  0  0  0
   14.7917    3.7602  -16.4233 C   0  0  0  0  0  0  0  0  0  0  0  0
   14.0163    3.1498  -17.4216 O   0  0  0  0  0  0  0  0  0  0  0  0
   14.7319    2.2833  -18.2668 C   0  0  0  0  0  0  0  0  0  0  0  0
   13.7602    1.7042  -19.2812 C   0  0  0  0  0  0  0  0  0  0  0  0
   14.4776    0.8413  -20.1253 O   0  0  0  0  0  0  0  0  0  0  0  0
   13.7018    0.2246  -21.1222 C   0  0  0  0  0  0  0  0  0  0  0  0
   14.6126   -0.6718  -21.9438 C   0  0  0  0  0  0  0  0  0  0  0  0
   13.8367   -1.2852  -22.9395 O   0  0  0  0  0  0  0  0  0  0  0  0
   14.5602   -2.1480  -23.7739 C   0  0  0  0  0  0  0  0  0  0  0  0
   15.8901    7.6590  -13.3653 C   0  0  0  0  0  0  0  0  0  0  0  0
   16.8708    7.9976  -12.4210 O   0  0  0  0  0  0  0  0  0  0  0  0
   17.8564    8.8800  -12.8983 C   0  0  0  0  0  0  0  0  0  0  0  0
   18.8473    9.1315  -11.7744 C   0  0  0  0  0  0  0  0  0  0  0  0
   19.8339   10.0084  -12.2543 O   0  0  0  0  0  0  0  0  0  0  0  0
   20.8214   10.3445  -11.3126 C   0  0  0  0  0  0  0  0  0  0  0  0
   21.8024   11.2956  -11.9770 C   0  0  0  0  0  0  0  0  0  0  0  0
   22.7915   11.6275  -11.0364 O   0  0  0  0  0  0  0  0  0  0  0  0
   23.7747   12.5110  -11.5136 C   0  0  0  0  0  0  0  0  0  0  0  0
   24.7612   12.7730  -10.3883 C   0  0  0  0  0  0  0  0  0  0  0  0
   25.7446   13.6532  -10.8665 O   0  0  0  0  0  0  0  0  0  0  0  0
   26.7234   13.9814   -9.9190 C   0  0  0  0  0  0  0  0  0  0  0  0
   13.7578    5.5400  -10.3119 C   0  0  0  0  0  0  0  0  0  0  0  0
   13.3123    5.0144   -9.0849 C   0  0  0  0  0  0  0  0  0  0  0  0
   13.3449    3.5874   -8.7805 C   0  0  0  0  0  0  0  0  0  0  0  0
   14.1539    2.6677   -9.3582 C   0  0  0  0  0  0  0  0  0  0  0  0
   14.2097    1.2527   -8.9982 C   0  0  0  0  0  0  0  0  0  0  0  0
   13.1314    0.5678   -8.3929 C   0  0  0  0  0  0  0  0  0  0  0  0
   13.2600   -0.7588   -8.0093 C   0  0  0  0  0  0  0  0  0  0  0  0
   14.4797   -1.4624   -8.1744 C   0  0  0  0  0  0  0  0  0  0  0  0
   14.5443   -2.8215   -7.6739 C   0  0  0  0  0  0  0  0  0  0  0  0
   15.5782   -3.6708   -7.4023 C   0  0  0  0  0  0  0  0  0  0  0  0
   17.0588   -3.5071   -7.4332 C   0  0  0  0  0  0  0  0  0  0  0  0
   17.7307   -2.5823   -7.8607 O   0  0  0  0  0  0  0  0  0  0  0  0
   17.6279   -4.7411   -6.8063 C   0  0  0  0  0  0  0  0  0  0  0  0
   18.9662   -5.0406   -6.5515 C   0  0  0  0  0  0  0  0  0  0  0  0
   19.2526   -6.2803   -5.9679 C   0  0  0  0  0  0  0  0  0  0  0  0
   18.2253   -7.1873   -5.6495 C   0  0  0  0  0  0  0  0  0  0  0  0
   16.8839   -6.8737   -5.8976 C   0  0  0  0  0  0  0  0  0  0  0  0
   16.6018   -5.6379   -6.4781 C   0  0  0  0  0  0  0  0  0  0  0  0
   15.2820   -5.0242   -6.8223 C   0  0  0  0  0  0  0  0  0  0  0  0
   14.1861   -5.5183   -6.6471 O   0  0  0  0  0  0  0  0  0  0  0  0
   15.5469   -0.7873   -8.8133 C   0  0  0  0  0  0  0  0  0  0  0  0
   15.3989    0.5276   -9.2322 C   0  0  0  0  0  0  0  0  0  0  0  0
    5.7247    6.1236    7.7766 H   0  0  0  0  0  0  0  0  0  0  0  0
    5.7969    7.6705    6.8722 H   0  0  0  0  0  0  0  0  0  0  0  0
    7.2867    6.9859    7.5956 H   0  0  0  0  0  0  0  0  0  0  0  0
    8.3283    6.8819    5.3428 H   0  0  0  0  0  0  0  0  0  0  0  0
    6.8454    7.5642    4.6231 H   0  0  0  0  0  0  0  0  0  0  0  0
    6.4640    5.4210    3.3769 H   0  0  0  0  0  0  0  0  0  0  0  0
    7.9466    4.7385    4.0967 H   0  0  0  0  0  0  0  0  0  0  0  0
    7.5055    5.3145    1.1293 H   0  0  0  0  0  0  0  0  0  0  0  0
    8.9886    4.6322    1.8482 H   0  0  0  0  0  0  0  0  0  0  0  0
   10.2610    6.6862    1.1724 H   0  0  0  0  0  0  0  0  0  0  0  0
    8.7778    7.3679    0.4526 H   0  0  0  0  0  0  0  0  0  0  0  0
   11.3021    6.5844   -1.0761 H   0  0  0  0  0  0  0  0  0  0  0  0
    9.8177    7.2635   -1.7961 H   0  0  0  0  0  0  0  0  0  0  0  0
    9.4375    5.1157   -3.0362 H   0  0  0  0  0  0  0  0  0  0  0  0
   10.9287    4.4412   -2.3260 H   0  0  0  0  0  0  0  0  0  0  0  0
   10.4677    5.0702   -5.3256 H   0  0  0  0  0  0  0  0  0  0  0  0
   11.9134    4.3192   -4.5763 H   0  0  0  0  0  0  0  0  0  0  0  0
   11.8284    7.0776   -5.8824 H   0  0  0  0  0  0  0  0  0  0  0  0
   13.5707    7.0177   -4.2614 H   0  0  0  0  0  0  0  0  0  0  0  0
   14.3250    6.9033   -5.8784 H   0  0  0  0  0  0  0  0  0  0  0  0
   15.4031    5.9981   -3.2382 H   0  0  0  0  0  0  0  0  0  0  0  0
   16.2917    5.7719   -4.7730 H   0  0  0  0  0  0  0  0  0  0  0  0
   15.2373    3.4392   -3.0974 H   0  0  0  0  0  0  0  0  0  0  0  0
   16.8184    4.2131   -2.7988 H   0  0  0  0  0  0  0  0  0  0  0  0
   16.4828    1.3459   -3.7585 H   0  0  0  0  0  0  0  0  0  0  0  0
   17.9581    2.2521   -3.3363 H   0  0  0  0  0  0  0  0  0  0  0  0
   18.7023    2.1251   -5.7438 H   0  0  0  0  0  0  0  0  0  0  0  0
   17.3063    1.0696   -6.0990 H   0  0  0  0  0  0  0  0  0  0  0  0
   20.2248    0.2363   -6.1624 H   0  0  0  0  0  0  0  0  0  0  0  0
   18.9010   -0.9359   -6.4253 H   0  0  0  0  0  0  0  0  0  0  0  0
   19.5482   -2.1091   -4.2872 H   0  0  0  0  0  0  0  0  0  0  0  0
   20.8649   -0.9288   -4.0556 H   0  0  0  0  0  0  0  0  0  0  0  0
   22.6006   -3.5731   -5.7453 H   0  0  0  0  0  0  0  0  0  0  0  0
   21.4620   -3.8030   -4.3770 H   0  0  0  0  0  0  0  0  0  0  0  0
   22.6648   -2.4763   -4.3285 H   0  0  0  0  0  0  0  0  0  0  0  0
   12.4658    7.9793   -7.6028 H   0  0  0  0  0  0  0  0  0  0  0  0
   13.8145    9.5144  -10.7971 H   0  0  0  0  0  0  0  0  0  0  0  0
   12.2057    9.9733   -8.2080 H   0  0  0  0  0  0  0  0  0  0  0  0
   13.9848   11.5744  -11.2195 H   0  0  0  0  0  0  0  0  0  0  0  0
   13.9914   14.0001  -11.6221 H   0  0  0  0  0  0  0  0  0  0  0  0
   12.1910   16.4362   -9.2359 H   0  0  0  0  0  0  0  0  0  0  0  0
   15.4559   17.7250  -14.4834 H   0  0  0  0  0  0  0  0  0  0  0  0
   15.5477   20.1845  -15.0172 H   0  0  0  0  0  0  0  0  0  0  0  0
   14.4264   21.8314  -13.5475 H   0  0  0  0  0  0  0  0  0  0  0  0
   13.1777   21.0706  -11.4969 H   0  0  0  0  0  0  0  0  0  0  0  0
   11.6192   14.5949   -8.0622 H   0  0  0  0  0  0  0  0  0  0  0  0
   11.6064   12.1608   -7.6570 H   0  0  0  0  0  0  0  0  0  0  0  0
   15.4582    5.9077  -12.2330 H   0  0  0  0  0  0  0  0  0  0  0  0
   13.4248    6.9277  -14.3078 H   0  0  0  0  0  0  0  0  0  0  0  0
   13.1230    5.5587  -13.2093 H   0  0  0  0  0  0  0  0  0  0  0  0
   13.4058    5.4097  -16.2630 H   0  0  0  0  0  0  0  0  0  0  0  0
   13.0580    4.0436  -15.1692 H   0  0  0  0  0  0  0  0  0  0  0  0
   15.2652    3.0079  -15.7597 H   0  0  0  0  0  0  0  0  0  0  0  0
   15.6098    4.3688  -16.8606 H   0  0  0  0  0  0  0  0  0  0  0  0
   15.2034    1.4589  -17.6940 H   0  0  0  0  0  0  0  0  0  0  0  0
   15.5456    2.8180  -18.7979 H   0  0  0  0  0  0  0  0  0  0  0  0
   13.2868    2.5293  -19.8520 H   0  0  0  0  0  0  0  0  0  0  0  0
   12.9470    1.1686  -18.7497 H   0  0  0  0  0  0  0  0  0  0  0  0
   13.2259    0.9749  -21.7861 H   0  0  0  0  0  0  0  0  0  0  0  0
   12.8858   -0.3835  -20.6810 H   0  0  0  0  0  0  0  0  0  0  0  0
   15.0889   -1.4221  -21.2786 H   0  0  0  0  0  0  0  0  0  0  0  0
   15.4308   -0.0629  -22.3824 H   0  0  0  0  0  0  0  0  0  0  0  0
   13.8610   -2.5705  -24.5105 H   0  0  0  0  0  0  0  0  0  0  0  0
   15.0234   -2.9827  -23.2086 H   0  0  0  0  0  0  0  0  0  0  0  0
   15.3690   -1.6191  -24.3189 H   0  0  0  0  0  0  0  0  0  0  0  0
   15.3575    8.5616  -13.7311 H   0  0  0  0  0  0  0  0  0  0  0  0
   16.3313    7.1478  -14.2430 H   0  0  0  0  0  0  0  0  0  0  0  0
   17.4135    9.8435  -13.2232 H   0  0  0  0  0  0  0  0  0  0  0  0
   18.3897    8.4552  -13.7733 H   0  0  0  0  0  0  0  0  0  0  0  0
   19.2866    8.1669  -11.4468 H   0  0  0  0  0  0  0  0  0  0  0  0
   18.3142    9.5594  -10.9010 H   0  0  0  0  0  0  0  0  0  0  0  0
   21.3632    9.4446  -10.9560 H   0  0  0  0  0  0  0  0  0  0  0  0
   20.3796   10.8332  -10.4203 H   0  0  0  0  0  0  0  0  0  0  0  0
   21.2611   12.1967  -12.3311 H   0  0  0  0  0  0  0  0  0  0  0  0
   22.2415   10.8078  -12.8715 H   0  0  0  0  0  0  0  0  0  0  0  0
   23.3294   13.4713  -11.8450 H   0  0  0  0  0  0  0  0  0  0  0  0
   24.3134   12.0847  -12.3846 H   0  0  0  0  0  0  0  0  0  0  0  0
   25.2035   11.8109  -10.0548 H   0  0  0  0  0  0  0  0  0  0  0  0
   24.2216   13.2000   -9.5172 H   0  0  0  0  0  0  0  0  0  0  0  0
   27.4371   14.6699  -10.3951 H   0  0  0  0  0  0  0  0  0  0  0  0
   27.2780   13.0875   -9.5663 H   0  0  0  0  0  0  0  0  0  0  0  0
   26.2902   14.4829   -9.0292 H   0  0  0  0  0  0  0  0  0  0  0  0
   14.0875    4.8397  -11.0781 H   0  0  0  0  0  0  0  0  0  0  0  0
   12.6985    3.2764   -7.9574 H   0  0  0  0  0  0  0  0  0  0  0  0
   14.8991    2.9953  -10.0915 H   0  0  0  0  0  0  0  0  0  0  0  0
   12.1801    1.0822   -8.2420 H   0  0  0  0  0  0  0  0  0  0  0  0
   12.4094   -1.2723   -7.5530 H   0  0  0  0  0  0  0  0  0  0  0  0
   13.5692   -3.2584   -7.4173 H   0  0  0  0  0  0  0  0  0  0  0  0
   19.7450   -4.3104   -6.7855 H   0  0  0  0  0  0  0  0  0  0  0  0
   20.2895   -6.5520   -5.7533 H   0  0  0  0  0  0  0  0  0  0  0  0
   18.4823   -8.1482   -5.1962 H   0  0  0  0  0  0  0  0  0  0  0  0
   16.0754   -7.5638   -5.6459 H   0  0  0  0  0  0  0  0  0  0  0  0
   16.4951   -1.3029   -8.9531 H   0  0  0  0  0  0  0  0  0  0  0  0
   16.2377    1.0291   -9.7226 H   0  0  0  0  0  0  0  0  0  0  0  0
  1  2  1  0
  1 99  1  0
  1100  1  0
  1101  1  0
  2  3  1  0
  3  4  1  0
  3102  1  0
  3103  1  0
  4  5  1  0
  4104  1  0
  4105  1  0
  5  6  1  0
  6  7  1  0
  6106  1  0
  6107  1  0
  7  8  1  0
  7108  1  0
  7109  1  0
  8  9  1  0
  9 10  1  0
  9110  1  0
  9111  1  0
 10 11  1  0
 10112  1  0
 10113  1  0
 11 12  1  0
 12 13  1  0
 12114  1  0
 12115  1  0
 13 14  1  0
 13 26  1  0
 13116  1  6
 14 15  1  0
 14117  1  0
 14118  1  0
 15 16  1  0
 16 17  1  0
 16119  1  0
 16120  1  0
 17 18  1  0
 17121  1  0
 17122  1  0
 18 19  1  0
 19 20  1  0
 19123  1  0
 19124  1  0
 20 21  1  0
 20125  1  0
 20126  1  0
 21 22  1  0
 22 23  1  0
 22127  1  0
 22128  1  0
 23 24  1  0
 23129  1  0
 23130  1  0
 24 25  1  0
 25131  1  0
 25132  1  0
 25133  1  0
 26 27  1  0
 27 28  2  0
 27 78  1  0
 28 29  1  0
 28134  1  0
 29 30  1  0
 29 50  2  0
 30 31  2  0
 30135  1  0
 31 32  1  0
 31136  1  0
 32 33  2  0
 32 49  1  0
 33 34  1  0
 33137  1  0
 34 35  2  0
 34138  1  0
 35 36  1  0
 35 48  1  0
 36 37  2  0
 36139  1  0
 37 38  1  0
 37 46  1  0
 38 39  2  0
 38 40  1  0
 40 41  1  0
 40 45  2  0
 41 42  2  0
 41140  1  0
 42 43  1  0
 42141  1  0
 43 44  2  0
 43142  1  0
 44 45  1  0
 44143  1  0
 45 46  1  0
 46 47  2  0
 48 49  2  0
 48144  1  0
 49145  1  0
 50 51  1  0
 50 77  1  0
 51 52  1  0
 52 53  1  0
 52 65  1  0
 52146  1  1
 53 54  1  0
 53147  1  0
 53148  1  0
 54 55  1  0
 55 56  1  0
 55149  1  0
 55150  1  0
 56 57  1  0
 56151  1  0
 56152  1  0
 57 58  1  0
 58 59  1  0
 58153  1  0
 58154  1  0
 59 60  1  0
 59155  1  0
 59156  1  0
 60 61  1  0
 61 62  1  0
 61157  1  0
 61158  1  0
 62 63  1  0
 62159  1  0
 62160  1  0
 63 64  1  0
 64161  1  0
 64162  1  0
 64163  1  0
 65 66  1  0
 65164  1  0
 65165  1  0
 66 67  1  0
 67 68  1  0
 67166  1  0
 67167  1  0
 68 69  1  0
 68168  1  0
 68169  1  0
 69 70  1  0
 70 71  1  0
 70170  1  0
 70171  1  0
 71 72  1  0
 71172  1  0
 71173  1  0
 72 73  1  0
 73 74  1  0
 73174  1  0
 73175  1  0
 74 75  1  0
 74176  1  0
 74177  1  0
 75 76  1  0
 76178  1  0
 76179  1  0
 76180  1  0
 77 78  2  0
 77181  1  0
 78 79  1  0
 79 80  2  0
 79182  1  0
 80 81  1  0
 80183  1  0
 81 82  2  0
 81 98  1  0
 82 83  1  0
 82184  1  0
 83 84  2  0
 83185  1  0
 84 85  1  0
 84 97  1  0
 85 86  2  0
 85186  1  0
 86 87  1  0
 86 95  1  0
 87 88  2  0
 87 89  1  0
 89 90  1  0
 89 94  2  0
 90 91  2  0
 90187  1  0
 91 92  1  0
 91188  1  0
 92 93  2  0
 92189  1  0
 93 94  1  0
 93190  1  0
 94 95  1  0
 95 96  2  0
 97 98  2  0
 97191  1  0
 98192  1  0
M  END

