
     RDKit          3D

 46 46  0  0  0  0  0  0  0  0999 V2000
    4.5044   -1.4708    0.3883 C   0  0  0  0  0  0  0  0  0  0  0  0
    3.3436   -0.6853   -0.1982 C   0  0  0  0  0  0  0  0  0  0  0  0
    3.7446    0.0543   -1.3687 O   0  0  0  0  0  0  0  0  0  0  0  0
    4.2707    1.2754   -1.1805 C   0  0  0  0  0  0  0  0  0  0  0  0
    4.4245    1.7946   -0.1022 O   0  0  0  0  0  0  0  0  0  0  0  0
    4.6315    1.9192   -2.4927 C   0  0  0  0  0  0  0  0  0  0  0  0
    3.7118    2.4286   -3.3336 C   0  0  0  0  0  0  0  0  0  0  0  0
    2.2401    2.4214   -3.1453 C   0  0  0  0  0  0  0  0  0  0  0  0
    1.4745    1.6137   -4.0184 C   0  0  0  0  0  0  0  0  0  0  0  0
    2.1441    0.7674   -5.0736 C   0  0  0  0  0  0  0  0  0  0  0  0
    0.0896    1.5876   -3.8578 C   0  0  0  0  0  0  0  0  0  0  0  0
   -0.5686    2.3347   -2.8708 C   0  0  0  0  0  0  0  0  0  0  0  0
   -2.0749    2.2465   -2.7669 C   0  0  0  0  0  0  0  0  0  0  0  0
    0.1948    3.1505   -2.0114 C   0  0  0  0  0  0  0  0  0  0  0  0
   -0.4644    3.9876   -0.9384 C   0  0  0  0  0  0  0  0  0  0  0  0
    1.6038    3.2030   -2.1537 C   0  0  0  0  0  0  0  0  0  0  0  0
    2.3891    4.1370   -1.2604 C   0  0  0  0  0  0  0  0  0  0  0  0
    6.0766    2.0033   -2.8654 C   0  0  0  0  0  0  0  0  0  0  0  0
    6.5064    2.5833   -3.8356 O   0  0  0  0  0  0  0  0  0  0  0  0
    6.8439    1.3274   -1.9905 O   0  0  0  0  0  0  0  0  0  0  0  0
    8.2658    1.3186   -2.2139 C   0  0  0  0  0  0  0  0  0  0  0  0
    8.6790    0.2053   -3.1622 C   0  0  0  0  0  0  0  0  0  0  0  0
    4.1537   -2.0818    1.2357 H   0  0  0  0  0  0  0  0  0  0  0  0
    5.2883   -0.7921    0.7552 H   0  0  0  0  0  0  0  0  0  0  0  0
    4.9436   -2.1442   -0.3641 H   0  0  0  0  0  0  0  0  0  0  0  0
    2.9274    0.0151    0.5406 H   0  0  0  0  0  0  0  0  0  0  0  0
    2.5442   -1.3523   -0.5517 H   0  0  0  0  0  0  0  0  0  0  0  0
    4.1108    2.8531   -4.2645 H   0  0  0  0  0  0  0  0  0  0  0  0
    2.7517    1.3762   -5.7647 H   0  0  0  0  0  0  0  0  0  0  0  0
    1.4032    0.2191   -5.6736 H   0  0  0  0  0  0  0  0  0  0  0  0
    2.8275    0.0325   -4.6173 H   0  0  0  0  0  0  0  0  0  0  0  0
   -0.5044    0.9550   -4.5243 H   0  0  0  0  0  0  0  0  0  0  0  0
   -2.4803    1.5691   -3.5325 H   0  0  0  0  0  0  0  0  0  0  0  0
   -2.5571    3.2286   -2.9051 H   0  0  0  0  0  0  0  0  0  0  0  0
   -2.4001    1.8664   -1.7838 H   0  0  0  0  0  0  0  0  0  0  0  0
   -1.5388    3.7867   -0.8493 H   0  0  0  0  0  0  0  0  0  0  0  0
   -0.3485    5.0671   -1.1394 H   0  0  0  0  0  0  0  0  0  0  0  0
   -0.0111    3.8086    0.0502 H   0  0  0  0  0  0  0  0  0  0  0  0
    1.9724    5.1567   -1.2960 H   0  0  0  0  0  0  0  0  0  0  0  0
    3.4467    4.1953   -1.5407 H   0  0  0  0  0  0  0  0  0  0  0  0
    2.3560    3.8145   -0.2069 H   0  0  0  0  0  0  0  0  0  0  0  0
    8.7024    1.1772   -1.2148 H   0  0  0  0  0  0  0  0  0  0  0  0
    8.5693    2.3012   -2.6041 H   0  0  0  0  0  0  0  0  0  0  0  0
    8.3366   -0.7740   -2.7931 H   0  0  0  0  0  0  0  0  0  0  0  0
    9.7772    0.1762   -3.2481 H   0  0  0  0  0  0  0  0  0  0  0  0
    8.2618    0.3724   -4.1661 H   0  0  0  0  0  0  0  0  0  0  0  0
  1  2  1  0
  1 23  1  0
  1 24  1  0
  1 25  1  0
  2  3  1  0
  2 26  1  0
  2 27  1  0
  3  4  1  0
  4  5  2  0
  4  6  1  0
  6  7  2  0
  6 18  1  0
  7  8  1  0
  7 28  1  0
  8  9  2  0
  8 16  1  0
  9 10  1  0
  9 11  1  0
 10 29  1  0
 10 30  1  0
 10 31  1  0
 11 12  2  0
 11 32  1  0
 12 13  1  0
 12 14  1  0
 13 33  1  0
 13 34  1  0
 13 35  1  0
 14 15  1  0
 14 16  2  0
 15 36  1  0
 15 37  1  0
 15 38  1  0
 16 17  1  0
 17 39  1  0
 17 40  1  0
 17 41  1  0
 18 19  2  0
 18 20  1  0
 20 21  1  0
 21 22  1  0
 21 42  1  0
 21 43  1  0
 22 44  1  0
 22 45  1  0
 22 46  1  0
M  END

