
     RDKit          3D

 38 37  0  0  0  0  0  0  0  0999 V2000
    1.5274   -0.6707    2.4971 C   0  0  0  0  0  0  0  0  0  0  0  0
    2.9941   -1.0777    2.3480 C   0  0  0  0  0  0  0  0  0  0  0  0
    3.4180   -1.2973    0.8908 C   0  0  0  0  0  0  0  0  0  0  0  0
    4.8889   -1.6903    0.6988 C   0  0  0  0  0  0  0  0  0  0  0  0
    5.3487   -3.0624    1.1768 C   0  0  0  0  0  0  0  0  0  0  0  0
    4.4797   -4.0829    1.3586 C   0  0  0  0  0  0  0  0  0  0  0  0
    4.7216   -5.4500    1.8731 C   0  0  0  0  0  0  0  0  0  0  0  0
    5.6457   -5.6738    3.0597 C   0  0  0  0  0  0  0  0  0  0  0  0
    4.0478   -6.5160    1.3633 C   0  0  0  0  0  0  0  0  0  0  0  0
    4.1893   -7.7809    1.8594 O   0  0  0  0  0  0  0  0  0  0  0  0
    3.0699   -6.5092    0.2208 C   0  0  0  0  0  0  0  0  0  0  0  0
    1.6413   -6.8847    0.6426 C   0  0  0  0  0  0  0  0  0  0  0  0
    6.8506   -3.1879    1.3493 C   0  0  0  0  0  0  0  0  0  0  0  0
    7.6534   -2.8890    0.0713 C   0  0  0  0  0  0  0  0  0  0  0  0
    1.2571   -0.5078    3.5529 H   0  0  0  0  0  0  0  0  0  0  0  0
    0.8530   -1.4476    2.0988 H   0  0  0  0  0  0  0  0  0  0  0  0
    1.3101    0.2629    1.9507 H   0  0  0  0  0  0  0  0  0  0  0  0
    3.1847   -1.9947    2.9305 H   0  0  0  0  0  0  0  0  0  0  0  0
    3.6400   -0.2987    2.7931 H   0  0  0  0  0  0  0  0  0  0  0  0
    3.2403   -0.3634    0.3275 H   0  0  0  0  0  0  0  0  0  0  0  0
    2.7564   -2.0461    0.4201 H   0  0  0  0  0  0  0  0  0  0  0  0
    5.5193   -0.9286    1.1971 H   0  0  0  0  0  0  0  0  0  0  0  0
    5.1383   -1.5938   -0.3748 H   0  0  0  0  0  0  0  0  0  0  0  0
    3.4335   -3.8729    1.1154 H   0  0  0  0  0  0  0  0  0  0  0  0
    5.8589   -4.7302    3.5794 H   0  0  0  0  0  0  0  0  0  0  0  0
    6.6176   -6.1253    2.7876 H   0  0  0  0  0  0  0  0  0  0  0  0
    5.1804   -6.3365    3.8149 H   0  0  0  0  0  0  0  0  0  0  0  0
    4.7955   -7.7682    2.6117 H   0  0  0  0  0  0  0  0  0  0  0  0
    3.4279   -7.2418   -0.5249 H   0  0  0  0  0  0  0  0  0  0  0  0
    3.0825   -5.5296   -0.2750 H   0  0  0  0  0  0  0  0  0  0  0  0
    1.6259   -7.8690    1.1342 H   0  0  0  0  0  0  0  0  0  0  0  0
    0.9722   -6.9279   -0.2314 H   0  0  0  0  0  0  0  0  0  0  0  0
    1.2284   -6.1480    1.3506 H   0  0  0  0  0  0  0  0  0  0  0  0
    7.1144   -4.1965    1.6903 H   0  0  0  0  0  0  0  0  0  0  0  0
    7.1848   -2.4921    2.1436 H   0  0  0  0  0  0  0  0  0  0  0  0
    7.3475   -3.5554   -0.7517 H   0  0  0  0  0  0  0  0  0  0  0  0
    8.7304   -3.0430    0.2465 H   0  0  0  0  0  0  0  0  0  0  0  0
    7.5232   -1.8511   -0.2722 H   0  0  0  0  0  0  0  0  0  0  0  0
  1  2  1  0
  1 15  1  0
  1 16  1  0
  1 17  1  0
  2  3  1  0
  2 18  1  0
  2 19  1  0
  3  4  1  0
  3 20  1  0
  3 21  1  0
  4  5  1  0
  4 22  1  0
  4 23  1  0
  5  6  2  0
  5 13  1  0
  6  7  1  0
  6 24  1  0
  7  8  1  0
  7  9  2  0
  8 25  1  0
  8 26  1  0
  8 27  1  0
  9 10  1  0
  9 11  1  0
 10 28  1  0
 11 12  1  0
 11 29  1  0
 11 30  1  0
 12 31  1  0
 12 32  1  0
 12 33  1  0
 13 14  1  0
 13 34  1  0
 13 35  1  0
 14 36  1  0
 14 37  1  0
 14 38  1  0
M  END

