
     RDKit          3D

 80 83  0  0  0  0  0  0  0  0999 V2000
   -1.8400    1.2645    0.3347 C   0  0  0  0  0  0  0  0  0  0  0  0
   -2.1505    2.5194    1.1512 C   0  0  0  0  0  0  0  0  0  0  0  0
   -1.2174    2.7303    2.3598 C   0  0  0  0  0  0  0  0  0  0  0  0
    0.2143    2.9891    2.0084 C   0  0  0  0  0  0  0  0  0  0  0  0
    1.1861    2.2285    2.3574 N   0  0  0  0  0  0  0  0  0  0  0  0
    2.3999    2.7863    2.0086 N   0  0  0  0  0  0  0  0  0  0  0  0
    3.4429    1.8272    1.7057 C   0  0  0  0  0  0  0  0  0  0  0  0
    2.1631    3.8711    1.0338 C   0  0  2  0  0  0  0  0  0  0  0  0
    3.1885    4.9699    1.2348 C   0  0  0  0  0  0  0  0  0  0  0  0
    4.3156    4.8765    0.7850 O   0  0  0  0  0  0  0  0  0  0  0  0
    2.7988    6.0592    2.0105 N   0  0  0  0  0  0  0  0  0  0  0  0
    3.8578    7.0362    2.2970 C   0  0  0  0  0  0  0  0  0  0  0  0
    4.7715    6.5910    3.4490 C   0  0  0  0  0  0  0  0  0  0  0  0
    5.8881    7.4510    3.5737 O   0  0  0  0  0  0  0  0  0  0  0  0
    5.8164    8.6231    4.2635 C   0  0  0  0  0  0  0  0  0  0  0  0
    4.7115    9.0570    5.0108 C   0  0  0  0  0  0  0  0  0  0  0  0
    4.7653   10.2780    5.6919 C   0  0  0  0  0  0  0  0  0  0  0  0
    5.9019   11.0947    5.6487 C   0  0  0  0  0  0  0  0  0  0  0  0
    5.9628   12.4016    6.4059 C   0  0  0  0  0  0  0  0  0  0  0  0
    6.3572   12.2445    7.8881 C   0  0  2  0  0  0  0  0  0  0  0  0
    7.3043   11.6826    7.9501 H   0  0  0  0  0  0  0  0  0  0  0  0
    5.3123   11.5528    8.5367 O   0  0  0  0  0  0  0  0  0  0  0  0
    5.4866   11.0724    9.8015 C   0  0  0  0  0  0  0  0  0  0  0  0
    4.3847   10.4007   10.3572 C   0  0  0  0  0  0  0  0  0  0  0  0
    4.4661    9.8659   11.6404 C   0  0  0  0  0  0  0  0  0  0  0  0
    5.6433    9.9904   12.3903 C   0  0  0  0  0  0  0  0  0  0  0  0
    6.7344   10.6594   11.8356 C   0  0  0  0  0  0  0  0  0  0  0  0
    6.6687   11.2033   10.5460 C   0  0  0  0  0  0  0  0  0  0  0  0
    6.6359   13.6284    8.4903 C   0  0  0  0  0  0  0  0  0  0  0  0
    7.7334   14.1321    8.4913 O   0  0  0  0  0  0  0  0  0  0  0  0
    5.5219   14.2135    8.9413 O   0  0  0  0  0  0  0  0  0  0  0  0
    5.6385   15.5361    9.5069 C   0  0  0  0  0  0  0  0  0  0  0  0
    5.9762   15.4820   10.9867 C   0  0  0  0  0  0  0  0  0  0  0  0
    6.9997   10.6441    4.8945 C   0  0  0  0  0  0  0  0  0  0  0  0
    6.9638    9.4321    4.2117 C   0  0  0  0  0  0  0  0  0  0  0  0
    1.4694    6.1861    2.5021 C   0  0  0  0  0  0  0  0  0  0  0  0
    1.1553    7.3632    3.4053 C   0  0  0  0  0  0  0  0  0  0  0  0
    0.7605    8.6599    2.6629 C   0  0  0  0  0  0  0  0  0  0  0  0
   -0.5699    8.5747    1.9139 C   0  0  0  0  0  0  0  0  0  0  0  0
    0.5109    5.4019    2.1975 N   0  0  0  0  0  0  0  0  0  0  0  0
    0.7065    4.2693    1.3187 C   0  0  2  0  0  0  0  0  0  0  0  0
   -2.5335    1.1575   -0.5147 H   0  0  0  0  0  0  0  0  0  0  0  0
   -1.9254    0.3559    0.9536 H   0  0  0  0  0  0  0  0  0  0  0  0
   -0.8149    1.2858   -0.0695 H   0  0  0  0  0  0  0  0  0  0  0  0
   -3.1877    2.4696    1.5248 H   0  0  0  0  0  0  0  0  0  0  0  0
   -2.1154    3.4101    0.4982 H   0  0  0  0  0  0  0  0  0  0  0  0
   -1.2498    1.8496    3.0208 H   0  0  0  0  0  0  0  0  0  0  0  0
   -1.5798    3.5956    2.9426 H   0  0  0  0  0  0  0  0  0  0  0  0
    3.5386    1.1260    2.5463 H   0  0  0  0  0  0  0  0  0  0  0  0
    4.3932    2.3603    1.5669 H   0  0  0  0  0  0  0  0  0  0  0  0
    3.2302    1.2472    0.7828 H   0  0  0  0  0  0  0  0  0  0  0  0
    2.2868    3.4930   -0.0000 H   0  0  0  0  0  0  0  0  0  0  0  0
    3.4157    8.0165    2.5005 H   0  0  0  0  0  0  0  0  0  0  0  0
    4.4802    7.1261    1.3972 H   0  0  0  0  0  0  0  0  0  0  0  0
    5.1870    5.6028    3.2097 H   0  0  0  0  0  0  0  0  0  0  0  0
    4.2156    6.5034    4.3985 H   0  0  0  0  0  0  0  0  0  0  0  0
    3.8058    8.4545    5.0798 H   0  0  0  0  0  0  0  0  0  0  0  0
    3.8986   10.5975    6.2749 H   0  0  0  0  0  0  0  0  0  0  0  0
    4.9893   12.9168    6.3799 H   0  0  0  0  0  0  0  0  0  0  0  0
    6.7026   13.0708    5.9399 H   0  0  0  0  0  0  0  0  0  0  0  0
    3.4752   10.3127    9.7596 H   0  0  0  0  0  0  0  0  0  0  0  0
    3.6016    9.3450   12.0604 H   0  0  0  0  0  0  0  0  0  0  0  0
    5.7054    9.5699   13.3965 H   0  0  0  0  0  0  0  0  0  0  0  0
    7.6598   10.7663   12.4076 H   0  0  0  0  0  0  0  0  0  0  0  0
    7.5385   11.7230   10.1431 H   0  0  0  0  0  0  0  0  0  0  0  0
    4.6546   15.9964    9.3373 H   0  0  0  0  0  0  0  0  0  0  0  0
    6.4014   16.0955    8.9457 H   0  0  0  0  0  0  0  0  0  0  0  0
    5.2371   14.8808   11.5379 H   0  0  0  0  0  0  0  0  0  0  0  0
    5.9766   16.5012   11.4055 H   0  0  0  0  0  0  0  0  0  0  0  0
    6.9739   15.0471   11.1460 H   0  0  0  0  0  0  0  0  0  0  0  0
    7.9029   11.2590    4.8357 H   0  0  0  0  0  0  0  0  0  0  0  0
    7.8159    9.0850    3.6238 H   0  0  0  0  0  0  0  0  0  0  0  0
    1.9947    7.5662    4.0862 H   0  0  0  0  0  0  0  0  0  0  0  0
    0.3095    7.0397    4.0283 H   0  0  0  0  0  0  0  0  0  0  0  0
    1.5605    8.9542    1.9611 H   0  0  0  0  0  0  0  0  0  0  0  0
    0.7095    9.4692    3.4113 H   0  0  0  0  0  0  0  0  0  0  0  0
   -0.5608    7.7785    1.1544 H   0  0  0  0  0  0  0  0  0  0  0  0
   -0.7950    9.5271    1.4082 H   0  0  0  0  0  0  0  0  0  0  0  0
   -1.4008    8.3542    2.6038 H   0  0  0  0  0  0  0  0  0  0  0  0
    0.1407    4.4671    0.3920 H   0  0  0  0  0  0  0  0  0  0  0  0
  1  2  1  0
  1 42  1  0
  1 43  1  0
  1 44  1  0
  2  3  1  0
  2 45  1  0
  2 46  1  0
  3  4  1  0
  3 47  1  0
  3 48  1  0
  4  5  2  0
  4 41  1  0
  5  6  1  0
  6  7  1  0
  6  8  1  0
  7 49  1  0
  7 50  1  0
  7 51  1  0
  8  9  1  0
  8 41  1  0
  8 52  1  6
  9 10  2  0
  9 11  1  0
 11 12  1  0
 11 36  1  0
 12 13  1  0
 12 53  1  0
 12 54  1  0
 13 14  1  0
 13 55  1  0
 13 56  1  0
 14 15  1  0
 15 16  2  0
 15 35  1  0
 16 17  1  0
 16 57  1  0
 17 18  2  0
 17 58  1  0
 18 19  1  0
 18 34  1  0
 19 20  1  0
 19 59  1  0
 19 60  1  0
 20 21  1  6
 20 22  1  0
 20 29  1  0
 22 23  1  0
 23 24  2  0
 23 28  1  0
 24 25  1  0
 24 61  1  0
 25 26  2  0
 25 62  1  0
 26 27  1  0
 26 63  1  0
 27 28  2  0
 27 64  1  0
 28 65  1  0
 29 30  2  0
 29 31  1  0
 31 32  1  0
 32 33  1  0
 32 66  1  0
 32 67  1  0
 33 68  1  0
 33 69  1  0
 33 70  1  0
 34 35  2  0
 34 71  1  0
 35 72  1  0
 36 37  1  0
 36 40  2  0
 37 38  1  0
 37 73  1  0
 37 74  1  0
 38 39  1  0
 38 75  1  0
 38 76  1  0
 39 77  1  0
 39 78  1  0
 39 79  1  0
 40 41  1  0
 41 80  1  6
M  END

