
     RDKit          3D

 58 62  0  0  0  0  0  0  0  0999 V2000
    4.7477    1.1488   -1.4147 C   0  0  0  0  0  0  0  0  0  0  0  0
    4.1158   -0.2299   -1.3294 C   0  0  0  0  0  0  0  0  0  0  0  0
    2.9845   -0.3906   -0.9111 O   0  0  0  0  0  0  0  0  0  0  0  0
    4.8831   -1.3145   -1.7536 N   0  0  0  0  0  0  0  0  0  0  0  0
    6.2241   -1.2190   -2.1325 C   0  0  0  0  0  0  0  0  0  0  0  0
    6.8349   -2.1935   -2.8408 C   0  0  0  0  0  0  0  0  0  0  0  0
    6.0694   -3.3271   -3.3444 C   0  0  0  0  0  0  0  0  0  0  0  0
    6.5657   -4.1836   -4.3431 C   0  0  0  0  0  0  0  0  0  0  0  0
    5.7656   -5.1973   -4.8714 C   0  0  0  0  0  0  0  0  0  0  0  0
    4.4549   -5.3608   -4.4123 C   0  0  0  0  0  0  0  0  0  0  0  0
    3.9523   -4.5212   -3.4115 C   0  0  0  0  0  0  0  0  0  0  0  0
    4.7518   -3.5139   -2.8620 C   0  0  0  0  0  0  0  0  0  0  0  0
    4.2666   -2.6573   -1.7015 C   0  0  1  0  0  0  0  0  0  0  0  0
    4.5599   -3.3045   -0.3259 C   0  0  0  0  0  0  0  0  0  0  0  0
    3.6416   -4.4900   -0.0359 C   0  0  0  0  0  0  0  0  0  0  0  0
    2.5675   -4.6008   -0.6121 O   0  0  0  0  0  0  0  0  0  0  0  0
    4.0403   -5.4034    0.9140 N   0  0  0  0  0  0  0  0  0  0  0  0
    3.1557   -6.5175    1.2396 C   0  0  0  0  0  0  0  0  0  0  0  0
    3.8983   -7.8527    1.1145 C   0  0  0  0  0  0  0  0  0  0  0  0
    5.1419   -7.8568    1.9024 N   0  0  0  0  0  0  0  0  0  0  0  0
    5.1197   -8.2559    3.2184 C   0  0  0  0  0  0  0  0  0  0  0  0
    5.6317   -7.5816    4.2380 N   0  0  0  0  0  0  0  0  0  0  0  0
    5.4392   -8.3403    5.3368 N   0  0  0  0  0  0  0  0  0  0  0  0
    4.8330   -9.4285    5.0590 N   0  0  0  0  0  0  0  0  0  0  0  0
    4.6195   -9.4319    3.7054 N   0  0  0  0  0  0  0  0  0  0  0  0
    4.0658  -10.5825    3.0753 C   0  0  0  0  0  0  0  0  0  0  0  0
    3.0229  -11.2685    3.7111 C   0  0  0  0  0  0  0  0  0  0  0  0
    2.4985  -12.4188    3.1191 C   0  0  0  0  0  0  0  0  0  0  0  0
    3.0022  -12.8806    1.8988 C   0  0  0  0  0  0  0  0  0  0  0  0
    4.0456  -12.1913    1.2734 C   0  0  0  0  0  0  0  0  0  0  0  0
    4.5877  -11.0458    1.8600 C   0  0  0  0  0  0  0  0  0  0  0  0
    6.0050   -6.7132    1.5855 C   0  0  0  0  0  0  0  0  0  0  0  0
    5.2619   -5.3767    1.7135 C   0  0  0  0  0  0  0  0  0  0  0  0
    3.9755    1.8805   -1.1491 H   0  0  0  0  0  0  0  0  0  0  0  0
    5.1303    1.3663   -2.4235 H   0  0  0  0  0  0  0  0  0  0  0  0
    5.5863    1.2514   -0.7069 H   0  0  0  0  0  0  0  0  0  0  0  0
    6.7540   -0.3152   -1.8333 H   0  0  0  0  0  0  0  0  0  0  0  0
    7.8882   -2.0866   -3.1058 H   0  0  0  0  0  0  0  0  0  0  0  0
    7.5830   -4.0355   -4.7164 H   0  0  0  0  0  0  0  0  0  0  0  0
    6.1613   -5.8548   -5.6499 H   0  0  0  0  0  0  0  0  0  0  0  0
    3.8207   -6.1468   -4.8300 H   0  0  0  0  0  0  0  0  0  0  0  0
    2.9395   -4.6601   -3.0296 H   0  0  0  0  0  0  0  0  0  0  0  0
    3.1827   -2.5096   -1.7621 H   0  0  0  0  0  0  0  0  0  0  0  0
    4.3660   -2.5494    0.4548 H   0  0  0  0  0  0  0  0  0  0  0  0
    5.6238   -3.5748   -0.2641 H   0  0  0  0  0  0  0  0  0  0  0  0
    2.2991   -6.4790    0.5550 H   0  0  0  0  0  0  0  0  0  0  0  0
    2.7776   -6.4000    2.2730 H   0  0  0  0  0  0  0  0  0  0  0  0
    4.1635   -8.0312    0.0590 H   0  0  0  0  0  0  0  0  0  0  0  0
    3.2463   -8.6756    1.4335 H   0  0  0  0  0  0  0  0  0  0  0  0
    2.6459  -10.9008    4.6660 H   0  0  0  0  0  0  0  0  0  0  0  0
    1.6874  -12.9562    3.6163 H   0  0  0  0  0  0  0  0  0  0  0  0
    2.5844  -13.7784    1.4374 H   0  0  0  0  0  0  0  0  0  0  0  0
    4.4516  -12.5527    0.3255 H   0  0  0  0  0  0  0  0  0  0  0  0
    5.4123  -10.5124    1.3851 H   0  0  0  0  0  0  0  0  0  0  0  0
    6.3538   -6.8372    0.5456 H   0  0  0  0  0  0  0  0  0  0  0  0
    6.8738   -6.7272    2.2552 H   0  0  0  0  0  0  0  0  0  0  0  0
    5.9180   -4.5591    1.3962 H   0  0  0  0  0  0  0  0  0  0  0  0
    5.0111   -5.2081    2.7765 H   0  0  0  0  0  0  0  0  0  0  0  0
  1  2  1  0
  1 34  1  0
  1 35  1  0
  1 36  1  0
  2  3  2  0
  2  4  1  0
  4  5  1  0
  4 13  1  0
  5  6  2  0
  5 37  1  0
  6  7  1  0
  6 38  1  0
  7  8  1  0
  7 12  2  0
  8  9  2  0
  8 39  1  0
  9 10  1  0
  9 40  1  0
 10 11  2  0
 10 41  1  0
 11 12  1  0
 11 42  1  0
 12 13  1  0
 13 14  1  0
 13 43  1  6
 14 15  1  0
 14 44  1  0
 14 45  1  0
 15 16  2  0
 15 17  1  0
 17 18  1  0
 17 33  1  0
 18 19  1  0
 18 46  1  0
 18 47  1  0
 19 20  1  0
 19 48  1  0
 19 49  1  0
 20 21  1  0
 20 32  1  0
 21 22  2  0
 21 25  1  0
 22 23  1  0
 23 24  2  0
 24 25  1  0
 25 26  1  0
 26 27  2  0
 26 31  1  0
 27 28  1  0
 27 50  1  0
 28 29  2  0
 28 51  1  0
 29 30  1  0
 29 52  1  0
 30 31  2  0
 30 53  1  0
 31 54  1  0
 32 33  1  0
 32 55  1  0
 32 56  1  0
 33 57  1  0
 33 58  1  0
M  END

