
     RDKit          3D

 38 41  0  0  0  0  0  0  0  0999 V2000
    2.6388    0.3804    2.6865 N   0  0  0  0  0  0  0  0  0  0  0  0
    3.5847    0.3557    2.0129 C   0  0  0  0  0  0  0  0  0  0  0  0
    4.7531    0.3282    1.1792 C   0  0  0  0  0  0  0  0  0  0  0  0
    5.6302   -0.7719    1.2163 C   0  0  0  0  0  0  0  0  0  0  0  0
    6.7642   -0.7925    0.4098 C   0  0  0  0  0  0  0  0  0  0  0  0
    7.0531    0.2811   -0.4603 C   0  0  0  0  0  0  0  0  0  0  0  0
    8.2442    0.2339   -1.3168 C   0  0  0  0  0  0  0  0  0  0  0  0
    8.4366    0.8634   -2.5038 C   0  0  0  0  0  0  0  0  0  0  0  0
    9.7228    0.6156   -3.1749 C   0  0  0  0  0  0  0  0  0  0  0  0
   10.1364    1.1306   -4.4080 C   0  0  0  0  0  0  0  0  0  0  0  0
   11.3877    0.7607   -4.9194 C   0  0  0  0  0  0  0  0  0  0  0  0
   12.2192   -0.1137   -4.2126 C   0  0  0  0  0  0  0  0  0  0  0  0
   11.8121   -0.6294   -2.9713 C   0  0  0  0  0  0  0  0  0  0  0  0
   10.5734   -0.2591   -2.4618 C   0  0  0  0  0  0  0  0  0  0  0  0
    9.7518   -0.7597   -0.9070 P   0  0  2  0  0  0  0  0  0  0  0  0
    9.5669   -2.2256   -0.6146 O   0  0  0  0  0  0  0  0  0  0  0  0
   10.6026    0.1023    0.4652 C   0  0  0  0  0  0  0  0  0  0  0  0
   10.8835    1.4781    0.4542 C   0  0  0  0  0  0  0  0  0  0  0  0
   11.5391    2.0640    1.5383 C   0  0  0  0  0  0  0  0  0  0  0  0
   11.9171    1.2809    2.6359 C   0  0  0  0  0  0  0  0  0  0  0  0
   11.6394   -0.0886    2.6485 C   0  0  0  0  0  0  0  0  0  0  0  0
   10.9820   -0.6803    1.5652 C   0  0  0  0  0  0  0  0  0  0  0  0
    6.1697    1.3814   -0.4838 C   0  0  0  0  0  0  0  0  0  0  0  0
    5.0354    1.4080    0.3189 C   0  0  0  0  0  0  0  0  0  0  0  0
    5.4145   -1.6117    1.8795 H   0  0  0  0  0  0  0  0  0  0  0  0
    7.4331   -1.6561    0.4282 H   0  0  0  0  0  0  0  0  0  0  0  0
    7.6806    1.4935   -2.9826 H   0  0  0  0  0  0  0  0  0  0  0  0
    9.4890    1.8106   -4.9681 H   0  0  0  0  0  0  0  0  0  0  0  0
   11.7143    1.1568   -5.8843 H   0  0  0  0  0  0  0  0  0  0  0  0
   13.1881   -0.3998   -4.6289 H   0  0  0  0  0  0  0  0  0  0  0  0
   12.4592   -1.3163   -2.4195 H   0  0  0  0  0  0  0  0  0  0  0  0
   10.5917    2.0943   -0.4006 H   0  0  0  0  0  0  0  0  0  0  0  0
   11.7567    3.1350    1.5292 H   0  0  0  0  0  0  0  0  0  0  0  0
   12.4298    1.7426    3.4837 H   0  0  0  0  0  0  0  0  0  0  0  0
   11.9344   -0.7001    3.5050 H   0  0  0  0  0  0  0  0  0  0  0  0
   10.7553   -1.7491    1.5545 H   0  0  0  0  0  0  0  0  0  0  0  0
    6.3866    2.2371   -1.1267 H   0  0  0  0  0  0  0  0  0  0  0  0
    4.3631    2.2678    0.2947 H   0  0  0  0  0  0  0  0  0  0  0  0
  1  2  3  0
  2  3  1  0
  3  4  2  0
  3 24  1  0
  4  5  1  0
  4 25  1  0
  5  6  2  0
  5 26  1  0
  6  7  1  0
  6 23  1  0
  7  8  2  0
  7 15  1  0
  8  9  1  0
  8 27  1  0
  9 10  1  0
  9 14  2  0
 10 11  2  0
 10 28  1  0
 11 12  1  0
 11 29  1  0
 12 13  2  0
 12 30  1  0
 13 14  1  0
 13 31  1  0
 14 15  1  0
 15 16  2  0
 15 17  1  1
 17 18  2  0
 17 22  1  0
 18 19  1  0
 18 32  1  0
 19 20  2  0
 19 33  1  0
 20 21  1  0
 20 34  1  0
 21 22  2  0
 21 35  1  0
 22 36  1  0
 23 24  2  0
 23 37  1  0
 24 38  1  0
M  END

