
     RDKit          3D

 71 72  0  0  0  0  0  0  0  0999 V2000
    1.7660    3.3653   -5.5026 C   0  0  0  0  0  0  0  0  0  0  0  0
    2.8626    4.3468   -5.0866 C   0  0  0  0  0  0  0  0  0  0  0  0
    3.9697    4.5010   -6.1328 C   0  0  0  0  0  0  0  0  0  0  0  0
    5.0887    5.4727   -5.7382 C   0  0  0  0  0  0  0  0  0  0  0  0
    5.8442    5.0640   -4.5594 N   0  0  0  0  0  0  0  0  0  0  0  0
    6.9471    4.2774   -4.6536 C   0  0  0  0  0  0  0  0  0  0  0  0
    7.3395    3.8190   -5.7169 O   0  0  0  0  0  0  0  0  0  0  0  0
    7.6301    3.8543   -3.3264 C   0  0  2  0  0  0  0  0  0  0  0  0
    7.2718    2.8197   -3.1986 H   0  0  0  0  0  0  0  0  0  0  0  0
    7.2234    4.5740   -2.0211 C   0  0  0  0  0  0  0  0  0  0  0  0
    7.6155    6.0397   -1.8138 C   0  0  0  0  0  0  0  0  0  0  0  0
    9.0818    3.7243   -3.5419 N   0  0  0  0  0  0  0  0  0  0  0  0
    9.6270    2.3697   -3.4562 C   0  0  0  0  0  0  0  0  0  0  0  0
    9.6684    1.7954   -2.0504 C   0  0  0  0  0  0  0  0  0  0  0  0
   10.1850    2.5365   -0.9758 C   0  0  0  0  0  0  0  0  0  0  0  0
   10.2718    1.9893    0.3049 C   0  0  0  0  0  0  0  0  0  0  0  0
    9.8357    0.6776    0.5212 C   0  0  0  0  0  0  0  0  0  0  0  0
    9.9382   -0.0149    2.1230 Cl  0  0  0  0  0  0  0  0  0  0  0  0
    9.3162   -0.0805   -0.5303 C   0  0  0  0  0  0  0  0  0  0  0  0
    9.2351    0.4852   -1.8057 C   0  0  0  0  0  0  0  0  0  0  0  0
    9.7333    4.7859   -4.1157 C   0  0  0  0  0  0  0  0  0  0  0  0
    9.1438    5.8370   -4.3428 O   0  0  0  0  0  0  0  0  0  0  0  0
   11.2258    4.6793   -4.4707 C   0  0  0  0  0  0  0  0  0  0  0  0
   11.4589    4.2194   -5.8456 N   0  0  0  0  0  0  0  0  0  0  0  0
   12.0345    2.9170   -6.0806 C   0  0  0  0  0  0  0  0  0  0  0  0
   13.3339    2.6252   -5.6015 C   0  0  0  0  0  0  0  0  0  0  0  0
   14.2002    3.6716   -4.9393 C   0  0  0  0  0  0  0  0  0  0  0  0
   13.8308    1.3246   -5.7726 C   0  0  0  0  0  0  0  0  0  0  0  0
   13.0789    0.3479   -6.4234 C   0  0  0  0  0  0  0  0  0  0  0  0
   11.8205    0.6655   -6.9344 C   0  0  0  0  0  0  0  0  0  0  0  0
   11.2784    1.9494   -6.7816 C   0  0  0  0  0  0  0  0  0  0  0  0
    9.9472    2.2878   -7.4001 C   0  0  0  0  0  0  0  0  0  0  0  0
   11.7359    5.4350   -7.0268 S   0  0  1  0  0  0  0  0  0  0  0  0
   10.1061    6.0985   -7.3708 C   0  0  0  0  0  0  0  0  0  0  0  0
   12.5169    6.5201   -6.4143 O   0  0  0  0  0  0  0  0  0  0  0  0
   12.2330    4.7408   -8.2146 O   0  0  0  0  0  0  0  0  0  0  0  0
    0.9871    3.2758   -4.7287 H   0  0  0  0  0  0  0  0  0  0  0  0
    2.1780    2.3578   -5.6795 H   0  0  0  0  0  0  0  0  0  0  0  0
    1.2731    3.6867   -6.4354 H   0  0  0  0  0  0  0  0  0  0  0  0
    3.3092    4.0130   -4.1328 H   0  0  0  0  0  0  0  0  0  0  0  0
    2.4137    5.3369   -4.8822 H   0  0  0  0  0  0  0  0  0  0  0  0
    3.5324    4.8565   -7.0834 H   0  0  0  0  0  0  0  0  0  0  0  0
    4.4232    3.5188   -6.3521 H   0  0  0  0  0  0  0  0  0  0  0  0
    4.6716    6.4738   -5.5389 H   0  0  0  0  0  0  0  0  0  0  0  0
    5.8016    5.5664   -6.5703 H   0  0  0  0  0  0  0  0  0  0  0  0
    5.6055    5.4695   -3.6654 H   0  0  0  0  0  0  0  0  0  0  0  0
    7.6354    3.9756   -1.1927 H   0  0  0  0  0  0  0  0  0  0  0  0
    6.1278    4.4619   -1.9238 H   0  0  0  0  0  0  0  0  0  0  0  0
    8.7062    6.1653   -1.7679 H   0  0  0  0  0  0  0  0  0  0  0  0
    7.1957    6.4021   -0.8613 H   0  0  0  0  0  0  0  0  0  0  0  0
    7.2608    6.6930   -2.6235 H   0  0  0  0  0  0  0  0  0  0  0  0
   10.6388    2.3612   -3.8801 H   0  0  0  0  0  0  0  0  0  0  0  0
    9.0342    1.7071   -4.1081 H   0  0  0  0  0  0  0  0  0  0  0  0
   10.5190    3.5646   -1.1387 H   0  0  0  0  0  0  0  0  0  0  0  0
   10.6750    2.5706    1.1359 H   0  0  0  0  0  0  0  0  0  0  0  0
    8.9755   -1.1011   -0.3483 H   0  0  0  0  0  0  0  0  0  0  0  0
    8.8269   -0.1112   -2.6268 H   0  0  0  0  0  0  0  0  0  0  0  0
   11.7743    4.0334   -3.7745 H   0  0  0  0  0  0  0  0  0  0  0  0
   11.6256    5.6972   -4.3562 H   0  0  0  0  0  0  0  0  0  0  0  0
   14.0228    4.6745   -5.3516 H   0  0  0  0  0  0  0  0  0  0  0  0
   15.2640    3.4282   -5.0757 H   0  0  0  0  0  0  0  0  0  0  0  0
   14.0240    3.7271   -3.8502 H   0  0  0  0  0  0  0  0  0  0  0  0
   14.8327    1.0867   -5.4048 H   0  0  0  0  0  0  0  0  0  0  0  0
   13.4836   -0.6595   -6.5512 H   0  0  0  0  0  0  0  0  0  0  0  0
   11.2433   -0.0922   -7.4711 H   0  0  0  0  0  0  0  0  0  0  0  0
    9.4475    1.3806   -7.7703 H   0  0  0  0  0  0  0  0  0  0  0  0
   10.1002    2.9571   -8.2633 H   0  0  0  0  0  0  0  0  0  0  0  0
    9.2634    2.7988   -6.7056 H   0  0  0  0  0  0  0  0  0  0  0  0
    9.6927    6.5021   -6.4377 H   0  0  0  0  0  0  0  0  0  0  0  0
    9.4697    5.2957   -7.7610 H   0  0  0  0  0  0  0  0  0  0  0  0
   10.2661    6.8857   -8.1203 H   0  0  0  0  0  0  0  0  0  0  0  0
  1  2  1  0
  1 37  1  0
  1 38  1  0
  1 39  1  0
  2  3  1  0
  2 40  1  0
  2 41  1  0
  3  4  1  0
  3 42  1  0
  3 43  1  0
  4  5  1  0
  4 44  1  0
  4 45  1  0
  5  6  1  0
  5 46  1  0
  6  7  2  0
  6  8  1  0
  8  9  1  1
  8 10  1  0
  8 12  1  0
 10 11  1  0
 10 47  1  0
 10 48  1  0
 11 49  1  0
 11 50  1  0
 11 51  1  0
 12 13  1  0
 12 21  1  0
 13 14  1  0
 13 52  1  0
 13 53  1  0
 14 15  2  0
 14 20  1  0
 15 16  1  0
 15 54  1  0
 16 17  2  0
 16 55  1  0
 17 18  1  0
 17 19  1  0
 19 20  2  0
 19 56  1  0
 20 57  1  0
 21 22  2  0
 21 23  1  0
 23 24  1  0
 23 58  1  0
 23 59  1  0
 24 25  1  0
 33 24  1  1
 25 26  2  0
 25 31  1  0
 26 27  1  0
 26 28  1  0
 27 60  1  0
 27 61  1  0
 27 62  1  0
 28 29  2  0
 28 63  1  0
 29 30  1  0
 29 64  1  0
 30 31  2  0
 30 65  1  0
 31 32  1  0
 32 66  1  0
 32 67  1  0
 32 68  1  0
 33 34  1  0
 33 35  2  0
 33 36  2  0
 34 69  1  0
 34 70  1  0
 34 71  1  0
M  END

