
     RDKit          3D

 46 47  0  0  0  0  0  0  0  0999 V2000
    2.5902   -1.9261   -0.7650 C   0  0  0  0  0  0  0  0  0  0  0  0
    2.4735   -1.7538    0.7553 C   0  0  1  0  0  0  0  0  0  0  0  0
    1.1885   -2.4053    1.2829 C   0  0  0  0  0  0  0  0  0  0  0  0
    3.6925   -2.3159    1.5110 C   0  0  0  0  0  0  0  0  0  0  0  0
    5.0395   -1.6708    1.1879 C   0  0  1  0  0  0  0  0  0  0  0  0
    5.2501   -1.7344    0.1060 H   0  0  0  0  0  0  0  0  0  0  0  0
    5.0256   -0.2436    1.5284 N   0  0  0  0  0  0  0  0  0  0  0  0
    5.9088    0.6403    1.0208 C   0  0  0  0  0  0  0  0  0  0  0  0
    6.8457    0.3102    0.2926 O   0  0  0  0  0  0  0  0  0  0  0  0
    5.6711    2.1170    1.3791 C   0  0  0  0  0  0  0  0  0  0  0  0
    5.9669    2.4397    2.7759 N   0  0  0  0  0  0  0  0  0  0  0  0
    5.0356    2.1323    3.7731 C   0  0  0  0  0  0  0  0  0  0  0  0
    3.9885    1.5497    3.5391 O   0  0  0  0  0  0  0  0  0  0  0  0
    5.5075    2.5992    5.0972 C   0  0  0  0  0  0  0  0  0  0  0  0
    4.7444    2.3912    6.2015 C   0  0  0  0  0  0  0  0  0  0  0  0
    4.9553    2.7300    7.5999 C   0  0  0  0  0  0  0  0  0  0  0  0
    3.9491    2.3605    8.5222 C   0  0  0  0  0  0  0  0  0  0  0  0
    4.0751    2.6458    9.8797 C   0  0  0  0  0  0  0  0  0  0  0  0
    5.2127    3.3096   10.3511 C   0  0  0  0  0  0  0  0  0  0  0  0
    6.2200    3.6846    9.4544 C   0  0  0  0  0  0  0  0  0  0  0  0
    6.0964    3.4004    8.0959 C   0  0  0  0  0  0  0  0  0  0  0  0
    7.0839    3.3746    4.9202 S   0  0  0  0  0  0  0  0  0  0  0  0
    7.1185    3.1095    3.1667 C   0  0  0  0  0  0  0  0  0  0  0  0
    8.3463    3.6246    2.2167 S   0  0  0  0  0  0  0  0  0  0  0  0
    6.2086   -2.4114    1.8916 C   0  0  0  0  0  0  0  0  0  0  0  0
    6.0389   -3.3251    2.6561 O   0  0  0  0  0  0  0  0  0  0  0  0
    7.4244   -1.9698    1.5666 O   0  0  0  0  0  0  0  0  0  0  0  0
    1.6954   -1.5350   -1.2752 H   0  0  0  0  0  0  0  0  0  0  0  0
    2.6869   -2.9920   -1.0349 H   0  0  0  0  0  0  0  0  0  0  0  0
    3.4605   -1.3953   -1.1827 H   0  0  0  0  0  0  0  0  0  0  0  0
    2.4045   -0.6701    0.9657 H   0  0  0  0  0  0  0  0  0  0  0  0
    1.1945   -3.4936    1.1005 H   0  0  0  0  0  0  0  0  0  0  0  0
    0.2967   -1.9890    0.7877 H   0  0  0  0  0  0  0  0  0  0  0  0
    1.0741   -2.2516    2.3681 H   0  0  0  0  0  0  0  0  0  0  0  0
    3.7891   -3.3946    1.3096 H   0  0  0  0  0  0  0  0  0  0  0  0
    3.5282   -2.2417    2.5997 H   0  0  0  0  0  0  0  0  0  0  0  0
    4.3346    0.1028    2.1961 H   0  0  0  0  0  0  0  0  0  0  0  0
    4.6208    2.3848    1.1905 H   0  0  0  0  0  0  0  0  0  0  0  0
    6.3419    2.7150    0.7520 H   0  0  0  0  0  0  0  0  0  0  0  0
    3.8059    1.8719    5.9781 H   0  0  0  0  0  0  0  0  0  0  0  0
    3.0598    1.8407    8.1564 H   0  0  0  0  0  0  0  0  0  0  0  0
    3.2850    2.3497   10.5738 H   0  0  0  0  0  0  0  0  0  0  0  0
    5.3156    3.5345   11.4155 H   0  0  0  0  0  0  0  0  0  0  0  0
    7.1106    4.2029    9.8177 H   0  0  0  0  0  0  0  0  0  0  0  0
    6.8983    3.7056    7.4227 H   0  0  0  0  0  0  0  0  0  0  0  0
    7.3683   -1.2047    0.9406 H   0  0  0  0  0  0  0  0  0  0  0  0
  1  2  1  0
  1 28  1  0
  1 29  1  0
  1 30  1  0
  2  3  1  0
  2  4  1  0
  2 31  1  6
  3 32  1  0
  3 33  1  0
  3 34  1  0
  4  5  1  0
  4 35  1  0
  4 36  1  0
  5  6  1  6
  5  7  1  0
  5 25  1  0
  7  8  1  0
  7 37  1  0
  8  9  2  0
  8 10  1  0
 10 11  1  0
 10 38  1  0
 10 39  1  0
 11 12  1  0
 11 23  1  0
 12 13  2  0
 12 14  1  0
 14 15  2  0
 14 22  1  0
 15 16  1  0
 15 40  1  0
 16 17  2  0
 16 21  1  0
 17 18  1  0
 17 41  1  0
 18 19  2  0
 18 42  1  0
 19 20  1  0
 19 43  1  0
 20 21  2  0
 20 44  1  0
 21 45  1  0
 22 23  1  0
 23 24  2  0
 25 26  2  0
 25 27  1  0
 27 46  1  0
M  END

