
     RDKit          3D

 32 32  0  0  0  0  0  0  0  0999 V2000
    2.9228    0.0761   -1.3517 C   0  0  0  0  0  0  0  0  0  0  0  0
    2.4089    0.1832    0.0950 C   0  0  1  0  0  0  0  0  0  0  0  0
    0.8707    0.1692    0.1473 C   0  0  0  0  0  0  0  0  0  0  0  0
    3.0131   -0.8872    0.9916 C   0  0  0  0  0  0  0  0  0  0  0  0
    3.8161   -0.5337    2.0906 C   0  0  0  0  0  0  0  0  0  0  0  0
    4.3727   -1.5036    2.9177 C   0  0  0  0  0  0  0  0  0  0  0  0
    4.1415   -2.8699    2.6732 C   0  0  0  0  0  0  0  0  0  0  0  0
    4.7768   -3.8402    3.5977 C   0  0  0  0  0  0  0  0  0  0  0  0
    5.4869   -3.5169    4.5267 O   0  0  0  0  0  0  0  0  0  0  0  0
    4.5181   -5.3537    3.3762 C   0  0  1  0  0  0  0  0  0  0  0  0
    3.1809   -5.5887    3.4160 F   0  0  0  0  0  0  0  0  0  0  0  0
    4.9632   -5.7364    2.1549 F   0  0  0  0  0  0  0  0  0  0  0  0
    5.1504   -6.2996    4.4425 C   0  0  1  0  0  0  0  0  0  0  0  0
    4.5728   -6.0619    5.6310 F   0  0  0  0  0  0  0  0  0  0  0  0
    4.8327   -7.5541    4.0598 F   0  0  0  0  0  0  0  0  0  0  0  0
    6.7137   -6.2343    4.6112 C   0  0  1  0  0  0  0  0  0  0  0  0
    7.2819   -5.6625    3.5431 F   0  0  0  0  0  0  0  0  0  0  0  0
    7.0516   -5.5559    5.6973 F   0  0  0  0  0  0  0  0  0  0  0  0
    7.1981   -7.4722    4.7241 F   0  0  0  0  0  0  0  0  0  0  0  0
    3.3385   -3.2351    1.5749 C   0  0  0  0  0  0  0  0  0  0  0  0
    2.7882   -2.2548    0.7529 C   0  0  0  0  0  0  0  0  0  0  0  0
    2.5268    0.9028   -1.9633 H   0  0  0  0  0  0  0  0  0  0  0  0
    2.6056   -0.8677   -1.8245 H   0  0  0  0  0  0  0  0  0  0  0  0
    4.0223    0.1188   -1.3923 H   0  0  0  0  0  0  0  0  0  0  0  0
    2.7438    1.1564    0.4929 H   0  0  0  0  0  0  0  0  0  0  0  0
    0.4619   -0.7721   -0.2551 H   0  0  0  0  0  0  0  0  0  0  0  0
    0.4568    0.9948   -0.4539 H   0  0  0  0  0  0  0  0  0  0  0  0
    0.5023    0.2810    1.1789 H   0  0  0  0  0  0  0  0  0  0  0  0
    4.0059    0.5232    2.2972 H   0  0  0  0  0  0  0  0  0  0  0  0
    4.9973   -1.2256    3.7688 H   0  0  0  0  0  0  0  0  0  0  0  0
    3.1394   -4.2835    1.3558 H   0  0  0  0  0  0  0  0  0  0  0  0
    2.1696   -2.5651   -0.0928 H   0  0  0  0  0  0  0  0  0  0  0  0
  1  2  1  0
  1 22  1  0
  1 23  1  0
  1 24  1  0
  2  3  1  0
  2  4  1  0
  2 25  1  1
  3 26  1  0
  3 27  1  0
  3 28  1  0
  4  5  2  0
  4 21  1  0
  5  6  1  0
  5 29  1  0
  6  7  2  0
  6 30  1  0
  7  8  1  0
  7 20  1  0
  8  9  2  0
  8 10  1  0
 10 11  1  6
 10 12  1  0
 10 13  1  0
 13 14  1  1
 13 15  1  0
 13 16  1  0
 16 17  1  6
 16 18  1  0
 16 19  1  0
 20 21  2  0
 20 31  1  0
 21 32  1  0
M  END

