
     RDKit          3D

 56 59  0  0  0  0  0  0  0  0999 V2000
    1.4336    0.0815    1.7108 C   0  0  0  0  0  0  0  0  0  0  0  0
    2.7814    0.0722    1.0315 C   0  0  0  0  0  0  0  0  0  0  0  0
    3.4674   -1.1238    0.7731 C   0  0  0  0  0  0  0  0  0  0  0  0
    4.7152   -1.1234    0.1464 C   0  0  0  0  0  0  0  0  0  0  0  0
    5.3248    0.0752   -0.2539 C   0  0  0  0  0  0  0  0  0  0  0  0
    6.7250    0.0248   -0.8646 C   0  0  1  0  0  0  0  0  0  0  0  0
    6.9607   -1.1775   -1.6020 O   0  0  0  0  0  0  0  0  0  0  0  0
    6.2260   -1.2811   -2.8214 C   0  0  0  0  0  0  0  0  0  0  0  0
    6.5496   -0.1362   -3.7804 C   0  0  0  0  0  0  0  0  0  0  0  0
    6.3718    1.2144   -3.0768 C   0  0  0  0  0  0  0  0  0  0  0  0
    7.1332    1.2305   -1.7358 C   0  0  2  0  0  0  0  0  0  0  0  0
    8.5774    1.1647   -1.9300 N   0  0  0  0  0  0  0  0  0  0  0  0
    9.3541    2.2767   -2.0230 C   0  0  0  0  0  0  0  0  0  0  0  0
    8.9139    3.4196   -1.9385 O   0  0  0  0  0  0  0  0  0  0  0  0
   10.8055    2.0481   -2.2356 C   0  0  0  0  0  0  0  0  0  0  0  0
   11.6373    0.9419   -2.3689 C   0  0  0  0  0  0  0  0  0  0  0  0
   12.9451    1.4795   -2.5505 C   0  0  0  0  0  0  0  0  0  0  0  0
   14.2065    0.7606   -2.7408 C   0  0  0  0  0  0  0  0  0  0  0  0
   14.4138   -0.6562   -2.7907 C   0  0  0  0  0  0  0  0  0  0  0  0
   13.4252   -1.7755   -2.6656 C   0  0  0  0  0  0  0  0  0  0  0  0
   15.6975   -0.9409   -2.9778 N   0  0  0  0  0  0  0  0  0  0  0  0
   16.3301    0.2450   -3.0505 N   0  0  0  0  0  0  0  0  0  0  0  0
   17.7614    0.2840   -3.2554 C   0  0  0  0  0  0  0  0  0  0  0  0
   15.4854    1.3055   -2.9151 C   0  0  0  0  0  0  0  0  0  0  0  0
   15.9763    2.7165   -2.9645 C   0  0  0  0  0  0  0  0  0  0  0  0
   12.8923    2.8244   -2.5263 N   0  0  0  0  0  0  0  0  0  0  0  0
   11.6137    3.1320   -2.3386 N   0  0  0  0  0  0  0  0  0  0  0  0
   11.2922    4.0929   -2.2781 H   0  0  0  0  0  0  0  0  0  0  0  0
    4.6438    1.2743    0.0076 C   0  0  0  0  0  0  0  0  0  0  0  0
    3.3973    1.2700    0.6376 C   0  0  0  0  0  0  0  0  0  0  0  0
    1.0865   -0.9378    1.9356 H   0  0  0  0  0  0  0  0  0  0  0  0
    0.6695    0.5661    1.0802 H   0  0  0  0  0  0  0  0  0  0  0  0
    1.4674    0.6420    2.6602 H   0  0  0  0  0  0  0  0  0  0  0  0
    3.0184   -2.0758    1.0709 H   0  0  0  0  0  0  0  0  0  0  0  0
    5.2328   -2.0670   -0.0392 H   0  0  0  0  0  0  0  0  0  0  0  0
    7.4445   -0.0337   -0.0298 H   0  0  0  0  0  0  0  0  0  0  0  0
    5.1403   -1.3014   -2.6095 H   0  0  0  0  0  0  0  0  0  0  0  0
    6.5004   -2.2565   -3.2512 H   0  0  0  0  0  0  0  0  0  0  0  0
    5.9022   -0.2050   -4.6704 H   0  0  0  0  0  0  0  0  0  0  0  0
    7.5889   -0.2381   -4.1373 H   0  0  0  0  0  0  0  0  0  0  0  0
    5.3020    1.3952   -2.8774 H   0  0  0  0  0  0  0  0  0  0  0  0
    6.7275    2.0460   -3.7045 H   0  0  0  0  0  0  0  0  0  0  0  0
    6.9408    2.1776   -1.2147 H   0  0  0  0  0  0  0  0  0  0  0  0
    8.9927    0.2452   -2.0291 H   0  0  0  0  0  0  0  0  0  0  0  0
   11.3496   -0.1037   -2.3378 H   0  0  0  0  0  0  0  0  0  0  0  0
   12.6539   -1.7343   -3.4528 H   0  0  0  0  0  0  0  0  0  0  0  0
   12.9070   -1.7614   -1.6923 H   0  0  0  0  0  0  0  0  0  0  0  0
   13.9558   -2.7334   -2.7565 H   0  0  0  0  0  0  0  0  0  0  0  0
   18.1097   -0.7540   -3.3117 H   0  0  0  0  0  0  0  0  0  0  0  0
   18.2721    0.7928   -2.4217 H   0  0  0  0  0  0  0  0  0  0  0  0
   18.0188    0.8036   -4.1928 H   0  0  0  0  0  0  0  0  0  0  0  0
   16.7146    2.9156   -2.1683 H   0  0  0  0  0  0  0  0  0  0  0  0
   15.1323    3.4030   -2.8366 H   0  0  0  0  0  0  0  0  0  0  0  0
   16.4679    2.9398   -3.9274 H   0  0  0  0  0  0  0  0  0  0  0  0
    5.0827    2.2339   -0.2728 H   0  0  0  0  0  0  0  0  0  0  0  0
    2.8928    2.2225    0.8257 H   0  0  0  0  0  0  0  0  0  0  0  0
  1  2  1  0
  1 31  1  0
  1 32  1  0
  1 33  1  0
  2  3  2  0
  2 30  1  0
  3  4  1  0
  3 34  1  0
  4  5  2  0
  4 35  1  0
  5  6  1  0
  5 29  1  0
  6  7  1  0
  6 11  1  0
  6 36  1  1
  7  8  1  0
  8  9  1  0
  8 37  1  0
  8 38  1  0
  9 10  1  0
  9 39  1  0
  9 40  1  0
 10 11  1  0
 10 41  1  0
 10 42  1  0
 11 12  1  0
 11 43  1  1
 12 13  1  0
 12 44  1  0
 13 14  2  0
 13 15  1  0
 15 16  2  0
 15 27  1  0
 16 17  1  0
 16 45  1  0
 17 18  1  0
 17 26  2  0
 18 19  1  0
 18 24  2  0
 19 20  1  0
 19 21  2  0
 20 46  1  0
 20 47  1  0
 20 48  1  0
 21 22  1  0
 22 23  1  0
 22 24  1  0
 23 49  1  0
 23 50  1  0
 23 51  1  0
 24 25  1  0
 25 52  1  0
 25 53  1  0
 25 54  1  0
 26 27  1  0
 27 28  1  0
 29 30  2  0
 29 55  1  0
 30 56  1  0
M  END

