
     RDKit          3D

 37 39  0  0  0  0  0  0  0  0999 V2000
    3.0565    1.0342    0.7580 O   0  0  0  0  0  0  0  0  0  0  0  0
    2.9272   -0.1562    0.5835 C   0  0  0  0  0  0  0  0  0  0  0  0
    3.3432   -0.8820   -0.6388 C   0  0  0  0  0  0  0  0  0  0  0  0
    3.9388   -0.1886   -1.7096 C   0  0  0  0  0  0  0  0  0  0  0  0
    4.3343   -0.8737   -2.8511 C   0  0  0  0  0  0  0  0  0  0  0  0
    4.1380   -2.2596   -2.9367 C   0  0  0  0  0  0  0  0  0  0  0  0
    3.5242   -2.9558   -1.8790 C   0  0  0  0  0  0  0  0  0  0  0  0
    3.1344   -2.2648   -0.7332 C   0  0  0  0  0  0  0  0  0  0  0  0
    3.3141   -4.3052   -1.9577 O   0  0  0  0  0  0  0  0  0  0  0  0
    3.3002   -4.8439   -3.2725 C   0  0  2  0  0  0  0  0  0  0  0  0
    3.2641   -6.3530   -3.1965 C   0  0  0  0  0  0  0  0  0  0  0  0
    3.7991   -7.0285   -2.0963 C   0  0  0  0  0  0  0  0  0  0  0  0
    3.8058   -8.4292   -2.0651 C   0  0  0  0  0  0  0  0  0  0  0  0
    3.2862   -9.1589   -3.1302 C   0  0  0  0  0  0  0  0  0  0  0  0
    3.2402  -10.5207   -3.2033 O   0  0  0  0  0  0  0  0  0  0  0  0
    2.7400   -8.4863   -4.2477 C   0  0  0  0  0  0  0  0  0  0  0  0
    2.2228   -9.1917   -5.2781 O   0  0  0  0  0  0  0  0  0  0  0  0
    2.7321   -7.0905   -4.2710 C   0  0  0  0  0  0  0  0  0  0  0  0
    4.5430   -4.3157   -4.0223 C   0  0  1  0  0  0  0  0  0  0  0  0
    4.4650   -4.7455   -5.3622 O   0  0  0  0  0  0  0  0  0  0  0  0
    5.7889   -5.4289   -6.0723 S   0  0  1  0  0  0  0  0  0  0  0  0
    5.3679   -5.6558   -7.4324 O   0  0  0  0  0  0  0  0  0  0  0  0
    6.9836   -4.7115   -5.6968 O   0  0  0  0  0  0  0  0  0  0  0  0
    5.8601   -6.8260   -5.2555 O   0  0  0  0  0  0  0  0  0  0  0  0
    4.5553   -2.9098   -4.0588 O   0  0  0  0  0  0  0  0  0  0  0  0
    2.4649   -0.8072    1.3722 H   0  0  0  0  0  0  0  0  0  0  0  0
    4.0850    0.8892   -1.6159 H   0  0  0  0  0  0  0  0  0  0  0  0
    4.8096   -0.3678   -3.6937 H   0  0  0  0  0  0  0  0  0  0  0  0
    2.6613   -2.8225    0.0794 H   0  0  0  0  0  0  0  0  0  0  0  0
    2.4180   -4.4679   -3.8237 H   0  0  0  0  0  0  0  0  0  0  0  0
    4.2008   -6.4631   -1.2552 H   0  0  0  0  0  0  0  0  0  0  0  0
    4.2210   -8.9571   -1.2012 H   0  0  0  0  0  0  0  0  0  0  0  0
    3.6146  -10.9207   -2.4078 H   0  0  0  0  0  0  0  0  0  0  0  0
    2.3057  -10.1354   -5.0690 H   0  0  0  0  0  0  0  0  0  0  0  0
    2.2875   -6.5928   -5.1356 H   0  0  0  0  0  0  0  0  0  0  0  0
    5.4658   -4.6870   -3.5433 H   0  0  0  0  0  0  0  0  0  0  0  0
    5.0139   -7.3077   -5.3532 H   0  0  0  0  0  0  0  0  0  0  0  0
  1  2  2  0
  2  3  1  0
  2 26  1  0
  3  4  2  0
  3  8  1  0
  4  5  1  0
  4 27  1  0
  5  6  2  0
  5 28  1  0
  6  7  1  0
  6 25  1  0
  7  8  2  0
  7  9  1  0
  8 29  1  0
  9 10  1  0
 10 11  1  0
 10 19  1  0
 10 30  1  6
 11 12  2  0
 11 18  1  0
 12 13  1  0
 12 31  1  0
 13 14  2  0
 13 32  1  0
 14 15  1  0
 14 16  1  0
 15 33  1  0
 16 17  1  0
 16 18  2  0
 17 34  1  0
 18 35  1  0
 19 20  1  0
 19 25  1  0
 19 36  1  1
 21 20  1  1
 21 22  2  0
 21 23  2  0
 21 24  1  0
 24 37  1  0
M  END

