
     RDKit          3D

 57 60  0  0  0  0  0  0  0  0999 V2000
    1.0477   -0.3363   -0.1547 C   0  0  0  0  0  0  0  0  0  0  0  0
    2.5392   -0.3320    0.1481 C   0  0  0  0  0  0  0  0  0  0  0  0
    3.2642   -0.4641   -1.0444 O   0  0  0  0  0  0  0  0  0  0  0  0
    4.6955   -0.4855   -1.0377 B   0  0  1  0  0  0  0  0  0  0  0  0
    5.1419   -0.6216   -2.3920 O   0  0  0  0  0  0  0  0  0  0  0  0
    6.5088   -0.6762   -2.6991 C   0  0  0  0  0  0  0  0  0  0  0  0
    6.6917   -0.8243   -4.2027 C   0  0  0  0  0  0  0  0  0  0  0  0
    5.2893    0.8307   -0.3607 N   0  0  0  0  0  0  0  0  0  0  0  0
    5.0694    2.0817   -0.8076 C   0  0  0  0  0  0  0  0  0  0  0  0
    4.2143    2.3984   -1.9899 C   0  0  0  0  0  0  0  0  0  0  0  0
    5.7580    2.9985    0.0228 C   0  0  0  0  0  0  0  0  0  0  0  0
    6.4214    2.2833    1.0143 C   0  0  0  0  0  0  0  0  0  0  0  0
    7.2643    2.9017    2.0895 C   0  0  0  0  0  0  0  0  0  0  0  0
    6.1180    0.8976    0.7642 C   0  0  0  0  0  0  0  0  0  0  0  0
    6.5064   -0.2767    1.4362 C   0  0  0  0  0  0  0  0  0  0  0  0
    7.3908   -0.1751    2.6387 C   0  0  0  0  0  0  0  0  0  0  0  0
    8.7865   -0.2156    2.5053 C   0  0  0  0  0  0  0  0  0  0  0  0
    9.6192   -0.1213    3.6243 C   0  0  0  0  0  0  0  0  0  0  0  0
    9.0501    0.0152    4.8940 C   0  0  0  0  0  0  0  0  0  0  0  0
   10.3069    0.1589    6.6027 I   0  0  0  0  0  0  0  0  0  0  0  0
    7.6613    0.0578    5.0496 C   0  0  0  0  0  0  0  0  0  0  0  0
    6.8409   -0.0374    3.9216 C   0  0  0  0  0  0  0  0  0  0  0  0
    6.0789   -1.5446    0.9989 C   0  0  0  0  0  0  0  0  0  0  0  0
    6.3351   -2.8661    1.5113 C   0  0  0  0  0  0  0  0  0  0  0  0
    7.1515   -3.2943    2.6942 C   0  0  0  0  0  0  0  0  0  0  0  0
    5.6506   -3.7357    0.6687 C   0  0  0  0  0  0  0  0  0  0  0  0
    4.9962   -2.9728   -0.3282 C   0  0  0  0  0  0  0  0  0  0  0  0
    4.1517   -3.4833   -1.4484 C   0  0  0  0  0  0  0  0  0  0  0  0
    5.2549   -1.6671   -0.1249 N   0  0  0  0  0  0  0  0  0  0  0  0
    0.4575   -0.2297    0.7700 H   0  0  0  0  0  0  0  0  0  0  0  0
    0.7529   -1.2762   -0.6481 H   0  0  0  0  0  0  0  0  0  0  0  0
    0.7858    0.4924   -0.8317 H   0  0  0  0  0  0  0  0  0  0  0  0
    2.7753   -1.1564    0.8537 H   0  0  0  0  0  0  0  0  0  0  0  0
    2.8061    0.6077    0.6765 H   0  0  0  0  0  0  0  0  0  0  0  0
    7.0012   -1.5265   -2.1816 H   0  0  0  0  0  0  0  0  0  0  0  0
    7.0339    0.2386   -2.3516 H   0  0  0  0  0  0  0  0  0  0  0  0
    6.2035   -1.7427   -4.5657 H   0  0  0  0  0  0  0  0  0  0  0  0
    7.7608   -0.8716   -4.4666 H   0  0  0  0  0  0  0  0  0  0  0  0
    6.2401    0.0274   -4.7359 H   0  0  0  0  0  0  0  0  0  0  0  0
    4.4996    1.7820   -2.8546 H   0  0  0  0  0  0  0  0  0  0  0  0
    4.2934    3.4640   -2.2457 H   0  0  0  0  0  0  0  0  0  0  0  0
    3.1596    2.1560   -1.7853 H   0  0  0  0  0  0  0  0  0  0  0  0
    5.7599    4.0803   -0.1040 H   0  0  0  0  0  0  0  0  0  0  0  0
    7.2760    3.9953    1.9724 H   0  0  0  0  0  0  0  0  0  0  0  0
    8.3063    2.5478    2.0587 H   0  0  0  0  0  0  0  0  0  0  0  0
    6.8873    2.6745    3.0985 H   0  0  0  0  0  0  0  0  0  0  0  0
    9.2307   -0.3225    1.5126 H   0  0  0  0  0  0  0  0  0  0  0  0
   10.7031   -0.1547    3.5014 H   0  0  0  0  0  0  0  0  0  0  0  0
    7.2157    0.1642    6.0402 H   0  0  0  0  0  0  0  0  0  0  0  0
    5.7553   -0.0043    4.0427 H   0  0  0  0  0  0  0  0  0  0  0  0
    6.7793   -2.8635    3.6364 H   0  0  0  0  0  0  0  0  0  0  0  0
    8.2057   -2.9896    2.6067 H   0  0  0  0  0  0  0  0  0  0  0  0
    7.1241   -4.3897    2.7902 H   0  0  0  0  0  0  0  0  0  0  0  0
    5.6159   -4.8212    0.7510 H   0  0  0  0  0  0  0  0  0  0  0  0
    4.0381   -4.5737   -1.3776 H   0  0  0  0  0  0  0  0  0  0  0  0
    3.1613   -3.0046   -1.4411 H   0  0  0  0  0  0  0  0  0  0  0  0
    4.5967   -3.2252   -2.4217 H   0  0  0  0  0  0  0  0  0  0  0  0
  1  2  1  0
  1 30  1  0
  1 31  1  0
  1 32  1  0
  2  3  1  0
  2 33  1  0
  2 34  1  0
  4  3  1  6
  4  5  1  0
  4  8  1  0
  4 29  1  0
  5  6  1  0
  6  7  1  0
  6 35  1  0
  6 36  1  0
  7 37  1  0
  7 38  1  0
  7 39  1  0
  8  9  1  0
  8 14  1  0
  9 10  1  0
  9 11  2  0
 10 40  1  0
 10 41  1  0
 10 42  1  0
 11 12  1  0
 11 43  1  0
 12 13  1  0
 12 14  2  0
 13 44  1  0
 13 45  1  0
 13 46  1  0
 14 15  1  0
 15 16  1  0
 15 23  2  0
 16 17  2  0
 16 22  1  0
 17 18  1  0
 17 47  1  0
 18 19  2  0
 18 48  1  0
 19 20  1  0
 19 21  1  0
 21 22  2  0
 21 49  1  0
 22 50  1  0
 23 24  1  0
 23 29  1  0
 24 25  1  0
 24 26  2  0
 25 51  1  0
 25 52  1  0
 25 53  1  0
 26 27  1  0
 26 54  1  0
 27 28  1  0
 27 29  2  0
 28 55  1  0
 28 56  1  0
 28 57  1  0
M  CHG  2   4  -1  29   1
M  END

