
     RDKit          3D

 39 40  0  0  0  0  0  0  0  0999 V2000
    0.6963   -0.9469    0.0384 C   0  0  0  0  0  0  0  0  0  0  0  0
    2.2210   -0.8523    0.1305 C   0  0  0  0  0  0  0  0  0  0  0  0
    2.9651   -0.9145   -1.2286 C   0  0  1  0  0  0  0  0  0  0  0  0
    2.6191    0.2815   -2.1294 C   0  0  0  0  0  0  0  0  0  0  0  0
    4.4566   -1.0239   -1.0356 C   0  0  0  0  0  0  0  0  0  0  0  0
    5.4462   -0.0595   -1.0732 C   0  0  0  0  0  0  0  0  0  0  0  0
    6.6778   -0.6016   -0.8114 N   0  0  0  0  0  0  0  0  0  0  0  0
    6.4555   -1.8792   -0.6160 C   0  0  0  0  0  0  0  0  0  0  0  0
    5.1254   -2.2060   -0.7256 N   0  0  0  0  0  0  0  0  0  0  0  0
    4.5661   -3.5544   -0.6756 C   0  0  1  0  0  0  0  0  0  0  0  0
    4.8574   -4.4264   -1.9090 C   0  0  0  0  0  0  0  0  0  0  0  0
    4.4193   -5.8194   -1.4419 C   0  0  0  0  0  0  0  0  0  0  0  0
    4.8471   -5.8902    0.0462 C   0  0  0  0  0  0  0  0  0  0  0  0
    5.0374   -4.4207    0.5218 C   0  0  2  0  0  0  0  0  0  0  0  0
    4.3315   -4.0777    1.8346 C   0  0  0  0  0  0  0  0  0  0  0  0
    4.8389   -4.8955    2.9316 N   0  0  0  0  0  0  0  0  0  0  0  0
    0.2426   -0.9641    1.0422 H   0  0  0  0  0  0  0  0  0  0  0  0
    0.3812   -1.8674   -0.4826 H   0  0  0  0  0  0  0  0  0  0  0  0
    0.2572   -0.0942   -0.5024 H   0  0  0  0  0  0  0  0  0  0  0  0
    2.5920   -1.6671    0.7745 H   0  0  0  0  0  0  0  0  0  0  0  0
    2.5139    0.0826    0.6401 H   0  0  0  0  0  0  0  0  0  0  0  0
    2.6181   -1.8259   -1.7518 H   0  0  0  0  0  0  0  0  0  0  0  0
    2.8808    1.2346   -1.6415 H   0  0  0  0  0  0  0  0  0  0  0  0
    1.5435    0.3106   -2.3581 H   0  0  0  0  0  0  0  0  0  0  0  0
    3.1663    0.2309   -3.0826 H   0  0  0  0  0  0  0  0  0  0  0  0
    5.3254    1.0033   -1.2789 H   0  0  0  0  0  0  0  0  0  0  0  0
    7.2194   -2.6254   -0.3988 H   0  0  0  0  0  0  0  0  0  0  0  0
    3.4743   -3.4380   -0.5953 H   0  0  0  0  0  0  0  0  0  0  0  0
    5.9402   -4.4040   -2.1210 H   0  0  0  0  0  0  0  0  0  0  0  0
    4.3374   -4.0716   -2.8126 H   0  0  0  0  0  0  0  0  0  0  0  0
    4.8484   -6.6292   -2.0511 H   0  0  0  0  0  0  0  0  0  0  0  0
    3.3228   -5.9063   -1.5271 H   0  0  0  0  0  0  0  0  0  0  0  0
    5.7862   -6.4521    0.1597 H   0  0  0  0  0  0  0  0  0  0  0  0
    4.1067   -6.4134    0.6693 H   0  0  0  0  0  0  0  0  0  0  0  0
    6.1154   -4.2343    0.6670 H   0  0  0  0  0  0  0  0  0  0  0  0
    3.2532   -4.2921    1.7206 H   0  0  0  0  0  0  0  0  0  0  0  0
    4.4157   -2.9829    2.0062 H   0  0  0  0  0  0  0  0  0  0  0  0
    5.7981   -4.6276    3.1574 H   0  0  0  0  0  0  0  0  0  0  0  0
    4.2943   -4.7365    3.7789 H   0  0  0  0  0  0  0  0  0  0  0  0
  1  2  1  0
  1 17  1  0
  1 18  1  0
  1 19  1  0
  2  3  1  0
  2 20  1  0
  2 21  1  0
  3  4  1  0
  3  5  1  0
  3 22  1  6
  4 23  1  0
  4 24  1  0
  4 25  1  0
  5  6  2  0
  5  9  1  0
  6  7  1  0
  6 26  1  0
  7  8  2  0
  8  9  1  0
  8 27  1  0
  9 10  1  0
 10 11  1  0
 10 14  1  0
 10 28  1  1
 11 12  1  0
 11 29  1  0
 11 30  1  0
 12 13  1  0
 12 31  1  0
 12 32  1  0
 13 14  1  0
 13 33  1  0
 13 34  1  0
 14 15  1  0
 14 35  1  1
 15 16  1  0
 15 36  1  0
 15 37  1  0
 16 38  1  0
 16 39  1  0
M  END

