
     RDKit          3D

 31 31  0  0  0  0  0  0  0  0999 V2000
    4.5731    2.1688    0.1920 C   0  0  0  0  0  0  0  0  0  0  0  0
    4.9451    0.7068    0.3776 C   0  0  0  0  0  0  0  0  0  0  0  0
    5.3791    0.1066   -0.8552 O   0  0  0  0  0  0  0  0  0  0  0  0
    4.4368   -0.3805   -1.6651 C   0  0  0  0  0  0  0  0  0  0  0  0
    3.2451   -0.3685   -1.4216 O   0  0  0  0  0  0  0  0  0  0  0  0
    4.9666   -0.9757   -2.9262 C   0  0  0  0  0  0  0  0  0  0  0  0
    4.0160   -1.5894   -3.7406 N   0  0  0  0  0  0  0  0  0  0  0  0
    6.2294   -0.9416   -3.1879 N   0  0  0  0  0  0  0  0  0  0  0  0
    6.6185   -1.5170   -4.3499 N   0  0  0  0  0  0  0  0  0  0  0  0
    8.0503   -1.7547   -4.4692 C   0  0  0  0  0  0  0  0  0  0  0  0
    8.4385   -2.1331   -5.8835 C   0  0  0  0  0  0  0  0  0  0  0  0
    7.9358   -1.4163   -6.9820 C   0  0  0  0  0  0  0  0  0  0  0  0
    8.3184   -1.7465   -8.2839 C   0  0  0  0  0  0  0  0  0  0  0  0
    9.2126   -2.7988   -8.5099 C   0  0  0  0  0  0  0  0  0  0  0  0
    9.7170   -3.5199   -7.4247 C   0  0  0  0  0  0  0  0  0  0  0  0
    9.3276   -3.1906   -6.1224 C   0  0  0  0  0  0  0  0  0  0  0  0
    4.3296    2.6198    1.1676 H   0  0  0  0  0  0  0  0  0  0  0  0
    3.6925    2.2689   -0.4597 H   0  0  0  0  0  0  0  0  0  0  0  0
    5.4086    2.7332   -0.2503 H   0  0  0  0  0  0  0  0  0  0  0  0
    4.0961    0.1326    0.7777 H   0  0  0  0  0  0  0  0  0  0  0  0
    5.8044    0.5981    1.0550 H   0  0  0  0  0  0  0  0  0  0  0  0
    3.0716   -1.4424   -3.3915 H   0  0  0  0  0  0  0  0  0  0  0  0
    4.1016   -1.3444   -4.7268 H   0  0  0  0  0  0  0  0  0  0  0  0
    6.0410   -2.3128   -4.6454 H   0  0  0  0  0  0  0  0  0  0  0  0
    8.4023   -2.5335   -3.7644 H   0  0  0  0  0  0  0  0  0  0  0  0
    8.5477   -0.8173   -4.1694 H   0  0  0  0  0  0  0  0  0  0  0  0
    7.2344   -0.5974   -6.8049 H   0  0  0  0  0  0  0  0  0  0  0  0
    7.9187   -1.1781   -9.1281 H   0  0  0  0  0  0  0  0  0  0  0  0
    9.5122   -3.0569   -9.5289 H   0  0  0  0  0  0  0  0  0  0  0  0
   10.4118   -4.3473   -7.5911 H   0  0  0  0  0  0  0  0  0  0  0  0
    9.7200   -3.7642   -5.2775 H   0  0  0  0  0  0  0  0  0  0  0  0
  1  2  1  0
  1 17  1  0
  1 18  1  0
  1 19  1  0
  2  3  1  0
  2 20  1  0
  2 21  1  0
  3  4  1  0
  4  5  2  0
  4  6  1  0
  6  7  1  0
  6  8  2  0
  7 22  1  0
  7 23  1  0
  8  9  1  0
  9 10  1  0
  9 24  1  0
 10 11  1  0
 10 25  1  0
 10 26  1  0
 11 12  2  0
 11 16  1  0
 12 13  1  0
 12 27  1  0
 13 14  2  0
 13 28  1  0
 14 15  1  0
 14 29  1  0
 15 16  2  0
 15 30  1  0
 16 31  1  0
M  END

