
     RDKit          3D

 43 44  0  0  0  0  0  0  0  0999 V2000
    4.9428   -0.4532    0.5523 C   0  0  0  0  0  0  0  0  0  0  0  0
    5.2047    0.7720   -0.3272 C   0  0  0  0  0  0  0  0  0  0  0  0
    4.2098    1.0132   -1.3806 N   0  0  0  0  0  0  0  0  0  0  0  0
    3.1717    2.0111   -1.1272 C   0  0  0  0  0  0  0  0  0  0  0  0
    2.2166    1.6632    0.0177 C   0  0  0  0  0  0  0  0  0  0  0  0
    4.2957    0.2177   -2.4977 C   0  0  0  0  0  0  0  0  0  0  0  0
    5.0770   -0.7245   -2.5538 O   0  0  0  0  0  0  0  0  0  0  0  0
    3.4324    0.5238   -3.7016 C   0  0  0  0  0  0  0  0  0  0  0  0
    3.4328    1.7733   -4.3400 C   0  0  0  0  0  0  0  0  0  0  0  0
    2.7121    1.9489   -5.5247 C   0  0  0  0  0  0  0  0  0  0  0  0
    1.9696    0.9043   -6.0760 C   0  0  0  0  0  0  0  0  0  0  0  0
    1.9865   -0.3564   -5.4550 C   0  0  0  0  0  0  0  0  0  0  0  0
    1.2276   -1.4400   -5.9657 N   0  0  0  0  0  0  0  0  0  0  0  0
    1.2622   -1.9644   -7.5709 S   0  0  1  0  0  0  0  0  0  0  0  0
    0.3751   -3.1191   -7.6107 O   0  0  0  0  0  0  0  0  0  0  0  0
    1.0442   -0.7971   -8.4239 O   0  0  0  0  0  0  0  0  0  0  0  0
    2.9608   -2.5180   -7.8914 C   0  0  0  0  0  0  0  0  0  0  0  0
    3.6579   -1.8381   -8.8982 C   0  0  0  0  0  0  0  0  0  0  0  0
    4.9580   -2.2154   -9.2364 C   0  0  0  0  0  0  0  0  0  0  0  0
    5.5686   -3.2757   -8.5637 C   0  0  0  0  0  0  0  0  0  0  0  0
    4.8836   -3.9585   -7.5558 C   0  0  0  0  0  0  0  0  0  0  0  0
    3.5792   -3.5852   -7.2193 C   0  0  0  0  0  0  0  0  0  0  0  0
    2.7235   -4.5701   -5.8263 Br  0  0  0  0  0  0  0  0  0  0  0  0
    2.7357   -0.5422   -4.2847 C   0  0  0  0  0  0  0  0  0  0  0  0
    5.7433   -0.5511    1.3038 H   0  0  0  0  0  0  0  0  0  0  0  0
    4.9395   -1.3628   -0.0640 H   0  0  0  0  0  0  0  0  0  0  0  0
    3.9836   -0.3841    1.0870 H   0  0  0  0  0  0  0  0  0  0  0  0
    6.1829    0.6503   -0.8171 H   0  0  0  0  0  0  0  0  0  0  0  0
    5.2537    1.6860    0.2872 H   0  0  0  0  0  0  0  0  0  0  0  0
    2.5880    2.1427   -2.0450 H   0  0  0  0  0  0  0  0  0  0  0  0
    3.6562    2.9834   -0.9189 H   0  0  0  0  0  0  0  0  0  0  0  0
    1.7113    0.7021   -0.1667 H   0  0  0  0  0  0  0  0  0  0  0  0
    1.4446    2.4445    0.1058 H   0  0  0  0  0  0  0  0  0  0  0  0
    2.7327    1.5986    0.9877 H   0  0  0  0  0  0  0  0  0  0  0  0
    4.0090    2.6028   -3.9238 H   0  0  0  0  0  0  0  0  0  0  0  0
    2.7161    2.9219   -6.0225 H   0  0  0  0  0  0  0  0  0  0  0  0
    1.3829    1.0476   -6.9825 H   0  0  0  0  0  0  0  0  0  0  0  0
    1.1391   -2.2456   -5.3490 H   0  0  0  0  0  0  0  0  0  0  0  0
    3.1569   -1.0137   -9.4071 H   0  0  0  0  0  0  0  0  0  0  0  0
    5.4911   -1.6785  -10.0240 H   0  0  0  0  0  0  0  0  0  0  0  0
    6.5875   -3.5779   -8.8174 H   0  0  0  0  0  0  0  0  0  0  0  0
    5.3585   -4.7840   -7.0234 H   0  0  0  0  0  0  0  0  0  0  0  0
    2.7946   -1.5303   -3.8224 H   0  0  0  0  0  0  0  0  0  0  0  0
  1  2  1  0
  1 25  1  0
  1 26  1  0
  1 27  1  0
  2  3  1  0
  2 28  1  0
  2 29  1  0
  3  4  1  0
  3  6  1  0
  4  5  1  0
  4 30  1  0
  4 31  1  0
  5 32  1  0
  5 33  1  0
  5 34  1  0
  6  7  2  0
  6  8  1  0
  8  9  2  0
  8 24  1  0
  9 10  1  0
  9 35  1  0
 10 11  2  0
 10 36  1  0
 11 12  1  0
 11 37  1  0
 12 13  1  0
 12 24  2  0
 14 13  1  1
 13 38  1  0
 14 15  2  0
 14 16  2  0
 14 17  1  0
 17 18  2  0
 17 22  1  0
 18 19  1  0
 18 39  1  0
 19 20  2  0
 19 40  1  0
 20 21  1  0
 20 41  1  0
 21 22  2  0
 21 42  1  0
 22 23  1  0
 24 43  1  0
M  END

