
     RDKit          3D

 45 51  0  0  0  0  0  0  0  0999 V2000
    2.6789   -0.4421   -0.9825 F   0  0  0  0  0  0  0  0  0  0  0  0
    2.9628   -1.7775   -0.7951 B   0  0  1  0  0  0  0  0  0  0  0  0
    4.0542   -2.1803   -1.5261 F   0  0  0  0  0  0  0  0  0  0  0  0
    3.0180   -2.2174    0.6971 N   0  0  0  0  0  0  0  0  0  0  0  0
    2.1007   -3.2147    0.9632 C   0  0  0  0  0  0  0  0  0  0  0  0
    2.2507   -3.6835    2.2676 C   0  0  0  0  0  0  0  0  0  0  0  0
    3.3162   -2.9327    2.8223 C   0  0  0  0  0  0  0  0  0  0  0  0
    3.9535   -2.9714    4.1194 C   0  0  0  0  0  0  0  0  0  0  0  0
    3.5335   -3.8643    5.1298 C   0  0  0  0  0  0  0  0  0  0  0  0
    4.1655   -3.9030    6.3631 C   0  0  0  0  0  0  0  0  0  0  0  0
    5.2447   -3.0394    6.6154 C   0  0  0  0  0  0  0  0  0  0  0  0
    5.6696   -2.1533    5.6352 C   0  0  0  0  0  0  0  0  0  0  0  0
    5.0457   -2.0861    4.3673 C   0  0  0  0  0  0  0  0  0  0  0  0
    5.4821   -1.1348    3.3295 C   0  0  0  0  0  0  0  0  0  0  0  0
    6.5435   -0.2264    3.5474 C   0  0  0  0  0  0  0  0  0  0  0  0
    6.9350    0.6889    2.5800 C   0  0  0  0  0  0  0  0  0  0  0  0
    6.2656    0.7431    1.3462 C   0  0  0  0  0  0  0  0  0  0  0  0
    5.2228   -0.1332    1.0920 C   0  0  0  0  0  0  0  0  0  0  0  0
    4.8282   -1.0878    2.0577 C   0  0  0  0  0  0  0  0  0  0  0  0
    3.7620   -2.0277    1.8225 C   0  0  0  0  0  0  0  0  0  0  0  0
    1.2899   -3.4720   -0.1885 C   0  0  0  0  0  0  0  0  0  0  0  0
    0.2201   -4.3933   -0.3375 C   0  0  0  0  0  0  0  0  0  0  0  0
   -0.4228   -4.4646   -1.5478 C   0  0  0  0  0  0  0  0  0  0  0  0
   -0.0339   -3.6280   -2.6375 C   0  0  0  0  0  0  0  0  0  0  0  0
   -0.6723   -3.6657   -3.9023 C   0  0  0  0  0  0  0  0  0  0  0  0
   -0.2583   -2.8316   -4.9231 C   0  0  0  0  0  0  0  0  0  0  0  0
    0.8080   -1.9277   -4.7071 C   0  0  0  0  0  0  0  0  0  0  0  0
    1.4557   -1.8600   -3.4871 C   0  0  0  0  0  0  0  0  0  0  0  0
    1.0484   -2.7141   -2.4330 C   0  0  0  0  0  0  0  0  0  0  0  0
    1.6719   -2.6822   -1.2144 N   0  0  0  0  0  0  0  0  0  0  0  0
    1.6681   -4.4668    2.7470 H   0  0  0  0  0  0  0  0  0  0  0  0
    2.6957   -4.5362    4.9298 H   0  0  0  0  0  0  0  0  0  0  0  0
    3.8267   -4.6013    7.1326 H   0  0  0  0  0  0  0  0  0  0  0  0
    5.7519   -3.0619    7.5830 H   0  0  0  0  0  0  0  0  0  0  0  0
    6.5087   -1.4957    5.8631 H   0  0  0  0  0  0  0  0  0  0  0  0
    7.0747   -0.2311    4.4991 H   0  0  0  0  0  0  0  0  0  0  0  0
    7.7607    1.3744    2.7873 H   0  0  0  0  0  0  0  0  0  0  0  0
    6.5592    1.4758    0.5906 H   0  0  0  0  0  0  0  0  0  0  0  0
    4.6813   -0.0722    0.1485 H   0  0  0  0  0  0  0  0  0  0  0  0
   -0.0678   -5.0217    0.5056 H   0  0  0  0  0  0  0  0  0  0  0  0
   -1.2484   -5.1665   -1.6924 H   0  0  0  0  0  0  0  0  0  0  0  0
   -1.4979   -4.3658   -4.0543 H   0  0  0  0  0  0  0  0  0  0  0  0
   -0.7532   -2.8657   -5.8962 H   0  0  0  0  0  0  0  0  0  0  0  0
    1.1257   -1.2673   -5.5177 H   0  0  0  0  0  0  0  0  0  0  0  0
    2.2687   -1.1549   -3.3182 H   0  0  0  0  0  0  0  0  0  0  0  0
  2  1  1  1
  2  3  1  0
  2  4  1  0
  2 30  1  0
  4  5  1  0
  4 20  1  0
  5  6  2  0
  5 21  1  0
  6  7  1  0
  6 31  1  0
  7  8  1  0
  7 20  2  0
  8  9  2  0
  8 13  1  0
  9 10  1  0
  9 32  1  0
 10 11  2  0
 10 33  1  0
 11 12  1  0
 11 34  1  0
 12 13  2  0
 12 35  1  0
 13 14  1  0
 14 15  1  0
 14 19  2  0
 15 16  2  0
 15 36  1  0
 16 17  1  0
 16 37  1  0
 17 18  2  0
 17 38  1  0
 18 19  1  0
 18 39  1  0
 19 20  1  0
 21 22  2  0
 21 30  1  0
 22 23  1  0
 22 40  1  0
 23 24  2  0
 23 41  1  0
 24 25  1  0
 24 29  1  0
 25 26  2  0
 25 42  1  0
 26 27  1  0
 26 43  1  0
 27 28  2  0
 27 44  1  0
 28 29  1  0
 28 45  1  0
 29 30  2  0
M  CHG  2   2  -1  30   1
M  END

