
     RDKit          3D

 33 34  0  0  0  0  0  0  0  0999 V2000
    0.8898    0.5370    0.2993 C   0  0  0  0  0  0  0  0  0  0  0  0
    2.3645    0.1318    0.1302 C   0  0  1  0  0  0  0  0  0  0  0  0
    2.5242   -1.3488   -0.2465 C   0  0  0  0  0  0  0  0  0  0  0  0
    2.1628   -1.6050   -1.6421 N   0  0  0  0  0  0  0  0  0  0  0  0
    1.6794   -2.8649   -2.0366 C   0  0  0  0  0  0  0  0  0  0  0  0
    0.9698   -3.6973   -1.1373 C   0  0  0  0  0  0  0  0  0  0  0  0
    0.4552   -4.9287   -1.5393 C   0  0  0  0  0  0  0  0  0  0  0  0
    0.6210   -5.3900   -2.8484 C   0  0  0  0  0  0  0  0  0  0  0  0
    1.3183   -4.5834   -3.7480 C   0  0  0  0  0  0  0  0  0  0  0  0
    1.8439   -3.3497   -3.3565 C   0  0  0  0  0  0  0  0  0  0  0  0
    2.8455   -0.7510   -2.6088 C   0  0  2  0  0  0  0  0  0  0  0  0
    4.3543   -1.1244   -2.7621 C   0  0  0  0  0  0  0  0  0  0  0  0
    4.9656   -0.5190   -3.9432 C   0  0  0  0  0  0  0  0  0  0  0  0
    5.4149   -0.0213   -4.8891 N   0  0  0  0  0  0  0  0  0  0  0  0
    2.6734    0.7229   -2.2136 C   0  0  0  0  0  0  0  0  0  0  0  0
    3.1203    0.9203   -0.8447 N   0  0  0  0  0  0  0  0  0  0  0  0
    0.4333    0.0003    1.1467 H   0  0  0  0  0  0  0  0  0  0  0  0
    0.2936    0.3085   -0.5970 H   0  0  0  0  0  0  0  0  0  0  0  0
    0.8035    1.6168    0.5044 H   0  0  0  0  0  0  0  0  0  0  0  0
    2.8671    0.2606    1.1046 H   0  0  0  0  0  0  0  0  0  0  0  0
    1.8924   -1.9489    0.4155 H   0  0  0  0  0  0  0  0  0  0  0  0
    3.5713   -1.6549   -0.0502 H   0  0  0  0  0  0  0  0  0  0  0  0
    0.7911   -3.3783   -0.1111 H   0  0  0  0  0  0  0  0  0  0  0  0
   -0.0917   -5.5335   -0.8107 H   0  0  0  0  0  0  0  0  0  0  0  0
    0.2163   -6.3559   -3.1580 H   0  0  0  0  0  0  0  0  0  0  0  0
    1.4706   -4.9155   -4.7786 H   0  0  0  0  0  0  0  0  0  0  0  0
    2.3901   -2.7724   -4.1012 H   0  0  0  0  0  0  0  0  0  0  0  0
    2.3547   -0.8790   -3.5823 H   0  0  0  0  0  0  0  0  0  0  0  0
    4.4670   -2.2181   -2.8291 H   0  0  0  0  0  0  0  0  0  0  0  0
    4.9008   -0.7802   -1.8699 H   0  0  0  0  0  0  0  0  0  0  0  0
    1.6131    0.9994   -2.3874 H   0  0  0  0  0  0  0  0  0  0  0  0
    3.2828    1.3472   -2.8859 H   0  0  0  0  0  0  0  0  0  0  0  0
    3.1273    1.9073   -0.5972 H   0  0  0  0  0  0  0  0  0  0  0  0
  1  2  1  0
  1 17  1  0
  1 18  1  0
  1 19  1  0
  2  3  1  0
  2 16  1  0
  2 20  1  1
  3  4  1  0
  3 21  1  0
  3 22  1  0
  4  5  1  0
  4 11  1  0
  5  6  2  0
  5 10  1  0
  6  7  1  0
  6 23  1  0
  7  8  2  0
  7 24  1  0
  8  9  1  0
  8 25  1  0
  9 10  2  0
  9 26  1  0
 10 27  1  0
 11 12  1  0
 11 15  1  0
 11 28  1  6
 12 13  1  0
 12 29  1  0
 12 30  1  0
 13 14  3  0
 15 16  1  0
 15 31  1  0
 15 32  1  0
 16 33  1  0
M  END

