
     RDKit          3D

 31 33  0  0  0  0  0  0  0  0999 V2000
    4.7189    0.1436   -1.9729 O   0  0  0  0  0  0  0  0  0  0  0  0
    3.8603   -0.0274   -1.1215 C   0  0  0  0  0  0  0  0  0  0  0  0
    3.9324   -0.9800   -0.1341 N   0  0  0  0  0  0  0  0  0  0  0  0
    4.9570   -1.9157    0.0869 C   0  0  0  0  0  0  0  0  0  0  0  0
    6.1464   -2.0503   -0.7077 C   0  0  0  0  0  0  0  0  0  0  0  0
    6.9588   -3.0524   -0.2460 C   0  0  0  0  0  0  0  0  0  0  0  0
    6.3047   -3.8424    1.1445 S   0  0  0  0  0  0  0  0  0  0  0  0
    4.9091   -2.8228    1.1261 C   0  0  0  0  0  0  0  0  0  0  0  0
    2.6122    0.8079   -1.0709 C   0  0  2  0  0  0  0  0  0  0  0  0
    1.9038    0.6382   -0.2551 H   0  0  0  0  0  0  0  0  0  0  0  0
    2.0234    1.2755   -2.3720 C   0  0  0  0  0  0  0  0  0  0  0  0
    2.7504    2.2632   -1.5037 C   0  0  1  0  0  0  0  0  0  0  0  0
    3.7529    2.5491   -1.8346 H   0  0  0  0  0  0  0  0  0  0  0  0
    1.9332    3.2687   -0.7427 C   0  0  0  0  0  0  0  0  0  0  0  0
    0.8285    3.0000   -0.2969 O   0  0  0  0  0  0  0  0  0  0  0  0
    2.5439    4.4916   -0.6045 N   0  0  0  0  0  0  0  0  0  0  0  0
    2.0456    5.6352    0.0419 C   0  0  0  0  0  0  0  0  0  0  0  0
    0.7673    5.7338    0.6904 C   0  0  0  0  0  0  0  0  0  0  0  0
    0.5627    6.9762    1.2306 C   0  0  0  0  0  0  0  0  0  0  0  0
    1.9003    8.0376    0.9663 S   0  0  0  0  0  0  0  0  0  0  0  0
    2.7673    6.8095    0.1134 C   0  0  0  0  0  0  0  0  0  0  0  0
    3.1541   -1.0192    0.5129 H   0  0  0  0  0  0  0  0  0  0  0  0
    6.3560   -1.4211   -1.5685 H   0  0  0  0  0  0  0  0  0  0  0  0
    7.9165   -3.3704   -0.6554 H   0  0  0  0  0  0  0  0  0  0  0  0
    4.1276   -2.9403    1.8754 H   0  0  0  0  0  0  0  0  0  0  0  0
    0.9354    1.3655   -2.4128 H   0  0  0  0  0  0  0  0  0  0  0  0
    2.5334    0.9570   -3.2842 H   0  0  0  0  0  0  0  0  0  0  0  0
    3.4627    4.5867   -1.0201 H   0  0  0  0  0  0  0  0  0  0  0  0
    0.0622    4.9081    0.7347 H   0  0  0  0  0  0  0  0  0  0  0  0
   -0.3134    7.3259    1.7748 H   0  0  0  0  0  0  0  0  0  0  0  0
    3.7585    7.0106   -0.2907 H   0  0  0  0  0  0  0  0  0  0  0  0
  1  2  2  0
  2  3  1  0
  2  9  1  0
  3  4  1  0
  3 22  1  0
  4  5  1  0
  4  8  2  0
  5  6  2  0
  5 23  1  0
  6  7  1  0
  6 24  1  0
  7  8  1  0
  8 25  1  0
  9 10  1  1
  9 11  1  0
  9 12  1  0
 11 12  1  0
 11 26  1  0
 11 27  1  0
 12 13  1  6
 12 14  1  0
 14 15  2  0
 14 16  1  0
 16 17  1  0
 16 28  1  0
 17 18  1  0
 17 21  2  0
 18 19  2  0
 18 29  1  0
 19 20  1  0
 19 30  1  0
 20 21  1  0
 21 31  1  0
M  END

