
     RDKit          3D

 54 57  0  0  0  0  0  0  0  0999 V2000
    4.2418    1.3176    1.7856 C   0  0  0  0  0  0  0  0  0  0  0  0
    4.3873    0.3568    0.7688 O   0  0  0  0  0  0  0  0  0  0  0  0
    4.3747    0.7620   -0.5322 C   0  0  0  0  0  0  0  0  0  0  0  0
    4.2157    2.0926   -0.9533 C   0  0  0  0  0  0  0  0  0  0  0  0
    4.2159    2.4003   -2.3150 C   0  0  0  0  0  0  0  0  0  0  0  0
    4.3740    1.3988   -3.2820 C   0  0  0  0  0  0  0  0  0  0  0  0
    4.3620    1.8020   -4.5841 O   0  0  0  0  0  0  0  0  0  0  0  0
    4.4871    0.8439   -5.6148 C   0  0  0  0  0  0  0  0  0  0  0  0
    4.4302    1.5962   -6.9435 C   0  0  0  0  0  0  0  0  0  0  0  0
    4.5131    0.6893   -8.0802 N   0  0  0  0  0  0  0  0  0  0  0  0
    3.2559    0.0645   -8.4607 C   0  0  0  0  0  0  0  0  0  0  0  0
    5.3597    1.0767   -9.1647 C   0  0  0  0  0  0  0  0  0  0  0  0
    4.8598    2.1673  -10.0282 N   0  0  0  0  0  0  0  0  0  0  0  0
    4.9225    3.4567   -9.6062 N   0  0  0  0  0  0  0  0  0  0  0  0
    4.4285    4.1746  -10.5791 C   0  0  0  0  0  0  0  0  0  0  0  0
    4.3615    5.6428  -10.5135 C   0  0  0  0  0  0  0  0  0  0  0  0
    4.1727    6.2693   -9.2694 C   0  0  0  0  0  0  0  0  0  0  0  0
    4.1601    7.6601   -9.2083 C   0  0  0  0  0  0  0  0  0  0  0  0
    4.3361    8.3836  -10.3932 C   0  0  0  0  0  0  0  0  0  0  0  0
    4.5334    7.8036  -11.5792 N   0  0  0  0  0  0  0  0  0  0  0  0
    4.5501    6.4728  -11.6351 C   0  0  0  0  0  0  0  0  0  0  0  0
    4.0249    3.3587  -11.6304 N   0  0  0  0  0  0  0  0  0  0  0  0
    3.3750    3.7334  -12.8592 C   0  0  1  0  0  0  0  0  0  0  0  0
    2.0283    3.1470  -13.1805 C   0  0  0  0  0  0  0  0  0  0  0  0
    2.1390    4.6000  -12.8179 C   0  0  0  0  0  0  0  0  0  0  0  0
    4.3335    2.0410  -11.2888 C   0  0  0  0  0  0  0  0  0  0  0  0
    4.1313    0.6615  -12.2030 S   0  0  0  0  0  0  0  0  0  0  0  0
    4.5341    0.0681   -2.8608 C   0  0  0  0  0  0  0  0  0  0  0  0
    4.5331   -0.2396   -1.4997 C   0  0  0  0  0  0  0  0  0  0  0  0
    4.2856    0.7758    2.7404 H   0  0  0  0  0  0  0  0  0  0  0  0
    3.2724    1.8463    1.7222 H   0  0  0  0  0  0  0  0  0  0  0  0
    5.0531    2.0690    1.7661 H   0  0  0  0  0  0  0  0  0  0  0  0
    4.0902    2.8996   -0.2310 H   0  0  0  0  0  0  0  0  0  0  0  0
    4.0926    3.4318   -2.6520 H   0  0  0  0  0  0  0  0  0  0  0  0
    3.6739    0.0965   -5.5482 H   0  0  0  0  0  0  0  0  0  0  0  0
    5.4456    0.2973   -5.5397 H   0  0  0  0  0  0  0  0  0  0  0  0
    5.2709    2.3042   -6.9755 H   0  0  0  0  0  0  0  0  0  0  0  0
    3.5092    2.2140   -6.9633 H   0  0  0  0  0  0  0  0  0  0  0  0
    2.8184   -0.4698   -7.6033 H   0  0  0  0  0  0  0  0  0  0  0  0
    3.4246   -0.6623   -9.2680 H   0  0  0  0  0  0  0  0  0  0  0  0
    2.4988    0.7929   -8.8222 H   0  0  0  0  0  0  0  0  0  0  0  0
    5.5093    0.2309   -9.8505 H   0  0  0  0  0  0  0  0  0  0  0  0
    6.3304    1.4158   -8.7760 H   0  0  0  0  0  0  0  0  0  0  0  0
    4.0389    5.6592   -8.3740 H   0  0  0  0  0  0  0  0  0  0  0  0
    4.0112    8.1797   -8.2592 H   0  0  0  0  0  0  0  0  0  0  0  0
    4.3210    9.4798  -10.3801 H   0  0  0  0  0  0  0  0  0  0  0  0
    4.7399    6.0343  -12.6193 H   0  0  0  0  0  0  0  0  0  0  0  0
    4.0687    3.8660  -13.6967 H   0  0  0  0  0  0  0  0  0  0  0  0
    1.5982    2.4597  -12.4492 H   0  0  0  0  0  0  0  0  0  0  0  0
    1.8501    2.8632  -14.2203 H   0  0  0  0  0  0  0  0  0  0  0  0
    1.7708    4.9104  -11.8368 H   0  0  0  0  0  0  0  0  0  0  0  0
    2.0366    5.3614  -13.5958 H   0  0  0  0  0  0  0  0  0  0  0  0
    4.6624   -0.7379   -3.5837 H   0  0  0  0  0  0  0  0  0  0  0  0
    4.6569   -1.2708   -1.1622 H   0  0  0  0  0  0  0  0  0  0  0  0
  1  2  1  0
  1 30  1  0
  1 31  1  0
  1 32  1  0
  2  3  1  0
  3  4  2  0
  3 29  1  0
  4  5  1  0
  4 33  1  0
  5  6  2  0
  5 34  1  0
  6  7  1  0
  6 28  1  0
  7  8  1  0
  8  9  1  0
  8 35  1  0
  8 36  1  0
  9 10  1  0
  9 37  1  0
  9 38  1  0
 10 11  1  0
 10 12  1  0
 11 39  1  0
 11 40  1  0
 11 41  1  0
 12 13  1  0
 12 42  1  0
 12 43  1  0
 13 14  1  0
 13 26  1  0
 14 15  2  0
 15 16  1  0
 15 22  1  0
 16 17  2  0
 16 21  1  0
 17 18  1  0
 17 44  1  0
 18 19  2  0
 18 45  1  0
 19 20  1  0
 19 46  1  0
 20 21  2  0
 21 47  1  0
 22 23  1  0
 22 26  1  0
 23 24  1  0
 23 25  1  0
 23 48  1  6
 24 25  1  0
 24 49  1  0
 24 50  1  0
 25 51  1  0
 25 52  1  0
 26 27  2  0
 28 29  2  0
 28 53  1  0
 29 54  1  0
M  END

