
     RDKit          3D

 51 53  0  0  0  0  0  0  0  0999 V2000
    2.0840   -3.1402  -10.6391 C   0  0  0  0  0  0  0  0  0  0  0  0
    2.7255   -1.8997  -10.4780 O   0  0  0  0  0  0  0  0  0  0  0  0
    3.1380   -1.5117   -9.2362 C   0  0  0  0  0  0  0  0  0  0  0  0
    2.9553   -2.2952   -8.0739 C   0  0  0  0  0  0  0  0  0  0  0  0
    3.4016   -1.8419   -6.8263 C   0  0  0  0  0  0  0  0  0  0  0  0
    4.0245   -0.6034   -6.7812 C   0  0  0  0  0  0  0  0  0  0  0  0
    4.5282    0.0231   -5.6751 O   0  0  0  0  0  0  0  0  0  0  0  0
    5.0496    1.2179   -6.1004 C   0  0  0  0  0  0  0  0  0  0  0  0
    5.6961    2.0601   -5.0410 C   0  0  0  0  0  0  0  0  0  0  0  0
    5.8483    3.4401   -5.4681 N   0  0  0  0  0  0  0  0  0  0  0  0
    4.6474    4.2643   -5.3508 C   0  0  0  0  0  0  0  0  0  0  0  0
    4.4284    4.8070   -3.9289 C   0  0  0  0  0  0  0  0  0  0  0  0
    5.6724    5.5656   -3.4471 C   0  0  0  0  0  0  0  0  0  0  0  0
    6.9502    4.7170   -3.5915 C   0  0  2  0  0  0  0  0  0  0  0  0
    6.8794    3.5689   -2.7348 O   0  0  0  0  0  0  0  0  0  0  0  0
    8.2300    5.4847   -3.1926 C   0  0  0  0  0  0  0  0  0  0  0  0
    8.6018    6.7319   -4.0004 C   0  0  0  0  0  0  0  0  0  0  0  0
    7.9039    7.1394   -4.9212 O   0  0  0  0  0  0  0  0  0  0  0  0
    9.7615    7.3827   -3.6449 N   0  0  0  0  0  0  0  0  0  0  0  0
   10.6553    7.0015   -2.5692 C   0  0  0  0  0  0  0  0  0  0  0  0
   10.1472    8.5808   -4.3720 C   0  0  0  0  0  0  0  0  0  0  0  0
    7.0387    4.1498   -5.0276 C   0  0  0  0  0  0  0  0  0  0  0  0
    4.8947    1.3840   -7.4454 C   0  0  0  0  0  0  0  0  0  0  0  0
    4.2197    0.2004   -7.9264 C   0  0  0  0  0  0  0  0  0  0  0  0
    3.7696   -0.2617   -9.1695 C   0  0  0  0  0  0  0  0  0  0  0  0
    1.8483   -3.2359  -11.7082 H   0  0  0  0  0  0  0  0  0  0  0  0
    1.1422   -3.2007  -10.0623 H   0  0  0  0  0  0  0  0  0  0  0  0
    2.7318   -3.9862  -10.3424 H   0  0  0  0  0  0  0  0  0  0  0  0
    2.4631   -3.2655   -8.1336 H   0  0  0  0  0  0  0  0  0  0  0  0
    3.2643   -2.4411   -5.9242 H   0  0  0  0  0  0  0  0  0  0  0  0
    6.6945    1.6473   -4.8185 H   0  0  0  0  0  0  0  0  0  0  0  0
    5.1263    1.9321   -4.0980 H   0  0  0  0  0  0  0  0  0  0  0  0
    3.7783    3.6779   -5.6873 H   0  0  0  0  0  0  0  0  0  0  0  0
    4.7443    5.1156   -6.0497 H   0  0  0  0  0  0  0  0  0  0  0  0
    4.2085    3.9717   -3.2431 H   0  0  0  0  0  0  0  0  0  0  0  0
    3.5479    5.4712   -3.9117 H   0  0  0  0  0  0  0  0  0  0  0  0
    5.5601    5.8741   -2.3895 H   0  0  0  0  0  0  0  0  0  0  0  0
    5.8064    6.4861   -4.0349 H   0  0  0  0  0  0  0  0  0  0  0  0
    6.6080    3.8626   -1.8543 H   0  0  0  0  0  0  0  0  0  0  0  0
    9.0604    4.7596   -3.2256 H   0  0  0  0  0  0  0  0  0  0  0  0
    8.1298    5.7721   -2.1298 H   0  0  0  0  0  0  0  0  0  0  0  0
   10.3483    6.0638   -2.0958 H   0  0  0  0  0  0  0  0  0  0  0  0
   10.6924    7.7837   -1.7882 H   0  0  0  0  0  0  0  0  0  0  0  0
   11.6837    6.8668   -2.9503 H   0  0  0  0  0  0  0  0  0  0  0  0
    9.4035    8.7738   -5.1528 H   0  0  0  0  0  0  0  0  0  0  0  0
   11.1409    8.4517   -4.8367 H   0  0  0  0  0  0  0  0  0  0  0  0
   10.1986    9.4510   -3.6932 H   0  0  0  0  0  0  0  0  0  0  0  0
    7.9072    3.4744   -5.0902 H   0  0  0  0  0  0  0  0  0  0  0  0
    7.2191    4.9975   -5.7063 H   0  0  0  0  0  0  0  0  0  0  0  0
    5.2287    2.2497   -8.0108 H   0  0  0  0  0  0  0  0  0  0  0  0
    3.8941    0.3158  -10.0873 H   0  0  0  0  0  0  0  0  0  0  0  0
  1  2  1  0
  1 26  1  0
  1 27  1  0
  1 28  1  0
  2  3  1  0
  3  4  2  0
  3 25  1  0
  4  5  1  0
  4 29  1  0
  5  6  2  0
  5 30  1  0
  6  7  1  0
  6 24  1  0
  7  8  1  0
  8  9  1  0
  8 23  2  0
  9 10  1  0
  9 31  1  0
  9 32  1  0
 10 11  1  0
 10 22  1  0
 11 12  1  0
 11 33  1  0
 11 34  1  0
 12 13  1  0
 12 35  1  0
 12 36  1  0
 13 14  1  0
 13 37  1  0
 13 38  1  0
 14 15  1  1
 14 16  1  0
 14 22  1  0
 15 39  1  0
 16 17  1  0
 16 40  1  0
 16 41  1  0
 17 18  2  0
 17 19  1  0
 19 20  1  0
 19 21  1  0
 20 42  1  0
 20 43  1  0
 20 44  1  0
 21 45  1  0
 21 46  1  0
 21 47  1  0
 22 48  1  0
 22 49  1  0
 23 24  1  0
 23 50  1  0
 24 25  2  0
 25 51  1  0
M  END

