
     RDKit          3D

 74 77  0  0  0  0  0  0  0  0999 V2000
    3.8378   -2.7138    1.1756 C   0  0  0  0  0  0  0  0  0  0  0  0
    4.7888   -1.5062    1.1979 C   0  0  0  0  0  0  0  0  0  0  0  0
    4.6665   -0.6353   -0.0327 C   0  0  0  0  0  0  0  0  0  0  0  0
    3.7720    0.4440   -0.0717 C   0  0  0  0  0  0  0  0  0  0  0  0
    3.6456    1.2254   -1.2202 C   0  0  0  0  0  0  0  0  0  0  0  0
    4.4066    0.9226   -2.3531 C   0  0  0  0  0  0  0  0  0  0  0  0
    4.3073    1.9703   -3.8076 S   0  0  1  0  0  0  0  0  0  0  0  0
    5.5451    2.7491   -3.9316 O   0  0  0  0  0  0  0  0  0  0  0  0
    3.7931    1.2151   -4.9383 O   0  0  0  0  0  0  0  0  0  0  0  0
    3.1390    3.0478   -3.3853 O   0  0  0  0  0  0  0  0  0  0  0  0
    5.3109   -0.1617   -2.3627 C   0  0  0  0  0  0  0  0  0  0  0  0
    6.1114   -0.5799   -3.5633 C   0  0  0  0  0  0  0  0  0  0  0  0
    5.3640   -2.1185   -4.2872 S   0  0  0  0  0  0  0  0  0  0  0  0
    5.8357   -2.0303   -5.9179 N   0  0  0  0  0  0  0  0  0  0  0  0
    4.8781   -1.5478   -6.9324 C   0  0  0  0  0  0  0  0  0  0  0  0
    5.3454   -2.2508   -8.2125 C   0  0  0  0  0  0  0  0  0  0  0  0
    6.8615   -2.3615   -8.0080 C   0  0  0  0  0  0  0  0  0  0  0  0
    7.0384   -2.4471   -6.4997 C   0  0  0  0  0  0  0  0  0  0  0  0
    8.1621   -2.8084   -5.9982 N   0  0  0  0  0  0  0  0  0  0  0  0
    8.3686   -2.6544   -4.6378 N   0  0  0  0  0  0  0  0  0  0  0  0
    9.2072   -3.4835   -4.1379 C   0  0  0  0  0  0  0  0  0  0  0  0
    9.9039   -4.6582   -4.7882 C   0  0  0  0  0  0  0  0  0  0  0  0
   10.3266   -5.5381   -3.6002 C   0  0  0  0  0  0  0  0  0  0  0  0
   10.5363   -4.5377   -2.4519 C   0  0  0  0  0  0  0  0  0  0  0  0
    9.6391   -3.4235   -2.8063 N   0  0  0  0  0  0  0  0  0  0  0  0
    9.1797   -2.2381   -1.6918 S   0  0  0  0  0  0  0  0  0  0  0  0
   10.5406   -0.9663   -1.7542 C   0  0  0  0  0  0  0  0  0  0  0  0
   10.7336   -0.2981   -3.0907 C   0  0  0  0  0  0  0  0  0  0  0  0
    9.8155    0.6976   -3.4781 C   0  0  0  0  0  0  0  0  0  0  0  0
    9.8685    1.3610   -4.7053 C   0  0  0  0  0  0  0  0  0  0  0  0
    8.8378    2.4047   -5.0766 C   0  0  0  0  0  0  0  0  0  0  0  0
    7.9979    2.0315   -6.3070 C   0  0  0  0  0  0  0  0  0  0  0  0
   10.8995    1.0114   -5.5981 C   0  0  0  0  0  0  0  0  0  0  0  0
   11.8253    0.0363   -5.2605 C   0  0  0  0  0  0  0  0  0  0  0  0
   11.7552   -0.6070   -4.0116 C   0  0  0  0  0  0  0  0  0  0  0  0
   13.0123   -1.8665   -3.7700 S   0  0  1  0  0  0  0  0  0  0  0  0
   13.1600   -2.2310   -2.3582 O   0  0  0  0  0  0  0  0  0  0  0  0
   12.8697   -2.8897   -4.7937 O   0  0  0  0  0  0  0  0  0  0  0  0
   14.3784   -1.0550   -4.1889 O   0  0  0  0  0  0  0  0  0  0  0  0
    5.4204   -0.9132   -1.1822 C   0  0  0  0  0  0  0  0  0  0  0  0
    3.9575   -3.3237    2.0851 H   0  0  0  0  0  0  0  0  0  0  0  0
    4.0354   -3.3592    0.3052 H   0  0  0  0  0  0  0  0  0  0  0  0
    2.7858   -2.3916    1.1181 H   0  0  0  0  0  0  0  0  0  0  0  0
    5.8281   -1.8634    1.2874 H   0  0  0  0  0  0  0  0  0  0  0  0
    4.5868   -0.8986    2.0957 H   0  0  0  0  0  0  0  0  0  0  0  0
    3.1711    0.6868    0.8090 H   0  0  0  0  0  0  0  0  0  0  0  0
    2.9552    2.0680   -1.2404 H   0  0  0  0  0  0  0  0  0  0  0  0
    3.5943    3.8901   -3.2114 H   0  0  0  0  0  0  0  0  0  0  0  0
    7.1467   -0.8402   -3.3009 H   0  0  0  0  0  0  0  0  0  0  0  0
    6.1177    0.1712   -4.3593 H   0  0  0  0  0  0  0  0  0  0  0  0
    4.9238   -0.4470   -7.0189 H   0  0  0  0  0  0  0  0  0  0  0  0
    3.8539   -1.8073   -6.6310 H   0  0  0  0  0  0  0  0  0  0  0  0
    5.0634   -1.7040   -9.1241 H   0  0  0  0  0  0  0  0  0  0  0  0
    4.8952   -3.2556   -8.2678 H   0  0  0  0  0  0  0  0  0  0  0  0
    7.3796   -1.4540   -8.3660 H   0  0  0  0  0  0  0  0  0  0  0  0
    7.3328   -3.2195   -8.5068 H   0  0  0  0  0  0  0  0  0  0  0  0
   10.7818   -4.2692   -5.3311 H   0  0  0  0  0  0  0  0  0  0  0  0
    9.2531   -5.1559   -5.5179 H   0  0  0  0  0  0  0  0  0  0  0  0
   11.2306   -6.1301   -3.8021 H   0  0  0  0  0  0  0  0  0  0  0  0
    9.5148   -6.2378   -3.3423 H   0  0  0  0  0  0  0  0  0  0  0  0
   11.5814   -4.1914   -2.3944 H   0  0  0  0  0  0  0  0  0  0  0  0
   10.2604   -4.9444   -1.4665 H   0  0  0  0  0  0  0  0  0  0  0  0
   11.4602   -1.4190   -1.3744 H   0  0  0  0  0  0  0  0  0  0  0  0
   10.1785   -0.2319   -1.0166 H   0  0  0  0  0  0  0  0  0  0  0  0
    9.0139    0.9507   -2.7788 H   0  0  0  0  0  0  0  0  0  0  0  0
    9.3517    3.3644   -5.2669 H   0  0  0  0  0  0  0  0  0  0  0  0
    8.1612    2.5746   -4.2258 H   0  0  0  0  0  0  0  0  0  0  0  0
    8.6114    1.9618   -7.2196 H   0  0  0  0  0  0  0  0  0  0  0  0
    7.2132    2.7840   -6.4756 H   0  0  0  0  0  0  0  0  0  0  0  0
    7.5030    1.0585   -6.1635 H   0  0  0  0  0  0  0  0  0  0  0  0
   10.9756    1.5070   -6.5692 H   0  0  0  0  0  0  0  0  0  0  0  0
   12.6209   -0.2276   -5.9590 H   0  0  0  0  0  0  0  0  0  0  0  0
   14.7076   -0.5981   -3.3959 H   0  0  0  0  0  0  0  0  0  0  0  0
    6.1341   -1.7415   -1.1688 H   0  0  0  0  0  0  0  0  0  0  0  0
  1  2  1  0
  1 41  1  0
  1 42  1  0
  1 43  1  0
  2  3  1  0
  2 44  1  0
  2 45  1  0
  3  4  2  0
  3 40  1  0
  4  5  1  0
  4 46  1  0
  5  6  2  0
  5 47  1  0
  6  7  1  0
  6 11  1  0
  7  8  2  0
  7  9  2  0
  7 10  1  1
 10 48  1  0
 11 12  1  0
 11 40  2  0
 12 13  1  0
 12 49  1  0
 12 50  1  0
 13 14  1  0
 14 15  1  0
 14 18  1  0
 15 16  1  0
 15 51  1  0
 15 52  1  0
 16 17  1  0
 16 53  1  0
 16 54  1  0
 17 18  1  0
 17 55  1  0
 17 56  1  0
 18 19  2  0
 19 20  1  0
 20 21  2  0
 21 22  1  0
 21 25  1  0
 22 23  1  0
 22 57  1  0
 22 58  1  0
 23 24  1  0
 23 59  1  0
 23 60  1  0
 24 25  1  0
 24 61  1  0
 24 62  1  0
 25 26  1  0
 26 27  1  0
 27 28  1  0
 27 63  1  0
 27 64  1  0
 28 29  2  0
 28 35  1  0
 29 30  1  0
 29 65  1  0
 30 31  1  0
 30 33  2  0
 31 32  1  0
 31 66  1  0
 31 67  1  0
 32 68  1  0
 32 69  1  0
 32 70  1  0
 33 34  1  0
 33 71  1  0
 34 35  2  0
 34 72  1  0
 35 36  1  0
 36 37  2  0
 36 38  2  0
 36 39  1  6
 39 73  1  0
 40 74  1  0
M  END

