
     RDKit          3D

 49 52  0  0  0  0  0  0  0  0999 V2000
    5.1536    2.4747   -2.5472 C   0  0  0  0  0  0  0  0  0  0  0  0
    4.2253    1.9496   -1.4512 C   0  0  0  0  0  0  0  0  0  0  0  0
    4.7964    2.1113   -0.0393 C   0  0  0  0  0  0  0  0  0  0  0  0
    3.8623    1.5826    1.0649 C   0  0  0  0  0  0  0  0  0  0  0  0
    4.4253    1.7421    2.4587 C   0  0  0  0  0  0  0  0  0  0  0  0
    4.1997    2.9115    3.2044 C   0  0  0  0  0  0  0  0  0  0  0  0
    4.7488    3.0792    4.4739 C   0  0  0  0  0  0  0  0  0  0  0  0
    5.5487    2.0775    5.0540 C   0  0  0  0  0  0  0  0  0  0  0  0
    6.1305    2.2277    6.4032 C   0  0  0  0  0  0  0  0  0  0  0  0
    5.8487    3.2273    7.3050 C   0  0  0  0  0  0  0  0  0  0  0  0
    6.7523    3.0104    8.7710 S   0  0  0  0  0  0  0  0  0  0  0  0
    7.4630    1.5662    8.0538 C   0  0  0  0  0  0  0  0  0  0  0  0
    8.3899    0.8381    8.7812 N   0  0  0  0  0  0  0  0  0  0  0  0
    9.0425   -0.3580    8.4923 C   0  0  0  0  0  0  0  0  0  0  0  0
    9.8641   -0.7904    9.2695 O   0  0  0  0  0  0  0  0  0  0  0  0
    8.6885   -1.0699    7.1862 C   0  0  0  0  0  0  0  0  0  0  0  0
    9.3309   -2.3696    7.1227 N   0  0  0  0  0  0  0  0  0  0  0  0
   10.6084   -2.4855    6.6402 C   0  0  0  0  0  0  0  0  0  0  0  0
   11.2931   -3.5840    6.5837 N   0  0  0  0  0  0  0  0  0  0  0  0
   10.6591   -4.6792    7.0764 C   0  0  0  0  0  0  0  0  0  0  0  0
   11.3818   -6.2671    7.1076 S   0  0  0  0  0  0  0  0  0  0  0  0
    9.9521   -6.9359    7.8494 C   0  0  0  0  0  0  0  0  0  0  0  0
    8.9761   -6.0023    8.0646 C   0  0  0  0  0  0  0  0  0  0  0  0
    9.3735   -4.7030    7.6213 C   0  0  0  0  0  0  0  0  0  0  0  0
    8.6154   -3.4667    7.6907 C   0  0  0  0  0  0  0  0  0  0  0  0
    7.4985   -3.3086    8.1512 O   0  0  0  0  0  0  0  0  0  0  0  0
    7.0523    1.2987    6.8551 N   0  0  0  0  0  0  0  0  0  0  0  0
    5.7789    0.9073    4.3096 C   0  0  0  0  0  0  0  0  0  0  0  0
    5.2259    0.7464    3.0393 C   0  0  0  0  0  0  0  0  0  0  0  0
    4.7127    2.3429   -3.5482 H   0  0  0  0  0  0  0  0  0  0  0  0
    6.1226    1.9479   -2.5385 H   0  0  0  0  0  0  0  0  0  0  0  0
    5.3629    3.5495   -2.4147 H   0  0  0  0  0  0  0  0  0  0  0  0
    4.0050    0.8818   -1.6333 H   0  0  0  0  0  0  0  0  0  0  0  0
    3.2516    2.4695   -1.5107 H   0  0  0  0  0  0  0  0  0  0  0  0
    5.0150    3.1775    0.1522 H   0  0  0  0  0  0  0  0  0  0  0  0
    5.7681    1.5898    0.0295 H   0  0  0  0  0  0  0  0  0  0  0  0
    3.6503    0.5163    0.8746 H   0  0  0  0  0  0  0  0  0  0  0  0
    2.8941    2.1082    0.9970 H   0  0  0  0  0  0  0  0  0  0  0  0
    3.5797    3.7073    2.7813 H   0  0  0  0  0  0  0  0  0  0  0  0
    4.5542    4.0084    5.0142 H   0  0  0  0  0  0  0  0  0  0  0  0
    5.1611    4.0631    7.2059 H   0  0  0  0  0  0  0  0  0  0  0  0
    8.6757    1.2167    9.6805 H   0  0  0  0  0  0  0  0  0  0  0  0
    8.9829   -0.4471    6.3296 H   0  0  0  0  0  0  0  0  0  0  0  0
    7.6024   -1.2086    7.1259 H   0  0  0  0  0  0  0  0  0  0  0  0
   11.0533   -1.5560    6.2674 H   0  0  0  0  0  0  0  0  0  0  0  0
    9.9214   -7.9986    8.0867 H   0  0  0  0  0  0  0  0  0  0  0  0
    8.0078   -6.2119    8.5189 H   0  0  0  0  0  0  0  0  0  0  0  0
    6.3915    0.1172    4.7453 H   0  0  0  0  0  0  0  0  0  0  0  0
    5.4155   -0.1795    2.4880 H   0  0  0  0  0  0  0  0  0  0  0  0
  1  2  1  0
  1 30  1  0
  1 31  1  0
  1 32  1  0
  2  3  1  0
  2 33  1  0
  2 34  1  0
  3  4  1  0
  3 35  1  0
  3 36  1  0
  4  5  1  0
  4 37  1  0
  4 38  1  0
  5  6  2  0
  5 29  1  0
  6  7  1  0
  6 39  1  0
  7  8  2  0
  7 40  1  0
  8  9  1  0
  8 28  1  0
  9 10  2  0
  9 27  1  0
 10 11  1  0
 10 41  1  0
 11 12  1  0
 12 13  1  0
 12 27  2  0
 13 14  1  0
 13 42  1  0
 14 15  2  0
 14 16  1  0
 16 17  1  0
 16 43  1  0
 16 44  1  0
 17 18  1  0
 17 25  1  0
 18 19  2  0
 18 45  1  0
 19 20  1  0
 20 21  2  0
 20 24  1  0
 21 22  1  0
 22 23  2  0
 22 46  1  0
 23 24  1  0
 23 47  1  0
 24 25  2  0
 25 26  1  0
 28 29  2  0
 28 48  1  0
 29 49  1  0
M  CHG  2  21   1  26  -1
M  END

