
     RDKit          3D

 47 49  0  0  0  0  0  0  0  0999 V2000
    2.7530    0.5251   -1.1058 C   0  0  0  0  0  0  0  0  0  0  0  0
    2.5455    1.7615   -0.2309 C   0  0  0  0  0  0  0  0  0  0  0  0
    2.8104    1.5275    1.2627 C   0  0  0  0  0  0  0  0  0  0  0  0
    4.1792    1.1381    1.5719 N   0  0  0  0  0  0  0  0  0  0  0  0
    5.1441    2.0425    1.8985 C   0  0  0  0  0  0  0  0  0  0  0  0
    4.9226    3.2421    1.9935 O   0  0  0  0  0  0  0  0  0  0  0  0
    6.5448    1.4636    2.0985 C   0  0  0  0  0  0  0  0  0  0  0  0
    7.3245    2.2039    3.2114 C   0  0  1  0  0  0  0  0  0  0  0  0
    6.7584    1.8394    4.5922 C   0  0  0  0  0  0  0  0  0  0  0  0
    5.6565    2.5431    5.1118 C   0  0  0  0  0  0  0  0  0  0  0  0
    5.1065    2.1912    6.3481 C   0  0  0  0  0  0  0  0  0  0  0  0
    5.6372    1.1338    7.0917 C   0  0  0  0  0  0  0  0  0  0  0  0
    6.7266    0.4444    6.5653 C   0  0  0  0  0  0  0  0  0  0  0  0
    7.2533   -0.5736    7.2644 F   0  0  0  0  0  0  0  0  0  0  0  0
    7.2934    0.7786    5.3378 C   0  0  0  0  0  0  0  0  0  0  0  0
    8.8053    1.9499    3.0742 C   0  0  0  0  0  0  0  0  0  0  0  0
    9.4349    0.8501    2.5045 C   0  0  0  0  0  0  0  0  0  0  0  0
   10.7820    0.8877    2.6253 N   0  0  0  0  0  0  0  0  0  0  0  0
   11.0415    2.0127    3.2748 C   0  0  0  0  0  0  0  0  0  0  0  0
   12.2969    2.5354    3.6687 C   0  0  0  0  0  0  0  0  0  0  0  0
   12.3465    3.7312    4.3377 C   0  0  0  0  0  0  0  0  0  0  0  0
   11.1404    4.4338    4.6087 C   0  0  0  0  0  0  0  0  0  0  0  0
    9.9055    3.9563    4.2334 C   0  0  0  0  0  0  0  0  0  0  0  0
    8.6551    4.7492    4.4798 C   0  0  0  0  0  0  0  0  0  0  0  0
    9.8524    2.7268    3.5814 N   0  0  0  0  0  0  0  0  0  0  0  0
    2.5466    0.7440   -2.1652 H   0  0  0  0  0  0  0  0  0  0  0  0
    2.0872   -0.3014   -0.8027 H   0  0  0  0  0  0  0  0  0  0  0  0
    3.7912    0.1586   -1.0457 H   0  0  0  0  0  0  0  0  0  0  0  0
    1.5075    2.1233   -0.3356 H   0  0  0  0  0  0  0  0  0  0  0  0
    3.1949    2.5845   -0.5741 H   0  0  0  0  0  0  0  0  0  0  0  0
    2.1355    0.7454    1.6508 H   0  0  0  0  0  0  0  0  0  0  0  0
    2.6089    2.4526    1.8216 H   0  0  0  0  0  0  0  0  0  0  0  0
    4.4357    0.1607    1.5129 H   0  0  0  0  0  0  0  0  0  0  0  0
    7.0757    1.6020    1.1412 H   0  0  0  0  0  0  0  0  0  0  0  0
    6.5037    0.3805    2.2942 H   0  0  0  0  0  0  0  0  0  0  0  0
    7.1029    3.2637    3.0348 H   0  0  0  0  0  0  0  0  0  0  0  0
    5.2265    3.3635    4.5341 H   0  0  0  0  0  0  0  0  0  0  0  0
    4.2526    2.7497    6.7400 H   0  0  0  0  0  0  0  0  0  0  0  0
    5.2298    0.8417    8.0614 H   0  0  0  0  0  0  0  0  0  0  0  0
    8.1551    0.2107    4.9819 H   0  0  0  0  0  0  0  0  0  0  0  0
    8.9392    0.0166    2.0062 H   0  0  0  0  0  0  0  0  0  0  0  0
   13.1840    1.9523    3.4196 H   0  0  0  0  0  0  0  0  0  0  0  0
   13.3015    4.1543    4.6564 H   0  0  0  0  0  0  0  0  0  0  0  0
   11.1780    5.3965    5.1210 H   0  0  0  0  0  0  0  0  0  0  0  0
    8.9118    5.6615    5.0343 H   0  0  0  0  0  0  0  0  0  0  0  0
    7.9119    4.1926    5.0687 H   0  0  0  0  0  0  0  0  0  0  0  0
    8.1742    5.0561    3.5370 H   0  0  0  0  0  0  0  0  0  0  0  0
  1  2  1  0
  1 26  1  0
  1 27  1  0
  1 28  1  0
  2  3  1  0
  2 29  1  0
  2 30  1  0
  3  4  1  0
  3 31  1  0
  3 32  1  0
  4  5  1  0
  4 33  1  0
  5  6  2  0
  5  7  1  0
  7  8  1  0
  7 34  1  0
  7 35  1  0
  8  9  1  0
  8 16  1  0
  8 36  1  6
  9 10  2  0
  9 15  1  0
 10 11  1  0
 10 37  1  0
 11 12  2  0
 11 38  1  0
 12 13  1  0
 12 39  1  0
 13 14  1  0
 13 15  2  0
 15 40  1  0
 16 17  2  0
 16 25  1  0
 17 18  1  0
 17 41  1  0
 18 19  2  0
 19 20  1  0
 19 25  1  0
 20 21  2  0
 20 42  1  0
 21 22  1  0
 21 43  1  0
 22 23  2  0
 22 44  1  0
 23 24  1  0
 23 25  1  0
 24 45  1  0
 24 46  1  0
 24 47  1  0
M  END

