
     RDKit          3D

 49 50  0  0  0  0  0  0  0  0999 V2000
   -0.0146   -1.7710    0.3764 C   0  0  0  0  0  0  0  0  0  0  0  0
    1.4346   -1.6291    0.4472 N   0  0  0  0  0  0  0  0  0  0  0  0
    2.2569   -1.9519   -0.5849 C   0  0  0  0  0  0  0  0  0  0  0  0
    3.4802   -1.9020   -0.5181 O   0  0  0  0  0  0  0  0  0  0  0  0
    1.6128   -2.3693   -1.9256 C   0  0  0  0  0  0  0  0  0  0  0  0
    2.6687   -2.6453   -2.8838 N   0  0  0  0  0  0  0  0  0  0  0  0
    2.7066   -4.1507   -3.6537 S   0  0  1  0  0  0  0  0  0  0  0  0
    4.1162   -4.5647   -3.6733 O   0  0  0  0  0  0  0  0  0  0  0  0
    1.6789   -5.0221   -3.0590 O   0  0  0  0  0  0  0  0  0  0  0  0
    2.1357   -3.7529   -5.3529 C   0  0  1  0  0  0  0  0  0  0  0  0
    3.0771   -2.7848   -6.0861 C   0  0  0  0  0  0  0  0  0  0  0  0
    4.3412   -3.4516   -6.6496 C   0  0  0  0  0  0  0  0  0  0  0  0
    4.0068   -4.6994   -7.4775 C   0  0  0  0  0  0  0  0  0  0  0  0
    3.1667   -5.6985   -6.6713 C   0  0  0  0  0  0  0  0  0  0  0  0
    1.8805   -5.0497   -6.1410 C   0  0  0  0  0  0  0  0  0  0  0  0
    1.9350   -1.1480    1.7680 C   0  0  1  0  0  0  0  0  0  0  0  0
    2.5859   -2.2460    2.6453 C   0  0  0  0  0  0  0  0  0  0  0  0
    4.1087   -2.3847    2.5125 C   0  0  0  0  0  0  0  0  0  0  0  0
    4.8036   -1.0300    2.6983 C   0  0  0  0  0  0  0  0  0  0  0  0
    4.2991    0.0039    1.6836 C   0  0  0  0  0  0  0  0  0  0  0  0
    2.7709    0.1579    1.7386 C   0  0  0  0  0  0  0  0  0  0  0  0
   -0.3340   -2.2335   -0.5625 H   0  0  0  0  0  0  0  0  0  0  0  0
   -0.5165   -0.7913    0.4631 H   0  0  0  0  0  0  0  0  0  0  0  0
   -0.3791   -2.4123    1.1966 H   0  0  0  0  0  0  0  0  0  0  0  0
    0.9566   -1.5543   -2.2807 H   0  0  0  0  0  0  0  0  0  0  0  0
    0.9876   -3.2665   -1.7887 H   0  0  0  0  0  0  0  0  0  0  0  0
    3.5867   -2.4717   -2.4539 H   0  0  0  0  0  0  0  0  0  0  0  0
    1.1754   -3.2567   -5.1385 H   0  0  0  0  0  0  0  0  0  0  0  0
    3.3316   -1.9411   -5.4257 H   0  0  0  0  0  0  0  0  0  0  0  0
    2.4896   -2.3580   -6.9198 H   0  0  0  0  0  0  0  0  0  0  0  0
    5.0028   -3.7337   -5.8164 H   0  0  0  0  0  0  0  0  0  0  0  0
    4.8902   -2.7185   -7.2640 H   0  0  0  0  0  0  0  0  0  0  0  0
    4.9351   -5.1794   -7.8290 H   0  0  0  0  0  0  0  0  0  0  0  0
    3.4479   -4.4020   -8.3856 H   0  0  0  0  0  0  0  0  0  0  0  0
    3.7616   -6.0783   -5.8244 H   0  0  0  0  0  0  0  0  0  0  0  0
    2.9034   -6.5707   -7.2924 H   0  0  0  0  0  0  0  0  0  0  0  0
    1.3036   -5.7510   -5.5192 H   0  0  0  0  0  0  0  0  0  0  0  0
    1.2321   -4.7755   -6.9929 H   0  0  0  0  0  0  0  0  0  0  0  0
    0.9981   -0.8769    2.2745 H   0  0  0  0  0  0  0  0  0  0  0  0
    2.0815   -3.2079    2.4539 H   0  0  0  0  0  0  0  0  0  0  0  0
    2.3570   -1.9853    3.6949 H   0  0  0  0  0  0  0  0  0  0  0  0
    4.3653   -2.7941    1.5249 H   0  0  0  0  0  0  0  0  0  0  0  0
    4.4676   -3.1036    3.2688 H   0  0  0  0  0  0  0  0  0  0  0  0
    5.8960   -1.1471    2.6044 H   0  0  0  0  0  0  0  0  0  0  0  0
    4.6194   -0.6626    3.7268 H   0  0  0  0  0  0  0  0  0  0  0  0
    4.6070   -0.3010    0.6752 H   0  0  0  0  0  0  0  0  0  0  0  0
    4.7580    0.9872    1.8858 H   0  0  0  0  0  0  0  0  0  0  0  0
    2.4100    0.8005    0.9185 H   0  0  0  0  0  0  0  0  0  0  0  0
    2.5195    0.6922    2.6729 H   0  0  0  0  0  0  0  0  0  0  0  0
  1  2  1  0
  1 22  1  0
  1 23  1  0
  1 24  1  0
  2  3  1  0
  2 16  1  0
  3  4  2  0
  3  5  1  0
  5  6  1  0
  5 25  1  0
  5 26  1  0
  7  6  1  1
  6 27  1  0
  7  8  2  0
  7  9  2  0
  7 10  1  0
 10 11  1  0
 10 15  1  0
 10 28  1  1
 11 12  1  0
 11 29  1  0
 11 30  1  0
 12 13  1  0
 12 31  1  0
 12 32  1  0
 13 14  1  0
 13 33  1  0
 13 34  1  0
 14 15  1  0
 14 35  1  0
 14 36  1  0
 15 37  1  0
 15 38  1  0
 16 17  1  0
 16 21  1  0
 16 39  1  1
 17 18  1  0
 17 40  1  0
 17 41  1  0
 18 19  1  0
 18 42  1  0
 18 43  1  0
 19 20  1  0
 19 44  1  0
 19 45  1  0
 20 21  1  0
 20 46  1  0
 20 47  1  0
 21 48  1  0
 21 49  1  0
M  END

