
     RDKit          3D

 34 36  0  0  0  0  0  0  0  0999 V2000
    0.9817    0.0769    0.2352 O   0  0  0  0  0  0  0  0  0  0  0  0
    2.1953   -0.0315    0.1504 C   0  0  0  0  0  0  0  0  0  0  0  0
    2.9729    1.0943   -0.1861 N   0  0  0  0  0  0  0  0  0  0  0  0
    2.4322    1.9349   -0.3672 H   0  0  0  0  0  0  0  0  0  0  0  0
    4.3301    1.0889   -0.3047 C   0  0  0  0  0  0  0  0  0  0  0  0
    5.0252    2.3588   -0.6456 C   0  0  0  0  0  0  0  0  0  0  0  0
    4.3919    3.6121   -0.5840 C   0  0  0  0  0  0  0  0  0  0  0  0
    5.0933    4.7731   -0.9167 C   0  0  0  0  0  0  0  0  0  0  0  0
    6.4302    4.7077   -1.3123 C   0  0  0  0  0  0  0  0  0  0  0  0
    7.0599    3.4585   -1.3638 C   0  0  0  0  0  0  0  0  0  0  0  0
    8.7350    3.3620   -1.8528 Cl  0  0  0  0  0  0  0  0  0  0  0  0
    6.3747    2.2916   -1.0333 C   0  0  0  0  0  0  0  0  0  0  0  0
    5.0203   -0.0030   -0.1274 N   0  0  0  0  0  0  0  0  0  0  0  0
    4.3614   -1.1649    0.1952 C   0  0  0  0  0  0  0  0  0  0  0  0
    2.9927   -1.2377    0.3557 C   0  0  0  0  0  0  0  0  0  0  0  0
    2.2466   -2.4984    0.7137 C   0  0  0  0  0  0  0  0  0  0  0  0
    2.3893   -3.6574   -0.2910 C   0  0  0  0  0  0  0  0  0  0  0  0
    3.7363   -4.3882   -0.2548 C   0  0  0  0  0  0  0  0  0  0  0  0
    4.9694   -3.5430   -0.5962 C   0  0  0  0  0  0  0  0  0  0  0  0
    5.2539   -2.3744    0.3668 C   0  0  0  0  0  0  0  0  0  0  0  0
    3.3550    3.7072   -0.2543 H   0  0  0  0  0  0  0  0  0  0  0  0
    4.5941    5.7432   -0.8613 H   0  0  0  0  0  0  0  0  0  0  0  0
    6.9858    5.6091   -1.5754 H   0  0  0  0  0  0  0  0  0  0  0  0
    6.8653    1.3195   -1.0683 H   0  0  0  0  0  0  0  0  0  0  0  0
    1.1859   -2.2263    0.8085 H   0  0  0  0  0  0  0  0  0  0  0  0
    2.5710   -2.8498    1.7118 H   0  0  0  0  0  0  0  0  0  0  0  0
    2.1935   -3.2775   -1.3095 H   0  0  0  0  0  0  0  0  0  0  0  0
    1.5928   -4.3916   -0.0810 H   0  0  0  0  0  0  0  0  0  0  0  0
    3.6942   -5.2456   -0.9487 H   0  0  0  0  0  0  0  0  0  0  0  0
    3.8759   -4.8239    0.7527 H   0  0  0  0  0  0  0  0  0  0  0  0
    4.8863   -3.1513   -1.6257 H   0  0  0  0  0  0  0  0  0  0  0  0
    5.8522   -4.2046   -0.5930 H   0  0  0  0  0  0  0  0  0  0  0  0
    6.2874   -2.0257    0.2335 H   0  0  0  0  0  0  0  0  0  0  0  0
    5.1724   -2.7395    1.4079 H   0  0  0  0  0  0  0  0  0  0  0  0
  1  2  2  0
  2  3  1  0
  2 15  1  0
  3  4  1  0
  3  5  1  0
  5  6  1  0
  5 13  2  0
  6  7  2  0
  6 12  1  0
  7  8  1  0
  7 21  1  0
  8  9  2  0
  8 22  1  0
  9 10  1  0
  9 23  1  0
 10 11  1  0
 10 12  2  0
 12 24  1  0
 13 14  1  0
 14 15  2  0
 14 20  1  0
 15 16  1  0
 16 17  1  0
 16 25  1  0
 16 26  1  0
 17 18  1  0
 17 27  1  0
 17 28  1  0
 18 19  1  0
 18 29  1  0
 18 30  1  0
 19 20  1  0
 19 31  1  0
 19 32  1  0
 20 33  1  0
 20 34  1  0
M  END

