
     RDKit          3D

 64 66  0  0  0  0  0  0  0  0999 V2000
    0.7943   -0.5461   -2.3384 C   0  0  0  0  0  0  0  0  0  0  0  0
    2.2146   -0.4768   -2.4670 O   0  0  0  0  0  0  0  0  0  0  0  0
    2.7741    0.7336   -2.2727 C   0  0  0  0  0  0  0  0  0  0  0  0
    2.1289    1.7233   -2.0235 O   0  0  0  0  0  0  0  0  0  0  0  0
    4.2924    0.6528   -2.3623 C   0  0  2  0  0  0  0  0  0  0  0  0
    4.5364   -0.0667   -3.1569 H   0  0  0  0  0  0  0  0  0  0  0  0
    4.8185    0.1005   -1.0227 C   0  0  0  0  0  0  0  0  0  0  0  0
    4.8681    2.0434   -2.7147 C   0  0  2  0  0  0  0  0  0  0  0  0
    4.4919    2.7514   -1.9671 H   0  0  0  0  0  0  0  0  0  0  0  0
    4.4550    2.5515   -4.0997 C   0  0  0  0  0  0  0  0  0  0  0  0
    6.3423    2.0975   -2.5339 N   0  0  0  0  0  0  0  0  0  0  0  0
    6.8656    3.0437   -1.5863 C   0  0  0  0  0  0  0  0  0  0  0  0
    6.1161    3.7859   -0.9935 O   0  0  0  0  0  0  0  0  0  0  0  0
    8.2223    3.0219   -1.3828 N   0  0  0  0  0  0  0  0  0  0  0  0
    9.0025    2.2691   -2.0947 C   0  0  0  0  0  0  0  0  0  0  0  0
   10.3466    2.2317   -1.8804 N   0  0  0  0  0  0  0  0  0  0  0  0
   11.1454    2.9659   -0.9689 C   0  0  0  0  0  0  0  0  0  0  0  0
   12.5001    2.6130   -0.8914 C   0  0  0  0  0  0  0  0  0  0  0  0
   13.3744    3.2910   -0.0416 C   0  0  0  0  0  0  0  0  0  0  0  0
   12.9238    4.3476    0.7648 C   0  0  0  0  0  0  0  0  0  0  0  0
   13.6811    5.0524    1.6309 O   0  0  0  0  0  0  0  0  0  0  0  0
   15.0890    4.8188    1.7738 C   0  0  1  0  0  0  0  0  0  0  0  0
   15.8657    5.5046    0.6512 C   0  0  0  0  0  0  0  0  0  0  0  0
   15.4595    5.3440    3.1545 C   0  0  0  0  0  0  0  0  0  0  0  0
   11.5558    4.6920    0.6752 C   0  0  0  0  0  0  0  0  0  0  0  0
   10.9503    5.9948    1.6627 Cl  0  0  0  0  0  0  0  0  0  0  0  0
   10.6745    4.0195   -0.1681 C   0  0  0  0  0  0  0  0  0  0  0  0
    8.5344    1.4545   -3.1240 N   0  0  0  0  0  0  0  0  0  0  0  0
    9.4173    0.7845   -4.0903 C   0  0  0  0  0  0  0  0  0  0  0  0
   10.1127   -0.4618   -3.5728 C   0  0  0  0  0  0  0  0  0  0  0  0
    9.3800   -1.4893   -2.9558 C   0  0  0  0  0  0  0  0  0  0  0  0
   10.0115   -2.6474   -2.5045 C   0  0  0  0  0  0  0  0  0  0  0  0
   11.3936   -2.7918   -2.6757 C   0  0  0  0  0  0  0  0  0  0  0  0
   12.1879   -4.2401   -2.1104 Cl  0  0  0  0  0  0  0  0  0  0  0  0
   12.1413   -1.7900   -3.2975 C   0  0  0  0  0  0  0  0  0  0  0  0
   11.4946   -0.6318   -3.7408 C   0  0  0  0  0  0  0  0  0  0  0  0
    7.1432    1.3027   -3.3189 C   0  0  0  0  0  0  0  0  0  0  0  0
    6.7221    0.5072   -4.1410 O   0  0  0  0  0  0  0  0  0  0  0  0
    0.5203   -1.5917   -2.5261 H   0  0  0  0  0  0  0  0  0  0  0  0
    0.3025    0.1142   -3.0688 H   0  0  0  0  0  0  0  0  0  0  0  0
    0.4758   -0.2431   -1.3293 H   0  0  0  0  0  0  0  0  0  0  0  0
    4.3384   -0.8613   -0.7901 H   0  0  0  0  0  0  0  0  0  0  0  0
    4.6138    0.8020   -0.1984 H   0  0  0  0  0  0  0  0  0  0  0  0
    5.9045   -0.0681   -1.0633 H   0  0  0  0  0  0  0  0  0  0  0  0
    4.8819    3.5507   -4.2770 H   0  0  0  0  0  0  0  0  0  0  0  0
    3.3612    2.6496   -4.1431 H   0  0  0  0  0  0  0  0  0  0  0  0
    4.7887    1.8758   -4.8994 H   0  0  0  0  0  0  0  0  0  0  0  0
   10.8485    1.4813   -2.3395 H   0  0  0  0  0  0  0  0  0  0  0  0
   12.8876    1.7941   -1.5044 H   0  0  0  0  0  0  0  0  0  0  0  0
   14.4194    2.9835   -0.0144 H   0  0  0  0  0  0  0  0  0  0  0  0
   15.2759    3.7294    1.7483 H   0  0  0  0  0  0  0  0  0  0  0  0
   15.6907    6.5915    0.6804 H   0  0  0  0  0  0  0  0  0  0  0  0
   15.5614    5.1370   -0.3401 H   0  0  0  0  0  0  0  0  0  0  0  0
   16.9461    5.3230    0.7652 H   0  0  0  0  0  0  0  0  0  0  0  0
   15.2444    6.4217    3.2234 H   0  0  0  0  0  0  0  0  0  0  0  0
   16.5310    5.1868    3.3518 H   0  0  0  0  0  0  0  0  0  0  0  0
   14.8786    4.8278    3.9329 H   0  0  0  0  0  0  0  0  0  0  0  0
    9.6253    4.3008   -0.1960 H   0  0  0  0  0  0  0  0  0  0  0  0
   10.1573    1.5147   -4.4534 H   0  0  0  0  0  0  0  0  0  0  0  0
    8.7674    0.5156   -4.9336 H   0  0  0  0  0  0  0  0  0  0  0  0
    8.2981   -1.3868   -2.8436 H   0  0  0  0  0  0  0  0  0  0  0  0
    9.4393   -3.4442   -2.0265 H   0  0  0  0  0  0  0  0  0  0  0  0
   13.2166   -1.9171   -3.4322 H   0  0  0  0  0  0  0  0  0  0  0  0
   12.0834    0.1457   -4.2381 H   0  0  0  0  0  0  0  0  0  0  0  0
  1  2  1  0
  1 39  1  0
  1 40  1  0
  1 41  1  0
  2  3  1  0
  3  4  2  0
  3  5  1  0
  5  6  1  6
  5  7  1  0
  5  8  1  0
  7 42  1  0
  7 43  1  0
  7 44  1  0
  8  9  1  1
  8 10  1  0
  8 11  1  0
 10 45  1  0
 10 46  1  0
 10 47  1  0
 11 12  1  0
 11 37  1  0
 12 13  2  0
 12 14  1  0
 14 15  2  0
 15 16  1  0
 15 28  1  0
 16 17  1  0
 16 48  1  0
 17 18  2  0
 17 27  1  0
 18 19  1  0
 18 49  1  0
 19 20  2  0
 19 50  1  0
 20 21  1  0
 20 25  1  0
 21 22  1  0
 22 23  1  0
 22 24  1  0
 22 51  1  1
 23 52  1  0
 23 53  1  0
 23 54  1  0
 24 55  1  0
 24 56  1  0
 24 57  1  0
 25 26  1  0
 25 27  2  0
 27 58  1  0
 28 29  1  0
 28 37  1  0
 29 30  1  0
 29 59  1  0
 29 60  1  0
 30 31  2  0
 30 36  1  0
 31 32  1  0
 31 61  1  0
 32 33  2  0
 32 62  1  0
 33 34  1  0
 33 35  1  0
 35 36  2  0
 35 63  1  0
 36 64  1  0
 37 38  2  0
M  END

