
     RDKit          3D

 44 47  0  0  0  0  0  0  0  0999 V2000
    1.5760    0.6194    0.8228 O   0  0  0  0  0  0  0  0  0  0  0  0
    2.5858    0.2876    0.2347 C   0  0  0  0  0  0  0  0  0  0  0  0
    3.4032   -0.9505    0.5727 C   0  0  0  0  0  0  0  0  0  0  0  0
    4.0812   -1.5673   -0.6560 C   0  0  0  0  0  0  0  0  0  0  0  0
    4.8303   -0.5195   -1.4444 C   0  0  0  0  0  0  0  0  0  0  0  0
    6.0038   -0.7658   -2.1593 C   0  0  0  0  0  0  0  0  0  0  0  0
    6.6350    0.2124   -2.9319 C   0  0  0  0  0  0  0  0  0  0  0  0
    6.0734    1.4999   -2.9947 C   0  0  0  0  0  0  0  0  0  0  0  0
    6.6266    2.5550   -3.7404 N   0  0  0  0  0  0  0  0  0  0  0  0
    7.7604    2.5577   -4.5308 C   0  0  0  0  0  0  0  0  0  0  0  0
    8.4663    1.5780   -4.7092 O   0  0  0  0  0  0  0  0  0  0  0  0
    8.0870    3.8560   -5.1780 C   0  0  0  0  0  0  0  0  0  0  0  0
    9.1323    4.0302   -6.0618 C   0  0  0  0  0  0  0  0  0  0  0  0
    9.2456    5.3564   -6.5629 C   0  0  0  0  0  0  0  0  0  0  0  0
    8.2754    6.1992   -6.0482 C   0  0  0  0  0  0  0  0  0  0  0  0
    7.2322    5.3637   -4.9466 S   0  0  0  0  0  0  0  0  0  0  0  0
    8.1640    7.6600   -6.3770 C   0  0  0  0  0  0  0  0  0  0  0  0
    9.3862    8.5043   -5.9079 C   0  0  0  0  0  0  0  0  0  0  0  0
   10.6989    7.7298   -5.7044 C   0  0  0  0  0  0  0  0  0  0  0  0
   11.2475    6.9337   -6.9007 C   0  0  0  0  0  0  0  0  0  0  0  0
   10.2785    5.8895   -7.5247 C   0  0  0  0  0  0  0  0  0  0  0  0
    4.8991    1.7738   -2.2697 C   0  0  0  0  0  0  0  0  0  0  0  0
    4.2841    0.7791   -1.5045 C   0  0  0  0  0  0  0  0  0  0  0  0
    3.1078    1.0546   -0.7904 N   0  0  0  0  0  0  0  0  0  0  0  0
    2.7338   -1.6546    1.0853 H   0  0  0  0  0  0  0  0  0  0  0  0
    4.1674   -0.6349    1.3070 H   0  0  0  0  0  0  0  0  0  0  0  0
    3.3079   -2.0277   -1.3007 H   0  0  0  0  0  0  0  0  0  0  0  0
    4.7569   -2.3826   -0.3554 H   0  0  0  0  0  0  0  0  0  0  0  0
    6.4432   -1.7670   -2.1210 H   0  0  0  0  0  0  0  0  0  0  0  0
    7.5451   -0.0029   -3.4845 H   0  0  0  0  0  0  0  0  0  0  0  0
    6.1050    3.4227   -3.6927 H   0  0  0  0  0  0  0  0  0  0  0  0
    9.7865    3.1999   -6.3311 H   0  0  0  0  0  0  0  0  0  0  0  0
    7.2356    8.0849   -5.9662 H   0  0  0  0  0  0  0  0  0  0  0  0
    8.0692    7.7401   -7.4746 H   0  0  0  0  0  0  0  0  0  0  0  0
    9.1374    8.9874   -4.9483 H   0  0  0  0  0  0  0  0  0  0  0  0
    9.5392    9.3248   -6.6297 H   0  0  0  0  0  0  0  0  0  0  0  0
   10.5684    7.0402   -4.8540 H   0  0  0  0  0  0  0  0  0  0  0  0
   11.4731    8.4483   -5.3853 H   0  0  0  0  0  0  0  0  0  0  0  0
   12.1587    6.4164   -6.5566 H   0  0  0  0  0  0  0  0  0  0  0  0
   11.5759    7.6268   -7.6944 H   0  0  0  0  0  0  0  0  0  0  0  0
   10.8570    5.0578   -7.9549 H   0  0  0  0  0  0  0  0  0  0  0  0
    9.7476    6.3553   -8.3735 H   0  0  0  0  0  0  0  0  0  0  0  0
    4.4620    2.7769   -2.2964 H   0  0  0  0  0  0  0  0  0  0  0  0
    2.6185    1.9284   -0.9600 H   0  0  0  0  0  0  0  0  0  0  0  0
  1  2  2  0
  2  3  1  0
  2 24  1  0
  3  4  1  0
  3 25  1  0
  3 26  1  0
  4  5  1  0
  4 27  1  0
  4 28  1  0
  5  6  1  0
  5 23  2  0
  6  7  2  0
  6 29  1  0
  7  8  1  0
  7 30  1  0
  8  9  1  0
  8 22  2  0
  9 10  1  0
  9 31  1  0
 10 11  2  0
 10 12  1  0
 12 13  2  0
 12 16  1  0
 13 14  1  0
 13 32  1  0
 14 15  2  0
 14 21  1  0
 15 16  1  0
 15 17  1  0
 17 18  1  0
 17 33  1  0
 17 34  1  0
 18 19  1  0
 18 35  1  0
 18 36  1  0
 19 20  1  0
 19 37  1  0
 19 38  1  0
 20 21  1  0
 20 39  1  0
 20 40  1  0
 21 41  1  0
 21 42  1  0
 22 23  1  0
 22 43  1  0
 23 24  1  0
 24 44  1  0
M  END

