
     RDKit          3D

 63 66  0  0  0  0  0  0  0  0999 V2000
    1.0714  -14.5421    9.2372 C   0  0  0  0  0  0  0  0  0  0  0  0
    0.8329  -13.0407    9.0098 C   0  0  0  0  0  0  0  0  0  0  0  0
    0.7264  -12.6699    7.5469 C   0  0  0  0  0  0  0  0  0  0  0  0
   -0.5105  -12.7103    6.8788 C   0  0  0  0  0  0  0  0  0  0  0  0
   -0.6067  -12.3986    5.5250 C   0  0  0  0  0  0  0  0  0  0  0  0
    0.5392  -12.0636    4.7834 C   0  0  0  0  0  0  0  0  0  0  0  0
    0.3644  -11.6649    3.3453 C   0  0  0  0  0  0  0  0  0  0  0  0
   -0.7009  -11.1826    2.9811 O   0  0  0  0  0  0  0  0  0  0  0  0
    1.4774  -11.8170    2.3776 C   0  0  0  0  0  0  0  0  0  0  0  0
    1.5478  -11.0094    1.2575 C   0  0  0  0  0  0  0  0  0  0  0  0
    2.6209  -11.3472    0.4777 N   0  0  0  0  0  0  0  0  0  0  0  0
    3.0209  -10.6352   -0.7202 C   0  0  2  0  0  0  0  0  0  0  0  0
    3.9542  -11.1111   -1.0790 H   0  0  0  0  0  0  0  0  0  0  0  0
    3.2774   -9.3078   -0.3386 O   0  0  0  0  0  0  0  0  0  0  0  0
    3.8280   -8.4904   -1.3671 C   0  0  2  0  0  0  0  0  0  0  0  0
    4.7651   -8.9699   -1.7311 H   0  0  0  0  0  0  0  0  0  0  0  0
    4.1856   -7.1577   -0.7068 C   0  0  0  0  0  0  0  0  0  0  0  0
    5.1492   -7.2998    0.4723 C   0  0  0  0  0  0  0  0  0  0  0  0
    2.8510   -8.3898   -2.5572 C   0  0  1  0  0  0  0  0  0  0  0  0
    1.9446   -7.8793   -2.1798 H   0  0  0  0  0  0  0  0  0  0  0  0
    3.4484   -7.5535   -3.6972 C   0  0  0  0  0  0  0  0  0  0  0  0
    2.4259   -9.8076   -3.0325 C   0  0  2  0  0  0  0  0  0  0  0  0
    3.3261  -10.2843   -3.4718 H   0  0  0  0  0  0  0  0  0  0  0  0
    1.3457   -9.7479   -4.1222 C   0  0  0  0  0  0  0  0  0  0  0  0
    1.9734  -10.7019   -1.8476 C   0  0  1  0  0  0  0  0  0  0  0  0
    1.0419  -10.2692   -1.4392 H   0  0  0  0  0  0  0  0  0  0  0  0
    1.7082  -12.1567   -2.2523 C   0  0  0  0  0  0  0  0  0  0  0  0
    3.2840  -12.4176    1.0745 C   0  0  0  0  0  0  0  0  0  0  0  0
    4.4127  -13.1295    0.6455 C   0  0  0  0  0  0  0  0  0  0  0  0
    4.8403  -14.2019    1.4237 C   0  0  0  0  0  0  0  0  0  0  0  0
    4.1494  -14.5670    2.5966 C   0  0  0  0  0  0  0  0  0  0  0  0
    3.0304  -13.8579    3.0231 C   0  0  0  0  0  0  0  0  0  0  0  0
    2.5856  -12.7510    2.2726 C   0  0  0  0  0  0  0  0  0  0  0  0
    1.7762  -12.0139    5.4451 C   0  0  0  0  0  0  0  0  0  0  0  0
    1.8632  -12.3067    6.8079 C   0  0  0  0  0  0  0  0  0  0  0  0
    1.1413  -14.7729   10.3126 H   0  0  0  0  0  0  0  0  0  0  0  0
    2.0063  -14.8730    8.7572 H   0  0  0  0  0  0  0  0  0  0  0  0
    0.2512  -15.1436    8.8136 H   0  0  0  0  0  0  0  0  0  0  0  0
    1.6543  -12.4683    9.4726 H   0  0  0  0  0  0  0  0  0  0  0  0
   -0.0907  -12.7372    9.5310 H   0  0  0  0  0  0  0  0  0  0  0  0
   -1.4129  -12.9785    7.4365 H   0  0  0  0  0  0  0  0  0  0  0  0
   -1.5722  -12.3993    5.0150 H   0  0  0  0  0  0  0  0  0  0  0  0
    0.8919  -10.1839    0.9936 H   0  0  0  0  0  0  0  0  0  0  0  0
    3.2484   -6.6782   -0.3732 H   0  0  0  0  0  0  0  0  0  0  0  0
    4.6274   -6.4936   -1.4654 H   0  0  0  0  0  0  0  0  0  0  0  0
    4.7220   -7.9439    1.2540 H   0  0  0  0  0  0  0  0  0  0  0  0
    5.3728   -6.3179    0.9180 H   0  0  0  0  0  0  0  0  0  0  0  0
    6.1061   -7.7472    0.1545 H   0  0  0  0  0  0  0  0  0  0  0  0
    4.3746   -8.0135   -4.0833 H   0  0  0  0  0  0  0  0  0  0  0  0
    3.6937   -6.5333   -3.3692 H   0  0  0  0  0  0  0  0  0  0  0  0
    2.7514   -7.4550   -4.5406 H   0  0  0  0  0  0  0  0  0  0  0  0
    1.6758   -9.1705   -4.9969 H   0  0  0  0  0  0  0  0  0  0  0  0
    0.4258   -9.2763   -3.7362 H   0  0  0  0  0  0  0  0  0  0  0  0
    1.0790  -10.7497   -4.4869 H   0  0  0  0  0  0  0  0  0  0  0  0
    2.5982  -12.6074   -2.7239 H   0  0  0  0  0  0  0  0  0  0  0  0
    0.8766  -12.2362   -2.9657 H   0  0  0  0  0  0  0  0  0  0  0  0
    1.4453  -12.7699   -1.3779 H   0  0  0  0  0  0  0  0  0  0  0  0
    4.9433  -12.8650   -0.2712 H   0  0  0  0  0  0  0  0  0  0  0  0
    5.7184  -14.7735    1.1133 H   0  0  0  0  0  0  0  0  0  0  0  0
    4.4973  -15.4240    3.1787 H   0  0  0  0  0  0  0  0  0  0  0  0
    2.5024  -14.1613    3.9280 H   0  0  0  0  0  0  0  0  0  0  0  0
    2.6744  -11.7204    4.8986 H   0  0  0  0  0  0  0  0  0  0  0  0
    2.8335  -12.2443    7.3097 H   0  0  0  0  0  0  0  0  0  0  0  0
  1  2  1  0
  1 36  1  0
  1 37  1  0
  1 38  1  0
  2  3  1  0
  2 39  1  0
  2 40  1  0
  3  4  2  0
  3 35  1  0
  4  5  1  0
  4 41  1  0
  5  6  2  0
  5 42  1  0
  6  7  1  0
  6 34  1  0
  7  8  2  0
  7  9  1  0
  9 10  2  0
  9 33  1  0
 10 11  1  0
 10 43  1  0
 11 12  1  0
 11 28  1  0
 12 13  1  6
 12 14  1  0
 12 25  1  0
 14 15  1  0
 15 16  1  6
 15 17  1  0
 15 19  1  0
 17 18  1  0
 17 44  1  0
 17 45  1  0
 18 46  1  0
 18 47  1  0
 18 48  1  0
 19 20  1  1
 19 21  1  0
 19 22  1  0
 21 49  1  0
 21 50  1  0
 21 51  1  0
 22 23  1  6
 22 24  1  0
 22 25  1  0
 24 52  1  0
 24 53  1  0
 24 54  1  0
 25 26  1  1
 25 27  1  0
 27 55  1  0
 27 56  1  0
 27 57  1  0
 28 29  1  0
 28 33  2  0
 29 30  2  0
 29 58  1  0
 30 31  1  0
 30 59  1  0
 31 32  2  0
 31 60  1  0
 32 33  1  0
 32 61  1  0
 34 35  2  0
 34 62  1  0
 35 63  1  0
M  END

