
     RDKit          3D

 51 53  0  0  0  0  0  0  0  0999 V2000
    7.7112    2.2958   -0.6742 C   0  0  0  0  0  0  0  0  0  0  0  0
    6.7588    1.2562   -0.7602 O   0  0  0  0  0  0  0  0  0  0  0  0
    5.4469    1.5684   -0.9215 C   0  0  0  0  0  0  0  0  0  0  0  0
    4.9819    2.8821   -0.9935 C   0  0  0  0  0  0  0  0  0  0  0  0
    3.6081    3.1204   -1.2007 C   0  0  0  0  0  0  0  0  0  0  0  0
    3.1005    4.4427   -1.3015 N   0  0  0  0  0  0  0  0  0  0  0  0
    1.6839    4.6901   -1.5906 C   0  0  0  0  0  0  0  0  0  0  0  0
    1.5984    6.2053   -1.8721 C   0  0  2  0  0  0  0  0  0  0  0  0
    1.6689    6.5802   -3.3656 C   0  0  0  0  0  0  0  0  0  0  0  0
    0.8711    7.3450   -3.8544 O   0  0  0  0  0  0  0  0  0  0  0  0
    2.7145    5.9751   -4.0511 N   0  0  0  0  0  0  0  0  0  0  0  0
    3.0950    6.1315   -5.3981 C   0  0  0  0  0  0  0  0  0  0  0  0
    3.8630    5.1114   -5.9977 C   0  0  0  0  0  0  0  0  0  0  0  0
    4.2624    5.2761   -7.3178 C   0  0  0  0  0  0  0  0  0  0  0  0
    3.8907    6.4300   -8.0287 C   0  0  0  0  0  0  0  0  0  0  0  0
    4.2908    6.6482   -9.4647 C   0  0  0  0  0  0  0  0  0  0  0  0
    3.1258    7.3667   -7.3211 C   0  0  0  0  0  0  0  0  0  0  0  0
    2.7467    7.2338   -6.0492 N   0  0  0  0  0  0  0  0  0  0  0  0
    2.7799    6.7670   -1.0610 C   0  0  0  0  0  0  0  0  0  0  0  0
    3.7682    5.6127   -0.9390 C   0  0  0  0  0  0  0  0  0  0  0  0
    4.9239    5.7086   -0.5835 O   0  0  0  0  0  0  0  0  0  0  0  0
    2.7345    2.0370   -1.3223 C   0  0  0  0  0  0  0  0  0  0  0  0
    3.2024    0.7113   -1.2416 C   0  0  0  0  0  0  0  0  0  0  0  0
    2.2375   -0.2250   -1.4221 O   0  0  0  0  0  0  0  0  0  0  0  0
    2.3675   -1.5644   -0.9779 C   0  0  0  0  0  0  0  0  0  0  0  0
    4.5716    0.4573   -1.0413 C   0  0  0  0  0  0  0  0  0  0  0  0
    5.0585   -0.8226   -1.0551 O   0  0  0  0  0  0  0  0  0  0  0  0
    5.6444   -1.3182    0.1411 C   0  0  0  0  0  0  0  0  0  0  0  0
    8.6894    1.8105   -0.5568 H   0  0  0  0  0  0  0  0  0  0  0  0
    7.5265    2.9527    0.1937 H   0  0  0  0  0  0  0  0  0  0  0  0
    7.7232    2.9142   -1.5886 H   0  0  0  0  0  0  0  0  0  0  0  0
    5.6539    3.7254   -0.8857 H   0  0  0  0  0  0  0  0  0  0  0  0
    1.0559    4.4097   -0.7256 H   0  0  0  0  0  0  0  0  0  0  0  0
    1.3493    4.0843   -2.4460 H   0  0  0  0  0  0  0  0  0  0  0  0
    0.6365    6.6126   -1.5388 H   0  0  0  0  0  0  0  0  0  0  0  0
    3.2331    5.2646   -3.5453 H   0  0  0  0  0  0  0  0  0  0  0  0
    4.1319    4.2114   -5.4384 H   0  0  0  0  0  0  0  0  0  0  0  0
    4.8606    4.4994   -7.8037 H   0  0  0  0  0  0  0  0  0  0  0  0
    5.3873    6.6424   -9.5842 H   0  0  0  0  0  0  0  0  0  0  0  0
    3.9182    7.6125   -9.8411 H   0  0  0  0  0  0  0  0  0  0  0  0
    3.8907    5.8560  -10.1199 H   0  0  0  0  0  0  0  0  0  0  0  0
    2.8083    8.2916   -7.8198 H   0  0  0  0  0  0  0  0  0  0  0  0
    2.4696    7.0522   -0.0410 H   0  0  0  0  0  0  0  0  0  0  0  0
    3.2717    7.6440   -1.5051 H   0  0  0  0  0  0  0  0  0  0  0  0
    1.6633    2.1564   -1.4693 H   0  0  0  0  0  0  0  0  0  0  0  0
    1.3632   -2.0040   -1.0639 H   0  0  0  0  0  0  0  0  0  0  0  0
    2.6844   -1.6144    0.0783 H   0  0  0  0  0  0  0  0  0  0  0  0
    3.0758   -2.1392   -1.5908 H   0  0  0  0  0  0  0  0  0  0  0  0
    5.9009   -2.3705   -0.0476 H   0  0  0  0  0  0  0  0  0  0  0  0
    4.9331   -1.2693    0.9866 H   0  0  0  0  0  0  0  0  0  0  0  0
    6.5567   -0.7641    0.4066 H   0  0  0  0  0  0  0  0  0  0  0  0
  1  2  1  0
  1 29  1  0
  1 30  1  0
  1 31  1  0
  2  3  1  0
  3  4  2  0
  3 26  1  0
  4  5  1  0
  4 32  1  0
  5  6  1  0
  5 22  2  0
  6  7  1  0
  6 20  1  0
  7  8  1  0
  7 33  1  0
  7 34  1  0
  8  9  1  0
  8 19  1  0
  8 35  1  1
  9 10  2  0
  9 11  1  0
 11 12  1  0
 11 36  1  0
 12 13  2  0
 12 18  1  0
 13 14  1  0
 13 37  1  0
 14 15  2  0
 14 38  1  0
 15 16  1  0
 15 17  1  0
 16 39  1  0
 16 40  1  0
 16 41  1  0
 17 18  2  0
 17 42  1  0
 19 20  1  0
 19 43  1  0
 19 44  1  0
 20 21  2  0
 22 23  1  0
 22 45  1  0
 23 24  1  0
 23 26  2  0
 24 25  1  0
 25 46  1  0
 25 47  1  0
 25 48  1  0
 26 27  1  0
 27 28  1  0
 28 49  1  0
 28 50  1  0
 28 51  1  0
M  END

