
     RDKit          3D

 48 52  0  0  0  0  0  0  0  0999 V2000
    1.2229   -0.4551    0.3639 C   0  0  0  0  0  0  0  0  0  0  0  0
    2.4522    0.1087   -0.0320 O   0  0  0  0  0  0  0  0  0  0  0  0
    2.8936   -0.0831   -1.3007 C   0  0  0  0  0  0  0  0  0  0  0  0
    4.1293    0.5051   -1.6255 C   0  0  0  0  0  0  0  0  0  0  0  0
    4.6604    0.3673   -2.9013 C   0  0  0  0  0  0  0  0  0  0  0  0
    3.9934   -0.3703   -3.9043 C   0  0  0  0  0  0  0  0  0  0  0  0
    4.6069   -0.5520   -5.2532 C   0  0  0  0  0  0  0  0  0  0  0  0
    4.5406   -1.7897   -5.8368 C   0  0  0  0  0  0  0  0  0  0  0  0
    5.1207   -2.1785   -7.1004 C   0  0  0  0  0  0  0  0  0  0  0  0
    6.2879   -1.6747   -7.6584 C   0  0  0  0  0  0  0  0  0  0  0  0
    6.5277   -2.3999   -8.8704 C   0  0  0  0  0  0  0  0  0  0  0  0
    7.5288   -2.3588   -9.8612 C   0  0  0  0  0  0  0  0  0  0  0  0
    7.4586   -3.2418  -10.9338 C   0  0  0  0  0  0  0  0  0  0  0  0
    6.4036   -4.1745  -11.0383 C   0  0  0  0  0  0  0  0  0  0  0  0
    5.4007   -4.2439  -10.0733 C   0  0  0  0  0  0  0  0  0  0  0  0
    5.4691   -3.3525   -8.9922 C   0  0  0  0  0  0  0  0  0  0  0  0
    4.6253   -3.2031   -7.9102 N   0  0  0  0  0  0  0  0  0  0  0  0
    3.4284   -3.9785   -7.6796 C   0  0  0  0  0  0  0  0  0  0  0  0
    7.1039   -0.6206   -6.9723 C   0  0  0  0  0  0  0  0  0  0  0  0
    6.2985    0.6473   -6.7713 C   0  0  0  0  0  0  0  0  0  0  0  0
    6.6837    1.8294   -7.4213 C   0  0  0  0  0  0  0  0  0  0  0  0
    5.9848    3.0234   -7.2462 C   0  0  0  0  0  0  0  0  0  0  0  0
    4.8698    3.0470   -6.4038 C   0  0  0  0  0  0  0  0  0  0  0  0
    4.4721    1.8818   -5.7528 C   0  0  0  0  0  0  0  0  0  0  0  0
    5.1591    0.6585   -5.9241 C   0  0  0  0  0  0  0  0  0  0  0  0
    2.7572   -0.9411   -3.5633 C   0  0  0  0  0  0  0  0  0  0  0  0
    2.2050   -0.8074   -2.2847 C   0  0  0  0  0  0  0  0  0  0  0  0
    1.0762   -0.1798    1.4171 H   0  0  0  0  0  0  0  0  0  0  0  0
    1.2289   -1.5572    0.2804 H   0  0  0  0  0  0  0  0  0  0  0  0
    0.3779   -0.0600   -0.2290 H   0  0  0  0  0  0  0  0  0  0  0  0
    4.6555    1.0660   -0.8503 H   0  0  0  0  0  0  0  0  0  0  0  0
    5.6230    0.8306   -3.1298 H   0  0  0  0  0  0  0  0  0  0  0  0
    4.0191   -2.5713   -5.2758 H   0  0  0  0  0  0  0  0  0  0  0  0
    8.3492   -1.6399   -9.7898 H   0  0  0  0  0  0  0  0  0  0  0  0
    8.2294   -3.2169  -11.7081 H   0  0  0  0  0  0  0  0  0  0  0  0
    6.3746   -4.8588  -11.8902 H   0  0  0  0  0  0  0  0  0  0  0  0
    4.5954   -4.9766  -10.1597 H   0  0  0  0  0  0  0  0  0  0  0  0
    2.9178   -4.1779   -8.6339 H   0  0  0  0  0  0  0  0  0  0  0  0
    2.7348   -3.4146   -7.0413 H   0  0  0  0  0  0  0  0  0  0  0  0
    3.6434   -4.9472   -7.1936 H   0  0  0  0  0  0  0  0  0  0  0  0
    8.0121   -0.3971   -7.5504 H   0  0  0  0  0  0  0  0  0  0  0  0
    7.4373   -0.9984   -5.9865 H   0  0  0  0  0  0  0  0  0  0  0  0
    7.5635    1.8084   -8.0706 H   0  0  0  0  0  0  0  0  0  0  0  0
    6.3129    3.9313   -7.7588 H   0  0  0  0  0  0  0  0  0  0  0  0
    4.3065    3.9718   -6.2557 H   0  0  0  0  0  0  0  0  0  0  0  0
    3.5927    1.9061   -5.1068 H   0  0  0  0  0  0  0  0  0  0  0  0
    2.1920   -1.4886   -4.3215 H   0  0  0  0  0  0  0  0  0  0  0  0
    1.2356   -1.2603   -2.0751 H   0  0  0  0  0  0  0  0  0  0  0  0
  1  2  1  0
  1 28  1  0
  1 29  1  0
  1 30  1  0
  2  3  1  0
  3  4  2  0
  3 27  1  0
  4  5  1  0
  4 31  1  0
  5  6  2  0
  5 32  1  0
  6  7  1  0
  6 26  1  0
  7  8  2  0
  7 25  1  0
  8  9  1  0
  8 33  1  0
  9 10  2  0
  9 17  1  0
 10 11  1  0
 10 19  1  0
 11 12  2  0
 11 16  1  0
 12 13  1  0
 12 34  1  0
 13 14  2  0
 13 35  1  0
 14 15  1  0
 14 36  1  0
 15 16  2  0
 15 37  1  0
 16 17  1  0
 17 18  1  0
 18 38  1  0
 18 39  1  0
 18 40  1  0
 19 20  1  0
 19 41  1  0
 19 42  1  0
 20 21  1  0
 20 25  2  0
 21 22  2  0
 21 43  1  0
 22 23  1  0
 22 44  1  0
 23 24  2  0
 23 45  1  0
 24 25  1  0
 24 46  1  0
 26 27  2  0
 26 47  1  0
 27 48  1  0
M  END

