
     RDKit          3D

 50 54  0  0  0  0  0  0  0  0999 V2000
    0.8519    0.6875   -0.7891 O   0  0  0  0  0  0  0  0  0  0  0  0
    2.0384    0.4206   -0.6595 C   0  0  0  0  0  0  0  0  0  0  0  0
    2.5739   -0.7807   -1.0770 N   0  0  0  0  0  0  0  0  0  0  0  0
    1.7338   -1.8066   -1.6566 C   0  0  1  0  0  0  0  0  0  0  0  0
    2.4382   -2.6596   -2.7207 C   0  0  0  0  0  0  0  0  0  0  0  0
    1.5398   -3.8949   -2.8297 C   0  0  0  0  0  0  0  0  0  0  0  0
    0.9619   -4.0258   -1.4965 N   0  0  0  0  0  0  0  0  0  0  0  0
    0.2434   -5.1302   -1.0836 C   0  0  0  0  0  0  0  0  0  0  0  0
   -0.0676   -6.1796   -1.9825 C   0  0  0  0  0  0  0  0  0  0  0  0
   -0.7897   -7.2936   -1.5544 C   0  0  0  0  0  0  0  0  0  0  0  0
   -1.2296   -7.4061   -0.2322 C   0  0  0  0  0  0  0  0  0  0  0  0
   -0.9291   -6.3740    0.6620 C   0  0  0  0  0  0  0  0  0  0  0  0
   -0.2051   -5.2541    0.2541 C   0  0  0  0  0  0  0  0  0  0  0  0
    1.2063   -2.8637   -0.6631 C   0  0  0  0  0  0  0  0  0  0  0  0
    2.9365    1.3227   -0.0992 N   0  0  0  0  0  0  0  0  0  0  0  0
    2.4106    2.5235    0.5308 C   0  0  0  0  0  0  0  0  0  0  0  0
    2.9803    3.7790   -0.1288 C   0  0  0  0  0  0  0  0  0  0  0  0
    4.4292    3.6405   -0.2050 N   0  0  0  0  0  0  0  0  0  0  0  0
    5.0953    2.4428   -0.1630 C   0  0  0  0  0  0  0  0  0  0  0  0
    6.3863    2.6310   -0.2540 N   0  0  0  0  0  0  0  0  0  0  0  0
    6.5937    3.9808   -0.3734 N   0  0  0  0  0  0  0  0  0  0  0  0
    5.4240    4.5813   -0.3477 C   0  0  0  0  0  0  0  0  0  0  0  0
    5.1888    6.0390   -0.4069 C   0  0  1  0  0  0  0  0  0  0  0  0
    5.7684    6.9395    0.6783 C   0  0  0  0  0  0  0  0  0  0  0  0
    6.3577    6.9482   -0.6993 C   0  0  0  0  0  0  0  0  0  0  0  0
    4.3782    1.1283   -0.0271 C   0  0  0  0  0  0  0  0  0  0  0  0
    3.4745   -1.0762   -0.7208 H   0  0  0  0  0  0  0  0  0  0  0  0
    0.8732   -1.2855   -2.0992 H   0  0  0  0  0  0  0  0  0  0  0  0
    3.4404   -2.9507   -2.3593 H   0  0  0  0  0  0  0  0  0  0  0  0
    2.5674   -2.1314   -3.6765 H   0  0  0  0  0  0  0  0  0  0  0  0
    2.1093   -4.7972   -3.1126 H   0  0  0  0  0  0  0  0  0  0  0  0
    0.7558   -3.7548   -3.6013 H   0  0  0  0  0  0  0  0  0  0  0  0
    0.2487   -6.1209   -3.0245 H   0  0  0  0  0  0  0  0  0  0  0  0
   -1.0149   -8.0859   -2.2740 H   0  0  0  0  0  0  0  0  0  0  0  0
   -1.7960   -8.2808    0.0950 H   0  0  0  0  0  0  0  0  0  0  0  0
   -1.2602   -6.4393    1.7024 H   0  0  0  0  0  0  0  0  0  0  0  0
    0.0204   -4.4729    0.9809 H   0  0  0  0  0  0  0  0  0  0  0  0
    1.9622   -3.0617    0.1273 H   0  0  0  0  0  0  0  0  0  0  0  0
    0.2908   -2.5145   -0.1569 H   0  0  0  0  0  0  0  0  0  0  0  0
    2.6639    2.5269    1.6084 H   0  0  0  0  0  0  0  0  0  0  0  0
    1.3193    2.5013    0.4277 H   0  0  0  0  0  0  0  0  0  0  0  0
    2.7282    4.6735    0.4610 H   0  0  0  0  0  0  0  0  0  0  0  0
    2.5595    3.9019   -1.1411 H   0  0  0  0  0  0  0  0  0  0  0  0
    4.2156    6.3325   -0.8122 H   0  0  0  0  0  0  0  0  0  0  0  0
    6.3365    6.4484    1.4729 H   0  0  0  0  0  0  0  0  0  0  0  0
    5.1659    7.7936    1.0015 H   0  0  0  0  0  0  0  0  0  0  0  0
    7.3197    6.4510   -0.8435 H   0  0  0  0  0  0  0  0  0  0  0  0
    6.1749    7.8129   -1.3426 H   0  0  0  0  0  0  0  0  0  0  0  0
    4.6882    0.6411    0.9205 H   0  0  0  0  0  0  0  0  0  0  0  0
    4.7120    0.4812   -0.8512 H   0  0  0  0  0  0  0  0  0  0  0  0
  1  2  2  0
  2  3  1  0
  2 15  1  0
  3  4  1  0
  3 27  1  0
  4  5  1  0
  4 14  1  0
  4 28  1  6
  5  6  1  0
  5 29  1  0
  5 30  1  0
  6  7  1  0
  6 31  1  0
  6 32  1  0
  7  8  1  0
  7 14  1  0
  8  9  2  0
  8 13  1  0
  9 10  1  0
  9 33  1  0
 10 11  2  0
 10 34  1  0
 11 12  1  0
 11 35  1  0
 12 13  2  0
 12 36  1  0
 13 37  1  0
 14 38  1  0
 14 39  1  0
 15 16  1  0
 15 26  1  0
 16 17  1  0
 16 40  1  0
 16 41  1  0
 17 18  1  0
 17 42  1  0
 17 43  1  0
 18 19  1  0
 18 22  1  0
 19 20  2  0
 19 26  1  0
 20 21  1  0
 21 22  2  0
 22 23  1  0
 23 24  1  0
 23 25  1  0
 23 44  1  6
 24 25  1  0
 24 45  1  0
 24 46  1  0
 25 47  1  0
 25 48  1  0
 26 49  1  0
 26 50  1  0
M  END

