
     RDKit          3D

 39 39  0  0  0  0  0  0  0  0999 V2000
    2.9517   -3.8267    1.4038 C   0  0  0  0  0  0  0  0  0  0  0  0
    2.5490   -2.3662    1.6180 C   0  0  0  0  0  0  0  0  0  0  0  0
    3.2131   -1.3259    0.6737 C   0  0  1  0  0  0  0  0  0  0  0  0
    2.8498   -1.5802   -0.7970 C   0  0  0  0  0  0  0  0  0  0  0  0
    2.7481    0.0900    1.0863 C   0  0  0  0  0  0  0  0  0  0  0  0
    4.7367   -1.3784    0.8155 C   0  0  0  0  0  0  0  0  0  0  0  0
    5.5303   -1.4982   -0.0842 O   0  0  0  0  0  0  0  0  0  0  0  0
    5.1326   -1.2365    2.1085 O   0  0  0  0  0  0  0  0  0  0  0  0
    6.5342   -1.2330    2.3495 C   0  0  1  0  0  0  0  0  0  0  0  0
    6.7621   -0.7411    3.7761 C   0  0  0  0  0  0  0  0  0  0  0  0
    7.1037   -2.6351    2.1560 C   0  0  0  0  0  0  0  0  0  0  0  0
    6.4962   -3.6632    2.1186 O   0  0  0  0  0  0  0  0  0  0  0  0
    8.4704   -2.5515    2.0799 O   0  0  0  0  0  0  0  0  0  0  0  0
    9.1857   -3.7269    2.0274 C   0  0  0  0  0  0  0  0  0  0  0  0
    9.7433   -4.1702    0.8243 C   0  0  0  0  0  0  0  0  0  0  0  0
    9.5329   -3.4547   -0.2764 F   0  0  0  0  0  0  0  0  0  0  0  0
   10.5153   -5.3280    0.7603 C   0  0  0  0  0  0  0  0  0  0  0  0
   10.7016   -6.0559    1.9335 C   0  0  0  0  0  0  0  0  0  0  0  0
   11.4350   -7.1712    1.8893 F   0  0  0  0  0  0  0  0  0  0  0  0
   10.1539   -5.6621    3.1537 C   0  0  0  0  0  0  0  0  0  0  0  0
    9.3942   -4.4970    3.1757 C   0  0  0  0  0  0  0  0  0  0  0  0
    8.8475   -4.0795    4.3186 F   0  0  0  0  0  0  0  0  0  0  0  0
    2.4207   -4.4753    2.1189 H   0  0  0  0  0  0  0  0  0  0  0  0
    4.0308   -3.9774    1.5630 H   0  0  0  0  0  0  0  0  0  0  0  0
    2.7002   -4.1837    0.3928 H   0  0  0  0  0  0  0  0  0  0  0  0
    2.7744   -2.0787    2.6574 H   0  0  0  0  0  0  0  0  0  0  0  0
    1.4566   -2.2569    1.4972 H   0  0  0  0  0  0  0  0  0  0  0  0
    1.7554   -1.5629   -0.9208 H   0  0  0  0  0  0  0  0  0  0  0  0
    3.2256   -2.5506   -1.1499 H   0  0  0  0  0  0  0  0  0  0  0  0
    3.2852   -0.8088   -1.4489 H   0  0  0  0  0  0  0  0  0  0  0  0
    1.6560    0.1720    0.9672 H   0  0  0  0  0  0  0  0  0  0  0  0
    3.2141    0.8637    0.4551 H   0  0  0  0  0  0  0  0  0  0  0  0
    2.9966    0.3035    2.1361 H   0  0  0  0  0  0  0  0  0  0  0  0
    7.0379   -0.5781    1.6216 H   0  0  0  0  0  0  0  0  0  0  0  0
    6.2553   -1.4011    4.4956 H   0  0  0  0  0  0  0  0  0  0  0  0
    6.3585    0.2758    3.8858 H   0  0  0  0  0  0  0  0  0  0  0  0
    7.8370   -0.7255    4.0038 H   0  0  0  0  0  0  0  0  0  0  0  0
   10.9494   -5.6553   -0.1844 H   0  0  0  0  0  0  0  0  0  0  0  0
   10.3082   -6.2466    4.0605 H   0  0  0  0  0  0  0  0  0  0  0  0
  1  2  1  0
  1 23  1  0
  1 24  1  0
  1 25  1  0
  2  3  1  0
  2 26  1  0
  2 27  1  0
  3  4  1  0
  3  5  1  0
  3  6  1  6
  4 28  1  0
  4 29  1  0
  4 30  1  0
  5 31  1  0
  5 32  1  0
  5 33  1  0
  6  7  2  0
  6  8  1  0
  8  9  1  0
  9 10  1  0
  9 11  1  0
  9 34  1  6
 10 35  1  0
 10 36  1  0
 10 37  1  0
 11 12  2  0
 11 13  1  0
 13 14  1  0
 14 15  2  0
 14 21  1  0
 15 16  1  0
 15 17  1  0
 17 18  2  0
 17 38  1  0
 18 19  1  0
 18 20  1  0
 20 21  2  0
 20 39  1  0
 21 22  1  0
M  END

