
     RDKit          3D

 55 58  0  0  0  0  0  0  0  0999 V2000
    6.0747   16.7733   -7.9772 N   0  0  0  0  0  0  0  0  0  0  0  0
    5.5815   16.6034   -6.7020 C   0  0  0  0  0  0  0  0  0  0  0  0
    5.0318   17.6864   -6.1433 N   0  0  0  0  0  0  0  0  0  0  0  0
    4.5371   17.6092   -4.9106 C   0  0  0  0  0  0  0  0  0  0  0  0
    4.5269   16.4443   -4.1348 C   0  0  0  0  0  0  0  0  0  0  0  0
    3.9036   16.4342   -2.7519 C   0  0  2  0  0  0  0  0  0  0  0  0
    3.7052   17.4790   -2.4725 H   0  0  0  0  0  0  0  0  0  0  0  0
    4.8051   15.7716   -1.6676 C   0  0  0  0  0  0  0  0  0  0  0  0
    4.2988   14.4135   -1.5998 N   0  0  0  0  0  0  0  0  0  0  0  0
    3.0266   14.2437   -2.0885 C   0  0  0  0  0  0  0  0  0  0  0  0
    2.3744   13.2235   -2.0419 O   0  0  0  0  0  0  0  0  0  0  0  0
    2.6035   15.5939   -2.6734 C   0  0  0  0  0  0  0  0  0  0  0  0
    5.1125   15.3133   -4.7248 C   0  0  0  0  0  0  0  0  0  0  0  0
    5.6691   15.3578   -6.0071 C   0  0  0  0  0  0  0  0  0  0  0  0
    6.3034   14.1457   -6.5868 C   0  0  0  0  0  0  0  0  0  0  0  0
    5.7020   12.8776   -6.4453 C   0  0  0  0  0  0  0  0  0  0  0  0
    6.3120   11.7354   -6.9522 C   0  0  0  0  0  0  0  0  0  0  0  0
    7.5506   11.7832   -7.6160 C   0  0  0  0  0  0  0  0  0  0  0  0
    8.0939   10.4718   -8.1397 C   0  0  0  0  0  0  0  0  0  0  0  0
    7.3951    9.4723   -8.1389 O   0  0  0  0  0  0  0  0  0  0  0  0
    9.3970   10.4660   -8.5682 N   0  0  0  0  0  0  0  0  0  0  0  0
    9.9986    9.3172   -9.2321 C   0  0  2  0  0  0  0  0  0  0  0  0
    9.3609    8.4580   -8.9794 H   0  0  0  0  0  0  0  0  0  0  0  0
   11.3909    9.0665   -8.6172 C   0  0  0  0  0  0  0  0  0  0  0  0
   11.3285    8.8035   -7.2409 O   0  0  0  0  0  0  0  0  0  0  0  0
   10.0719    9.4493  -10.7493 C   0  0  0  0  0  0  0  0  0  0  0  0
   10.2107    8.2895  -11.5294 C   0  0  0  0  0  0  0  0  0  0  0  0
   10.3322    8.3685  -12.9180 C   0  0  0  0  0  0  0  0  0  0  0  0
   10.3157    9.6141  -13.5542 C   0  0  0  0  0  0  0  0  0  0  0  0
   10.1723   10.7742  -12.7900 C   0  0  0  0  0  0  0  0  0  0  0  0
   10.0511   10.6917  -11.3987 C   0  0  0  0  0  0  0  0  0  0  0  0
    8.1269   13.0534   -7.7493 C   0  0  0  0  0  0  0  0  0  0  0  0
    9.3209   13.2005   -8.3805 F   0  0  0  0  0  0  0  0  0  0  0  0
    7.5376   14.2122   -7.2597 C   0  0  0  0  0  0  0  0  0  0  0  0
    5.7754   17.6348   -8.4214 H   0  0  0  0  0  0  0  0  0  0  0  0
    6.1360   15.9641   -8.5831 H   0  0  0  0  0  0  0  0  0  0  0  0
    4.1125   18.5367   -4.5040 H   0  0  0  0  0  0  0  0  0  0  0  0
    4.7033   16.2960   -0.6979 H   0  0  0  0  0  0  0  0  0  0  0  0
    5.8699   15.7972   -1.9483 H   0  0  0  0  0  0  0  0  0  0  0  0
    4.7283   13.6834   -1.0419 H   0  0  0  0  0  0  0  0  0  0  0  0
    1.8700   16.0384   -1.9789 H   0  0  0  0  0  0  0  0  0  0  0  0
    2.0973   15.4570   -3.6388 H   0  0  0  0  0  0  0  0  0  0  0  0
    5.1670   14.3766   -4.1643 H   0  0  0  0  0  0  0  0  0  0  0  0
    4.7339   12.7929   -5.9477 H   0  0  0  0  0  0  0  0  0  0  0  0
    5.8395   10.7555   -6.8620 H   0  0  0  0  0  0  0  0  0  0  0  0
    9.8856   11.3526   -8.6121 H   0  0  0  0  0  0  0  0  0  0  0  0
   12.0441    9.9360   -8.8522 H   0  0  0  0  0  0  0  0  0  0  0  0
   11.8482    8.1893   -9.0997 H   0  0  0  0  0  0  0  0  0  0  0  0
   10.7700    9.4872   -6.8438 H   0  0  0  0  0  0  0  0  0  0  0  0
   10.2130    7.3100  -11.0418 H   0  0  0  0  0  0  0  0  0  0  0  0
   10.4325    7.4531  -13.5070 H   0  0  0  0  0  0  0  0  0  0  0  0
   10.4074    9.6783  -14.6414 H   0  0  0  0  0  0  0  0  0  0  0  0
   10.1502   11.7526  -13.2772 H   0  0  0  0  0  0  0  0  0  0  0  0
    9.9204   11.6090  -10.8201 H   0  0  0  0  0  0  0  0  0  0  0  0
    8.0622   15.1588   -7.3956 H   0  0  0  0  0  0  0  0  0  0  0  0
  1  2  1  0
  1 35  1  0
  1 36  1  0
  2  3  2  0
  2 14  1  0
  3  4  1  0
  4  5  2  0
  4 37  1  0
  5  6  1  0
  5 13  1  0
  6  7  1  1
  6  8  1  0
  6 12  1  0
  8  9  1  0
  8 38  1  0
  8 39  1  0
  9 10  1  0
  9 40  1  0
 10 11  2  0
 10 12  1  0
 12 41  1  0
 12 42  1  0
 13 14  2  0
 13 43  1  0
 14 15  1  0
 15 16  2  0
 15 34  1  0
 16 17  1  0
 16 44  1  0
 17 18  2  0
 17 45  1  0
 18 19  1  0
 18 32  1  0
 19 20  2  0
 19 21  1  0
 21 22  1  0
 21 46  1  0
 22 23  1  6
 22 24  1  0
 22 26  1  0
 24 25  1  0
 24 47  1  0
 24 48  1  0
 25 49  1  0
 26 27  2  0
 26 31  1  0
 27 28  1  0
 27 50  1  0
 28 29  2  0
 28 51  1  0
 29 30  1  0
 29 52  1  0
 30 31  2  0
 30 53  1  0
 31 54  1  0
 32 33  1  0
 32 34  2  0
 34 55  1  0
M  END

