
     RDKit          3D

 42 43  0  0  0  0  0  0  0  0999 V2000
    1.4973   -2.9264    4.9501 C   0  0  0  0  0  0  0  0  0  0  0  0
    3.0075   -2.9797    4.6791 C   0  0  1  0  0  0  0  0  0  0  0  0
    3.3861   -4.3176    4.0306 C   0  0  0  0  0  0  0  0  0  0  0  0
    3.4933   -1.7789    3.8252 C   0  0  1  0  0  0  0  0  0  0  0  0
    3.1289   -0.4094    4.4165 C   0  0  0  0  0  0  0  0  0  0  0  0
    4.9301   -1.8586    3.5916 N   0  0  0  0  0  0  0  0  0  0  0  0
    5.4963   -1.8158    2.3397 C   0  0  0  0  0  0  0  0  0  0  0  0
    4.7961   -1.7558    1.3172 O   0  0  0  0  0  0  0  0  0  0  0  0
    6.9469   -1.8580    2.2490 C   0  0  0  0  0  0  0  0  0  0  0  0
    8.1008   -1.9746    3.5903 S   0  0  0  0  0  0  0  0  0  0  0  0
    9.4098   -1.9985    2.4033 C   0  0  0  0  0  0  0  0  0  0  0  0
   10.7119   -2.1195    2.7877 N   0  0  0  0  0  0  0  0  0  0  0  0
   11.1203   -2.0502    4.1833 C   0  0  0  0  0  0  0  0  0  0  0  0
   12.3782   -2.8936    4.3966 C   0  0  0  0  0  0  0  0  0  0  0  0
   13.3992   -2.5436    3.4892 O   0  0  0  0  0  0  0  0  0  0  0  0
   12.9886   -2.7346    2.1490 C   0  0  0  0  0  0  0  0  0  0  0  0
   11.7744   -1.8761    1.8121 C   0  0  0  0  0  0  0  0  0  0  0  0
    9.0292   -1.9035    1.1556 N   0  0  0  0  0  0  0  0  0  0  0  0
    7.6655   -1.8295    1.0477 C   0  0  0  0  0  0  0  0  0  0  0  0
    7.0990   -1.7273   -0.1729 N   0  0  0  0  0  0  0  0  0  0  0  0
    1.1719   -3.8200    5.5063 H   0  0  0  0  0  0  0  0  0  0  0  0
    0.9291   -2.9014    4.0041 H   0  0  0  0  0  0  0  0  0  0  0  0
    1.2034   -2.0472    5.5425 H   0  0  0  0  0  0  0  0  0  0  0  0
    3.5262   -2.9150    5.6574 H   0  0  0  0  0  0  0  0  0  0  0  0
    2.8854   -4.4353    3.0547 H   0  0  0  0  0  0  0  0  0  0  0  0
    3.0819   -5.1631    4.6684 H   0  0  0  0  0  0  0  0  0  0  0  0
    4.4694   -4.3931    3.8580 H   0  0  0  0  0  0  0  0  0  0  0  0
    3.0419   -1.8596    2.8238 H   0  0  0  0  0  0  0  0  0  0  0  0
    3.5470   -0.2876    5.4315 H   0  0  0  0  0  0  0  0  0  0  0  0
    2.0405   -0.2650    4.4824 H   0  0  0  0  0  0  0  0  0  0  0  0
    3.5359    0.3924    3.7824 H   0  0  0  0  0  0  0  0  0  0  0  0
    5.5370   -1.8328    4.4031 H   0  0  0  0  0  0  0  0  0  0  0  0
   10.3131   -2.4365    4.8240 H   0  0  0  0  0  0  0  0  0  0  0  0
   11.3184   -1.0006    4.4796 H   0  0  0  0  0  0  0  0  0  0  0  0
   12.1188   -3.9673    4.2899 H   0  0  0  0  0  0  0  0  0  0  0  0
   12.7729   -2.7317    5.4110 H   0  0  0  0  0  0  0  0  0  0  0  0
   12.7505   -3.8032    1.9702 H   0  0  0  0  0  0  0  0  0  0  0  0
   13.8388   -2.4573    1.5079 H   0  0  0  0  0  0  0  0  0  0  0  0
   11.3852   -2.1070    0.8125 H   0  0  0  0  0  0  0  0  0  0  0  0
   12.0609   -0.8057    1.8284 H   0  0  0  0  0  0  0  0  0  0  0  0
    7.6794   -1.8035   -0.9952 H   0  0  0  0  0  0  0  0  0  0  0  0
    6.0808   -1.7323   -0.1999 H   0  0  0  0  0  0  0  0  0  0  0  0
  1  2  1  0
  1 21  1  0
  1 22  1  0
  1 23  1  0
  2  3  1  0
  2  4  1  0
  2 24  1  1
  3 25  1  0
  3 26  1  0
  3 27  1  0
  4  5  1  0
  4  6  1  0
  4 28  1  6
  5 29  1  0
  5 30  1  0
  5 31  1  0
  6  7  1  0
  6 32  1  0
  7  8  2  0
  7  9  1  0
  9 10  1  0
  9 19  2  0
 10 11  1  0
 11 12  1  0
 11 18  2  0
 12 13  1  0
 12 17  1  0
 13 14  1  0
 13 33  1  0
 13 34  1  0
 14 15  1  0
 14 35  1  0
 14 36  1  0
 15 16  1  0
 16 17  1  0
 16 37  1  0
 16 38  1  0
 17 39  1  0
 17 40  1  0
 18 19  1  0
 19 20  1  0
 20 41  1  0
 20 42  1  0
M  END

