
     RDKit          3D

 29 30  0  0  0  0  0  0  0  0999 V2000
    1.0954    0.4071    0.2910 C   0  0  0  0  0  0  0  0  0  0  0  0
    2.5953    0.3643    0.2578 C   0  0  0  0  0  0  0  0  0  0  0  0
    3.3695    0.5950    1.3652 C   0  0  0  0  0  0  0  0  0  0  0  0
    4.8132    0.5354    1.3053 C   0  0  0  0  0  0  0  0  0  0  0  0
    5.5970    0.7101    2.2248 O   0  0  0  0  0  0  0  0  0  0  0  0
    5.2954    0.2425   -0.0092 N   0  0  0  0  0  0  0  0  0  0  0  0
    6.7273    0.0980   -0.1811 C   0  0  0  0  0  0  0  0  0  0  0  0
    7.1513   -1.3646   -0.3780 C   0  0  0  0  0  0  0  0  0  0  0  0
    6.3192   -2.2273   -0.5612 O   0  0  0  0  0  0  0  0  0  0  0  0
    8.6181   -1.6744   -0.3740 C   0  0  0  0  0  0  0  0  0  0  0  0
    9.6067   -0.7072   -0.1220 C   0  0  0  0  0  0  0  0  0  0  0  0
   10.9573   -1.0664   -0.1383 C   0  0  0  0  0  0  0  0  0  0  0  0
   11.3363   -2.3840   -0.4027 C   0  0  0  0  0  0  0  0  0  0  0  0
   10.3430   -3.3338   -0.6493 C   0  0  0  0  0  0  0  0  0  0  0  0
   10.7051   -4.5972   -0.9024 F   0  0  0  0  0  0  0  0  0  0  0  0
    8.9953   -3.0020   -0.6392 C   0  0  0  0  0  0  0  0  0  0  0  0
    4.4377    0.0157   -1.0438 C   0  0  0  0  0  0  0  0  0  0  0  0
    3.1469    0.0738   -0.9714 N   0  0  0  0  0  0  0  0  0  0  0  0
    0.7088    0.6574    1.2881 H   0  0  0  0  0  0  0  0  0  0  0  0
    0.6890   -0.5692   -0.0204 H   0  0  0  0  0  0  0  0  0  0  0  0
    0.7269    1.1464   -0.4386 H   0  0  0  0  0  0  0  0  0  0  0  0
    2.9340    0.8236    2.3387 H   0  0  0  0  0  0  0  0  0  0  0  0
    7.1907    0.5105    0.7264 H   0  0  0  0  0  0  0  0  0  0  0  0
    7.0769    0.6887   -1.0449 H   0  0  0  0  0  0  0  0  0  0  0  0
    9.3362    0.3267    0.0961 H   0  0  0  0  0  0  0  0  0  0  0  0
   11.7238   -0.3140    0.0603 H   0  0  0  0  0  0  0  0  0  0  0  0
   12.3844   -2.6895   -0.4198 H   0  0  0  0  0  0  0  0  0  0  0  0
    8.2312   -3.7563   -0.8325 H   0  0  0  0  0  0  0  0  0  0  0  0
    4.9111   -0.2199   -2.0041 H   0  0  0  0  0  0  0  0  0  0  0  0
  1  2  1  0
  1 19  1  0
  1 20  1  0
  1 21  1  0
  2  3  2  0
  2 18  1  0
  3  4  1  0
  3 22  1  0
  4  5  2  0
  4  6  1  0
  6  7  1  0
  6 17  1  0
  7  8  1  0
  7 23  1  0
  7 24  1  0
  8  9  2  0
  8 10  1  0
 10 11  2  0
 10 16  1  0
 11 12  1  0
 11 25  1  0
 12 13  2  0
 12 26  1  0
 13 14  1  0
 13 27  1  0
 14 15  1  0
 14 16  2  0
 16 28  1  0
 17 18  2  0
 17 29  1  0
M  END

