
     RDKit          3D

 57 61  0  0  0  0  0  0  0  0999 V2000
   -1.2691    0.8381   -1.1339 N   0  0  0  0  0  0  0  0  0  0  0  0
   -0.8231    0.5959   -0.0876 C   0  0  0  0  0  0  0  0  0  0  0  0
   -0.2954    0.3546    1.2201 C   0  0  0  0  0  0  0  0  0  0  0  0
   -0.1012    1.4674    2.0571 C   0  0  0  0  0  0  0  0  0  0  0  0
    0.2703    1.2939    3.3858 C   0  0  0  0  0  0  0  0  0  0  0  0
    0.4040   -0.0218    3.8392 C   0  0  0  0  0  0  0  0  0  0  0  0
    0.2633   -1.0884    3.0619 N   0  0  0  0  0  0  0  0  0  0  0  0
   -0.0473   -0.9548    1.7602 C   0  0  0  0  0  0  0  0  0  0  0  0
   -0.1470   -2.1189    1.0317 N   0  0  0  0  0  0  0  0  0  0  0  0
    0.1538   -2.2503   -0.3938 C   0  0  0  0  0  0  0  0  0  0  0  0
    1.4862   -2.9856   -0.5951 C   0  0  0  0  0  0  0  0  0  0  0  0
    1.5190   -4.2598    0.1181 N   0  0  0  0  0  0  0  0  0  0  0  0
    1.6201   -5.4235   -0.6117 C   0  0  0  0  0  0  0  0  0  0  0  0
    1.5933   -5.4366   -1.8338 O   0  0  0  0  0  0  0  0  0  0  0  0
    1.8162   -6.7236    0.1326 C   0  0  0  0  0  0  0  0  0  0  0  0
    2.7908   -6.8903    1.1289 C   0  0  0  0  0  0  0  0  0  0  0  0
    3.0113   -8.1451    1.7051 C   0  0  0  0  0  0  0  0  0  0  0  0
    2.2625   -9.2503    1.2952 C   0  0  0  0  0  0  0  0  0  0  0  0
    1.3068   -9.0832    0.2863 C   0  0  0  0  0  0  0  0  0  0  0  0
    0.3725  -10.5129   -0.2966 S   0  0  1  0  0  0  0  0  0  0  0  0
    0.4412  -11.5280    0.7559 O   0  0  0  0  0  0  0  0  0  0  0  0
   -0.8988  -10.0090   -0.8152 O   0  0  0  0  0  0  0  0  0  0  0  0
    1.2131  -11.1253   -1.6106 N   0  0  0  0  0  0  0  0  0  0  0  0
    2.4028  -11.9466   -1.3826 C   0  0  0  0  0  0  0  0  0  0  0  0
    2.4557  -13.0721   -2.4242 C   0  0  0  0  0  0  0  0  0  0  0  0
    2.2188  -12.4884   -3.7865 C   0  0  0  0  0  0  0  0  0  0  0  0
    2.6587  -13.2575   -5.2830 S   0  0  0  0  0  0  0  0  0  0  0  0
    2.0311  -11.9322   -6.2084 C   0  0  0  0  0  0  0  0  0  0  0  0
    1.5107  -10.9539   -5.4036 C   0  0  0  0  0  0  0  0  0  0  0  0
    1.6142  -11.2743   -4.0105 C   0  0  0  0  0  0  0  0  0  0  0  0
    1.1381  -10.3966   -2.8807 C   0  0  0  0  0  0  0  0  0  0  0  0
    1.0791   -7.8360   -0.2977 C   0  0  0  0  0  0  0  0  0  0  0  0
    1.1727   -4.1587    1.5341 C   0  0  0  0  0  0  0  0  0  0  0  0
   -0.1567   -3.4127    1.7101 C   0  0  0  0  0  0  0  0  0  0  0  0
   -0.2778    2.4650    1.6490 H   0  0  0  0  0  0  0  0  0  0  0  0
    0.4215    2.1420    4.0547 H   0  0  0  0  0  0  0  0  0  0  0  0
    0.6466   -0.2214    4.8902 H   0  0  0  0  0  0  0  0  0  0  0  0
    0.2037   -1.2724   -0.8813 H   0  0  0  0  0  0  0  0  0  0  0  0
   -0.6587   -2.8152   -0.8829 H   0  0  0  0  0  0  0  0  0  0  0  0
    2.3100   -2.3483   -0.2231 H   0  0  0  0  0  0  0  0  0  0  0  0
    1.6492   -3.1919   -1.6601 H   0  0  0  0  0  0  0  0  0  0  0  0
    3.3920   -6.0361    1.4490 H   0  0  0  0  0  0  0  0  0  0  0  0
    3.7703   -8.2613    2.4825 H   0  0  0  0  0  0  0  0  0  0  0  0
    2.3990  -10.2305    1.7548 H   0  0  0  0  0  0  0  0  0  0  0  0
    2.3384  -12.3689   -0.3725 H   0  0  0  0  0  0  0  0  0  0  0  0
    3.3223  -11.3313   -1.4489 H   0  0  0  0  0  0  0  0  0  0  0  0
    1.6841  -13.8249   -2.1838 H   0  0  0  0  0  0  0  0  0  0  0  0
    3.4325  -13.5805   -2.3663 H   0  0  0  0  0  0  0  0  0  0  0  0
    2.0816  -11.9527   -7.2960 H   0  0  0  0  0  0  0  0  0  0  0  0
    1.0639  -10.0344   -5.7867 H   0  0  0  0  0  0  0  0  0  0  0  0
    0.0914  -10.1002   -3.0403 H   0  0  0  0  0  0  0  0  0  0  0  0
    1.7431   -9.4650   -2.8508 H   0  0  0  0  0  0  0  0  0  0  0  0
    0.3259   -7.7201   -1.0780 H   0  0  0  0  0  0  0  0  0  0  0  0
    1.9666   -3.6143    2.0771 H   0  0  0  0  0  0  0  0  0  0  0  0
    1.0853   -5.1598    1.9722 H   0  0  0  0  0  0  0  0  0  0  0  0
   -0.3578   -3.2577    2.7749 H   0  0  0  0  0  0  0  0  0  0  0  0
   -0.9690   -4.0203    1.2717 H   0  0  0  0  0  0  0  0  0  0  0  0
  1  2  3  0
  2  3  1  0
  3  4  2  0
  3  8  1  0
  4  5  1  0
  4 35  1  0
  5  6  2  0
  5 36  1  0
  6  7  1  0
  6 37  1  0
  7  8  2  0
  8  9  1  0
  9 10  1  0
  9 34  1  0
 10 11  1  0
 10 38  1  0
 10 39  1  0
 11 12  1  0
 11 40  1  0
 11 41  1  0
 12 13  1  0
 12 33  1  0
 13 14  2  0
 13 15  1  0
 15 16  2  0
 15 32  1  0
 16 17  1  0
 16 42  1  0
 17 18  2  0
 17 43  1  0
 18 19  1  0
 18 44  1  0
 20 19  1  1
 19 32  2  0
 20 21  2  0
 20 22  2  0
 20 23  1  0
 23 24  1  0
 23 31  1  0
 24 25  1  0
 24 45  1  0
 24 46  1  0
 25 26  1  0
 25 47  1  0
 25 48  1  0
 26 27  1  0
 26 30  2  0
 27 28  1  0
 28 29  2  0
 28 49  1  0
 29 30  1  0
 29 50  1  0
 30 31  1  0
 31 51  1  0
 31 52  1  0
 32 53  1  0
 33 34  1  0
 33 54  1  0
 33 55  1  0
 34 56  1  0
 34 57  1  0
M  END

