
     RDKit          3D

 36 37  0  0  0  0  0  0  0  0999 V2000
    1.7012    5.0884   -0.1497 C   0  0  0  0  0  0  0  0  0  0  0  0
    2.9514    4.7864    0.4233 O   0  0  0  0  0  0  0  0  0  0  0  0
    3.3056    3.4847    0.5949 C   0  0  0  0  0  0  0  0  0  0  0  0
    2.5046    2.3899    0.2364 C   0  0  0  0  0  0  0  0  0  0  0  0
    2.9911    1.0982    0.4686 C   0  0  0  0  0  0  0  0  0  0  0  0
    4.2393    0.8649    1.0418 C   0  0  0  0  0  0  0  0  0  0  0  0
    5.0381    1.9702    1.3990 C   0  0  0  0  0  0  0  0  0  0  0  0
    6.3118    1.8543    1.9824 N   0  0  0  0  0  0  0  0  0  0  0  0
    6.9848    0.7146    2.3025 C   0  0  0  0  0  0  0  0  0  0  0  0
    6.6122   -0.4341    2.1505 O   0  0  0  0  0  0  0  0  0  0  0  0
    8.2669    0.9346    2.8784 N   0  0  0  0  0  0  0  0  0  0  0  0
    8.9282    2.1148    3.1623 C   0  0  0  0  0  0  0  0  0  0  0  0
    8.4142    3.2123    2.9554 O   0  0  0  0  0  0  0  0  0  0  0  0
   10.2943    1.9916    3.7421 C   0  0  0  0  0  0  0  0  0  0  0  0
   11.0293    0.7941    3.8221 C   0  0  0  0  0  0  0  0  0  0  0  0
   12.3041    0.7642    4.3736 C   0  0  0  0  0  0  0  0  0  0  0  0
   12.9028    1.9431    4.8730 C   0  0  0  0  0  0  0  0  0  0  0  0
   14.1727    1.9250    5.3915 N   0  0  0  0  0  0  0  0  0  0  0  0
   12.1687    3.1487    4.7862 C   0  0  0  0  0  0  0  0  0  0  0  0
   10.8994    3.1661    4.2290 C   0  0  0  0  0  0  0  0  0  0  0  0
    4.5644    3.2699    1.1724 C   0  0  0  0  0  0  0  0  0  0  0  0
    1.6306    6.1840   -0.1894 H   0  0  0  0  0  0  0  0  0  0  0  0
    0.8631    4.6992    0.4570 H   0  0  0  0  0  0  0  0  0  0  0  0
    1.6087    4.6880   -1.1759 H   0  0  0  0  0  0  0  0  0  0  0  0
    1.5221    2.5273   -0.2142 H   0  0  0  0  0  0  0  0  0  0  0  0
    2.3701    0.2422    0.1908 H   0  0  0  0  0  0  0  0  0  0  0  0
    4.6042   -0.1436    1.2171 H   0  0  0  0  0  0  0  0  0  0  0  0
    6.8150    2.7172    2.2161 H   0  0  0  0  0  0  0  0  0  0  0  0
    8.7042    0.0535    3.1203 H   0  0  0  0  0  0  0  0  0  0  0  0
   10.6265   -0.1447    3.4330 H   0  0  0  0  0  0  0  0  0  0  0  0
   12.8557   -0.1788    4.4146 H   0  0  0  0  0  0  0  0  0  0  0  0
   14.5946    1.0379    5.6318 H   0  0  0  0  0  0  0  0  0  0  0  0
   14.5005    2.7251    5.9160 H   0  0  0  0  0  0  0  0  0  0  0  0
   12.6124    4.0753    5.1610 H   0  0  0  0  0  0  0  0  0  0  0  0
   10.3376    4.0993    4.1591 H   0  0  0  0  0  0  0  0  0  0  0  0
    5.1647    4.1422    1.4400 H   0  0  0  0  0  0  0  0  0  0  0  0
  1  2  1  0
  1 22  1  0
  1 23  1  0
  1 24  1  0
  2  3  1  0
  3  4  2  0
  3 21  1  0
  4  5  1  0
  4 25  1  0
  5  6  2  0
  5 26  1  0
  6  7  1  0
  6 27  1  0
  7  8  1  0
  7 21  2  0
  8  9  1  0
  8 28  1  0
  9 10  2  0
  9 11  1  0
 11 12  1  0
 11 29  1  0
 12 13  2  0
 12 14  1  0
 14 15  2  0
 14 20  1  0
 15 16  1  0
 15 30  1  0
 16 17  2  0
 16 31  1  0
 17 18  1  0
 17 19  1  0
 18 32  1  0
 18 33  1  0
 19 20  2  0
 19 34  1  0
 20 35  1  0
 21 36  1  0
M  END

