
     RDKit          3D

 24 25  0  0  0  0  0  0  0  0999 V2000
    3.9300    0.3267   -0.7781 C   0  0  0  0  0  0  0  0  0  0  0  0
    2.6803    0.1625    0.1023 C   0  0  0  0  0  0  0  0  0  0  0  0
    2.9287   -0.6635    1.3312 C   0  0  0  0  0  0  0  0  0  0  0  0
    3.3581   -0.2047    2.4670 N   0  0  0  0  0  0  0  0  0  0  0  0
    3.5552   -1.1881    3.4089 C   0  0  0  0  0  0  0  0  0  0  0  0
    4.0394   -0.7258    4.7400 C   0  0  0  0  0  0  0  0  0  0  0  0
    4.2610   -1.4585    5.6758 O   0  0  0  0  0  0  0  0  0  0  0  0
    4.2122    0.5972    4.8110 O   0  0  0  0  0  0  0  0  0  0  0  0
    3.2725   -2.4893    3.0030 C   0  0  0  0  0  0  0  0  0  0  0  0
    3.3302   -3.7913    3.6459 C   0  0  0  0  0  0  0  0  0  0  0  0
    2.9966   -4.9858    3.0219 C   0  0  0  0  0  0  0  0  0  0  0  0
    3.1294   -6.1242    3.8532 C   0  0  0  0  0  0  0  0  0  0  0  0
    2.7474   -7.8798    3.2759 Br  0  0  0  0  0  0  0  0  0  0  0  0
    3.5673   -5.7943    5.1177 C   0  0  0  0  0  0  0  0  0  0  0  0
    3.8620   -6.8607    6.4296 Cl  0  0  0  0  0  0  0  0  0  0  0  0
    3.8246   -4.0860    5.3099 S   0  0  0  0  0  0  0  0  0  0  0  0
    2.7275   -2.4042    1.3332 S   0  0  0  0  0  0  0  0  0  0  0  0
    3.7041    0.9580   -1.6513 H   0  0  0  0  0  0  0  0  0  0  0  0
    4.2919   -0.6464   -1.1455 H   0  0  0  0  0  0  0  0  0  0  0  0
    4.7465    0.8013   -0.2129 H   0  0  0  0  0  0  0  0  0  0  0  0
    1.8624   -0.2863   -0.4841 H   0  0  0  0  0  0  0  0  0  0  0  0
    2.3300    1.1491    0.4443 H   0  0  0  0  0  0  0  0  0  0  0  0
    3.9676    0.9623    3.9353 H   0  0  0  0  0  0  0  0  0  0  0  0
    2.6622   -5.0555    1.9866 H   0  0  0  0  0  0  0  0  0  0  0  0
  1  2  1  0
  1 18  1  0
  1 19  1  0
  1 20  1  0
  2  3  1  0
  2 21  1  0
  2 22  1  0
  3  4  2  0
  3 17  1  0
  4  5  1  0
  5  6  1  0
  5  9  2  0
  6  7  2  0
  6  8  1  0
  8 23  1  0
  9 10  1  0
  9 17  1  0
 10 11  2  0
 10 16  1  0
 11 12  1  0
 11 24  1  0
 12 13  1  0
 12 14  2  0
 14 15  1  0
 14 16  1  0
M  END

