
     RDKit          3D

 30 30  0  0  0  0  0  0  0  0999 V2000
    3.4448    1.4361    3.2220 N   0  0  0  0  0  0  0  0  0  0  0  0
    2.7140    2.4561    2.6917 C   0  0  0  0  0  0  0  0  0  0  0  0
    1.6611    2.8394    3.1675 O   0  0  0  0  0  0  0  0  0  0  0  0
    3.2949    3.0815    1.4179 C   0  0  0  0  0  0  0  0  0  0  0  0
    4.7927    3.3604    1.4117 C   0  0  0  0  0  0  0  0  0  0  0  0
    5.4978    2.1242    1.3496 O   0  0  0  0  0  0  0  0  0  0  0  0
    6.8610    2.1286    1.2642 C   0  0  0  0  0  0  0  0  0  0  0  0
    7.6567    3.2801    1.3088 C   0  0  0  0  0  0  0  0  0  0  0  0
    9.0501    3.1875    1.2174 C   0  0  0  0  0  0  0  0  0  0  0  0
    9.6688    1.9367    1.0808 C   0  0  0  0  0  0  0  0  0  0  0  0
   11.0662    1.7662    0.9836 N   0  0  0  0  0  0  0  0  0  0  0  0
   12.0396    2.7153    1.0031 C   0  0  0  0  0  0  0  0  0  0  0  0
   11.8733    3.9177    1.1108 O   0  0  0  0  0  0  0  0  0  0  0  0
   13.4863    2.2200    0.8765 C   0  0  0  0  0  0  0  0  0  0  0  0
   13.7362    0.4366    0.7170 Cl  0  0  0  0  0  0  0  0  0  0  0  0
    8.8630    0.7834    1.0358 C   0  0  0  0  0  0  0  0  0  0  0  0
    7.4798    0.8756    1.1248 C   0  0  0  0  0  0  0  0  0  0  0  0
    3.0997    0.9854    4.0612 H   0  0  0  0  0  0  0  0  0  0  0  0
    4.3202    1.1463    2.8016 H   0  0  0  0  0  0  0  0  0  0  0  0
    2.7505    4.0242    1.2686 H   0  0  0  0  0  0  0  0  0  0  0  0
    3.0536    2.4256    0.5632 H   0  0  0  0  0  0  0  0  0  0  0  0
    5.0917    3.9229    2.3156 H   0  0  0  0  0  0  0  0  0  0  0  0
    5.0527    3.9759    0.5319 H   0  0  0  0  0  0  0  0  0  0  0  0
    7.2098    4.2683    1.4176 H   0  0  0  0  0  0  0  0  0  0  0  0
    9.6641    4.0847    1.2532 H   0  0  0  0  0  0  0  0  0  0  0  0
   11.3942    0.8094    0.8862 H   0  0  0  0  0  0  0  0  0  0  0  0
   14.0363    2.5558    1.7655 H   0  0  0  0  0  0  0  0  0  0  0  0
   13.9304    2.6994   -0.0060 H   0  0  0  0  0  0  0  0  0  0  0  0
    9.3284   -0.2006    0.9265 H   0  0  0  0  0  0  0  0  0  0  0  0
    6.8563   -0.0197    1.0812 H   0  0  0  0  0  0  0  0  0  0  0  0
  1  2  1  0
  1 18  1  0
  1 19  1  0
  2  3  2  0
  2  4  1  0
  4  5  1  0
  4 20  1  0
  4 21  1  0
  5  6  1  0
  5 22  1  0
  5 23  1  0
  6  7  1  0
  7  8  2  0
  7 17  1  0
  8  9  1  0
  8 24  1  0
  9 10  2  0
  9 25  1  0
 10 11  1  0
 10 16  1  0
 11 12  1  0
 11 26  1  0
 12 13  2  0
 12 14  1  0
 14 15  1  0
 14 27  1  0
 14 28  1  0
 16 17  2  0
 16 29  1  0
 17 30  1  0
M  END

