
     RDKit          3D

 44 45  0  0  0  0  0  0  0  0999 V2000
    2.3311    0.9468    0.7362 C   0  0  0  0  0  0  0  0  0  0  0  0
    2.5166   -0.5139    0.3196 C   0  0  0  0  0  0  0  0  0  0  0  0
    2.8895   -0.7200   -1.1539 C   0  0  0  0  0  0  0  0  0  0  0  0
    4.2661   -0.1625   -1.5499 C   0  0  1  0  0  0  0  0  0  0  0  0
    5.2279   -0.7783   -0.7314 O   0  0  0  0  0  0  0  0  0  0  0  0
    6.5183   -0.2073   -0.7673 C   0  0  0  0  0  0  0  0  0  0  0  0
    7.4062   -0.9546    0.2109 C   0  0  0  0  0  0  0  0  0  0  0  0
    4.4970   -0.3816   -3.0457 C   0  0  0  0  0  0  0  0  0  0  0  0
    3.9580    0.5426   -3.8473 N   0  0  0  0  0  0  0  0  0  0  0  0
    4.0850    0.3591   -5.1686 C   0  0  0  0  0  0  0  0  0  0  0  0
    3.5466    1.3103   -5.9795 N   0  0  0  0  0  0  0  0  0  0  0  0
    4.7708   -0.7677   -5.6806 C   0  0  0  0  0  0  0  0  0  0  0  0
    5.2963   -1.6659   -4.7590 C   0  0  0  0  0  0  0  0  0  0  0  0
    6.0515   -2.9018   -5.1920 C   0  0  1  0  0  0  0  0  0  0  0  0
    7.5078   -2.9638   -4.6854 C   0  0  0  0  0  0  0  0  0  0  0  0
    7.9064   -4.4253   -4.9325 C   0  0  0  0  0  0  0  0  0  0  0  0
    6.6244   -5.2446   -4.6311 C   0  0  0  0  0  0  0  0  0  0  0  0
    5.4519   -4.2261   -4.6549 C   0  0  0  0  0  0  0  0  0  0  0  0
    5.1545   -1.4705   -3.4321 N   0  0  0  0  0  0  0  0  0  0  0  0
    2.0132    1.0222    1.7887 H   0  0  0  0  0  0  0  0  0  0  0  0
    1.5648    1.4489    0.1209 H   0  0  0  0  0  0  0  0  0  0  0  0
    3.2643    1.5247    0.6374 H   0  0  0  0  0  0  0  0  0  0  0  0
    1.5817   -1.0676    0.5162 H   0  0  0  0  0  0  0  0  0  0  0  0
    3.2926   -0.9835    0.9452 H   0  0  0  0  0  0  0  0  0  0  0  0
    2.1359   -0.2528   -1.8102 H   0  0  0  0  0  0  0  0  0  0  0  0
    2.8966   -1.7987   -1.3849 H   0  0  0  0  0  0  0  0  0  0  0  0
    4.2728    0.9355   -1.3969 H   0  0  0  0  0  0  0  0  0  0  0  0
    6.4647    0.8696   -0.4995 H   0  0  0  0  0  0  0  0  0  0  0  0
    6.9419   -0.2676   -1.7880 H   0  0  0  0  0  0  0  0  0  0  0  0
    7.0029   -0.8887    1.2336 H   0  0  0  0  0  0  0  0  0  0  0  0
    8.4247   -0.5349    0.2094 H   0  0  0  0  0  0  0  0  0  0  0  0
    7.4661   -2.0189   -0.0644 H   0  0  0  0  0  0  0  0  0  0  0  0
    2.9899    2.0374   -5.5490 H   0  0  0  0  0  0  0  0  0  0  0  0
    3.4906    1.1746   -6.9782 H   0  0  0  0  0  0  0  0  0  0  0  0
    4.8861   -0.9241   -6.7554 H   0  0  0  0  0  0  0  0  0  0  0  0
    6.0654   -2.9299   -6.2955 H   0  0  0  0  0  0  0  0  0  0  0  0
    7.5102   -2.7325   -3.6073 H   0  0  0  0  0  0  0  0  0  0  0  0
    8.1677   -2.2371   -5.1861 H   0  0  0  0  0  0  0  0  0  0  0  0
    8.7697   -4.7401   -4.3256 H   0  0  0  0  0  0  0  0  0  0  0  0
    8.1974   -4.5533   -5.9891 H   0  0  0  0  0  0  0  0  0  0  0  0
    6.6889   -5.7325   -3.6459 H   0  0  0  0  0  0  0  0  0  0  0  0
    6.4850   -6.0509   -5.3682 H   0  0  0  0  0  0  0  0  0  0  0  0
    5.0788   -4.0418   -3.6364 H   0  0  0  0  0  0  0  0  0  0  0  0
    4.5977   -4.5656   -5.2615 H   0  0  0  0  0  0  0  0  0  0  0  0
  1  2  1  0
  1 20  1  0
  1 21  1  0
  1 22  1  0
  2  3  1  0
  2 23  1  0
  2 24  1  0
  3  4  1  0
  3 25  1  0
  3 26  1  0
  4  5  1  0
  4  8  1  0
  4 27  1  6
  5  6  1  0
  6  7  1  0
  6 28  1  0
  6 29  1  0
  7 30  1  0
  7 31  1  0
  7 32  1  0
  8  9  2  0
  8 19  1  0
  9 10  1  0
 10 11  1  0
 10 12  2  0
 11 33  1  0
 11 34  1  0
 12 13  1  0
 12 35  1  0
 13 14  1  0
 13 19  2  0
 14 15  1  0
 14 18  1  0
 14 36  1  6
 15 16  1  0
 15 37  1  0
 15 38  1  0
 16 17  1  0
 16 39  1  0
 16 40  1  0
 17 18  1  0
 17 41  1  0
 17 42  1  0
 18 43  1  0
 18 44  1  0
M  END

