
     RDKit          3D

 64 66  0  0  0  0  0  0  0  0999 V2000
    5.3824    0.5396   -0.4863 C   0  0  0  0  0  0  0  0  0  0  0  0
    5.2399   -0.5033    0.6343 C   0  0  0  0  0  0  0  0  0  0  0  0
    4.6374   -1.8087    0.1871 C   0  0  0  0  0  0  0  0  0  0  0  0
    5.2969   -3.0142    0.0289 C   0  0  0  0  0  0  0  0  0  0  0  0
    4.3693   -4.0407   -0.3965 C   0  0  0  0  0  0  0  0  0  0  0  0
    4.7740   -5.7137   -0.7306 S   0  0  1  0  0  0  0  0  0  0  0  0
    3.7720   -6.2918   -1.6351 O   0  0  0  0  0  0  0  0  0  0  0  0
    6.2062   -5.7647   -1.0488 O   0  0  0  0  0  0  0  0  0  0  0  0
    4.4922   -6.5185    0.7515 N   0  0  0  0  0  0  0  0  0  0  0  0
    5.5826   -6.5306    1.7299 C   0  0  0  0  0  0  0  0  0  0  0  0
    5.1717   -7.3322    2.9734 C   0  0  0  0  0  0  0  0  0  0  0  0
    6.2452   -7.3460    4.0389 C   0  0  0  0  0  0  0  0  0  0  0  0
    6.2814   -6.3634    5.0455 C   0  0  0  0  0  0  0  0  0  0  0  0
    7.2861   -6.3451    6.0071 C   0  0  0  0  0  0  0  0  0  0  0  0
    8.2982   -7.3194    5.9885 C   0  0  0  0  0  0  0  0  0  0  0  0
    9.2362   -7.2217    6.9691 O   0  0  0  0  0  0  0  0  0  0  0  0
   10.2779   -8.1519    7.0169 C   0  0  0  0  0  0  0  0  0  0  0  0
   11.1824   -7.8207    8.1943 C   0  0  0  0  0  0  0  0  0  0  0  0
   11.0413   -6.9171    8.9708 O   0  0  0  0  0  0  0  0  0  0  0  0
   12.1878   -8.7150    8.2359 O   0  0  0  0  0  0  0  0  0  0  0  0
   13.1381   -8.5499    9.2901 C   0  0  0  0  0  0  0  0  0  0  0  0
    8.2820   -8.3083    4.9950 C   0  0  0  0  0  0  0  0  0  0  0  0
    7.2609   -8.3089    4.0368 C   0  0  0  0  0  0  0  0  0  0  0  0
    3.1359   -3.4652   -0.5976 C   0  0  0  0  0  0  0  0  0  0  0  0
    1.7516   -3.6843   -0.8108 C   0  0  0  0  0  0  0  0  0  0  0  0
    0.8160   -4.0973    0.1494 C   0  0  0  0  0  0  0  0  0  0  0  0
    0.8062   -5.4427    0.8452 C   0  0  1  0  0  0  0  0  0  0  0  0
   -0.1418   -5.5104    2.0469 C   0  0  0  0  0  0  0  0  0  0  0  0
    0.5280   -6.5718   -0.1670 C   0  0  0  0  0  0  0  0  0  0  0  0
    0.1528   -2.9213    0.5844 C   0  0  0  0  0  0  0  0  0  0  0  0
    0.7522   -1.6469    0.4302 C   0  0  0  0  0  0  0  0  0  0  0  0
    2.1225   -1.2754    0.1905 C   0  0  0  0  0  0  0  0  0  0  0  0
    3.2478   -2.0368   -0.1577 C   0  0  0  0  0  0  0  0  0  0  0  0
    5.8307    1.4713   -0.1045 H   0  0  0  0  0  0  0  0  0  0  0  0
    4.4060    0.7933   -0.9298 H   0  0  0  0  0  0  0  0  0  0  0  0
    6.0231    0.1602   -1.2978 H   0  0  0  0  0  0  0  0  0  0  0  0
    4.6363   -0.0734    1.4543 H   0  0  0  0  0  0  0  0  0  0  0  0
    6.2323   -0.7061    1.0691 H   0  0  0  0  0  0  0  0  0  0  0  0
    6.3597   -3.1908    0.1969 H   0  0  0  0  0  0  0  0  0  0  0  0
    4.1676   -7.4533    0.4925 H   0  0  0  0  0  0  0  0  0  0  0  0
    5.7939   -5.4888    2.0213 H   0  0  0  0  0  0  0  0  0  0  0  0
    6.5171   -6.9382    1.3045 H   0  0  0  0  0  0  0  0  0  0  0  0
    4.9383   -8.3677    2.6682 H   0  0  0  0  0  0  0  0  0  0  0  0
    4.2394   -6.9047    3.3764 H   0  0  0  0  0  0  0  0  0  0  0  0
    5.5000   -5.5984    5.0790 H   0  0  0  0  0  0  0  0  0  0  0  0
    7.3121   -5.5863    6.7917 H   0  0  0  0  0  0  0  0  0  0  0  0
   10.8924   -8.1429    6.0961 H   0  0  0  0  0  0  0  0  0  0  0  0
    9.9108   -9.1885    7.1453 H   0  0  0  0  0  0  0  0  0  0  0  0
   13.8728   -9.3553    9.1690 H   0  0  0  0  0  0  0  0  0  0  0  0
   12.6484   -8.6244   10.2729 H   0  0  0  0  0  0  0  0  0  0  0  0
   13.6321   -7.5690    9.2206 H   0  0  0  0  0  0  0  0  0  0  0  0
    9.0492   -9.0818    4.9543 H   0  0  0  0  0  0  0  0  0  0  0  0
    7.2617   -9.0901    3.2706 H   0  0  0  0  0  0  0  0  0  0  0  0
    1.3452   -2.8785   -1.4306 H   0  0  0  0  0  0  0  0  0  0  0  0
    1.8425   -5.5949    1.2065 H   0  0  0  0  0  0  0  0  0  0  0  0
   -1.1922   -5.3701    1.7410 H   0  0  0  0  0  0  0  0  0  0  0  0
    0.0959   -4.7492    2.8065 H   0  0  0  0  0  0  0  0  0  0  0  0
   -0.0721   -6.4973    2.5299 H   0  0  0  0  0  0  0  0  0  0  0  0
   -0.4687   -6.4591   -0.6250 H   0  0  0  0  0  0  0  0  0  0  0  0
    0.5593   -7.5519    0.3361 H   0  0  0  0  0  0  0  0  0  0  0  0
    1.2852   -6.5734   -0.9650 H   0  0  0  0  0  0  0  0  0  0  0  0
   -0.7280   -2.9724    1.2341 H   0  0  0  0  0  0  0  0  0  0  0  0
    0.1302   -0.8030    0.7498 H   0  0  0  0  0  0  0  0  0  0  0  0
    2.3362   -0.2381    0.4736 H   0  0  0  0  0  0  0  0  0  0  0  0
  1  2  1  0
  1 34  1  0
  1 35  1  0
  1 36  1  0
  2  3  1  0
  2 37  1  0
  2 38  1  0
  3  4  2  0
  3 33  1  0
  4  5  1  0
  4 39  1  0
  5  6  1  0
  5 24  2  0
  6  7  2  0
  6  8  2  0
  6  9  1  1
  9 10  1  0
  9 40  1  0
 10 11  1  0
 10 41  1  0
 10 42  1  0
 11 12  1  0
 11 43  1  0
 11 44  1  0
 12 13  2  0
 12 23  1  0
 13 14  1  0
 13 45  1  0
 14 15  2  0
 14 46  1  0
 15 16  1  0
 15 22  1  0
 16 17  1  0
 17 18  1  0
 17 47  1  0
 17 48  1  0
 18 19  2  0
 18 20  1  0
 20 21  1  0
 21 49  1  0
 21 50  1  0
 21 51  1  0
 22 23  2  0
 22 52  1  0
 23 53  1  0
 24 25  1  0
 24 33  1  0
 25 26  2  0
 25 54  1  0
 26 27  1  0
 26 30  1  0
 27 28  1  0
 27 29  1  0
 27 55  1  1
 28 56  1  0
 28 57  1  0
 28 58  1  0
 29 59  1  0
 29 60  1  0
 29 61  1  0
 30 31  2  0
 30 62  1  0
 31 32  1  0
 31 63  1  0
 32 33  2  0
 32 64  1  0
M  END

