
     RDKit          3D

 37 38  0  0  0  0  0  0  0  0999 V2000
    0.8449   -1.0359    0.5756 C   0  0  0  0  0  0  0  0  0  0  0  0
    2.3613   -0.8863    0.6370 C   0  0  0  0  0  0  0  0  0  0  0  0
    2.9935   -1.4103   -0.5607 N   0  0  0  0  0  0  0  0  0  0  0  0
    4.4387   -1.3002   -0.5842 C   0  0  0  0  0  0  0  0  0  0  0  0
    4.9849   -1.8216   -1.9172 C   0  0  1  0  0  0  0  0  0  0  0  0
    4.3989   -1.0085   -2.9342 O   0  0  0  0  0  0  0  0  0  0  0  0
    6.5044   -1.8900   -1.9781 C   0  0  0  0  0  0  0  0  0  0  0  0
    7.1000   -3.1307   -1.8497 C   0  0  0  0  0  0  0  0  0  0  0  0
    8.5026   -3.3134   -1.8120 C   0  0  0  0  0  0  0  0  0  0  0  0
    9.3385   -2.2163   -1.9067 C   0  0  0  0  0  0  0  0  0  0  0  0
   10.6927   -2.2779   -1.8753 O   0  0  0  0  0  0  0  0  0  0  0  0
   11.3246   -3.5291   -1.7283 C   0  0  0  0  0  0  0  0  0  0  0  0
    8.7830   -0.8998   -2.0571 C   0  0  0  0  0  0  0  0  0  0  0  0
    9.6313    0.2349   -2.1650 C   0  0  0  0  0  0  0  0  0  0  0  0
    9.1034    1.5002   -2.3177 C   0  0  0  0  0  0  0  0  0  0  0  0
    7.7018    1.6746   -2.3776 C   0  0  0  0  0  0  0  0  0  0  0  0
    6.8531    0.5905   -2.2757 C   0  0  0  0  0  0  0  0  0  0  0  0
    7.3565   -0.7330   -2.0988 C   0  0  0  0  0  0  0  0  0  0  0  0
    0.3709   -0.6668    1.4988 H   0  0  0  0  0  0  0  0  0  0  0  0
    0.5652   -2.0915    0.4335 H   0  0  0  0  0  0  0  0  0  0  0  0
    0.4239   -0.4608   -0.2669 H   0  0  0  0  0  0  0  0  0  0  0  0
    2.7515   -1.4469    1.5064 H   0  0  0  0  0  0  0  0  0  0  0  0
    2.6209    0.1817    0.8302 H   0  0  0  0  0  0  0  0  0  0  0  0
    2.6221   -0.9466   -1.3900 H   0  0  0  0  0  0  0  0  0  0  0  0
    4.8654   -1.9146    0.2273 H   0  0  0  0  0  0  0  0  0  0  0  0
    4.8066   -0.2629   -0.4184 H   0  0  0  0  0  0  0  0  0  0  0  0
    4.6024   -2.8555   -2.0161 H   0  0  0  0  0  0  0  0  0  0  0  0
    4.7148   -1.3194   -3.7926 H   0  0  0  0  0  0  0  0  0  0  0  0
    6.4636   -4.0169   -1.7663 H   0  0  0  0  0  0  0  0  0  0  0  0
    8.9022   -4.3217   -1.7072 H   0  0  0  0  0  0  0  0  0  0  0  0
   12.4058   -3.3359   -1.7242 H   0  0  0  0  0  0  0  0  0  0  0  0
   11.0847   -4.2097   -2.5650 H   0  0  0  0  0  0  0  0  0  0  0  0
   11.0436   -4.0205   -0.7796 H   0  0  0  0  0  0  0  0  0  0  0  0
   10.7099    0.0807   -2.1260 H   0  0  0  0  0  0  0  0  0  0  0  0
    9.7665    2.3653   -2.3989 H   0  0  0  0  0  0  0  0  0  0  0  0
    7.2844    2.6761   -2.5126 H   0  0  0  0  0  0  0  0  0  0  0  0
    5.7769    0.7313   -2.3559 H   0  0  0  0  0  0  0  0  0  0  0  0
  1  2  1  0
  1 19  1  0
  1 20  1  0
  1 21  1  0
  2  3  1  0
  2 22  1  0
  2 23  1  0
  3  4  1  0
  3 24  1  0
  4  5  1  0
  4 25  1  0
  4 26  1  0
  5  6  1  0
  5  7  1  0
  5 27  1  6
  6 28  1  0
  7  8  2  0
  7 18  1  0
  8  9  1  0
  8 29  1  0
  9 10  2  0
  9 30  1  0
 10 11  1  0
 10 13  1  0
 11 12  1  0
 12 31  1  0
 12 32  1  0
 12 33  1  0
 13 14  1  0
 13 18  2  0
 14 15  2  0
 14 34  1  0
 15 16  1  0
 15 35  1  0
 16 17  2  0
 16 36  1  0
 17 18  1  0
 17 37  1  0
M  END

