
     RDKit          3D

 76 83  0  0  0  0  0  0  0  0999 V2000
    4.9065   -0.2189   -1.5364 C   0  0  0  0  0  0  0  0  0  0  0  0
    3.5678   -0.5582   -0.8405 C   0  0  1  0  0  0  0  0  0  0  0  0
    2.5393    0.5583   -1.1359 C   0  0  0  0  0  0  0  0  0  0  0  0
    3.0349   -1.8703   -1.4438 C   0  0  0  0  0  0  0  0  0  0  0  0
    3.7893   -0.6658    0.6822 C   0  0  0  0  0  0  0  0  0  0  0  0
    4.2816    0.4562    1.3957 C   0  0  0  0  0  0  0  0  0  0  0  0
    4.5052    0.4430    2.7708 C   0  0  0  0  0  0  0  0  0  0  0  0
    4.2247   -0.7360    3.4713 C   0  0  0  0  0  0  0  0  0  0  0  0
    3.7438   -1.8824    2.7910 C   0  0  0  0  0  0  0  0  0  0  0  0
    3.5282   -1.8354    1.4047 C   0  0  0  0  0  0  0  0  0  0  0  0
    3.5899   -2.9251    3.7882 C   0  0  0  0  0  0  0  0  0  0  0  0
    3.1463   -4.2557    3.7307 C   0  0  0  0  0  0  0  0  0  0  0  0
    3.0854   -5.0369    4.8899 C   0  0  0  0  0  0  0  0  0  0  0  0
    2.6093   -6.5040    4.8837 C   0  0  1  0  0  0  0  0  0  0  0  0
    3.7429   -7.4176    5.4051 C   0  0  0  0  0  0  0  0  0  0  0  0
    1.3710   -6.6508    5.7984 C   0  0  0  0  0  0  0  0  0  0  0  0
    2.2207   -6.9823    3.4731 C   0  0  0  0  0  0  0  0  0  0  0  0
    3.4781   -4.4371    6.1132 C   0  0  0  0  0  0  0  0  0  0  0  0
    3.9232   -3.1201    6.2046 C   0  0  0  0  0  0  0  0  0  0  0  0
    3.9857   -2.3644    5.0280 C   0  0  0  0  0  0  0  0  0  0  0  0
    4.3705   -1.0341    4.8303 N   0  0  0  0  0  0  0  0  0  0  0  0
    4.8219   -0.1397    5.8356 C   0  0  0  0  0  0  0  0  0  0  0  0
    5.9631   -0.4674    6.6007 C   0  0  0  0  0  0  0  0  0  0  0  0
    6.4351    0.3801    7.6048 C   0  0  0  0  0  0  0  0  0  0  0  0
    5.7458    1.5703    7.8041 C   0  0  0  0  0  0  0  0  0  0  0  0
    6.0639    2.5267    8.7334 O   0  0  0  0  0  0  0  0  0  0  0  0
    5.1438    3.5214    8.6012 C   0  0  0  0  0  0  0  0  0  0  0  0
    5.1818    4.5941    9.3647 N   0  0  0  0  0  0  0  0  0  0  0  0
    4.2125    5.4429    9.0913 C   0  0  0  0  0  0  0  0  0  0  0  0
    4.0842    6.6142    9.7761 O   0  0  0  0  0  0  0  0  0  0  0  0
    2.9935    7.2563    9.2542 C   0  0  0  0  0  0  0  0  0  0  0  0
    2.5170    8.4897    9.6790 C   0  0  0  0  0  0  0  0  0  0  0  0
    1.3844    8.9847    9.0243 C   0  0  0  0  0  0  0  0  0  0  0  0
    0.8276   10.3366    9.3999 C   0  0  1  0  0  0  0  0  0  0  0  0
    1.3336   10.7891   10.5586 F   0  0  0  0  0  0  0  0  0  0  0  0
    1.1007   11.2606    8.4585 F   0  0  0  0  0  0  0  0  0  0  0  0
   -0.5114   10.3002    9.5287 F   0  0  0  0  0  0  0  0  0  0  0  0
    0.7605    8.2613    7.9878 C   0  0  0  0  0  0  0  0  0  0  0  0
    1.2564    7.0256    7.5781 C   0  0  0  0  0  0  0  0  0  0  0  0
    2.3924    6.5093    8.2182 C   0  0  0  0  0  0  0  0  0  0  0  0
    3.1949    5.3065    8.1047 C   0  0  0  0  0  0  0  0  0  0  0  0
    3.1903    4.1515    7.3142 C   0  0  0  0  0  0  0  0  0  0  0  0
    4.2036    3.2236    7.5723 C   0  0  0  0  0  0  0  0  0  0  0  0
    4.6099    1.9320    7.0488 C   0  0  0  0  0  0  0  0  0  0  0  0
    4.1355    1.0612    6.0607 C   0  0  0  0  0  0  0  0  0  0  0  0
    4.7655   -0.1350   -2.6269 H   0  0  0  0  0  0  0  0  0  0  0  0
    5.6576   -1.0029   -1.3492 H   0  0  0  0  0  0  0  0  0  0  0  0
    5.3248    0.7354   -1.1816 H   0  0  0  0  0  0  0  0  0  0  0  0
    2.3702    0.6517   -2.2216 H   0  0  0  0  0  0  0  0  0  0  0  0
    2.8789    1.5383   -0.7673 H   0  0  0  0  0  0  0  0  0  0  0  0
    1.5712    0.3385   -0.6581 H   0  0  0  0  0  0  0  0  0  0  0  0
    2.8903   -1.7509   -2.5292 H   0  0  0  0  0  0  0  0  0  0  0  0
    2.0636   -2.1568   -1.0110 H   0  0  0  0  0  0  0  0  0  0  0  0
    3.7363   -2.7060   -1.2944 H   0  0  0  0  0  0  0  0  0  0  0  0
    4.5027    1.3787    0.8542 H   0  0  0  0  0  0  0  0  0  0  0  0
    4.8940    1.3281    3.2773 H   0  0  0  0  0  0  0  0  0  0  0  0
    3.1572   -2.7294    0.9031 H   0  0  0  0  0  0  0  0  0  0  0  0
    2.8474   -4.6657    2.7658 H   0  0  0  0  0  0  0  0  0  0  0  0
    4.0421   -7.1567    6.4317 H   0  0  0  0  0  0  0  0  0  0  0  0
    4.6372   -7.3394    4.7664 H   0  0  0  0  0  0  0  0  0  0  0  0
    3.4189   -8.4717    5.4106 H   0  0  0  0  0  0  0  0  0  0  0  0
    1.5909   -6.3641    6.8381 H   0  0  0  0  0  0  0  0  0  0  0  0
    1.0194   -7.6959    5.8089 H   0  0  0  0  0  0  0  0  0  0  0  0
    0.5428   -6.0161    5.4449 H   0  0  0  0  0  0  0  0  0  0  0  0
    3.0696   -6.9311    2.7733 H   0  0  0  0  0  0  0  0  0  0  0  0
    1.3933   -6.3902    3.0518 H   0  0  0  0  0  0  0  0  0  0  0  0
    1.8886   -8.0317    3.5127 H   0  0  0  0  0  0  0  0  0  0  0  0
    3.4321   -5.0224    7.0343 H   0  0  0  0  0  0  0  0  0  0  0  0
    4.2083   -2.6976    7.1696 H   0  0  0  0  0  0  0  0  0  0  0  0
    6.4854   -1.4022    6.3897 H   0  0  0  0  0  0  0  0  0  0  0  0
    7.3146    0.1313    8.2005 H   0  0  0  0  0  0  0  0  0  0  0  0
    3.0026    9.0393   10.4848 H   0  0  0  0  0  0  0  0  0  0  0  0
   -0.1267    8.6770    7.5065 H   0  0  0  0  0  0  0  0  0  0  0  0
    0.7637    6.4728    6.7754 H   0  0  0  0  0  0  0  0  0  0  0  0
    2.4382    3.9847    6.5398 H   0  0  0  0  0  0  0  0  0  0  0  0
    3.2454    1.2961    5.4746 H   0  0  0  0  0  0  0  0  0  0  0  0
  2  1  1  6
  1 46  1  0
  1 47  1  0
  1 48  1  0
  2  3  1  0
  2  4  1  0
  2  5  1  0
  3 49  1  0
  3 50  1  0
  3 51  1  0
  4 52  1  0
  4 53  1  0
  4 54  1  0
  5  6  2  0
  5 10  1  0
  6  7  1  0
  6 55  1  0
  7  8  2  0
  7 56  1  0
  8  9  1  0
  8 21  1  0
  9 10  2  0
  9 11  1  0
 10 57  1  0
 11 12  2  0
 11 20  1  0
 12 13  1  0
 12 58  1  0
 13 14  1  0
 13 18  2  0
 14 15  1  1
 14 16  1  0
 14 17  1  0
 15 59  1  0
 15 60  1  0
 15 61  1  0
 16 62  1  0
 16 63  1  0
 16 64  1  0
 17 65  1  0
 17 66  1  0
 17 67  1  0
 18 19  1  0
 18 68  1  0
 19 20  2  0
 19 69  1  0
 20 21  1  0
 21 22  1  0
 22 23  2  0
 22 45  1  0
 23 24  1  0
 23 70  1  0
 24 25  2  0
 24 71  1  0
 25 26  1  0
 25 44  1  0
 26 27  1  0
 27 28  1  0
 27 43  2  0
 28 29  2  0
 29 30  1  0
 29 41  1  0
 30 31  1  0
 31 32  1  0
 31 40  2  0
 32 33  2  0
 32 72  1  0
 33 34  1  0
 33 38  1  0
 34 35  1  1
 34 36  1  0
 34 37  1  0
 38 39  2  0
 38 73  1  0
 39 40  1  0
 39 74  1  0
 40 41  1  0
 41 42  2  0
 42 43  1  0
 42 75  1  0
 43 44  1  0
 44 45  2  0
 45 76  1  0
M  END

