
     RDKit          3D

 41 43  0  0  0  0  0  0  0  0999 V2000
   -1.2927   -1.2034    2.4126 C   0  0  0  0  0  0  0  0  0  0  0  0
   -0.7018   -2.4579    2.2342 C   0  0  0  0  0  0  0  0  0  0  0  0
    0.6631   -2.5566    1.9500 C   0  0  0  0  0  0  0  0  0  0  0  0
    1.4655   -1.4090    1.8380 C   0  0  0  0  0  0  0  0  0  0  0  0
    2.9319   -1.5153    1.4856 C   0  0  0  0  0  0  0  0  0  0  0  0
    3.1792   -1.5520   -0.0371 C   0  0  0  0  0  0  0  0  0  0  0  0
    4.5977   -1.6091   -0.3671 N   0  0  0  0  0  0  0  0  0  0  0  0
    5.0069   -0.9520   -1.6019 C   0  0  0  0  0  0  0  0  0  0  0  0
    4.7623   -1.8050   -2.8507 C   0  0  0  0  0  0  0  0  0  0  0  0
    5.4111   -3.1023   -2.7174 N   0  0  0  0  0  0  0  0  0  0  0  0
    5.2820   -3.9201   -3.9156 C   0  0  0  0  0  0  0  0  0  0  0  0
    6.0616   -5.2229   -3.7700 C   0  0  0  0  0  0  0  0  0  0  0  0
    5.5883   -5.9296   -2.5893 N   0  0  0  0  0  0  0  0  0  0  0  0
    5.7656   -5.1318   -1.3860 C   0  0  0  0  0  0  0  0  0  0  0  0
    4.9927   -3.8161   -1.5056 C   0  0  1  0  0  0  0  0  0  0  0  0
    5.2200   -2.9232   -0.2718 C   0  0  0  0  0  0  0  0  0  0  0  0
    0.8566   -0.1563    2.0194 C   0  0  0  0  0  0  0  0  0  0  0  0
   -0.5076   -0.0516    2.3051 C   0  0  0  0  0  0  0  0  0  0  0  0
   -2.3592   -1.1240    2.6386 H   0  0  0  0  0  0  0  0  0  0  0  0
   -1.3058   -3.3651    2.3208 H   0  0  0  0  0  0  0  0  0  0  0  0
    1.1171   -3.5437    1.8189 H   0  0  0  0  0  0  0  0  0  0  0  0
    3.3555   -2.4237    1.9453 H   0  0  0  0  0  0  0  0  0  0  0  0
    3.4923   -0.6621    1.8995 H   0  0  0  0  0  0  0  0  0  0  0  0
    2.7633   -0.6301   -0.4747 H   0  0  0  0  0  0  0  0  0  0  0  0
    2.5877   -2.3845   -0.4746 H   0  0  0  0  0  0  0  0  0  0  0  0
    6.0898   -0.7401   -1.5381 H   0  0  0  0  0  0  0  0  0  0  0  0
    4.4870    0.0149   -1.6933 H   0  0  0  0  0  0  0  0  0  0  0  0
    5.1742   -1.2929   -3.7375 H   0  0  0  0  0  0  0  0  0  0  0  0
    3.6647   -1.9124   -3.0252 H   0  0  0  0  0  0  0  0  0  0  0  0
    5.6682   -3.3479   -4.7760 H   0  0  0  0  0  0  0  0  0  0  0  0
    4.2155   -4.1639   -4.1306 H   0  0  0  0  0  0  0  0  0  0  0  0
    7.1469   -4.9773   -3.7228 H   0  0  0  0  0  0  0  0  0  0  0  0
    5.8989   -5.8499   -4.6619 H   0  0  0  0  0  0  0  0  0  0  0  0
    6.0503   -6.8316   -2.4954 H   0  0  0  0  0  0  0  0  0  0  0  0
    6.8335   -4.8850   -1.1847 H   0  0  0  0  0  0  0  0  0  0  0  0
    5.3855   -5.6953   -0.5176 H   0  0  0  0  0  0  0  0  0  0  0  0
    3.9095   -4.0759   -1.5712 H   0  0  0  0  0  0  0  0  0  0  0  0
    6.3092   -2.7844   -0.1456 H   0  0  0  0  0  0  0  0  0  0  0  0
    4.8549   -3.4428    0.6281 H   0  0  0  0  0  0  0  0  0  0  0  0
    1.4643    0.7505    1.9424 H   0  0  0  0  0  0  0  0  0  0  0  0
   -0.9587    0.9340    2.4481 H   0  0  0  0  0  0  0  0  0  0  0  0
  1  2  2  0
  1 18  1  0
  1 19  1  0
  2  3  1  0
  2 20  1  0
  3  4  2  0
  3 21  1  0
  4  5  1  0
  4 17  1  0
  5  6  1  0
  5 22  1  0
  5 23  1  0
  6  7  1  0
  6 24  1  0
  6 25  1  0
  7  8  1  0
  7 16  1  0
  8  9  1  0
  8 26  1  0
  8 27  1  0
  9 10  1  0
  9 28  1  0
  9 29  1  0
 10 11  1  0
 10 15  1  0
 11 12  1  0
 11 30  1  0
 11 31  1  0
 12 13  1  0
 12 32  1  0
 12 33  1  0
 13 14  1  0
 13 34  1  0
 14 15  1  0
 14 35  1  0
 14 36  1  0
 15 16  1  0
 15 37  1  6
 16 38  1  0
 16 39  1  0
 17 18  2  0
 17 40  1  0
 18 41  1  0
M  END

