
     RDKit          3D

 34 36  0  0  0  0  0  0  0  0999 V2000
    0.9467    0.0408   -0.3174 O   0  0  0  0  0  0  0  0  0  0  0  0
    2.1533    0.0825   -0.1974 C   0  0  0  0  0  0  0  0  0  0  0  0
    2.8454    1.2834   -0.2340 N   0  0  0  0  0  0  0  0  0  0  0  0
    2.2921    2.1277   -0.3680 H   0  0  0  0  0  0  0  0  0  0  0  0
    4.2137    1.4788   -0.1011 C   0  0  0  0  0  0  0  0  0  0  0  0
    4.7281    2.5741   -0.1371 O   0  0  0  0  0  0  0  0  0  0  0  0
    4.9114    0.2840    0.0869 N   0  0  0  0  0  0  0  0  0  0  0  0
    6.3808    0.3227    0.1771 C   0  0  1  0  0  0  0  0  0  0  0  0
    6.6391    1.3792    0.0229 H   0  0  0  0  0  0  0  0  0  0  0  0
    6.9432   -0.2218    1.4984 C   0  0  0  0  0  0  0  0  0  0  0  0
    8.2853   -0.8189    1.0624 C   0  0  2  0  0  0  0  0  0  0  0  0
    8.6011   -1.6473    1.7227 H   0  0  0  0  0  0  0  0  0  0  0  0
    9.2986    0.1651    0.9430 O   0  0  0  0  0  0  0  0  0  0  0  0
    7.9786   -1.3225   -0.3583 C   0  0  1  0  0  0  0  0  0  0  0  0
    8.8704   -1.1668   -0.9879 H   0  0  0  0  0  0  0  0  0  0  0  0
    7.5263   -2.7776   -0.4513 C   0  0  0  0  0  0  0  0  0  0  0  0
    6.4224   -3.0483    0.3797 O   0  0  0  0  0  0  0  0  0  0  0  0
    6.9251   -0.4760   -0.8470 O   0  0  0  0  0  0  0  0  0  0  0  0
    4.3398   -0.9352    0.1211 N   0  0  0  0  0  0  0  0  0  0  0  0
    3.0544   -1.0960   -0.0052 C   0  0  0  0  0  0  0  0  0  0  0  0
    2.4817   -2.4396    0.0369 C   0  0  0  0  0  0  0  0  0  0  0  0
    3.1898   -3.6934    0.1800 C   0  0  0  0  0  0  0  0  0  0  0  0
    2.2362   -4.6620    0.1665 C   0  0  0  0  0  0  0  0  0  0  0  0
    0.9971   -4.1141    0.0279 O   0  0  0  0  0  0  0  0  0  0  0  0
    1.1466   -2.7787   -0.0510 C   0  0  0  0  0  0  0  0  0  0  0  0
    6.2933   -1.0160    1.8897 H   0  0  0  0  0  0  0  0  0  0  0  0
    7.0504    0.5637    2.2616 H   0  0  0  0  0  0  0  0  0  0  0  0
    9.4857    0.5198    1.8218 H   0  0  0  0  0  0  0  0  0  0  0  0
    7.3075   -2.9978   -1.5152 H   0  0  0  0  0  0  0  0  0  0  0  0
    8.3521   -3.4406   -0.1420 H   0  0  0  0  0  0  0  0  0  0  0  0
    5.7213   -2.4023    0.1632 H   0  0  0  0  0  0  0  0  0  0  0  0
    4.2624   -3.8458    0.2736 H   0  0  0  0  0  0  0  0  0  0  0  0
    2.2748   -5.7454    0.2421 H   0  0  0  0  0  0  0  0  0  0  0  0
    0.2485   -2.1830   -0.1670 H   0  0  0  0  0  0  0  0  0  0  0  0
  1  2  2  0
  2  3  1  0
  2 20  1  0
  3  4  1  0
  3  5  1  0
  5  6  2  0
  5  7  1  0
  7  8  1  0
  7 19  1  0
  8  9  1  6
  8 10  1  0
  8 18  1  0
 10 11  1  0
 10 26  1  0
 10 27  1  0
 11 12  1  1
 11 13  1  0
 11 14  1  0
 13 28  1  0
 14 15  1  6
 14 16  1  0
 14 18  1  0
 16 17  1  0
 16 29  1  0
 16 30  1  0
 17 31  1  0
 19 20  2  0
 20 21  1  0
 21 22  1  0
 21 25  2  0
 22 23  2  0
 22 32  1  0
 23 24  1  0
 23 33  1  0
 24 25  1  0
 25 34  1  0
M  END

