
     RDKit          3D

 61 64  0  0  0  0  0  0  0  0999 V2000
    4.3516    0.3617   -2.5737 C   0  0  0  0  0  0  0  0  0  0  0  0
    3.4388    0.3540   -1.3500 C   0  0  0  0  0  0  0  0  0  0  0  0
    3.4108    1.6324   -0.6583 N   0  0  0  0  0  0  0  0  0  0  0  0
    2.8475    2.7207   -1.2225 N   0  0  0  0  0  0  0  0  0  0  0  0
    2.9926    3.7175   -0.3697 C   0  0  0  0  0  0  0  0  0  0  0  0
    3.6866    3.2952    0.8124 C   0  0  0  0  0  0  0  0  0  0  0  0
    4.1322    3.8329    2.0557 C   0  0  0  0  0  0  0  0  0  0  0  0
    3.8751    5.1043    2.4817 N   0  0  0  0  0  0  0  0  0  0  0  0
    3.0870    6.1286    1.7969 C   0  0  1  0  0  0  0  0  0  0  0  0
    2.4627    7.0820    2.8335 C   0  0  0  0  0  0  0  0  0  0  0  0
    3.4909    8.0079    3.5010 C   0  0  0  0  0  0  0  0  0  0  0  0
    4.3054    8.7848    2.4584 C   0  0  0  0  0  0  0  0  0  0  0  0
    4.9564    7.8406    1.4391 C   0  0  0  0  0  0  0  0  0  0  0  0
    3.9225    6.9258    0.7699 C   0  0  0  0  0  0  0  0  0  0  0  0
    4.8554    2.9281    2.8870 C   0  0  0  0  0  0  0  0  0  0  0  0
    5.4714    3.3539    4.1594 C   0  0  0  0  0  0  0  0  0  0  0  0
    5.3252    2.6584    5.2325 N   0  0  0  0  0  0  0  0  0  0  0  0
    6.1194    3.1739    6.2494 O   0  0  0  0  0  0  0  0  0  0  0  0
    6.5802    4.4725    5.8554 C   0  0  1  0  0  0  0  0  0  0  0  0
    7.9130    4.8111    6.4995 C   0  0  0  0  0  0  0  0  0  0  0  0
    8.1957    5.9175    6.8842 O   0  0  0  0  0  0  0  0  0  0  0  0
    8.7374    3.7524    6.5913 O   0  0  0  0  0  0  0  0  0  0  0  0
    9.9965    3.9965    7.1911 C   0  0  0  0  0  0  0  0  0  0  0  0
   10.9472    4.7372    6.2588 C   0  0  0  0  0  0  0  0  0  0  0  0
   10.7324    5.0155    5.1082 O   0  0  0  0  0  0  0  0  0  0  0  0
   12.0819    5.0192    6.9115 O   0  0  0  0  0  0  0  0  0  0  0  0
   13.0934    5.7055    6.1679 C   0  0  0  0  0  0  0  0  0  0  0  0
    6.5384    4.4461    4.3113 C   0  0  1  0  0  0  0  0  0  0  0  0
    7.8295    4.0369    3.5860 C   0  0  0  0  0  0  0  0  0  0  0  0
    5.0058    1.5746    2.4946 C   0  0  0  0  0  0  0  0  0  0  0  0
    4.5662    1.0433    1.3637 N   0  0  0  0  0  0  0  0  0  0  0  0
    3.9423    1.9172    0.5676 C   0  0  0  0  0  0  0  0  0  0  0  0
    4.3156   -0.6159   -3.0799 H   0  0  0  0  0  0  0  0  0  0  0  0
    5.3956    0.5620   -2.2862 H   0  0  0  0  0  0  0  0  0  0  0  0
    4.0335    1.1351   -3.2889 H   0  0  0  0  0  0  0  0  0  0  0  0
    3.7759   -0.3819   -0.6061 H   0  0  0  0  0  0  0  0  0  0  0  0
    2.4054    0.1029   -1.6389 H   0  0  0  0  0  0  0  0  0  0  0  0
    2.6076    4.6989   -0.6383 H   0  0  0  0  0  0  0  0  0  0  0  0
    4.1024    5.2905    3.4497 H   0  0  0  0  0  0  0  0  0  0  0  0
    2.2627    5.6209    1.2727 H   0  0  0  0  0  0  0  0  0  0  0  0
    1.9073    6.4974    3.5862 H   0  0  0  0  0  0  0  0  0  0  0  0
    1.7161    7.7005    2.3070 H   0  0  0  0  0  0  0  0  0  0  0  0
    4.1794    7.4221    4.1395 H   0  0  0  0  0  0  0  0  0  0  0  0
    2.9746    8.7006    4.1857 H   0  0  0  0  0  0  0  0  0  0  0  0
    5.0711    9.4039    2.9544 H   0  0  0  0  0  0  0  0  0  0  0  0
    3.6347    9.4858    1.9276 H   0  0  0  0  0  0  0  0  0  0  0  0
    5.7158    7.2193    1.9471 H   0  0  0  0  0  0  0  0  0  0  0  0
    5.4982    8.4172    0.6716 H   0  0  0  0  0  0  0  0  0  0  0  0
    4.4171    6.2308    0.0733 H   0  0  0  0  0  0  0  0  0  0  0  0
    3.2268    7.5352    0.1650 H   0  0  0  0  0  0  0  0  0  0  0  0
    5.8675    5.2306    6.2286 H   0  0  0  0  0  0  0  0  0  0  0  0
   10.4244    3.0126    7.4312 H   0  0  0  0  0  0  0  0  0  0  0  0
    9.8926    4.5761    8.1206 H   0  0  0  0  0  0  0  0  0  0  0  0
   13.9371    5.8418    6.8548 H   0  0  0  0  0  0  0  0  0  0  0  0
   12.7221    6.6807    5.8193 H   0  0  0  0  0  0  0  0  0  0  0  0
   13.4028    5.1137    5.2934 H   0  0  0  0  0  0  0  0  0  0  0  0
    6.2120    5.4233    3.9277 H   0  0  0  0  0  0  0  0  0  0  0  0
    8.1877    3.0598    3.9413 H   0  0  0  0  0  0  0  0  0  0  0  0
    8.6342    4.7666    3.7551 H   0  0  0  0  0  0  0  0  0  0  0  0
    7.6419    3.9630    2.5042 H   0  0  0  0  0  0  0  0  0  0  0  0
    5.5405    0.9097    3.1812 H   0  0  0  0  0  0  0  0  0  0  0  0
  1  2  1  0
  1 33  1  0
  1 34  1  0
  1 35  1  0
  2  3  1  0
  2 36  1  0
  2 37  1  0
  3  4  1  0
  3 32  1  0
  4  5  2  0
  5  6  1  0
  5 38  1  0
  6  7  1  0
  6 32  2  0
  7  8  1  0
  7 15  2  0
  8  9  1  0
  8 39  1  0
  9 10  1  0
  9 14  1  0
  9 40  1  6
 10 11  1  0
 10 41  1  0
 10 42  1  0
 11 12  1  0
 11 43  1  0
 11 44  1  0
 12 13  1  0
 12 45  1  0
 12 46  1  0
 13 14  1  0
 13 47  1  0
 13 48  1  0
 14 49  1  0
 14 50  1  0
 15 16  1  0
 15 30  1  0
 16 17  2  0
 16 28  1  0
 17 18  1  0
 18 19  1  0
 19 20  1  0
 19 28  1  0
 19 51  1  1
 20 21  2  0
 20 22  1  0
 22 23  1  0
 23 24  1  0
 23 52  1  0
 23 53  1  0
 24 25  2  0
 24 26  1  0
 26 27  1  0
 27 54  1  0
 27 55  1  0
 27 56  1  0
 28 29  1  0
 28 57  1  6
 29 58  1  0
 29 59  1  0
 29 60  1  0
 30 31  2  0
 30 61  1  0
 31 32  1  0
M  END

