
     RDKit          3D

 37 38  0  0  0  0  0  0  0  0999 V2000
    0.7808    0.5627   -0.9460 C   0  0  0  0  0  0  0  0  0  0  0  0
    2.0957    1.1452   -1.4270 C   0  0  0  0  0  0  0  0  0  0  0  0
    3.0710    0.1136   -1.4108 O   0  0  0  0  0  0  0  0  0  0  0  0
    4.3517    0.3857   -1.7887 C   0  0  0  0  0  0  0  0  0  0  0  0
    4.8144    1.6270   -2.2301 C   0  0  0  0  0  0  0  0  0  0  0  0
    6.1528    1.7923   -2.6020 C   0  0  0  0  0  0  0  0  0  0  0  0
    7.0361    0.7104   -2.5530 C   0  0  0  0  0  0  0  0  0  0  0  0
    8.4604    0.9588   -2.9686 C   0  0  0  0  0  0  0  0  0  0  0  0
    8.9462    2.0691   -2.9874 O   0  0  0  0  0  0  0  0  0  0  0  0
    9.1482   -0.1919   -3.3640 N   0  0  0  0  0  0  0  0  0  0  0  0
   10.5028   -0.2990   -3.7137 C   0  0  0  0  0  0  0  0  0  0  0  0
   10.8896   -1.2651   -4.6663 C   0  0  0  0  0  0  0  0  0  0  0  0
   12.2386   -1.3895   -4.9748 C   0  0  0  0  0  0  0  0  0  0  0  0
   13.1829   -0.5525   -4.3574 C   0  0  0  0  0  0  0  0  0  0  0  0
   14.6546   -0.6389   -4.6685 C   0  0  0  0  0  0  0  0  0  0  0  0
   12.6728    0.3692   -3.4323 C   0  0  0  0  0  0  0  0  0  0  0  0
   11.3858    0.4885   -3.1078 N   0  0  0  0  0  0  0  0  0  0  0  0
    6.5699   -0.5371   -2.0949 C   0  0  0  0  0  0  0  0  0  0  0  0
    5.2390   -0.7232   -1.7040 C   0  0  0  0  0  0  0  0  0  0  0  0
    4.7675   -1.9172   -1.1851 N   0  0  0  0  0  0  0  0  0  0  0  0
   -0.0002    1.3387   -0.9438 H   0  0  0  0  0  0  0  0  0  0  0  0
    0.8805    0.1674    0.0766 H   0  0  0  0  0  0  0  0  0  0  0  0
    0.4525   -0.2570   -1.6036 H   0  0  0  0  0  0  0  0  0  0  0  0
    2.4200    1.9761   -0.7730 H   0  0  0  0  0  0  0  0  0  0  0  0
    1.9948    1.5509   -2.4513 H   0  0  0  0  0  0  0  0  0  0  0  0
    4.1347    2.4774   -2.2887 H   0  0  0  0  0  0  0  0  0  0  0  0
    6.5270    2.7608   -2.9364 H   0  0  0  0  0  0  0  0  0  0  0  0
    8.5696   -0.9850   -3.6109 H   0  0  0  0  0  0  0  0  0  0  0  0
   10.1426   -1.8947   -5.1570 H   0  0  0  0  0  0  0  0  0  0  0  0
   12.5610   -2.1340   -5.7093 H   0  0  0  0  0  0  0  0  0  0  0  0
   15.0558   -1.6441   -4.4552 H   0  0  0  0  0  0  0  0  0  0  0  0
   15.2314    0.0844   -4.0730 H   0  0  0  0  0  0  0  0  0  0  0  0
   14.8556   -0.4306   -5.7331 H   0  0  0  0  0  0  0  0  0  0  0  0
   13.3617    1.0476   -2.9122 H   0  0  0  0  0  0  0  0  0  0  0  0
    7.2587   -1.3795   -1.9861 H   0  0  0  0  0  0  0  0  0  0  0  0
    5.2731   -2.7574   -1.4368 H   0  0  0  0  0  0  0  0  0  0  0  0
    3.7593   -2.0173   -1.1794 H   0  0  0  0  0  0  0  0  0  0  0  0
  1  2  1  0
  1 21  1  0
  1 22  1  0
  1 23  1  0
  2  3  1  0
  2 24  1  0
  2 25  1  0
  3  4  1  0
  4  5  2  0
  4 19  1  0
  5  6  1  0
  5 26  1  0
  6  7  2  0
  6 27  1  0
  7  8  1  0
  7 18  1  0
  8  9  2  0
  8 10  1  0
 10 11  1  0
 10 28  1  0
 11 12  2  0
 11 17  1  0
 12 13  1  0
 12 29  1  0
 13 14  2  0
 13 30  1  0
 14 15  1  0
 14 16  1  0
 15 31  1  0
 15 32  1  0
 15 33  1  0
 16 17  2  0
 16 34  1  0
 18 19  2  0
 18 35  1  0
 19 20  1  0
 20 36  1  0
 20 37  1  0
M  END

