
     RDKit          3D

 32 33  0  0  0  0  0  0  0  0999 V2000
    1.4507    1.3894    0.0144 O   0  0  0  0  0  0  0  0  0  0  0  0
    2.0247    0.3204    0.1589 N   0  0  0  0  0  0  0  0  0  0  0  0
    1.9166   -0.6361   -0.5941 O   0  0  0  0  0  0  0  0  0  0  0  0
    2.9108    0.1737    1.3251 C   0  0  0  0  0  0  0  0  0  0  0  0
    3.0606    1.2441    2.2082 C   0  0  0  0  0  0  0  0  0  0  0  0
    3.9010    1.0935    3.3066 C   0  0  0  0  0  0  0  0  0  0  0  0
    4.6007   -0.1116    3.5451 C   0  0  0  0  0  0  0  0  0  0  0  0
    5.4674   -0.2038    4.7166 C   0  0  0  0  0  0  0  0  0  0  0  0
    6.2133   -1.2695    5.1072 C   0  0  0  0  0  0  0  0  0  0  0  0
    7.0479   -1.2823    6.2827 C   0  0  0  0  0  0  0  0  0  0  0  0
    7.7893   -2.3539    6.6633 C   0  0  0  0  0  0  0  0  0  0  0  0
    8.6639   -2.4696    7.8299 C   0  0  0  0  0  0  0  0  0  0  0  0
    8.8554   -1.4265    8.7629 C   0  0  0  0  0  0  0  0  0  0  0  0
    9.7014   -1.5914    9.8569 C   0  0  0  0  0  0  0  0  0  0  0  0
   10.3808   -2.8008   10.0529 C   0  0  0  0  0  0  0  0  0  0  0  0
   10.2041   -3.8450    9.1409 C   0  0  0  0  0  0  0  0  0  0  0  0
    9.3565   -3.6799    8.0449 C   0  0  0  0  0  0  0  0  0  0  0  0
    4.4201   -1.1715    2.6248 C   0  0  0  0  0  0  0  0  0  0  0  0
    3.5845   -1.0359    1.5237 C   0  0  0  0  0  0  0  0  0  0  0  0
    2.5193    2.1708    2.0203 H   0  0  0  0  0  0  0  0  0  0  0  0
    4.0245    1.9263    4.0035 H   0  0  0  0  0  0  0  0  0  0  0  0
    5.5070    0.6981    5.3379 H   0  0  0  0  0  0  0  0  0  0  0  0
    6.2009   -2.1902    4.5133 H   0  0  0  0  0  0  0  0  0  0  0  0
    7.0644   -0.3642    6.8800 H   0  0  0  0  0  0  0  0  0  0  0  0
    7.7400   -3.2494    6.0324 H   0  0  0  0  0  0  0  0  0  0  0  0
    8.3361   -0.4749    8.6315 H   0  0  0  0  0  0  0  0  0  0  0  0
    9.8342   -0.7702   10.5660 H   0  0  0  0  0  0  0  0  0  0  0  0
   11.0437   -2.9258   10.9126 H   0  0  0  0  0  0  0  0  0  0  0  0
   10.7287   -4.7930    9.2839 H   0  0  0  0  0  0  0  0  0  0  0  0
    9.2229   -4.5013    7.3353 H   0  0  0  0  0  0  0  0  0  0  0  0
    4.9421   -2.1184    2.7727 H   0  0  0  0  0  0  0  0  0  0  0  0
    3.4402   -1.8471    0.8106 H   0  0  0  0  0  0  0  0  0  0  0  0
  1  2  2  0
  2  3  1  0
  2  4  1  0
  4  5  2  0
  4 19  1  0
  5  6  1  0
  5 20  1  0
  6  7  2  0
  6 21  1  0
  7  8  1  0
  7 18  1  0
  8  9  2  0
  8 22  1  0
  9 10  1  0
  9 23  1  0
 10 11  2  0
 10 24  1  0
 11 12  1  0
 11 25  1  0
 12 13  2  0
 12 17  1  0
 13 14  1  0
 13 26  1  0
 14 15  2  0
 14 27  1  0
 15 16  1  0
 15 28  1  0
 16 17  2  0
 16 29  1  0
 17 30  1  0
 18 19  2  0
 18 31  1  0
 19 32  1  0
M  CHG  2   2   1   3  -1
M  END

