
     RDKit          3D

 39 40  0  0  0  0  0  0  0  0999 V2000
    1.4313   -0.0807    0.7488 C   0  0  0  0  0  0  0  0  0  0  0  0
    2.7975    0.0277    0.0479 C   0  0  1  0  0  0  0  0  0  0  0  0
    3.4964    0.4170    0.8023 H   0  0  0  0  0  0  0  0  0  0  0  0
    3.3485   -1.3650   -0.3300 C   0  0  0  0  0  0  0  0  0  0  0  0
    2.7707   -1.9197   -1.6316 C   0  0  0  0  0  0  0  0  0  0  0  0
    2.9560   -0.9112   -2.7644 C   0  0  0  0  0  0  0  0  0  0  0  0
    2.2942    0.4760   -2.5149 C   0  0  2  0  0  0  0  0  0  0  0  0
    0.7614    0.2649   -2.4959 C   0  0  0  0  0  0  0  0  0  0  0  0
    2.6405    1.3452   -3.7513 C   0  0  0  0  0  0  0  0  0  0  0  0
    2.8850    1.0594   -1.1458 C   0  0  2  0  0  0  0  0  0  0  0  0
    4.3799    1.3933   -1.3873 C   0  0  0  0  0  0  0  0  0  0  0  0
    5.3102    0.9638   -0.7526 O   0  0  0  0  0  0  0  0  0  0  0  0
    2.3629    2.4462   -0.6733 C   0  0  0  0  0  0  0  0  0  0  0  0
    1.4037    3.2320   -1.3325 C   0  0  0  0  0  0  0  0  0  0  0  0
    1.0259    4.4761   -0.8314 C   0  0  0  0  0  0  0  0  0  0  0  0
    0.1039    5.1966   -1.4752 F   0  0  0  0  0  0  0  0  0  0  0  0
    1.5889    4.9988    0.3313 C   0  0  0  0  0  0  0  0  0  0  0  0
    1.2220    6.1873    0.8009 F   0  0  0  0  0  0  0  0  0  0  0  0
    2.5579    4.2321    0.9820 C   0  0  0  0  0  0  0  0  0  0  0  0
    3.1187    4.7204    2.0897 F   0  0  0  0  0  0  0  0  0  0  0  0
    2.9431    2.9903    0.4928 C   0  0  0  0  0  0  0  0  0  0  0  0
    1.5700   -0.5521    1.7349 H   0  0  0  0  0  0  0  0  0  0  0  0
    0.7108   -0.7039    0.2009 H   0  0  0  0  0  0  0  0  0  0  0  0
    0.9621    0.8996    0.9170 H   0  0  0  0  0  0  0  0  0  0  0  0
    3.1555   -2.0583    0.5062 H   0  0  0  0  0  0  0  0  0  0  0  0
    4.4416   -1.2940   -0.4294 H   0  0  0  0  0  0  0  0  0  0  0  0
    1.7040   -2.1744   -1.5142 H   0  0  0  0  0  0  0  0  0  0  0  0
    3.2761   -2.8647   -1.8922 H   0  0  0  0  0  0  0  0  0  0  0  0
    2.5540   -1.3138   -3.7098 H   0  0  0  0  0  0  0  0  0  0  0  0
    4.0380   -0.7666   -2.9352 H   0  0  0  0  0  0  0  0  0  0  0  0
    0.4556   -0.1819   -3.4559 H   0  0  0  0  0  0  0  0  0  0  0  0
    0.1865    1.1904   -2.3757 H   0  0  0  0  0  0  0  0  0  0  0  0
    0.4343   -0.4175   -1.7049 H   0  0  0  0  0  0  0  0  0  0  0  0
    2.1130    0.9420   -4.6302 H   0  0  0  0  0  0  0  0  0  0  0  0
    3.7132    1.3200   -3.9926 H   0  0  0  0  0  0  0  0  0  0  0  0
    2.3500    2.3996   -3.6509 H   0  0  0  0  0  0  0  0  0  0  0  0
    4.5521    2.1487   -2.1909 H   0  0  0  0  0  0  0  0  0  0  0  0
    0.9110    2.9210   -2.2476 H   0  0  0  0  0  0  0  0  0  0  0  0
    3.7175    2.4621    1.0492 H   0  0  0  0  0  0  0  0  0  0  0  0
  1  2  1  0
  1 22  1  0
  1 23  1  0
  1 24  1  0
  2  3  1  1
  2  4  1  0
  2 10  1  0
  4  5  1  0
  4 25  1  0
  4 26  1  0
  5  6  1  0
  5 27  1  0
  5 28  1  0
  6  7  1  0
  6 29  1  0
  6 30  1  0
  7  8  1  1
  7  9  1  0
  7 10  1  0
  8 31  1  0
  8 32  1  0
  8 33  1  0
  9 34  1  0
  9 35  1  0
  9 36  1  0
 10 11  1  6
 10 13  1  0
 11 12  2  0
 11 37  1  0
 13 14  2  0
 13 21  1  0
 14 15  1  0
 14 38  1  0
 15 16  1  0
 15 17  2  0
 17 18  1  0
 17 19  1  0
 19 20  1  0
 19 21  2  0
 21 39  1  0
M  END

