
     RDKit          3D

 32 33  0  0  0  0  0  0  0  0999 V2000
    1.2546   -0.4540   -0.2955 C   0  0  0  0  0  0  0  0  0  0  0  0
    2.7226   -0.1296   -0.1472 C   0  0  0  0  0  0  0  0  0  0  0  0
    3.6138   -0.9449    0.7399 C   0  0  0  0  0  0  0  0  0  0  0  0
    4.7860   -0.6545    0.9343 O   0  0  0  0  0  0  0  0  0  0  0  0
    3.0038   -2.0470    1.3181 N   0  0  0  0  0  0  0  0  0  0  0  0
    3.5473   -3.0033    2.1900 C   0  0  0  0  0  0  0  0  0  0  0  0
    4.8833   -2.9517    2.6197 C   0  0  0  0  0  0  0  0  0  0  0  0
    5.3679   -3.9256    3.4856 C   0  0  0  0  0  0  0  0  0  0  0  0
    6.6414   -3.8541    3.8796 F   0  0  0  0  0  0  0  0  0  0  0  0
    4.5526   -4.9624    3.9417 C   0  0  0  0  0  0  0  0  0  0  0  0
    5.2449   -6.2763    5.1233 Br  0  0  0  0  0  0  0  0  0  0  0  0
    3.2246   -5.0088    3.5102 C   0  0  0  0  0  0  0  0  0  0  0  0
    2.6985   -4.0491    2.6406 C   0  0  0  0  0  0  0  0  0  0  0  0
    1.2577   -4.1331    2.1973 C   0  0  0  0  0  0  0  0  0  0  0  0
    3.2859    0.9027   -0.7985 C   0  0  0  0  0  0  0  0  0  0  0  0
    2.7916    1.9536   -1.7725 C   0  0  0  0  0  0  0  0  0  0  0  0
    4.1977    2.3334   -2.0336 N   0  0  0  0  0  0  0  0  0  0  0  0
    4.6773    1.4787   -0.9181 C   0  0  0  0  0  0  0  0  0  0  0  0
    0.7231   -0.4174    0.6718 H   0  0  0  0  0  0  0  0  0  0  0  0
    1.0935   -1.4598   -0.7241 H   0  0  0  0  0  0  0  0  0  0  0  0
    0.7556    0.2605   -0.9646 H   0  0  0  0  0  0  0  0  0  0  0  0
    2.0332   -2.1917    1.0774 H   0  0  0  0  0  0  0  0  0  0  0  0
    5.5406   -2.1559    2.2789 H   0  0  0  0  0  0  0  0  0  0  0  0
    2.5844   -5.8187    3.8652 H   0  0  0  0  0  0  0  0  0  0  0  0
    0.7589   -5.0035    2.6452 H   0  0  0  0  0  0  0  0  0  0  0  0
    1.1657   -4.2362    1.1010 H   0  0  0  0  0  0  0  0  0  0  0  0
    0.6788   -3.2401    2.4945 H   0  0  0  0  0  0  0  0  0  0  0  0
    2.1693    2.7298   -1.2812 H   0  0  0  0  0  0  0  0  0  0  0  0
    2.2367    1.5921   -2.6588 H   0  0  0  0  0  0  0  0  0  0  0  0
    4.4008    3.3264   -1.9416 H   0  0  0  0  0  0  0  0  0  0  0  0
    4.9986    2.0084   -0.0007 H   0  0  0  0  0  0  0  0  0  0  0  0
    5.4770    0.7653   -1.1782 H   0  0  0  0  0  0  0  0  0  0  0  0
  1  2  1  0
  1 19  1  0
  1 20  1  0
  1 21  1  0
  2  3  1  0
  2 15  2  0
  3  4  2  0
  3  5  1  0
  5  6  1  0
  5 22  1  0
  6  7  2  0
  6 13  1  0
  7  8  1  0
  7 23  1  0
  8  9  1  0
  8 10  2  0
 10 11  1  0
 10 12  1  0
 12 13  2  0
 12 24  1  0
 13 14  1  0
 14 25  1  0
 14 26  1  0
 14 27  1  0
 15 16  1  0
 15 18  1  0
 16 17  1  0
 16 28  1  0
 16 29  1  0
 17 18  1  0
 17 30  1  0
 18 31  1  0
 18 32  1  0
M  END

