
     RDKit          3D

 59 62  0  0  0  0  0  0  0  0999 V2000
    3.2222   -2.5163    2.3974 C   0  0  0  0  0  0  0  0  0  0  0  0
    3.8209   -3.5553    1.4655 C   0  0  0  0  0  0  0  0  0  0  0  0
    4.6129   -2.9478    0.4214 O   0  0  0  0  0  0  0  0  0  0  0  0
    3.9753   -2.5625   -0.6926 C   0  0  0  0  0  0  0  0  0  0  0  0
    2.7850   -2.6264   -0.8638 O   0  0  0  0  0  0  0  0  0  0  0  0
    4.9224   -1.9849   -1.7440 C   0  0  0  0  0  0  0  0  0  0  0  0
    6.3206   -2.3174   -1.5935 N   0  0  0  0  0  0  0  0  0  0  0  0
    6.7642   -3.6021   -2.0530 C   0  0  0  0  0  0  0  0  0  0  0  0
    5.9938   -4.4543   -2.4547 O   0  0  0  0  0  0  0  0  0  0  0  0
    8.2171   -3.5152   -1.9733 C   0  0  0  0  0  0  0  0  0  0  0  0
    9.3640   -4.2878   -2.0445 C   0  0  0  0  0  0  0  0  0  0  0  0
    9.4648   -5.7208   -2.3328 C   0  0  0  0  0  0  0  0  0  0  0  0
    8.5392   -6.3117   -3.2200 C   0  0  0  0  0  0  0  0  0  0  0  0
    8.5937   -7.6723   -3.4992 C   0  0  0  0  0  0  0  0  0  0  0  0
    9.5694   -8.4830   -2.8872 C   0  0  0  0  0  0  0  0  0  0  0  0
    9.6330   -9.8873   -3.1794 C   0  0  0  0  0  0  0  0  0  0  0  0
    9.6879  -11.0228   -3.4169 N   0  0  0  0  0  0  0  0  0  0  0  0
   10.4735   -7.9076   -1.9744 C   0  0  0  0  0  0  0  0  0  0  0  0
   10.4201   -6.5448   -1.6991 C   0  0  0  0  0  0  0  0  0  0  0  0
   10.4407   -3.4629   -1.7150 N   0  0  0  0  0  0  0  0  0  0  0  0
   11.8547   -3.6819   -1.9099 C   0  0  0  0  0  0  0  0  0  0  0  0
   12.6071   -3.9615   -0.6106 C   0  0  0  0  0  0  0  0  0  0  0  0
   12.1236   -4.4887    0.3616 O   0  0  0  0  0  0  0  0  0  0  0  0
   13.8853   -3.5905   -0.7260 O   0  0  0  0  0  0  0  0  0  0  0  0
   14.7574   -3.8152    0.4035 C   0  0  0  0  0  0  0  0  0  0  0  0
   14.7022   -2.6568    1.3837 C   0  0  0  0  0  0  0  0  0  0  0  0
   10.0047   -2.1367   -1.3743 C   0  0  0  0  0  0  0  0  0  0  0  0
   10.7890   -1.2435   -1.1093 O   0  0  0  0  0  0  0  0  0  0  0  0
    8.5579   -2.2013   -1.5227 C   0  0  0  0  0  0  0  0  0  0  0  0
    7.3945   -1.4945   -1.2534 C   0  0  0  0  0  0  0  0  0  0  0  0
    7.2705   -0.1546   -0.6727 C   0  0  0  0  0  0  0  0  0  0  0  0
    8.2715    0.8033   -0.9416 C   0  0  0  0  0  0  0  0  0  0  0  0
    8.1928    2.0806   -0.3890 C   0  0  0  0  0  0  0  0  0  0  0  0
    7.1281    2.4237    0.4511 C   0  0  0  0  0  0  0  0  0  0  0  0
    6.1472    1.4729    0.7503 C   0  0  0  0  0  0  0  0  0  0  0  0
    6.2147    0.1944    0.1966 C   0  0  0  0  0  0  0  0  0  0  0  0
    2.6767   -3.0192    3.2119 H   0  0  0  0  0  0  0  0  0  0  0  0
    2.5113   -1.8713    1.8600 H   0  0  0  0  0  0  0  0  0  0  0  0
    4.0062   -1.8890    2.8500 H   0  0  0  0  0  0  0  0  0  0  0  0
    3.0353   -4.1656    0.9969 H   0  0  0  0  0  0  0  0  0  0  0  0
    4.5229   -4.2146    1.9950 H   0  0  0  0  0  0  0  0  0  0  0  0
    4.7913   -0.8942   -1.7606 H   0  0  0  0  0  0  0  0  0  0  0  0
    4.5641   -2.3779   -2.7072 H   0  0  0  0  0  0  0  0  0  0  0  0
    7.7622   -5.6986   -3.6776 H   0  0  0  0  0  0  0  0  0  0  0  0
    7.8774   -8.1180   -4.1917 H   0  0  0  0  0  0  0  0  0  0  0  0
   11.2082   -8.5391   -1.4715 H   0  0  0  0  0  0  0  0  0  0  0  0
   11.0835   -6.1250   -0.9424 H   0  0  0  0  0  0  0  0  0  0  0  0
   12.2930   -2.7836   -2.3677 H   0  0  0  0  0  0  0  0  0  0  0  0
   12.0191   -4.5274   -2.5944 H   0  0  0  0  0  0  0  0  0  0  0  0
   15.7584   -3.9228   -0.0380 H   0  0  0  0  0  0  0  0  0  0  0  0
   14.4720   -4.7605    0.8882 H   0  0  0  0  0  0  0  0  0  0  0  0
   14.9463   -1.7067    0.8844 H   0  0  0  0  0  0  0  0  0  0  0  0
   15.4311   -2.8200    2.1936 H   0  0  0  0  0  0  0  0  0  0  0  0
   13.7023   -2.5718    1.8340 H   0  0  0  0  0  0  0  0  0  0  0  0
    9.1194    0.5341   -1.5722 H   0  0  0  0  0  0  0  0  0  0  0  0
    8.9728    2.8123   -0.6122 H   0  0  0  0  0  0  0  0  0  0  0  0
    7.0702    3.4258    0.8832 H   0  0  0  0  0  0  0  0  0  0  0  0
    5.3286    1.7243    1.4291 H   0  0  0  0  0  0  0  0  0  0  0  0
    5.4764   -0.5540    0.4832 H   0  0  0  0  0  0  0  0  0  0  0  0
  1  2  1  0
  1 37  1  0
  1 38  1  0
  1 39  1  0
  2  3  1  0
  2 40  1  0
  2 41  1  0
  3  4  1  0
  4  5  2  0
  4  6  1  0
  6  7  1  0
  6 42  1  0
  6 43  1  0
  7  8  1  0
  7 30  1  0
  8  9  2  0
  8 10  1  0
 10 11  2  0
 10 29  1  0
 11 12  1  0
 11 20  1  0
 12 13  2  0
 12 19  1  0
 13 14  1  0
 13 44  1  0
 14 15  2  0
 14 45  1  0
 15 16  1  0
 15 18  1  0
 16 17  3  0
 18 19  2  0
 18 46  1  0
 19 47  1  0
 20 21  1  0
 20 27  1  0
 21 22  1  0
 21 48  1  0
 21 49  1  0
 22 23  2  0
 22 24  1  0
 24 25  1  0
 25 26  1  0
 25 50  1  0
 25 51  1  0
 26 52  1  0
 26 53  1  0
 26 54  1  0
 27 28  2  0
 27 29  1  0
 29 30  2  0
 30 31  1  0
 31 32  2  0
 31 36  1  0
 32 33  1  0
 32 55  1  0
 33 34  2  0
 33 56  1  0
 34 35  1  0
 34 57  1  0
 35 36  2  0
 35 58  1  0
 36 59  1  0
M  END

