
     RDKit          3D

 58 59  0  0  0  0  0  0  0  0999 V2000
    3.6631   -1.2327   -1.4026 C   0  0  0  0  0  0  0  0  0  0  0  0
    2.9389   -0.2317   -0.4789 C   0  0  1  0  0  0  0  0  0  0  0  0
    3.2197   -0.6039    0.9942 C   0  0  0  0  0  0  0  0  0  0  0  0
    2.4392    0.2340    2.0059 C   0  0  0  0  0  0  0  0  0  0  0  0
    2.6789   -0.1396    3.5047 C   0  0  1  0  0  0  0  0  0  0  0  0
    2.1933   -1.5200    3.7064 C   0  0  0  0  0  0  0  0  0  0  0  0
    1.7768   -2.5921    3.8532 N   0  0  0  0  0  0  0  0  0  0  0  0
    4.1815   -0.0496    3.8422 C   0  0  0  0  0  0  0  0  0  0  0  0
    4.8555    1.1715    3.6684 C   0  0  0  0  0  0  0  0  0  0  0  0
    6.2134    1.3039    3.9628 C   0  0  0  0  0  0  0  0  0  0  0  0
    6.9232    0.1978    4.4385 C   0  0  0  0  0  0  0  0  0  0  0  0
    8.7795    0.3675    4.8420 Br  0  0  0  0  0  0  0  0  0  0  0  0
    6.2813   -1.0275    4.6177 C   0  0  0  0  0  0  0  0  0  0  0  0
    4.9196   -1.1418    4.3189 C   0  0  0  0  0  0  0  0  0  0  0  0
    1.8511    0.8104    4.4645 C   0  0  1  0  0  0  0  0  0  0  0  0
    0.3472    0.8282    4.1570 C   0  0  0  0  0  0  0  0  0  0  0  0
    2.0874    0.4844    5.9451 C   0  0  0  0  0  0  0  0  0  0  0  0
    3.2227    1.1880   -0.7444 N   0  0  0  0  0  0  0  0  0  0  0  0
    4.6222    1.5490   -0.8563 C   0  0  0  0  0  0  0  0  0  0  0  0
    2.3356    1.9069   -1.6751 C   0  0  1  0  0  0  0  0  0  0  0  0
    2.3774    1.4335   -3.1403 C   0  0  0  0  0  0  0  0  0  0  0  0
    0.9169    2.0195   -1.1080 C   0  0  0  0  0  0  0  0  0  0  0  0
    0.7049    2.8416    0.0129 C   0  0  0  0  0  0  0  0  0  0  0  0
   -0.5640    2.9905    0.5735 C   0  0  0  0  0  0  0  0  0  0  0  0
   -1.6577    2.3088    0.0252 C   0  0  0  0  0  0  0  0  0  0  0  0
   -1.4649    1.4896   -1.0876 C   0  0  0  0  0  0  0  0  0  0  0  0
   -0.1895    1.3514   -1.6510 C   0  0  0  0  0  0  0  0  0  0  0  0
    3.3052   -2.2564   -1.2087 H   0  0  0  0  0  0  0  0  0  0  0  0
    4.7510   -1.2302   -1.2269 H   0  0  0  0  0  0  0  0  0  0  0  0
    3.4953   -1.0151   -2.4666 H   0  0  0  0  0  0  0  0  0  0  0  0
    1.8549   -0.3541   -0.6381 H   0  0  0  0  0  0  0  0  0  0  0  0
    4.3022   -0.5265    1.1913 H   0  0  0  0  0  0  0  0  0  0  0  0
    2.9680   -1.6699    1.1257 H   0  0  0  0  0  0  0  0  0  0  0  0
    1.3649    0.1448    1.7896 H   0  0  0  0  0  0  0  0  0  0  0  0
    2.6898    1.2964    1.8709 H   0  0  0  0  0  0  0  0  0  0  0  0
    4.3204    2.0466    3.2938 H   0  0  0  0  0  0  0  0  0  0  0  0
    6.7171    2.2616    3.8220 H   0  0  0  0  0  0  0  0  0  0  0  0
    6.8357   -1.8913    4.9881 H   0  0  0  0  0  0  0  0  0  0  0  0
    4.4301   -2.1069    4.4634 H   0  0  0  0  0  0  0  0  0  0  0  0
    2.2466    1.8222    4.2699 H   0  0  0  0  0  0  0  0  0  0  0  0
   -0.0928   -0.1781    4.2509 H   0  0  0  0  0  0  0  0  0  0  0  0
    0.1216    1.2092    3.1510 H   0  0  0  0  0  0  0  0  0  0  0  0
   -0.1690    1.4819    4.8777 H   0  0  0  0  0  0  0  0  0  0  0  0
    1.7096   -0.5204    6.1957 H   0  0  0  0  0  0  0  0  0  0  0  0
    1.5525    1.2073    6.5807 H   0  0  0  0  0  0  0  0  0  0  0  0
    3.1524    0.5239    6.2162 H   0  0  0  0  0  0  0  0  0  0  0  0
    5.1978    1.1131   -0.0250 H   0  0  0  0  0  0  0  0  0  0  0  0
    4.7320    2.6441   -0.7866 H   0  0  0  0  0  0  0  0  0  0  0  0
    5.1175    1.2295   -1.7990 H   0  0  0  0  0  0  0  0  0  0  0  0
    2.7276    2.9393   -1.6787 H   0  0  0  0  0  0  0  0  0  0  0  0
    1.9727    0.4189   -3.2705 H   0  0  0  0  0  0  0  0  0  0  0  0
    3.4128    1.4288   -3.5138 H   0  0  0  0  0  0  0  0  0  0  0  0
    1.7935    2.1109   -3.7833 H   0  0  0  0  0  0  0  0  0  0  0  0
    1.5558    3.3751    0.4455 H   0  0  0  0  0  0  0  0  0  0  0  0
   -0.7048    3.6456    1.4375 H   0  0  0  0  0  0  0  0  0  0  0  0
   -2.6534    2.4223    0.4614 H   0  0  0  0  0  0  0  0  0  0  0  0
   -2.3105    0.9544   -1.5274 H   0  0  0  0  0  0  0  0  0  0  0  0
   -0.0689    0.7120   -2.5274 H   0  0  0  0  0  0  0  0  0  0  0  0
  1  2  1  0
  1 28  1  0
  1 29  1  0
  1 30  1  0
  2  3  1  0
  2 18  1  0
  2 31  1  1
  3  4  1  0
  3 32  1  0
  3 33  1  0
  4  5  1  0
  4 34  1  0
  4 35  1  0
  5  6  1  6
  5  8  1  0
  5 15  1  0
  6  7  3  0
  8  9  2  0
  8 14  1  0
  9 10  1  0
  9 36  1  0
 10 11  2  0
 10 37  1  0
 11 12  1  0
 11 13  1  0
 13 14  2  0
 13 38  1  0
 14 39  1  0
 15 16  1  0
 15 17  1  0
 15 40  1  1
 16 41  1  0
 16 42  1  0
 16 43  1  0
 17 44  1  0
 17 45  1  0
 17 46  1  0
 18 19  1  0
 18 20  1  0
 19 47  1  0
 19 48  1  0
 19 49  1  0
 20 21  1  0
 20 22  1  0
 20 50  1  6
 21 51  1  0
 21 52  1  0
 21 53  1  0
 22 23  2  0
 22 27  1  0
 23 24  1  0
 23 54  1  0
 24 25  2  0
 24 55  1  0
 25 26  1  0
 25 56  1  0
 26 27  2  0
 26 57  1  0
 27 58  1  0
M  END

