
     RDKit          3D

 51 53  0  0  0  0  0  0  0  0999 V2000
   11.4058    2.7321    1.5309 C   0  0  0  0  0  0  0  0  0  0  0  0
    9.9125    2.9744    1.4291 C   0  0  0  0  0  0  0  0  0  0  0  0
    9.4442    3.7809    0.6476 O   0  0  0  0  0  0  0  0  0  0  0  0
    9.0574    2.2404    2.2378 N   0  0  0  0  0  0  0  0  0  0  0  0
    9.2808    1.2359    3.2011 C   0  0  0  0  0  0  0  0  0  0  0  0
   10.3468    1.2687    4.1129 C   0  0  0  0  0  0  0  0  0  0  0  0
   10.4923    0.2379    5.0455 C   0  0  0  0  0  0  0  0  0  0  0  0
    9.5816   -0.8172    5.1109 C   0  0  0  0  0  0  0  0  0  0  0  0
    8.4885   -0.8499    4.2261 C   0  0  0  0  0  0  0  0  0  0  0  0
    7.4508   -1.9719    4.2454 C   0  0  1  0  0  0  0  0  0  0  0  0
    8.0432   -3.3738    4.0473 C   0  0  0  0  0  0  0  0  0  0  0  0
    6.5242   -1.8509    5.4101 N   0  0  0  0  0  0  0  0  0  0  0  0
    5.2193   -1.2607    5.1014 C   0  0  0  0  0  0  0  0  0  0  0  0
    4.3641   -2.0956    4.1609 C   0  0  0  0  0  0  0  0  0  0  0  0
    4.1188   -3.4525    4.4263 C   0  0  0  0  0  0  0  0  0  0  0  0
    3.2969   -4.2053    3.5851 C   0  0  0  0  0  0  0  0  0  0  0  0
    2.7056   -3.6124    2.4639 C   0  0  0  0  0  0  0  0  0  0  0  0
    2.9424   -2.2633    2.1906 C   0  0  0  0  0  0  0  0  0  0  0  0
    3.7683   -1.5125    3.0340 C   0  0  0  0  0  0  0  0  0  0  0  0
    6.9140   -2.2373    6.6659 C   0  0  0  0  0  0  0  0  0  0  0  0
    7.9785   -2.7931    6.9014 O   0  0  0  0  0  0  0  0  0  0  0  0
    5.9970   -1.9615    7.8405 C   0  0  0  0  0  0  0  0  0  0  0  0
    5.5599   -3.0376    8.6299 C   0  0  0  0  0  0  0  0  0  0  0  0
    4.8474   -2.8877    9.7453 N   0  0  0  0  0  0  0  0  0  0  0  0
    4.5538   -1.6556   10.1597 C   0  0  0  0  0  0  0  0  0  0  0  0
    4.9690   -0.5166    9.4587 C   0  0  0  0  0  0  0  0  0  0  0  0
    4.5395    1.2157   10.1171 Br  0  0  0  0  0  0  0  0  0  0  0  0
    5.6985   -0.6650    8.2786 C   0  0  0  0  0  0  0  0  0  0  0  0
    8.3612    0.1726    3.2778 C   0  0  0  0  0  0  0  0  0  0  0  0
   11.8536    3.0680    0.5870 H   0  0  0  0  0  0  0  0  0  0  0  0
   11.6603    1.6799    1.7204 H   0  0  0  0  0  0  0  0  0  0  0  0
   11.8368    3.3395    2.3429 H   0  0  0  0  0  0  0  0  0  0  0  0
    8.0872    2.4108    1.9857 H   0  0  0  0  0  0  0  0  0  0  0  0
   11.0463    2.1037    4.1155 H   0  0  0  0  0  0  0  0  0  0  0  0
   11.3293    0.2712    5.7479 H   0  0  0  0  0  0  0  0  0  0  0  0
    9.6979   -1.6031    5.8568 H   0  0  0  0  0  0  0  0  0  0  0  0
    6.7970   -1.7988    3.3796 H   0  0  0  0  0  0  0  0  0  0  0  0
    8.7497   -3.6446    4.8390 H   0  0  0  0  0  0  0  0  0  0  0  0
    8.5608   -3.4052    3.0759 H   0  0  0  0  0  0  0  0  0  0  0  0
    7.2379   -4.1244    4.0291 H   0  0  0  0  0  0  0  0  0  0  0  0
    5.3665   -0.2570    4.6662 H   0  0  0  0  0  0  0  0  0  0  0  0
    4.6704   -1.1157    6.0396 H   0  0  0  0  0  0  0  0  0  0  0  0
    4.5761   -3.9238    5.3002 H   0  0  0  0  0  0  0  0  0  0  0  0
    3.1145   -5.2600    3.8065 H   0  0  0  0  0  0  0  0  0  0  0  0
    2.0631   -4.2023    1.8054 H   0  0  0  0  0  0  0  0  0  0  0  0
    2.4869   -1.7919    1.3160 H   0  0  0  0  0  0  0  0  0  0  0  0
    3.9496   -0.4561    2.8137 H   0  0  0  0  0  0  0  0  0  0  0  0
    5.8094   -4.0627    8.3344 H   0  0  0  0  0  0  0  0  0  0  0  0
    3.9735   -1.5555   11.0831 H   0  0  0  0  0  0  0  0  0  0  0  0
    6.0371    0.2120    7.7226 H   0  0  0  0  0  0  0  0  0  0  0  0
    7.5356    0.1443    2.5598 H   0  0  0  0  0  0  0  0  0  0  0  0
  1  2  1  0
  1 30  1  0
  1 31  1  0
  1 32  1  0
  2  3  2  0
  2  4  1  0
  4  5  1  0
  4 33  1  0
  5  6  2  0
  5 29  1  0
  6  7  1  0
  6 34  1  0
  7  8  2  0
  7 35  1  0
  8  9  1  0
  8 36  1  0
  9 10  1  0
  9 29  2  0
 10 11  1  0
 10 12  1  0
 10 37  1  6
 11 38  1  0
 11 39  1  0
 11 40  1  0
 12 13  1  0
 12 20  1  0
 13 14  1  0
 13 41  1  0
 13 42  1  0
 14 15  2  0
 14 19  1  0
 15 16  1  0
 15 43  1  0
 16 17  2  0
 16 44  1  0
 17 18  1  0
 17 45  1  0
 18 19  2  0
 18 46  1  0
 19 47  1  0
 20 21  2  0
 20 22  1  0
 22 23  2  0
 22 28  1  0
 23 24  1  0
 23 48  1  0
 24 25  2  0
 25 26  1  0
 25 49  1  0
 26 27  1  0
 26 28  2  0
 28 50  1  0
 29 51  1  0
M  END

