
     RDKit          3D

 45 47  0  0  0  0  0  0  0  0999 V2000
    0.8822    0.1051    0.7142 C   0  0  0  0  0  0  0  0  0  0  0  0
    2.3288    0.1965    0.3329 C   0  0  0  0  0  0  0  0  0  0  0  0
    3.1109    1.3370    0.3062 C   0  0  0  0  0  0  0  0  0  0  0  0
    4.3935    0.9058   -0.1027 C   0  0  0  0  0  0  0  0  0  0  0  0
    5.5486    1.8374   -0.2782 C   0  0  0  0  0  0  0  0  0  0  0  0
    5.3720    3.0414   -0.1052 O   0  0  0  0  0  0  0  0  0  0  0  0
    6.7745    1.3500   -0.6326 N   0  0  0  0  0  0  0  0  0  0  0  0
    7.2004   -0.0427   -0.8334 C   0  0  0  0  0  0  0  0  0  0  0  0
    8.7227    0.0782   -0.9895 C   0  0  0  0  0  0  0  0  0  0  0  0
    8.9178    1.4643   -1.6109 C   0  0  1  0  0  0  0  0  0  0  0  0
   10.3311    2.0962   -1.7115 C   0  0  0  0  0  0  0  0  0  0  0  0
   10.0006    2.5659   -3.1520 C   0  0  0  0  0  0  0  0  0  0  0  0
    8.7956    1.5913   -3.1632 C   0  0  0  0  0  0  0  0  0  0  0  0
    7.8757    2.2914   -0.8468 C   0  0  0  0  0  0  0  0  0  0  0  0
    4.3989   -0.4100   -0.3168 N   0  0  0  0  0  0  0  0  0  0  0  0
    3.1583   -0.8433   -0.0450 N   0  0  0  0  0  0  0  0  0  0  0  0
    2.8319   -2.2813   -0.2952 C   0  0  1  0  0  0  0  0  0  0  0  0
    4.1408   -3.0642   -0.4832 C   0  0  0  0  0  0  0  0  0  0  0  0
    2.0808   -2.8743    0.9106 C   0  0  0  0  0  0  0  0  0  0  0  0
    1.9904   -2.3844   -1.5816 C   0  0  0  0  0  0  0  0  0  0  0  0
    0.4714    1.1225    0.7748 H   0  0  0  0  0  0  0  0  0  0  0  0
    0.7349   -0.3666    1.6991 H   0  0  0  0  0  0  0  0  0  0  0  0
    0.2763   -0.4530   -0.0156 H   0  0  0  0  0  0  0  0  0  0  0  0
    2.8149    2.3544    0.5458 H   0  0  0  0  0  0  0  0  0  0  0  0
    6.7307   -0.4694   -1.7359 H   0  0  0  0  0  0  0  0  0  0  0  0
    6.8992   -0.6808    0.0084 H   0  0  0  0  0  0  0  0  0  0  0  0
    9.1524   -0.7330   -1.5975 H   0  0  0  0  0  0  0  0  0  0  0  0
    9.2120    0.0486    0.0001 H   0  0  0  0  0  0  0  0  0  0  0  0
   11.1214    1.3287   -1.6934 H   0  0  0  0  0  0  0  0  0  0  0  0
   10.5829    2.8694   -0.9676 H   0  0  0  0  0  0  0  0  0  0  0  0
   10.7746    2.4138   -3.9195 H   0  0  0  0  0  0  0  0  0  0  0  0
    9.6865    3.6204   -3.1850 H   0  0  0  0  0  0  0  0  0  0  0  0
    9.0339    0.6419   -3.6696 H   0  0  0  0  0  0  0  0  0  0  0  0
    7.8388    1.9663   -3.5595 H   0  0  0  0  0  0  0  0  0  0  0  0
    7.5182    3.1816   -1.3847 H   0  0  0  0  0  0  0  0  0  0  0  0
    8.2837    2.6450    0.1201 H   0  0  0  0  0  0  0  0  0  0  0  0
    4.7848   -2.9839    0.4039 H   0  0  0  0  0  0  0  0  0  0  0  0
    4.7110   -2.7015   -1.3469 H   0  0  0  0  0  0  0  0  0  0  0  0
    3.8930   -4.1250   -0.6414 H   0  0  0  0  0  0  0  0  0  0  0  0
    2.6483   -2.7143    1.8403 H   0  0  0  0  0  0  0  0  0  0  0  0
    1.9621   -3.9590    0.7667 H   0  0  0  0  0  0  0  0  0  0  0  0
    1.0765   -2.4519    1.0388 H   0  0  0  0  0  0  0  0  0  0  0  0
    2.5409   -1.9558   -2.4328 H   0  0  0  0  0  0  0  0  0  0  0  0
    1.0312   -1.8538   -1.4922 H   0  0  0  0  0  0  0  0  0  0  0  0
    1.7705   -3.4394   -1.8080 H   0  0  0  0  0  0  0  0  0  0  0  0
  1  2  1  0
  1 21  1  0
  1 22  1  0
  1 23  1  0
  2  3  2  0
  2 16  1  0
  3  4  1  0
  3 24  1  0
  4  5  1  0
  4 15  2  0
  5  6  2  0
  5  7  1  0
  7  8  1  0
  7 14  1  0
  8  9  1  0
  8 25  1  0
  8 26  1  0
 10  9  1  6
  9 27  1  0
  9 28  1  0
 10 11  1  0
 10 13  1  0
 10 14  1  0
 11 12  1  0
 11 29  1  0
 11 30  1  0
 12 13  1  0
 12 31  1  0
 12 32  1  0
 13 33  1  0
 13 34  1  0
 14 35  1  0
 14 36  1  0
 15 16  1  0
 16 17  1  0
 17 18  1  6
 17 19  1  0
 17 20  1  0
 18 37  1  0
 18 38  1  0
 18 39  1  0
 19 40  1  0
 19 41  1  0
 19 42  1  0
 20 43  1  0
 20 44  1  0
 20 45  1  0
M  END

