
     RDKit          3D

 27 30  0  0  0  0  0  0  0  0999 V2000
    1.2310    0.8785    0.8286 F   0  0  0  0  0  0  0  0  0  0  0  0
    2.4532    0.4352    0.4973 C   0  0  0  0  0  0  0  0  0  0  0  0
    3.4427    1.3784    0.1837 C   0  0  0  0  0  0  0  0  0  0  0  0
    4.7202    0.9442   -0.1636 C   0  0  0  0  0  0  0  0  0  0  0  0
    4.9909   -0.4284   -0.1926 C   0  0  0  0  0  0  0  0  0  0  0  0
    6.5411   -1.1701   -0.6072 S   0  0  0  0  0  0  0  0  0  0  0  0
    5.8437   -2.7613   -0.3534 C   0  0  0  0  0  0  0  0  0  0  0  0
    6.4180   -3.9767   -0.4735 N   0  0  0  0  0  0  0  0  0  0  0  0
    5.5568   -4.9246   -0.1957 C   0  0  0  0  0  0  0  0  0  0  0  0
    5.8682   -6.3588   -0.2344 C   0  0  0  0  0  0  0  0  0  0  0  0
    4.9090   -7.3419    0.0722 C   0  0  0  0  0  0  0  0  0  0  0  0
    5.2407   -8.6960    0.0237 C   0  0  0  0  0  0  0  0  0  0  0  0
    6.5345   -9.0909   -0.3315 C   0  0  0  0  0  0  0  0  0  0  0  0
    7.4954   -8.1203   -0.6379 C   0  0  0  0  0  0  0  0  0  0  0  0
    7.1692   -6.7663   -0.5909 C   0  0  0  0  0  0  0  0  0  0  0  0
    3.9349   -4.3318    0.2445 S   0  0  0  0  0  0  0  0  0  0  0  0
    4.5066   -2.7088    0.0245 C   0  0  0  0  0  0  0  0  0  0  0  0
    3.9772   -1.3810    0.1284 C   0  0  0  0  0  0  0  0  0  0  0  0
    2.6898   -0.9305    0.4778 C   0  0  0  0  0  0  0  0  0  0  0  0
    3.1922    2.4401    0.2178 H   0  0  0  0  0  0  0  0  0  0  0  0
    5.4974    1.6711   -0.4096 H   0  0  0  0  0  0  0  0  0  0  0  0
    3.8931   -7.0501    0.3517 H   0  0  0  0  0  0  0  0  0  0  0  0
    4.4842   -9.4468    0.2647 H   0  0  0  0  0  0  0  0  0  0  0  0
    6.7932  -10.1520   -0.3696 H   0  0  0  0  0  0  0  0  0  0  0  0
    8.5084   -8.4224   -0.9159 H   0  0  0  0  0  0  0  0  0  0  0  0
    7.9091   -6.0001   -0.8274 H   0  0  0  0  0  0  0  0  0  0  0  0
    1.8861   -1.6243    0.7300 H   0  0  0  0  0  0  0  0  0  0  0  0
  1  2  1  0
  2  3  2  0
  2 19  1  0
  3  4  1  0
  3 20  1  0
  4  5  2  0
  4 21  1  0
  5  6  1  0
  5 18  1  0
  6  7  1  0
  7  8  1  0
  7 17  2  0
  8  9  2  0
  9 10  1  0
  9 16  1  0
 10 11  2  0
 10 15  1  0
 11 12  1  0
 11 22  1  0
 12 13  2  0
 12 23  1  0
 13 14  1  0
 13 24  1  0
 14 15  2  0
 14 25  1  0
 15 26  1  0
 16 17  1  0
 17 18  1  0
 18 19  2  0
 19 27  1  0
M  END

