
     RDKit          3D

 45 46  0  0  0  0  0  0  0  0999 V2000
    4.7960   -1.3102    1.6465 C   0  0  0  0  0  0  0  0  0  0  0  0
    3.4635   -0.8377    2.2196 C   0  0  1  0  0  0  0  0  0  0  0  0
    3.3524    0.6629    2.5461 C   0  0  1  0  0  0  0  0  0  0  0  0
    3.8223    1.5991    1.4241 C   0  0  0  0  0  0  0  0  0  0  0  0
    4.4064    2.6287    1.6311 O   0  0  0  0  0  0  0  0  0  0  0  0
    3.4897    1.2216    0.1708 O   0  0  0  0  0  0  0  0  0  0  0  0
    1.8331    0.8040    2.7850 C   0  0  0  0  0  0  0  0  0  0  0  0
    1.1963   -0.1298    1.7372 C   0  0  0  0  0  0  0  0  0  0  0  0
    2.3084   -1.0235    1.2939 N   0  0  0  0  0  0  0  0  0  0  0  0
    1.9743   -2.3826    1.0140 C   0  0  0  0  0  0  0  0  0  0  0  0
    2.4421   -3.3021    1.6691 O   0  0  0  0  0  0  0  0  0  0  0  0
    1.0915   -2.5916   -0.0076 N   0  0  0  0  0  0  0  0  0  0  0  0
    0.5664   -3.9533   -0.2120 C   0  0  0  0  0  0  0  0  0  0  0  0
   -0.1825   -3.8760   -1.5507 C   0  0  0  0  0  0  0  0  0  0  0  0
   -0.5100   -2.3832   -1.7107 C   0  0  0  0  0  0  0  0  0  0  0  0
    0.7072   -1.6750   -1.0956 C   0  0  2  0  0  0  0  0  0  0  0  0
    1.8587   -1.4836   -2.1092 C   0  0  0  0  0  0  0  0  0  0  0  0
    1.5184   -0.5905   -3.2041 N   0  0  0  0  0  0  0  0  0  0  0  0
    1.4788    0.8128   -2.8218 C   0  0  0  0  0  0  0  0  0  0  0  0
    2.3444   -0.8028   -4.3797 C   0  0  0  0  0  0  0  0  0  0  0  0
    5.6020   -1.0880    2.3634 H   0  0  0  0  0  0  0  0  0  0  0  0
    5.0407   -0.8124    0.6959 H   0  0  0  0  0  0  0  0  0  0  0  0
    4.7751   -2.3962    1.4860 H   0  0  0  0  0  0  0  0  0  0  0  0
    3.2747   -1.4058    3.1488 H   0  0  0  0  0  0  0  0  0  0  0  0
    3.9334    0.9364    3.4363 H   0  0  0  0  0  0  0  0  0  0  0  0
    3.0676    0.3325    0.2039 H   0  0  0  0  0  0  0  0  0  0  0  0
    1.4741    1.8401    2.7026 H   0  0  0  0  0  0  0  0  0  0  0  0
    1.6030    0.4531    3.8023 H   0  0  0  0  0  0  0  0  0  0  0  0
    0.7990    0.4468    0.8873 H   0  0  0  0  0  0  0  0  0  0  0  0
    0.3615   -0.7128    2.1587 H   0  0  0  0  0  0  0  0  0  0  0  0
   -0.1019   -4.2205    0.6253 H   0  0  0  0  0  0  0  0  0  0  0  0
    1.3847   -4.6885   -0.2085 H   0  0  0  0  0  0  0  0  0  0  0  0
   -1.0777   -4.5146   -1.5626 H   0  0  0  0  0  0  0  0  0  0  0  0
    0.4662   -4.2177   -2.3728 H   0  0  0  0  0  0  0  0  0  0  0  0
   -1.4172   -2.1272   -1.1390 H   0  0  0  0  0  0  0  0  0  0  0  0
   -0.6628   -2.0668   -2.7519 H   0  0  0  0  0  0  0  0  0  0  0  0
    0.4155   -0.6977   -0.6893 H   0  0  0  0  0  0  0  0  0  0  0  0
    2.1048   -2.4698   -2.5342 H   0  0  0  0  0  0  0  0  0  0  0  0
    2.7695   -1.1523   -1.5615 H   0  0  0  0  0  0  0  0  0  0  0  0
    0.7527    0.9811   -2.0122 H   0  0  0  0  0  0  0  0  0  0  0  0
    1.1533    1.4227   -3.6789 H   0  0  0  0  0  0  0  0  0  0  0  0
    2.4618    1.2011   -2.4750 H   0  0  0  0  0  0  0  0  0  0  0  0
    2.2855   -1.8539   -4.7035 H   0  0  0  0  0  0  0  0  0  0  0  0
    3.4186   -0.5566   -4.2159 H   0  0  0  0  0  0  0  0  0  0  0  0
    1.9839   -0.1748   -5.2100 H   0  0  0  0  0  0  0  0  0  0  0  0
  1  2  1  0
  1 21  1  0
  1 22  1  0
  1 23  1  0
  2  3  1  0
  2  9  1  0
  2 24  1  1
  3  4  1  0
  3  7  1  0
  3 25  1  1
  4  5  2  0
  4  6  1  0
  6 26  1  0
  7  8  1  0
  7 27  1  0
  7 28  1  0
  8  9  1  0
  8 29  1  0
  8 30  1  0
  9 10  1  0
 10 11  2  0
 10 12  1  0
 12 13  1  0
 12 16  1  0
 13 14  1  0
 13 31  1  0
 13 32  1  0
 14 15  1  0
 14 33  1  0
 14 34  1  0
 15 16  1  0
 15 35  1  0
 15 36  1  0
 16 17  1  0
 16 37  1  1
 17 18  1  0
 17 38  1  0
 17 39  1  0
 18 19  1  0
 18 20  1  0
 19 40  1  0
 19 41  1  0
 19 42  1  0
 20 43  1  0
 20 44  1  0
 20 45  1  0
M  END

