
     RDKit          3D

 39 40  0  0  0  0  0  0  0  0999 V2000
    1.5415   -0.8543   -1.0398 C   0  0  0  0  0  0  0  0  0  0  0  0
    1.7940    0.1363    0.0971 C   0  0  0  0  0  0  0  0  0  0  0  0
    2.9392    1.0081   -0.1525 N   0  0  0  0  0  0  0  0  0  0  0  0
    2.7366    2.0611   -1.1444 C   0  0  0  0  0  0  0  0  0  0  0  0
    1.9981    3.2891   -0.5822 C   0  0  0  0  0  0  0  0  0  0  0  0
    2.6449    3.7895    0.6417 N   0  0  0  0  0  0  0  0  0  0  0  0
    3.7881    5.0140    0.4533 S   0  0  1  0  0  0  0  0  0  0  0  0
    4.5531    5.0630    1.7023 O   0  0  0  0  0  0  0  0  0  0  0  0
    4.4744    4.8945   -0.8423 O   0  0  0  0  0  0  0  0  0  0  0  0
    2.7808    6.4926    0.3444 C   0  0  0  0  0  0  0  0  0  0  0  0
    2.8548    7.3063   -0.8008 C   0  0  0  0  0  0  0  0  0  0  0  0
    2.1261    8.4782   -0.8643 C   0  0  0  0  0  0  0  0  0  0  0  0
    1.2903    8.9082    0.2044 C   0  0  0  0  0  0  0  0  0  0  0  0
    0.5976   10.0609    0.0982 N   0  0  0  0  0  0  0  0  0  0  0  0
    1.2441    8.0553    1.3533 C   0  0  0  0  0  0  0  0  0  0  0  0
    0.4225    8.3777    2.5173 N   0  0  0  0  0  0  0  0  0  0  0  0
   -0.2322    9.4241    2.5018 O   0  0  0  0  0  0  0  0  0  0  0  0
    0.4141    7.5997    3.4552 O   0  0  0  0  0  0  0  0  0  0  0  0
    1.9881    6.8716    1.4161 C   0  0  0  0  0  0  0  0  0  0  0  0
    2.8952    2.7480    1.6527 C   0  0  0  0  0  0  0  0  0  0  0  0
    3.6083    1.5370    1.0320 C   0  0  0  0  0  0  0  0  0  0  0  0
    0.7157   -1.5361   -0.7800 H   0  0  0  0  0  0  0  0  0  0  0  0
    2.4451   -1.4523   -1.2355 H   0  0  0  0  0  0  0  0  0  0  0  0
    1.2630   -0.3487   -1.9782 H   0  0  0  0  0  0  0  0  0  0  0  0
    2.0141   -0.4337    1.0148 H   0  0  0  0  0  0  0  0  0  0  0  0
    0.8524    0.6916    0.3101 H   0  0  0  0  0  0  0  0  0  0  0  0
    2.1877    1.6590   -2.0100 H   0  0  0  0  0  0  0  0  0  0  0  0
    3.7214    2.3982   -1.5098 H   0  0  0  0  0  0  0  0  0  0  0  0
    0.9543    3.0397   -0.3220 H   0  0  0  0  0  0  0  0  0  0  0  0
    1.9599    4.0937   -1.3310 H   0  0  0  0  0  0  0  0  0  0  0  0
    3.4962    6.9991   -1.6287 H   0  0  0  0  0  0  0  0  0  0  0  0
    2.1862    9.1078   -1.7557 H   0  0  0  0  0  0  0  0  0  0  0  0
    0.6776   10.6203   -0.7392 H   0  0  0  0  0  0  0  0  0  0  0  0
    0.0159   10.3482    0.8787 H   0  0  0  0  0  0  0  0  0  0  0  0
    1.9200    6.2690    2.3210 H   0  0  0  0  0  0  0  0  0  0  0  0
    1.9134    2.4553    2.0660 H   0  0  0  0  0  0  0  0  0  0  0  0
    3.4865    3.1838    2.4681 H   0  0  0  0  0  0  0  0  0  0  0  0
    3.7122    0.7356    1.7816 H   0  0  0  0  0  0  0  0  0  0  0  0
    4.6295    1.8496    0.7467 H   0  0  0  0  0  0  0  0  0  0  0  0
  1  2  1  0
  1 22  1  0
  1 23  1  0
  1 24  1  0
  2  3  1  0
  2 25  1  0
  2 26  1  0
  3  4  1  0
  3 21  1  0
  4  5  1  0
  4 27  1  0
  4 28  1  0
  5  6  1  0
  5 29  1  0
  5 30  1  0
  6  7  1  0
  6 20  1  0
  7  8  2  0
  7  9  2  0
  7 10  1  6
 10 11  2  0
 10 19  1  0
 11 12  1  0
 11 31  1  0
 12 13  2  0
 12 32  1  0
 13 14  1  0
 13 15  1  0
 14 33  1  0
 14 34  1  0
 15 16  1  0
 15 19  2  0
 16 17  2  0
 16 18  1  0
 19 35  1  0
 20 21  1  0
 20 36  1  0
 20 37  1  0
 21 38  1  0
 21 39  1  0
M  CHG  2  16   1  18  -1
M  END

