
     RDKit          3D

 60 63  0  0  0  0  0  0  0  0999 V2000
    2.9596    9.3282   -4.8347 O   0  0  0  0  0  0  0  0  0  0  0  0
    4.1306    9.0385   -4.6411 C   0  0  0  0  0  0  0  0  0  0  0  0
    5.1052    9.2808   -5.5801 N   0  0  0  0  0  0  0  0  0  0  0  0
    6.4309    8.6864   -5.5260 C   0  0  0  0  0  0  0  0  0  0  0  0
    6.9858    8.7794   -4.1057 C   0  0  0  0  0  0  0  0  0  0  0  0
    5.9850    8.2592   -3.0983 C   0  0  0  0  0  0  0  0  0  0  0  0
    6.3957    7.6762   -1.8913 C   0  0  0  0  0  0  0  0  0  0  0  0
    5.4420    7.2445   -0.9562 C   0  0  0  0  0  0  0  0  0  0  0  0
    5.7464    6.6652    0.2299 O   0  0  0  0  0  0  0  0  0  0  0  0
    7.1013    6.4659    0.5979 C   0  0  0  0  0  0  0  0  0  0  0  0
    7.1139    5.8050    1.9683 C   0  0  0  0  0  0  0  0  0  0  0  0
    8.5194    5.5502    2.5155 C   0  0  0  0  0  0  0  0  0  0  0  0
    9.2653    6.7898    2.7838 N   0  0  0  0  0  0  0  0  0  0  0  0
    8.8584    7.5756    3.9662 C   0  0  0  0  0  0  0  0  0  0  0  0
    8.5619    9.0500    3.6450 C   0  0  0  0  0  0  0  0  0  0  0  0
    8.1312    9.8258    4.8669 C   0  0  0  0  0  0  0  0  0  0  0  0
    6.7826   10.0000    5.2062 C   0  0  0  0  0  0  0  0  0  0  0  0
    6.4513   10.6990    6.3681 C   0  0  0  0  0  0  0  0  0  0  0  0
    7.4875   11.2018    7.1605 C   0  0  0  0  0  0  0  0  0  0  0  0
    8.7783   11.0483    6.8555 N   0  0  0  0  0  0  0  0  0  0  0  0
    9.0825   10.3804    5.7421 C   0  0  0  0  0  0  0  0  0  0  0  0
   10.9456    6.6891    2.5334 S   0  0  1  0  0  0  0  0  0  0  0  0
   11.5102    7.9051    3.1263 O   0  0  0  0  0  0  0  0  0  0  0  0
   11.4446    5.3654    2.9233 O   0  0  0  0  0  0  0  0  0  0  0  0
   11.1002    6.8058    0.7439 C   0  0  0  0  0  0  0  0  0  0  0  0
   10.8244    8.0216    0.1082 C   0  0  0  0  0  0  0  0  0  0  0  0
   10.9955    8.1152   -1.2740 C   0  0  0  0  0  0  0  0  0  0  0  0
   11.4434    7.0063   -2.0045 C   0  0  0  0  0  0  0  0  0  0  0  0
   11.7268    5.8022   -1.3542 C   0  0  0  0  0  0  0  0  0  0  0  0
   11.5607    5.6965    0.0309 C   0  0  0  0  0  0  0  0  0  0  0  0
    4.0695    7.4030   -1.2314 C   0  0  0  0  0  0  0  0  0  0  0  0
    3.6675    7.9823   -2.4248 C   0  0  0  0  0  0  0  0  0  0  0  0
    4.6140    8.4105   -3.3711 C   0  0  0  0  0  0  0  0  0  0  0  0
    4.7456    9.6019   -6.4735 H   0  0  0  0  0  0  0  0  0  0  0  0
    7.0871    9.2233   -6.2281 H   0  0  0  0  0  0  0  0  0  0  0  0
    6.4108    7.6248   -5.8468 H   0  0  0  0  0  0  0  0  0  0  0  0
    7.2097    9.8381   -3.8768 H   0  0  0  0  0  0  0  0  0  0  0  0
    7.9364    8.2278   -4.0344 H   0  0  0  0  0  0  0  0  0  0  0  0
    7.4625    7.5655   -1.6935 H   0  0  0  0  0  0  0  0  0  0  0  0
    7.6401    7.4295    0.6265 H   0  0  0  0  0  0  0  0  0  0  0  0
    7.6109    5.8246   -0.1463 H   0  0  0  0  0  0  0  0  0  0  0  0
    6.5849    4.8397    1.9042 H   0  0  0  0  0  0  0  0  0  0  0  0
    6.5303    6.4274    2.6666 H   0  0  0  0  0  0  0  0  0  0  0  0
    9.0942    4.9570    1.7883 H   0  0  0  0  0  0  0  0  0  0  0  0
    8.4590    4.9301    3.4287 H   0  0  0  0  0  0  0  0  0  0  0  0
    9.6246    7.5213    4.7560 H   0  0  0  0  0  0  0  0  0  0  0  0
    7.9564    7.0962    4.3770 H   0  0  0  0  0  0  0  0  0  0  0  0
    7.7795    9.0987    2.8700 H   0  0  0  0  0  0  0  0  0  0  0  0
    9.4764    9.4939    3.2241 H   0  0  0  0  0  0  0  0  0  0  0  0
    5.9965    9.5985    4.5589 H   0  0  0  0  0  0  0  0  0  0  0  0
    5.4087   10.8560    6.6548 H   0  0  0  0  0  0  0  0  0  0  0  0
    7.2622   11.7555    8.0799 H   0  0  0  0  0  0  0  0  0  0  0  0
   10.1509   10.2747    5.5117 H   0  0  0  0  0  0  0  0  0  0  0  0
   10.4919    8.8829    0.6904 H   0  0  0  0  0  0  0  0  0  0  0  0
   10.7898    9.0602   -1.7826 H   0  0  0  0  0  0  0  0  0  0  0  0
   11.5810    7.0868   -3.0857 H   0  0  0  0  0  0  0  0  0  0  0  0
   12.0868    4.9418   -1.9234 H   0  0  0  0  0  0  0  0  0  0  0  0
   11.7937    4.7744    0.5661 H   0  0  0  0  0  0  0  0  0  0  0  0
    3.3478    7.0601   -0.4874 H   0  0  0  0  0  0  0  0  0  0  0  0
    2.6101    8.1214   -2.6590 H   0  0  0  0  0  0  0  0  0  0  0  0
  1  2  2  0
  2  3  1  0
  2 33  1  0
  3  4  1  0
  3 34  1  0
  4  5  1  0
  4 35  1  0
  4 36  1  0
  5  6  1  0
  5 37  1  0
  5 38  1  0
  6  7  1  0
  6 33  2  0
  7  8  2  0
  7 39  1  0
  8  9  1  0
  8 31  1  0
  9 10  1  0
 10 11  1  0
 10 40  1  0
 10 41  1  0
 11 12  1  0
 11 42  1  0
 11 43  1  0
 12 13  1  0
 12 44  1  0
 12 45  1  0
 13 14  1  0
 22 13  1  6
 14 15  1  0
 14 46  1  0
 14 47  1  0
 15 16  1  0
 15 48  1  0
 15 49  1  0
 16 17  2  0
 16 21  1  0
 17 18  1  0
 17 50  1  0
 18 19  2  0
 18 51  1  0
 19 20  1  0
 19 52  1  0
 20 21  2  0
 21 53  1  0
 22 23  2  0
 22 24  2  0
 22 25  1  0
 25 26  2  0
 25 30  1  0
 26 27  1  0
 26 54  1  0
 27 28  2  0
 27 55  1  0
 28 29  1  0
 28 56  1  0
 29 30  2  0
 29 57  1  0
 30 58  1  0
 31 32  2  0
 31 59  1  0
 32 33  1  0
 32 60  1  0
M  END

