
     RDKit          3D

 37 41  0  0  0  0  0  0  0  0999 V2000
    1.0801   -0.3134   -0.1231 C   0  0  0  0  0  0  0  0  0  0  0  0
    2.6037   -0.1801   -0.1684 C   0  0  2  0  0  0  0  0  0  0  0  0
    3.0543    1.1642   -0.7650 C   0  0  0  0  0  0  0  0  0  0  0  0
    4.5735    1.3662   -0.6780 C   0  0  0  0  0  0  0  0  0  0  0  0
    5.3215    0.1246   -1.0919 C   0  0  0  0  0  0  0  0  0  0  0  0
    4.7036   -1.0995   -1.1981 C   0  0  0  0  0  0  0  0  0  0  0  0
    5.8022   -2.3761   -1.6845 S   0  0  0  0  0  0  0  0  0  0  0  0
    7.1354   -1.2506   -1.7466 C   0  0  0  0  0  0  0  0  0  0  0  0
    8.3945   -1.6111   -2.0866 N   0  0  0  0  0  0  0  0  0  0  0  0
    9.3432   -0.7214   -2.1161 C   0  0  0  0  0  0  0  0  0  0  0  0
   10.7157   -1.1245   -2.4886 C   0  0  1  0  0  0  0  0  0  0  0  0
   11.1934   -2.5141   -2.0894 C   0  0  0  0  0  0  0  0  0  0  0  0
   10.8874   -2.2316   -3.5200 C   0  0  0  0  0  0  0  0  0  0  0  0
    9.0581    0.6201   -1.7927 N   0  0  0  0  0  0  0  0  0  0  0  0
    9.8704    1.7821   -1.7418 C   0  0  0  0  0  0  0  0  0  0  0  0
   11.4848    2.0649   -2.0382 S   0  0  0  0  0  0  0  0  0  0  0  0
    8.9706    2.7268   -1.3608 N   0  0  0  0  0  0  0  0  0  0  0  0
    9.2235    3.6987   -1.2245 H   0  0  0  0  0  0  0  0  0  0  0  0
    7.6945    2.3028   -1.1659 N   0  0  0  0  0  0  0  0  0  0  0  0
    7.7477    1.0251   -1.4290 C   0  0  0  0  0  0  0  0  0  0  0  0
    6.7193    0.0348   -1.4035 C   0  0  0  0  0  0  0  0  0  0  0  0
    3.2431   -1.3480   -0.9476 C   0  0  0  0  0  0  0  0  0  0  0  0
    0.6284    0.4802    0.4934 H   0  0  0  0  0  0  0  0  0  0  0  0
    0.7726   -1.2832    0.3009 H   0  0  0  0  0  0  0  0  0  0  0  0
    0.6453   -0.2386   -1.1344 H   0  0  0  0  0  0  0  0  0  0  0  0
    2.9857   -0.2282    0.8690 H   0  0  0  0  0  0  0  0  0  0  0  0
    2.5402    1.9936   -0.2521 H   0  0  0  0  0  0  0  0  0  0  0  0
    2.7349    1.2070   -1.8228 H   0  0  0  0  0  0  0  0  0  0  0  0
    4.8638    1.6334    0.3551 H   0  0  0  0  0  0  0  0  0  0  0  0
    4.8940    2.2205   -1.2950 H   0  0  0  0  0  0  0  0  0  0  0  0
   11.4491   -0.3196   -2.4869 H   0  0  0  0  0  0  0  0  0  0  0  0
   10.4806   -3.1293   -1.5347 H   0  0  0  0  0  0  0  0  0  0  0  0
   12.2368   -2.5968   -1.7724 H   0  0  0  0  0  0  0  0  0  0  0  0
    9.9676   -2.6561   -3.9301 H   0  0  0  0  0  0  0  0  0  0  0  0
   11.7110   -2.1126   -4.2296 H   0  0  0  0  0  0  0  0  0  0  0  0
    3.0983   -2.2938   -0.3976 H   0  0  0  0  0  0  0  0  0  0  0  0
    2.7149   -1.4770   -1.9124 H   0  0  0  0  0  0  0  0  0  0  0  0
  1  2  1  0
  1 23  1  0
  1 24  1  0
  1 25  1  0
  2  3  1  0
  2 22  1  0
  2 26  1  1
  3  4  1  0
  3 27  1  0
  3 28  1  0
  4  5  1  0
  4 29  1  0
  4 30  1  0
  5  6  2  0
  5 21  1  0
  6  7  1  0
  6 22  1  0
  7  8  1  0
  8  9  1  0
  8 21  2  0
  9 10  2  0
 10 11  1  0
 10 14  1  0
 11 12  1  0
 11 13  1  0
 11 31  1  6
 12 13  1  0
 12 32  1  0
 12 33  1  0
 13 34  1  0
 13 35  1  0
 14 15  1  0
 14 20  1  0
 15 16  2  0
 15 17  1  0
 17 18  1  0
 17 19  1  0
 19 20  2  0
 20 21  1  0
 22 36  1  0
 22 37  1  0
M  END

