
     RDKit          3D

 37 39  0  0  0  0  0  0  0  0999 V2000
    1.7830   -1.8765   -0.5428 C   0  0  0  0  0  0  0  0  0  0  0  0
    2.9700   -0.9624   -0.4901 C   0  0  0  0  0  0  0  0  0  0  0  0
    3.4583   -0.1901   -1.4865 C   0  0  0  0  0  0  0  0  0  0  0  0
    2.9002   -0.0226   -2.8158 C   0  0  0  0  0  0  0  0  0  0  0  0
    3.5191    0.6241   -3.8383 C   0  0  0  0  0  0  0  0  0  0  0  0
    4.8438    1.0416   -3.8537 N   0  0  0  0  0  0  0  0  0  0  0  0
    5.9354    0.0860   -3.6711 C   0  0  0  0  0  0  0  0  0  0  0  0
    2.7564    0.9734   -5.0126 N   0  0  0  0  0  0  0  0  0  0  0  0
    3.1251    0.3259   -6.2225 C   0  0  0  0  0  0  0  0  0  0  0  0
    4.0544   -0.4546   -6.2663 O   0  0  0  0  0  0  0  0  0  0  0  0
    2.3777    0.6192   -7.3499 N   0  0  0  0  0  0  0  0  0  0  0  0
    2.6830    0.1212   -8.1784 H   0  0  0  0  0  0  0  0  0  0  0  0
    1.2937    1.5005   -7.3810 C   0  0  0  0  0  0  0  0  0  0  0  0
    0.4689    1.8940   -8.3998 C   0  0  0  0  0  0  0  0  0  0  0  0
    0.4725    1.4783   -9.8377 C   0  0  0  0  0  0  0  0  0  0  0  0
   -0.7367    3.0694   -7.8133 S   0  0  0  0  0  0  0  0  0  0  0  0
   -0.0899    3.0105   -6.1723 C   0  0  0  0  0  0  0  0  0  0  0  0
   -0.5251    3.6968   -5.1200 N   0  0  0  0  0  0  0  0  0  0  0  0
    0.1481    3.4785   -3.9856 C   0  0  0  0  0  0  0  0  0  0  0  0
    1.2407    2.6006   -3.8284 C   0  0  0  0  0  0  0  0  0  0  0  0
    1.6835    1.8801   -4.9454 C   0  0  0  0  0  0  0  0  0  0  0  0
    0.9857    2.1137   -6.1343 C   0  0  0  0  0  0  0  0  0  0  0  0
    2.0750   -2.9137   -0.2990 H   0  0  0  0  0  0  0  0  0  0  0  0
    1.2948   -1.8930   -1.5277 H   0  0  0  0  0  0  0  0  0  0  0  0
    1.0252   -1.5872    0.2075 H   0  0  0  0  0  0  0  0  0  0  0  0
    3.4953   -0.9268    0.4717 H   0  0  0  0  0  0  0  0  0  0  0  0
    4.3481    0.4095   -1.2679 H   0  0  0  0  0  0  0  0  0  0  0  0
    1.8939   -0.3965   -3.0142 H   0  0  0  0  0  0  0  0  0  0  0  0
    5.0283    1.6808   -4.6194 H   0  0  0  0  0  0  0  0  0  0  0  0
    5.8280   -0.4529   -2.7211 H   0  0  0  0  0  0  0  0  0  0  0  0
    6.8866    0.6380   -3.6327 H   0  0  0  0  0  0  0  0  0  0  0  0
    5.9749   -0.6510   -4.4926 H   0  0  0  0  0  0  0  0  0  0  0  0
    1.2854    0.7627  -10.0374 H   0  0  0  0  0  0  0  0  0  0  0  0
    0.6176    2.3370  -10.5150 H   0  0  0  0  0  0  0  0  0  0  0  0
   -0.4731    0.9896  -10.1284 H   0  0  0  0  0  0  0  0  0  0  0  0
   -0.1956    4.0402   -3.1095 H   0  0  0  0  0  0  0  0  0  0  0  0
    1.7145    2.4911   -2.8542 H   0  0  0  0  0  0  0  0  0  0  0  0
  1  2  1  0
  1 23  1  0
  1 24  1  0
  1 25  1  0
  2  3  2  0
  2 26  1  0
  3  4  1  0
  3 27  1  0
  4  5  2  0
  4 28  1  0
  5  6  1  0
  5  8  1  0
  6  7  1  0
  6 29  1  0
  7 30  1  0
  7 31  1  0
  7 32  1  0
  8  9  1  0
  8 21  1  0
  9 10  2  0
  9 11  1  0
 11 12  1  0
 11 13  1  0
 13 14  2  0
 13 22  1  0
 14 15  1  0
 14 16  1  0
 15 33  1  0
 15 34  1  0
 15 35  1  0
 16 17  1  0
 17 18  1  0
 17 22  2  0
 18 19  2  0
 19 20  1  0
 19 36  1  0
 20 21  2  0
 20 37  1  0
 21 22  1  0
M  END

