
     RDKit          3D

 69 73  0  0  0  0  0  0  0  0999 V2000
   10.7665    0.8419   -3.8870 C   0  0  0  0  0  0  0  0  0  0  0  0
   10.1682   -0.1043   -4.7418 O   0  0  0  0  0  0  0  0  0  0  0  0
   10.8455   -1.2394   -5.0521 C   0  0  0  0  0  0  0  0  0  0  0  0
   10.2022   -2.1322   -5.9241 C   0  0  0  0  0  0  0  0  0  0  0  0
   10.8213   -3.3179   -6.3039 C   0  0  0  0  0  0  0  0  0  0  0  0
   12.1004   -3.6593   -5.8362 C   0  0  0  0  0  0  0  0  0  0  0  0
   12.7492   -5.0256   -6.1587 C   0  0  1  0  0  0  0  0  0  0  0  0
   12.0790   -5.6945   -7.2981 N   0  0  0  0  0  0  0  0  0  0  0  0
   12.0795   -5.2868   -8.5999 C   0  0  0  0  0  0  0  0  0  0  0  0
   11.5970   -6.2142   -9.5961 C   0  0  0  0  0  0  0  0  0  0  0  0
   11.5715   -5.7703  -10.8822 C   0  0  0  0  0  0  0  0  0  0  0  0
   12.0085   -4.5236  -11.2057 N   0  0  0  0  0  0  0  0  0  0  0  0
   11.9579   -4.0041  -12.5812 C   0  0  2  0  0  0  0  0  0  0  0  0
   11.7163   -2.9375  -12.4814 H   0  0  0  0  0  0  0  0  0  0  0  0
   10.9699   -4.6910  -13.3082 O   0  0  0  0  0  0  0  0  0  0  0  0
   11.4952   -5.2826  -14.5035 C   0  0  2  0  0  0  0  0  0  0  0  0
   11.3480   -4.5749  -15.3447 H   0  0  0  0  0  0  0  0  0  0  0  0
   10.7244   -6.5635  -14.8114 C   0  0  0  0  0  0  0  0  0  0  0  0
   11.1915   -7.1763  -15.9913 O   0  0  0  0  0  0  0  0  0  0  0  0
   12.9850   -5.4455  -14.2289 C   0  0  0  0  0  0  0  0  0  0  0  0
   13.3069   -4.1806  -13.3958 C   0  0  2  0  0  0  0  0  0  0  0  0
   14.5871   -4.2932  -12.5526 C   0  0  0  0  0  0  0  0  0  0  0  0
   13.4285   -3.0298  -14.3119 C   0  0  0  0  0  0  0  0  0  0  0  0
   13.5239   -2.1440  -15.0531 N   0  0  0  0  0  0  0  0  0  0  0  0
   12.4802   -3.6170  -10.1899 C   0  0  0  0  0  0  0  0  0  0  0  0
   12.8621   -2.5125  -10.5380 O   0  0  0  0  0  0  0  0  0  0  0  0
   12.4776   -4.0710   -8.9049 N   0  0  0  0  0  0  0  0  0  0  0  0
   14.2610   -4.9528   -6.4977 C   0  0  0  0  0  0  0  0  0  0  0  0
   14.8648   -3.7855   -6.9867 C   0  0  0  0  0  0  0  0  0  0  0  0
   16.2092   -3.7835   -7.3744 C   0  0  0  0  0  0  0  0  0  0  0  0
   16.9717   -4.9505   -7.2970 C   0  0  0  0  0  0  0  0  0  0  0  0
   16.3744   -6.1286   -6.8380 C   0  0  0  0  0  0  0  0  0  0  0  0
   15.0337   -6.1270   -6.4475 C   0  0  0  0  0  0  0  0  0  0  0  0
   12.4676   -5.8973   -4.9047 C   0  0  0  0  0  0  0  0  0  0  0  0
   11.2438   -6.5734   -4.7611 C   0  0  0  0  0  0  0  0  0  0  0  0
   10.9483   -7.2966   -3.6016 C   0  0  0  0  0  0  0  0  0  0  0  0
   11.8655   -7.3476   -2.5502 C   0  0  0  0  0  0  0  0  0  0  0  0
   13.0774   -6.6622   -2.6708 C   0  0  0  0  0  0  0  0  0  0  0  0
   13.3741   -5.9463   -3.8330 C   0  0  0  0  0  0  0  0  0  0  0  0
   12.7220   -2.7696   -4.9527 C   0  0  0  0  0  0  0  0  0  0  0  0
   12.1173   -1.5696   -4.5631 C   0  0  0  0  0  0  0  0  0  0  0  0
   10.0533    1.6716   -3.7885 H   0  0  0  0  0  0  0  0  0  0  0  0
   11.7131    1.2329   -4.3027 H   0  0  0  0  0  0  0  0  0  0  0  0
   10.9673    0.4239   -2.8835 H   0  0  0  0  0  0  0  0  0  0  0  0
    9.2119   -1.8679   -6.3002 H   0  0  0  0  0  0  0  0  0  0  0  0
   10.2951   -3.9904   -6.9813 H   0  0  0  0  0  0  0  0  0  0  0  0
   11.9090   -6.6828   -7.1592 H   0  0  0  0  0  0  0  0  0  0  0  0
   11.2392   -7.2115   -9.3402 H   0  0  0  0  0  0  0  0  0  0  0  0
   11.1823   -6.3692  -11.7046 H   0  0  0  0  0  0  0  0  0  0  0  0
    9.6420   -6.3343  -14.8460 H   0  0  0  0  0  0  0  0  0  0  0  0
   10.8760   -7.2899  -13.9955 H   0  0  0  0  0  0  0  0  0  0  0  0
   10.9205   -6.6384  -16.7469 H   0  0  0  0  0  0  0  0  0  0  0  0
   13.5893   -5.5303  -15.1412 H   0  0  0  0  0  0  0  0  0  0  0  0
   13.1671   -6.3413  -13.6122 H   0  0  0  0  0  0  0  0  0  0  0  0
   14.5188   -5.1523  -11.8699 H   0  0  0  0  0  0  0  0  0  0  0  0
   14.7416   -3.3843  -11.9573 H   0  0  0  0  0  0  0  0  0  0  0  0
   15.4550   -4.4441  -13.2116 H   0  0  0  0  0  0  0  0  0  0  0  0
   14.2756   -2.8765   -7.0952 H   0  0  0  0  0  0  0  0  0  0  0  0
   16.6552   -2.8601   -7.7526 H   0  0  0  0  0  0  0  0  0  0  0  0
   18.0221   -4.9461   -7.5999 H   0  0  0  0  0  0  0  0  0  0  0  0
   16.9539   -7.0539   -6.7807 H   0  0  0  0  0  0  0  0  0  0  0  0
   14.5852   -7.0583   -6.0941 H   0  0  0  0  0  0  0  0  0  0  0  0
   10.4918   -6.5171   -5.5508 H   0  0  0  0  0  0  0  0  0  0  0  0
    9.9887   -7.8137   -3.5200 H   0  0  0  0  0  0  0  0  0  0  0  0
   11.6360   -7.9106   -1.6422 H   0  0  0  0  0  0  0  0  0  0  0  0
   13.8040   -6.6854   -1.8545 H   0  0  0  0  0  0  0  0  0  0  0  0
   14.3285   -5.4237   -3.9054 H   0  0  0  0  0  0  0  0  0  0  0  0
   13.7073   -3.0033   -4.5452 H   0  0  0  0  0  0  0  0  0  0  0  0
   12.6483   -0.9078   -3.8787 H   0  0  0  0  0  0  0  0  0  0  0  0
  1  2  1  0
  1 42  1  0
  1 43  1  0
  1 44  1  0
  2  3  1  0
  3  4  2  0
  3 41  1  0
  4  5  1  0
  4 45  1  0
  5  6  2  0
  5 46  1  0
  6  7  1  0
  6 40  1  0
  7  8  1  6
  7 28  1  0
  7 34  1  0
  8  9  1  0
  8 47  1  0
  9 10  1  0
  9 27  2  0
 10 11  2  0
 10 48  1  0
 11 12  1  0
 11 49  1  0
 12 13  1  0
 12 25  1  0
 13 14  1  1
 13 15  1  0
 13 21  1  0
 15 16  1  0
 16 17  1  6
 16 18  1  0
 16 20  1  0
 18 19  1  0
 18 50  1  0
 18 51  1  0
 19 52  1  0
 20 21  1  0
 20 53  1  0
 20 54  1  0
 21 22  1  0
 21 23  1  6
 22 55  1  0
 22 56  1  0
 22 57  1  0
 23 24  3  0
 25 26  2  0
 25 27  1  0
 28 29  2  0
 28 33  1  0
 29 30  1  0
 29 58  1  0
 30 31  2  0
 30 59  1  0
 31 32  1  0
 31 60  1  0
 32 33  2  0
 32 61  1  0
 33 62  1  0
 34 35  2  0
 34 39  1  0
 35 36  1  0
 35 63  1  0
 36 37  2  0
 36 64  1  0
 37 38  1  0
 37 65  1  0
 38 39  2  0
 38 66  1  0
 39 67  1  0
 40 41  2  0
 40 68  1  0
 41 69  1  0
M  END

