
     RDKit          3D

 30 31  0  0  0  0  0  0  0  0999 V2000
    0.9029    0.1951   -0.5415 C   0  0  0  0  0  0  0  0  0  0  0  0
    2.2866   -0.0647    0.0023 C   0  0  0  0  0  0  0  0  0  0  0  0
    3.0368    1.0050    0.5096 C   0  0  0  0  0  0  0  0  0  0  0  0
    4.3607    0.8360    0.9223 C   0  0  0  0  0  0  0  0  0  0  0  0
    4.9603   -0.4156    0.8202 C   0  0  0  0  0  0  0  0  0  0  0  0
    4.2261   -1.5049    0.3379 C   0  0  0  0  0  0  0  0  0  0  0  0
    2.8690   -1.3588   -0.0488 C   0  0  0  0  0  0  0  0  0  0  0  0
    2.1726   -2.4830   -0.5634 N   0  0  0  0  0  0  0  0  0  0  0  0
    0.9423   -2.9372    0.0802 C   0  0  0  0  0  0  0  0  0  0  0  0
    1.0713   -3.5351    1.4918 C   0  0  0  0  0  0  0  0  0  0  0  0
   -0.2569   -3.8652    1.9965 N   0  0  0  0  0  0  0  0  0  0  0  0
    3.0559   -3.5115   -1.0900 C   0  0  0  0  0  0  0  0  0  0  0  0
    4.1703   -3.8517   -0.1037 C   0  0  0  0  0  0  0  0  0  0  0  0
    4.9024   -2.6884    0.2415 O   0  0  0  0  0  0  0  0  0  0  0  0
    0.7973    1.2506   -0.8326 H   0  0  0  0  0  0  0  0  0  0  0  0
    0.1057   -0.0144    0.1936 H   0  0  0  0  0  0  0  0  0  0  0  0
    0.7037   -0.4312   -1.4250 H   0  0  0  0  0  0  0  0  0  0  0  0
    2.5787    1.9970    0.5493 H   0  0  0  0  0  0  0  0  0  0  0  0
    4.9309    1.6859    1.3053 H   0  0  0  0  0  0  0  0  0  0  0  0
    5.9986   -0.5862    1.1119 H   0  0  0  0  0  0  0  0  0  0  0  0
    0.4648   -3.6843   -0.5742 H   0  0  0  0  0  0  0  0  0  0  0  0
    0.2349   -2.0969    0.1361 H   0  0  0  0  0  0  0  0  0  0  0  0
    1.6499   -2.8310    2.1275 H   0  0  0  0  0  0  0  0  0  0  0  0
    1.6566   -4.4694    1.4493 H   0  0  0  0  0  0  0  0  0  0  0  0
   -0.7835   -3.0126    2.1931 H   0  0  0  0  0  0  0  0  0  0  0  0
   -0.1924   -4.3668    2.8816 H   0  0  0  0  0  0  0  0  0  0  0  0
    3.5142   -3.1556   -2.0307 H   0  0  0  0  0  0  0  0  0  0  0  0
    2.4726   -4.4133   -1.3291 H   0  0  0  0  0  0  0  0  0  0  0  0
    4.8951   -4.5590   -0.5379 H   0  0  0  0  0  0  0  0  0  0  0  0
    3.7510   -4.3134    0.8084 H   0  0  0  0  0  0  0  0  0  0  0  0
  1  2  1  0
  1 15  1  0
  1 16  1  0
  1 17  1  0
  2  3  2  0
  2  7  1  0
  3  4  1  0
  3 18  1  0
  4  5  2  0
  4 19  1  0
  5  6  1  0
  5 20  1  0
  6  7  2  0
  6 14  1  0
  7  8  1  0
  8  9  1  0
  8 12  1  0
  9 10  1  0
  9 21  1  0
  9 22  1  0
 10 11  1  0
 10 23  1  0
 10 24  1  0
 11 25  1  0
 11 26  1  0
 12 13  1  0
 12 27  1  0
 12 28  1  0
 13 14  1  0
 13 29  1  0
 13 30  1  0
M  END

