
     RDKit          3D

 36 37  0  0  0  0  0  0  0  0999 V2000
    1.6523   -0.4219   -1.1864 C   0  0  0  0  0  0  0  0  0  0  0  0
    2.5747    0.0545    0.3191 S   0  0  0  0  0  0  0  0  0  0  0  0
    3.2650    1.6516   -0.1239 C   0  0  0  0  0  0  0  0  0  0  0  0
    2.8035    2.7260    0.6584 C   0  0  0  0  0  0  0  0  0  0  0  0
    3.2555    4.0307    0.4592 C   0  0  0  0  0  0  0  0  0  0  0  0
    4.1733    4.2989   -0.5589 C   0  0  0  0  0  0  0  0  0  0  0  0
    4.6447    3.2500   -1.3425 C   0  0  0  0  0  0  0  0  0  0  0  0
    4.2300    1.9200   -1.1323 C   0  0  0  0  0  0  0  0  0  0  0  0
    4.9266    0.9297   -2.0154 C   0  0  0  0  0  0  0  0  0  0  0  0
    5.6244    1.2418   -2.9549 O   0  0  0  0  0  0  0  0  0  0  0  0
    4.7715   -0.3601   -1.6509 O   0  0  0  0  0  0  0  0  0  0  0  0
    5.4511   -1.3062   -2.4492 C   0  0  0  0  0  0  0  0  0  0  0  0
    4.7960   -1.4605   -3.8303 C   0  0  0  0  0  0  0  0  0  0  0  0
    3.6229   -1.2013   -4.0144 O   0  0  0  0  0  0  0  0  0  0  0  0
    5.6495   -1.9731   -4.7737 N   0  0  0  0  0  0  0  0  0  0  0  0
    5.3758   -2.3352   -6.1000 C   0  0  0  0  0  0  0  0  0  0  0  0
    4.1088   -2.1979   -6.6967 C   0  0  0  0  0  0  0  0  0  0  0  0
    3.8950   -2.5804   -8.0201 C   0  0  0  0  0  0  0  0  0  0  0  0
    4.9447   -3.1059   -8.7767 C   0  0  0  0  0  0  0  0  0  0  0  0
    4.6788   -3.5845  -10.4351 Cl  0  0  0  0  0  0  0  0  0  0  0  0
    6.2147   -3.2517   -8.2151 C   0  0  0  0  0  0  0  0  0  0  0  0
    6.4178   -2.8682   -6.8910 C   0  0  0  0  0  0  0  0  0  0  0  0
    8.0226   -3.0591   -6.2001 Cl  0  0  0  0  0  0  0  0  0  0  0  0
    1.1189   -1.3452   -0.9152 H   0  0  0  0  0  0  0  0  0  0  0  0
    2.3171   -0.6267   -2.0359 H   0  0  0  0  0  0  0  0  0  0  0  0
    0.9135    0.3498   -1.4464 H   0  0  0  0  0  0  0  0  0  0  0  0
    2.0579    2.5166    1.4279 H   0  0  0  0  0  0  0  0  0  0  0  0
    2.8734    4.8384    1.0890 H   0  0  0  0  0  0  0  0  0  0  0  0
    4.5223    5.3180   -0.7404 H   0  0  0  0  0  0  0  0  0  0  0  0
    5.3693    3.4301   -2.1380 H   0  0  0  0  0  0  0  0  0  0  0  0
    5.3640   -2.2627   -1.9109 H   0  0  0  0  0  0  0  0  0  0  0  0
    6.5152   -1.0399   -2.5509 H   0  0  0  0  0  0  0  0  0  0  0  0
    6.6213   -2.0899   -4.5021 H   0  0  0  0  0  0  0  0  0  0  0  0
    3.2986   -1.7825   -6.1018 H   0  0  0  0  0  0  0  0  0  0  0  0
    2.9065   -2.4668   -8.4676 H   0  0  0  0  0  0  0  0  0  0  0  0
    7.0401   -3.6591   -8.7982 H   0  0  0  0  0  0  0  0  0  0  0  0
  1  2  1  0
  1 24  1  0
  1 25  1  0
  1 26  1  0
  2  3  2  0
  3  4  1  0
  3  8  1  0
  4  5  2  0
  4 27  1  0
  5  6  1  0
  5 28  1  0
  6  7  2  0
  6 29  1  0
  7  8  1  0
  7 30  1  0
  8  9  2  0
  9 10  1  0
  9 11  1  0
 11 12  1  0
 12 13  1  0
 12 31  1  0
 12 32  1  0
 13 14  2  0
 13 15  1  0
 15 16  1  0
 15 33  1  0
 16 17  2  0
 16 22  1  0
 17 18  1  0
 17 34  1  0
 18 19  2  0
 18 35  1  0
 19 20  1  0
 19 21  1  0
 21 22  2  0
 21 36  1  0
 22 23  1  0
M  CHG  2   2   1  10  -1
M  END

