
     RDKit          3D

 38 39  0  0  0  0  0  0  0  0999 V2000
    0.8733    0.9294   -0.8855 C   0  0  0  0  0  0  0  0  0  0  0  0
    2.4006    0.8742   -0.8904 C   0  0  0  0  0  0  0  0  0  0  0  0
    2.9526   -0.5613   -0.9963 C   0  0  0  0  0  0  0  0  0  0  0  0
    4.4659   -0.6390   -0.9764 C   0  0  0  0  0  0  0  0  0  0  0  0
    5.1678   -0.5868   -2.1889 C   0  0  0  0  0  0  0  0  0  0  0  0
    6.5623   -0.6075   -2.2412 C   0  0  0  0  0  0  0  0  0  0  0  0
    7.2855   -0.6838   -1.0500 C   0  0  0  0  0  0  0  0  0  0  0  0
    6.6236   -0.7411    0.1767 C   0  0  0  0  0  0  0  0  0  0  0  0
    5.2176   -0.7175    0.2242 C   0  0  0  0  0  0  0  0  0  0  0  0
    4.5158   -0.7909    1.4520 N   0  0  0  0  0  0  0  0  0  0  0  0
    5.0133   -0.8981    2.7207 C   0  0  0  0  0  0  0  0  0  0  0  0
    6.1892   -0.9234    3.0399 O   0  0  0  0  0  0  0  0  0  0  0  0
    3.9240   -0.9919    3.8107 C   0  0  0  0  0  0  0  0  0  0  0  0
    3.2870    0.2955    4.1102 N   0  0  0  0  0  0  0  0  0  0  0  0
    3.7846    1.1187    5.0998 C   0  0  0  0  0  0  0  0  0  0  0  0
    3.2159    2.3083    5.4167 C   0  0  0  0  0  0  0  0  0  0  0  0
    3.9095    3.4064    6.7807 Br  0  0  0  0  0  0  0  0  0  0  0  0
    2.0222    2.7770    4.6971 C   0  0  0  0  0  0  0  0  0  0  0  0
    1.4133    3.8044    4.8818 O   0  0  0  0  0  0  0  0  0  0  0  0
    1.6197    1.8665    3.6956 N   0  0  0  0  0  0  0  0  0  0  0  0
    0.8131    2.1502    3.1432 H   0  0  0  0  0  0  0  0  0  0  0  0
    2.1914    0.6681    3.3351 C   0  0  0  0  0  0  0  0  0  0  0  0
    1.7823   -0.0210    2.4122 O   0  0  0  0  0  0  0  0  0  0  0  0
    0.5108    1.9697   -0.8550 H   0  0  0  0  0  0  0  0  0  0  0  0
    0.4666    0.4047   -0.0064 H   0  0  0  0  0  0  0  0  0  0  0  0
    0.4503    0.4583   -1.7888 H   0  0  0  0  0  0  0  0  0  0  0  0
    2.7911    1.3490    0.0259 H   0  0  0  0  0  0  0  0  0  0  0  0
    2.8027    1.4666   -1.7305 H   0  0  0  0  0  0  0  0  0  0  0  0
    2.5926   -1.0075   -1.9383 H   0  0  0  0  0  0  0  0  0  0  0  0
    2.5061   -1.1805   -0.1983 H   0  0  0  0  0  0  0  0  0  0  0  0
    4.5939   -0.5317   -3.1188 H   0  0  0  0  0  0  0  0  0  0  0  0
    7.0769   -0.5674   -3.2041 H   0  0  0  0  0  0  0  0  0  0  0  0
    8.3782   -0.7026   -1.0672 H   0  0  0  0  0  0  0  0  0  0  0  0
    7.1804   -0.8050    1.1080 H   0  0  0  0  0  0  0  0  0  0  0  0
    3.5001   -0.7430    1.3949 H   0  0  0  0  0  0  0  0  0  0  0  0
    4.4217   -1.3525    4.7179 H   0  0  0  0  0  0  0  0  0  0  0  0
    3.1322   -1.6964    3.5222 H   0  0  0  0  0  0  0  0  0  0  0  0
    4.6726    0.7502    5.6153 H   0  0  0  0  0  0  0  0  0  0  0  0
  1  2  1  0
  1 24  1  0
  1 25  1  0
  1 26  1  0
  2  3  1  0
  2 27  1  0
  2 28  1  0
  3  4  1  0
  3 29  1  0
  3 30  1  0
  4  5  2  0
  4  9  1  0
  5  6  1  0
  5 31  1  0
  6  7  2  0
  6 32  1  0
  7  8  1  0
  7 33  1  0
  8  9  2  0
  8 34  1  0
  9 10  1  0
 10 11  1  0
 10 35  1  0
 11 12  2  0
 11 13  1  0
 13 14  1  0
 13 36  1  0
 13 37  1  0
 14 15  1  0
 14 22  1  0
 15 16  2  0
 15 38  1  0
 16 17  1  0
 16 18  1  0
 18 19  2  0
 18 20  1  0
 20 21  1  0
 20 22  1  0
 22 23  2  0
M  END

