
     RDKit          3D

 46 47  0  0  0  0  0  0  0  0999 V2000
    1.2236   -0.3900    3.9618 C   0  0  0  0  0  0  0  0  0  0  0  0
    2.2609   -1.2894    3.2862 C   0  0  1  0  0  0  0  0  0  0  0  0
    1.6154   -2.2585    2.2833 C   0  0  0  0  0  0  0  0  0  0  0  0
    3.2824   -0.4510    2.6727 N   0  0  0  0  0  0  0  0  0  0  0  0
    4.5442   -0.8464    2.3275 C   0  0  0  0  0  0  0  0  0  0  0  0
    5.1273   -2.0762    2.6897 C   0  0  0  0  0  0  0  0  0  0  0  0
    6.4319   -2.3749    2.3066 C   0  0  0  0  0  0  0  0  0  0  0  0
    6.9288   -3.5470    2.7331 F   0  0  0  0  0  0  0  0  0  0  0  0
    7.2298   -1.5054    1.5515 C   0  0  0  0  0  0  0  0  0  0  0  0
    8.6576   -1.7233    1.1690 C   0  0  0  0  0  0  0  0  0  0  0  0
    9.3936   -0.7522    1.0463 O   0  0  0  0  0  0  0  0  0  0  0  0
    9.2156   -3.0889    0.9314 C   0  0  0  0  0  0  0  0  0  0  0  0
   10.6048   -3.2655    1.1257 C   0  0  0  0  0  0  0  0  0  0  0  0
   11.2063   -4.4748    0.8769 C   0  0  0  0  0  0  0  0  0  0  0  0
   12.5337   -4.6405    1.0901 F   0  0  0  0  0  0  0  0  0  0  0  0
   10.4964   -5.6008    0.3845 C   0  0  0  0  0  0  0  0  0  0  0  0
   11.1703   -6.7743    0.1932 N   0  0  0  0  0  0  0  0  0  0  0  0
   10.6418   -7.9684   -0.4528 C   0  0  1  0  0  0  0  0  0  0  0  0
   10.5970   -7.8381   -1.9834 C   0  0  0  0  0  0  0  0  0  0  0  0
   11.4647   -9.1786   -0.0058 C   0  0  0  0  0  0  0  0  0  0  0  0
    9.1210   -5.4157    0.1445 C   0  0  0  0  0  0  0  0  0  0  0  0
    8.5186   -4.1913    0.4202 C   0  0  0  0  0  0  0  0  0  0  0  0
    7.2133   -4.0848    0.1234 F   0  0  0  0  0  0  0  0  0  0  0  0
    6.6517   -0.2587    1.2196 C   0  0  0  0  0  0  0  0  0  0  0  0
    5.3604    0.0410    1.5788 C   0  0  0  0  0  0  0  0  0  0  0  0
    4.8058    1.2263    1.2294 F   0  0  0  0  0  0  0  0  0  0  0  0
    0.4531   -0.9931    4.4650 H   0  0  0  0  0  0  0  0  0  0  0  0
    0.7132    0.2460    3.2178 H   0  0  0  0  0  0  0  0  0  0  0  0
    1.6956    0.2661    4.7090 H   0  0  0  0  0  0  0  0  0  0  0  0
    2.7549   -1.8830    4.0753 H   0  0  0  0  0  0  0  0  0  0  0  0
    1.0796   -1.7013    1.4971 H   0  0  0  0  0  0  0  0  0  0  0  0
    0.8927   -2.9208    2.7867 H   0  0  0  0  0  0  0  0  0  0  0  0
    2.3727   -2.8899    1.7941 H   0  0  0  0  0  0  0  0  0  0  0  0
    2.9786    0.4268    2.2669 H   0  0  0  0  0  0  0  0  0  0  0  0
    4.5879   -2.8135    3.2827 H   0  0  0  0  0  0  0  0  0  0  0  0
   11.1995   -2.4223    1.4795 H   0  0  0  0  0  0  0  0  0  0  0  0
   12.1757   -6.7185    0.3096 H   0  0  0  0  0  0  0  0  0  0  0  0
    9.6106   -8.1087   -0.0844 H   0  0  0  0  0  0  0  0  0  0  0  0
   11.6152   -7.7303   -2.3924 H   0  0  0  0  0  0  0  0  0  0  0  0
   10.0137   -6.9576   -2.2928 H   0  0  0  0  0  0  0  0  0  0  0  0
   10.1374   -8.7293   -2.4405 H   0  0  0  0  0  0  0  0  0  0  0  0
   12.5157   -9.0777   -0.3281 H   0  0  0  0  0  0  0  0  0  0  0  0
   11.0704  -10.1044   -0.4508 H   0  0  0  0  0  0  0  0  0  0  0  0
   11.4499   -9.2842    1.0896 H   0  0  0  0  0  0  0  0  0  0  0  0
    8.4987   -6.2092   -0.2671 H   0  0  0  0  0  0  0  0  0  0  0  0
    7.2478    0.4688    0.6670 H   0  0  0  0  0  0  0  0  0  0  0  0
  1  2  1  0
  1 27  1  0
  1 28  1  0
  1 29  1  0
  2  3  1  0
  2  4  1  0
  2 30  1  1
  3 31  1  0
  3 32  1  0
  3 33  1  0
  4  5  1  0
  4 34  1  0
  5  6  2  0
  5 25  1  0
  6  7  1  0
  6 35  1  0
  7  8  1  0
  7  9  2  0
  9 10  1  0
  9 24  1  0
 10 11  2  0
 10 12  1  0
 12 13  2  0
 12 22  1  0
 13 14  1  0
 13 36  1  0
 14 15  1  0
 14 16  2  0
 16 17  1  0
 16 21  1  0
 17 18  1  0
 17 37  1  0
 18 19  1  0
 18 20  1  0
 18 38  1  1
 19 39  1  0
 19 40  1  0
 19 41  1  0
 20 42  1  0
 20 43  1  0
 20 44  1  0
 21 22  2  0
 21 45  1  0
 22 23  1  0
 24 25  2  0
 24 46  1  0
 25 26  1  0
M  END

