
     RDKit          3D

 47 48  0  0  0  0  0  0  0  0999 V2000
    2.2767   -1.7902    0.5792 C   0  0  0  0  0  0  0  0  0  0  0  0
    3.7076   -2.2353    0.6264 C   0  0  0  0  0  0  0  0  0  0  0  0
    4.6854   -1.2903    0.4410 N   0  0  0  0  0  0  0  0  0  0  0  0
    5.8760   -1.8001    0.5083 C   0  0  0  0  0  0  0  0  0  0  0  0
    7.0716   -1.1236    0.3406 N   0  0  0  0  0  0  0  0  0  0  0  0
    7.2584    0.2656    0.3121 C   0  0  0  0  0  0  0  0  0  0  0  0
    6.3749    1.0651    0.5190 O   0  0  0  0  0  0  0  0  0  0  0  0
    8.6792    0.6877    0.0335 C   0  0  0  0  0  0  0  0  0  0  0  0
    9.0549    1.9912    0.3795 C   0  0  0  0  0  0  0  0  0  0  0  0
   10.3731    2.4068    0.1682 C   0  0  0  0  0  0  0  0  0  0  0  0
   11.3187    1.5378   -0.3769 C   0  0  0  0  0  0  0  0  0  0  0  0
   10.9393    0.2346   -0.7328 C   0  0  0  0  0  0  0  0  0  0  0  0
   11.9149   -0.5713   -1.2529 O   0  0  0  0  0  0  0  0  0  0  0  0
   11.5918   -1.9106   -1.5874 C   0  0  0  0  0  0  0  0  0  0  0  0
   11.2237   -2.8093   -0.3849 C   0  0  0  0  0  0  0  0  0  0  0  0
   10.0920   -3.2811   -0.3123 O   0  0  0  0  0  0  0  0  0  0  0  0
   12.1858   -3.0424    0.5529 N   0  0  0  0  0  0  0  0  0  0  0  0
   13.5484   -2.5373    0.4956 C   0  0  0  0  0  0  0  0  0  0  0  0
   11.8803   -3.9130    1.6783 C   0  0  0  0  0  0  0  0  0  0  0  0
    9.6162   -0.1802   -0.5479 C   0  0  0  0  0  0  0  0  0  0  0  0
    5.9231   -3.5324    0.8371 S   0  0  0  0  0  0  0  0  0  0  0  0
    4.1596   -3.5243    0.8351 C   0  0  0  0  0  0  0  0  0  0  0  0
    3.2416   -4.9890    1.1682 S   0  0  0  0  0  0  0  0  0  0  0  0
    3.4370   -5.9424   -0.3964 C   0  0  0  0  0  0  0  0  0  0  0  0
    2.6817   -5.4736   -1.6474 C   0  0  0  0  0  0  0  0  0  0  0  0
    1.5443   -4.7638   -1.4307 N   0  0  0  0  0  0  0  0  0  0  0  0
    3.0830   -5.7928   -2.7503 O   0  0  0  0  0  0  0  0  0  0  0  0
    2.1546   -0.8769    1.1809 H   0  0  0  0  0  0  0  0  0  0  0  0
    1.5976   -2.5628    0.9628 H   0  0  0  0  0  0  0  0  0  0  0  0
    1.9862   -1.5369   -0.4540 H   0  0  0  0  0  0  0  0  0  0  0  0
    7.9030   -1.7065    0.3125 H   0  0  0  0  0  0  0  0  0  0  0  0
    8.3072    2.6554    0.8151 H   0  0  0  0  0  0  0  0  0  0  0  0
   10.6729    3.4222    0.4390 H   0  0  0  0  0  0  0  0  0  0  0  0
   12.3531    1.8481   -0.5384 H   0  0  0  0  0  0  0  0  0  0  0  0
   12.4767   -2.3050   -2.1084 H   0  0  0  0  0  0  0  0  0  0  0  0
   10.7381   -1.9588   -2.2807 H   0  0  0  0  0  0  0  0  0  0  0  0
   13.6430   -1.7196   -0.2257 H   0  0  0  0  0  0  0  0  0  0  0  0
   14.2642   -3.3403    0.2408 H   0  0  0  0  0  0  0  0  0  0  0  0
   13.8327   -2.1369    1.4829 H   0  0  0  0  0  0  0  0  0  0  0  0
   10.8421   -4.2520    1.5922 H   0  0  0  0  0  0  0  0  0  0  0  0
   12.0147   -3.3740    2.6318 H   0  0  0  0  0  0  0  0  0  0  0  0
   12.5504   -4.7904    1.6814 H   0  0  0  0  0  0  0  0  0  0  0  0
    9.3187   -1.1795   -0.8559 H   0  0  0  0  0  0  0  0  0  0  0  0
    3.0884   -6.9590   -0.1482 H   0  0  0  0  0  0  0  0  0  0  0  0
    4.4999   -6.0178   -0.6626 H   0  0  0  0  0  0  0  0  0  0  0  0
    1.2908   -4.4591   -0.4990 H   0  0  0  0  0  0  0  0  0  0  0  0
    1.0213   -4.4348   -2.2332 H   0  0  0  0  0  0  0  0  0  0  0  0
  1  2  1  0
  1 28  1  0
  1 29  1  0
  1 30  1  0
  2  3  1  0
  2 22  2  0
  3  4  2  0
  4  5  1  0
  4 21  1  0
  5  6  1  0
  5 31  1  0
  6  7  2  0
  6  8  1  0
  8  9  2  0
  8 20  1  0
  9 10  1  0
  9 32  1  0
 10 11  2  0
 10 33  1  0
 11 12  1  0
 11 34  1  0
 12 13  1  0
 12 20  2  0
 13 14  1  0
 14 15  1  0
 14 35  1  0
 14 36  1  0
 15 16  2  0
 15 17  1  0
 17 18  1  0
 17 19  1  0
 18 37  1  0
 18 38  1  0
 18 39  1  0
 19 40  1  0
 19 41  1  0
 19 42  1  0
 20 43  1  0
 21 22  1  0
 22 23  1  0
 23 24  1  0
 24 25  1  0
 24 44  1  0
 24 45  1  0
 25 26  1  0
 25 27  2  0
 26 46  1  0
 26 47  1  0
M  END

