
     RDKit          3D

 44 45  0  0  0  0  0  0  0  0999 V2000
    0.9946    0.5012    0.2285 C   0  0  0  0  0  0  0  0  0  0  0  0
    2.4815    0.1521    0.1642 C   0  0  0  0  0  0  0  0  0  0  0  0
    2.8847   -0.9472    1.1461 C   0  0  0  0  0  0  0  0  0  0  0  0
    4.3068   -1.2556    1.0512 N   0  0  0  0  0  0  0  0  0  0  0  0
    4.7867   -2.2680    1.9961 C   0  0  1  0  0  0  0  0  0  0  0  0
    4.2844   -3.6582    1.6350 C   0  0  0  0  0  0  0  0  0  0  0  0
    3.7261   -4.4881    2.6013 C   0  0  0  0  0  0  0  0  0  0  0  0
    3.3273   -5.7874    2.2662 C   0  0  0  0  0  0  0  0  0  0  0  0
    2.6312   -6.8509    3.4698 Cl  0  0  0  0  0  0  0  0  0  0  0  0
    3.4989   -6.2156    0.9507 C   0  0  0  0  0  0  0  0  0  0  0  0
    4.0046   -5.4293    0.0023 N   0  0  0  0  0  0  0  0  0  0  0  0
    4.3876   -4.1820    0.3090 C   0  0  0  0  0  0  0  0  0  0  0  0
    4.9174   -3.4202   -0.7015 N   0  0  0  0  0  0  0  0  0  0  0  0
    6.3381   -2.1876    2.0598 C   0  0  1  0  0  0  0  0  0  0  0  0
    6.6242   -0.8137    2.3040 O   0  0  0  0  0  0  0  0  0  0  0  0
    7.9555   -0.3811    2.0943 C   0  0  0  0  0  0  0  0  0  0  0  0
    7.9877    1.1358    2.1519 C   0  0  0  0  0  0  0  0  0  0  0  0
    6.9330   -3.0849    3.1261 C   0  0  1  0  0  0  0  0  0  0  0  0
    7.2184   -4.5409    2.8512 C   0  0  0  0  0  0  0  0  0  0  0  0
    8.3596   -3.5798    3.0197 C   0  0  0  0  0  0  0  0  0  0  0  0
    0.7374    1.2941   -0.4912 H   0  0  0  0  0  0  0  0  0  0  0  0
    0.7064    0.8571    1.2318 H   0  0  0  0  0  0  0  0  0  0  0  0
    0.3664   -0.3749   -0.0038 H   0  0  0  0  0  0  0  0  0  0  0  0
    3.0836    1.0568    0.3694 H   0  0  0  0  0  0  0  0  0  0  0  0
    2.7528   -0.1686   -0.8566 H   0  0  0  0  0  0  0  0  0  0  0  0
    2.3078   -1.8629    0.9286 H   0  0  0  0  0  0  0  0  0  0  0  0
    2.5959   -0.6445    2.1783 H   0  0  0  0  0  0  0  0  0  0  0  0
    4.8602   -0.4148    1.2184 H   0  0  0  0  0  0  0  0  0  0  0  0
    4.4281   -2.0443    3.0242 H   0  0  0  0  0  0  0  0  0  0  0  0
    3.6073   -4.1321    3.6274 H   0  0  0  0  0  0  0  0  0  0  0  0
    3.2051   -7.2307    0.6610 H   0  0  0  0  0  0  0  0  0  0  0  0
    4.7847   -3.7986   -1.6327 H   0  0  0  0  0  0  0  0  0  0  0  0
    4.8260   -2.4106   -0.5629 H   0  0  0  0  0  0  0  0  0  0  0  0
    6.7457   -2.4774    1.0708 H   0  0  0  0  0  0  0  0  0  0  0  0
    8.3212   -0.7418    1.1107 H   0  0  0  0  0  0  0  0  0  0  0  0
    8.6280   -0.8048    2.8626 H   0  0  0  0  0  0  0  0  0  0  0  0
    7.3617    1.5754    1.3594 H   0  0  0  0  0  0  0  0  0  0  0  0
    9.0177    1.5041    2.0235 H   0  0  0  0  0  0  0  0  0  0  0  0
    7.6113    1.4924    3.1233 H   0  0  0  0  0  0  0  0  0  0  0  0
    6.5858   -2.8386    4.1365 H   0  0  0  0  0  0  0  0  0  0  0  0
    7.0133   -4.9191    1.8461 H   0  0  0  0  0  0  0  0  0  0  0  0
    7.0107   -5.2620    3.6460 H   0  0  0  0  0  0  0  0  0  0  0  0
    8.9314   -3.3111    2.1263 H   0  0  0  0  0  0  0  0  0  0  0  0
    8.9569   -3.6238    3.9348 H   0  0  0  0  0  0  0  0  0  0  0  0
  1  2  1  0
  1 21  1  0
  1 22  1  0
  1 23  1  0
  2  3  1  0
  2 24  1  0
  2 25  1  0
  3  4  1  0
  3 26  1  0
  3 27  1  0
  4  5  1  0
  4 28  1  0
  5  6  1  0
  5 14  1  0
  5 29  1  1
  6  7  2  0
  6 12  1  0
  7  8  1  0
  7 30  1  0
  8  9  1  0
  8 10  2  0
 10 11  1  0
 10 31  1  0
 11 12  2  0
 12 13  1  0
 13 32  1  0
 13 33  1  0
 14 15  1  0
 14 18  1  0
 14 34  1  6
 15 16  1  0
 16 17  1  0
 16 35  1  0
 16 36  1  0
 17 37  1  0
 17 38  1  0
 17 39  1  0
 18 19  1  0
 18 20  1  0
 18 40  1  1
 19 20  1  0
 19 41  1  0
 19 42  1  0
 20 43  1  0
 20 44  1  0
M  END

