
     RDKit          3D

 46 48  0  0  0  0  0  0  0  0999 V2000
    3.8980   -0.5443   -0.2486 C   0  0  0  0  0  0  0  0  0  0  0  0
    4.3507   -1.7389    0.5321 C   0  0  0  0  0  0  0  0  0  0  0  0
    5.3485   -1.6528    1.4061 N   0  0  0  0  0  0  0  0  0  0  0  0
    5.4664   -2.8817    1.9457 N   0  0  0  0  0  0  0  0  0  0  0  0
    6.4879   -3.1381    2.9350 C   0  0  0  0  0  0  0  0  0  0  0  0
    4.5653   -3.7693    1.4310 C   0  0  0  0  0  0  0  0  0  0  0  0
    4.4898   -5.1910    1.8840 C   0  0  0  0  0  0  0  0  0  0  0  0
    3.8140   -3.0578    0.4988 C   0  0  0  0  0  0  0  0  0  0  0  0
    2.6773   -3.5717   -0.3331 C   0  0  0  0  0  0  0  0  0  0  0  0
    1.2983   -3.1883    0.2219 C   0  0  0  0  0  0  0  0  0  0  0  0
    1.1162   -2.1386    0.8142 O   0  0  0  0  0  0  0  0  0  0  0  0
    0.2567   -4.0850    0.0313 N   0  0  0  0  0  0  0  0  0  0  0  0
   -1.0369   -3.7608    0.6443 C   0  0  0  0  0  0  0  0  0  0  0  0
   -1.1827   -4.2414    2.0907 C   0  0  0  0  0  0  0  0  0  0  0  0
   -1.2115   -5.7584    2.2927 C   0  0  2  0  0  0  0  0  0  0  0  0
   -1.9966   -6.2026    1.6578 H   0  0  0  0  0  0  0  0  0  0  0  0
   -1.4731   -6.1344    3.7526 C   0  0  0  0  0  0  0  0  0  0  0  0
    0.3683   -6.6148    1.8148 S   0  0  0  0  0  0  0  0  0  0  0  0
    0.3685   -6.5446    0.0312 C   0  0  0  0  0  0  0  0  0  0  0  0
    0.4747   -7.7475   -0.6863 C   0  0  0  0  0  0  0  0  0  0  0  0
    0.5942   -7.7415   -2.0777 C   0  0  0  0  0  0  0  0  0  0  0  0
    0.5842   -6.5288   -2.7727 C   0  0  0  0  0  0  0  0  0  0  0  0
    0.4611   -5.3279   -2.0708 C   0  0  0  0  0  0  0  0  0  0  0  0
    0.3748   -5.3184   -0.6715 C   0  0  0  0  0  0  0  0  0  0  0  0
    4.5657    0.3070   -0.0542 H   0  0  0  0  0  0  0  0  0  0  0  0
    2.8710   -0.2659    0.0372 H   0  0  0  0  0  0  0  0  0  0  0  0
    3.8952   -0.7420   -1.3339 H   0  0  0  0  0  0  0  0  0  0  0  0
    6.9582   -2.1768    3.1744 H   0  0  0  0  0  0  0  0  0  0  0  0
    7.2594   -3.8298    2.5559 H   0  0  0  0  0  0  0  0  0  0  0  0
    6.0547   -3.5664    3.8534 H   0  0  0  0  0  0  0  0  0  0  0  0
    5.4856   -5.6607    1.9465 H   0  0  0  0  0  0  0  0  0  0  0  0
    3.8803   -5.7873    1.1907 H   0  0  0  0  0  0  0  0  0  0  0  0
    4.0188   -5.2816    2.8781 H   0  0  0  0  0  0  0  0  0  0  0  0
    2.7523   -4.6599   -0.4631 H   0  0  0  0  0  0  0  0  0  0  0  0
    2.7353   -3.1477   -1.3523 H   0  0  0  0  0  0  0  0  0  0  0  0
   -1.8298   -4.1907    0.0114 H   0  0  0  0  0  0  0  0  0  0  0  0
   -1.1342   -2.6669    0.6249 H   0  0  0  0  0  0  0  0  0  0  0  0
   -2.1326   -3.8328    2.4824 H   0  0  0  0  0  0  0  0  0  0  0  0
   -0.3760   -3.7975    2.6970 H   0  0  0  0  0  0  0  0  0  0  0  0
   -0.6727   -5.7557    4.4091 H   0  0  0  0  0  0  0  0  0  0  0  0
   -1.5367   -7.2251    3.8823 H   0  0  0  0  0  0  0  0  0  0  0  0
   -2.4220   -5.6887    4.0918 H   0  0  0  0  0  0  0  0  0  0  0  0
    0.4643   -8.6901   -0.1348 H   0  0  0  0  0  0  0  0  0  0  0  0
    0.6812   -8.6864   -2.6196 H   0  0  0  0  0  0  0  0  0  0  0  0
    0.6609   -6.5162   -3.8627 H   0  0  0  0  0  0  0  0  0  0  0  0
    0.4365   -4.3743   -2.6033 H   0  0  0  0  0  0  0  0  0  0  0  0
  1  2  1  0
  1 25  1  0
  1 26  1  0
  1 27  1  0
  2  3  2  0
  2  8  1  0
  3  4  1  0
  4  5  1  0
  4  6  1  0
  5 28  1  0
  5 29  1  0
  5 30  1  0
  6  7  1  0
  6  8  2  0
  7 31  1  0
  7 32  1  0
  7 33  1  0
  8  9  1  0
  9 10  1  0
  9 34  1  0
  9 35  1  0
 10 11  2  0
 10 12  1  0
 12 13  1  0
 12 24  1  0
 13 14  1  0
 13 36  1  0
 13 37  1  0
 14 15  1  0
 14 38  1  0
 14 39  1  0
 15 16  1  6
 15 17  1  0
 15 18  1  0
 17 40  1  0
 17 41  1  0
 17 42  1  0
 18 19  1  0
 19 20  1  0
 19 24  2  0
 20 21  2  0
 20 43  1  0
 21 22  1  0
 21 44  1  0
 22 23  2  0
 22 45  1  0
 23 24  1  0
 23 46  1  0
M  END

