
     RDKit          3D

 40 41  0  0  0  0  0  0  0  0999 V2000
    5.2058   -2.4258   -0.5367 C   0  0  0  0  0  0  0  0  0  0  0  0
    4.3160   -1.2068   -0.3199 C   0  0  0  0  0  0  0  0  0  0  0  0
    5.0832    0.0251   -0.4625 N   0  0  0  0  0  0  0  0  0  0  0  0
    4.3257    1.2743   -0.4176 C   0  0  1  0  0  0  0  0  0  0  0  0
    3.6272    1.4755    0.9373 C   0  0  0  0  0  0  0  0  0  0  0  0
    5.2648    2.4201   -0.6962 C   0  0  0  0  0  0  0  0  0  0  0  0
    4.9300    3.5043   -1.3286 N   0  0  0  0  0  0  0  0  0  0  0  0
    5.9270    4.4237   -1.4024 N   0  0  0  0  0  0  0  0  0  0  0  0
    7.0389    4.0489   -0.8267 C   0  0  0  0  0  0  0  0  0  0  0  0
    8.3062    4.8023   -0.7380 C   0  0  1  0  0  0  0  0  0  0  0  0
    8.8832    5.6998   -1.8472 C   0  0  1  0  0  0  0  0  0  0  0  0
   10.3719    5.5522   -2.1349 C   0  0  0  0  0  0  0  0  0  0  0  0
    8.0887    5.9386   -3.1222 C   0  0  0  0  0  0  0  0  0  0  0  0
    8.4185    6.3248   -0.5421 C   0  0  1  0  0  0  0  0  0  0  0  0
    7.1629    7.1832   -0.5229 C   0  0  0  0  0  0  0  0  0  0  0  0
    9.4399    6.8049    0.4811 C   0  0  0  0  0  0  0  0  0  0  0  0
    6.9181    2.4404   -0.1163 S   0  0  0  0  0  0  0  0  0  0  0  0
    4.6397   -3.3583   -0.3883 H   0  0  0  0  0  0  0  0  0  0  0  0
    6.0545   -2.4156    0.1649 H   0  0  0  0  0  0  0  0  0  0  0  0
    5.6148   -2.4459   -1.5615 H   0  0  0  0  0  0  0  0  0  0  0  0
    3.8911   -1.2478    0.6964 H   0  0  0  0  0  0  0  0  0  0  0  0
    3.4484   -1.2494   -1.0178 H   0  0  0  0  0  0  0  0  0  0  0  0
    5.6021   -0.0110   -1.3404 H   0  0  0  0  0  0  0  0  0  0  0  0
    3.5456    1.3346   -1.2075 H   0  0  0  0  0  0  0  0  0  0  0  0
    4.3573    1.4056    1.7589 H   0  0  0  0  0  0  0  0  0  0  0  0
    2.8439    0.7199    1.0991 H   0  0  0  0  0  0  0  0  0  0  0  0
    3.1505    2.4659    0.9666 H   0  0  0  0  0  0  0  0  0  0  0  0
    9.0689    4.2364   -0.1945 H   0  0  0  0  0  0  0  0  0  0  0  0
   10.5382    4.7527   -2.8758 H   0  0  0  0  0  0  0  0  0  0  0  0
   10.9662    5.3044   -1.2451 H   0  0  0  0  0  0  0  0  0  0  0  0
   10.7789    6.4853   -2.5608 H   0  0  0  0  0  0  0  0  0  0  0  0
    8.3501    5.1787   -3.8775 H   0  0  0  0  0  0  0  0  0  0  0  0
    8.3424    6.9252   -3.5459 H   0  0  0  0  0  0  0  0  0  0  0  0
    7.0050    5.8863   -2.9700 H   0  0  0  0  0  0  0  0  0  0  0  0
    6.3500    6.7708   -1.1305 H   0  0  0  0  0  0  0  0  0  0  0  0
    7.3961    8.2003   -0.8813 H   0  0  0  0  0  0  0  0  0  0  0  0
    6.7849    7.2762    0.5090 H   0  0  0  0  0  0  0  0  0  0  0  0
   10.3278    6.1617    0.5471 H   0  0  0  0  0  0  0  0  0  0  0  0
    8.9838    6.8415    1.4843 H   0  0  0  0  0  0  0  0  0  0  0  0
    9.7823    7.8254    0.2380 H   0  0  0  0  0  0  0  0  0  0  0  0
  1  2  1  0
  1 18  1  0
  1 19  1  0
  1 20  1  0
  2  3  1  0
  2 21  1  0
  2 22  1  0
  3  4  1  0
  3 23  1  0
  4  5  1  0
  4  6  1  0
  4 24  1  6
  5 25  1  0
  5 26  1  0
  5 27  1  0
  6  7  2  0
  6 17  1  0
  7  8  1  0
  8  9  2  0
  9 10  1  0
  9 17  1  0
 10 11  1  0
 10 14  1  0
 10 28  1  1
 11 12  1  6
 11 13  1  0
 11 14  1  0
 12 29  1  0
 12 30  1  0
 12 31  1  0
 13 32  1  0
 13 33  1  0
 13 34  1  0
 14 15  1  6
 14 16  1  0
 15 35  1  0
 15 36  1  0
 15 37  1  0
 16 38  1  0
 16 39  1  0
 16 40  1  0
M  END

