
     RDKit          3D

 35 36  0  0  0  0  0  0  0  0999 V2000
    4.3967    1.4631    2.1063 N   0  0  0  0  0  0  0  0  0  0  0  0
    3.8890    0.8442    0.9921 C   0  0  0  0  0  0  0  0  0  0  0  0
    3.2863   -0.2095    1.0498 O   0  0  0  0  0  0  0  0  0  0  0  0
    4.2005    1.5513   -0.3051 C   0  0  0  0  0  0  0  0  0  0  0  0
    5.4909    2.0555   -0.5403 C   0  0  0  0  0  0  0  0  0  0  0  0
    5.8636    2.6559   -1.7409 C   0  0  0  0  0  0  0  0  0  0  0  0
    4.9112    2.7778   -2.7684 C   0  0  0  0  0  0  0  0  0  0  0  0
    5.1823    3.3637   -4.0119 N   0  0  0  0  0  0  0  0  0  0  0  0
    6.3522    3.9314   -4.4635 C   0  0  0  0  0  0  0  0  0  0  0  0
    7.3745    4.0122   -3.8096 O   0  0  0  0  0  0  0  0  0  0  0  0
    6.2935    4.4920   -5.8974 C   0  0  0  0  0  0  0  0  0  0  0  0
    5.0236    4.2936   -6.6894 C   0  0  0  0  0  0  0  0  0  0  0  0
    3.9888    5.2450   -6.6682 C   0  0  0  0  0  0  0  0  0  0  0  0
    2.8019    5.0537   -7.3731 C   0  0  0  0  0  0  0  0  0  0  0  0
    2.5983    3.8883   -8.1412 C   0  0  0  0  0  0  0  0  0  0  0  0
    1.4451    3.7140   -8.8833 N   0  0  0  0  0  0  0  0  0  0  0  0
    3.6328    2.9292   -8.1669 C   0  0  0  0  0  0  0  0  0  0  0  0
    4.8135    3.1341   -7.4568 C   0  0  0  0  0  0  0  0  0  0  0  0
    3.6094    2.2906   -2.5522 C   0  0  0  0  0  0  0  0  0  0  0  0
    3.2634    1.6826   -1.3471 C   0  0  0  0  0  0  0  0  0  0  0  0
    1.6102    1.1462   -1.1693 Cl  0  0  0  0  0  0  0  0  0  0  0  0
    4.1842    1.0422    3.0039 H   0  0  0  0  0  0  0  0  0  0  0  0
    4.6931    2.4298    2.0858 H   0  0  0  0  0  0  0  0  0  0  0  0
    6.2429    1.9478    0.2452 H   0  0  0  0  0  0  0  0  0  0  0  0
    6.8733    3.0257   -1.9000 H   0  0  0  0  0  0  0  0  0  0  0  0
    4.4152    3.3684   -4.6775 H   0  0  0  0  0  0  0  0  0  0  0  0
    7.1585    4.0455   -6.4137 H   0  0  0  0  0  0  0  0  0  0  0  0
    6.5325    5.5637   -5.7974 H   0  0  0  0  0  0  0  0  0  0  0  0
    4.1152    6.1639   -6.0874 H   0  0  0  0  0  0  0  0  0  0  0  0
    2.0217    5.8196   -7.3404 H   0  0  0  0  0  0  0  0  0  0  0  0
    0.6367    4.2670   -8.6264 H   0  0  0  0  0  0  0  0  0  0  0  0
    1.2211    2.7732   -9.1834 H   0  0  0  0  0  0  0  0  0  0  0  0
    3.5072    2.0187   -8.7597 H   0  0  0  0  0  0  0  0  0  0  0  0
    5.5963    2.3709   -7.5028 H   0  0  0  0  0  0  0  0  0  0  0  0
    2.8488    2.3864   -3.3299 H   0  0  0  0  0  0  0  0  0  0  0  0
  1  2  1  0
  1 22  1  0
  1 23  1  0
  2  3  2  0
  2  4  1  0
  4  5  2  0
  4 20  1  0
  5  6  1  0
  5 24  1  0
  6  7  2  0
  6 25  1  0
  7  8  1  0
  7 19  1  0
  8  9  1  0
  8 26  1  0
  9 10  2  0
  9 11  1  0
 11 12  1  0
 11 27  1  0
 11 28  1  0
 12 13  2  0
 12 18  1  0
 13 14  1  0
 13 29  1  0
 14 15  2  0
 14 30  1  0
 15 16  1  0
 15 17  1  0
 16 31  1  0
 16 32  1  0
 17 18  2  0
 17 33  1  0
 18 34  1  0
 19 20  2  0
 19 35  1  0
 20 21  1  0
M  END

