
     RDKit          3D

 44 45  0  0  0  0  0  0  0  0999 V2000
    6.0284    5.5935   -2.2789 C   0  0  0  0  0  0  0  0  0  0  0  0
    5.7073    5.3799   -0.9321 O   0  0  0  0  0  0  0  0  0  0  0  0
    6.4802    4.3863   -0.3110 C   0  0  0  0  0  0  0  0  0  0  0  0
    6.0261    4.2476    1.1353 C   0  0  0  0  0  0  0  0  0  0  0  0
    6.7930    3.2187    1.8193 N   0  0  0  0  0  0  0  0  0  0  0  0
    6.3665    2.9461    3.1843 C   0  0  0  0  0  0  0  0  0  0  0  0
    7.0695    1.7114    3.7535 C   0  0  0  0  0  0  0  0  0  0  0  0
    8.5217    1.8116    3.7649 N   0  0  0  0  0  0  0  0  0  0  0  0
    9.2069    2.3556    4.8161 C   0  0  0  0  0  0  0  0  0  0  0  0
    8.6407    2.8193    5.7954 O   0  0  0  0  0  0  0  0  0  0  0  0
   10.7111    2.3634    4.7032 C   0  0  0  0  0  0  0  0  0  0  0  0
   11.4154    3.2480    5.5337 C   0  0  0  0  0  0  0  0  0  0  0  0
   12.8057    3.3090    5.4944 C   0  0  0  0  0  0  0  0  0  0  0  0
   13.5459    2.4759    4.6332 C   0  0  0  0  0  0  0  0  0  0  0  0
   15.0305    2.5374    4.5929 C   0  0  0  0  0  0  0  0  0  0  0  0
   15.7712    2.7947    5.7613 C   0  0  0  0  0  0  0  0  0  0  0  0
   17.1596    2.8496    5.7136 C   0  0  0  0  0  0  0  0  0  0  0  0
   17.8623    3.0820    6.8232 F   0  0  0  0  0  0  0  0  0  0  0  0
   17.8528    2.6529    4.5161 C   0  0  0  0  0  0  0  0  0  0  0  0
   19.1810    2.7074    4.4799 F   0  0  0  0  0  0  0  0  0  0  0  0
   17.1142    2.3978    3.3575 C   0  0  0  0  0  0  0  0  0  0  0  0
   17.7720    2.2211    2.2103 F   0  0  0  0  0  0  0  0  0  0  0  0
   15.7254    2.3391    3.3856 C   0  0  0  0  0  0  0  0  0  0  0  0
   12.8355    1.5760    3.8175 C   0  0  0  0  0  0  0  0  0  0  0  0
   11.4423    1.5200    3.8524 C   0  0  0  0  0  0  0  0  0  0  0  0
    5.3658    6.3830   -2.6634 H   0  0  0  0  0  0  0  0  0  0  0  0
    5.8818    4.6808   -2.8927 H   0  0  0  0  0  0  0  0  0  0  0  0
    7.0801    5.9228   -2.4098 H   0  0  0  0  0  0  0  0  0  0  0  0
    7.5614    4.6510   -0.3471 H   0  0  0  0  0  0  0  0  0  0  0  0
    6.3755    3.4087   -0.8260 H   0  0  0  0  0  0  0  0  0  0  0  0
    4.9611    3.9595    1.1364 H   0  0  0  0  0  0  0  0  0  0  0  0
    6.0781    5.2469    1.6209 H   0  0  0  0  0  0  0  0  0  0  0  0
    7.7762    3.4923    1.8345 H   0  0  0  0  0  0  0  0  0  0  0  0
    5.2814    2.7436    3.1768 H   0  0  0  0  0  0  0  0  0  0  0  0
    6.5230    3.8027    3.8745 H   0  0  0  0  0  0  0  0  0  0  0  0
    6.7959    0.8292    3.1535 H   0  0  0  0  0  0  0  0  0  0  0  0
    6.7386    1.5514    4.7898 H   0  0  0  0  0  0  0  0  0  0  0  0
    9.0261    1.5349    2.9332 H   0  0  0  0  0  0  0  0  0  0  0  0
   10.8421    3.8884    6.2065 H   0  0  0  0  0  0  0  0  0  0  0  0
   13.3260    4.0312    6.1275 H   0  0  0  0  0  0  0  0  0  0  0  0
   15.2862    2.9285    6.7289 H   0  0  0  0  0  0  0  0  0  0  0  0
   15.2013    2.1642    2.4454 H   0  0  0  0  0  0  0  0  0  0  0  0
   13.3802    0.8842    3.1714 H   0  0  0  0  0  0  0  0  0  0  0  0
   10.9346    0.7771    3.2318 H   0  0  0  0  0  0  0  0  0  0  0  0
  1  2  1  0
  1 26  1  0
  1 27  1  0
  1 28  1  0
  2  3  1  0
  3  4  1  0
  3 29  1  0
  3 30  1  0
  4  5  1  0
  4 31  1  0
  4 32  1  0
  5  6  1  0
  5 33  1  0
  6  7  1  0
  6 34  1  0
  6 35  1  0
  7  8  1  0
  7 36  1  0
  7 37  1  0
  8  9  1  0
  8 38  1  0
  9 10  2  0
  9 11  1  0
 11 12  2  0
 11 25  1  0
 12 13  1  0
 12 39  1  0
 13 14  2  0
 13 40  1  0
 14 15  1  0
 14 24  1  0
 15 16  2  0
 15 23  1  0
 16 17  1  0
 16 41  1  0
 17 18  1  0
 17 19  2  0
 19 20  1  0
 19 21  1  0
 21 22  1  0
 21 23  2  0
 23 42  1  0
 24 25  2  0
 24 43  1  0
 25 44  1  0
M  END

