
     RDKit          3D

 78 79  0  0  0  0  0  0  0  0999 V2000
    5.5120    2.3925   -8.1141 C   0  0  0  0  0  0  0  0  0  0  0  0
    6.6123    2.6289   -7.0788 C   0  0  0  0  0  0  0  0  0  0  0  0
    6.7245    1.5026   -6.0470 C   0  0  0  0  0  0  0  0  0  0  0  0
    7.8318    1.7031   -5.0037 C   0  0  0  0  0  0  0  0  0  0  0  0
    7.6313    2.8487   -4.1265 N   0  0  0  0  0  0  0  0  0  0  0  0
    7.0318    2.7397   -2.9148 C   0  0  0  0  0  0  0  0  0  0  0  0
    6.5789    1.6888   -2.4755 O   0  0  0  0  0  0  0  0  0  0  0  0
    7.0183    4.0380   -2.0710 C   0  0  1  0  0  0  0  0  0  0  0  0
    5.9310    3.9914   -1.0021 C   0  0  0  0  0  0  0  0  0  0  0  0
    8.3743    4.2651   -1.5265 N   0  0  0  0  0  0  0  0  0  0  0  0
    9.0128    3.1774   -0.7841 C   0  0  0  0  0  0  0  0  0  0  0  0
    9.3432    3.4538    0.6771 C   0  0  0  0  0  0  0  0  0  0  0  0
   10.3237    2.6777    1.3075 C   0  0  0  0  0  0  0  0  0  0  0  0
   10.6097    2.8759    2.6636 C   0  0  0  0  0  0  0  0  0  0  0  0
    9.9351    3.8464    3.3980 C   0  0  0  0  0  0  0  0  0  0  0  0
    8.9546    4.6343    2.7710 C   0  0  0  0  0  0  0  0  0  0  0  0
    8.3452    5.5618    3.5519 O   0  0  0  0  0  0  0  0  0  0  0  0
    7.3484    6.3899    2.9959 C   0  0  0  0  0  0  0  0  0  0  0  0
    8.6613    4.4349    1.4130 C   0  0  0  0  0  0  0  0  0  0  0  0
    9.0140    5.4423   -1.8517 C   0  0  0  0  0  0  0  0  0  0  0  0
    8.4287    6.3703   -2.3985 O   0  0  0  0  0  0  0  0  0  0  0  0
   10.5234    5.5192   -1.6367 C   0  0  0  0  0  0  0  0  0  0  0  0
   11.2478    5.0367   -2.9129 C   0  0  0  0  0  0  0  0  0  0  0  0
   11.0762    5.9996   -4.0959 C   0  0  0  0  0  0  0  0  0  0  0  0
   11.4641    5.4018   -5.3851 N   0  0  0  0  0  0  0  0  0  0  0  0
   12.8465    5.2705   -5.7479 C   0  0  0  0  0  0  0  0  0  0  0  0
   13.6133    6.4313   -5.9501 C   0  0  0  0  0  0  0  0  0  0  0  0
   14.9713    6.3447   -6.2725 C   0  0  0  0  0  0  0  0  0  0  0  0
   15.8107    7.5843   -6.4694 C   0  0  0  0  0  0  0  0  0  0  0  0
   15.5430    5.0680   -6.4122 C   0  0  0  0  0  0  0  0  0  0  0  0
   14.7969    3.8981   -6.2297 C   0  0  0  0  0  0  0  0  0  0  0  0
   15.4212    2.5340   -6.3984 C   0  0  0  0  0  0  0  0  0  0  0  0
   13.4401    4.0121   -5.8837 C   0  0  0  0  0  0  0  0  0  0  0  0
   10.2720    4.8491   -6.4286 S   0  0  1  0  0  0  0  0  0  0  0  0
   10.2164    6.0580   -7.7589 C   0  0  0  0  0  0  0  0  0  0  0  0
   10.6775    3.5741   -7.0259 O   0  0  0  0  0  0  0  0  0  0  0  0
    8.9967    4.9472   -5.6996 O   0  0  0  0  0  0  0  0  0  0  0  0
    5.4540    3.2184   -8.8417 H   0  0  0  0  0  0  0  0  0  0  0  0
    4.5227    2.3034   -7.6341 H   0  0  0  0  0  0  0  0  0  0  0  0
    5.6855    1.4621   -8.6811 H   0  0  0  0  0  0  0  0  0  0  0  0
    6.4299    3.5846   -6.5575 H   0  0  0  0  0  0  0  0  0  0  0  0
    7.5867    2.7492   -7.5860 H   0  0  0  0  0  0  0  0  0  0  0  0
    6.9219    0.5479   -6.5686 H   0  0  0  0  0  0  0  0  0  0  0  0
    5.7626    1.3720   -5.5205 H   0  0  0  0  0  0  0  0  0  0  0  0
    8.8010    1.8372   -5.5123 H   0  0  0  0  0  0  0  0  0  0  0  0
    7.8952    0.8099   -4.3651 H   0  0  0  0  0  0  0  0  0  0  0  0
    7.9782    3.7493   -4.4534 H   0  0  0  0  0  0  0  0  0  0  0  0
    6.8375    4.8965   -2.7315 H   0  0  0  0  0  0  0  0  0  0  0  0
    6.0933    3.1681   -0.2917 H   0  0  0  0  0  0  0  0  0  0  0  0
    4.9499    3.8240   -1.4713 H   0  0  0  0  0  0  0  0  0  0  0  0
    5.8946    4.9452   -0.4547 H   0  0  0  0  0  0  0  0  0  0  0  0
    9.9265    2.8362   -1.2996 H   0  0  0  0  0  0  0  0  0  0  0  0
    8.3220    2.3210   -0.8284 H   0  0  0  0  0  0  0  0  0  0  0  0
   10.8643    1.9146    0.7406 H   0  0  0  0  0  0  0  0  0  0  0  0
   11.3750    2.2668    3.1518 H   0  0  0  0  0  0  0  0  0  0  0  0
   10.1478    4.0205    4.4545 H   0  0  0  0  0  0  0  0  0  0  0  0
    7.0042    7.0498    3.8036 H   0  0  0  0  0  0  0  0  0  0  0  0
    6.4887    5.8054    2.6216 H   0  0  0  0  0  0  0  0  0  0  0  0
    7.7405    7.0104    2.1700 H   0  0  0  0  0  0  0  0  0  0  0  0
    7.9060    5.0381    0.9128 H   0  0  0  0  0  0  0  0  0  0  0  0
   10.8629    4.9390   -0.7698 H   0  0  0  0  0  0  0  0  0  0  0  0
   10.7612    6.5756   -1.4406 H   0  0  0  0  0  0  0  0  0  0  0  0
   10.8482    4.0526   -3.2103 H   0  0  0  0  0  0  0  0  0  0  0  0
   12.3192    4.8892   -2.6982 H   0  0  0  0  0  0  0  0  0  0  0  0
   11.6803    6.9083   -3.9381 H   0  0  0  0  0  0  0  0  0  0  0  0
   10.0290    6.3184   -4.1624 H   0  0  0  0  0  0  0  0  0  0  0  0
   13.1382    7.4107   -5.8491 H   0  0  0  0  0  0  0  0  0  0  0  0
   15.2009    8.4989   -6.4324 H   0  0  0  0  0  0  0  0  0  0  0  0
   16.3343    7.5646   -7.4392 H   0  0  0  0  0  0  0  0  0  0  0  0
   16.5858    7.6676   -5.6887 H   0  0  0  0  0  0  0  0  0  0  0  0
   16.6032    4.9870   -6.6721 H   0  0  0  0  0  0  0  0  0  0  0  0
   16.5081    2.6006   -6.5521 H   0  0  0  0  0  0  0  0  0  0  0  0
   14.9894    2.0064   -7.2656 H   0  0  0  0  0  0  0  0  0  0  0  0
   15.2403    1.8989   -5.5160 H   0  0  0  0  0  0  0  0  0  0  0  0
   12.8303    3.1204   -5.7359 H   0  0  0  0  0  0  0  0  0  0  0  0
   11.2061    6.1027   -8.2316 H   0  0  0  0  0  0  0  0  0  0  0  0
    9.9256    7.0288   -7.3381 H   0  0  0  0  0  0  0  0  0  0  0  0
    9.4638    5.7020   -8.4754 H   0  0  0  0  0  0  0  0  0  0  0  0
  1  2  1  0
  1 38  1  0
  1 39  1  0
  1 40  1  0
  2  3  1  0
  2 41  1  0
  2 42  1  0
  3  4  1  0
  3 43  1  0
  3 44  1  0
  4  5  1  0
  4 45  1  0
  4 46  1  0
  5  6  1  0
  5 47  1  0
  6  7  2  0
  6  8  1  0
  8  9  1  0
  8 10  1  0
  8 48  1  6
  9 49  1  0
  9 50  1  0
  9 51  1  0
 10 11  1  0
 10 20  1  0
 11 12  1  0
 11 52  1  0
 11 53  1  0
 12 13  2  0
 12 19  1  0
 13 14  1  0
 13 54  1  0
 14 15  2  0
 14 55  1  0
 15 16  1  0
 15 56  1  0
 16 17  1  0
 16 19  2  0
 17 18  1  0
 18 57  1  0
 18 58  1  0
 18 59  1  0
 19 60  1  0
 20 21  2  0
 20 22  1  0
 22 23  1  0
 22 61  1  0
 22 62  1  0
 23 24  1  0
 23 63  1  0
 23 64  1  0
 24 25  1  0
 24 65  1  0
 24 66  1  0
 25 26  1  0
 34 25  1  1
 26 27  2  0
 26 33  1  0
 27 28  1  0
 27 67  1  0
 28 29  1  0
 28 30  2  0
 29 68  1  0
 29 69  1  0
 29 70  1  0
 30 31  1  0
 30 71  1  0
 31 32  1  0
 31 33  2  0
 32 72  1  0
 32 73  1  0
 32 74  1  0
 33 75  1  0
 34 35  1  0
 34 36  2  0
 34 37  2  0
 35 76  1  0
 35 77  1  0
 35 78  1  0
M  END

