
     RDKit          3D

 46 49  0  0  0  0  0  0  0  0999 V2000
    1.2345   -0.2852    0.2522 C   0  0  0  0  0  0  0  0  0  0  0  0
    2.7201   -0.1418    0.3057 C   0  0  0  0  0  0  0  0  0  0  0  0
    3.4646    1.0031    0.5242 C   0  0  0  0  0  0  0  0  0  0  0  0
    3.0468    2.3844    0.7505 C   0  0  0  0  0  0  0  0  0  0  0  0
    1.9047    2.7707    0.7951 O   0  0  0  0  0  0  0  0  0  0  0  0
    4.1356    3.2053    0.9102 O   0  0  0  0  0  0  0  0  0  0  0  0
    3.9832    4.5542    1.1241 C   0  0  0  0  0  0  0  0  0  0  0  0
    3.1429    5.0763    2.1128 C   0  0  0  0  0  0  0  0  0  0  0  0
    3.0789    6.4518    2.3347 C   0  0  0  0  0  0  0  0  0  0  0  0
    3.8649    7.3111    1.5621 C   0  0  0  0  0  0  0  0  0  0  0  0
    3.7940    9.0356    1.8359 Cl  0  0  0  0  0  0  0  0  0  0  0  0
    4.7109    6.8103    0.5707 C   0  0  0  0  0  0  0  0  0  0  0  0
    4.7626    5.4315    0.3513 C   0  0  0  0  0  0  0  0  0  0  0  0
    5.8063    4.8004   -0.8913 Cl  0  0  0  0  0  0  0  0  0  0  0  0
    4.8129    0.7213    0.4997 O   0  0  0  0  0  0  0  0  0  0  0  0
    4.9344   -0.5906    0.2683 C   0  0  0  0  0  0  0  0  0  0  0  0
    3.6986   -1.1877    0.1402 C   0  0  0  0  0  0  0  0  0  0  0  0
    3.5673   -2.6259   -0.0800 C   0  0  0  0  0  0  0  0  0  0  0  0
    2.3831   -3.1276   -0.1707 N   0  0  0  0  0  0  0  0  0  0  0  0
    2.2220   -4.4545   -0.3274 N   0  0  0  0  0  0  0  0  0  0  0  0
    0.9488   -4.9940   -0.4516 C   0  0  0  0  0  0  0  0  0  0  0  0
   -0.0787   -4.3501   -0.4399 O   0  0  0  0  0  0  0  0  0  0  0  0
    0.9490   -6.4669   -0.6011 C   0  0  0  0  0  0  0  0  0  0  0  0
   -0.0942   -7.3429   -0.7478 C   0  0  0  0  0  0  0  0  0  0  0  0
    0.4874   -8.6452   -0.8475 C   0  0  0  0  0  0  0  0  0  0  0  0
    1.8403   -8.4661   -0.7547 C   0  0  0  0  0  0  0  0  0  0  0  0
    2.1339   -7.1511   -0.6049 O   0  0  0  0  0  0  0  0  0  0  0  0
    4.8773   -3.4065   -0.1245 C   0  0  0  0  0  0  0  0  0  0  0  0
    6.0760   -2.5701   -0.6133 C   0  0  0  0  0  0  0  0  0  0  0  0
    6.2590   -1.2594    0.1720 C   0  0  0  0  0  0  0  0  0  0  0  0
    0.7385    0.6813    0.3978 H   0  0  0  0  0  0  0  0  0  0  0  0
    0.8923   -1.0014    1.0158 H   0  0  0  0  0  0  0  0  0  0  0  0
    0.9265   -0.7255   -0.7087 H   0  0  0  0  0  0  0  0  0  0  0  0
    2.5310    4.3979    2.7063 H   0  0  0  0  0  0  0  0  0  0  0  0
    2.4221    6.8578    3.1049 H   0  0  0  0  0  0  0  0  0  0  0  0
    5.3235    7.4801   -0.0321 H   0  0  0  0  0  0  0  0  0  0  0  0
    3.0167   -5.0926   -0.3401 H   0  0  0  0  0  0  0  0  0  0  0  0
   -1.1452   -7.0667   -0.7781 H   0  0  0  0  0  0  0  0  0  0  0  0
   -0.0306   -9.5937   -0.9724 H   0  0  0  0  0  0  0  0  0  0  0  0
    2.6869   -9.1478   -0.7771 H   0  0  0  0  0  0  0  0  0  0  0  0
    4.7760   -4.2859   -0.7822 H   0  0  0  0  0  0  0  0  0  0  0  0
    5.0860   -3.8006    0.8891 H   0  0  0  0  0  0  0  0  0  0  0  0
    5.9251   -2.3249   -1.6780 H   0  0  0  0  0  0  0  0  0  0  0  0
    6.9933   -3.1758   -0.5541 H   0  0  0  0  0  0  0  0  0  0  0  0
    6.9901   -0.5981   -0.3204 H   0  0  0  0  0  0  0  0  0  0  0  0
    6.6564   -1.4628    1.1847 H   0  0  0  0  0  0  0  0  0  0  0  0
  1  2  1  0
  1 31  1  0
  1 32  1  0
  1 33  1  0
  2  3  2  0
  2 17  1  0
  3  4  1  0
  3 15  1  0
  4  5  2  0
  4  6  1  0
  6  7  1  0
  7  8  2  0
  7 13  1  0
  8  9  1  0
  8 34  1  0
  9 10  2  0
  9 35  1  0
 10 11  1  0
 10 12  1  0
 12 13  2  0
 12 36  1  0
 13 14  1  0
 15 16  1  0
 16 17  2  0
 16 30  1  0
 17 18  1  0
 18 19  2  0
 18 28  1  0
 19 20  1  0
 20 21  1  0
 20 37  1  0
 21 22  2  0
 21 23  1  0
 23 24  2  0
 23 27  1  0
 24 25  1  0
 24 38  1  0
 25 26  2  0
 25 39  1  0
 26 27  1  0
 26 40  1  0
 28 29  1  0
 28 41  1  0
 28 42  1  0
 29 30  1  0
 29 43  1  0
 29 44  1  0
 30 45  1  0
 30 46  1  0
M  END

