
     RDKit          3D

 46 48  0  0  0  0  0  0  0  0999 V2000
    1.2675   -4.0866   -1.1046 C   0  0  0  0  0  0  0  0  0  0  0  0
    2.3042   -3.1368   -0.8682 O   0  0  0  0  0  0  0  0  0  0  0  0
    2.4982   -2.2154   -1.8313 C   0  0  0  0  0  0  0  0  0  0  0  0
    1.8407   -2.1775   -2.8469 O   0  0  0  0  0  0  0  0  0  0  0  0
    3.6012   -1.2637   -1.5011 C   0  0  0  0  0  0  0  0  0  0  0  0
    4.3370   -1.3409   -0.3085 C   0  0  0  0  0  0  0  0  0  0  0  0
    5.3516   -0.4114   -0.0771 C   0  0  0  0  0  0  0  0  0  0  0  0
    5.6479    0.5901   -1.0052 C   0  0  0  0  0  0  0  0  0  0  0  0
    4.9103    0.6678   -2.2024 C   0  0  0  0  0  0  0  0  0  0  0  0
    5.1401    1.6430   -3.1887 N   0  0  0  0  0  0  0  0  0  0  0  0
    6.0827    2.6343   -3.2133 C   0  0  0  0  0  0  0  0  0  0  0  0
    6.8900    2.8606   -2.3321 O   0  0  0  0  0  0  0  0  0  0  0  0
    6.0408    3.5631   -4.4367 C   0  0  0  0  0  0  0  0  0  0  0  0
    5.1832    3.0032   -5.9451 S   0  0  0  0  0  0  0  0  0  0  0  0
    6.3373    1.7717   -6.5452 C   0  0  0  0  0  0  0  0  0  0  0  0
    7.4084    1.5380   -5.8062 N   0  0  0  0  0  0  0  0  0  0  0  0
    8.3119    0.6185   -6.2041 C   0  0  0  0  0  0  0  0  0  0  0  0
    9.5077    0.4109   -5.3194 C   0  0  0  0  0  0  0  0  0  0  0  0
    8.2075   -0.1004   -7.3193 N   0  0  0  0  0  0  0  0  0  0  0  0
    7.1290    0.1392   -8.0597 C   0  0  0  0  0  0  0  0  0  0  0  0
    6.8015   -0.6920   -9.5591 S   0  0  0  0  0  0  0  0  0  0  0  0
    5.3056    0.2150   -9.7801 C   0  0  0  0  0  0  0  0  0  0  0  0
    4.4948   -0.0793  -11.0065 C   0  0  0  0  0  0  0  0  0  0  0  0
    5.0595    1.1095   -8.7661 C   0  0  0  0  0  0  0  0  0  0  0  0
    3.8587    2.0148   -8.6979 C   0  0  0  0  0  0  0  0  0  0  0  0
    6.1073    1.0762   -7.7606 C   0  0  0  0  0  0  0  0  0  0  0  0
    3.8898   -0.2655   -2.4380 C   0  0  0  0  0  0  0  0  0  0  0  0
    1.2530   -4.7485   -0.2298 H   0  0  0  0  0  0  0  0  0  0  0  0
    1.4675   -4.6663   -2.0186 H   0  0  0  0  0  0  0  0  0  0  0  0
    0.2945   -3.5848   -1.2198 H   0  0  0  0  0  0  0  0  0  0  0  0
    4.1098   -2.1200    0.4191 H   0  0  0  0  0  0  0  0  0  0  0  0
    5.9313   -0.4615    0.8481 H   0  0  0  0  0  0  0  0  0  0  0  0
    6.4393    1.3137   -0.8228 H   0  0  0  0  0  0  0  0  0  0  0  0
    4.5535    1.5823   -4.0173 H   0  0  0  0  0  0  0  0  0  0  0  0
    7.0799    3.8196   -4.6741 H   0  0  0  0  0  0  0  0  0  0  0  0
    5.5126    4.4866   -4.1480 H   0  0  0  0  0  0  0  0  0  0  0  0
    9.1877    0.2072   -4.2857 H   0  0  0  0  0  0  0  0  0  0  0  0
   10.1192    1.3277   -5.2868 H   0  0  0  0  0  0  0  0  0  0  0  0
   10.1195   -0.4189   -5.6942 H   0  0  0  0  0  0  0  0  0  0  0  0
    5.0735    0.1112  -11.9260 H   0  0  0  0  0  0  0  0  0  0  0  0
    3.5895    0.5405  -11.0468 H   0  0  0  0  0  0  0  0  0  0  0  0
    4.1793   -1.1359  -11.0351 H   0  0  0  0  0  0  0  0  0  0  0  0
    3.1998    1.8813   -9.5658 H   0  0  0  0  0  0  0  0  0  0  0  0
    4.1556    3.0753   -8.6657 H   0  0  0  0  0  0  0  0  0  0  0  0
    3.2583    1.8211   -7.7944 H   0  0  0  0  0  0  0  0  0  0  0  0
    3.2989   -0.2335   -3.3568 H   0  0  0  0  0  0  0  0  0  0  0  0
  1  2  1  0
  1 28  1  0
  1 29  1  0
  1 30  1  0
  2  3  1  0
  3  4  2  0
  3  5  1  0
  5  6  2  0
  5 27  1  0
  6  7  1  0
  6 31  1  0
  7  8  2  0
  7 32  1  0
  8  9  1  0
  8 33  1  0
  9 10  1  0
  9 27  2  0
 10 11  1  0
 10 34  1  0
 11 12  2  0
 11 13  1  0
 13 14  1  0
 13 35  1  0
 13 36  1  0
 14 15  1  0
 15 16  2  0
 15 26  1  0
 16 17  1  0
 17 18  1  0
 17 19  2  0
 18 37  1  0
 18 38  1  0
 18 39  1  0
 19 20  1  0
 20 21  1  0
 20 26  2  0
 21 22  1  0
 22 23  1  0
 22 24  2  0
 23 40  1  0
 23 41  1  0
 23 42  1  0
 24 25  1  0
 24 26  1  0
 25 43  1  0
 25 44  1  0
 25 45  1  0
 27 46  1  0
M  END

