
     RDKit          3D

 42 42  0  0  0  0  0  0  0  0999 V2000
    1.8713   -0.6948   -2.8870 C   0  0  0  0  0  0  0  0  0  0  0  0
    1.9507   -0.4267   -1.3823 C   0  0  0  0  0  0  0  0  0  0  0  0
    3.0127    0.5917   -0.8808 C   0  0  1  0  0  0  0  0  0  0  0  0
    2.8344    1.9658   -1.5737 C   0  0  0  0  0  0  0  0  0  0  0  0
    3.7630    3.0835   -1.0957 C   0  0  0  0  0  0  0  0  0  0  0  0
    2.8977    0.7140    0.6661 C   0  0  0  0  0  0  0  0  0  0  0  0
    1.6177    1.3339    1.2281 C   0  0  0  0  0  0  0  0  0  0  0  0
    4.3764    0.0522   -1.0987 N   0  0  0  0  0  0  0  0  0  0  0  0
    5.1497    0.0737   -2.2181 C   0  0  0  0  0  0  0  0  0  0  0  0
    4.8285    0.5603   -3.2914 O   0  0  0  0  0  0  0  0  0  0  0  0
    6.5216   -0.6271   -2.0779 C   0  0  0  0  0  0  0  0  0  0  0  0
    7.1296   -0.6915   -0.6967 C   0  0  0  0  0  0  0  0  0  0  0  0
    6.9450   -1.8183    0.1229 C   0  0  0  0  0  0  0  0  0  0  0  0
    7.4853   -1.8340    1.4138 C   0  0  0  0  0  0  0  0  0  0  0  0
    8.2084   -0.7483    1.9016 C   0  0  0  0  0  0  0  0  0  0  0  0
    8.4106    0.3911    1.0936 C   0  0  0  0  0  0  0  0  0  0  0  0
    9.1743    1.4545    1.5448 N   0  0  0  0  0  0  0  0  0  0  0  0
    7.8587    0.3982   -0.2023 C   0  0  0  0  0  0  0  0  0  0  0  0
    1.1113   -1.4672   -3.0887 H   0  0  0  0  0  0  0  0  0  0  0  0
    2.8282   -1.0406   -3.3012 H   0  0  0  0  0  0  0  0  0  0  0  0
    1.5830    0.2048   -3.4516 H   0  0  0  0  0  0  0  0  0  0  0  0
    2.1422   -1.3785   -0.8552 H   0  0  0  0  0  0  0  0  0  0  0  0
    0.9615   -0.0831   -1.0355 H   0  0  0  0  0  0  0  0  0  0  0  0
    1.7832    2.2707   -1.4353 H   0  0  0  0  0  0  0  0  0  0  0  0
    2.9869    1.8248   -2.6505 H   0  0  0  0  0  0  0  0  0  0  0  0
    3.5933    3.3608   -0.0428 H   0  0  0  0  0  0  0  0  0  0  0  0
    3.6085    3.9908   -1.7010 H   0  0  0  0  0  0  0  0  0  0  0  0
    4.8213    2.7982   -1.2009 H   0  0  0  0  0  0  0  0  0  0  0  0
    3.7646    1.2931    1.0249 H   0  0  0  0  0  0  0  0  0  0  0  0
    3.0175   -0.3002    1.0900 H   0  0  0  0  0  0  0  0  0  0  0  0
    1.4774    2.3730    0.8923 H   0  0  0  0  0  0  0  0  0  0  0  0
    1.6589    1.3502    2.3289 H   0  0  0  0  0  0  0  0  0  0  0  0
    0.7171    0.7673    0.9460 H   0  0  0  0  0  0  0  0  0  0  0  0
    4.7972   -0.3981   -0.2921 H   0  0  0  0  0  0  0  0  0  0  0  0
    7.1808   -0.1007   -2.7828 H   0  0  0  0  0  0  0  0  0  0  0  0
    6.3855   -1.6447   -2.4819 H   0  0  0  0  0  0  0  0  0  0  0  0
    6.3940   -2.6842   -0.2536 H   0  0  0  0  0  0  0  0  0  0  0  0
    7.3460   -2.7125    2.0499 H   0  0  0  0  0  0  0  0  0  0  0  0
    8.6321   -0.7774    2.9094 H   0  0  0  0  0  0  0  0  0  0  0  0
    9.2976    1.5416    2.5462 H   0  0  0  0  0  0  0  0  0  0  0  0
    9.0558    2.3417    1.0708 H   0  0  0  0  0  0  0  0  0  0  0  0
    8.0118    1.2741   -0.8407 H   0  0  0  0  0  0  0  0  0  0  0  0
  1  2  1  0
  1 19  1  0
  1 20  1  0
  1 21  1  0
  2  3  1  0
  2 22  1  0
  2 23  1  0
  3  4  1  0
  3  6  1  0
  3  8  1  1
  4  5  1  0
  4 24  1  0
  4 25  1  0
  5 26  1  0
  5 27  1  0
  5 28  1  0
  6  7  1  0
  6 29  1  0
  6 30  1  0
  7 31  1  0
  7 32  1  0
  7 33  1  0
  8  9  1  0
  8 34  1  0
  9 10  2  0
  9 11  1  0
 11 12  1  0
 11 35  1  0
 11 36  1  0
 12 13  2  0
 12 18  1  0
 13 14  1  0
 13 37  1  0
 14 15  2  0
 14 38  1  0
 15 16  1  0
 15 39  1  0
 16 17  1  0
 16 18  2  0
 17 40  1  0
 17 41  1  0
 18 42  1  0
M  END

