
     RDKit          3D

 29 30  0  0  0  0  0  0  0  0999 V2000
    3.9614   -1.7498    2.3042 C   0  0  0  0  0  0  0  0  0  0  0  0
    3.8631   -0.6985    1.2204 C   0  0  0  0  0  0  0  0  0  0  0  0
    2.9023   -0.6184    0.4852 O   0  0  0  0  0  0  0  0  0  0  0  0
    5.0326    0.2764    1.1185 C   0  0  0  0  0  0  0  0  0  0  0  0
    5.0697    1.0257   -0.2231 C   0  0  2  0  0  0  0  0  0  0  0  0
    4.0361    1.3184   -0.4550 H   0  0  0  0  0  0  0  0  0  0  0  0
    5.5841    0.1624   -1.3724 C   0  0  0  0  0  0  0  0  0  0  0  0
    6.9565   -0.0842   -1.5439 C   0  0  0  0  0  0  0  0  0  0  0  0
    7.4120   -0.8951   -2.5850 C   0  0  0  0  0  0  0  0  0  0  0  0
    6.4834   -1.4663   -3.4532 C   0  0  0  0  0  0  0  0  0  0  0  0
    6.9171   -2.2459   -4.4541 F   0  0  0  0  0  0  0  0  0  0  0  0
    5.1168   -1.2456   -3.3056 C   0  0  0  0  0  0  0  0  0  0  0  0
    4.6742   -0.4286   -2.2621 C   0  0  0  0  0  0  0  0  0  0  0  0
    5.8153    2.2786   -0.0839 N   0  0  0  0  0  0  0  0  0  0  0  0
    5.4911    3.5087   -0.5509 C   0  0  0  0  0  0  0  0  0  0  0  0
    6.4367    4.3783   -0.2499 N   0  0  0  0  0  0  0  0  0  0  0  0
    7.3440    3.6160    0.4127 C   0  0  0  0  0  0  0  0  0  0  0  0
    7.0116    2.3389    0.5381 N   0  0  0  0  0  0  0  0  0  0  0  0
    2.9919   -2.2480    2.4344 H   0  0  0  0  0  0  0  0  0  0  0  0
    4.3000   -1.3125    3.2573 H   0  0  0  0  0  0  0  0  0  0  0  0
    4.7163   -2.4993    2.0095 H   0  0  0  0  0  0  0  0  0  0  0  0
    5.9861   -0.2355    1.3194 H   0  0  0  0  0  0  0  0  0  0  0  0
    4.9062    1.0016    1.9434 H   0  0  0  0  0  0  0  0  0  0  0  0
    7.6759    0.3754   -0.8627 H   0  0  0  0  0  0  0  0  0  0  0  0
    8.4760   -1.0888   -2.7349 H   0  0  0  0  0  0  0  0  0  0  0  0
    4.4183   -1.7100   -4.0043 H   0  0  0  0  0  0  0  0  0  0  0  0
    3.6033   -0.2610   -2.1282 H   0  0  0  0  0  0  0  0  0  0  0  0
    4.5660    3.7104   -1.0915 H   0  0  0  0  0  0  0  0  0  0  0  0
    8.2757    4.0079    0.8210 H   0  0  0  0  0  0  0  0  0  0  0  0
  1  2  1  0
  1 19  1  0
  1 20  1  0
  1 21  1  0
  2  3  2  0
  2  4  1  0
  4  5  1  0
  4 22  1  0
  4 23  1  0
  5  6  1  6
  5  7  1  0
  5 14  1  0
  7  8  2  0
  7 13  1  0
  8  9  1  0
  8 24  1  0
  9 10  2  0
  9 25  1  0
 10 11  1  0
 10 12  1  0
 12 13  2  0
 12 26  1  0
 13 27  1  0
 14 15  1  0
 14 18  1  0
 15 16  2  0
 15 28  1  0
 16 17  1  0
 17 18  2  0
 17 29  1  0
M  END

