
     RDKit          3D

 55 56  0  0  0  0  0  0  0  0999 V2000
    1.4331   -0.1061   -0.8491 C   0  0  0  0  0  0  0  0  0  0  0  0
    2.7433    0.2928   -0.1989 C   0  0  0  0  0  0  0  0  0  0  0  0
    3.1826   -0.7897    0.6130 O   0  0  0  0  0  0  0  0  0  0  0  0
    4.3148   -0.6605    1.3497 C   0  0  0  0  0  0  0  0  0  0  0  0
    5.1651    0.4500    1.3222 C   0  0  0  0  0  0  0  0  0  0  0  0
    6.3171    0.4979    2.1251 C   0  0  0  0  0  0  0  0  0  0  0  0
    7.2577    1.6887    2.0301 C   0  0  0  0  0  0  0  0  0  0  0  0
    6.5727    2.9672    1.8903 N   0  0  0  0  0  0  0  0  0  0  0  0
    5.8687    3.3643    3.1046 C   0  0  0  0  0  0  0  0  0  0  0  0
    7.3598    4.0114    1.2211 C   0  0  1  0  0  0  0  0  0  0  0  0
    6.5053    5.1971    0.7730 C   0  0  0  0  0  0  0  0  0  0  0  0
    8.5237    4.5155    2.1092 C   0  0  0  0  0  0  0  0  0  0  0  0
    8.3310    5.2884    3.0327 O   0  0  0  0  0  0  0  0  0  0  0  0
    9.7509    3.9735    1.8012 N   0  0  0  0  0  0  0  0  0  0  0  0
   10.9890    4.1748    2.4281 C   0  0  0  0  0  0  0  0  0  0  0  0
   11.1767    4.9806    3.5649 C   0  0  0  0  0  0  0  0  0  0  0  0
   12.4494    5.1110    4.1246 C   0  0  0  0  0  0  0  0  0  0  0  0
   13.5491    4.4433    3.5802 C   0  0  0  0  0  0  0  0  0  0  0  0
   13.3757    3.6338    2.4547 C   0  0  0  0  0  0  0  0  0  0  0  0
   12.1111    3.5134    1.8850 C   0  0  0  0  0  0  0  0  0  0  0  0
   11.8899    2.6618    0.7917 O   0  0  0  0  0  0  0  0  0  0  0  0
   12.3401    3.0409   -0.4428 C   0  0  1  0  0  0  0  0  0  0  0  0
   11.7791    4.2128   -0.8239 F   0  0  0  0  0  0  0  0  0  0  0  0
   13.6779    3.2234   -0.4623 F   0  0  0  0  0  0  0  0  0  0  0  0
    6.6124   -0.5798    2.9640 C   0  0  0  0  0  0  0  0  0  0  0  0
    5.7752   -1.7009    2.9911 C   0  0  0  0  0  0  0  0  0  0  0  0
    4.6371   -1.7476    2.1959 C   0  0  0  0  0  0  0  0  0  0  0  0
    3.7793   -2.8277    2.3044 O   0  0  0  0  0  0  0  0  0  0  0  0
    3.6988   -3.6820    1.2361 C   0  0  1  0  0  0  0  0  0  0  0  0
    4.8106   -4.4596    1.1728 F   0  0  0  0  0  0  0  0  0  0  0  0
    2.6500   -4.4847    1.4580 F   0  0  0  0  0  0  0  0  0  0  0  0
    1.0564    0.7168   -1.4761 H   0  0  0  0  0  0  0  0  0  0  0  0
    0.6752   -0.3386   -0.0858 H   0  0  0  0  0  0  0  0  0  0  0  0
    1.5644   -0.9941   -1.4864 H   0  0  0  0  0  0  0  0  0  0  0  0
    2.6149    1.1959    0.4256 H   0  0  0  0  0  0  0  0  0  0  0  0
    3.5089    0.5247   -0.9627 H   0  0  0  0  0  0  0  0  0  0  0  0
    4.9422    1.3131    0.6952 H   0  0  0  0  0  0  0  0  0  0  0  0
    7.8908    1.5491    1.1348 H   0  0  0  0  0  0  0  0  0  0  0  0
    7.9501    1.6633    2.8996 H   0  0  0  0  0  0  0  0  0  0  0  0
    5.1900    2.5521    3.4051 H   0  0  0  0  0  0  0  0  0  0  0  0
    5.2576    4.2584    2.9213 H   0  0  0  0  0  0  0  0  0  0  0  0
    6.5452    3.5848    3.9544 H   0  0  0  0  0  0  0  0  0  0  0  0
    7.7845    3.5350    0.3201 H   0  0  0  0  0  0  0  0  0  0  0  0
    6.1984    5.8103    1.6315 H   0  0  0  0  0  0  0  0  0  0  0  0
    5.6122    4.8377    0.2408 H   0  0  0  0  0  0  0  0  0  0  0  0
    7.0834    5.8458    0.0969 H   0  0  0  0  0  0  0  0  0  0  0  0
    9.7888    3.3477    1.0054 H   0  0  0  0  0  0  0  0  0  0  0  0
   10.3156    5.4931    3.9869 H   0  0  0  0  0  0  0  0  0  0  0  0
   12.5767    5.7437    5.0063 H   0  0  0  0  0  0  0  0  0  0  0  0
   14.5395    4.5443    4.0293 H   0  0  0  0  0  0  0  0  0  0  0  0
   14.2099    3.0894    2.0124 H   0  0  0  0  0  0  0  0  0  0  0  0
   12.0667    2.2487   -1.1573 H   0  0  0  0  0  0  0  0  0  0  0  0
    7.4992   -0.5502    3.6022 H   0  0  0  0  0  0  0  0  0  0  0  0
    5.9833   -2.5534    3.6402 H   0  0  0  0  0  0  0  0  0  0  0  0
    3.5810   -3.1634    0.2709 H   0  0  0  0  0  0  0  0  0  0  0  0
  1  2  1  0
  1 32  1  0
  1 33  1  0
  1 34  1  0
  2  3  1  0
  2 35  1  0
  2 36  1  0
  3  4  1  0
  4  5  2  0
  4 27  1  0
  5  6  1  0
  5 37  1  0
  6  7  1  0
  6 25  2  0
  7  8  1  0
  7 38  1  0
  7 39  1  0
  8  9  1  0
  8 10  1  0
  9 40  1  0
  9 41  1  0
  9 42  1  0
 10 11  1  0
 10 12  1  0
 10 43  1  6
 11 44  1  0
 11 45  1  0
 11 46  1  0
 12 13  2  0
 12 14  1  0
 14 15  1  0
 14 47  1  0
 15 16  2  0
 15 20  1  0
 16 17  1  0
 16 48  1  0
 17 18  2  0
 17 49  1  0
 18 19  1  0
 18 50  1  0
 19 20  2  0
 19 51  1  0
 20 21  1  0
 21 22  1  0
 22 23  1  0
 22 24  1  0
 22 52  1  6
 25 26  1  0
 25 53  1  0
 26 27  2  0
 26 54  1  0
 27 28  1  0
 28 29  1  0
 29 30  1  0
 29 31  1  0
 29 55  1  6
M  END

