
     RDKit          3D

 45 48  0  0  0  0  0  0  0  0999 V2000
    5.1886   -2.9655    1.1123 C   0  0  0  0  0  0  0  0  0  0  0  0
    4.3742   -1.7149    1.0183 C   0  0  0  0  0  0  0  0  0  0  0  0
    4.9458   -0.5382    0.9297 N   0  0  0  0  0  0  0  0  0  0  0  0
    3.9115    0.3789    0.8465 O   0  0  0  0  0  0  0  0  0  0  0  0
    2.7168   -0.2422    0.9121 C   0  0  0  0  0  0  0  0  0  0  0  0
    1.5087    0.5946    0.8721 C   0  0  1  0  0  0  0  0  0  0  0  0
    1.4213    1.8478    1.7308 C   0  0  0  0  0  0  0  0  0  0  0  0
    1.5565    1.9736    0.2444 C   0  0  0  0  0  0  0  0  0  0  0  0
    2.9444   -1.5955    1.0189 C   0  0  0  0  0  0  0  0  0  0  0  0
    2.0535   -2.6788    1.1346 N   0  0  0  0  0  0  0  0  0  0  0  0
    0.9350   -2.8708    0.3429 C   0  0  0  0  0  0  0  0  0  0  0  0
    0.5368   -2.0324   -0.4511 O   0  0  0  0  0  0  0  0  0  0  0  0
    0.2858   -4.0850    0.5201 N   0  0  0  0  0  0  0  0  0  0  0  0
   -1.0093   -4.2863   -0.0955 C   0  0  0  0  0  0  0  0  0  0  0  0
   -1.0192   -5.5922   -0.8685 C   0  0  0  0  0  0  0  0  0  0  0  0
   -0.5804   -6.7224   -0.0414 N   0  0  0  0  0  0  0  0  0  0  0  0
   -0.9283   -8.0143   -0.4962 C   0  0  0  0  0  0  0  0  0  0  0  0
   -0.7709   -9.2825    0.1330 C   0  0  0  0  0  0  0  0  0  0  0  0
   -1.2292  -10.2562   -0.6475 N   0  0  0  0  0  0  0  0  0  0  0  0
   -1.6670   -9.6635   -1.7618 N   0  0  0  0  0  0  0  0  0  0  0  0
   -2.3040  -10.4495   -2.7973 C   0  0  0  0  0  0  0  0  0  0  0  0
   -1.5152   -8.3102   -1.7251 C   0  0  0  0  0  0  0  0  0  0  0  0
    0.2163   -6.5551    1.0670 C   0  0  0  0  0  0  0  0  0  0  0  0
    0.5777   -7.4665    1.7888 O   0  0  0  0  0  0  0  0  0  0  0  0
    0.6995   -5.1393    1.4192 C   0  0  0  0  0  0  0  0  0  0  0  0
    6.2550   -2.7243    1.0074 H   0  0  0  0  0  0  0  0  0  0  0  0
    4.9075   -3.6798    0.3215 H   0  0  0  0  0  0  0  0  0  0  0  0
    5.0464   -3.4703    2.0831 H   0  0  0  0  0  0  0  0  0  0  0  0
    0.5997    0.0134    0.7182 H   0  0  0  0  0  0  0  0  0  0  0  0
    2.2928    2.0945    2.3434 H   0  0  0  0  0  0  0  0  0  0  0  0
    0.4567    2.0666    2.1975 H   0  0  0  0  0  0  0  0  0  0  0  0
    2.5187    2.3063   -0.1525 H   0  0  0  0  0  0  0  0  0  0  0  0
    0.6860    2.2790   -0.3421 H   0  0  0  0  0  0  0  0  0  0  0  0
    2.2909   -3.3757    1.8280 H   0  0  0  0  0  0  0  0  0  0  0  0
   -1.1986   -3.4435   -0.7711 H   0  0  0  0  0  0  0  0  0  0  0  0
   -1.8058   -4.2994    0.6750 H   0  0  0  0  0  0  0  0  0  0  0  0
   -0.3801   -5.5097   -1.7666 H   0  0  0  0  0  0  0  0  0  0  0  0
   -2.0463   -5.7990   -1.2075 H   0  0  0  0  0  0  0  0  0  0  0  0
   -0.3357   -9.4941    1.1034 H   0  0  0  0  0  0  0  0  0  0  0  0
   -1.7897  -11.4168   -2.8695 H   0  0  0  0  0  0  0  0  0  0  0  0
   -2.2284   -9.9248   -3.7599 H   0  0  0  0  0  0  0  0  0  0  0  0
   -3.3675  -10.6296   -2.5677 H   0  0  0  0  0  0  0  0  0  0  0  0
   -1.8127   -7.6826   -2.5605 H   0  0  0  0  0  0  0  0  0  0  0  0
    1.7963   -5.2365    1.4319 H   0  0  0  0  0  0  0  0  0  0  0  0
    0.3785   -4.9664    2.4664 H   0  0  0  0  0  0  0  0  0  0  0  0
  1  2  1  0
  1 26  1  0
  1 27  1  0
  1 28  1  0
  2  3  2  0
  2  9  1  0
  3  4  1  0
  4  5  1  0
  5  6  1  0
  5  9  2  0
  6  7  1  0
  6  8  1  0
  6 29  1  6
  7  8  1  0
  7 30  1  0
  7 31  1  0
  8 32  1  0
  8 33  1  0
  9 10  1  0
 10 11  1  0
 10 34  1  0
 11 12  2  0
 11 13  1  0
 13 14  1  0
 13 25  1  0
 14 15  1  0
 14 35  1  0
 14 36  1  0
 15 16  1  0
 15 37  1  0
 15 38  1  0
 16 17  1  0
 16 23  1  0
 17 18  1  0
 17 22  2  0
 18 19  2  0
 18 39  1  0
 19 20  1  0
 20 21  1  0
 20 22  1  0
 21 40  1  0
 21 41  1  0
 21 42  1  0
 22 43  1  0
 23 24  2  0
 23 25  1  0
 25 44  1  0
 25 45  1  0
M  END

