
     RDKit          3D

 42 45  0  0  0  0  0  0  0  0999 V2000
    1.8571   -4.7122    3.5820 C   0  0  0  0  0  0  0  0  0  0  0  0
    3.2892   -4.9962    3.2324 C   0  0  0  0  0  0  0  0  0  0  0  0
    3.9640   -6.1433    3.6082 C   0  0  0  0  0  0  0  0  0  0  0  0
    5.3244   -6.3459    3.2492 C   0  0  0  0  0  0  0  0  0  0  0  0
    5.9983   -5.4029    2.5180 C   0  0  0  0  0  0  0  0  0  0  0  0
    5.3391   -4.2676    2.1236 N   0  0  0  0  0  0  0  0  0  0  0  0
    5.7652   -3.1454    1.3895 C   0  0  0  0  0  0  0  0  0  0  0  0
    7.0787   -3.0899    0.8364 C   0  0  0  0  0  0  0  0  0  0  0  0
    7.8383   -2.0567    0.3328 C   0  0  0  0  0  0  0  0  0  0  0  0
    9.1247   -2.4242   -0.1855 C   0  0  0  0  0  0  0  0  0  0  0  0
   10.1736   -2.7184   -0.5965 N   0  0  0  0  0  0  0  0  0  0  0  0
    7.4390   -0.6447    0.2196 C   0  0  0  0  0  0  0  0  0  0  0  0
    6.2353   -0.2281   -0.1209 N   0  0  0  0  0  0  0  0  0  0  0  0
    6.2426    1.1291   -0.1382 N   0  0  0  0  0  0  0  0  0  0  0  0
    7.4522    1.5357    0.1800 C   0  0  0  0  0  0  0  0  0  0  0  0
    8.2664    0.4505    0.4187 N   0  0  0  0  0  0  0  0  0  0  0  0
    9.6369    0.4551    0.9527 C   0  0  0  0  0  0  0  0  0  0  0  0
   10.4748    1.6404    0.4670 C   0  0  0  0  0  0  0  0  0  0  0  0
   10.2378    2.9702    1.2017 C   0  0  0  0  0  0  0  0  0  0  0  0
    8.7613    3.3259    1.4447 C   0  0  0  0  0  0  0  0  0  0  0  0
    7.8377    2.9824    0.2667 C   0  0  0  0  0  0  0  0  0  0  0  0
    4.6207   -2.3208    1.3399 C   0  0  0  0  0  0  0  0  0  0  0  0
    3.5784   -2.8606    1.9890 N   0  0  0  0  0  0  0  0  0  0  0  0
    4.0055   -4.0346    2.4686 C   0  0  0  0  0  0  0  0  0  0  0  0
    1.4195   -5.5312    4.1701 H   0  0  0  0  0  0  0  0  0  0  0  0
    1.2558   -4.5654    2.6706 H   0  0  0  0  0  0  0  0  0  0  0  0
    1.7745   -3.7759    4.1568 H   0  0  0  0  0  0  0  0  0  0  0  0
    3.4462   -6.9051    4.1958 H   0  0  0  0  0  0  0  0  0  0  0  0
    5.8509   -7.2501    3.5581 H   0  0  0  0  0  0  0  0  0  0  0  0
    7.0458   -5.5011    2.2350 H   0  0  0  0  0  0  0  0  0  0  0  0
    7.5946   -4.0550    0.8105 H   0  0  0  0  0  0  0  0  0  0  0  0
   10.1176   -0.4752    0.6320 H   0  0  0  0  0  0  0  0  0  0  0  0
    9.5914    0.4334    2.0560 H   0  0  0  0  0  0  0  0  0  0  0  0
   10.3065    1.7567   -0.6167 H   0  0  0  0  0  0  0  0  0  0  0  0
   11.5358    1.3617    0.5717 H   0  0  0  0  0  0  0  0  0  0  0  0
   10.7175    3.7718    0.6145 H   0  0  0  0  0  0  0  0  0  0  0  0
   10.7634    2.9528    2.1721 H   0  0  0  0  0  0  0  0  0  0  0  0
    8.6850    4.4033    1.6624 H   0  0  0  0  0  0  0  0  0  0  0  0
    8.3884    2.8136    2.3484 H   0  0  0  0  0  0  0  0  0  0  0  0
    8.3014    3.3071   -0.6831 H   0  0  0  0  0  0  0  0  0  0  0  0
    6.8863    3.5284    0.3406 H   0  0  0  0  0  0  0  0  0  0  0  0
    4.5709   -1.3764    0.8012 H   0  0  0  0  0  0  0  0  0  0  0  0
  1  2  1  0
  1 25  1  0
  1 26  1  0
  1 27  1  0
  2  3  2  0
  2 24  1  0
  3  4  1  0
  3 28  1  0
  4  5  2  0
  4 29  1  0
  5  6  1  0
  5 30  1  0
  6  7  1  0
  6 24  1  0
  7  8  1  0
  7 22  2  0
  8  9  2  0
  8 31  1  0
  9 10  1  0
  9 12  1  0
 10 11  3  0
 12 13  2  0
 12 16  1  0
 13 14  1  0
 14 15  2  0
 15 16  1  0
 15 21  1  0
 16 17  1  0
 17 18  1  0
 17 32  1  0
 17 33  1  0
 18 19  1  0
 18 34  1  0
 18 35  1  0
 19 20  1  0
 19 36  1  0
 19 37  1  0
 20 21  1  0
 20 38  1  0
 20 39  1  0
 21 40  1  0
 21 41  1  0
 22 23  1  0
 22 42  1  0
 23 24  2  0
M  END

