
     RDKit          3D

 40 41  0  0  0  0  0  0  0  0999 V2000
    1.7346    0.3665   -2.6329 C   0  0  0  0  0  0  0  0  0  0  0  0
    3.0530    0.1360   -2.1555 O   0  0  0  0  0  0  0  0  0  0  0  0
    3.4023   -1.1218   -1.7720 C   0  0  0  0  0  0  0  0  0  0  0  0
    4.5520   -1.6899   -2.3330 C   0  0  0  0  0  0  0  0  0  0  0  0
    5.0118   -2.9454   -1.9367 C   0  0  0  0  0  0  0  0  0  0  0  0
    4.2944   -3.6877   -0.9901 C   0  0  0  0  0  0  0  0  0  0  0  0
    4.8657   -5.0021   -0.5231 C   0  0  0  0  0  0  0  0  0  0  0  0
    6.0618   -5.0912   -0.2853 O   0  0  0  0  0  0  0  0  0  0  0  0
    4.0009   -6.0649   -0.3364 N   0  0  0  0  0  0  0  0  0  0  0  0
    2.7091   -6.2264   -0.9976 C   0  0  0  0  0  0  0  0  0  0  0  0
    2.7424   -7.3757   -2.0177 C   0  0  0  0  0  0  0  0  0  0  0  0
    3.2342   -8.7161   -1.4193 C   0  0  2  0  0  0  0  0  0  0  0  0
    2.1860   -9.3764   -0.5009 C   0  0  1  0  0  0  0  0  0  0  0  0
    0.8140   -9.5889   -1.1253 C   0  0  0  0  0  0  0  0  0  0  0  0
    2.8552  -11.1675    0.1076 Br  0  0  0  0  0  0  0  0  0  0  0  0
    4.5894   -8.4493   -0.7310 C   0  0  0  0  0  0  0  0  0  0  0  0
    4.5265   -7.2898    0.2690 C   0  0  0  0  0  0  0  0  0  0  0  0
    3.1462   -3.1207   -0.4138 C   0  0  0  0  0  0  0  0  0  0  0  0
    2.7048   -1.8445   -0.7752 C   0  0  0  0  0  0  0  0  0  0  0  0
    1.6297   -1.2518   -0.1842 O   0  0  0  0  0  0  0  0  0  0  0  0
    1.7180    1.3994   -3.0079 H   0  0  0  0  0  0  0  0  0  0  0  0
    0.9809    0.2537   -1.8395 H   0  0  0  0  0  0  0  0  0  0  0  0
    1.4892   -0.3175   -3.4658 H   0  0  0  0  0  0  0  0  0  0  0  0
    5.0858   -1.1023   -3.0829 H   0  0  0  0  0  0  0  0  0  0  0  0
    5.9299   -3.3604   -2.3556 H   0  0  0  0  0  0  0  0  0  0  0  0
    2.4404   -5.2951   -1.5088 H   0  0  0  0  0  0  0  0  0  0  0  0
    1.9272   -6.4123   -0.2357 H   0  0  0  0  0  0  0  0  0  0  0  0
    3.4403   -7.0959   -2.8247 H   0  0  0  0  0  0  0  0  0  0  0  0
    1.7521   -7.4770   -2.4873 H   0  0  0  0  0  0  0  0  0  0  0  0
    3.3977   -9.4169   -2.2557 H   0  0  0  0  0  0  0  0  0  0  0  0
    2.0863   -8.8316    0.4475 H   0  0  0  0  0  0  0  0  0  0  0  0
    0.8897  -10.1359   -2.0782 H   0  0  0  0  0  0  0  0  0  0  0  0
    0.3248   -8.6209   -1.3211 H   0  0  0  0  0  0  0  0  0  0  0  0
    0.1609  -10.1610   -0.4518 H   0  0  0  0  0  0  0  0  0  0  0  0
    5.3319   -8.1989   -1.5067 H   0  0  0  0  0  0  0  0  0  0  0  0
    4.9494   -9.3559   -0.2227 H   0  0  0  0  0  0  0  0  0  0  0  0
    5.5272   -7.0618    0.6540 H   0  0  0  0  0  0  0  0  0  0  0  0
    3.8849   -7.5564    1.1299 H   0  0  0  0  0  0  0  0  0  0  0  0
    2.6025   -3.6616    0.3677 H   0  0  0  0  0  0  0  0  0  0  0  0
    1.2786   -1.8362    0.5004 H   0  0  0  0  0  0  0  0  0  0  0  0
  1  2  1  0
  1 21  1  0
  1 22  1  0
  1 23  1  0
  2  3  1  0
  3  4  2  0
  3 19  1  0
  4  5  1  0
  4 24  1  0
  5  6  2  0
  5 25  1  0
  6  7  1  0
  6 18  1  0
  7  8  2  0
  7  9  1  0
  9 10  1  0
  9 17  1  0
 10 11  1  0
 10 26  1  0
 10 27  1  0
 11 12  1  0
 11 28  1  0
 11 29  1  0
 12 13  1  0
 12 16  1  0
 12 30  1  6
 13 14  1  0
 13 15  1  0
 13 31  1  1
 14 32  1  0
 14 33  1  0
 14 34  1  0
 16 17  1  0
 16 35  1  0
 16 36  1  0
 17 37  1  0
 17 38  1  0
 18 19  2  0
 18 39  1  0
 19 20  1  0
 20 40  1  0
M  END

