
     RDKit          3D

 49 52  0  0  0  0  0  0  0  0999 V2000
   -0.4711   -3.0820   -4.7609 C   0  0  0  0  0  0  0  0  0  0  0  0
    0.9195   -2.4973   -4.6998 C   0  0  0  0  0  0  0  0  0  0  0  0
    1.5351   -1.9999   -5.8536 C   0  0  0  0  0  0  0  0  0  0  0  0
    2.8197   -1.4536   -5.8362 C   0  0  0  0  0  0  0  0  0  0  0  0
    3.5036   -1.4061   -4.6216 C   0  0  0  0  0  0  0  0  0  0  0  0
    5.1153   -0.7279   -4.5655 Cl  0  0  0  0  0  0  0  0  0  0  0  0
    2.9330   -1.8880   -3.4428 C   0  0  0  0  0  0  0  0  0  0  0  0
    1.6399   -2.4343   -3.4799 C   0  0  0  0  0  0  0  0  0  0  0  0
    1.0113   -2.9415   -2.3234 N   0  0  0  0  0  0  0  0  0  0  0  0
    1.4769   -2.9833   -1.0323 C   0  0  0  0  0  0  0  0  0  0  0  0
    2.5772   -2.6189   -0.6747 O   0  0  0  0  0  0  0  0  0  0  0  0
    0.5236   -3.6818   -0.0257 C   0  0  1  0  0  0  0  0  0  0  0  0
    0.8870   -3.3445    1.4190 C   0  0  0  0  0  0  0  0  0  0  0  0
   -0.9068   -3.4596   -0.3284 N   0  0  0  0  0  0  0  0  0  0  0  0
   -1.7475   -4.5373   -0.4629 C   0  0  0  0  0  0  0  0  0  0  0  0
   -3.0253   -4.4673   -0.6556 N   0  0  0  0  0  0  0  0  0  0  0  0
   -3.5362   -3.2119   -0.7112 C   0  0  0  0  0  0  0  0  0  0  0  0
   -5.2392   -2.9229   -0.9179 S   0  0  0  0  0  0  0  0  0  0  0  0
   -4.9803   -1.2121   -0.8291 C   0  0  0  0  0  0  0  0  0  0  0  0
   -3.6634   -0.8453   -0.6571 C   0  0  0  0  0  0  0  0  0  0  0  0
   -3.2629    0.5812   -0.5698 C   0  0  0  0  0  0  0  0  0  0  0  0
   -4.0446    1.4737    0.1912 C   0  0  0  0  0  0  0  0  0  0  0  0
   -3.7404    2.8319    0.2474 C   0  0  0  0  0  0  0  0  0  0  0  0
   -2.6386    3.3005   -0.4672 C   0  0  0  0  0  0  0  0  0  0  0  0
   -2.3095    4.7396   -0.4164 N   0  0  0  0  0  0  0  0  0  0  0  0
   -3.0241    5.4577    0.2653 O   0  0  0  0  0  0  0  0  0  0  0  0
   -1.3465    5.1216   -1.0611 O   0  0  0  0  0  0  0  0  0  0  0  0
   -1.8384    2.4449   -1.2257 C   0  0  0  0  0  0  0  0  0  0  0  0
   -2.1526    1.0893   -1.2716 C   0  0  0  0  0  0  0  0  0  0  0  0
   -2.8157   -2.0171   -0.5914 C   0  0  0  0  0  0  0  0  0  0  0  0
   -1.3811   -2.1087   -0.3492 C   0  0  0  0  0  0  0  0  0  0  0  0
   -0.5939   -1.1933   -0.1894 O   0  0  0  0  0  0  0  0  0  0  0  0
   -0.8668   -3.0450   -5.7853 H   0  0  0  0  0  0  0  0  0  0  0  0
   -1.1854   -2.5330   -4.1208 H   0  0  0  0  0  0  0  0  0  0  0  0
   -0.4927   -4.1409   -4.4453 H   0  0  0  0  0  0  0  0  0  0  0  0
    0.9896   -2.0422   -6.8003 H   0  0  0  0  0  0  0  0  0  0  0  0
    3.2832   -1.0708   -6.7462 H   0  0  0  0  0  0  0  0  0  0  0  0
    3.4748   -1.8444   -2.5023 H   0  0  0  0  0  0  0  0  0  0  0  0
    0.0661   -3.2746   -2.4606 H   0  0  0  0  0  0  0  0  0  0  0  0
    0.6868   -4.7611   -0.1859 H   0  0  0  0  0  0  0  0  0  0  0  0
    0.7315   -2.2770    1.6196 H   0  0  0  0  0  0  0  0  0  0  0  0
    1.9482   -3.5718    1.5833 H   0  0  0  0  0  0  0  0  0  0  0  0
    0.2783   -3.9433    2.1131 H   0  0  0  0  0  0  0  0  0  0  0  0
   -1.2657   -5.5198   -0.3998 H   0  0  0  0  0  0  0  0  0  0  0  0
   -5.8276   -0.5377   -0.9443 H   0  0  0  0  0  0  0  0  0  0  0  0
   -4.8918    1.0924    0.7649 H   0  0  0  0  0  0  0  0  0  0  0  0
   -4.3325    3.5306    0.8376 H   0  0  0  0  0  0  0  0  0  0  0  0
   -0.9848    2.8514   -1.7671 H   0  0  0  0  0  0  0  0  0  0  0  0
   -1.5246    0.4184   -1.8556 H   0  0  0  0  0  0  0  0  0  0  0  0
  1  2  1  0
  1 33  1  0
  1 34  1  0
  1 35  1  0
  2  3  2  0
  2  8  1  0
  3  4  1  0
  3 36  1  0
  4  5  2  0
  4 37  1  0
  5  6  1  0
  5  7  1  0
  7  8  2  0
  7 38  1  0
  8  9  1  0
  9 10  1  0
  9 39  1  0
 10 11  2  0
 10 12  1  0
 12 13  1  0
 12 14  1  0
 12 40  1  1
 13 41  1  0
 13 42  1  0
 13 43  1  0
 14 15  1  0
 14 31  1  0
 15 16  2  0
 15 44  1  0
 16 17  1  0
 17 18  2  0
 17 30  1  0
 18 19  1  0
 19 20  2  0
 19 45  1  0
 20 21  1  0
 20 30  1  0
 21 22  2  0
 21 29  1  0
 22 23  1  0
 22 46  1  0
 23 24  2  0
 23 47  1  0
 24 25  1  0
 24 28  1  0
 25 26  2  0
 25 27  1  0
 28 29  2  0
 28 48  1  0
 29 49  1  0
 30 31  2  0
 31 32  1  0
M  CHG  4  18   1  25   1  27  -1  32  -1
M  END

