
     RDKit          3D

 39 41  0  0  0  0  0  0  0  0999 V2000
    3.2723   -1.9859   -2.6349 C   0  0  0  0  0  0  0  0  0  0  0  0
    2.9943   -1.4262   -1.3676 O   0  0  0  0  0  0  0  0  0  0  0  0
    2.9207   -0.0299   -1.2912 C   0  0  1  0  0  0  0  0  0  0  0  0
    1.7069    0.5298   -1.9962 C   0  0  0  0  0  0  0  0  0  0  0  0
    0.7429   -0.2143   -2.4757 N   0  0  0  0  0  0  0  0  0  0  0  0
   -0.1596    0.7177   -2.9900 O   0  0  0  0  0  0  0  0  0  0  0  0
    0.3502    1.9364   -2.7627 C   0  0  0  0  0  0  0  0  0  0  0  0
   -0.3903    3.1431   -3.2924 C   0  0  1  0  0  0  0  0  0  0  0  0
    0.0179    3.3058   -4.7746 C   0  0  0  0  0  0  0  0  0  0  0  0
   -1.9228    2.9390   -3.1818 C   0  0  0  0  0  0  0  0  0  0  0  0
   -2.4178    2.9931   -1.7351 C   0  0  0  0  0  0  0  0  0  0  0  0
   -2.0168    4.2531   -1.1241 N   0  0  0  0  0  0  0  0  0  0  0  0
   -0.5682    4.4063   -1.0694 C   0  0  0  0  0  0  0  0  0  0  0  0
    0.0122    4.4011   -2.4855 C   0  0  0  0  0  0  0  0  0  0  0  0
    1.4999    1.8830   -2.1558 N   0  0  0  0  0  0  0  0  0  0  0  0
    3.0170    0.4681    0.1820 C   0  0  0  0  0  0  0  0  0  0  0  0
    4.0712    1.5169   -0.2470 C   0  0  0  0  0  0  0  0  0  0  0  0
    4.2291    0.7782   -1.5990 C   0  0  0  0  0  0  0  0  0  0  0  0
    3.4269   -3.0633   -2.4781 H   0  0  0  0  0  0  0  0  0  0  0  0
    4.1943   -1.5641   -3.0792 H   0  0  0  0  0  0  0  0  0  0  0  0
    2.4379   -1.8477   -3.3427 H   0  0  0  0  0  0  0  0  0  0  0  0
   -0.2564    2.4156   -5.3619 H   0  0  0  0  0  0  0  0  0  0  0  0
    1.1037    3.4621   -4.8693 H   0  0  0  0  0  0  0  0  0  0  0  0
   -0.4955    4.1770   -5.2104 H   0  0  0  0  0  0  0  0  0  0  0  0
   -2.2143    1.9868   -3.6511 H   0  0  0  0  0  0  0  0  0  0  0  0
   -2.4070    3.7515   -3.7474 H   0  0  0  0  0  0  0  0  0  0  0  0
   -2.0349    2.1026   -1.1842 H   0  0  0  0  0  0  0  0  0  0  0  0
   -3.5175    2.9216   -1.7222 H   0  0  0  0  0  0  0  0  0  0  0  0
   -2.4215    4.3451   -0.1947 H   0  0  0  0  0  0  0  0  0  0  0  0
   -0.0718    3.6091   -0.4717 H   0  0  0  0  0  0  0  0  0  0  0  0
   -0.3283    5.3651   -0.5814 H   0  0  0  0  0  0  0  0  0  0  0  0
    1.1089    4.4830   -2.4461 H   0  0  0  0  0  0  0  0  0  0  0  0
   -0.3746    5.2798   -3.0271 H   0  0  0  0  0  0  0  0  0  0  0  0
    3.4374   -0.3443    0.7916 H   0  0  0  0  0  0  0  0  0  0  0  0
    2.0880    0.8291    0.6462 H   0  0  0  0  0  0  0  0  0  0  0  0
    4.9717    1.5934    0.3800 H   0  0  0  0  0  0  0  0  0  0  0  0
    3.6366    2.5177   -0.3738 H   0  0  0  0  0  0  0  0  0  0  0  0
    5.0891    0.0926   -1.6039 H   0  0  0  0  0  0  0  0  0  0  0  0
    4.2405    1.3909   -2.5114 H   0  0  0  0  0  0  0  0  0  0  0  0
  1  2  1  0
  1 19  1  0
  1 20  1  0
  1 21  1  0
  3  2  1  1
  3  4  1  0
  3 16  1  0
  3 18  1  0
  4  5  2  0
  4 15  1  0
  5  6  1  0
  6  7  1  0
  7  8  1  0
  7 15  2  0
  8  9  1  6
  8 10  1  0
  8 14  1  0
  9 22  1  0
  9 23  1  0
  9 24  1  0
 10 11  1  0
 10 25  1  0
 10 26  1  0
 11 12  1  0
 11 27  1  0
 11 28  1  0
 12 13  1  0
 12 29  1  0
 13 14  1  0
 13 30  1  0
 13 31  1  0
 14 32  1  0
 14 33  1  0
 16 17  1  0
 16 34  1  0
 16 35  1  0
 17 18  1  0
 17 36  1  0
 17 37  1  0
 18 38  1  0
 18 39  1  0
M  END

