
     RDKit          3D

 33 33  0  0  0  0  0  0  0  0999 V2000
    0.4790    2.7396    3.2203 C   0  0  0  0  0  0  0  0  0  0  0  0
    1.9777    2.8557    3.4916 C   0  0  0  0  0  0  0  0  0  0  0  0
    2.8514    2.2872    2.3588 C   0  0  1  0  0  0  0  0  0  0  0  0
    2.7232    2.9453    1.0650 N   0  0  0  0  0  0  0  0  0  0  0  0
    4.3296    2.2101    2.8104 C   0  0  0  0  0  0  0  0  0  0  0  0
    4.6141    1.9344    3.9638 O   0  0  0  0  0  0  0  0  0  0  0  0
    5.2317    2.4383    1.7983 N   0  0  0  0  0  0  0  0  0  0  0  0
    6.6222    2.3988    1.8581 C   0  0  0  0  0  0  0  0  0  0  0  0
    7.2940    2.0961    3.0597 C   0  0  0  0  0  0  0  0  0  0  0  0
    8.6802    2.0635    3.0823 C   0  0  0  0  0  0  0  0  0  0  0  0
    9.2903    1.7731    4.2370 F   0  0  0  0  0  0  0  0  0  0  0  0
    9.4637    2.3194    1.9564 C   0  0  0  0  0  0  0  0  0  0  0  0
    8.8055    2.6182    0.7714 C   0  0  0  0  0  0  0  0  0  0  0  0
    7.4003    2.6669    0.6872 C   0  0  0  0  0  0  0  0  0  0  0  0
    6.7616    2.9971   -0.6096 C   0  0  0  0  0  0  0  0  0  0  0  0
    5.5627    3.0835   -0.8078 O   0  0  0  0  0  0  0  0  0  0  0  0
    7.6526    3.2055   -1.5981 O   0  0  0  0  0  0  0  0  0  0  0  0
    7.1144    3.5303   -2.8779 C   0  0  0  0  0  0  0  0  0  0  0  0
   -0.1101    3.1763    4.0417 H   0  0  0  0  0  0  0  0  0  0  0  0
    0.1709    1.6854    3.1150 H   0  0  0  0  0  0  0  0  0  0  0  0
    0.1906    3.2634    2.2938 H   0  0  0  0  0  0  0  0  0  0  0  0
    2.2453    2.3342    4.4224 H   0  0  0  0  0  0  0  0  0  0  0  0
    2.2541    3.9155    3.6465 H   0  0  0  0  0  0  0  0  0  0  0  0
    2.5645    1.2286    2.2095 H   0  0  0  0  0  0  0  0  0  0  0  0
    2.6665    3.9598    1.1604 H   0  0  0  0  0  0  0  0  0  0  0  0
    1.9007    2.6378    0.5524 H   0  0  0  0  0  0  0  0  0  0  0  0
    4.8134    2.6624    0.8853 H   0  0  0  0  0  0  0  0  0  0  0  0
    6.7244    1.8896    3.9617 H   0  0  0  0  0  0  0  0  0  0  0  0
   10.5517    2.2815    2.0250 H   0  0  0  0  0  0  0  0  0  0  0  0
    9.3807    2.8245   -0.1305 H   0  0  0  0  0  0  0  0  0  0  0  0
    7.9752    3.6642   -3.5446 H   0  0  0  0  0  0  0  0  0  0  0  0
    6.5199    4.4554   -2.8310 H   0  0  0  0  0  0  0  0  0  0  0  0
    6.4663    2.7216   -3.2483 H   0  0  0  0  0  0  0  0  0  0  0  0
  1  2  1  0
  1 19  1  0
  1 20  1  0
  1 21  1  0
  2  3  1  0
  2 22  1  0
  2 23  1  0
  3  4  1  0
  3  5  1  0
  3 24  1  6
  4 25  1  0
  4 26  1  0
  5  6  2  0
  5  7  1  0
  7  8  1  0
  7 27  1  0
  8  9  2  0
  8 14  1  0
  9 10  1  0
  9 28  1  0
 10 11  1  0
 10 12  2  0
 12 13  1  0
 12 29  1  0
 13 14  2  0
 13 30  1  0
 14 15  1  0
 15 16  2  0
 15 17  1  0
 17 18  1  0
 18 31  1  0
 18 32  1  0
 18 33  1  0
M  END

