
     RDKit          3D

 57 59  0  0  0  0  0  0  0  0999 V2000
    0.7521   -0.2927    1.2835 C   0  0  0  0  0  0  0  0  0  0  0  0
    2.1984    0.1125    1.0652 C   0  0  0  0  0  0  0  0  0  0  0  0
    3.0311   -0.9867    1.3525 O   0  0  0  0  0  0  0  0  0  0  0  0
    4.4062   -0.7349    1.1828 C   0  0  0  0  0  0  0  0  0  0  0  0
    5.1666   -2.0026    1.5594 C   0  0  0  0  0  0  0  0  0  0  0  0
    6.6916   -2.0092    1.2991 C   0  0  1  0  0  0  0  0  0  0  0  0
    7.3540   -0.9216    2.1756 C   0  0  0  0  0  0  0  0  0  0  0  0
    8.7949   -0.8061    1.9686 N   0  0  0  0  0  0  0  0  0  0  0  0
    9.5268    0.2513    2.5344 C   0  0  0  0  0  0  0  0  0  0  0  0
    9.3368    1.5048    2.3443 N   0  0  0  0  0  0  0  0  0  0  0  0
    8.4457    1.9842    1.3203 C   0  0  0  0  0  0  0  0  0  0  0  0
   10.5992   -0.1919    3.3011 N   0  0  0  0  0  0  0  0  0  0  0  0
   11.5783    0.7249    3.8705 C   0  0  0  0  0  0  0  0  0  0  0  0
   11.2808    1.1718    5.2910 C   0  0  0  0  0  0  0  0  0  0  0  0
   12.0763    0.7305    6.3553 C   0  0  0  0  0  0  0  0  0  0  0  0
   11.8242    1.1130    7.6898 C   0  0  0  0  0  0  0  0  0  0  0  0
   10.7461    1.9503    7.9040 C   0  0  0  0  0  0  0  0  0  0  0  0
    9.9438    2.3960    6.8476 C   0  0  0  0  0  0  0  0  0  0  0  0
   10.1793    2.0301    5.5373 C   0  0  0  0  0  0  0  0  0  0  0  0
    8.9440    3.1883    7.3495 O   0  0  0  0  0  0  0  0  0  0  0  0
    9.2489    3.3854    8.7245 C   0  0  0  0  0  0  0  0  0  0  0  0
   10.2642    2.4526    9.0829 O   0  0  0  0  0  0  0  0  0  0  0  0
    7.2539   -3.4361    1.6344 C   0  0  0  0  0  0  0  0  0  0  0  0
    7.5499   -4.1100    0.2855 C   0  0  0  0  0  0  0  0  0  0  0  0
    8.0030   -2.9409   -0.5971 C   0  0  0  0  0  0  0  0  0  0  0  0
    7.0210   -1.8197   -0.2221 C   0  0  0  0  0  0  0  0  0  0  0  0
    0.0760    0.5494    1.0675 H   0  0  0  0  0  0  0  0  0  0  0  0
    0.5931   -0.6097    2.3260 H   0  0  0  0  0  0  0  0  0  0  0  0
    0.4831   -1.1342    0.6264 H   0  0  0  0  0  0  0  0  0  0  0  0
    2.4610    0.9756    1.7142 H   0  0  0  0  0  0  0  0  0  0  0  0
    2.3523    0.4498    0.0176 H   0  0  0  0  0  0  0  0  0  0  0  0
    4.7151    0.1223    1.8166 H   0  0  0  0  0  0  0  0  0  0  0  0
    4.6186   -0.4431    0.1328 H   0  0  0  0  0  0  0  0  0  0  0  0
    4.7090   -2.8342    0.9971 H   0  0  0  0  0  0  0  0  0  0  0  0
    4.9718   -2.2118    2.6255 H   0  0  0  0  0  0  0  0  0  0  0  0
    7.1126   -1.1350    3.2385 H   0  0  0  0  0  0  0  0  0  0  0  0
    6.9009    0.0516    1.9480 H   0  0  0  0  0  0  0  0  0  0  0  0
    9.2857   -1.6915    2.0486 H   0  0  0  0  0  0  0  0  0  0  0  0
    8.8263    2.9395    0.9203 H   0  0  0  0  0  0  0  0  0  0  0  0
    7.4335    2.2033    1.7149 H   0  0  0  0  0  0  0  0  0  0  0  0
    8.3246    1.2864    0.4687 H   0  0  0  0  0  0  0  0  0  0  0  0
   10.4264   -1.0311    3.8455 H   0  0  0  0  0  0  0  0  0  0  0  0
   11.6070    1.5937    3.1982 H   0  0  0  0  0  0  0  0  0  0  0  0
   12.5685    0.2394    3.8455 H   0  0  0  0  0  0  0  0  0  0  0  0
   12.9264    0.0742    6.1485 H   0  0  0  0  0  0  0  0  0  0  0  0
   12.4469    0.7670    8.5162 H   0  0  0  0  0  0  0  0  0  0  0  0
    9.5580    2.3754    4.7094 H   0  0  0  0  0  0  0  0  0  0  0  0
    8.3488    3.2079    9.3357 H   0  0  0  0  0  0  0  0  0  0  0  0
    9.6205    4.4186    8.8816 H   0  0  0  0  0  0  0  0  0  0  0  0
    6.5548   -4.0133    2.2592 H   0  0  0  0  0  0  0  0  0  0  0  0
    8.1883   -3.3637    2.2180 H   0  0  0  0  0  0  0  0  0  0  0  0
    6.6265   -4.5522   -0.1279 H   0  0  0  0  0  0  0  0  0  0  0  0
    8.2899   -4.9228    0.3615 H   0  0  0  0  0  0  0  0  0  0  0  0
    7.9988   -3.1752   -1.6736 H   0  0  0  0  0  0  0  0  0  0  0  0
    9.0325   -2.6452   -0.3320 H   0  0  0  0  0  0  0  0  0  0  0  0
    6.0992   -1.9382   -0.8154 H   0  0  0  0  0  0  0  0  0  0  0  0
    7.4201   -0.8186   -0.4411 H   0  0  0  0  0  0  0  0  0  0  0  0
  1  2  1  0
  1 27  1  0
  1 28  1  0
  1 29  1  0
  2  3  1  0
  2 30  1  0
  2 31  1  0
  3  4  1  0
  4  5  1  0
  4 32  1  0
  4 33  1  0
  6  5  1  6
  5 34  1  0
  5 35  1  0
  6  7  1  0
  6 23  1  0
  6 26  1  0
  7  8  1  0
  7 36  1  0
  7 37  1  0
  8  9  1  0
  8 38  1  0
  9 10  2  0
  9 12  1  0
 10 11  1  0
 11 39  1  0
 11 40  1  0
 11 41  1  0
 12 13  1  0
 12 42  1  0
 13 14  1  0
 13 43  1  0
 13 44  1  0
 14 15  2  0
 14 19  1  0
 15 16  1  0
 15 45  1  0
 16 17  2  0
 16 46  1  0
 17 18  1  0
 17 22  1  0
 18 19  2  0
 18 20  1  0
 19 47  1  0
 20 21  1  0
 21 22  1  0
 21 48  1  0
 21 49  1  0
 23 24  1  0
 23 50  1  0
 23 51  1  0
 24 25  1  0
 24 52  1  0
 24 53  1  0
 25 26  1  0
 25 54  1  0
 25 55  1  0
 26 56  1  0
 26 57  1  0
M  END

