
     RDKit          3D

 38 39  0  0  0  0  0  0  0  0999 V2000
    6.1097   -1.8886   -1.1799 C   0  0  0  0  0  0  0  0  0  0  0  0
    5.0860   -0.9618   -0.5234 C   0  0  0  0  0  0  0  0  0  0  0  0
    5.5314   -0.4478    0.8487 C   0  0  0  0  0  0  0  0  0  0  0  0
    4.4992    0.4723    1.5177 C   0  0  1  0  0  0  0  0  0  0  0  0
    3.2137   -0.1091    1.6790 O   0  0  0  0  0  0  0  0  0  0  0  0
    3.1115   -1.3149    2.4083 C   0  0  0  0  0  0  0  0  0  0  0  0
    5.0227    1.0522    2.8108 C   0  0  0  0  0  0  0  0  0  0  0  0
    5.0818    2.3471    2.9972 N   0  0  0  0  0  0  0  0  0  0  0  0
    5.6129    2.4688    4.2778 O   0  0  0  0  0  0  0  0  0  0  0  0
    5.8204    1.2290    4.7416 C   0  0  0  0  0  0  0  0  0  0  0  0
    6.3988    1.0612    6.1075 C   0  0  1  0  0  0  0  0  0  0  0  0
    5.4507    0.2532    7.0605 C   0  0  0  0  0  0  0  0  0  0  0  0
    6.3613   -0.7344    7.7980 C   0  0  0  0  0  0  0  0  0  0  0  0
    7.4220   -1.1057    6.7533 C   0  0  2  0  0  0  0  0  0  0  0  0
    8.5327   -1.8606    7.3053 N   0  0  0  0  0  0  0  0  0  0  0  0
    7.7397    0.2624    6.1019 C   0  0  0  0  0  0  0  0  0  0  0  0
    5.4787    0.3136    3.8800 N   0  0  0  0  0  0  0  0  0  0  0  0
    5.7623   -2.2392   -2.1648 H   0  0  0  0  0  0  0  0  0  0  0  0
    6.3011   -2.7798   -0.5587 H   0  0  0  0  0  0  0  0  0  0  0  0
    7.0766   -1.3795   -1.3303 H   0  0  0  0  0  0  0  0  0  0  0  0
    4.1191   -1.4815   -0.4205 H   0  0  0  0  0  0  0  0  0  0  0  0
    4.8878   -0.0983   -1.1836 H   0  0  0  0  0  0  0  0  0  0  0  0
    6.4712    0.1230    0.7465 H   0  0  0  0  0  0  0  0  0  0  0  0
    5.7675   -1.2909    1.5205 H   0  0  0  0  0  0  0  0  0  0  0  0
    4.3176    1.3354    0.8587 H   0  0  0  0  0  0  0  0  0  0  0  0
    2.0368   -1.5286    2.5043 H   0  0  0  0  0  0  0  0  0  0  0  0
    3.5533   -1.2411    3.4161 H   0  0  0  0  0  0  0  0  0  0  0  0
    3.5844   -2.1679    1.8858 H   0  0  0  0  0  0  0  0  0  0  0  0
    6.5650    2.0737    6.5008 H   0  0  0  0  0  0  0  0  0  0  0  0
    4.7165   -0.3019    6.4570 H   0  0  0  0  0  0  0  0  0  0  0  0
    4.8868    0.9174    7.7319 H   0  0  0  0  0  0  0  0  0  0  0  0
    5.8271   -1.6135    8.1879 H   0  0  0  0  0  0  0  0  0  0  0  0
    6.8574   -0.2450    8.6568 H   0  0  0  0  0  0  0  0  0  0  0  0
    6.9375   -1.7409    5.9901 H   0  0  0  0  0  0  0  0  0  0  0  0
    9.0641   -1.2873    7.9634 H   0  0  0  0  0  0  0  0  0  0  0  0
    9.1846   -2.1381    6.5715 H   0  0  0  0  0  0  0  0  0  0  0  0
    8.1742    0.1643    5.0958 H   0  0  0  0  0  0  0  0  0  0  0  0
    8.4794    0.7878    6.7299 H   0  0  0  0  0  0  0  0  0  0  0  0
  1  2  1  0
  1 18  1  0
  1 19  1  0
  1 20  1  0
  2  3  1  0
  2 21  1  0
  2 22  1  0
  3  4  1  0
  3 23  1  0
  3 24  1  0
  4  5  1  0
  4  7  1  0
  4 25  1  6
  5  6  1  0
  6 26  1  0
  6 27  1  0
  6 28  1  0
  7  8  2  0
  7 17  1  0
  8  9  1  0
  9 10  1  0
 10 11  1  0
 10 17  2  0
 11 12  1  0
 11 16  1  0
 11 29  1  1
 12 13  1  0
 12 30  1  0
 12 31  1  0
 13 14  1  0
 13 32  1  0
 13 33  1  0
 14 15  1  0
 14 16  1  0
 14 34  1  6
 15 35  1  0
 15 36  1  0
 16 37  1  0
 16 38  1  0
M  END

