
     RDKit          3D

 49 49  0  0  0  0  0  0  0  0999 V2000
    4.2235   -0.6277   -0.9074 C   0  0  0  0  0  0  0  0  0  0  0  0
    3.2353   -0.0987    0.1193 C   0  0  0  0  0  0  0  0  0  0  0  0
    3.5931    1.2158    0.5775 O   0  0  0  0  0  0  0  0  0  0  0  0
    4.4735    1.3005    1.5987 C   0  0  0  0  0  0  0  0  0  0  0  0
    4.9616    0.3312    2.1383 O   0  0  0  0  0  0  0  0  0  0  0  0
    4.7639    2.7068    1.9783 C   0  0  0  0  0  0  0  0  0  0  0  0
    4.1845    3.8143    1.3400 C   0  0  0  0  0  0  0  0  0  0  0  0
    4.4889    5.1096    1.7403 C   0  0  0  0  0  0  0  0  0  0  0  0
    5.3980    5.3668    2.7960 C   0  0  0  0  0  0  0  0  0  0  0  0
    5.7475    6.6353    3.1855 N   0  0  0  0  0  0  0  0  0  0  0  0
    5.0904    7.8700    2.7693 C   0  0  1  0  0  0  0  0  0  0  0  0
    3.8011    8.1497    3.5522 C   0  0  0  0  0  0  0  0  0  0  0  0
    6.0938    9.0268    2.9021 C   0  0  0  0  0  0  0  0  0  0  0  0
    7.2634    8.8653    2.0733 N   0  0  0  0  0  0  0  0  0  0  0  0
    7.5628    9.7218    1.0491 C   0  0  0  0  0  0  0  0  0  0  0  0
    6.9334   10.7287    0.7886 O   0  0  0  0  0  0  0  0  0  0  0  0
    8.6561    9.2750    0.3957 O   0  0  0  0  0  0  0  0  0  0  0  0
    9.2276    9.9979   -0.7430 C   0  0  1  0  0  0  0  0  0  0  0  0
    9.6908   11.3904   -0.3015 C   0  0  0  0  0  0  0  0  0  0  0  0
   10.4238    9.1272   -1.1327 C   0  0  0  0  0  0  0  0  0  0  0  0
    8.2102   10.0651   -1.8870 C   0  0  0  0  0  0  0  0  0  0  0  0
    5.9674    4.2266    3.4293 C   0  0  0  0  0  0  0  0  0  0  0  0
    7.2054    4.4787    4.8740 Br  0  0  0  0  0  0  0  0  0  0  0  0
    5.6624    2.9344    3.0338 C   0  0  0  0  0  0  0  0  0  0  0  0
    3.8775   -1.5995   -1.2950 H   0  0  0  0  0  0  0  0  0  0  0  0
    5.2150   -0.7738   -0.4541 H   0  0  0  0  0  0  0  0  0  0  0  0
    4.3199    0.0670   -1.7565 H   0  0  0  0  0  0  0  0  0  0  0  0
    3.1722   -0.7739    0.9855 H   0  0  0  0  0  0  0  0  0  0  0  0
    2.2328    0.0205   -0.3175 H   0  0  0  0  0  0  0  0  0  0  0  0
    3.4822    3.6522    0.5216 H   0  0  0  0  0  0  0  0  0  0  0  0
    4.0152    5.9465    1.2272 H   0  0  0  0  0  0  0  0  0  0  0  0
    6.2457    6.6804    4.0709 H   0  0  0  0  0  0  0  0  0  0  0  0
    4.8527    7.7784    1.6980 H   0  0  0  0  0  0  0  0  0  0  0  0
    4.0175    8.2935    4.6239 H   0  0  0  0  0  0  0  0  0  0  0  0
    3.0958    7.3100    3.4609 H   0  0  0  0  0  0  0  0  0  0  0  0
    3.3030    9.0588    3.1797 H   0  0  0  0  0  0  0  0  0  0  0  0
    6.3821    9.1311    3.9671 H   0  0  0  0  0  0  0  0  0  0  0  0
    5.6157    9.9698    2.6038 H   0  0  0  0  0  0  0  0  0  0  0  0
    7.8088    8.0145    2.1503 H   0  0  0  0  0  0  0  0  0  0  0  0
   10.3900   11.3102    0.5458 H   0  0  0  0  0  0  0  0  0  0  0  0
    8.8383   12.0118    0.0003 H   0  0  0  0  0  0  0  0  0  0  0  0
   10.2167   11.8880   -1.1314 H   0  0  0  0  0  0  0  0  0  0  0  0
   11.1317    9.0438   -0.2941 H   0  0  0  0  0  0  0  0  0  0  0  0
   10.9515    9.5662   -1.9930 H   0  0  0  0  0  0  0  0  0  0  0  0
   10.0927    8.1137   -1.4060 H   0  0  0  0  0  0  0  0  0  0  0  0
    7.3405   10.6722   -1.6055 H   0  0  0  0  0  0  0  0  0  0  0  0
    7.8668    9.0531   -2.1536 H   0  0  0  0  0  0  0  0  0  0  0  0
    8.6805   10.5107   -2.7775 H   0  0  0  0  0  0  0  0  0  0  0  0
    6.1127    2.0760    3.5340 H   0  0  0  0  0  0  0  0  0  0  0  0
  1  2  1  0
  1 25  1  0
  1 26  1  0
  1 27  1  0
  2  3  1  0
  2 28  1  0
  2 29  1  0
  3  4  1  0
  4  5  2  0
  4  6  1  0
  6  7  2  0
  6 24  1  0
  7  8  1  0
  7 30  1  0
  8  9  2  0
  8 31  1  0
  9 10  1  0
  9 22  1  0
 10 11  1  0
 10 32  1  0
 11 12  1  0
 11 13  1  0
 11 33  1  6
 12 34  1  0
 12 35  1  0
 12 36  1  0
 13 14  1  0
 13 37  1  0
 13 38  1  0
 14 15  1  0
 14 39  1  0
 15 16  2  0
 15 17  1  0
 18 17  1  1
 18 19  1  0
 18 20  1  0
 18 21  1  0
 19 40  1  0
 19 41  1  0
 19 42  1  0
 20 43  1  0
 20 44  1  0
 20 45  1  0
 21 46  1  0
 21 47  1  0
 21 48  1  0
 22 23  1  0
 22 24  2  0
 24 49  1  0
M  END

