
     RDKit          3D

 69 72  0  0  0  0  0  0  0  0999 V2000
    2.3102    1.2004    0.0582 C   0  0  0  0  0  0  0  0  0  0  0  0
    2.0577   -0.2087   -0.5054 C   0  0  1  0  0  0  0  0  0  0  0  0
    2.4970   -0.3072   -1.9767 C   0  0  0  0  0  0  0  0  0  0  0  0
    2.6991   -1.2903    0.3539 C   0  0  0  0  0  0  0  0  0  0  0  0
    4.0889   -1.3593    0.5448 C   0  0  0  0  0  0  0  0  0  0  0  0
    4.6522   -2.3609    1.3312 C   0  0  0  0  0  0  0  0  0  0  0  0
    3.8724   -3.3464    1.9684 C   0  0  0  0  0  0  0  0  0  0  0  0
    2.4792   -3.2815    1.7806 C   0  0  0  0  0  0  0  0  0  0  0  0
    1.9234   -2.2675    0.9826 C   0  0  0  0  0  0  0  0  0  0  0  0
    1.5860   -4.3213    2.4081 C   0  0  0  0  0  0  0  0  0  0  0  0
    2.3271   -5.6450    2.5472 C   0  0  0  0  0  0  0  0  0  0  0  0
    3.5691   -5.4916    3.4391 C   0  0  1  0  0  0  0  0  0  0  0  0
    4.2428   -6.8893    3.7932 C   0  0  2  0  0  0  0  0  0  0  0  0
    4.1030   -7.9487    2.6752 C   0  0  0  0  0  0  0  0  0  0  0  0
    3.6314   -7.4516    5.1039 C   0  0  0  0  0  0  0  0  0  0  0  0
    2.2269   -7.8004    5.0322 N   0  0  0  0  0  0  0  0  0  0  0  0
    1.4854   -8.1254    6.1394 C   0  0  0  0  0  0  0  0  0  0  0  0
    1.8692   -8.0418    7.4404 C   0  0  0  0  0  0  0  0  0  0  0  0
    1.0216   -8.3287    8.5966 C   0  0  0  0  0  0  0  0  0  0  0  0
   -0.3673   -8.5841    8.5145 C   0  0  0  0  0  0  0  0  0  0  0  0
   -1.1218   -8.8676    9.6476 C   0  0  0  0  0  0  0  0  0  0  0  0
   -0.5208   -8.8976   10.9143 C   0  0  0  0  0  0  0  0  0  0  0  0
   -1.3309   -9.2552   12.1287 C   0  0  1  0  0  0  0  0  0  0  0  0
   -2.6058   -8.8307   12.0273 F   0  0  0  0  0  0  0  0  0  0  0  0
   -1.3875  -10.5905   12.3254 F   0  0  0  0  0  0  0  0  0  0  0  0
   -0.8180   -8.7233   13.2544 F   0  0  0  0  0  0  0  0  0  0  0  0
    0.8495   -8.6331   11.0229 C   0  0  0  0  0  0  0  0  0  0  0  0
    1.6014   -8.3541    9.8848 C   0  0  0  0  0  0  0  0  0  0  0  0
    5.7501   -6.7155    4.0937 C   0  0  0  0  0  0  0  0  0  0  0  0
    6.5465   -6.0474    2.9597 C   0  0  0  0  0  0  0  0  0  0  0  0
    5.7066   -5.0766    2.1097 C   0  0  0  0  0  0  0  0  0  0  0  0
    4.5625   -4.3823    2.8903 C   0  0  1  0  0  0  0  0  0  0  0  0
    5.1281   -3.5648    4.0839 C   0  0  0  0  0  0  0  0  0  0  0  0
    1.7840    1.9617   -0.5410 H   0  0  0  0  0  0  0  0  0  0  0  0
    3.3835    1.4526    0.0456 H   0  0  0  0  0  0  0  0  0  0  0  0
    1.9603    1.2840    1.0991 H   0  0  0  0  0  0  0  0  0  0  0  0
    0.9680   -0.3839   -0.4755 H   0  0  0  0  0  0  0  0  0  0  0  0
    3.5796   -0.1288   -2.0857 H   0  0  0  0  0  0  0  0  0  0  0  0
    1.9735    0.4424   -2.5929 H   0  0  0  0  0  0  0  0  0  0  0  0
    2.2798   -1.3032   -2.3934 H   0  0  0  0  0  0  0  0  0  0  0  0
    4.7465   -0.6227    0.0753 H   0  0  0  0  0  0  0  0  0  0  0  0
    5.7373   -2.3638    1.4552 H   0  0  0  0  0  0  0  0  0  0  0  0
    0.8367   -2.2513    0.8472 H   0  0  0  0  0  0  0  0  0  0  0  0
    0.6741   -4.4458    1.8018 H   0  0  0  0  0  0  0  0  0  0  0  0
    1.2455   -3.9847    3.4061 H   0  0  0  0  0  0  0  0  0  0  0  0
    2.6096   -6.0008    1.5417 H   0  0  0  0  0  0  0  0  0  0  0  0
    1.6533   -6.3962    2.9813 H   0  0  0  0  0  0  0  0  0  0  0  0
    3.1912   -5.0999    4.3989 H   0  0  0  0  0  0  0  0  0  0  0  0
    4.5740   -7.6249    1.7365 H   0  0  0  0  0  0  0  0  0  0  0  0
    3.0591   -8.1940    2.4289 H   0  0  0  0  0  0  0  0  0  0  0  0
    4.5964   -8.8845    2.9850 H   0  0  0  0  0  0  0  0  0  0  0  0
    3.7484   -6.6919    5.8943 H   0  0  0  0  0  0  0  0  0  0  0  0
    4.2325   -8.3279    5.4274 H   0  0  0  0  0  0  0  0  0  0  0  0
    1.9189   -8.2259    4.1669 H   0  0  0  0  0  0  0  0  0  0  0  0
    0.4755   -8.4669    5.8907 H   0  0  0  0  0  0  0  0  0  0  0  0
    2.8961   -7.7508    7.6740 H   0  0  0  0  0  0  0  0  0  0  0  0
   -0.8747   -8.5459    7.5481 H   0  0  0  0  0  0  0  0  0  0  0  0
   -2.1938   -9.0532    9.5533 H   0  0  0  0  0  0  0  0  0  0  0  0
    1.3275   -8.6404   12.0045 H   0  0  0  0  0  0  0  0  0  0  0  0
    2.6706   -8.1501    9.9884 H   0  0  0  0  0  0  0  0  0  0  0  0
    6.1840   -7.7026    4.3246 H   0  0  0  0  0  0  0  0  0  0  0  0
    5.8543   -6.1294    5.0199 H   0  0  0  0  0  0  0  0  0  0  0  0
    6.9804   -6.8132    2.2963 H   0  0  0  0  0  0  0  0  0  0  0  0
    7.4076   -5.5178    3.3987 H   0  0  0  0  0  0  0  0  0  0  0  0
    5.2538   -5.6102    1.2580 H   0  0  0  0  0  0  0  0  0  0  0  0
    6.3725   -4.3261    1.6600 H   0  0  0  0  0  0  0  0  0  0  0  0
    5.8780   -2.8336    3.7454 H   0  0  0  0  0  0  0  0  0  0  0  0
    5.6021   -4.1964    4.8471 H   0  0  0  0  0  0  0  0  0  0  0  0
    4.3195   -3.0015    4.5756 H   0  0  0  0  0  0  0  0  0  0  0  0
  1  2  1  0
  1 34  1  0
  1 35  1  0
  1 36  1  0
  2  3  1  0
  2  4  1  0
  2 37  1  6
  3 38  1  0
  3 39  1  0
  3 40  1  0
  4  5  2  0
  4  9  1  0
  5  6  1  0
  5 41  1  0
  6  7  2  0
  6 42  1  0
  7  8  1  0
  7 32  1  0
  8  9  2  0
  8 10  1  0
  9 43  1  0
 10 11  1  0
 10 44  1  0
 10 45  1  0
 11 12  1  0
 11 46  1  0
 11 47  1  0
 12 13  1  0
 12 32  1  0
 12 48  1  1
 13 14  1  6
 13 15  1  0
 13 29  1  0
 14 49  1  0
 14 50  1  0
 14 51  1  0
 15 16  1  0
 15 52  1  0
 15 53  1  0
 16 17  1  0
 16 54  1  0
 17 18  2  0
 17 55  1  0
 18 19  1  0
 18 56  1  0
 19 20  2  0
 19 28  1  0
 20 21  1  0
 20 57  1  0
 21 22  2  0
 21 58  1  0
 22 23  1  0
 22 27  1  0
 23 24  1  6
 23 25  1  0
 23 26  1  0
 27 28  2  0
 27 59  1  0
 28 60  1  0
 29 30  1  0
 29 61  1  0
 29 62  1  0
 30 31  1  0
 30 63  1  0
 30 64  1  0
 31 32  1  0
 31 65  1  0
 31 66  1  0
 32 33  1  1
 33 67  1  0
 33 68  1  0
 33 69  1  0
M  END

