
     RDKit          3D

 41 43  0  0  0  0  0  0  0  0999 V2000
    0.9447    0.2149    1.3899 C   0  0  0  0  0  0  0  0  0  0  0  0
    2.3275   -0.3863    1.3536 C   0  0  0  0  0  0  0  0  0  0  0  0
    2.5947   -1.5964    2.0352 C   0  0  0  0  0  0  0  0  0  0  0  0
    3.8602   -2.1614    2.0073 C   0  0  0  0  0  0  0  0  0  0  0  0
    4.9168   -1.5484    1.3011 C   0  0  0  0  0  0  0  0  0  0  0  0
    6.2529   -2.0846    1.2365 C   0  0  0  0  0  0  0  0  0  0  0  0
    7.2512   -1.4711    0.5447 C   0  0  0  0  0  0  0  0  0  0  0  0
    8.6773   -1.9707    0.4568 C   0  0  0  0  0  0  0  0  0  0  0  0
    8.8789   -3.3289    0.9293 N   0  0  0  0  0  0  0  0  0  0  0  0
    8.5313   -4.4021    0.0084 C   0  0  0  0  0  0  0  0  0  0  0  0
    9.4373   -3.6557    2.1412 C   0  0  0  0  0  0  0  0  0  0  0  0
    9.5674   -4.8048    2.5288 O   0  0  0  0  0  0  0  0  0  0  0  0
    9.8756   -2.5168    3.0442 C   0  0  0  0  0  0  0  0  0  0  0  0
    9.0571   -2.1589    4.1270 C   0  0  0  0  0  0  0  0  0  0  0  0
    9.4637   -1.1969    5.0527 C   0  0  0  0  0  0  0  0  0  0  0  0
   10.7125   -0.5846    4.9155 C   0  0  0  0  0  0  0  0  0  0  0  0
   11.5507   -0.9353    3.8550 C   0  0  0  0  0  0  0  0  0  0  0  0
   11.1292   -1.8965    2.9316 C   0  0  0  0  0  0  0  0  0  0  0  0
   12.3044   -2.3508    1.4925 Br  0  0  0  0  0  0  0  0  0  0  0  0
    6.9912   -0.2088   -0.1705 C   0  0  0  0  0  0  0  0  0  0  0  0
    7.8347    0.4062   -0.8089 O   0  0  0  0  0  0  0  0  0  0  0  0
    5.6849    0.2611   -0.0726 N   0  0  0  0  0  0  0  0  0  0  0  0
    5.5160    1.1328   -0.5676 H   0  0  0  0  0  0  0  0  0  0  0  0
    4.6504   -0.3358    0.6180 C   0  0  0  0  0  0  0  0  0  0  0  0
    3.3625    0.2306    0.6519 C   0  0  0  0  0  0  0  0  0  0  0  0
    0.6258    0.4144    2.4265 H   0  0  0  0  0  0  0  0  0  0  0  0
    0.2021   -0.4744    0.9541 H   0  0  0  0  0  0  0  0  0  0  0  0
    0.8948    1.1612    0.8321 H   0  0  0  0  0  0  0  0  0  0  0  0
    1.7914   -2.0890    2.5893 H   0  0  0  0  0  0  0  0  0  0  0  0
    4.0561   -3.0976    2.5372 H   0  0  0  0  0  0  0  0  0  0  0  0
    6.4597   -3.0203    1.7643 H   0  0  0  0  0  0  0  0  0  0  0  0
    9.3282   -1.2769    1.0085 H   0  0  0  0  0  0  0  0  0  0  0  0
    9.0108   -1.8915   -0.5917 H   0  0  0  0  0  0  0  0  0  0  0  0
    9.1965   -4.3864   -0.8728 H   0  0  0  0  0  0  0  0  0  0  0  0
    7.4918   -4.2966   -0.3418 H   0  0  0  0  0  0  0  0  0  0  0  0
    8.6472   -5.3597    0.5290 H   0  0  0  0  0  0  0  0  0  0  0  0
    8.0895   -2.6532    4.2424 H   0  0  0  0  0  0  0  0  0  0  0  0
    8.8077   -0.9304    5.8847 H   0  0  0  0  0  0  0  0  0  0  0  0
   11.0423    0.1670    5.6369 H   0  0  0  0  0  0  0  0  0  0  0  0
   12.5307   -0.4691    3.7415 H   0  0  0  0  0  0  0  0  0  0  0  0
    3.1784    1.1675    0.1180 H   0  0  0  0  0  0  0  0  0  0  0  0
  1  2  1  0
  1 26  1  0
  1 27  1  0
  1 28  1  0
  2  3  2  0
  2 25  1  0
  3  4  1  0
  3 29  1  0
  4  5  2  0
  4 30  1  0
  5  6  1  0
  5 24  1  0
  6  7  2  0
  6 31  1  0
  7  8  1  0
  7 20  1  0
  8  9  1  0
  8 32  1  0
  8 33  1  0
  9 10  1  0
  9 11  1  0
 10 34  1  0
 10 35  1  0
 10 36  1  0
 11 12  2  0
 11 13  1  0
 13 14  2  0
 13 18  1  0
 14 15  1  0
 14 37  1  0
 15 16  2  0
 15 38  1  0
 16 17  1  0
 16 39  1  0
 17 18  2  0
 17 40  1  0
 18 19  1  0
 20 21  2  0
 20 22  1  0
 22 23  1  0
 22 24  1  0
 24 25  2  0
 25 41  1  0
M  END

