
     RDKit          3D

 31 31  0  0  0  0  0  0  0  0999 V2000
    2.6023    0.7138    2.7602 C   0  0  0  0  0  0  0  0  0  0  0  0
    3.2893    0.3484    1.4434 C   0  0  0  0  0  0  0  0  0  0  0  0
    3.7194    1.5795    0.6425 C   0  0  0  0  0  0  0  0  0  0  0  0
    4.4106    1.2441   -0.7084 C   0  0  1  0  0  0  0  0  0  0  0  0
    3.5066    0.5490   -1.6313 C   0  0  0  0  0  0  0  0  0  0  0  0
    2.7932   -0.0162   -2.3483 N   0  0  0  0  0  0  0  0  0  0  0  0
    4.9194    2.5624   -1.3466 C   0  0  0  0  0  0  0  0  0  0  0  0
    4.1288    3.3391   -1.8234 O   0  0  0  0  0  0  0  0  0  0  0  0
    6.4291    2.8191   -1.3382 C   0  0  1  0  0  0  0  0  0  0  0  0
    6.7742    4.2264   -1.8565 C   0  0  0  0  0  0  0  0  0  0  0  0
    6.4468    5.2930   -0.7994 C   0  0  0  0  0  0  0  0  0  0  0  0
    7.0307    4.9186    0.5625 C   0  0  0  0  0  0  0  0  0  0  0  0
    6.6486    3.6074    0.9598 O   0  0  0  0  0  0  0  0  0  0  0  0
    7.0743    2.6221    0.0479 C   0  0  0  0  0  0  0  0  0  0  0  0
    2.3077   -0.1877    3.3199 H   0  0  0  0  0  0  0  0  0  0  0  0
    1.6912    1.3088    2.5835 H   0  0  0  0  0  0  0  0  0  0  0  0
    3.2660    1.3089    3.4092 H   0  0  0  0  0  0  0  0  0  0  0  0
    2.6116   -0.2694    0.8295 H   0  0  0  0  0  0  0  0  0  0  0  0
    4.1744   -0.2807    1.6494 H   0  0  0  0  0  0  0  0  0  0  0  0
    4.4190    2.1948    1.2330 H   0  0  0  0  0  0  0  0  0  0  0  0
    2.8506    2.2209    0.4211 H   0  0  0  0  0  0  0  0  0  0  0  0
    5.2578    0.5644   -0.5189 H   0  0  0  0  0  0  0  0  0  0  0  0
    6.8519    2.0485   -2.0130 H   0  0  0  0  0  0  0  0  0  0  0  0
    6.2292    4.4318   -2.7889 H   0  0  0  0  0  0  0  0  0  0  0  0
    7.8524    4.2525   -2.0928 H   0  0  0  0  0  0  0  0  0  0  0  0
    5.3539    5.3948   -0.7113 H   0  0  0  0  0  0  0  0  0  0  0  0
    6.8392    6.2761   -1.1092 H   0  0  0  0  0  0  0  0  0  0  0  0
    6.6755    5.5969    1.3525 H   0  0  0  0  0  0  0  0  0  0  0  0
    8.1392    4.9830    0.5361 H   0  0  0  0  0  0  0  0  0  0  0  0
    6.8271    1.6470    0.4930 H   0  0  0  0  0  0  0  0  0  0  0  0
    8.1770    2.6539   -0.0724 H   0  0  0  0  0  0  0  0  0  0  0  0
  1  2  1  0
  1 15  1  0
  1 16  1  0
  1 17  1  0
  2  3  1  0
  2 18  1  0
  2 19  1  0
  3  4  1  0
  3 20  1  0
  3 21  1  0
  4  5  1  0
  4  7  1  0
  4 22  1  1
  5  6  3  0
  7  8  2  0
  7  9  1  0
  9 10  1  0
  9 14  1  0
  9 23  1  6
 10 11  1  0
 10 24  1  0
 10 25  1  0
 11 12  1  0
 11 26  1  0
 11 27  1  0
 12 13  1  0
 12 28  1  0
 12 29  1  0
 13 14  1  0
 14 30  1  0
 14 31  1  0
M  END

