
     RDKit          3D

 24 25  0  0  0  0  0  0  0  0999 V2000
    0.9315   -0.0482    0.0258 O   0  0  0  0  0  0  0  0  0  0  0  0
    2.1437    0.0500   -0.0159 C   0  0  0  0  0  0  0  0  0  0  0  0
    2.8915    1.3119   -0.0380 C   0  0  0  0  0  0  0  0  0  0  0  0
    4.2476    1.3560   -0.0838 C   0  0  0  0  0  0  0  0  0  0  0  0
    4.9559    2.6953   -0.0606 C   0  0  1  0  0  0  0  0  0  0  0  0
    5.7323    2.8368   -1.1734 F   0  0  0  0  0  0  0  0  0  0  0  0
    4.0708    3.7187   -0.0429 F   0  0  0  0  0  0  0  0  0  0  0  0
    5.0366    0.1337   -0.1112 C   0  0  0  0  0  0  0  0  0  0  0  0
    6.4455    0.1014   -0.1753 C   0  0  0  0  0  0  0  0  0  0  0  0
    7.1344   -1.1042   -0.1760 C   0  0  0  0  0  0  0  0  0  0  0  0
    8.6400   -1.1404   -0.2453 C   0  0  1  0  0  0  0  0  0  0  0  0
    9.1768    0.0902   -0.2602 F   0  0  0  0  0  0  0  0  0  0  0  0
    9.1624   -1.7977    0.8082 F   0  0  0  0  0  0  0  0  0  0  0  0
    9.0668   -1.7819   -1.3495 F   0  0  0  0  0  0  0  0  0  0  0  0
    6.4253   -2.3202   -0.1218 C   0  0  0  0  0  0  0  0  0  0  0  0
    5.0420   -2.3191   -0.0714 C   0  0  0  0  0  0  0  0  0  0  0  0
    4.3324   -1.1003   -0.0678 C   0  0  0  0  0  0  0  0  0  0  0  0
    2.9590   -1.0860   -0.0234 N   0  0  0  0  0  0  0  0  0  0  0  0
    2.4540   -1.9682    0.0052 H   0  0  0  0  0  0  0  0  0  0  0  0
    2.2928    2.2215   -0.0059 H   0  0  0  0  0  0  0  0  0  0  0  0
    5.6134    2.7959    0.8218 H   0  0  0  0  0  0  0  0  0  0  0  0
    7.0081    1.0311   -0.2458 H   0  0  0  0  0  0  0  0  0  0  0  0
    6.9673   -3.2682   -0.1226 H   0  0  0  0  0  0  0  0  0  0  0  0
    4.4895   -3.2611   -0.0350 H   0  0  0  0  0  0  0  0  0  0  0  0
  1  2  2  0
  2  3  1  0
  2 18  1  0
  3  4  2  0
  3 20  1  0
  4  5  1  0
  4  8  1  0
  5  6  1  0
  5  7  1  0
  5 21  1  1
  8  9  1  0
  8 17  2  0
  9 10  2  0
  9 22  1  0
 10 11  1  0
 10 15  1  0
 11 12  1  6
 11 13  1  0
 11 14  1  0
 15 16  2  0
 15 23  1  0
 16 17  1  0
 16 24  1  0
 17 18  1  0
 18 19  1  0
M  END

