
     RDKit          3D

 43 45  0  0  0  0  0  0  0  0999 V2000
    9.0253   -1.6670   -1.2721 C   0  0  0  0  0  0  0  0  0  0  0  0
    8.7460   -2.0661   -0.0300 C   0  0  0  0  0  0  0  0  0  0  0  0
    7.4069   -1.9693    0.6592 C   0  0  0  0  0  0  0  0  0  0  0  0
    6.3493   -1.3601   -0.1282 N   0  0  0  0  0  0  0  0  0  0  0  0
    6.0135   -0.0230   -0.2122 C   0  0  0  0  0  0  0  0  0  0  0  0
    6.7208    1.0715    0.5107 C   0  0  0  0  0  0  0  0  0  0  0  0
    4.9843    0.1290   -1.0101 N   0  0  0  0  0  0  0  0  0  0  0  0
    4.6291   -1.1050   -1.4885 N   0  0  0  0  0  0  0  0  0  0  0  0
    5.4433   -1.9851   -0.9582 C   0  0  0  0  0  0  0  0  0  0  0  0
    5.4407   -3.7312   -1.2020 S   0  0  0  0  0  0  0  0  0  0  0  0
    3.6141   -4.0140   -1.5140 C   0  0  1  0  0  0  0  0  0  0  0  0
    3.0828   -3.3896   -0.7862 H   0  0  0  0  0  0  0  0  0  0  0  0
    3.2089   -3.6437   -2.9413 C   0  0  0  0  0  0  0  0  0  0  0  0
    3.3280   -5.4469   -1.1346 C   0  0  0  0  0  0  0  0  0  0  0  0
    2.5621   -5.7061   -0.1155 N   0  0  0  0  0  0  0  0  0  0  0  0
    2.3504   -7.0240    0.1429 C   0  0  0  0  0  0  0  0  0  0  0  0
    1.3478   -7.5719    1.4540 S   0  0  0  0  0  0  0  0  0  0  0  0
    1.6417   -9.2528    1.0431 C   0  0  0  0  0  0  0  0  0  0  0  0
    1.0061  -10.3332    1.8720 C   0  0  0  0  0  0  0  0  0  0  0  0
    2.4710   -9.3890   -0.0489 C   0  0  0  0  0  0  0  0  0  0  0  0
    2.9072  -10.7018   -0.6377 C   0  0  0  0  0  0  0  0  0  0  0  0
    2.8762   -8.1090   -0.5647 C   0  0  0  0  0  0  0  0  0  0  0  0
    3.7394   -7.8282   -1.7020 C   0  0  0  0  0  0  0  0  0  0  0  0
    4.2957   -8.6189   -2.4440 O   0  0  0  0  0  0  0  0  0  0  0  0
    3.8947   -6.4345   -1.8997 N   0  0  0  0  0  0  0  0  0  0  0  0
    4.4868   -6.1874   -2.6894 H   0  0  0  0  0  0  0  0  0  0  0  0
   10.0290   -1.7855   -1.6878 H   0  0  0  0  0  0  0  0  0  0  0  0
    8.2689   -1.2151   -1.9205 H   0  0  0  0  0  0  0  0  0  0  0  0
    9.5314   -2.5201    0.5864 H   0  0  0  0  0  0  0  0  0  0  0  0
    7.5111   -1.3978    1.5969 H   0  0  0  0  0  0  0  0  0  0  0  0
    7.0661   -2.9770    0.9543 H   0  0  0  0  0  0  0  0  0  0  0  0
    6.6186    0.9751    1.6050 H   0  0  0  0  0  0  0  0  0  0  0  0
    6.2716    2.0258    0.2068 H   0  0  0  0  0  0  0  0  0  0  0  0
    7.7964    1.0918    0.2725 H   0  0  0  0  0  0  0  0  0  0  0  0
    3.3898   -2.5721   -3.0988 H   0  0  0  0  0  0  0  0  0  0  0  0
    2.1352   -3.8490   -3.0860 H   0  0  0  0  0  0  0  0  0  0  0  0
    3.7768   -4.2114   -3.6953 H   0  0  0  0  0  0  0  0  0  0  0  0
    0.3473   -9.9127    2.6456 H   0  0  0  0  0  0  0  0  0  0  0  0
    1.7643  -10.9494    2.3841 H   0  0  0  0  0  0  0  0  0  0  0  0
    0.3957  -11.0097    1.2514 H   0  0  0  0  0  0  0  0  0  0  0  0
    2.4729  -11.5536   -0.0957 H   0  0  0  0  0  0  0  0  0  0  0  0
    4.0041  -10.7982   -0.6184 H   0  0  0  0  0  0  0  0  0  0  0  0
    2.6174  -10.7754   -1.6974 H   0  0  0  0  0  0  0  0  0  0  0  0
  1  2  2  0
  1 27  1  0
  1 28  1  0
  2  3  1  0
  2 29  1  0
  3  4  1  0
  3 30  1  0
  3 31  1  0
  4  5  1  0
  4  9  1  0
  5  6  1  0
  5  7  2  0
  6 32  1  0
  6 33  1  0
  6 34  1  0
  7  8  1  0
  8  9  2  0
  9 10  1  0
 10 11  1  0
 11 12  1  1
 11 13  1  0
 11 14  1  0
 13 35  1  0
 13 36  1  0
 13 37  1  0
 14 15  2  0
 14 25  1  0
 15 16  1  0
 16 17  2  0
 16 22  1  0
 17 18  1  0
 18 19  1  0
 18 20  2  0
 19 38  1  0
 19 39  1  0
 19 40  1  0
 20 21  1  0
 20 22  1  0
 21 41  1  0
 21 42  1  0
 21 43  1  0
 22 23  2  0
 23 24  1  0
 23 25  1  0
 25 26  1  0
M  CHG  2  17   1  24  -1
M  END

