
     RDKit          3D

 58 61  0  0  0  0  0  0  0  0999 V2000
    4.7155   -2.3435   -1.0550 C   0  0  0  0  0  0  0  0  0  0  0  0
    4.5296   -0.8907   -0.5928 C   0  0  1  0  0  0  0  0  0  0  0  0
    5.8323   -0.3477    0.0065 C   0  0  0  0  0  0  0  0  0  0  0  0
    4.0061    0.0248   -1.7344 C   0  0  1  0  0  0  0  0  0  0  0  0
    2.6613   -0.4302   -2.3261 C   0  0  0  0  0  0  0  0  0  0  0  0
    1.5990   -0.3070   -1.3946 O   0  0  0  0  0  0  0  0  0  0  0  0
    3.8519    1.4015   -1.2887 N   0  0  0  0  0  0  0  0  0  0  0  0
    4.5572    2.4720   -1.7564 C   0  0  0  0  0  0  0  0  0  0  0  0
    5.5851    2.2744   -2.5896 N   0  0  0  0  0  0  0  0  0  0  0  0
    6.2749    3.3401   -3.0352 C   0  0  0  0  0  0  0  0  0  0  0  0
    7.3184    3.1059   -3.9019 N   0  0  0  0  0  0  0  0  0  0  0  0
    7.7516    1.7667   -4.2683 C   0  0  0  0  0  0  0  0  0  0  0  0
    7.8868    1.6393   -5.7882 C   0  0  0  0  0  0  0  0  0  0  0  0
    8.8381    2.7028   -6.3939 C   0  0  2  0  0  0  0  0  0  0  0  0
   10.3168    2.3558   -6.1997 C   0  0  0  0  0  0  0  0  0  0  0  0
   10.8096    1.1553   -6.7464 C   0  0  0  0  0  0  0  0  0  0  0  0
   12.1499    0.7870   -6.6388 C   0  0  0  0  0  0  0  0  0  0  0  0
   13.0401    1.6329   -5.9703 C   0  0  0  0  0  0  0  0  0  0  0  0
   14.7251    1.1827   -5.8240 Cl  0  0  0  0  0  0  0  0  0  0  0  0
   12.5902    2.8353   -5.4264 C   0  0  0  0  0  0  0  0  0  0  0  0
   11.2410    3.1862   -5.5473 C   0  0  0  0  0  0  0  0  0  0  0  0
    8.3965    4.0932   -5.8906 C   0  0  0  0  0  0  0  0  0  0  0  0
    8.1833    4.1783   -4.3715 C   0  0  0  0  0  0  0  0  0  0  0  0
    6.0176    4.6243   -2.7152 N   0  0  0  0  0  0  0  0  0  0  0  0
    4.9966    4.8171   -1.8834 C   0  0  0  0  0  0  0  0  0  0  0  0
    4.2242    3.7885   -1.3550 C   0  0  0  0  0  0  0  0  0  0  0  0
    2.9455    4.3272   -0.2390 S   0  0  0  0  0  0  0  0  0  0  0  0
    3.1402    6.0583   -0.8800 C   0  0  0  0  0  0  0  0  0  0  0  0
    4.5870    6.1841   -1.3796 C   0  0  0  0  0  0  0  0  0  0  0  0
    5.1432   -2.9557   -0.2454 H   0  0  0  0  0  0  0  0  0  0  0  0
    5.4094   -2.3992   -1.9114 H   0  0  0  0  0  0  0  0  0  0  0  0
    3.7725   -2.8237   -1.3602 H   0  0  0  0  0  0  0  0  0  0  0  0
    3.7660   -0.8789    0.2102 H   0  0  0  0  0  0  0  0  0  0  0  0
    6.6352   -0.3274   -0.7489 H   0  0  0  0  0  0  0  0  0  0  0  0
    6.1702   -0.9803    0.8430 H   0  0  0  0  0  0  0  0  0  0  0  0
    5.7045    0.6763    0.3846 H   0  0  0  0  0  0  0  0  0  0  0  0
    4.7542    0.0295   -2.5421 H   0  0  0  0  0  0  0  0  0  0  0  0
    2.7352   -1.4562   -2.7298 H   0  0  0  0  0  0  0  0  0  0  0  0
    2.4074    0.2329   -3.1673 H   0  0  0  0  0  0  0  0  0  0  0  0
    1.6844   -1.0078   -0.7355 H   0  0  0  0  0  0  0  0  0  0  0  0
    2.9774    1.6024   -0.8122 H   0  0  0  0  0  0  0  0  0  0  0  0
    7.0202    1.0501   -3.8802 H   0  0  0  0  0  0  0  0  0  0  0  0
    8.7250    1.5444   -3.7852 H   0  0  0  0  0  0  0  0  0  0  0  0
    6.8875    1.7666   -6.2385 H   0  0  0  0  0  0  0  0  0  0  0  0
    8.2244    0.6221   -6.0421 H   0  0  0  0  0  0  0  0  0  0  0  0
    8.6774    2.6894   -7.4868 H   0  0  0  0  0  0  0  0  0  0  0  0
   10.1299    0.4892   -7.2852 H   0  0  0  0  0  0  0  0  0  0  0  0
   12.5100   -0.1468   -7.0740 H   0  0  0  0  0  0  0  0  0  0  0  0
   13.2908    3.4952   -4.9119 H   0  0  0  0  0  0  0  0  0  0  0  0
   10.9231    4.1372   -5.1194 H   0  0  0  0  0  0  0  0  0  0  0  0
    7.4369    4.3344   -6.3780 H   0  0  0  0  0  0  0  0  0  0  0  0
    9.1086    4.8719   -6.2086 H   0  0  0  0  0  0  0  0  0  0  0  0
    7.7179    5.1322   -4.0999 H   0  0  0  0  0  0  0  0  0  0  0  0
    9.1517    4.1233   -3.8370 H   0  0  0  0  0  0  0  0  0  0  0  0
    2.8945    6.7565   -0.0686 H   0  0  0  0  0  0  0  0  0  0  0  0
    2.4208    6.2025   -1.7015 H   0  0  0  0  0  0  0  0  0  0  0  0
    5.2641    6.4692   -0.5532 H   0  0  0  0  0  0  0  0  0  0  0  0
    4.6906    6.9491   -2.1641 H   0  0  0  0  0  0  0  0  0  0  0  0
  1  2  1  0
  1 30  1  0
  1 31  1  0
  1 32  1  0
  2  3  1  0
  2  4  1  0
  2 33  1  1
  3 34  1  0
  3 35  1  0
  3 36  1  0
  4  5  1  0
  4  7  1  0
  4 37  1  6
  5  6  1  0
  5 38  1  0
  5 39  1  0
  6 40  1  0
  7  8  1  0
  7 41  1  0
  8  9  2  0
  8 26  1  0
  9 10  1  0
 10 11  1  0
 10 24  2  0
 11 12  1  0
 11 23  1  0
 12 13  1  0
 12 42  1  0
 12 43  1  0
 13 14  1  0
 13 44  1  0
 13 45  1  0
 14 15  1  0
 14 22  1  0
 14 46  1  6
 15 16  2  0
 15 21  1  0
 16 17  1  0
 16 47  1  0
 17 18  2  0
 17 48  1  0
 18 19  1  0
 18 20  1  0
 20 21  2  0
 20 49  1  0
 21 50  1  0
 22 23  1  0
 22 51  1  0
 22 52  1  0
 23 53  1  0
 23 54  1  0
 24 25  1  0
 25 26  2  0
 25 29  1  0
 26 27  1  0
 27 28  1  0
 28 29  1  0
 28 55  1  0
 28 56  1  0
 29 57  1  0
 29 58  1  0
M  END

