
     RDKit          3D

 80 84  0  0  0  0  0  0  0  0999 V2000
    0.7966    0.4296    0.4561 C   0  0  0  0  0  0  0  0  0  0  0  0
    2.2852    0.2856    0.0421 C   0  0  1  0  0  0  0  0  0  0  0  0
    2.3211   -0.8849   -0.9739 C   0  0  0  0  0  0  0  0  0  0  0  0
    2.5557   -0.6932   -2.3435 C   0  0  0  0  0  0  0  0  0  0  0  0
    2.5019   -1.7636   -3.2454 C   0  0  0  0  0  0  0  0  0  0  0  0
    2.2091   -3.0518   -2.7976 C   0  0  0  0  0  0  0  0  0  0  0  0
    1.9660   -3.2599   -1.4355 C   0  0  0  0  0  0  0  0  0  0  0  0
    2.0193   -2.1907   -0.5404 C   0  0  0  0  0  0  0  0  0  0  0  0
    2.8079    1.5987   -0.5914 C   0  0  0  0  0  0  0  0  0  0  0  0
    1.9691    2.6593   -0.9459 C   0  0  0  0  0  0  0  0  0  0  0  0
    2.4706    3.8306   -1.5315 C   0  0  0  0  0  0  0  0  0  0  0  0
    3.8389    3.9635   -1.7754 C   0  0  0  0  0  0  0  0  0  0  0  0
    4.4122    5.0611   -2.3400 O   0  0  0  0  0  0  0  0  0  0  0  0
    3.6271    6.1904   -2.6929 C   0  0  0  0  0  0  0  0  0  0  0  0
    4.5960    7.2250   -3.2411 C   0  0  0  0  0  0  0  0  0  0  0  0
    5.3054    6.7405   -4.3555 O   0  0  0  0  0  0  0  0  0  0  0  0
    4.7197    2.9104   -1.4346 C   0  0  0  0  0  0  0  0  0  0  0  0
    6.2066    3.0457   -1.6979 C   0  0  0  0  0  0  0  0  0  0  0  0
    6.9375    4.0026   -0.7654 C   0  0  0  0  0  0  0  0  0  0  0  0
    7.5862    5.1434   -1.2595 C   0  0  0  0  0  0  0  0  0  0  0  0
    8.2788    6.0062   -0.4038 C   0  0  0  0  0  0  0  0  0  0  0  0
    8.3321    5.7409    0.9670 C   0  0  0  0  0  0  0  0  0  0  0  0
    7.6857    4.6087    1.4741 C   0  0  0  0  0  0  0  0  0  0  0  0
    6.9941    3.7505    0.6151 C   0  0  0  0  0  0  0  0  0  0  0  0
    4.1830    1.7620   -0.8539 C   0  0  0  0  0  0  0  0  0  0  0  0
    3.1512   -0.0194    1.2924 C   0  0  0  0  0  0  0  0  0  0  0  0
    2.8957    0.6133    2.5151 C   0  0  0  0  0  0  0  0  0  0  0  0
    3.6943    0.3906    3.6420 C   0  0  0  0  0  0  0  0  0  0  0  0
    4.7894   -0.4764    3.5658 C   0  0  0  0  0  0  0  0  0  0  0  0
    5.6094   -0.7682    4.6099 O   0  0  0  0  0  0  0  0  0  0  0  0
    5.4784   -0.0877    5.8487 C   0  0  0  0  0  0  0  0  0  0  0  0
    6.6765   -0.4823    6.6962 C   0  0  0  0  0  0  0  0  0  0  0  0
    7.8895   -0.0363    6.1508 O   0  0  0  0  0  0  0  0  0  0  0  0
    5.0902   -1.1208    2.3456 C   0  0  0  0  0  0  0  0  0  0  0  0
    6.2776   -2.0581    2.2619 C   0  0  0  0  0  0  0  0  0  0  0  0
    7.6363   -1.3933    2.4352 C   0  0  0  0  0  0  0  0  0  0  0  0
    8.5868   -1.9223    3.3228 C   0  0  0  0  0  0  0  0  0  0  0  0
    9.8445   -1.3267    3.4729 C   0  0  0  0  0  0  0  0  0  0  0  0
   10.1726   -0.1856    2.7354 C   0  0  0  0  0  0  0  0  0  0  0  0
    9.2357    0.3506    1.8461 C   0  0  0  0  0  0  0  0  0  0  0  0
    7.9818   -0.2489    1.6996 C   0  0  0  0  0  0  0  0  0  0  0  0
    4.2643   -0.8804    1.2439 C   0  0  0  0  0  0  0  0  0  0  0  0
    0.1554    0.5290   -0.4314 H   0  0  0  0  0  0  0  0  0  0  0  0
    0.6231    1.3048    1.0977 H   0  0  0  0  0  0  0  0  0  0  0  0
    0.4673   -0.4635    1.0050 H   0  0  0  0  0  0  0  0  0  0  0  0
    2.7820    0.3047   -2.7204 H   0  0  0  0  0  0  0  0  0  0  0  0
    2.6911   -1.5814   -4.3067 H   0  0  0  0  0  0  0  0  0  0  0  0
    2.1690   -3.8876   -3.5007 H   0  0  0  0  0  0  0  0  0  0  0  0
    1.7330   -4.2624   -1.0665 H   0  0  0  0  0  0  0  0  0  0  0  0
    1.8314   -2.3774    0.5195 H   0  0  0  0  0  0  0  0  0  0  0  0
    0.8935    2.5988   -0.7811 H   0  0  0  0  0  0  0  0  0  0  0  0
    1.7770    4.6300   -1.7931 H   0  0  0  0  0  0  0  0  0  0  0  0
    3.0894    6.5854   -1.8111 H   0  0  0  0  0  0  0  0  0  0  0  0
    2.8851    5.9100   -3.4633 H   0  0  0  0  0  0  0  0  0  0  0  0
    5.2759    7.5410   -2.4242 H   0  0  0  0  0  0  0  0  0  0  0  0
    4.0298    8.1135   -3.5649 H   0  0  0  0  0  0  0  0  0  0  0  0
    5.6601    5.8769   -4.1007 H   0  0  0  0  0  0  0  0  0  0  0  0
    6.3661    3.3761   -2.7363 H   0  0  0  0  0  0  0  0  0  0  0  0
    6.6633    2.0460   -1.6132 H   0  0  0  0  0  0  0  0  0  0  0  0
    7.5448    5.3652   -2.3298 H   0  0  0  0  0  0  0  0  0  0  0  0
    8.7780    6.8891   -0.8119 H   0  0  0  0  0  0  0  0  0  0  0  0
    8.8739    6.4126    1.6379 H   0  0  0  0  0  0  0  0  0  0  0  0
    7.7207    4.3905    2.5448 H   0  0  0  0  0  0  0  0  0  0  0  0
    6.4860    2.8733    1.0255 H   0  0  0  0  0  0  0  0  0  0  0  0
    4.8715    0.9539   -0.5990 H   0  0  0  0  0  0  0  0  0  0  0  0
    2.0606    1.3084    2.6129 H   0  0  0  0  0  0  0  0  0  0  0  0
    3.4484    0.8968    4.5757 H   0  0  0  0  0  0  0  0  0  0  0  0
    4.5309   -0.3663    6.3488 H   0  0  0  0  0  0  0  0  0  0  0  0
    5.4828    1.0050    5.6851 H   0  0  0  0  0  0  0  0  0  0  0  0
    6.6585   -1.5826    6.8423 H   0  0  0  0  0  0  0  0  0  0  0  0
    6.5702   -0.0200    7.6917 H   0  0  0  0  0  0  0  0  0  0  0  0
    7.9708   -0.4063    5.2581 H   0  0  0  0  0  0  0  0  0  0  0  0
    6.2499   -2.5670    1.2836 H   0  0  0  0  0  0  0  0  0  0  0  0
    6.1774   -2.8446    3.0272 H   0  0  0  0  0  0  0  0  0  0  0  0
    8.3373   -2.8142    3.9053 H   0  0  0  0  0  0  0  0  0  0  0  0
   10.5661   -1.7525    4.1750 H   0  0  0  0  0  0  0  0  0  0  0  0
   11.1512    0.2856    2.8556 H   0  0  0  0  0  0  0  0  0  0  0  0
    9.4774    1.2464    1.2682 H   0  0  0  0  0  0  0  0  0  0  0  0
    7.2542    0.1851    1.0089 H   0  0  0  0  0  0  0  0  0  0  0  0
    4.5004   -1.3977    0.3116 H   0  0  0  0  0  0  0  0  0  0  0  0
  2  1  1  1
  1 43  1  0
  1 44  1  0
  1 45  1  0
  2  3  1  0
  2  9  1  0
  2 26  1  0
  3  4  2  0
  3  8  1  0
  4  5  1  0
  4 46  1  0
  5  6  2  0
  5 47  1  0
  6  7  1  0
  6 48  1  0
  7  8  2  0
  7 49  1  0
  8 50  1  0
  9 10  2  0
  9 25  1  0
 10 11  1  0
 10 51  1  0
 11 12  2  0
 11 52  1  0
 12 13  1  0
 12 17  1  0
 13 14  1  0
 14 15  1  0
 14 53  1  0
 14 54  1  0
 15 16  1  0
 15 55  1  0
 15 56  1  0
 16 57  1  0
 17 18  1  0
 17 25  2  0
 18 19  1  0
 18 58  1  0
 18 59  1  0
 19 20  2  0
 19 24  1  0
 20 21  1  0
 20 60  1  0
 21 22  2  0
 21 61  1  0
 22 23  1  0
 22 62  1  0
 23 24  2  0
 23 63  1  0
 24 64  1  0
 25 65  1  0
 26 27  2  0
 26 42  1  0
 27 28  1  0
 27 66  1  0
 28 29  2  0
 28 67  1  0
 29 30  1  0
 29 34  1  0
 30 31  1  0
 31 32  1  0
 31 68  1  0
 31 69  1  0
 32 33  1  0
 32 70  1  0
 32 71  1  0
 33 72  1  0
 34 35  1  0
 34 42  2  0
 35 36  1  0
 35 73  1  0
 35 74  1  0
 36 37  2  0
 36 41  1  0
 37 38  1  0
 37 75  1  0
 38 39  2  0
 38 76  1  0
 39 40  1  0
 39 77  1  0
 40 41  2  0
 40 78  1  0
 41 79  1  0
 42 80  1  0
M  END

