
     RDKit          3D

 28 28  0  0  0  0  0  0  0  0999 V2000
    1.0043    0.4540    1.0736 C   0  0  0  0  0  0  0  0  0  0  0  0
    2.3489    0.1182    0.4816 C   0  0  0  0  0  0  0  0  0  0  0  0
    2.9937    1.0456   -0.3539 C   0  0  0  0  0  0  0  0  0  0  0  0
    4.2421    0.7824   -0.9181 C   0  0  0  0  0  0  0  0  0  0  0  0
    4.8792   -0.4282   -0.6552 C   0  0  0  0  0  0  0  0  0  0  0  0
    4.2686   -1.3880    0.1668 C   0  0  0  0  0  0  0  0  0  0  0  0
    5.0727   -2.6311    0.5004 C   0  0  0  0  0  0  0  0  0  0  0  0
    5.8846   -2.6014    1.4136 O   0  0  0  0  0  0  0  0  0  0  0  0
    4.9038   -3.7412   -0.2847 N   0  0  0  0  0  0  0  0  0  0  0  0
    3.9727   -3.8461   -1.3977 C   0  0  0  0  0  0  0  0  0  0  0  0
    5.7617   -4.8847    0.0073 C   0  0  0  0  0  0  0  0  0  0  0  0
    5.3565   -5.7069    1.2233 C   0  0  0  0  0  0  0  0  0  0  0  0
    3.6711   -6.7071    0.9832 Br  0  0  0  0  0  0  0  0  0  0  0  0
    3.0147   -1.1003    0.7280 C   0  0  0  0  0  0  0  0  0  0  0  0
    2.0922   -2.5648    1.9880 I   0  0  0  0  0  0  0  0  0  0  0  0
    0.6731    1.4504    0.7480 H   0  0  0  0  0  0  0  0  0  0  0  0
    1.0374    0.4448    2.1752 H   0  0  0  0  0  0  0  0  0  0  0  0
    0.2374   -0.2792    0.7750 H   0  0  0  0  0  0  0  0  0  0  0  0
    2.4972    1.9979   -0.5582 H   0  0  0  0  0  0  0  0  0  0  0  0
    4.7206    1.5263   -1.5596 H   0  0  0  0  0  0  0  0  0  0  0  0
    5.8635   -0.6398   -1.0803 H   0  0  0  0  0  0  0  0  0  0  0  0
    3.3949   -2.9199   -1.4943 H   0  0  0  0  0  0  0  0  0  0  0  0
    3.2711   -4.6800   -1.2423 H   0  0  0  0  0  0  0  0  0  0  0  0
    4.5133   -4.0153   -2.3462 H   0  0  0  0  0  0  0  0  0  0  0  0
    6.7763   -4.5071    0.2200 H   0  0  0  0  0  0  0  0  0  0  0  0
    5.8123   -5.5207   -0.8891 H   0  0  0  0  0  0  0  0  0  0  0  0
    5.2129   -5.0655    2.0999 H   0  0  0  0  0  0  0  0  0  0  0  0
    6.1174   -6.4666    1.4439 H   0  0  0  0  0  0  0  0  0  0  0  0
  1  2  1  0
  1 16  1  0
  1 17  1  0
  1 18  1  0
  2  3  2  0
  2 14  1  0
  3  4  1  0
  3 19  1  0
  4  5  2  0
  4 20  1  0
  5  6  1  0
  5 21  1  0
  6  7  1  0
  6 14  2  0
  7  8  2  0
  7  9  1  0
  9 10  1  0
  9 11  1  0
 10 22  1  0
 10 23  1  0
 10 24  1  0
 11 12  1  0
 11 25  1  0
 11 26  1  0
 12 13  1  0
 12 27  1  0
 12 28  1  0
 14 15  1  0
M  END

