
     RDKit          3D

 51 54  0  0  0  0  0  0  0  0999 V2000
    5.0951    0.7413    3.7399 C   0  0  0  0  0  0  0  0  0  0  0  0
    4.5200    0.4934    2.3445 C   0  0  2  0  0  0  0  0  0  0  0  0
    3.0036    0.7445    2.3518 C   0  0  0  0  0  0  0  0  0  0  0  0
    4.9404   -0.9023    1.8543 C   0  0  0  0  0  0  0  0  0  0  0  0
    4.7148   -1.1967    0.3581 C   0  0  2  0  0  0  0  0  0  0  0  0
    3.3029   -1.7513    0.0555 C   0  0  0  0  0  0  0  0  0  0  0  0
    3.1208   -3.0693    0.6493 N   0  0  0  0  0  0  0  0  0  0  0  0
    1.8729   -3.4341    1.3174 C   0  0  0  0  0  0  0  0  0  0  0  0
    0.7231   -3.7113    0.3650 C   0  0  0  0  0  0  0  0  0  0  0  0
    0.7295   -4.8700   -0.4288 C   0  0  0  0  0  0  0  0  0  0  0  0
   -0.3139   -5.1273   -1.3191 C   0  0  0  0  0  0  0  0  0  0  0  0
   -1.3816   -4.2290   -1.4260 C   0  0  0  0  0  0  0  0  0  0  0  0
   -2.5244   -4.4826   -2.3774 C   0  0  1  0  0  0  0  0  0  0  0  0
   -2.3685   -5.6215   -3.0714 F   0  0  0  0  0  0  0  0  0  0  0  0
   -3.6999   -4.5673   -1.7251 F   0  0  0  0  0  0  0  0  0  0  0  0
   -2.6523   -3.4822   -3.2710 F   0  0  0  0  0  0  0  0  0  0  0  0
   -1.4016   -3.0733   -0.6365 C   0  0  0  0  0  0  0  0  0  0  0  0
   -0.3546   -2.8206    0.2507 C   0  0  0  0  0  0  0  0  0  0  0  0
    4.0562   -4.0298    0.3746 C   0  0  0  0  0  0  0  0  0  0  0  0
    3.9384   -5.2088    0.6669 O   0  0  0  0  0  0  0  0  0  0  0  0
    5.2641   -3.4871   -0.3822 C   0  0  0  0  0  0  0  0  0  0  0  0
    5.6906   -2.1942   -0.0066 O   0  0  0  0  0  0  0  0  0  0  0  0
    4.9927    0.0590   -0.4582 C   0  0  0  0  0  0  0  0  0  0  0  0
    5.1257   -0.0144   -1.8551 C   0  0  0  0  0  0  0  0  0  0  0  0
    5.4123    1.1097   -2.6258 C   0  0  0  0  0  0  0  0  0  0  0  0
    5.5849    2.3478   -1.9925 C   0  0  0  0  0  0  0  0  0  0  0  0
    5.4700    2.4470   -0.6101 C   0  0  0  0  0  0  0  0  0  0  0  0
    5.1787    1.3096    0.1639 C   0  0  0  0  0  0  0  0  0  0  0  0
    5.1276    1.5010    1.5075 O   0  0  0  0  0  0  0  0  0  0  0  0
    4.6540    0.0458    4.4702 H   0  0  0  0  0  0  0  0  0  0  0  0
    4.8786    1.7711    4.0611 H   0  0  0  0  0  0  0  0  0  0  0  0
    6.1863    0.6029    3.7374 H   0  0  0  0  0  0  0  0  0  0  0  0
    2.4748   -0.0328    2.9257 H   0  0  0  0  0  0  0  0  0  0  0  0
    2.5890    0.7748    1.3340 H   0  0  0  0  0  0  0  0  0  0  0  0
    2.7926    1.7188    2.8173 H   0  0  0  0  0  0  0  0  0  0  0  0
    4.4584   -1.6792    2.4679 H   0  0  0  0  0  0  0  0  0  0  0  0
    6.0247   -1.0007    2.0125 H   0  0  0  0  0  0  0  0  0  0  0  0
    3.1540   -1.7827   -1.0383 H   0  0  0  0  0  0  0  0  0  0  0  0
    2.5379   -1.0761    0.4532 H   0  0  0  0  0  0  0  0  0  0  0  0
    1.5980   -2.6236    2.0110 H   0  0  0  0  0  0  0  0  0  0  0  0
    2.0916   -4.3351    1.9076 H   0  0  0  0  0  0  0  0  0  0  0  0
    1.5612   -5.5728   -0.3381 H   0  0  0  0  0  0  0  0  0  0  0  0
   -0.3035   -6.0313   -1.9298 H   0  0  0  0  0  0  0  0  0  0  0  0
   -2.2352   -2.3716   -0.7144 H   0  0  0  0  0  0  0  0  0  0  0  0
   -0.3807   -1.9183    0.8684 H   0  0  0  0  0  0  0  0  0  0  0  0
    5.0203   -3.5346   -1.4654 H   0  0  0  0  0  0  0  0  0  0  0  0
    6.1010   -4.1768   -0.2073 H   0  0  0  0  0  0  0  0  0  0  0  0
    5.0233   -0.9868   -2.3427 H   0  0  0  0  0  0  0  0  0  0  0  0
    5.5107    1.0227   -3.7101 H   0  0  0  0  0  0  0  0  0  0  0  0
    5.8134    3.2402   -2.5808 H   0  0  0  0  0  0  0  0  0  0  0  0
    5.6076    3.3973   -0.0903 H   0  0  0  0  0  0  0  0  0  0  0  0
  2  1  1  1
  1 30  1  0
  1 31  1  0
  1 32  1  0
  2  3  1  0
  2  4  1  0
  2 29  1  0
  3 33  1  0
  3 34  1  0
  3 35  1  0
  4  5  1  0
  4 36  1  0
  4 37  1  0
  5  6  1  0
  5 22  1  6
  5 23  1  0
  6  7  1  0
  6 38  1  0
  6 39  1  0
  7  8  1  0
  7 19  1  0
  8  9  1  0
  8 40  1  0
  8 41  1  0
  9 10  2  0
  9 18  1  0
 10 11  1  0
 10 42  1  0
 11 12  2  0
 11 43  1  0
 12 13  1  0
 12 17  1  0
 13 14  1  6
 13 15  1  0
 13 16  1  0
 17 18  2  0
 17 44  1  0
 18 45  1  0
 19 20  2  0
 19 21  1  0
 21 22  1  0
 21 46  1  0
 21 47  1  0
 23 24  1  0
 23 28  2  0
 24 25  2  0
 24 48  1  0
 25 26  1  0
 25 49  1  0
 26 27  2  0
 26 50  1  0
 27 28  1  0
 27 51  1  0
 28 29  1  0
M  END

