
     RDKit          3D

 43 45  0  0  0  0  0  0  0  0999 V2000
    1.0042    0.0477    0.1760 C   0  0  0  0  0  0  0  0  0  0  0  0
    2.4944    0.1234    0.0359 C   0  0  0  0  0  0  0  0  0  0  0  0
    3.2876    1.2419    0.1476 C   0  0  0  0  0  0  0  0  0  0  0  0
    2.6750    2.6116    0.4433 C   0  0  1  0  0  0  0  0  0  0  0  0
    3.5917    3.5747    0.4984 F   0  0  0  0  0  0  0  0  0  0  0  0
    1.7799    2.9557   -0.5039 F   0  0  0  0  0  0  0  0  0  0  0  0
    2.0197    2.6049    1.6210 F   0  0  0  0  0  0  0  0  0  0  0  0
    4.6421    1.2560    0.0177 N   0  0  0  0  0  0  0  0  0  0  0  0
    5.2607    0.1361   -0.2423 C   0  0  0  0  0  0  0  0  0  0  0  0
    6.7354    0.1221   -0.3886 C   0  0  0  0  0  0  0  0  0  0  0  0
    7.4246    1.3502   -0.3808 C   0  0  0  0  0  0  0  0  0  0  0  0
    8.8082    1.3890   -0.5189 C   0  0  0  0  0  0  0  0  0  0  0  0
    9.5535    0.2074   -0.6663 C   0  0  0  0  0  0  0  0  0  0  0  0
   11.0580    0.2548   -0.8794 C   0  0  0  0  0  0  0  0  0  0  0  0
   11.7157    1.3080   -0.1236 N   0  0  0  0  0  0  0  0  0  0  0  0
   11.7884    1.0890    1.3195 C   0  0  0  0  0  0  0  0  0  0  0  0
   12.8651    0.0897    1.7653 C   0  0  0  0  0  0  0  0  0  0  0  0
   14.5498    0.6101    1.2557 S   0  0  0  0  0  0  0  0  0  0  0  0
   14.1819    0.9210   -0.5144 C   0  0  0  0  0  0  0  0  0  0  0  0
   12.9543    1.8257   -0.6931 C   0  0  0  0  0  0  0  0  0  0  0  0
    8.8688   -1.0154   -0.6591 C   0  0  0  0  0  0  0  0  0  0  0  0
    7.4805   -1.0615   -0.5253 C   0  0  0  0  0  0  0  0  0  0  0  0
    4.5610   -1.0271   -0.3860 N   0  0  0  0  0  0  0  0  0  0  0  0
    5.0339   -1.8973   -0.6131 H   0  0  0  0  0  0  0  0  0  0  0  0
    3.1656   -1.1454   -0.2622 C   0  0  0  0  0  0  0  0  0  0  0  0
    2.6227   -2.2268   -0.4055 O   0  0  0  0  0  0  0  0  0  0  0  0
    0.5399    1.0101    0.4122 H   0  0  0  0  0  0  0  0  0  0  0  0
    0.7429   -0.6806    0.9612 H   0  0  0  0  0  0  0  0  0  0  0  0
    0.5631   -0.3454   -0.7548 H   0  0  0  0  0  0  0  0  0  0  0  0
    6.8436    2.2661   -0.2652 H   0  0  0  0  0  0  0  0  0  0  0  0
    9.3388    2.3433   -0.5051 H   0  0  0  0  0  0  0  0  0  0  0  0
   11.2405    0.4569   -1.9503 H   0  0  0  0  0  0  0  0  0  0  0  0
   11.4699   -0.7617   -0.6982 H   0  0  0  0  0  0  0  0  0  0  0  0
   10.8008    0.7456    1.6709 H   0  0  0  0  0  0  0  0  0  0  0  0
   11.9858    2.0593    1.8072 H   0  0  0  0  0  0  0  0  0  0  0  0
   12.6610   -0.9227    1.3777 H   0  0  0  0  0  0  0  0  0  0  0  0
   12.8931    0.0194    2.8637 H   0  0  0  0  0  0  0  0  0  0  0  0
   14.0518   -0.0400   -1.0409 H   0  0  0  0  0  0  0  0  0  0  0  0
   15.0815    1.4039   -0.9268 H   0  0  0  0  0  0  0  0  0  0  0  0
   12.7913    2.0142   -1.7686 H   0  0  0  0  0  0  0  0  0  0  0  0
   13.1693    2.8001   -0.2207 H   0  0  0  0  0  0  0  0  0  0  0  0
    9.4287   -1.9501   -0.7547 H   0  0  0  0  0  0  0  0  0  0  0  0
    6.9994   -2.0429   -0.5097 H   0  0  0  0  0  0  0  0  0  0  0  0
  1  2  1  0
  1 27  1  0
  1 28  1  0
  1 29  1  0
  2  3  2  0
  2 25  1  0
  3  4  1  0
  3  8  1  0
  4  5  1  1
  4  6  1  0
  4  7  1  0
  8  9  2  0
  9 10  1  0
  9 23  1  0
 10 11  2  0
 10 22  1  0
 11 12  1  0
 11 30  1  0
 12 13  2  0
 12 31  1  0
 13 14  1  0
 13 21  1  0
 14 15  1  0
 14 32  1  0
 14 33  1  0
 15 16  1  0
 15 20  1  0
 16 17  1  0
 16 34  1  0
 16 35  1  0
 17 18  1  0
 17 36  1  0
 17 37  1  0
 18 19  1  0
 19 20  1  0
 19 38  1  0
 19 39  1  0
 20 40  1  0
 20 41  1  0
 21 22  2  0
 21 42  1  0
 22 43  1  0
 23 24  1  0
 23 25  1  0
 25 26  2  0
M  END

