
     RDKit          3D

 38 40  0  0  0  0  0  0  0  0999 V2000
    6.4481    0.4605    1.9565 C   0  0  0  0  0  0  0  0  0  0  0  0
    5.3042    0.3848    0.9446 C   0  0  0  0  0  0  0  0  0  0  0  0
    5.7857    0.2807   -0.5053 C   0  0  0  0  0  0  0  0  0  0  0  0
    4.6277    0.2082   -1.5196 C   0  0  0  0  0  0  0  0  0  0  0  0
    5.0922    0.1384   -2.9436 C   0  0  0  0  0  0  0  0  0  0  0  0
    5.3352    1.1654   -3.6971 N   0  0  0  0  0  0  0  0  0  0  0  0
    5.8029    0.7877   -4.9320 C   0  0  0  0  0  0  0  0  0  0  0  0
    6.1543    1.7033   -5.9914 C   0  0  0  0  0  0  0  0  0  0  0  0
    5.9926    3.0458   -5.6833 N   0  0  0  0  0  0  0  0  0  0  0  0
    6.1966    4.2505   -6.3643 C   0  0  0  0  0  0  0  0  0  0  0  0
    6.7160    4.2365   -7.7833 C   0  0  0  0  0  0  0  0  0  0  0  0
    5.9454    5.2835   -5.7765 O   0  0  0  0  0  0  0  0  0  0  0  0
    6.5914    1.2699   -7.1461 N   0  0  0  0  0  0  0  0  0  0  0  0
    6.7243   -0.0731   -7.3768 C   0  0  0  0  0  0  0  0  0  0  0  0
    7.2011   -0.4974   -8.6443 C   0  0  0  0  0  0  0  0  0  0  0  0
    7.3546   -1.8408   -8.9345 C   0  0  0  0  0  0  0  0  0  0  0  0
    7.0389   -2.8254   -7.9709 C   0  0  0  0  0  0  0  0  0  0  0  0
    6.5718   -2.4487   -6.7247 C   0  0  0  0  0  0  0  0  0  0  0  0
    6.4060   -1.0801   -6.4039 C   0  0  0  0  0  0  0  0  0  0  0  0
    5.9339   -0.5812   -5.1539 C   0  0  0  0  0  0  0  0  0  0  0  0
    5.4309   -1.4261   -3.7159 S   0  0  0  0  0  0  0  0  0  0  0  0
    6.0686    0.5358    2.9876 H   0  0  0  0  0  0  0  0  0  0  0  0
    7.0885    1.3390    1.7722 H   0  0  0  0  0  0  0  0  0  0  0  0
    7.0914   -0.4337    1.9028 H   0  0  0  0  0  0  0  0  0  0  0  0
    4.6580    1.2751    1.0483 H   0  0  0  0  0  0  0  0  0  0  0  0
    4.6601   -0.4827    1.1774 H   0  0  0  0  0  0  0  0  0  0  0  0
    6.4278   -0.6106   -0.6214 H   0  0  0  0  0  0  0  0  0  0  0  0
    6.4186    1.1501   -0.7538 H   0  0  0  0  0  0  0  0  0  0  0  0
    3.9993    1.1086   -1.4284 H   0  0  0  0  0  0  0  0  0  0  0  0
    3.9887   -0.6613   -1.2928 H   0  0  0  0  0  0  0  0  0  0  0  0
    5.6417    3.2011   -4.7389 H   0  0  0  0  0  0  0  0  0  0  0  0
    6.8726    3.2282   -8.1766 H   0  0  0  0  0  0  0  0  0  0  0  0
    7.6581    4.8066   -7.8004 H   0  0  0  0  0  0  0  0  0  0  0  0
    5.9981    4.7907   -8.4076 H   0  0  0  0  0  0  0  0  0  0  0  0
    7.4408    0.2741   -9.3784 H   0  0  0  0  0  0  0  0  0  0  0  0
    7.7234   -2.1453   -9.9172 H   0  0  0  0  0  0  0  0  0  0  0  0
    7.1641   -3.8837   -8.2111 H   0  0  0  0  0  0  0  0  0  0  0  0
    6.3265   -3.2057   -5.9749 H   0  0  0  0  0  0  0  0  0  0  0  0
  1  2  1  0
  1 22  1  0
  1 23  1  0
  1 24  1  0
  2  3  1  0
  2 25  1  0
  2 26  1  0
  3  4  1  0
  3 27  1  0
  3 28  1  0
  4  5  1  0
  4 29  1  0
  4 30  1  0
  5  6  2  0
  5 21  1  0
  6  7  1  0
  7  8  2  0
  7 20  1  0
  8  9  1  0
  8 13  1  0
  9 10  1  0
  9 31  1  0
 10 11  1  0
 10 12  2  0
 11 32  1  0
 11 33  1  0
 11 34  1  0
 13 14  2  0
 14 15  1  0
 14 19  1  0
 15 16  2  0
 15 35  1  0
 16 17  1  0
 16 36  1  0
 17 18  2  0
 17 37  1  0
 18 19  1  0
 18 38  1  0
 19 20  2  0
 20 21  1  0
M  END

