
     RDKit          3D

 40 41  0  0  0  0  0  0  0  0999 V2000
    1.8010   -1.4784    1.6093 C   0  0  0  0  0  0  0  0  0  0  0  0
    3.0347   -0.7124    1.1270 C   0  0  0  0  0  0  0  0  0  0  0  0
    2.7344    0.4369    0.1397 C   0  0  1  0  0  0  0  0  0  0  0  0
    1.9509    1.4604    0.8061 N   0  0  0  0  0  0  0  0  0  0  0  0
    1.1005    2.3415    0.1497 C   0  0  0  0  0  0  0  0  0  0  0  0
    1.1454    2.5540   -1.2388 C   0  0  0  0  0  0  0  0  0  0  0  0
    0.2742    3.4613   -1.8543 C   0  0  0  0  0  0  0  0  0  0  0  0
   -0.6668    4.1917   -1.1201 C   0  0  0  0  0  0  0  0  0  0  0  0
   -1.5423    5.0894   -1.6420 O   0  0  0  0  0  0  0  0  0  0  0  0
   -1.5252    5.3286   -3.0278 C   0  0  0  0  0  0  0  0  0  0  0  0
   -0.7055    3.9778    0.2749 C   0  0  0  0  0  0  0  0  0  0  0  0
   -1.8621    4.8612    1.2417 Cl  0  0  0  0  0  0  0  0  0  0  0  0
    0.1524    3.0771    0.8942 C   0  0  0  0  0  0  0  0  0  0  0  0
    4.0306    0.9725   -0.4715 C   0  0  0  0  0  0  0  0  0  0  0  0
    4.5845    0.3588   -1.6028 C   0  0  0  0  0  0  0  0  0  0  0  0
    5.7986    0.7971   -2.1388 C   0  0  0  0  0  0  0  0  0  0  0  0
    6.4998    1.8676   -1.5643 C   0  0  0  0  0  0  0  0  0  0  0  0
    7.8009    2.3627   -2.1484 C   0  0  0  0  0  0  0  0  0  0  0  0
    5.9381    2.4817   -0.4327 C   0  0  0  0  0  0  0  0  0  0  0  0
    4.7260    2.0448    0.1037 C   0  0  0  0  0  0  0  0  0  0  0  0
    2.0874   -2.2917    2.2946 H   0  0  0  0  0  0  0  0  0  0  0  0
    1.2568   -1.9293    0.7632 H   0  0  0  0  0  0  0  0  0  0  0  0
    1.0878   -0.8334    2.1474 H   0  0  0  0  0  0  0  0  0  0  0  0
    3.7280   -1.4072    0.6277 H   0  0  0  0  0  0  0  0  0  0  0  0
    3.5945   -0.2964    1.9844 H   0  0  0  0  0  0  0  0  0  0  0  0
    2.1370    0.0037   -0.6887 H   0  0  0  0  0  0  0  0  0  0  0  0
    1.7266    1.2884    1.7769 H   0  0  0  0  0  0  0  0  0  0  0  0
    1.8755    2.0288   -1.8542 H   0  0  0  0  0  0  0  0  0  0  0  0
    0.3461    3.5968   -2.9339 H   0  0  0  0  0  0  0  0  0  0  0  0
   -2.3026    6.0791   -3.2258 H   0  0  0  0  0  0  0  0  0  0  0  0
   -1.7545    4.4159   -3.6088 H   0  0  0  0  0  0  0  0  0  0  0  0
   -0.5508    5.7263   -3.3677 H   0  0  0  0  0  0  0  0  0  0  0  0
    0.0788    2.9466    1.9762 H   0  0  0  0  0  0  0  0  0  0  0  0
    4.0584   -0.4759   -2.0778 H   0  0  0  0  0  0  0  0  0  0  0  0
    6.2063    0.3002   -3.0240 H   0  0  0  0  0  0  0  0  0  0  0  0
    8.1854    1.6785   -2.9194 H   0  0  0  0  0  0  0  0  0  0  0  0
    8.5764    2.4690   -1.3724 H   0  0  0  0  0  0  0  0  0  0  0  0
    7.6777    3.3548   -2.6162 H   0  0  0  0  0  0  0  0  0  0  0  0
    6.4589    3.3225    0.0359 H   0  0  0  0  0  0  0  0  0  0  0  0
    4.2985    2.5467    0.9749 H   0  0  0  0  0  0  0  0  0  0  0  0
  1  2  1  0
  1 21  1  0
  1 22  1  0
  1 23  1  0
  2  3  1  0
  2 24  1  0
  2 25  1  0
  3  4  1  0
  3 14  1  0
  3 26  1  6
  4  5  1  0
  4 27  1  0
  5  6  2  0
  5 13  1  0
  6  7  1  0
  6 28  1  0
  7  8  2  0
  7 29  1  0
  8  9  1  0
  8 11  1  0
  9 10  1  0
 10 30  1  0
 10 31  1  0
 10 32  1  0
 11 12  1  0
 11 13  2  0
 13 33  1  0
 14 15  2  0
 14 20  1  0
 15 16  1  0
 15 34  1  0
 16 17  2  0
 16 35  1  0
 17 18  1  0
 17 19  1  0
 18 36  1  0
 18 37  1  0
 18 38  1  0
 19 20  2  0
 19 39  1  0
 20 40  1  0
M  END

