
     RDKit          3D

 37 38  0  0  0  0  0  0  0  0999 V2000
    1.1221    0.2061    0.5698 C   0  0  0  0  0  0  0  0  0  0  0  0
    2.5794    0.0078    0.2296 C   0  0  0  0  0  0  0  0  0  0  0  0
    3.3222   -1.0592    0.7528 C   0  0  0  0  0  0  0  0  0  0  0  0
    4.6736   -1.2504    0.4525 C   0  0  0  0  0  0  0  0  0  0  0  0
    5.3303   -0.3490   -0.4027 C   0  0  0  0  0  0  0  0  0  0  0  0
    6.6873   -0.4524   -0.7567 N   0  0  0  0  0  0  0  0  0  0  0  0
    7.6086   -1.4204   -0.4070 C   0  0  0  0  0  0  0  0  0  0  0  0
    7.3262   -2.4020    0.2651 O   0  0  0  0  0  0  0  0  0  0  0  0
    8.9969   -1.1980   -0.9256 C   0  0  0  0  0  0  0  0  0  0  0  0
    9.5033    0.0320   -1.3778 C   0  0  0  0  0  0  0  0  0  0  0  0
   10.8126    0.1635   -1.8297 C   0  0  0  0  0  0  0  0  0  0  0  0
   11.6932   -0.9492   -1.8520 C   0  0  0  0  0  0  0  0  0  0  0  0
   12.9887   -0.8330   -2.3085 N   0  0  0  0  0  0  0  0  0  0  0  0
   13.8742   -1.9804   -2.2827 C   0  0  0  0  0  0  0  0  0  0  0  0
   13.4855    0.4477   -2.7694 C   0  0  0  0  0  0  0  0  0  0  0  0
   11.1828   -2.1864   -1.3756 C   0  0  0  0  0  0  0  0  0  0  0  0
    9.8756   -2.2946   -0.9221 C   0  0  0  0  0  0  0  0  0  0  0  0
    4.5957    0.7276   -0.9366 C   0  0  0  0  0  0  0  0  0  0  0  0
    3.2497    0.8982   -0.6258 C   0  0  0  0  0  0  0  0  0  0  0  0
    0.7313   -0.6295    1.1694 H   0  0  0  0  0  0  0  0  0  0  0  0
    0.5012    0.2870   -0.3382 H   0  0  0  0  0  0  0  0  0  0  0  0
    0.9644    1.1326    1.1488 H   0  0  0  0  0  0  0  0  0  0  0  0
    2.8318   -1.7744    1.4200 H   0  0  0  0  0  0  0  0  0  0  0  0
    5.2273   -2.0905    0.8640 H   0  0  0  0  0  0  0  0  0  0  0  0
    7.0080    0.2507   -1.4098 H   0  0  0  0  0  0  0  0  0  0  0  0
    8.8858    0.9347   -1.3533 H   0  0  0  0  0  0  0  0  0  0  0  0
   11.1538    1.1451   -2.1554 H   0  0  0  0  0  0  0  0  0  0  0  0
   14.0337   -2.3649   -1.2581 H   0  0  0  0  0  0  0  0  0  0  0  0
   14.8527   -1.6945   -2.6887 H   0  0  0  0  0  0  0  0  0  0  0  0
   13.4886   -2.8161   -2.8947 H   0  0  0  0  0  0  0  0  0  0  0  0
   12.8936    0.8412   -3.6159 H   0  0  0  0  0  0  0  0  0  0  0  0
   14.5216    0.3350   -3.1128 H   0  0  0  0  0  0  0  0  0  0  0  0
   13.4762    1.2148   -1.9723 H   0  0  0  0  0  0  0  0  0  0  0  0
   11.8158   -3.0726   -1.3571 H   0  0  0  0  0  0  0  0  0  0  0  0
    9.5000   -3.2490   -0.5478 H   0  0  0  0  0  0  0  0  0  0  0  0
    5.0902    1.4396   -1.6054 H   0  0  0  0  0  0  0  0  0  0  0  0
    2.7080    1.7445   -1.0591 H   0  0  0  0  0  0  0  0  0  0  0  0
  1  2  1  0
  1 20  1  0
  1 21  1  0
  1 22  1  0
  2  3  2  0
  2 19  1  0
  3  4  1  0
  3 23  1  0
  4  5  2  0
  4 24  1  0
  5  6  1  0
  5 18  1  0
  6  7  1  0
  6 25  1  0
  7  8  2  0
  7  9  1  0
  9 10  2  0
  9 17  1  0
 10 11  1  0
 10 26  1  0
 11 12  2  0
 11 27  1  0
 12 13  1  0
 12 16  1  0
 13 14  1  0
 13 15  1  0
 14 28  1  0
 14 29  1  0
 14 30  1  0
 15 31  1  0
 15 32  1  0
 15 33  1  0
 16 17  2  0
 16 34  1  0
 17 35  1  0
 18 19  2  0
 18 36  1  0
 19 37  1  0
M  END

