
     RDKit          3D

 43 43  0  0  0  0  0  0  0  0999 V2000
    5.4281    2.5572   -2.1726 C   0  0  0  0  0  0  0  0  0  0  0  0
    5.2057    1.3866   -1.2200 C   0  0  0  0  0  0  0  0  0  0  0  0
    5.3963    0.0279   -1.8762 C   0  0  0  0  0  0  0  0  0  0  0  0
    5.8779   -0.0873   -2.9788 O   0  0  0  0  0  0  0  0  0  0  0  0
    4.9009   -1.2277   -1.1068 C   0  0  2  0  0  0  0  0  0  0  0  0
    3.7976   -1.1580   -1.1297 H   0  0  0  0  0  0  0  0  0  0  0  0
    5.3188   -1.2344    0.3886 C   0  0  0  0  0  0  0  0  0  0  0  0
    4.8070   -2.4330    1.1563 C   0  0  0  0  0  0  0  0  0  0  0  0
    5.5954   -3.5876    1.2797 C   0  0  0  0  0  0  0  0  0  0  0  0
    5.1085   -4.6891    1.9720 C   0  0  0  0  0  0  0  0  0  0  0  0
    5.8522   -5.7914    2.0973 F   0  0  0  0  0  0  0  0  0  0  0  0
    3.8365   -4.6779    2.5542 C   0  0  0  0  0  0  0  0  0  0  0  0
    3.4021   -5.7492    3.2123 F   0  0  0  0  0  0  0  0  0  0  0  0
    3.0497   -3.5293    2.4337 C   0  0  0  0  0  0  0  0  0  0  0  0
    1.4719   -3.5091    3.1665 Cl  0  0  0  0  0  0  0  0  0  0  0  0
    3.5332   -2.4149    1.7408 C   0  0  0  0  0  0  0  0  0  0  0  0
    5.2387   -2.4418   -1.8199 N   0  0  0  0  0  0  0  0  0  0  0  0
    6.5436   -2.8268   -2.0137 C   0  0  0  0  0  0  0  0  0  0  0  0
    7.4806   -2.4327   -1.3442 O   0  0  0  0  0  0  0  0  0  0  0  0
    6.6032   -3.7308   -3.0065 O   0  0  0  0  0  0  0  0  0  0  0  0
    7.8700   -4.3237   -3.4505 C   0  0  1  0  0  0  0  0  0  0  0  0
    8.5056   -5.1255   -2.3103 C   0  0  0  0  0  0  0  0  0  0  0  0
    7.4287   -5.2510   -4.5845 C   0  0  0  0  0  0  0  0  0  0  0  0
    8.8001   -3.2254   -3.9751 C   0  0  0  0  0  0  0  0  0  0  0  0
    5.3184    3.5168   -1.6452 H   0  0  0  0  0  0  0  0  0  0  0  0
    4.7066    2.5358   -3.0037 H   0  0  0  0  0  0  0  0  0  0  0  0
    6.4336    2.5136   -2.6152 H   0  0  0  0  0  0  0  0  0  0  0  0
    4.2022    1.4225   -0.7579 H   0  0  0  0  0  0  0  0  0  0  0  0
    5.9128    1.4368   -0.3714 H   0  0  0  0  0  0  0  0  0  0  0  0
    4.9245   -0.3195    0.8544 H   0  0  0  0  0  0  0  0  0  0  0  0
    6.4144   -1.1981    0.4416 H   0  0  0  0  0  0  0  0  0  0  0  0
    6.5924   -3.6362    0.8382 H   0  0  0  0  0  0  0  0  0  0  0  0
    2.8981   -1.5293    1.6735 H   0  0  0  0  0  0  0  0  0  0  0  0
    4.6060   -2.7278   -2.5577 H   0  0  0  0  0  0  0  0  0  0  0  0
    7.7887   -5.8599   -1.9106 H   0  0  0  0  0  0  0  0  0  0  0  0
    8.8302   -4.4663   -1.4955 H   0  0  0  0  0  0  0  0  0  0  0  0
    9.3814   -5.6757   -2.6886 H   0  0  0  0  0  0  0  0  0  0  0  0
    6.7244   -6.0106   -4.2126 H   0  0  0  0  0  0  0  0  0  0  0  0
    8.3003   -5.7650   -5.0172 H   0  0  0  0  0  0  0  0  0  0  0  0
    6.9303   -4.6780   -5.3810 H   0  0  0  0  0  0  0  0  0  0  0  0
    9.1065   -2.5484   -3.1678 H   0  0  0  0  0  0  0  0  0  0  0  0
    8.2940   -2.6358   -4.7551 H   0  0  0  0  0  0  0  0  0  0  0  0
    9.7001   -3.6814   -4.4166 H   0  0  0  0  0  0  0  0  0  0  0  0
  1  2  1  0
  1 25  1  0
  1 26  1  0
  1 27  1  0
  2  3  1  0
  2 28  1  0
  2 29  1  0
  3  4  2  0
  3  5  1  0
  5  6  1  1
  5  7  1  0
  5 17  1  0
  7  8  1  0
  7 30  1  0
  7 31  1  0
  8  9  2  0
  8 16  1  0
  9 10  1  0
  9 32  1  0
 10 11  1  0
 10 12  2  0
 12 13  1  0
 12 14  1  0
 14 15  1  0
 14 16  2  0
 16 33  1  0
 17 18  1  0
 17 34  1  0
 18 19  2  0
 18 20  1  0
 21 20  1  1
 21 22  1  0
 21 23  1  0
 21 24  1  0
 22 35  1  0
 22 36  1  0
 22 37  1  0
 23 38  1  0
 23 39  1  0
 23 40  1  0
 24 41  1  0
 24 42  1  0
 24 43  1  0
M  END

