
     RDKit          3D

 38 39  0  0  0  0  0  0  0  0999 V2000
    1.6741    1.2129    0.3612 C   0  0  0  0  0  0  0  0  0  0  0  0
    2.1092    0.0810   -0.3663 O   0  0  0  0  0  0  0  0  0  0  0  0
    2.6658    0.2452   -1.5967 C   0  0  0  0  0  0  0  0  0  0  0  0
    2.8523    1.4721   -2.2339 C   0  0  0  0  0  0  0  0  0  0  0  0
    3.4370    1.5159   -3.5031 C   0  0  0  0  0  0  0  0  0  0  0  0
    3.8441    0.3418   -4.1552 C   0  0  0  0  0  0  0  0  0  0  0  0
    4.4504    0.4427   -5.4813 C   0  0  0  0  0  0  0  0  0  0  0  0
    4.9063   -0.5561   -6.2647 C   0  0  0  0  0  0  0  0  0  0  0  0
    5.4953   -0.2486   -7.5954 C   0  0  0  0  0  0  0  0  0  0  0  0
    5.6051    0.8589   -8.0582 O   0  0  0  0  0  0  0  0  0  0  0  0
    5.9256   -1.3246   -8.3017 O   0  0  0  0  0  0  0  0  0  0  0  0
    3.6522   -0.8970   -3.5037 C   0  0  0  0  0  0  0  0  0  0  0  0
    3.0711   -0.9590   -2.2393 C   0  0  0  0  0  0  0  0  0  0  0  0
    2.8449   -2.1462   -1.5240 N   0  0  0  0  0  0  0  0  0  0  0  0
    3.1317   -3.4369   -1.8920 C   0  0  0  0  0  0  0  0  0  0  0  0
    3.6525   -3.7485   -2.9505 O   0  0  0  0  0  0  0  0  0  0  0  0
    2.7446   -4.4933   -0.8532 C   0  0  1  0  0  0  0  0  0  0  0  0
    1.8048   -5.5576   -1.4478 C   0  0  0  0  0  0  0  0  0  0  0  0
    1.6981   -6.6910   -0.4259 C   0  0  0  0  0  0  0  0  0  0  0  0
    3.3583   -6.8357    0.3800 S   0  0  0  0  0  0  0  0  0  0  0  0
    3.9808   -5.2654   -0.3609 C   0  0  0  0  0  0  0  0  0  0  0  0
    1.2683    0.8379    1.3098 H   0  0  0  0  0  0  0  0  0  0  0  0
    0.8825    1.7605   -0.1791 H   0  0  0  0  0  0  0  0  0  0  0  0
    2.5093    1.9026    0.5731 H   0  0  0  0  0  0  0  0  0  0  0  0
    2.5454    2.3993   -1.7503 H   0  0  0  0  0  0  0  0  0  0  0  0
    3.5787    2.4817   -3.9938 H   0  0  0  0  0  0  0  0  0  0  0  0
    4.5492    1.4529   -5.8945 H   0  0  0  0  0  0  0  0  0  0  0  0
    4.8531   -1.6009   -5.9414 H   0  0  0  0  0  0  0  0  0  0  0  0
    5.7724   -2.1389   -7.8026 H   0  0  0  0  0  0  0  0  0  0  0  0
    3.9515   -1.8322   -3.9696 H   0  0  0  0  0  0  0  0  0  0  0  0
    2.4126   -2.0019   -0.6181 H   0  0  0  0  0  0  0  0  0  0  0  0
    2.2510   -4.0189    0.0125 H   0  0  0  0  0  0  0  0  0  0  0  0
    2.2530   -5.9196   -2.3864 H   0  0  0  0  0  0  0  0  0  0  0  0
    0.8136   -5.1399   -1.6904 H   0  0  0  0  0  0  0  0  0  0  0  0
    1.4361   -7.6501   -0.8958 H   0  0  0  0  0  0  0  0  0  0  0  0
    0.9454   -6.4716    0.3474 H   0  0  0  0  0  0  0  0  0  0  0  0
    4.6440   -5.4843   -1.2109 H   0  0  0  0  0  0  0  0  0  0  0  0
    4.5500   -4.7084    0.3978 H   0  0  0  0  0  0  0  0  0  0  0  0
  1  2  1  0
  1 22  1  0
  1 23  1  0
  1 24  1  0
  2  3  1  0
  3  4  2  0
  3 13  1  0
  4  5  1  0
  4 25  1  0
  5  6  2  0
  5 26  1  0
  6  7  1  0
  6 12  1  0
  7  8  2  0
  7 27  1  0
  8  9  1  0
  8 28  1  0
  9 10  2  0
  9 11  1  0
 11 29  1  0
 12 13  2  0
 12 30  1  0
 13 14  1  0
 14 15  1  0
 14 31  1  0
 15 16  2  0
 15 17  1  0
 17 18  1  0
 17 21  1  0
 17 32  1  1
 18 19  1  0
 18 33  1  0
 18 34  1  0
 19 20  1  0
 19 35  1  0
 19 36  1  0
 20 21  1  0
 21 37  1  0
 21 38  1  0
M  END

