
     RDKit          3D

 51 54  0  0  0  0  0  0  0  0999 V2000
    1.0638    0.1187    0.1396 C   0  0  0  0  0  0  0  0  0  0  0  0
    2.5606    0.1267    0.2537 C   0  0  0  0  0  0  0  0  0  0  0  0
    3.2898    1.2801    0.4393 C   0  0  0  0  0  0  0  0  0  0  0  0
    4.7062    1.2508    0.5431 C   0  0  0  0  0  0  0  0  0  0  0  0
    5.3531    0.0539    0.4575 C   0  0  0  0  0  0  0  0  0  0  0  0
    4.6454   -1.1116    0.2730 N   0  0  0  0  0  0  0  0  0  0  0  0
    5.4216   -2.3454    0.1957 C   0  0  0  0  0  0  0  0  0  0  0  0
    6.6305   -2.2920    0.2970 O   0  0  0  0  0  0  0  0  0  0  0  0
    4.6169   -3.5253    0.0032 C   0  0  0  0  0  0  0  0  0  0  0  0
    5.2394   -4.7922   -0.0567 C   0  0  0  0  0  0  0  0  0  0  0  0
    4.4919   -5.9285   -0.2320 C   0  0  0  0  0  0  0  0  0  0  0  0
    5.1375   -7.2029   -0.1501 C   0  0  0  0  0  0  0  0  0  0  0  0
    5.7025   -8.2104   -0.0302 N   0  0  0  0  0  0  0  0  0  0  0  0
    3.0313   -5.8526   -0.3800 C   0  0  0  0  0  0  0  0  0  0  0  0
    2.2495   -6.8687   -0.5251 N   0  0  0  0  0  0  0  0  0  0  0  0
    2.5581   -8.0813   -1.1050 C   0  0  0  0  0  0  0  0  0  0  0  0
    3.1503   -8.1840   -2.1672 O   0  0  0  0  0  0  0  0  0  0  0  0
    2.0049   -9.2930   -0.4022 C   0  0  0  0  0  0  0  0  0  0  0  0
    2.2337  -10.5553   -0.9731 C   0  0  0  0  0  0  0  0  0  0  0  0
    1.7596  -11.7133   -0.3531 C   0  0  0  0  0  0  0  0  0  0  0  0
    1.0496  -11.6287    0.8465 C   0  0  0  0  0  0  0  0  0  0  0  0
    0.8315  -10.3667    1.4024 C   0  0  0  0  0  0  0  0  0  0  0  0
    0.0791  -10.2634    2.6712 N   0  0  0  0  0  0  0  0  0  0  0  0
   -0.3134  -11.3002    3.1819 O   0  0  0  0  0  0  0  0  0  0  0  0
   -0.1053   -9.1472    3.1306 O   0  0  0  0  0  0  0  0  0  0  0  0
    1.2963   -9.1988    0.8003 C   0  0  0  0  0  0  0  0  0  0  0  0
    2.4526   -4.5705   -0.2957 N   0  0  0  0  0  0  0  0  0  0  0  0
    0.9675   -4.4123   -0.4774 C   0  0  1  0  0  0  0  0  0  0  0  0
    0.5102   -4.8163   -1.8824 C   0  0  0  0  0  0  0  0  0  0  0  0
    0.1590   -5.0528    0.6543 C   0  0  0  0  0  0  0  0  0  0  0  0
    3.2100   -3.4281   -0.0968 C   0  0  0  0  0  0  0  0  0  0  0  0
    2.5736   -2.2507   -0.0129 N   0  0  0  0  0  0  0  0  0  0  0  0
    3.2587   -1.1318    0.1648 C   0  0  0  0  0  0  0  0  0  0  0  0
    0.6575    1.1358    0.2283 H   0  0  0  0  0  0  0  0  0  0  0  0
    0.6139   -0.5141    0.9208 H   0  0  0  0  0  0  0  0  0  0  0  0
    0.7459   -0.3084   -0.8247 H   0  0  0  0  0  0  0  0  0  0  0  0
    2.7667    2.2373    0.5079 H   0  0  0  0  0  0  0  0  0  0  0  0
    5.2798    2.1665    0.6898 H   0  0  0  0  0  0  0  0  0  0  0  0
    6.4311   -0.0900    0.5233 H   0  0  0  0  0  0  0  0  0  0  0  0
    6.3227   -4.8466    0.0652 H   0  0  0  0  0  0  0  0  0  0  0  0
    2.7955  -10.5986   -1.9080 H   0  0  0  0  0  0  0  0  0  0  0  0
    1.9450  -12.6908   -0.8040 H   0  0  0  0  0  0  0  0  0  0  0  0
    0.6656  -12.5110    1.3578 H   0  0  0  0  0  0  0  0  0  0  0  0
    1.1057   -8.2363    1.2713 H   0  0  0  0  0  0  0  0  0  0  0  0
    0.8321   -3.3311   -0.3927 H   0  0  0  0  0  0  0  0  0  0  0  0
    0.5661   -5.8987   -2.0497 H   0  0  0  0  0  0  0  0  0  0  0  0
    1.1125   -4.3105   -2.6532 H   0  0  0  0  0  0  0  0  0  0  0  0
   -0.5365   -4.4987   -2.0143 H   0  0  0  0  0  0  0  0  0  0  0  0
    0.1560   -6.1475    0.6002 H   0  0  0  0  0  0  0  0  0  0  0  0
   -0.8822   -4.7001    0.5835 H   0  0  0  0  0  0  0  0  0  0  0  0
    0.5469   -4.7480    1.6388 H   0  0  0  0  0  0  0  0  0  0  0  0
  1  2  1  0
  1 34  1  0
  1 35  1  0
  1 36  1  0
  2  3  2  0
  2 33  1  0
  3  4  1  0
  3 37  1  0
  4  5  2  0
  4 38  1  0
  5  6  1  0
  5 39  1  0
  6  7  1  0
  6 33  1  0
  7  8  2  0
  7  9  1  0
  9 10  1  0
  9 31  2  0
 10 11  2  0
 10 40  1  0
 11 12  1  0
 11 14  1  0
 12 13  3  0
 14 15  2  0
 14 27  1  0
 15 16  1  0
 16 17  2  0
 16 18  1  0
 18 19  2  0
 18 26  1  0
 19 20  1  0
 19 41  1  0
 20 21  2  0
 20 42  1  0
 21 22  1  0
 21 43  1  0
 22 23  1  0
 22 26  2  0
 23 24  2  0
 23 25  1  0
 26 44  1  0
 27 28  1  0
 27 31  1  0
 28 29  1  0
 28 30  1  0
 28 45  1  6
 29 46  1  0
 29 47  1  0
 29 48  1  0
 30 49  1  0
 30 50  1  0
 30 51  1  0
 31 32  1  0
 32 33  2  0
M  CHG  2  23   1  25  -1
M  END

