
     RDKit          3D

 37 39  0  0  0  0  0  0  0  0999 V2000
    0.9962    0.0379    0.5627 O   0  0  0  0  0  0  0  0  0  0  0  0
    2.1897    0.1782    0.4474 C   0  0  0  0  0  0  0  0  0  0  0  0
    2.7836    1.3077   -0.1468 N   0  0  0  0  0  0  0  0  0  0  0  0
    2.1784    2.3127   -0.8933 C   0  0  0  0  0  0  0  0  0  0  0  0
    0.7314    2.1944   -1.6838 S   0  0  0  0  0  0  0  0  0  0  0  0
    2.9381    3.4591   -0.9982 N   0  0  0  0  0  0  0  0  0  0  0  0
    4.1038    3.8622   -0.3079 C   0  0  0  0  0  0  0  0  0  0  0  0
    5.1194    4.5151   -1.0242 C   0  0  0  0  0  0  0  0  0  0  0  0
    6.2511    4.9732   -0.3555 C   0  0  0  0  0  0  0  0  0  0  0  0
    7.5224    5.8012   -1.2369 Cl  0  0  0  0  0  0  0  0  0  0  0  0
    6.4420    4.7826    1.0267 C   0  0  0  0  0  0  0  0  0  0  0  0
    7.5340    5.2015    1.6829 O   0  0  0  0  0  0  0  0  0  0  0  0
    5.4126    4.1204    1.7245 C   0  0  0  0  0  0  0  0  0  0  0  0
    5.5875    3.8804    3.4377 Cl  0  0  0  0  0  0  0  0  0  0  0  0
    4.2563    3.6832    1.0784 C   0  0  0  0  0  0  0  0  0  0  0  0
    3.2070   -0.8227    0.9390 C   0  0  0  0  0  0  0  0  0  0  0  0
    4.3222   -1.0898    0.1585 C   0  0  0  0  0  0  0  0  0  0  0  0
    5.2785   -2.0511    0.5513 C   0  0  0  0  0  0  0  0  0  0  0  0
    5.1251   -2.7331    1.7370 C   0  0  0  0  0  0  0  0  0  0  0  0
    4.0027   -2.4978    2.5782 C   0  0  0  0  0  0  0  0  0  0  0  0
    3.8092   -3.1799    3.8206 C   0  0  0  0  0  0  0  0  0  0  0  0
    5.0884   -4.4655    4.4335 Br  0  0  0  0  0  0  0  0  0  0  0  0
    2.7099   -2.9415    4.6165 C   0  0  0  0  0  0  0  0  0  0  0  0
    1.7402   -2.0002    4.2028 C   0  0  0  0  0  0  0  0  0  0  0  0
    1.8775   -1.3148    3.0155 C   0  0  0  0  0  0  0  0  0  0  0  0
    3.0056   -1.5353    2.1745 C   0  0  0  0  0  0  0  0  0  0  0  0
    3.7778    1.4161    0.0326 H   0  0  0  0  0  0  0  0  0  0  0  0
    2.5599    4.1001   -1.6897 H   0  0  0  0  0  0  0  0  0  0  0  0
    5.0308    4.6654   -2.1009 H   0  0  0  0  0  0  0  0  0  0  0  0
    8.1280    5.6375    1.0494 H   0  0  0  0  0  0  0  0  0  0  0  0
    3.4677    3.2236    1.6731 H   0  0  0  0  0  0  0  0  0  0  0  0
    4.4523   -0.5744   -0.7961 H   0  0  0  0  0  0  0  0  0  0  0  0
    6.1382   -2.2534   -0.0914 H   0  0  0  0  0  0  0  0  0  0  0  0
    5.8655   -3.4716    2.0459 H   0  0  0  0  0  0  0  0  0  0  0  0
    2.5898   -3.4781    5.5588 H   0  0  0  0  0  0  0  0  0  0  0  0
    0.8688   -1.8218    4.8373 H   0  0  0  0  0  0  0  0  0  0  0  0
    1.1099   -0.6122    2.6980 H   0  0  0  0  0  0  0  0  0  0  0  0
  1  2  2  0
  2  3  1  0
  2 16  1  0
  3  4  1  0
  3 27  1  0
  4  5  2  0
  4  6  1  0
  6  7  1  0
  6 28  1  0
  7  8  2  0
  7 15  1  0
  8  9  1  0
  8 29  1  0
  9 10  1  0
  9 11  2  0
 11 12  1  0
 11 13  1  0
 12 30  1  0
 13 14  1  0
 13 15  2  0
 15 31  1  0
 16 17  2  0
 16 26  1  0
 17 18  1  0
 17 32  1  0
 18 19  2  0
 18 33  1  0
 19 20  1  0
 19 34  1  0
 20 21  1  0
 20 26  2  0
 21 22  1  0
 21 23  2  0
 23 24  1  0
 23 35  1  0
 24 25  2  0
 24 36  1  0
 25 26  1  0
 25 37  1  0
M  END

