
     RDKit          3D

 33 33  0  0  0  0  0  0  0  0999 V2000
    0.9553   -0.1349    0.3184 C   0  0  0  0  0  0  0  0  0  0  0  0
    2.4697   -0.0361    0.1429 C   0  0  1  0  0  0  0  0  0  0  0  0
    3.1153    0.2370    1.3801 O   0  0  0  0  0  0  0  0  0  0  0  0
    3.0644   -1.2770   -0.5366 C   0  0  0  0  0  0  0  0  0  0  0  0
    4.5717   -1.1804   -0.7576 C   0  0  0  0  0  0  0  0  0  0  0  0
    5.1185   -2.4241   -1.2824 N   0  0  0  0  0  0  0  0  0  0  0  0
    6.5556   -2.4059   -1.4950 C   0  0  0  0  0  0  0  0  0  0  0  0
    7.1078   -3.7805   -1.8145 C   0  0  0  0  0  0  0  0  0  0  0  0
    6.4429   -4.9536   -1.4404 C   0  0  0  0  0  0  0  0  0  0  0  0
    6.9722   -6.2245   -1.7137 C   0  0  0  0  0  0  0  0  0  0  0  0
    6.2922   -7.5051   -1.3159 C   0  0  0  0  0  0  0  0  0  0  0  0
    6.8379   -8.5770   -1.3529 O   0  0  0  0  0  0  0  0  0  0  0  0
    5.0062   -7.4106   -0.9092 O   0  0  0  0  0  0  0  0  0  0  0  0
    8.2125   -6.3241   -2.3638 C   0  0  0  0  0  0  0  0  0  0  0  0
    8.8953   -5.1740   -2.7506 C   0  0  0  0  0  0  0  0  0  0  0  0
    8.3359   -3.9288   -2.4706 C   0  0  0  0  0  0  0  0  0  0  0  0
    9.0050   -2.8247   -2.8393 F   0  0  0  0  0  0  0  0  0  0  0  0
    0.5712    0.7651    0.8216 H   0  0  0  0  0  0  0  0  0  0  0  0
    0.6896   -1.0124    0.9341 H   0  0  0  0  0  0  0  0  0  0  0  0
    0.4406   -0.2403   -0.6500 H   0  0  0  0  0  0  0  0  0  0  0  0
    2.6952    0.8457   -0.4830 H   0  0  0  0  0  0  0  0  0  0  0  0
    2.8979   -0.4800    1.9928 H   0  0  0  0  0  0  0  0  0  0  0  0
    2.5494   -1.4392   -1.5015 H   0  0  0  0  0  0  0  0  0  0  0  0
    2.8526   -2.1700    0.0807 H   0  0  0  0  0  0  0  0  0  0  0  0
    5.0546   -0.9643    0.2094 H   0  0  0  0  0  0  0  0  0  0  0  0
    4.7927   -0.3046   -1.4096 H   0  0  0  0  0  0  0  0  0  0  0  0
    4.6491   -2.6683   -2.1557 H   0  0  0  0  0  0  0  0  0  0  0  0
    7.0291   -2.0427   -0.5638 H   0  0  0  0  0  0  0  0  0  0  0  0
    6.8820   -1.6941   -2.2820 H   0  0  0  0  0  0  0  0  0  0  0  0
    5.4964   -4.8115   -0.9108 H   0  0  0  0  0  0  0  0  0  0  0  0
    4.6807   -6.5064   -1.0161 H   0  0  0  0  0  0  0  0  0  0  0  0
    8.6221   -7.3169   -2.5569 H   0  0  0  0  0  0  0  0  0  0  0  0
    9.8578   -5.2196   -3.2637 H   0  0  0  0  0  0  0  0  0  0  0  0
  1  2  1  0
  1 18  1  0
  1 19  1  0
  1 20  1  0
  2  3  1  0
  2  4  1  0
  2 21  1  6
  3 22  1  0
  4  5  1  0
  4 23  1  0
  4 24  1  0
  5  6  1  0
  5 25  1  0
  5 26  1  0
  6  7  1  0
  6 27  1  0
  7  8  1  0
  7 28  1  0
  7 29  1  0
  8  9  2  0
  8 16  1  0
  9 10  1  0
  9 30  1  0
 10 11  1  0
 10 14  2  0
 11 12  2  0
 11 13  1  0
 13 31  1  0
 14 15  1  0
 14 32  1  0
 15 16  2  0
 15 33  1  0
 16 17  1  0
M  END

