
     RDKit          3D

 50 50  0  0  0  0  0  0  0  0999 V2000
    0.4363    1.1270    0.8735 C   0  0  0  0  0  0  0  0  0  0  0  0
    1.6194    0.2064    0.5145 C   0  0  1  0  0  0  0  0  0  0  0  0
    2.2414    0.6486   -0.8249 C   0  0  0  0  0  0  0  0  0  0  0  0
    2.6569    0.1422    1.6424 C   0  0  0  0  0  0  0  0  0  0  0  0
    3.2160    1.3657    2.0500 C   0  0  0  0  0  0  0  0  0  0  0  0
    4.1566    1.4359    3.0697 C   0  0  0  0  0  0  0  0  0  0  0  0
    4.5570    0.2668    3.7118 C   0  0  0  0  0  0  0  0  0  0  0  0
    4.0391   -0.9812    3.3410 C   0  0  0  0  0  0  0  0  0  0  0  0
    4.5670   -2.2256    4.0677 C   0  0  1  0  0  0  0  0  0  0  0  0
    5.8216   -2.7797    3.3627 C   0  0  0  0  0  0  0  0  0  0  0  0
    4.8459   -2.0022    5.5632 C   0  0  0  0  0  0  0  0  0  0  0  0
    3.0848   -1.0576    2.2800 C   0  0  0  0  0  0  0  0  0  0  0  0
    2.5619   -2.4505    1.8806 C   0  0  1  0  0  0  0  0  0  0  0  0
    1.3023   -2.9674    2.6139 C   0  0  0  0  0  0  0  0  0  0  0  0
   -0.0331   -2.2712    2.3412 C   0  0  0  0  0  0  0  0  0  0  0  0
   -1.1372   -2.9061    3.0549 N   0  0  0  0  0  0  0  0  0  0  0  0
   -1.1765   -2.5893    4.4684 C   0  0  0  0  0  0  0  0  0  0  0  0
   -2.4206   -2.6838    2.4185 C   0  0  0  0  0  0  0  0  0  0  0  0
    2.5397   -2.7316    0.3748 C   0  0  0  0  0  0  0  0  0  0  0  0
    1.6906   -3.3610   -0.1966 O   0  0  0  0  0  0  0  0  0  0  0  0
    3.6414   -2.3087   -0.2922 O   0  0  0  0  0  0  0  0  0  0  0  0
   -0.3475    1.0551    0.1023 H   0  0  0  0  0  0  0  0  0  0  0  0
    0.7446    2.1831    0.9290 H   0  0  0  0  0  0  0  0  0  0  0  0
   -0.0144    0.8599    1.8408 H   0  0  0  0  0  0  0  0  0  0  0  0
    1.1989   -0.7952    0.3610 H   0  0  0  0  0  0  0  0  0  0  0  0
    2.6672    1.6627   -0.7531 H   0  0  0  0  0  0  0  0  0  0  0  0
    1.4722    0.6660   -1.6138 H   0  0  0  0  0  0  0  0  0  0  0  0
    3.0358   -0.0367   -1.1517 H   0  0  0  0  0  0  0  0  0  0  0  0
    2.8991    2.2864    1.5555 H   0  0  0  0  0  0  0  0  0  0  0  0
    4.5755    2.4002    3.3691 H   0  0  0  0  0  0  0  0  0  0  0  0
    5.2908    0.3294    4.5167 H   0  0  0  0  0  0  0  0  0  0  0  0
    3.7916   -3.0045    4.0268 H   0  0  0  0  0  0  0  0  0  0  0  0
    6.6406   -2.0427    3.3926 H   0  0  0  0  0  0  0  0  0  0  0  0
    5.6311   -3.0162    2.3032 H   0  0  0  0  0  0  0  0  0  0  0  0
    6.1761   -3.7016    3.8521 H   0  0  0  0  0  0  0  0  0  0  0  0
    5.7143   -1.3469    5.7356 H   0  0  0  0  0  0  0  0  0  0  0  0
    5.0702   -2.9648    6.0498 H   0  0  0  0  0  0  0  0  0  0  0  0
    3.9790   -1.5566    6.0754 H   0  0  0  0  0  0  0  0  0  0  0  0
    3.3496   -3.1550    2.1898 H   0  0  0  0  0  0  0  0  0  0  0  0
    1.5215   -2.9296    3.6931 H   0  0  0  0  0  0  0  0  0  0  0  0
    1.1733   -4.0294    2.3535 H   0  0  0  0  0  0  0  0  0  0  0  0
   -0.2452   -2.3463    1.2651 H   0  0  0  0  0  0  0  0  0  0  0  0
    0.0356   -1.1892    2.5897 H   0  0  0  0  0  0  0  0  0  0  0  0
   -0.2235   -2.8429    4.9568 H   0  0  0  0  0  0  0  0  0  0  0  0
   -1.9646   -3.1769    4.9662 H   0  0  0  0  0  0  0  0  0  0  0  0
   -1.3811   -1.5106    4.6712 H   0  0  0  0  0  0  0  0  0  0  0  0
   -2.3908   -3.0212    1.3708 H   0  0  0  0  0  0  0  0  0  0  0  0
   -2.7409   -1.6145    2.4227 H   0  0  0  0  0  0  0  0  0  0  0  0
   -3.2031   -3.2623    2.9360 H   0  0  0  0  0  0  0  0  0  0  0  0
    4.1859   -1.7578    0.2933 H   0  0  0  0  0  0  0  0  0  0  0  0
  1  2  1  0
  1 22  1  0
  1 23  1  0
  1 24  1  0
  2  3  1  0
  2  4  1  0
  2 25  1  6
  3 26  1  0
  3 27  1  0
  3 28  1  0
  4  5  2  0
  4 12  1  0
  5  6  1  0
  5 29  1  0
  6  7  2  0
  6 30  1  0
  7  8  1  0
  7 31  1  0
  8  9  1  0
  8 12  2  0
  9 10  1  0
  9 11  1  0
  9 32  1  1
 10 33  1  0
 10 34  1  0
 10 35  1  0
 11 36  1  0
 11 37  1  0
 11 38  1  0
 12 13  1  0
 13 14  1  0
 13 19  1  0
 13 39  1  1
 14 15  1  0
 14 40  1  0
 14 41  1  0
 15 16  1  0
 15 42  1  0
 15 43  1  0
 16 17  1  0
 16 18  1  0
 17 44  1  0
 17 45  1  0
 17 46  1  0
 18 47  1  0
 18 48  1  0
 18 49  1  0
 19 20  2  0
 19 21  1  0
 21 50  1  0
M  END

