
     RDKit          3D

 43 43  0  0  0  0  0  0  0  0999 V2000
    6.3018    5.1060    5.2530 C   0  0  0  0  0  0  0  0  0  0  0  0
    5.3711    4.5930    3.7744 S   0  0  0  0  0  0  0  0  0  0  0  0
    5.9144    2.8386    3.6613 C   0  0  0  0  0  0  0  0  0  0  0  0
    5.3490    2.1413    2.4226 C   0  0  0  0  0  0  0  0  0  0  0  0
    5.6345    2.8001    1.0523 C   0  0  2  0  0  0  0  0  0  0  0  0
    5.1630    3.7969    1.0451 H   0  0  0  0  0  0  0  0  0  0  0  0
    5.0196    1.9969    0.0099 N   0  0  0  0  0  0  0  0  0  0  0  0
    7.1487    2.9873    0.8330 C   0  0  0  0  0  0  0  0  0  0  0  0
    7.8062    2.1198    0.2488 O   0  0  0  0  0  0  0  0  0  0  0  0
    7.7058    4.1203    1.3136 N   0  0  0  0  0  0  0  0  0  0  0  0
    9.1581    4.3285    1.2590 C   0  0  1  0  0  0  0  0  0  0  0  0
    9.6303    4.5334   -0.2057 C   0  0  0  0  0  0  0  0  0  0  0  0
   11.0797    4.1157   -0.4417 C   0  0  0  0  0  0  0  0  0  0  0  0
   11.4488    2.6276   -0.3203 C   0  0  0  0  0  0  0  0  0  0  0  0
   12.6042    2.2885   -0.3719 O   0  0  0  0  0  0  0  0  0  0  0  0
   10.4793    1.7167   -0.1763 O   0  0  0  0  0  0  0  0  0  0  0  0
    9.5675    5.4612    2.1842 C   0  0  0  0  0  0  0  0  0  0  0  0
   10.5232    5.2461    3.1882 C   0  0  0  0  0  0  0  0  0  0  0  0
   10.9220    6.2876    4.0331 C   0  0  0  0  0  0  0  0  0  0  0  0
   10.3618    7.5593    3.8903 C   0  0  0  0  0  0  0  0  0  0  0  0
    9.4046    7.7855    2.8952 C   0  0  0  0  0  0  0  0  0  0  0  0
    9.0148    6.7465    2.0471 C   0  0  0  0  0  0  0  0  0  0  0  0
    6.0639    6.1645    5.4285 H   0  0  0  0  0  0  0  0  0  0  0  0
    7.3869    5.0066    5.0984 H   0  0  0  0  0  0  0  0  0  0  0  0
    5.9940    4.5218    6.1335 H   0  0  0  0  0  0  0  0  0  0  0  0
    5.5751    2.3099    4.5662 H   0  0  0  0  0  0  0  0  0  0  0  0
    7.0165    2.8207    3.6615 H   0  0  0  0  0  0  0  0  0  0  0  0
    4.2548    2.0462    2.5005 H   0  0  0  0  0  0  0  0  0  0  0  0
    5.7526    1.1138    2.3993 H   0  0  0  0  0  0  0  0  0  0  0  0
    5.5995    1.1682   -0.1415 H   0  0  0  0  0  0  0  0  0  0  0  0
    5.0388    2.5017   -0.8765 H   0  0  0  0  0  0  0  0  0  0  0  0
    7.1307    4.7282    1.8995 H   0  0  0  0  0  0  0  0  0  0  0  0
    9.6295    3.4047    1.6328 H   0  0  0  0  0  0  0  0  0  0  0  0
    9.5021    5.5922   -0.4814 H   0  0  0  0  0  0  0  0  0  0  0  0
    8.9715    3.9599   -0.8737 H   0  0  0  0  0  0  0  0  0  0  0  0
   11.7669    4.6489    0.2352 H   0  0  0  0  0  0  0  0  0  0  0  0
   11.3916    4.4100   -1.4576 H   0  0  0  0  0  0  0  0  0  0  0  0
    9.5490    2.0373   -0.1008 H   0  0  0  0  0  0  0  0  0  0  0  0
   10.9637    4.2524    3.3076 H   0  0  0  0  0  0  0  0  0  0  0  0
   11.6727    6.1016    4.8053 H   0  0  0  0  0  0  0  0  0  0  0  0
   10.6709    8.3738    4.5501 H   0  0  0  0  0  0  0  0  0  0  0  0
    8.9632    8.7782    2.7754 H   0  0  0  0  0  0  0  0  0  0  0  0
    8.2728    6.9408    1.2672 H   0  0  0  0  0  0  0  0  0  0  0  0
  1  2  1  0
  1 23  1  0
  1 24  1  0
  1 25  1  0
  2  3  1  0
  3  4  1  0
  3 26  1  0
  3 27  1  0
  4  5  1  0
  4 28  1  0
  4 29  1  0
  5  6  1  1
  5  7  1  0
  5  8  1  0
  7 30  1  0
  7 31  1  0
  8  9  2  0
  8 10  1  0
 10 11  1  0
 10 32  1  0
 11 12  1  0
 11 17  1  0
 11 33  1  1
 12 13  1  0
 12 34  1  0
 12 35  1  0
 13 14  1  0
 13 36  1  0
 13 37  1  0
 14 15  2  0
 14 16  1  0
 16 38  1  0
 17 18  2  0
 17 22  1  0
 18 19  1  0
 18 39  1  0
 19 20  2  0
 19 40  1  0
 20 21  1  0
 20 41  1  0
 21 22  2  0
 21 42  1  0
 22 43  1  0
M  END

