
     RDKit          3D

 33 35  0  0  0  0  0  0  0  0999 V2000
    3.1913    1.0068    4.0940 C   0  0  0  0  0  0  0  0  0  0  0  0
    4.2358    0.7900    3.0281 C   0  0  0  0  0  0  0  0  0  0  0  0
    5.5052    0.2816    3.3493 C   0  0  0  0  0  0  0  0  0  0  0  0
    6.4830    0.1059    2.3709 C   0  0  0  0  0  0  0  0  0  0  0  0
    6.1945    0.4192    1.0356 C   0  0  0  0  0  0  0  0  0  0  0  0
    7.4672    0.3193   -0.2214 S   0  0  0  0  0  0  0  0  0  0  0  0
    7.8570   -1.4022   -0.4044 C   0  0  0  0  0  0  0  0  0  0  0  0
    6.9929   -2.4527   -0.2677 C   0  0  0  0  0  0  0  0  0  0  0  0
    5.5577   -2.2725    0.0214 N   0  0  0  0  0  0  0  0  0  0  0  0
    5.1528   -2.6995    1.0832 O   0  0  0  0  0  0  0  0  0  0  0  0
    4.8898   -1.7251   -0.8382 O   0  0  0  0  0  0  0  0  0  0  0  0
    7.3618   -3.8597   -0.4646 C   0  0  0  0  0  0  0  0  0  0  0  0
    6.6238   -4.8007   -0.3808 O   0  0  0  0  0  0  0  0  0  0  0  0
    8.6793   -4.0677   -0.8139 O   0  0  0  0  0  0  0  0  0  0  0  0
    9.5808   -3.0665   -0.9803 C   0  0  0  0  0  0  0  0  0  0  0  0
   10.8767   -3.4438   -1.3513 C   0  0  0  0  0  0  0  0  0  0  0  0
   11.8498   -2.4663   -1.5274 C   0  0  0  0  0  0  0  0  0  0  0  0
   11.5378   -1.1124   -1.3250 C   0  0  0  0  0  0  0  0  0  0  0  0
   10.2522   -0.7436   -0.9496 C   0  0  0  0  0  0  0  0  0  0  0  0
    9.2376   -1.7115   -0.7800 C   0  0  0  0  0  0  0  0  0  0  0  0
    4.9332    0.9238    0.6935 C   0  0  0  0  0  0  0  0  0  0  0  0
    3.9713    1.1094    1.6865 C   0  0  0  0  0  0  0  0  0  0  0  0
    3.3806    0.3825    4.9797 H   0  0  0  0  0  0  0  0  0  0  0  0
    2.1819    0.7760    3.7204 H   0  0  0  0  0  0  0  0  0  0  0  0
    3.1818    2.0594    4.4276 H   0  0  0  0  0  0  0  0  0  0  0  0
    5.7352    0.0203    4.3858 H   0  0  0  0  0  0  0  0  0  0  0  0
    7.4686   -0.2778    2.6432 H   0  0  0  0  0  0  0  0  0  0  0  0
   11.0880   -4.5050   -1.4917 H   0  0  0  0  0  0  0  0  0  0  0  0
   12.8618   -2.7583   -1.8179 H   0  0  0  0  0  0  0  0  0  0  0  0
   12.3058   -0.3470   -1.4540 H   0  0  0  0  0  0  0  0  0  0  0  0
   10.0176    0.3068   -0.7734 H   0  0  0  0  0  0  0  0  0  0  0  0
    4.7031    1.1517   -0.3486 H   0  0  0  0  0  0  0  0  0  0  0  0
    2.9870    1.4958    1.4081 H   0  0  0  0  0  0  0  0  0  0  0  0
  1  2  1  0
  1 23  1  0
  1 24  1  0
  1 25  1  0
  2  3  2  0
  2 22  1  0
  3  4  1  0
  3 26  1  0
  4  5  2  0
  4 27  1  0
  5  6  1  0
  5 21  1  0
  6  7  2  0
  7  8  1  0
  7 20  1  0
  8  9  1  0
  8 12  2  0
  9 10  2  0
  9 11  1  0
 12 13  1  0
 12 14  1  0
 14 15  1  0
 15 16  1  0
 15 20  2  0
 16 17  2  0
 16 28  1  0
 17 18  1  0
 17 29  1  0
 18 19  2  0
 18 30  1  0
 19 20  1  0
 19 31  1  0
 21 22  2  0
 21 32  1  0
 22 33  1  0
M  CHG  4   6   1   9   1  11  -1  13  -1
M  END

