
     RDKit          3D

 59 62  0  0  0  0  0  0  0  0999 V2000
    0.7131   -1.4359    0.8211 C   0  0  0  0  0  0  0  0  0  0  0  0
    1.6173   -1.0737   -0.1977 O   0  0  0  0  0  0  0  0  0  0  0  0
    2.3782   -2.0318   -0.7842 C   0  0  0  0  0  0  0  0  0  0  0  0
    3.2433   -1.5978   -1.8046 C   0  0  0  0  0  0  0  0  0  0  0  0
    4.0571   -2.5122   -2.4616 C   0  0  0  0  0  0  0  0  0  0  0  0
    4.0458   -3.8759   -2.1201 C   0  0  0  0  0  0  0  0  0  0  0  0
    4.9425   -4.8296   -2.8823 C   0  0  1  0  0  0  0  0  0  0  0  0
    6.2992   -5.0828   -2.3468 N   0  0  0  0  0  0  0  0  0  0  0  0
    6.6499   -5.0218   -0.6599 S   0  0  1  0  0  0  0  0  0  0  0  0
    5.5634   -5.5665    0.1657 O   0  0  0  0  0  0  0  0  0  0  0  0
    7.9899   -5.6095   -0.5537 O   0  0  0  0  0  0  0  0  0  0  0  0
    6.7940   -3.2677   -0.3454 C   0  0  0  0  0  0  0  0  0  0  0  0
    6.0351   -2.6961    0.6737 C   0  0  0  0  0  0  0  0  0  0  0  0
    6.2250   -1.3461    0.9829 C   0  0  0  0  0  0  0  0  0  0  0  0
    7.1620   -0.5659    0.2909 C   0  0  0  0  0  0  0  0  0  0  0  0
    7.3650    0.8920    0.6192 C   0  0  0  0  0  0  0  0  0  0  0  0
    7.9194   -1.1771   -0.7274 C   0  0  0  0  0  0  0  0  0  0  0  0
    7.7494   -2.5214   -1.0453 C   0  0  0  0  0  0  0  0  0  0  0  0
    6.7131   -6.3534   -2.9741 C   0  0  0  0  0  0  0  0  0  0  0  0
    5.4447   -7.2086   -2.9123 C   0  0  0  0  0  0  0  0  0  0  0  0
    4.3732   -6.2038   -3.0740 N   0  0  0  0  0  0  0  0  0  0  0  0
    3.2717   -6.4010   -4.3593 S   0  0  1  0  0  0  0  0  0  0  0  0
    3.2016   -5.1251   -5.0811 O   0  0  0  0  0  0  0  0  0  0  0  0
    3.6159   -7.6476   -5.0526 O   0  0  0  0  0  0  0  0  0  0  0  0
    1.6868   -6.6621   -3.5652 C   0  0  0  0  0  0  0  0  0  0  0  0
    0.8023   -5.5926   -3.4270 C   0  0  0  0  0  0  0  0  0  0  0  0
   -0.4388   -5.8132   -2.8235 C   0  0  0  0  0  0  0  0  0  0  0  0
   -0.8077   -7.0844   -2.3587 C   0  0  0  0  0  0  0  0  0  0  0  0
   -2.1495   -7.3251   -1.7127 C   0  0  0  0  0  0  0  0  0  0  0  0
    0.1037   -8.1445   -2.5214 C   0  0  0  0  0  0  0  0  0  0  0  0
    1.3430   -7.9454   -3.1256 C   0  0  0  0  0  0  0  0  0  0  0  0
    3.1712   -4.3000   -1.1155 C   0  0  0  0  0  0  0  0  0  0  0  0
    2.3427   -3.3937   -0.4463 C   0  0  0  0  0  0  0  0  0  0  0  0
    0.2133   -0.5112    1.1399 H   0  0  0  0  0  0  0  0  0  0  0  0
    1.2284   -1.8818    1.6912 H   0  0  0  0  0  0  0  0  0  0  0  0
   -0.0506   -2.1486    0.4604 H   0  0  0  0  0  0  0  0  0  0  0  0
    3.2483   -0.5383   -2.0676 H   0  0  0  0  0  0  0  0  0  0  0  0
    4.7136   -2.1631   -3.2633 H   0  0  0  0  0  0  0  0  0  0  0  0
    5.1064   -4.3861   -3.8778 H   0  0  0  0  0  0  0  0  0  0  0  0
    5.3033   -3.3039    1.2072 H   0  0  0  0  0  0  0  0  0  0  0  0
    5.6283   -0.8916    1.7781 H   0  0  0  0  0  0  0  0  0  0  0  0
    6.7171    1.2163    1.4462 H   0  0  0  0  0  0  0  0  0  0  0  0
    7.1450    1.5298   -0.2532 H   0  0  0  0  0  0  0  0  0  0  0  0
    8.4102    1.0928    0.9075 H   0  0  0  0  0  0  0  0  0  0  0  0
    8.6599   -0.5871   -1.2750 H   0  0  0  0  0  0  0  0  0  0  0  0
    8.3460   -2.9924   -1.8283 H   0  0  0  0  0  0  0  0  0  0  0  0
    7.5775   -6.7788   -2.4522 H   0  0  0  0  0  0  0  0  0  0  0  0
    6.9959   -6.1409   -4.0185 H   0  0  0  0  0  0  0  0  0  0  0  0
    5.3520   -7.7031   -1.9315 H   0  0  0  0  0  0  0  0  0  0  0  0
    5.3907   -7.9652   -3.7046 H   0  0  0  0  0  0  0  0  0  0  0  0
    1.0834   -4.6058   -3.7970 H   0  0  0  0  0  0  0  0  0  0  0  0
   -1.1358   -4.9776   -2.7170 H   0  0  0  0  0  0  0  0  0  0  0  0
   -2.7286   -6.3949   -1.6200 H   0  0  0  0  0  0  0  0  0  0  0  0
   -2.0350   -7.7569   -0.7047 H   0  0  0  0  0  0  0  0  0  0  0  0
   -2.7504   -8.0392   -2.3005 H   0  0  0  0  0  0  0  0  0  0  0  0
   -0.1685   -9.1463   -2.1771 H   0  0  0  0  0  0  0  0  0  0  0  0
    2.0349   -8.7765   -3.2728 H   0  0  0  0  0  0  0  0  0  0  0  0
    3.1393   -5.3553   -0.8455 H   0  0  0  0  0  0  0  0  0  0  0  0
    1.6737   -3.7633    0.3309 H   0  0  0  0  0  0  0  0  0  0  0  0
  1  2  1  0
  1 34  1  0
  1 35  1  0
  1 36  1  0
  2  3  1  0
  3  4  2  0
  3 33  1  0
  4  5  1  0
  4 37  1  0
  5  6  2  0
  5 38  1  0
  6  7  1  0
  6 32  1  0
  7  8  1  0
  7 21  1  0
  7 39  1  6
  8  9  1  0
  8 19  1  0
  9 10  2  0
  9 11  2  0
  9 12  1  1
 12 13  2  0
 12 18  1  0
 13 14  1  0
 13 40  1  0
 14 15  2  0
 14 41  1  0
 15 16  1  0
 15 17  1  0
 16 42  1  0
 16 43  1  0
 16 44  1  0
 17 18  2  0
 17 45  1  0
 18 46  1  0
 19 20  1  0
 19 47  1  0
 19 48  1  0
 20 21  1  0
 20 49  1  0
 20 50  1  0
 21 22  1  0
 22 23  2  0
 22 24  2  0
 22 25  1  1
 25 26  2  0
 25 31  1  0
 26 27  1  0
 26 51  1  0
 27 28  2  0
 27 52  1  0
 28 29  1  0
 28 30  1  0
 29 53  1  0
 29 54  1  0
 29 55  1  0
 30 31  2  0
 30 56  1  0
 31 57  1  0
 32 33  2  0
 32 58  1  0
 33 59  1  0
M  END

