
     RDKit          3D

 50 53  0  0  0  0  0  0  0  0999 V2000
    0.9478    0.1847   -0.1477 C   0  0  0  0  0  0  0  0  0  0  0  0
    2.4950    0.1807   -0.0318 C   0  0  1  0  0  0  0  0  0  0  0  0
    3.1183   -0.1114   -1.4223 C   0  0  0  0  0  0  0  0  0  0  0  0
    2.8944    1.6304    0.3126 C   0  0  0  0  0  0  0  0  0  0  0  0
    2.9147   -0.9651    0.9479 C   0  0  0  0  0  0  0  0  0  0  0  0
    2.4938   -2.2448    0.5298 C   0  0  0  0  0  0  0  0  0  0  0  0
    2.7523   -3.4055    1.2374 C   0  0  0  0  0  0  0  0  0  0  0  0
    3.4680   -3.3596    2.4415 C   0  0  0  0  0  0  0  0  0  0  0  0
    3.7473   -4.5457    3.1903 C   0  0  0  0  0  0  0  0  0  0  0  0
    4.4427   -4.5064    4.3603 C   0  0  0  0  0  0  0  0  0  0  0  0
    4.9399   -3.2725    4.9174 C   0  0  0  0  0  0  0  0  0  0  0  0
    5.6745   -3.2046    6.1466 C   0  0  0  0  0  0  0  0  0  0  0  0
    6.0203   -4.4465    7.0161 C   0  0  1  0  0  0  0  0  0  0  0  0
    6.9242   -5.4354    6.2356 C   0  0  0  0  0  0  0  0  0  0  0  0
    6.8204   -4.0612    8.2814 C   0  0  0  0  0  0  0  0  0  0  0  0
    4.7323   -5.1392    7.5314 C   0  0  0  0  0  0  0  0  0  0  0  0
    6.0998   -1.9379    6.5771 C   0  0  0  0  0  0  0  0  0  0  0  0
    5.8383   -0.7724    5.8658 C   0  0  0  0  0  0  0  0  0  0  0  0
    5.1246   -0.8114    4.6638 C   0  0  0  0  0  0  0  0  0  0  0  0
    4.8442    0.3746    3.9141 C   0  0  0  0  0  0  0  0  0  0  0  0
    4.1506    0.3400    2.7443 C   0  0  0  0  0  0  0  0  0  0  0  0
    3.6476   -0.8889    2.1742 C   0  0  0  0  0  0  0  0  0  0  0  0
    3.9260   -2.0997    2.9271 C   0  0  0  0  0  0  0  0  0  0  0  0
    4.6618   -2.0677    4.1681 C   0  0  0  0  0  0  0  0  0  0  0  0
    0.6226    0.9629   -0.8575 H   0  0  0  0  0  0  0  0  0  0  0  0
    0.4843    0.4013    0.8280 H   0  0  0  0  0  0  0  0  0  0  0  0
    0.5446   -0.7744   -0.5019 H   0  0  0  0  0  0  0  0  0  0  0  0
    2.8151    0.6640   -2.1448 H   0  0  0  0  0  0  0  0  0  0  0  0
    2.8089   -1.0834   -1.8315 H   0  0  0  0  0  0  0  0  0  0  0  0
    4.2185   -0.1090   -1.3647 H   0  0  0  0  0  0  0  0  0  0  0  0
    2.5141    2.2886   -0.4845 H   0  0  0  0  0  0  0  0  0  0  0  0
    3.9835    1.7742    0.3508 H   0  0  0  0  0  0  0  0  0  0  0  0
    2.4499    1.9818    1.2545 H   0  0  0  0  0  0  0  0  0  0  0  0
    1.9331   -2.3407   -0.4002 H   0  0  0  0  0  0  0  0  0  0  0  0
    2.3980   -4.3682    0.8593 H   0  0  0  0  0  0  0  0  0  0  0  0
    3.3865   -5.5014    2.8005 H   0  0  0  0  0  0  0  0  0  0  0  0
    4.6194   -5.4433    4.8775 H   0  0  0  0  0  0  0  0  0  0  0  0
    7.8667   -4.9433    5.9473 H   0  0  0  0  0  0  0  0  0  0  0  0
    6.4678   -5.8242    5.3171 H   0  0  0  0  0  0  0  0  0  0  0  0
    7.1775   -6.2985    6.8731 H   0  0  0  0  0  0  0  0  0  0  0  0
    7.7847   -3.5891    8.0388 H   0  0  0  0  0  0  0  0  0  0  0  0
    7.0387   -4.9724    8.8596 H   0  0  0  0  0  0  0  0  0  0  0  0
    6.2586   -3.3824    8.9410 H   0  0  0  0  0  0  0  0  0  0  0  0
    4.0723   -5.5005    6.7334 H   0  0  0  0  0  0  0  0  0  0  0  0
    4.1449   -4.4402    8.1478 H   0  0  0  0  0  0  0  0  0  0  0  0
    4.9958   -6.0036    8.1629 H   0  0  0  0  0  0  0  0  0  0  0  0
    6.6598   -1.8417    7.5047 H   0  0  0  0  0  0  0  0  0  0  0  0
    6.1929    0.1892    6.2467 H   0  0  0  0  0  0  0  0  0  0  0  0
    5.2039    1.3308    4.3043 H   0  0  0  0  0  0  0  0  0  0  0  0
    3.9792    1.2777    2.2365 H   0  0  0  0  0  0  0  0  0  0  0  0
  2  1  1  6
  1 25  1  0
  1 26  1  0
  1 27  1  0
  2  3  1  0
  2  4  1  0
  2  5  1  0
  3 28  1  0
  3 29  1  0
  3 30  1  0
  4 31  1  0
  4 32  1  0
  4 33  1  0
  5  6  2  0
  5 22  1  0
  6  7  1  0
  6 34  1  0
  7  8  2  0
  7 35  1  0
  8  9  1  0
  8 23  1  0
  9 10  2  0
  9 36  1  0
 10 11  1  0
 10 37  1  0
 11 12  2  0
 11 24  1  0
 12 13  1  0
 12 17  1  0
 13 14  1  6
 13 15  1  0
 13 16  1  0
 14 38  1  0
 14 39  1  0
 14 40  1  0
 15 41  1  0
 15 42  1  0
 15 43  1  0
 16 44  1  0
 16 45  1  0
 16 46  1  0
 17 18  2  0
 17 47  1  0
 18 19  1  0
 18 48  1  0
 19 20  2  0
 19 24  1  0
 20 21  1  0
 20 49  1  0
 21 22  2  0
 21 50  1  0
 22 23  1  0
 23 24  2  0
M  END

