
     RDKit          3D

 28 30  0  0  0  0  0  0  0  0999 V2000
    1.4797    0.1469    0.0500 C   0  0  0  0  0  0  0  0  0  0  0  0
    2.9503   -0.0983    0.0972 C   0  0  0  0  0  0  0  0  0  0  0  0
    3.6347   -1.2894    0.1371 C   0  0  0  0  0  0  0  0  0  0  0  0
    3.0299   -2.6458    0.1180 C   0  0  0  0  0  0  0  0  0  0  0  0
    1.8682   -2.8628    0.3534 O   0  0  0  0  0  0  0  0  0  0  0  0
    3.8613   -3.6663   -0.1889 O   0  0  0  0  0  0  0  0  0  0  0  0
    5.4036   -1.0611    0.2005 S   0  0  0  0  0  0  0  0  0  0  0  0
    5.1748    0.6682    0.1214 C   0  0  0  0  0  0  0  0  0  0  0  0
    5.9427    1.7180    0.1137 N   0  0  0  0  0  0  0  0  0  0  0  0
    5.0700    2.7958    0.0681 C   0  0  0  0  0  0  0  0  0  0  0  0
    5.5781    4.1749    0.0428 C   0  0  0  0  0  0  0  0  0  0  0  0
    6.9648    4.4089    0.0731 C   0  0  0  0  0  0  0  0  0  0  0  0
    7.4768    5.7060    0.0508 C   0  0  0  0  0  0  0  0  0  0  0  0
    6.5979    6.7913   -0.0026 C   0  0  0  0  0  0  0  0  0  0  0  0
    7.2879    8.5687   -0.0336 Br  0  0  0  0  0  0  0  0  0  0  0  0
    5.2148    6.5866   -0.0338 C   0  0  0  0  0  0  0  0  0  0  0  0
    4.7154    5.2851   -0.0112 C   0  0  0  0  0  0  0  0  0  0  0  0
    3.7509    2.3592    0.0517 C   0  0  0  0  0  0  0  0  0  0  0  0
    3.8247    0.9770    0.0882 N   0  0  0  0  0  0  0  0  0  0  0  0
    0.9357   -0.8031    0.0481 H   0  0  0  0  0  0  0  0  0  0  0  0
    1.2156    0.7328   -0.8465 H   0  0  0  0  0  0  0  0  0  0  0  0
    1.1656    0.7316    0.9315 H   0  0  0  0  0  0  0  0  0  0  0  0
    4.7203   -3.3511   -0.5082 H   0  0  0  0  0  0  0  0  0  0  0  0
    7.6385    3.5518    0.1146 H   0  0  0  0  0  0  0  0  0  0  0  0
    8.5549    5.8738    0.0748 H   0  0  0  0  0  0  0  0  0  0  0  0
    4.5344    7.4386   -0.0757 H   0  0  0  0  0  0  0  0  0  0  0  0
    3.6327    5.1410   -0.0369 H   0  0  0  0  0  0  0  0  0  0  0  0
    2.8047    2.8895    0.0220 H   0  0  0  0  0  0  0  0  0  0  0  0
  1  2  1  0
  1 20  1  0
  1 21  1  0
  1 22  1  0
  2  3  2  0
  2 19  1  0
  3  4  1  0
  3  7  1  0
  4  5  2  0
  4  6  1  0
  6 23  1  0
  7  8  1  0
  8  9  2  0
  8 19  1  0
  9 10  1  0
 10 11  1  0
 10 18  2  0
 11 12  2  0
 11 17  1  0
 12 13  1  0
 12 24  1  0
 13 14  2  0
 13 25  1  0
 14 15  1  0
 14 16  1  0
 16 17  2  0
 16 26  1  0
 17 27  1  0
 18 19  1  0
 18 28  1  0
M  END

