
     RDKit          3D

 55 58  0  0  0  0  0  0  0  0999 V2000
   -0.0642    0.6098    0.6731 C   0  0  0  0  0  0  0  0  0  0  0  0
    0.8807    1.6337    0.4630 O   0  0  0  0  0  0  0  0  0  0  0  0
    1.9574    1.7239    1.2836 C   0  0  0  0  0  0  0  0  0  0  0  0
    2.2196    0.8545    2.3529 C   0  0  0  0  0  0  0  0  0  0  0  0
    3.3643    1.0410    3.1343 C   0  0  0  0  0  0  0  0  0  0  0  0
    4.2789    2.0768    2.8760 C   0  0  0  0  0  0  0  0  0  0  0  0
    5.4612    2.2883    3.7298 C   0  0  0  0  0  0  0  0  0  0  0  0
    6.3521    1.4010    4.2931 C   0  0  0  0  0  0  0  0  0  0  0  0
    6.5932    0.0884    4.0111 N   0  0  0  0  0  0  0  0  0  0  0  0
    6.1392   -0.5008    2.7628 C   0  0  0  0  0  0  0  0  0  0  0  0
    7.1537   -0.8534    4.9898 C   0  0  0  0  0  0  0  0  0  0  0  0
    6.1130   -1.8007    5.5660 C   0  0  0  0  0  0  0  0  0  0  0  0
    5.0939   -1.3134    6.4020 C   0  0  0  0  0  0  0  0  0  0  0  0
    4.1322   -2.1753    6.9333 C   0  0  0  0  0  0  0  0  0  0  0  0
    4.1757   -3.5433    6.6400 C   0  0  0  0  0  0  0  0  0  0  0  0
    5.1861   -4.0403    5.8137 C   0  0  0  0  0  0  0  0  0  0  0  0
    6.1452   -3.1725    5.2800 C   0  0  0  0  0  0  0  0  0  0  0  0
    7.2574    2.1806    5.2426 C   0  0  0  0  0  0  0  0  0  0  0  0
    8.1709    1.7504    5.9139 O   0  0  0  0  0  0  0  0  0  0  0  0
    6.8534    3.5083    5.1775 N   0  0  0  0  0  0  0  0  0  0  0  0
    7.4439    4.5844    5.9023 C   0  0  0  0  0  0  0  0  0  0  0  0
    8.8362    4.6454    6.0686 C   0  0  0  0  0  0  0  0  0  0  0  0
    9.3902    5.7056    6.7850 C   0  0  0  0  0  0  0  0  0  0  0  0
    8.5769    6.7082    7.3204 C   0  0  0  0  0  0  0  0  0  0  0  0
    7.1857    6.6630    7.1527 C   0  0  0  0  0  0  0  0  0  0  0  0
    6.2922    7.7497    7.7013 C   0  0  0  0  0  0  0  0  0  0  0  0
    6.6294    5.5855    6.4475 C   0  0  0  0  0  0  0  0  0  0  0  0
    5.7732    3.6397    4.2526 C   0  0  0  0  0  0  0  0  0  0  0  0
    5.2336    4.6894    3.9899 O   0  0  0  0  0  0  0  0  0  0  0  0
    3.9841    2.9529    1.8072 C   0  0  0  0  0  0  0  0  0  0  0  0
    2.8514    2.7782    1.0235 C   0  0  0  0  0  0  0  0  0  0  0  0
   -0.8355    0.7313   -0.0994 H   0  0  0  0  0  0  0  0  0  0  0  0
   -0.5404    0.6857    1.6676 H   0  0  0  0  0  0  0  0  0  0  0  0
    0.3865   -0.3945    0.5726 H   0  0  0  0  0  0  0  0  0  0  0  0
    1.5378    0.0396    2.5972 H   0  0  0  0  0  0  0  0  0  0  0  0
    3.5329    0.3745    3.9834 H   0  0  0  0  0  0  0  0  0  0  0  0
    6.0767    0.2690    1.9838 H   0  0  0  0  0  0  0  0  0  0  0  0
    5.1535   -0.9906    2.8421 H   0  0  0  0  0  0  0  0  0  0  0  0
    6.8725   -1.2616    2.4497 H   0  0  0  0  0  0  0  0  0  0  0  0
    7.6366   -0.2748    5.7842 H   0  0  0  0  0  0  0  0  0  0  0  0
    7.9434   -1.4386    4.4894 H   0  0  0  0  0  0  0  0  0  0  0  0
    5.0580   -0.2477    6.6461 H   0  0  0  0  0  0  0  0  0  0  0  0
    3.3494   -1.7801    7.5860 H   0  0  0  0  0  0  0  0  0  0  0  0
    3.4252   -4.2188    7.0585 H   0  0  0  0  0  0  0  0  0  0  0  0
    5.2297   -5.1077    5.5817 H   0  0  0  0  0  0  0  0  0  0  0  0
    6.9347   -3.5690    4.6345 H   0  0  0  0  0  0  0  0  0  0  0  0
    9.4721    3.8637    5.6560 H   0  0  0  0  0  0  0  0  0  0  0  0
   10.4734    5.7512    6.9241 H   0  0  0  0  0  0  0  0  0  0  0  0
    9.0277    7.5353    7.8759 H   0  0  0  0  0  0  0  0  0  0  0  0
    6.8278    8.3909    8.4171 H   0  0  0  0  0  0  0  0  0  0  0  0
    5.4119    7.3287    8.2128 H   0  0  0  0  0  0  0  0  0  0  0  0
    5.9138    8.3974    6.8917 H   0  0  0  0  0  0  0  0  0  0  0  0
    5.5499    5.5324    6.3071 H   0  0  0  0  0  0  0  0  0  0  0  0
    4.6575    3.7844    1.5958 H   0  0  0  0  0  0  0  0  0  0  0  0
    2.6286    3.4526    0.1941 H   0  0  0  0  0  0  0  0  0  0  0  0
  1  2  1  0
  1 32  1  0
  1 33  1  0
  1 34  1  0
  2  3  1  0
  3  4  2  0
  3 31  1  0
  4  5  1  0
  4 35  1  0
  5  6  2  0
  5 36  1  0
  6  7  1  0
  6 30  1  0
  7  8  2  0
  7 28  1  0
  8  9  1  0
  8 18  1  0
  9 10  1  0
  9 11  1  0
 10 37  1  0
 10 38  1  0
 10 39  1  0
 11 12  1  0
 11 40  1  0
 11 41  1  0
 12 13  2  0
 12 17  1  0
 13 14  1  0
 13 42  1  0
 14 15  2  0
 14 43  1  0
 15 16  1  0
 15 44  1  0
 16 17  2  0
 16 45  1  0
 17 46  1  0
 18 19  2  0
 18 20  1  0
 20 21  1  0
 20 28  1  0
 21 22  2  0
 21 27  1  0
 22 23  1  0
 22 47  1  0
 23 24  2  0
 23 48  1  0
 24 25  1  0
 24 49  1  0
 25 26  1  0
 25 27  2  0
 26 50  1  0
 26 51  1  0
 26 52  1  0
 27 53  1  0
 28 29  2  0
 30 31  2  0
 30 54  1  0
 31 55  1  0
M  END

