
     RDKit          3D

 55 57  0  0  0  0  0  0  0  0999 V2000
    1.9124    1.3902   -0.0653 C   0  0  0  0  0  0  0  0  0  0  0  0
    2.1294    0.0519    0.3329 O   0  0  0  0  0  0  0  0  0  0  0  0
    3.0092   -0.2125    1.3316 C   0  0  0  0  0  0  0  0  0  0  0  0
    3.7277    0.7648    2.0208 C   0  0  0  0  0  0  0  0  0  0  0  0
    4.6027    0.3840    3.0508 C   0  0  0  0  0  0  0  0  0  0  0  0
    5.3311    1.4758    3.7602 C   0  0  0  0  0  0  0  0  0  0  0  0
    5.4955    2.6056    3.3023 O   0  0  0  0  0  0  0  0  0  0  0  0
    5.8505    1.1746    4.9897 N   0  0  0  0  0  0  0  0  0  0  0  0
    6.3918    2.2428    5.6888 O   0  0  0  0  0  0  0  0  0  0  0  0
    4.7688   -0.9677    3.3641 C   0  0  0  0  0  0  0  0  0  0  0  0
    4.0522   -1.9557    2.6696 C   0  0  0  0  0  0  0  0  0  0  0  0
    3.1691   -1.5834    1.6476 C   0  0  0  0  0  0  0  0  0  0  0  0
    2.3575   -2.5937    0.8691 C   0  0  0  0  0  0  0  0  0  0  0  0
    2.8256   -3.9572    1.1114 N   0  0  0  0  0  0  0  0  0  0  0  0
    2.0651   -5.1543    0.1744 S   0  0  1  0  0  0  0  0  0  0  0  0
    2.4769   -6.4377    0.7504 O   0  0  0  0  0  0  0  0  0  0  0  0
    0.6437   -4.8330   -0.0047 O   0  0  0  0  0  0  0  0  0  0  0  0
    2.8647   -4.9565   -1.4178 C   0  0  0  0  0  0  0  0  0  0  0  0
    4.1941   -5.3507   -1.5751 C   0  0  0  0  0  0  0  0  0  0  0  0
    4.8002   -5.2282   -2.8264 C   0  0  0  0  0  0  0  0  0  0  0  0
    4.1003   -4.7238   -3.9380 C   0  0  0  0  0  0  0  0  0  0  0  0
    4.7432   -4.5795   -5.3308 C   0  0  1  0  0  0  0  0  0  0  0  0
    6.2131   -5.0365   -5.3455 C   0  0  0  0  0  0  0  0  0  0  0  0
    3.9576   -5.4413   -6.3469 C   0  0  0  0  0  0  0  0  0  0  0  0
    4.6930   -3.0958   -5.7646 C   0  0  0  0  0  0  0  0  0  0  0  0
    2.7576   -4.3481   -3.7436 C   0  0  0  0  0  0  0  0  0  0  0  0
    2.1348   -4.4618   -2.5004 C   0  0  0  0  0  0  0  0  0  0  0  0
    3.0749   -4.2750    2.5201 C   0  0  0  0  0  0  0  0  0  0  0  0
    4.2456   -3.4214    2.9987 C   0  0  0  0  0  0  0  0  0  0  0  0
    1.1746    1.3573   -0.8777 H   0  0  0  0  0  0  0  0  0  0  0  0
    2.8395    1.8603   -0.4375 H   0  0  0  0  0  0  0  0  0  0  0  0
    1.5106    2.0010    0.7620 H   0  0  0  0  0  0  0  0  0  0  0  0
    3.6389    1.8252    1.7901 H   0  0  0  0  0  0  0  0  0  0  0  0
    5.3927    0.5117    5.6070 H   0  0  0  0  0  0  0  0  0  0  0  0
    6.2836    2.9682    5.0318 H   0  0  0  0  0  0  0  0  0  0  0  0
    5.4842   -1.2730    4.1317 H   0  0  0  0  0  0  0  0  0  0  0  0
    2.4365   -2.3654   -0.2055 H   0  0  0  0  0  0  0  0  0  0  0  0
    1.2839   -2.4812    1.1219 H   0  0  0  0  0  0  0  0  0  0  0  0
    4.7482   -5.7574   -0.7271 H   0  0  0  0  0  0  0  0  0  0  0  0
    5.8391   -5.5414   -2.9265 H   0  0  0  0  0  0  0  0  0  0  0  0
    6.3175   -6.0986   -5.0739 H   0  0  0  0  0  0  0  0  0  0  0  0
    6.8364   -4.4429   -4.6585 H   0  0  0  0  0  0  0  0  0  0  0  0
    6.6296   -4.9134   -6.3573 H   0  0  0  0  0  0  0  0  0  0  0  0
    3.9765   -6.5051   -6.0619 H   0  0  0  0  0  0  0  0  0  0  0  0
    4.4036   -5.3497   -7.3507 H   0  0  0  0  0  0  0  0  0  0  0  0
    2.9038   -5.1330   -6.4218 H   0  0  0  0  0  0  0  0  0  0  0  0
    5.2474   -2.4577   -5.0582 H   0  0  0  0  0  0  0  0  0  0  0  0
    3.6612   -2.7170   -5.8206 H   0  0  0  0  0  0  0  0  0  0  0  0
    5.1469   -2.9737   -6.7616 H   0  0  0  0  0  0  0  0  0  0  0  0
    2.1736   -3.9594   -4.5805 H   0  0  0  0  0  0  0  0  0  0  0  0
    1.0896   -4.1808   -2.3611 H   0  0  0  0  0  0  0  0  0  0  0  0
    3.3045   -5.3443    2.6003 H   0  0  0  0  0  0  0  0  0  0  0  0
    2.1761   -4.0757    3.1383 H   0  0  0  0  0  0  0  0  0  0  0  0
    5.1719   -3.7836    2.5184 H   0  0  0  0  0  0  0  0  0  0  0  0
    4.3811   -3.5501    4.0852 H   0  0  0  0  0  0  0  0  0  0  0  0
  1  2  1  0
  1 30  1  0
  1 31  1  0
  1 32  1  0
  2  3  1  0
  3  4  2  0
  3 12  1  0
  4  5  1  0
  4 33  1  0
  5  6  1  0
  5 10  2  0
  6  7  2  0
  6  8  1  0
  8  9  1  0
  8 34  1  0
  9 35  1  0
 10 11  1  0
 10 36  1  0
 11 12  2  0
 11 29  1  0
 12 13  1  0
 13 14  1  0
 13 37  1  0
 13 38  1  0
 14 15  1  0
 14 28  1  0
 15 16  2  0
 15 17  2  0
 15 18  1  6
 18 19  2  0
 18 27  1  0
 19 20  1  0
 19 39  1  0
 20 21  2  0
 20 40  1  0
 21 22  1  0
 21 26  1  0
 22 23  1  1
 22 24  1  0
 22 25  1  0
 23 41  1  0
 23 42  1  0
 23 43  1  0
 24 44  1  0
 24 45  1  0
 24 46  1  0
 25 47  1  0
 25 48  1  0
 25 49  1  0
 26 27  2  0
 26 50  1  0
 27 51  1  0
 28 29  1  0
 28 52  1  0
 28 53  1  0
 29 54  1  0
 29 55  1  0
M  END

