
     RDKit          3D

 31 32  0  0  0  0  0  0  0  0999 V2000
    0.9721    0.3624    0.6730 N   0  0  0  0  0  0  0  0  0  0  0  0
    2.3286    0.2784    0.5188 C   0  0  0  0  0  0  0  0  0  0  0  0
    3.1809    0.2230    1.6426 C   0  0  0  0  0  0  0  0  0  0  0  0
    4.5499    0.1135    1.4639 C   0  0  0  0  0  0  0  0  0  0  0  0
    5.3045    0.0286    2.5617 F   0  0  0  0  0  0  0  0  0  0  0  0
    5.1625    0.0638    0.1959 C   0  0  0  0  0  0  0  0  0  0  0  0
    6.9608    0.0483    0.0236 S   0  0  1  0  0  0  0  0  0  0  0  0
    7.2788    0.3865   -1.3575 O   0  0  0  0  0  0  0  0  0  0  0  0
    7.5146    0.7977    1.1464 O   0  0  0  0  0  0  0  0  0  0  0  0
    7.4373   -1.5399    0.2362 N   0  0  0  0  0  0  0  0  0  0  0  0
    7.4950   -2.1615    1.5658 C   0  0  0  0  0  0  0  0  0  0  0  0
    8.2380   -3.4461    1.2212 C   0  0  2  0  0  0  0  0  0  0  0  0
    9.6155   -3.2116    0.9754 O   0  0  0  0  0  0  0  0  0  0  0  0
    7.5575   -3.8986   -0.0997 C   0  0  2  0  0  0  0  0  0  0  0  0
    8.3845   -4.7323   -0.8548 O   0  0  0  0  0  0  0  0  0  0  0  0
    7.1727   -2.5551   -0.7973 C   0  0  0  0  0  0  0  0  0  0  0  0
    4.2832    0.0893   -0.9053 C   0  0  0  0  0  0  0  0  0  0  0  0
    4.7563   -0.0083   -2.1442 F   0  0  0  0  0  0  0  0  0  0  0  0
    2.9071    0.1997   -0.7646 C   0  0  0  0  0  0  0  0  0  0  0  0
    0.5893    0.6024    1.5774 H   0  0  0  0  0  0  0  0  0  0  0  0
    0.3945    0.5791   -0.1281 H   0  0  0  0  0  0  0  0  0  0  0  0
    2.7890    0.2552    2.6605 H   0  0  0  0  0  0  0  0  0  0  0  0
    6.4930   -2.3857    1.9817 H   0  0  0  0  0  0  0  0  0  0  0  0
    8.0327   -1.5183    2.2743 H   0  0  0  0  0  0  0  0  0  0  0  0
    8.1780   -4.2125    2.0077 H   0  0  0  0  0  0  0  0  0  0  0  0
    9.6865   -2.3394    0.5544 H   0  0  0  0  0  0  0  0  0  0  0  0
    6.6371   -4.4594    0.1348 H   0  0  0  0  0  0  0  0  0  0  0  0
    9.2925   -4.4673   -0.6243 H   0  0  0  0  0  0  0  0  0  0  0  0
    6.1158   -2.5559   -1.1195 H   0  0  0  0  0  0  0  0  0  0  0  0
    7.7958   -2.3804   -1.6854 H   0  0  0  0  0  0  0  0  0  0  0  0
    2.2953    0.2155   -1.6682 H   0  0  0  0  0  0  0  0  0  0  0  0
  1  2  1  0
  1 20  1  0
  1 21  1  0
  2  3  2  0
  2 19  1  0
  3  4  1  0
  3 22  1  0
  4  5  1  0
  4  6  2  0
  7  6  1  6
  6 17  1  0
  7  8  2  0
  7  9  2  0
  7 10  1  0
 10 11  1  0
 10 16  1  0
 11 12  1  0
 11 23  1  0
 11 24  1  0
 12 13  1  0
 12 14  1  0
 12 25  1  1
 13 26  1  0
 14 15  1  0
 14 16  1  0
 14 27  1  1
 15 28  1  0
 16 29  1  0
 16 30  1  0
 17 18  1  0
 17 19  2  0
 19 31  1  0
M  END

