
     RDKit          3D

 45 48  0  0  0  0  0  0  0  0999 V2000
    5.2838    0.8245    2.8430 O   0  0  0  0  0  0  0  0  0  0  0  0
    4.0996    0.9974    2.9640 C   0  0  0  0  0  0  0  0  0  0  0  0
    3.6238    2.1970    3.3716 O   0  0  0  0  0  0  0  0  0  0  0  0
    3.0767   -0.0710    2.6904 C   0  0  0  0  0  0  0  0  0  0  0  0
    1.7239    0.2078    2.4417 C   0  0  0  0  0  0  0  0  0  0  0  0
    0.8360   -0.8362    2.1704 C   0  0  0  0  0  0  0  0  0  0  0  0
    1.2888   -2.1567    2.1499 C   0  0  0  0  0  0  0  0  0  0  0  0
    2.6411   -2.4539    2.3883 C   0  0  0  0  0  0  0  0  0  0  0  0
    3.1312   -3.8908    2.3988 C   0  0  0  0  0  0  0  0  0  0  0  0
    2.4335   -4.7206    1.4311 N   0  0  0  0  0  0  0  0  0  0  0  0
    2.6178   -6.1413    1.5309 C   0  0  1  0  0  0  0  0  0  0  0  0
    1.9405   -7.0243    0.4535 C   0  0  2  0  0  0  0  0  0  0  0  0
    0.7515   -7.9275    0.1565 C   0  0  0  0  0  0  0  0  0  0  0  0
    1.5307   -9.0409   -0.6620 C   0  0  0  0  0  0  0  0  0  0  0  0
    2.9540   -8.9171   -0.3984 O   0  0  0  0  0  0  0  0  0  0  0  0
    3.0135   -8.0396    0.7021 C   0  0  1  0  0  0  0  0  0  0  0  0
    3.9916   -6.8963    1.1070 C   0  0  1  0  0  0  0  0  0  0  0  0
    4.7781   -6.2701   -0.0781 C   0  0  0  0  0  0  0  0  0  0  0  0
    6.2773   -6.3791    0.2953 C   0  0  0  0  0  0  0  0  0  0  0  0
    6.3316   -7.4685    1.3771 C   0  0  0  0  0  0  0  0  0  0  0  0
    5.0494   -7.2089    2.1779 C   0  0  0  0  0  0  0  0  0  0  0  0
    3.5241   -1.4000    2.6427 C   0  0  0  0  0  0  0  0  0  0  0  0
    2.6749    2.1400    3.5500 H   0  0  0  0  0  0  0  0  0  0  0  0
    1.3544    1.2377    2.4179 H   0  0  0  0  0  0  0  0  0  0  0  0
   -0.2149   -0.6165    1.9658 H   0  0  0  0  0  0  0  0  0  0  0  0
    0.6041   -2.9787    1.9311 H   0  0  0  0  0  0  0  0  0  0  0  0
    2.9417   -4.3223    3.3999 H   0  0  0  0  0  0  0  0  0  0  0  0
    4.2350   -3.8883    2.2813 H   0  0  0  0  0  0  0  0  0  0  0  0
    2.5909   -4.3867    0.4814 H   0  0  0  0  0  0  0  0  0  0  0  0
    2.3594   -6.4525    2.5577 H   0  0  0  0  0  0  0  0  0  0  0  0
    2.2110   -6.5392   -0.5025 H   0  0  0  0  0  0  0  0  0  0  0  0
   -0.0555   -7.4796   -0.4427 H   0  0  0  0  0  0  0  0  0  0  0  0
    0.3094   -8.3535    1.0707 H   0  0  0  0  0  0  0  0  0  0  0  0
    1.3793   -8.9279   -1.7481 H   0  0  0  0  0  0  0  0  0  0  0  0
    1.1924  -10.0515   -0.3750 H   0  0  0  0  0  0  0  0  0  0  0  0
    2.7949   -8.6062    1.6332 H   0  0  0  0  0  0  0  0  0  0  0  0
    4.4885   -5.2225   -0.2642 H   0  0  0  0  0  0  0  0  0  0  0  0
    4.5640   -6.8284   -1.0030 H   0  0  0  0  0  0  0  0  0  0  0  0
    6.6337   -5.4247    0.7191 H   0  0  0  0  0  0  0  0  0  0  0  0
    6.9146   -6.5988   -0.5751 H   0  0  0  0  0  0  0  0  0  0  0  0
    7.2482   -7.4331    1.9873 H   0  0  0  0  0  0  0  0  0  0  0  0
    6.2831   -8.4684    0.9115 H   0  0  0  0  0  0  0  0  0  0  0  0
    5.1929   -6.3277    2.8290 H   0  0  0  0  0  0  0  0  0  0  0  0
    4.7526   -8.0460    2.8302 H   0  0  0  0  0  0  0  0  0  0  0  0
    4.5878   -1.5874    2.8081 H   0  0  0  0  0  0  0  0  0  0  0  0
  1  2  2  0
  2  3  1  0
  2  4  1  0
  3 23  1  0
  4  5  2  0
  4 22  1  0
  5  6  1  0
  5 24  1  0
  6  7  2  0
  6 25  1  0
  7  8  1  0
  7 26  1  0
  8  9  1  0
  8 22  2  0
  9 10  1  0
  9 27  1  0
  9 28  1  0
 10 11  1  0
 10 29  1  0
 11 12  1  0
 11 17  1  0
 11 30  1  1
 12 13  1  0
 12 16  1  0
 12 31  1  6
 13 14  1  0
 13 32  1  0
 13 33  1  0
 14 15  1  0
 14 34  1  0
 14 35  1  0
 15 16  1  0
 16 17  1  0
 16 36  1  1
 17 18  1  6
 17 21  1  0
 18 19  1  0
 18 37  1  0
 18 38  1  0
 19 20  1  0
 19 39  1  0
 19 40  1  0
 20 21  1  0
 20 41  1  0
 20 42  1  0
 21 43  1  0
 21 44  1  0
 22 45  1  0
M  END

