
     RDKit          3D

 55 57  0  0  0  0  0  0  0  0999 V2000
    7.2502    0.7368    1.2122 C   0  0  0  0  0  0  0  0  0  0  0  0
    7.8407   -0.3289    0.3046 C   0  0  0  0  0  0  0  0  0  0  0  0
    7.7701    0.0536   -1.0833 O   0  0  0  0  0  0  0  0  0  0  0  0
    6.6346   -0.2237   -1.7484 C   0  0  0  0  0  0  0  0  0  0  0  0
    5.6794   -0.7752   -1.2518 O   0  0  0  0  0  0  0  0  0  0  0  0
    6.6888    0.2225   -3.1762 C   0  0  0  0  0  0  0  0  0  0  0  0
    5.5586    0.0021   -3.9791 C   0  0  0  0  0  0  0  0  0  0  0  0
    5.5529    0.3988   -5.3149 C   0  0  0  0  0  0  0  0  0  0  0  0
    6.6873    1.0139   -5.8703 C   0  0  0  0  0  0  0  0  0  0  0  0
    6.6833    1.4414   -7.2393 N   0  0  0  0  0  0  0  0  0  0  0  0
    6.5918    2.8934   -7.4654 C   0  0  0  0  0  0  0  0  0  0  0  0
    5.2526    3.4917   -7.0886 C   0  0  0  0  0  0  0  0  0  0  0  0
    5.1276    4.4087   -6.0390 C   0  0  0  0  0  0  0  0  0  0  0  0
    3.8710    4.9379   -5.7372 C   0  0  0  0  0  0  0  0  0  0  0  0
    2.7766    4.5214   -6.4991 C   0  0  0  0  0  0  0  0  0  0  0  0
    2.8760    3.6473   -7.5048 N   0  0  0  0  0  0  0  0  0  0  0  0
    4.0804    3.1516   -7.7904 C   0  0  0  0  0  0  0  0  0  0  0  0
    6.7075    0.5496   -8.2989 C   0  0  0  0  0  0  0  0  0  0  0  0
    6.4710    0.9830   -9.8847 S   0  0  0  0  0  0  0  0  0  0  0  0
    7.0180   -0.7476   -7.8955 N   0  0  0  0  0  0  0  0  0  0  0  0
    6.8187   -1.9628   -8.5758 C   0  0  0  0  0  0  0  0  0  0  0  0
    6.2409   -2.0624   -9.6312 O   0  0  0  0  0  0  0  0  0  0  0  0
    7.3650   -3.1488   -7.8271 C   0  0  0  0  0  0  0  0  0  0  0  0
    7.0080   -3.3108   -6.4707 C   0  0  0  0  0  0  0  0  0  0  0  0
    7.3112   -4.4664   -5.7584 C   0  0  0  0  0  0  0  0  0  0  0  0
    7.9958   -5.5023   -6.4069 C   0  0  0  0  0  0  0  0  0  0  0  0
    8.3805   -5.3598   -7.7341 C   0  0  0  0  0  0  0  0  0  0  0  0
    8.0857   -4.1908   -8.4644 C   0  0  0  0  0  0  0  0  0  0  0  0
    8.5564   -4.1952   -9.7285 O   0  0  0  0  0  0  0  0  0  0  0  0
    8.8650   -3.0161  -10.4559 C   0  0  0  0  0  0  0  0  0  0  0  0
    7.8179    1.2357   -5.0680 C   0  0  0  0  0  0  0  0  0  0  0  0
    7.8184    0.8450   -3.7285 C   0  0  0  0  0  0  0  0  0  0  0  0
    7.3912    0.4482    2.2661 H   0  0  0  0  0  0  0  0  0  0  0  0
    6.1712    0.8512    1.0316 H   0  0  0  0  0  0  0  0  0  0  0  0
    7.7430    1.7086    1.0532 H   0  0  0  0  0  0  0  0  0  0  0  0
    7.3208   -1.2894    0.4339 H   0  0  0  0  0  0  0  0  0  0  0  0
    8.9137   -0.4705    0.4983 H   0  0  0  0  0  0  0  0  0  0  0  0
    4.6848   -0.4749   -3.5311 H   0  0  0  0  0  0  0  0  0  0  0  0
    4.6704    0.2423   -5.9382 H   0  0  0  0  0  0  0  0  0  0  0  0
    6.7918    3.0439   -8.5363 H   0  0  0  0  0  0  0  0  0  0  0  0
    7.3896    3.3851   -6.8860 H   0  0  0  0  0  0  0  0  0  0  0  0
    6.0081    4.7081   -5.4622 H   0  0  0  0  0  0  0  0  0  0  0  0
    3.7404    5.6568   -4.9249 H   0  0  0  0  0  0  0  0  0  0  0  0
    1.7745    4.9138   -6.2879 H   0  0  0  0  0  0  0  0  0  0  0  0
    4.1401    2.4458   -8.6277 H   0  0  0  0  0  0  0  0  0  0  0  0
    7.4623   -0.8406   -6.9869 H   0  0  0  0  0  0  0  0  0  0  0  0
    6.4307   -2.5233   -5.9786 H   0  0  0  0  0  0  0  0  0  0  0  0
    7.0020   -4.5665   -4.7160 H   0  0  0  0  0  0  0  0  0  0  0  0
    8.2403   -6.4224   -5.8701 H   0  0  0  0  0  0  0  0  0  0  0  0
    8.9373   -6.1428   -8.2525 H   0  0  0  0  0  0  0  0  0  0  0  0
    9.6379   -3.3008  -11.1839 H   0  0  0  0  0  0  0  0  0  0  0  0
    9.2710   -2.2315   -9.7938 H   0  0  0  0  0  0  0  0  0  0  0  0
    7.9844   -2.6173  -10.9775 H   0  0  0  0  0  0  0  0  0  0  0  0
    8.7009    1.7102   -5.5026 H   0  0  0  0  0  0  0  0  0  0  0  0
    8.6971    1.0132   -3.1051 H   0  0  0  0  0  0  0  0  0  0  0  0
  1  2  1  0
  1 33  1  0
  1 34  1  0
  1 35  1  0
  2  3  1  0
  2 36  1  0
  2 37  1  0
  3  4  1  0
  4  5  2  0
  4  6  1  0
  6  7  2  0
  6 32  1  0
  7  8  1  0
  7 38  1  0
  8  9  2  0
  8 39  1  0
  9 10  1  0
  9 31  1  0
 10 11  1  0
 10 18  1  0
 11 12  1  0
 11 40  1  0
 11 41  1  0
 12 13  2  0
 12 17  1  0
 13 14  1  0
 13 42  1  0
 14 15  2  0
 14 43  1  0
 15 16  1  0
 15 44  1  0
 16 17  2  0
 17 45  1  0
 18 19  2  0
 18 20  1  0
 20 21  1  0
 20 46  1  0
 21 22  2  0
 21 23  1  0
 23 24  2  0
 23 28  1  0
 24 25  1  0
 24 47  1  0
 25 26  2  0
 25 48  1  0
 26 27  1  0
 26 49  1  0
 27 28  2  0
 27 50  1  0
 28 29  1  0
 29 30  1  0
 30 51  1  0
 30 52  1  0
 30 53  1  0
 31 32  2  0
 31 54  1  0
 32 55  1  0
M  END

