
     RDKit          3D

 33 34  0  0  0  0  0  0  0  0999 V2000
    4.7496    2.1915   -0.0550 N   0  0  0  0  0  0  0  0  0  0  0  0
    5.0030    2.5342    1.3437 C   0  0  0  0  0  0  0  0  0  0  0  0
    4.8060    1.3030    2.2269 C   0  0  0  0  0  0  0  0  0  0  0  0
    5.6201    0.2118    1.7382 N   0  0  0  0  0  0  0  0  0  0  0  0
    6.1345   -0.7452    2.5439 C   0  0  0  0  0  0  0  0  0  0  0  0
    6.0407   -0.7929    3.7505 O   0  0  0  0  0  0  0  0  0  0  0  0
    6.8032   -1.6755    1.7860 O   0  0  0  0  0  0  0  0  0  0  0  0
    7.4160   -2.7512    2.4778 C   0  0  0  0  0  0  0  0  0  0  0  0
    8.8835   -2.7835    2.2110 C   0  0  0  0  0  0  0  0  0  0  0  0
    9.6824   -1.9518    1.5245 C   0  0  0  0  0  0  0  0  0  0  0  0
   11.1036   -2.3449    1.4776 C   0  0  0  0  0  0  0  0  0  0  0  0
   12.1623   -1.6812    0.8522 C   0  0  0  0  0  0  0  0  0  0  0  0
   13.4518   -2.2268    0.9260 C   0  0  0  0  0  0  0  0  0  0  0  0
   13.6910   -3.4212    1.6144 C   0  0  0  0  0  0  0  0  0  0  0  0
   12.6365   -4.0986    2.2471 C   0  0  0  0  0  0  0  0  0  0  0  0
   11.3711   -3.5419    2.1605 C   0  0  0  0  0  0  0  0  0  0  0  0
    9.8406   -4.1790    2.8674 S   0  0  1  0  0  0  0  0  0  0  0  0
    9.8766   -4.1247    4.3328 O   0  0  0  0  0  0  0  0  0  0  0  0
    9.4242   -5.4161    2.1951 O   0  0  0  0  0  0  0  0  0  0  0  0
    5.0784    2.9267   -0.6793 H   0  0  0  0  0  0  0  0  0  0  0  0
    3.7482    2.0908   -0.2273 H   0  0  0  0  0  0  0  0  0  0  0  0
    4.3718    3.3569    1.7388 H   0  0  0  0  0  0  0  0  0  0  0  0
    6.0514    2.8656    1.4284 H   0  0  0  0  0  0  0  0  0  0  0  0
    3.7326    1.0237    2.2372 H   0  0  0  0  0  0  0  0  0  0  0  0
    5.0855    1.5153    3.2691 H   0  0  0  0  0  0  0  0  0  0  0  0
    5.7091    0.1314    0.7293 H   0  0  0  0  0  0  0  0  0  0  0  0
    6.9643   -3.6986    2.1330 H   0  0  0  0  0  0  0  0  0  0  0  0
    7.2259   -2.6584    3.5605 H   0  0  0  0  0  0  0  0  0  0  0  0
    9.3125   -1.0518    1.0298 H   0  0  0  0  0  0  0  0  0  0  0  0
   11.9852   -0.7472    0.3126 H   0  0  0  0  0  0  0  0  0  0  0  0
   14.2823   -1.7104    0.4385 H   0  0  0  0  0  0  0  0  0  0  0  0
   14.7027   -3.8305    1.6613 H   0  0  0  0  0  0  0  0  0  0  0  0
   12.8068   -5.0316    2.7890 H   0  0  0  0  0  0  0  0  0  0  0  0
  1  2  1  0
  1 20  1  0
  1 21  1  0
  2  3  1  0
  2 22  1  0
  2 23  1  0
  3  4  1  0
  3 24  1  0
  3 25  1  0
  4  5  1  0
  4 26  1  0
  5  6  2  0
  5  7  1  0
  7  8  1  0
  8  9  1  0
  8 27  1  0
  8 28  1  0
  9 10  2  0
 17  9  1  6
 10 11  1  0
 10 29  1  0
 11 12  2  0
 11 16  1  0
 12 13  1  0
 12 30  1  0
 13 14  2  0
 13 31  1  0
 14 15  1  0
 14 32  1  0
 15 16  2  0
 15 33  1  0
 16 17  1  0
 17 18  2  0
 17 19  2  0
M  END

