
     RDKit          3D

 60 65  0  0  0  0  0  0  0  0999 V2000
    6.8717  -13.6144   -7.6950 C   0  0  0  0  0  0  0  0  0  0  0  0
    6.2056  -12.3368   -7.5800 N   0  0  0  0  0  0  0  0  0  0  0  0
    5.6341  -11.6151   -8.6119 C   0  0  0  0  0  0  0  0  0  0  0  0
    5.0886  -10.4466   -8.1351 C   0  0  0  0  0  0  0  0  0  0  0  0
    5.3282  -10.4279   -6.7197 C   0  0  0  0  0  0  0  0  0  0  0  0
    5.0371   -9.5328   -5.6729 C   0  0  0  0  0  0  0  0  0  0  0  0
    5.4393   -9.8420   -4.3798 C   0  0  0  0  0  0  0  0  0  0  0  0
    6.1366  -11.0427   -4.0717 C   0  0  0  0  0  0  0  0  0  0  0  0
    6.5510  -11.3376   -2.6750 C   0  0  0  0  0  0  0  0  0  0  0  0
    6.5295  -12.6514   -2.1676 C   0  0  0  0  0  0  0  0  0  0  0  0
    6.9208  -12.9409   -0.8603 C   0  0  0  0  0  0  0  0  0  0  0  0
    7.3500  -11.9050   -0.0228 C   0  0  0  0  0  0  0  0  0  0  0  0
    7.7857  -12.1873    1.3085 N   0  0  0  0  0  0  0  0  0  0  0  0
    7.2263  -11.7752    2.5141 C   0  0  0  0  0  0  0  0  0  0  0  0
    5.8846  -11.1190    2.6513 C   0  0  0  0  0  0  0  0  0  0  0  0
    4.7092  -12.0383    3.0772 C   0  0  2  0  0  0  0  0  0  0  0  0
    3.8004  -11.4217    2.9920 H   0  0  0  0  0  0  0  0  0  0  0  0
    4.8199  -12.6111    4.5096 C   0  0  0  0  0  0  0  0  0  0  0  0
    5.5062  -13.9851    4.3637 C   0  0  0  0  0  0  0  0  0  0  0  0
    5.3658  -14.3082    2.9377 N   0  0  0  0  0  0  0  0  0  0  0  0
    6.0015  -15.3116    2.2621 C   0  0  0  0  0  0  0  0  0  0  0  0
    5.8988  -15.4333    1.0427 O   0  0  0  0  0  0  0  0  0  0  0  0
    6.8535  -16.2513    3.0669 C   0  0  1  0  0  0  0  0  0  0  0  0
    7.1745  -17.5923    2.4414 C   0  0  0  0  0  0  0  0  0  0  0  0
    8.2443  -16.5546    2.5222 C   0  0  0  0  0  0  0  0  0  0  0  0
    4.5604  -13.3126    2.2289 C   0  0  0  0  0  0  0  0  0  0  0  0
    7.9848  -12.0942    3.5223 N   0  0  0  0  0  0  0  0  0  0  0  0
    9.0534  -12.7457    2.9704 N   0  0  0  0  0  0  0  0  0  0  0  0
    9.8044  -13.0975    3.5493 H   0  0  0  0  0  0  0  0  0  0  0  0
    9.0004  -12.8547    1.5978 C   0  0  0  0  0  0  0  0  0  0  0  0
    9.7795  -13.3774    0.8310 O   0  0  0  0  0  0  0  0  0  0  0  0
    7.3895  -10.5907   -0.5069 C   0  0  0  0  0  0  0  0  0  0  0  0
    6.9855  -10.3124   -1.8118 C   0  0  0  0  0  0  0  0  0  0  0  0
    6.4308  -11.9456   -5.1031 C   0  0  0  0  0  0  0  0  0  0  0  0
    6.0282  -11.6306   -6.4061 C   0  0  0  0  0  0  0  0  0  0  0  0
    6.8693  -13.9322   -8.7462 H   0  0  0  0  0  0  0  0  0  0  0  0
    6.3605  -14.3882   -7.0976 H   0  0  0  0  0  0  0  0  0  0  0  0
    7.9189  -13.5514   -7.3545 H   0  0  0  0  0  0  0  0  0  0  0  0
    5.6646  -12.0037   -9.6290 H   0  0  0  0  0  0  0  0  0  0  0  0
    4.5784   -9.6901   -8.7274 H   0  0  0  0  0  0  0  0  0  0  0  0
    4.4930   -8.6059   -5.8723 H   0  0  0  0  0  0  0  0  0  0  0  0
    5.1889   -9.1559   -3.5679 H   0  0  0  0  0  0  0  0  0  0  0  0
    6.1674  -13.4656   -2.7989 H   0  0  0  0  0  0  0  0  0  0  0  0
    6.8611  -13.9600   -0.4739 H   0  0  0  0  0  0  0  0  0  0  0  0
    5.6259  -10.6420    1.6946 H   0  0  0  0  0  0  0  0  0  0  0  0
    5.9801  -10.3137    3.3964 H   0  0  0  0  0  0  0  0  0  0  0  0
    3.8080  -12.7369    4.9261 H   0  0  0  0  0  0  0  0  0  0  0  0
    5.3761  -11.9498    5.1899 H   0  0  0  0  0  0  0  0  0  0  0  0
    5.0247  -14.7459    5.0024 H   0  0  0  0  0  0  0  0  0  0  0  0
    6.5686  -13.9230    4.6391 H   0  0  0  0  0  0  0  0  0  0  0  0
    6.7508  -16.2204    4.1526 H   0  0  0  0  0  0  0  0  0  0  0  0
    6.7248  -17.7716    1.4619 H   0  0  0  0  0  0  0  0  0  0  0  0
    7.2256  -18.4567    3.1090 H   0  0  0  0  0  0  0  0  0  0  0  0
    8.5364  -16.0381    1.6037 H   0  0  0  0  0  0  0  0  0  0  0  0
    9.0463  -16.6795    3.2554 H   0  0  0  0  0  0  0  0  0  0  0  0
    3.5003  -13.6271    2.1869 H   0  0  0  0  0  0  0  0  0  0  0  0
    4.9086  -13.2166    1.1927 H   0  0  0  0  0  0  0  0  0  0  0  0
    7.7584   -9.7887    0.1371 H   0  0  0  0  0  0  0  0  0  0  0  0
    7.0451   -9.2859   -2.1795 H   0  0  0  0  0  0  0  0  0  0  0  0
    6.9896  -12.8596   -4.8934 H   0  0  0  0  0  0  0  0  0  0  0  0
  1  2  1  0
  1 36  1  0
  1 37  1  0
  1 38  1  0
  2  3  1  0
  2 35  1  0
  3  4  2  0
  3 39  1  0
  4  5  1  0
  4 40  1  0
  5  6  1  0
  5 35  2  0
  6  7  2  0
  6 41  1  0
  7  8  1  0
  7 42  1  0
  8  9  1  0
  8 34  2  0
  9 10  2  0
  9 33  1  0
 10 11  1  0
 10 43  1  0
 11 12  2  0
 11 44  1  0
 12 13  1  0
 12 32  1  0
 13 14  1  0
 13 30  1  0
 14 15  1  0
 14 27  2  0
 15 16  1  0
 15 45  1  0
 15 46  1  0
 16 17  1  1
 16 18  1  0
 16 26  1  0
 18 19  1  0
 18 47  1  0
 18 48  1  0
 19 20  1  0
 19 49  1  0
 19 50  1  0
 20 21  1  0
 20 26  1  0
 21 22  2  0
 21 23  1  0
 23 24  1  0
 23 25  1  0
 23 51  1  1
 24 25  1  0
 24 52  1  0
 24 53  1  0
 25 54  1  0
 25 55  1  0
 26 56  1  0
 26 57  1  0
 27 28  1  0
 28 29  1  0
 28 30  1  0
 30 31  2  0
 32 33  2  0
 32 58  1  0
 33 59  1  0
 34 35  1  0
 34 60  1  0
M  END

