
     RDKit          3D

 52 54  0  0  0  0  0  0  0  0999 V2000
    1.6516    0.0085   -0.2024 C   0  0  0  0  0  0  0  0  0  0  0  0
    0.6758   -0.1495    0.9747 C   0  0  0  0  0  0  0  0  0  0  0  0
    1.2805   -0.7316    2.1737 C   0  0  0  0  0  0  0  0  0  0  0  0
    1.7951   -1.2201    3.1569 C   0  0  0  0  0  0  0  0  0  0  0  0
    2.4194   -1.7651    4.3547 C   0  0  0  0  0  0  0  0  0  0  0  0
    2.2147   -3.1917    4.3919 O   0  0  0  0  0  0  0  0  0  0  0  0
    2.7203   -3.8628    5.4273 C   0  0  0  0  0  0  0  0  0  0  0  0
    2.5158   -5.2682    5.4603 C   0  0  0  0  0  0  0  0  0  0  0  0
    2.9910   -5.9885    6.4570 N   0  0  0  0  0  0  0  0  0  0  0  0
    3.6701   -5.3578    7.4345 C   0  0  0  0  0  0  0  0  0  0  0  0
    4.2212   -6.1618    8.5821 C   0  0  0  0  0  0  0  0  0  0  0  0
    4.8435   -5.6308    9.4900 O   0  0  0  0  0  0  0  0  0  0  0  0
    3.9430   -7.4964    8.4725 N   0  0  0  0  0  0  0  0  0  0  0  0
    4.2880   -8.5452    9.3379 C   0  0  0  0  0  0  0  0  0  0  0  0
    5.0235   -8.3562   10.5221 C   0  0  0  0  0  0  0  0  0  0  0  0
    5.3293   -9.4559   11.3260 C   0  0  0  0  0  0  0  0  0  0  0  0
    4.9048  -10.7284   10.9607 C   0  0  0  0  0  0  0  0  0  0  0  0
    5.2190  -11.7749   11.7434 F   0  0  0  0  0  0  0  0  0  0  0  0
    4.1731  -10.9534    9.7881 C   0  0  0  0  0  0  0  0  0  0  0  0
    3.6895  -12.3391    9.4320 C   0  0  0  0  0  0  0  0  0  0  0  0
    2.5000  -12.6818   10.1929 N   0  0  0  0  0  0  0  0  0  0  0  0
    1.8797  -13.9201   10.0314 C   0  0  0  0  0  0  0  0  0  0  0  0
    2.3706  -14.9727    9.2574 C   0  0  0  0  0  0  0  0  0  0  0  0
    1.6382  -16.1689    9.1762 C   0  0  0  0  0  0  0  0  0  0  0  0
    0.4344  -16.2615    9.8637 C   0  0  0  0  0  0  0  0  0  0  0  0
   -0.0402  -15.2700   10.6342 N   0  0  0  0  0  0  0  0  0  0  0  0
    0.6534  -14.1459   10.7323 C   0  0  0  0  0  0  0  0  0  0  0  0
    0.1397  -13.1092   11.5117 N   0  0  0  0  0  0  0  0  0  0  0  0
    3.8725   -9.8445    8.9915 C   0  0  0  0  0  0  0  0  0  0  0  0
    3.8638   -3.9760    7.3898 C   0  0  0  0  0  0  0  0  0  0  0  0
    3.3872   -3.2331    6.3846 N   0  0  0  0  0  0  0  0  0  0  0  0
    1.1372    0.4486   -1.0708 H   0  0  0  0  0  0  0  0  0  0  0  0
    2.0662   -0.9651   -0.5052 H   0  0  0  0  0  0  0  0  0  0  0  0
    2.4933    0.6648    0.0670 H   0  0  0  0  0  0  0  0  0  0  0  0
   -0.1789   -0.7799    0.6712 H   0  0  0  0  0  0  0  0  0  0  0  0
    0.2424    0.8322    1.2373 H   0  0  0  0  0  0  0  0  0  0  0  0
    1.9961   -1.3151    5.2688 H   0  0  0  0  0  0  0  0  0  0  0  0
    3.5022   -1.5546    4.3753 H   0  0  0  0  0  0  0  0  0  0  0  0
    1.9610   -5.7613    4.6561 H   0  0  0  0  0  0  0  0  0  0  0  0
    3.4107   -7.7314    7.6366 H   0  0  0  0  0  0  0  0  0  0  0  0
    5.3484   -7.3547   10.7947 H   0  0  0  0  0  0  0  0  0  0  0  0
    5.9041   -9.3336   12.2463 H   0  0  0  0  0  0  0  0  0  0  0  0
    4.4761  -13.0733    9.6700 H   0  0  0  0  0  0  0  0  0  0  0  0
    3.5192  -12.3952    8.3366 H   0  0  0  0  0  0  0  0  0  0  0  0
    1.8308  -11.9183   10.2711 H   0  0  0  0  0  0  0  0  0  0  0  0
    3.3069  -14.8679    8.7066 H   0  0  0  0  0  0  0  0  0  0  0  0
    2.0033  -17.0047    8.5756 H   0  0  0  0  0  0  0  0  0  0  0  0
   -0.1736  -17.1715    9.8113 H   0  0  0  0  0  0  0  0  0  0  0  0
   -0.6706  -13.4097   12.0472 H   0  0  0  0  0  0  0  0  0  0  0  0
    0.8363  -12.6495   12.0962 H   0  0  0  0  0  0  0  0  0  0  0  0
    3.3040   -9.9984    8.0690 H   0  0  0  0  0  0  0  0  0  0  0  0
    4.4166   -3.4756    8.1893 H   0  0  0  0  0  0  0  0  0  0  0  0
  1  2  1  0
  1 32  1  0
  1 33  1  0
  1 34  1  0
  2  3  1  0
  2 35  1  0
  2 36  1  0
  3  4  3  0
  4  5  1  0
  5  6  1  0
  5 37  1  0
  5 38  1  0
  6  7  1  0
  7  8  2  0
  7 31  1  0
  8  9  1  0
  8 39  1  0
  9 10  2  0
 10 11  1  0
 10 30  1  0
 11 12  2  0
 11 13  1  0
 13 14  1  0
 13 40  1  0
 14 15  2  0
 14 29  1  0
 15 16  1  0
 15 41  1  0
 16 17  2  0
 16 42  1  0
 17 18  1  0
 17 19  1  0
 19 20  1  0
 19 29  2  0
 20 21  1  0
 20 43  1  0
 20 44  1  0
 21 22  1  0
 21 45  1  0
 22 23  2  0
 22 27  1  0
 23 24  1  0
 23 46  1  0
 24 25  2  0
 24 47  1  0
 25 26  1  0
 25 48  1  0
 26 27  2  0
 27 28  1  0
 28 49  1  0
 28 50  1  0
 29 51  1  0
 30 31  2  0
 30 52  1  0
M  END

