
     RDKit          3D

 41 42  0  0  0  0  0  0  0  0999 V2000
    0.2713    3.8116    1.8528 C   0  0  0  0  0  0  0  0  0  0  0  0
    1.6740    4.4110    1.7435 C   0  0  0  0  0  0  0  0  0  0  0  0
    2.7729    3.3524    1.6148 C   0  0  0  0  0  0  0  0  0  0  0  0
    4.1659    3.9520    1.5062 C   0  0  0  0  0  0  0  0  0  0  0  0
    5.1000    2.8888    1.3928 O   0  0  0  0  0  0  0  0  0  0  0  0
    6.4216    3.1545    1.2815 C   0  0  0  0  0  0  0  0  0  0  0  0
    6.9781    4.4448    1.2670 C   0  0  0  0  0  0  0  0  0  0  0  0
    8.3590    4.6056    1.1475 C   0  0  0  0  0  0  0  0  0  0  0  0
    9.2215    3.4971    1.0397 C   0  0  0  0  0  0  0  0  0  0  0  0
   10.6323    3.6699    0.9179 C   0  0  0  0  0  0  0  0  0  0  0  0
   11.8397    3.8144    0.8135 C   0  0  0  0  0  0  0  0  0  0  0  0
   13.2512    3.9843    0.6914 C   0  0  0  0  0  0  0  0  0  0  0  0
   13.8297    5.2731    0.6739 C   0  0  0  0  0  0  0  0  0  0  0  0
   15.2066    5.4349    0.5605 C   0  0  0  0  0  0  0  0  0  0  0  0
   16.0314    4.3124    0.4536 C   0  0  0  0  0  0  0  0  0  0  0  0
   17.3891    4.5843    0.3066 O   0  0  0  0  0  0  0  0  0  0  0  0
   18.3408    3.7245    0.7255 C   0  0  1  0  0  0  0  0  0  0  0  0
   18.1472    3.3215    1.9876 F   0  0  0  0  0  0  0  0  0  0  0  0
   18.4093    2.6181   -0.0382 F   0  0  0  0  0  0  0  0  0  0  0  0
   19.5092    4.3469    0.6490 F   0  0  0  0  0  0  0  0  0  0  0  0
   15.4893    3.0237    0.4570 C   0  0  0  0  0  0  0  0  0  0  0  0
   14.1093    2.8695    0.5820 C   0  0  0  0  0  0  0  0  0  0  0  0
    8.6438    2.2049    1.0561 C   0  0  0  0  0  0  0  0  0  0  0  0
    7.2724    2.0373    1.1745 C   0  0  0  0  0  0  0  0  0  0  0  0
   -0.4961    4.5964    1.9440 H   0  0  0  0  0  0  0  0  0  0  0  0
    0.1841    3.1554    2.7347 H   0  0  0  0  0  0  0  0  0  0  0  0
    0.0248    3.2053    0.9653 H   0  0  0  0  0  0  0  0  0  0  0  0
    1.8740    5.0419    2.6287 H   0  0  0  0  0  0  0  0  0  0  0  0
    1.7160    5.0914    0.8734 H   0  0  0  0  0  0  0  0  0  0  0  0
    2.5922    2.7229    0.7262 H   0  0  0  0  0  0  0  0  0  0  0  0
    2.7507    2.6736    2.4849 H   0  0  0  0  0  0  0  0  0  0  0  0
    4.3965    4.5655    2.3982 H   0  0  0  0  0  0  0  0  0  0  0  0
    4.2369    4.6147    0.6223 H   0  0  0  0  0  0  0  0  0  0  0  0
    6.3463    5.3291    1.3480 H   0  0  0  0  0  0  0  0  0  0  0  0
    8.7826    5.6121    1.1371 H   0  0  0  0  0  0  0  0  0  0  0  0
   13.1847    6.1499    0.7566 H   0  0  0  0  0  0  0  0  0  0  0  0
   15.6620    6.4267    0.5527 H   0  0  0  0  0  0  0  0  0  0  0  0
   16.1272    2.1465    0.3562 H   0  0  0  0  0  0  0  0  0  0  0  0
   13.6811    1.8655    0.5886 H   0  0  0  0  0  0  0  0  0  0  0  0
    9.2927    1.3304    0.9739 H   0  0  0  0  0  0  0  0  0  0  0  0
    6.8226    1.0425    1.1876 H   0  0  0  0  0  0  0  0  0  0  0  0
  1  2  1  0
  1 25  1  0
  1 26  1  0
  1 27  1  0
  2  3  1  0
  2 28  1  0
  2 29  1  0
  3  4  1  0
  3 30  1  0
  3 31  1  0
  4  5  1  0
  4 32  1  0
  4 33  1  0
  5  6  1  0
  6  7  2  0
  6 24  1  0
  7  8  1  0
  7 34  1  0
  8  9  2  0
  8 35  1  0
  9 10  1  0
  9 23  1  0
 10 11  3  0
 11 12  1  0
 12 13  2  0
 12 22  1  0
 13 14  1  0
 13 36  1  0
 14 15  2  0
 14 37  1  0
 15 16  1  0
 15 21  1  0
 16 17  1  0
 17 18  1  1
 17 19  1  0
 17 20  1  0
 21 22  2  0
 21 38  1  0
 22 39  1  0
 23 24  2  0
 23 40  1  0
 24 41  1  0
M  END

