
     RDKit          3D

 61 64  0  0  0  0  0  0  0  0999 V2000
    1.2004    0.0693    2.1485 C   0  0  0  0  0  0  0  0  0  0  0  0
    2.3899    0.0751    1.1624 C   0  0  1  0  0  0  0  0  0  0  0  0
    1.9616   -0.4834   -0.2112 C   0  0  0  0  0  0  0  0  0  0  0  0
    2.7873    1.5492    0.9968 C   0  0  0  0  0  0  0  0  0  0  0  0
    1.9385    2.4404    0.6250 N   0  0  0  0  0  0  0  0  0  0  0  0
    2.6616    3.7048    0.5182 C   0  0  1  0  0  0  0  0  0  0  0  0
    1.8648    4.9158    0.9654 C   0  0  0  0  0  0  0  0  0  0  0  0
    0.6259    4.7723    1.6053 C   0  0  0  0  0  0  0  0  0  0  0  0
   -0.1010    5.8917    2.0246 C   0  0  0  0  0  0  0  0  0  0  0  0
    0.4218    7.1605    1.7947 C   0  0  0  0  0  0  0  0  0  0  0  0
   -0.2692    8.2389    2.1920 F   0  0  0  0  0  0  0  0  0  0  0  0
    1.6484    7.3380    1.1548 C   0  0  0  0  0  0  0  0  0  0  0  0
    2.3604    6.2117    0.7421 C   0  0  0  0  0  0  0  0  0  0  0  0
    4.0232    3.4750    1.2870 C   0  0  1  0  0  0  0  0  0  0  0  0
    4.0358    4.0051    2.6275 N   0  0  0  0  0  0  0  0  0  0  0  0
    5.0948    4.6043    3.2757 C   0  0  0  0  0  0  0  0  0  0  0  0
    4.8524    5.3000    4.4866 C   0  0  0  0  0  0  0  0  0  0  0  0
    5.8844    5.9176    5.1792 C   0  0  0  0  0  0  0  0  0  0  0  0
    7.1925    5.8517    4.6817 C   0  0  0  0  0  0  0  0  0  0  0  0
    8.5242    6.6657    5.5579 S   0  0  1  0  0  0  0  0  0  0  0  0
    9.1429    5.4244    6.7205 C   0  0  0  0  0  0  0  0  0  0  0  0
    9.6090    6.9241    4.5986 O   0  0  0  0  0  0  0  0  0  0  0  0
    7.9438    7.7490    6.3653 O   0  0  0  0  0  0  0  0  0  0  0  0
    7.4553    5.1856    3.4818 C   0  0  0  0  0  0  0  0  0  0  0  0
    6.4225    4.5592    2.7886 C   0  0  0  0  0  0  0  0  0  0  0  0
    4.0676    2.0096    1.2307 N   0  0  0  0  0  0  0  0  0  0  0  0
    5.1067    1.1923    1.8133 C   0  0  0  0  0  0  0  0  0  0  0  0
    4.8803   -0.2317    1.3379 C   0  0  0  0  0  0  0  0  0  0  0  0
    3.5470   -0.7018    1.7103 N   0  0  0  0  0  0  0  0  0  0  0  0
    3.3588   -1.9897    2.1709 C   0  0  0  0  0  0  0  0  0  0  0  0
    2.2912   -2.5802    2.1015 O   0  0  0  0  0  0  0  0  0  0  0  0
    4.5504   -2.7073    2.8267 C   0  0  0  0  0  0  0  0  0  0  0  0
    5.4371   -3.2788    1.8141 N   0  0  0  0  0  0  0  0  0  0  0  0
    0.4289    0.7473    1.7619 H   0  0  0  0  0  0  0  0  0  0  0  0
    1.5208    0.4364    3.1363 H   0  0  0  0  0  0  0  0  0  0  0  0
    0.7936   -0.9401    2.2604 H   0  0  0  0  0  0  0  0  0  0  0  0
    1.1520    0.1339   -0.6237 H   0  0  0  0  0  0  0  0  0  0  0  0
    1.6146   -1.5185   -0.0926 H   0  0  0  0  0  0  0  0  0  0  0  0
    2.8001   -0.4661   -0.9256 H   0  0  0  0  0  0  0  0  0  0  0  0
    2.9303    3.8514   -0.5458 H   0  0  0  0  0  0  0  0  0  0  0  0
    0.2276    3.7676    1.7539 H   0  0  0  0  0  0  0  0  0  0  0  0
   -1.0699    5.7926    2.5183 H   0  0  0  0  0  0  0  0  0  0  0  0
    2.0249    8.3488    0.9867 H   0  0  0  0  0  0  0  0  0  0  0  0
    3.3197    6.3493    0.2347 H   0  0  0  0  0  0  0  0  0  0  0  0
    4.8719    3.9017    0.7342 H   0  0  0  0  0  0  0  0  0  0  0  0
    3.1270    4.1239    3.0611 H   0  0  0  0  0  0  0  0  0  0  0  0
    3.8291    5.3656    4.8665 H   0  0  0  0  0  0  0  0  0  0  0  0
    5.6830    6.4763    6.0956 H   0  0  0  0  0  0  0  0  0  0  0  0
    9.5216    4.5596    6.1608 H   0  0  0  0  0  0  0  0  0  0  0  0
    8.3385    5.1398    7.4110 H   0  0  0  0  0  0  0  0  0  0  0  0
    9.9593    5.9225    7.2625 H   0  0  0  0  0  0  0  0  0  0  0  0
    8.4741    5.1706    3.0889 H   0  0  0  0  0  0  0  0  0  0  0  0
    6.6560    4.0347    1.8617 H   0  0  0  0  0  0  0  0  0  0  0  0
    5.1059    1.2402    2.9200 H   0  0  0  0  0  0  0  0  0  0  0  0
    6.0922    1.5450    1.4657 H   0  0  0  0  0  0  0  0  0  0  0  0
    5.6409   -0.9149    1.7248 H   0  0  0  0  0  0  0  0  0  0  0  0
    4.9874   -0.2566    0.2365 H   0  0  0  0  0  0  0  0  0  0  0  0
    4.0813   -3.4490    3.4991 H   0  0  0  0  0  0  0  0  0  0  0  0
    5.1279   -2.0094    3.4553 H   0  0  0  0  0  0  0  0  0  0  0  0
    4.9217   -3.9569    1.2509 H   0  0  0  0  0  0  0  0  0  0  0  0
    6.1942   -3.7965    2.2610 H   0  0  0  0  0  0  0  0  0  0  0  0
  2  1  1  1
  1 34  1  0
  1 35  1  0
  1 36  1  0
  2  3  1  0
  2  4  1  0
  2 29  1  0
  3 37  1  0
  3 38  1  0
  3 39  1  0
  4  5  2  0
  4 26  1  0
  5  6  1  0
  6  7  1  0
  6 14  1  0
  6 40  1  6
  7  8  2  0
  7 13  1  0
  8  9  1  0
  8 41  1  0
  9 10  2  0
  9 42  1  0
 10 11  1  0
 10 12  1  0
 12 13  2  0
 12 43  1  0
 13 44  1  0
 14 15  1  0
 14 26  1  0
 14 45  1  6
 15 16  1  0
 15 46  1  0
 16 17  2  0
 16 25  1  0
 17 18  1  0
 17 47  1  0
 18 19  2  0
 18 48  1  0
 19 20  1  0
 19 24  1  0
 20 21  1  1
 20 22  2  0
 20 23  2  0
 21 49  1  0
 21 50  1  0
 21 51  1  0
 24 25  2  0
 24 52  1  0
 25 53  1  0
 26 27  1  0
 27 28  1  0
 27 54  1  0
 27 55  1  0
 28 29  1  0
 28 56  1  0
 28 57  1  0
 29 30  1  0
 30 31  2  0
 30 32  1  0
 32 33  1  0
 32 58  1  0
 32 59  1  0
 33 60  1  0
 33 61  1  0
M  END

