
     RDKit          3D

 42 43  0  0  0  0  0  0  0  0999 V2000
    2.7173   -0.5302    3.1078 C   0  0  0  0  0  0  0  0  0  0  0  0
    2.6552   -1.6597    2.0795 C   0  0  0  0  0  0  0  0  0  0  0  0
    3.3647   -1.3560    0.7544 C   0  0  0  0  0  0  0  0  0  0  0  0
    4.7999   -1.1238    0.8958 N   0  0  0  0  0  0  0  0  0  0  0  0
    5.3858    0.1381    0.8254 C   0  0  0  0  0  0  0  0  0  0  0  0
    4.7872    1.1712    0.6432 O   0  0  0  0  0  0  0  0  0  0  0  0
    6.8976   -0.0233    0.9999 C   0  0  2  0  0  0  0  0  0  0  0  0
    7.1928    0.5357    1.9000 H   0  0  0  0  0  0  0  0  0  0  0  0
    7.6853    0.4510   -0.2401 C   0  0  0  0  0  0  0  0  0  0  0  0
    7.8690   -0.7771   -1.0010 N   0  0  0  0  0  0  0  0  0  0  0  0
    8.1077   -0.8813   -2.3469 C   0  0  0  0  0  0  0  0  0  0  0  0
    8.3509   -1.9344   -2.9025 O   0  0  0  0  0  0  0  0  0  0  0  0
    8.0238    0.3287   -2.9377 O   0  0  0  0  0  0  0  0  0  0  0  0
    8.1815    0.4945   -4.3870 C   0  0  1  0  0  0  0  0  0  0  0  0
    7.0941   -0.2918   -5.1264 C   0  0  0  0  0  0  0  0  0  0  0  0
    7.9886    1.9997   -4.5800 C   0  0  0  0  0  0  0  0  0  0  0  0
    9.5910    0.0687   -4.8113 C   0  0  0  0  0  0  0  0  0  0  0  0
    8.0142   -1.9218   -0.1134 C   0  0  0  0  0  0  0  0  0  0  0  0
    7.1250   -1.5503    1.0947 C   0  0  2  0  0  0  0  0  0  0  0  0
    7.5779   -1.8838    2.0396 H   0  0  0  0  0  0  0  0  0  0  0  0
    5.7251   -2.1601    1.0053 C   0  0  0  0  0  0  0  0  0  0  0  0
    5.4429   -3.3342    1.0114 O   0  0  0  0  0  0  0  0  0  0  0  0
    2.1565   -0.7960    4.0176 H   0  0  0  0  0  0  0  0  0  0  0  0
    2.2938    0.4053    2.7083 H   0  0  0  0  0  0  0  0  0  0  0  0
    3.7542   -0.3161    3.4145 H   0  0  0  0  0  0  0  0  0  0  0  0
    1.6026   -1.8854    1.8354 H   0  0  0  0  0  0  0  0  0  0  0  0
    3.0762   -2.5881    2.5004 H   0  0  0  0  0  0  0  0  0  0  0  0
    2.9513   -0.4497    0.2877 H   0  0  0  0  0  0  0  0  0  0  0  0
    3.2379   -2.2028    0.0631 H   0  0  0  0  0  0  0  0  0  0  0  0
    8.6555    0.8880    0.0641 H   0  0  0  0  0  0  0  0  0  0  0  0
    7.1433    1.2060   -0.8227 H   0  0  0  0  0  0  0  0  0  0  0  0
    6.0958    0.0074   -4.7701 H   0  0  0  0  0  0  0  0  0  0  0  0
    7.2160   -1.3718   -4.9753 H   0  0  0  0  0  0  0  0  0  0  0  0
    7.1492   -0.0762   -6.2049 H   0  0  0  0  0  0  0  0  0  0  0  0
    6.9903    2.3108   -4.2366 H   0  0  0  0  0  0  0  0  0  0  0  0
    8.0889    2.2629   -5.6439 H   0  0  0  0  0  0  0  0  0  0  0  0
    8.7416    2.5636   -4.0088 H   0  0  0  0  0  0  0  0  0  0  0  0
    9.7421   -1.0067   -4.6542 H   0  0  0  0  0  0  0  0  0  0  0  0
   10.3483    0.6226   -4.2343 H   0  0  0  0  0  0  0  0  0  0  0  0
    9.7420    0.2967   -5.8781 H   0  0  0  0  0  0  0  0  0  0  0  0
    9.0649   -2.0515    0.2080 H   0  0  0  0  0  0  0  0  0  0  0  0
    7.7039   -2.8466   -0.6172 H   0  0  0  0  0  0  0  0  0  0  0  0
  1  2  1  0
  1 23  1  0
  1 24  1  0
  1 25  1  0
  2  3  1  0
  2 26  1  0
  2 27  1  0
  3  4  1  0
  3 28  1  0
  3 29  1  0
  4  5  1  0
  4 21  1  0
  5  6  2  0
  5  7  1  0
  7  8  1  1
  7  9  1  0
  7 19  1  0
  9 10  1  0
  9 30  1  0
  9 31  1  0
 10 11  1  0
 10 18  1  0
 11 12  2  0
 11 13  1  0
 14 13  1  1
 14 15  1  0
 14 16  1  0
 14 17  1  0
 15 32  1  0
 15 33  1  0
 15 34  1  0
 16 35  1  0
 16 36  1  0
 16 37  1  0
 17 38  1  0
 17 39  1  0
 17 40  1  0
 18 19  1  0
 18 41  1  0
 18 42  1  0
 19 20  1  1
 19 21  1  0
 21 22  2  0
M  END

