
     RDKit          3D

 35 36  0  0  0  0  0  0  0  0999 V2000
    1.8931   -0.9640   -0.0390 C   0  0  0  0  0  0  0  0  0  0  0  0
    3.2918   -0.3487    0.0362 C   0  0  1  0  0  0  0  0  0  0  0  0
    3.6407    0.4651   -1.2172 C   0  0  0  0  0  0  0  0  0  0  0  0
    3.4984    0.4491    1.2702 N   0  0  0  0  0  0  0  0  0  0  0  0
    2.5503    1.5027    1.6320 C   0  0  0  0  0  0  0  0  0  0  0  0
    1.4298    1.1053    2.6062 C   0  0  0  0  0  0  0  0  0  0  0  0
    1.8702    0.6299    3.9920 C   0  0  0  0  0  0  0  0  0  0  0  0
    0.7740    0.2088    4.7769 O   0  0  0  0  0  0  0  0  0  0  0  0
    4.7273    0.4061    1.8509 C   0  0  0  0  0  0  0  0  0  0  0  0
    5.6973   -0.4095    1.5079 N   0  0  0  0  0  0  0  0  0  0  0  0
    6.8032   -0.1853    2.2884 C   0  0  0  0  0  0  0  0  0  0  0  0
    8.0317   -0.9908    2.0898 C   0  0  1  0  0  0  0  0  0  0  0  0
    7.9236   -2.4521    1.6996 C   0  0  0  0  0  0  0  0  0  0  0  0
    8.4185   -1.4536    0.6987 C   0  0  0  0  0  0  0  0  0  0  0  0
    6.7720    0.7464    3.2136 N   0  0  0  0  0  0  0  0  0  0  0  0
    5.2470    1.4650    3.1784 S   0  0  0  0  0  0  0  0  0  0  0  0
    1.8374   -1.6298   -0.9142 H   0  0  0  0  0  0  0  0  0  0  0  0
    1.1033   -0.2051   -0.1585 H   0  0  0  0  0  0  0  0  0  0  0  0
    1.6682   -1.5634    0.8560 H   0  0  0  0  0  0  0  0  0  0  0  0
    4.0194   -1.1667    0.1163 H   0  0  0  0  0  0  0  0  0  0  0  0
    2.9620    1.3235   -1.3540 H   0  0  0  0  0  0  0  0  0  0  0  0
    3.5589   -0.1659   -2.1164 H   0  0  0  0  0  0  0  0  0  0  0  0
    4.6729    0.8422   -1.1610 H   0  0  0  0  0  0  0  0  0  0  0  0
    2.0905    1.8829    0.7056 H   0  0  0  0  0  0  0  0  0  0  0  0
    3.1202    2.3547    2.0433 H   0  0  0  0  0  0  0  0  0  0  0  0
    0.8012    0.3164    2.1660 H   0  0  0  0  0  0  0  0  0  0  0  0
    0.7765    1.9909    2.7237 H   0  0  0  0  0  0  0  0  0  0  0  0
    2.4620    1.4179    4.5002 H   0  0  0  0  0  0  0  0  0  0  0  0
    2.5321   -0.2451    3.8973 H   0  0  0  0  0  0  0  0  0  0  0  0
    0.2136    0.9765    4.9499 H   0  0  0  0  0  0  0  0  0  0  0  0
    8.8361   -0.7071    2.7715 H   0  0  0  0  0  0  0  0  0  0  0  0
    6.9152   -2.8506    1.5625 H   0  0  0  0  0  0  0  0  0  0  0  0
    8.6381   -3.1457    2.1519 H   0  0  0  0  0  0  0  0  0  0  0  0
    7.7451   -1.1765   -0.1163 H   0  0  0  0  0  0  0  0  0  0  0  0
    9.4823   -1.4428    0.4445 H   0  0  0  0  0  0  0  0  0  0  0  0
  1  2  1  0
  1 17  1  0
  1 18  1  0
  1 19  1  0
  2  3  1  0
  2  4  1  0
  2 20  1  1
  3 21  1  0
  3 22  1  0
  3 23  1  0
  4  5  1  0
  4  9  1  0
  5  6  1  0
  5 24  1  0
  5 25  1  0
  6  7  1  0
  6 26  1  0
  6 27  1  0
  7  8  1  0
  7 28  1  0
  7 29  1  0
  8 30  1  0
  9 10  2  0
  9 16  1  0
 10 11  1  0
 11 12  1  0
 11 15  2  0
 12 13  1  0
 12 14  1  0
 12 31  1  1
 13 14  1  0
 13 32  1  0
 13 33  1  0
 14 34  1  0
 14 35  1  0
 15 16  1  0
M  END

