
     RDKit          3D

 48 50  0  0  0  0  0  0  0  0999 V2000
    3.0756    0.6112   -1.7472 C   0  0  0  0  0  0  0  0  0  0  0  0
    4.4593    0.4401   -1.0947 C   0  0  1  0  0  0  0  0  0  0  0  0
    5.1712   -0.7511   -1.7771 C   0  0  0  0  0  0  0  0  0  0  0  0
    5.2720    1.7329   -1.3397 C   0  0  0  0  0  0  0  0  0  0  0  0
    4.3613    0.1781    0.4209 C   0  0  0  0  0  0  0  0  0  0  0  0
    3.1405    0.1124    1.1083 C   0  0  0  0  0  0  0  0  0  0  0  0
    3.0900   -0.1253    2.4876 C   0  0  0  0  0  0  0  0  0  0  0  0
    4.2615   -0.2998    3.2301 C   0  0  0  0  0  0  0  0  0  0  0  0
    4.2104   -0.5391    4.7258 C   0  0  0  0  0  0  0  0  0  0  0  0
    4.7072   -1.8591    5.1189 N   0  0  0  0  0  0  0  0  0  0  0  0
    5.9433   -1.9648    5.6363 N   0  0  0  0  0  0  0  0  0  0  0  0
    6.1720   -3.2180    5.8666 N   0  0  0  0  0  0  0  0  0  0  0  0
    5.0856   -3.9567    5.4997 C   0  0  0  0  0  0  0  0  0  0  0  0
    5.0888   -5.4424    5.7112 C   0  0  0  0  0  0  0  0  0  0  0  0
    4.2902   -5.8662    6.8089 O   0  0  0  0  0  0  0  0  0  0  0  0
    4.1119   -3.0824    5.0176 C   0  0  0  0  0  0  0  0  0  0  0  0
    2.7343   -3.2708    4.4408 C   0  0  1  0  0  0  0  0  0  0  0  0
    2.1035   -4.6574    4.6597 C   0  0  0  0  0  0  0  0  0  0  0  0
    0.6087   -4.3248    4.7352 C   0  0  0  0  0  0  0  0  0  0  0  0
    0.6349   -2.9901    5.4772 C   0  0  0  0  0  0  0  0  0  0  0  0
    1.8150   -2.3273    5.0249 O   0  0  0  0  0  0  0  0  0  0  0  0
    5.4902   -0.2406    2.5533 C   0  0  0  0  0  0  0  0  0  0  0  0
    5.5342   -0.0077    1.1809 C   0  0  0  0  0  0  0  0  0  0  0  0
    3.1929    0.7957   -2.8266 H   0  0  0  0  0  0  0  0  0  0  0  0
    2.5241    1.4657   -1.3246 H   0  0  0  0  0  0  0  0  0  0  0  0
    2.4522   -0.2895   -1.6324 H   0  0  0  0  0  0  0  0  0  0  0  0
    5.2548   -0.5786   -2.8629 H   0  0  0  0  0  0  0  0  0  0  0  0
    4.6107   -1.6871   -1.6236 H   0  0  0  0  0  0  0  0  0  0  0  0
    6.1884   -0.9023   -1.3851 H   0  0  0  0  0  0  0  0  0  0  0  0
    5.3562    1.9355   -2.4201 H   0  0  0  0  0  0  0  0  0  0  0  0
    6.2926    1.6603   -0.9342 H   0  0  0  0  0  0  0  0  0  0  0  0
    4.7851    2.6009   -0.8674 H   0  0  0  0  0  0  0  0  0  0  0  0
    2.1994    0.2451    0.5741 H   0  0  0  0  0  0  0  0  0  0  0  0
    2.1216   -0.1833    2.9922 H   0  0  0  0  0  0  0  0  0  0  0  0
    3.1845   -0.4422    5.0988 H   0  0  0  0  0  0  0  0  0  0  0  0
    4.8575    0.1723    5.2577 H   0  0  0  0  0  0  0  0  0  0  0  0
    6.1436   -5.7469    5.8375 H   0  0  0  0  0  0  0  0  0  0  0  0
    4.6939   -5.9736    4.8327 H   0  0  0  0  0  0  0  0  0  0  0  0
    4.5949   -5.3870    7.5920 H   0  0  0  0  0  0  0  0  0  0  0  0
    2.7842   -3.0465    3.3574 H   0  0  0  0  0  0  0  0  0  0  0  0
    2.4503   -5.0925    5.6084 H   0  0  0  0  0  0  0  0  0  0  0  0
    2.3530   -5.3587    3.8499 H   0  0  0  0  0  0  0  0  0  0  0  0
    0.0214   -5.0957    5.2557 H   0  0  0  0  0  0  0  0  0  0  0  0
    0.1831   -4.1935    3.7265 H   0  0  0  0  0  0  0  0  0  0  0  0
    0.6816   -3.1444    6.5727 H   0  0  0  0  0  0  0  0  0  0  0  0
   -0.2316   -2.3452    5.2604 H   0  0  0  0  0  0  0  0  0  0  0  0
    6.4200   -0.3829    3.1115 H   0  0  0  0  0  0  0  0  0  0  0  0
    6.5106    0.0336    0.6924 H   0  0  0  0  0  0  0  0  0  0  0  0
  2  1  1  6
  1 24  1  0
  1 25  1  0
  1 26  1  0
  2  3  1  0
  2  4  1  0
  2  5  1  0
  3 27  1  0
  3 28  1  0
  3 29  1  0
  4 30  1  0
  4 31  1  0
  4 32  1  0
  5  6  2  0
  5 23  1  0
  6  7  1  0
  6 33  1  0
  7  8  2  0
  7 34  1  0
  8  9  1  0
  8 22  1  0
  9 10  1  0
  9 35  1  0
  9 36  1  0
 10 11  1  0
 10 16  1  0
 11 12  2  0
 12 13  1  0
 13 14  1  0
 13 16  2  0
 14 15  1  0
 14 37  1  0
 14 38  1  0
 15 39  1  0
 16 17  1  0
 17 18  1  0
 17 21  1  0
 17 40  1  6
 18 19  1  0
 18 41  1  0
 18 42  1  0
 19 20  1  0
 19 43  1  0
 19 44  1  0
 20 21  1  0
 20 45  1  0
 20 46  1  0
 22 23  2  0
 22 47  1  0
 23 48  1  0
M  END

