
     RDKit          3D

 43 44  0  0  0  0  0  0  0  0999 V2000
    1.2905    1.7327    3.5724 C   0  0  0  0  0  0  0  0  0  0  0  0
    1.7795    0.8803    2.3962 C   0  0  1  0  0  0  0  0  0  0  0  0
    2.0681   -0.5657    2.8143 C   0  0  0  0  0  0  0  0  0  0  0  0
    0.7732    0.9198    1.2442 C   0  0  0  0  0  0  0  0  0  0  0  0
    2.9764    1.4801    1.8041 O   0  0  0  0  0  0  0  0  0  0  0  0
    4.1195    1.6352    2.5095 C   0  0  0  0  0  0  0  0  0  0  0  0
    4.2960    1.3140    3.6674 O   0  0  0  0  0  0  0  0  0  0  0  0
    5.0717    2.2071    1.7111 N   0  0  0  0  0  0  0  0  0  0  0  0
    6.3865    2.5570    2.2011 C   0  0  0  0  0  0  0  0  0  0  0  0
    6.4851    4.0230    2.6148 C   0  0  0  0  0  0  0  0  0  0  0  0
    7.8317    4.2562    3.0131 O   0  0  0  0  0  0  0  0  0  0  0  0
    8.1328    5.4880    3.4511 C   0  0  0  0  0  0  0  0  0  0  0  0
    9.4132    5.8838    3.9313 C   0  0  0  0  0  0  0  0  0  0  0  0
    9.2422    7.2125    4.2566 C   0  0  0  0  0  0  0  0  0  0  0  0
    7.9422    7.5347    3.9799 N   0  0  0  0  0  0  0  0  0  0  0  0
    7.3349    8.8071    4.1106 C   0  0  0  0  0  0  0  0  0  0  0  0
    7.9490    9.9203    3.5175 C   0  0  0  0  0  0  0  0  0  0  0  0
    7.3977   11.1959    3.6393 C   0  0  0  0  0  0  0  0  0  0  0  0
    6.2035   11.3696    4.3433 C   0  0  0  0  0  0  0  0  0  0  0  0
    5.5778   10.2721    4.9374 C   0  0  0  0  0  0  0  0  0  0  0  0
    6.1411    8.9958    4.8367 C   0  0  0  0  0  0  0  0  0  0  0  0
    5.3668    7.6766    5.6673 Cl  0  0  0  0  0  0  0  0  0  0  0  0
    7.2552    6.4769    3.4741 N   0  0  0  0  0  0  0  0  0  0  0  0
    0.3312    1.3393    3.9438 H   0  0  0  0  0  0  0  0  0  0  0  0
    1.1303    2.7737    3.2501 H   0  0  0  0  0  0  0  0  0  0  0  0
    2.0180    1.7245    4.3937 H   0  0  0  0  0  0  0  0  0  0  0  0
    1.1389   -1.0466    3.1582 H   0  0  0  0  0  0  0  0  0  0  0  0
    2.8061   -0.6005    3.6256 H   0  0  0  0  0  0  0  0  0  0  0  0
    2.4538   -1.1417    1.9583 H   0  0  0  0  0  0  0  0  0  0  0  0
   -0.1887    0.4895    1.5619 H   0  0  0  0  0  0  0  0  0  0  0  0
    1.1466    0.3436    0.3839 H   0  0  0  0  0  0  0  0  0  0  0  0
    0.6006    1.9562    0.9161 H   0  0  0  0  0  0  0  0  0  0  0  0
    4.7906    2.4733    0.7753 H   0  0  0  0  0  0  0  0  0  0  0  0
    7.1423    2.3459    1.4266 H   0  0  0  0  0  0  0  0  0  0  0  0
    6.6060    1.9174    3.0673 H   0  0  0  0  0  0  0  0  0  0  0  0
    5.7958    4.2451    3.4469 H   0  0  0  0  0  0  0  0  0  0  0  0
    6.2163    4.6945    1.7795 H   0  0  0  0  0  0  0  0  0  0  0  0
   10.3047    5.2713    4.0308 H   0  0  0  0  0  0  0  0  0  0  0  0
    9.9264    7.9424    4.6842 H   0  0  0  0  0  0  0  0  0  0  0  0
    8.8628    9.7634    2.9407 H   0  0  0  0  0  0  0  0  0  0  0  0
    7.8924   12.0486    3.1689 H   0  0  0  0  0  0  0  0  0  0  0  0
    5.7546   12.3614    4.4357 H   0  0  0  0  0  0  0  0  0  0  0  0
    4.6524   10.3929    5.5028 H   0  0  0  0  0  0  0  0  0  0  0  0
  1  2  1  0
  1 24  1  0
  1 25  1  0
  1 26  1  0
  2  3  1  0
  2  4  1  0
  2  5  1  6
  3 27  1  0
  3 28  1  0
  3 29  1  0
  4 30  1  0
  4 31  1  0
  4 32  1  0
  5  6  1  0
  6  7  2  0
  6  8  1  0
  8  9  1  0
  8 33  1  0
  9 10  1  0
  9 34  1  0
  9 35  1  0
 10 11  1  0
 10 36  1  0
 10 37  1  0
 11 12  1  0
 12 13  1  0
 12 23  2  0
 13 14  2  0
 13 38  1  0
 14 15  1  0
 14 39  1  0
 15 16  1  0
 15 23  1  0
 16 17  2  0
 16 21  1  0
 17 18  1  0
 17 40  1  0
 18 19  2  0
 18 41  1  0
 19 20  1  0
 19 42  1  0
 20 21  2  0
 20 43  1  0
 21 22  1  0
M  END

