
     RDKit          3D

 62 67  0  0  0  0  0  0  0  0999 V2000
    3.2630    0.4173  -12.1143 C   0  0  0  0  0  0  0  0  0  0  0  0
    3.4111    1.7503  -11.6720 O   0  0  0  0  0  0  0  0  0  0  0  0
    4.1739    2.0192  -10.5889 C   0  0  0  0  0  0  0  0  0  0  0  0
    4.8439    1.0333   -9.8288 C   0  0  0  0  0  0  0  0  0  0  0  0
    5.6072    1.4201   -8.7336 C   0  0  0  0  0  0  0  0  0  0  0  0
    5.7337    2.7704   -8.3580 C   0  0  0  0  0  0  0  0  0  0  0  0
    6.5220    3.2209   -7.2424 C   0  0  0  0  0  0  0  0  0  0  0  0
    6.6494    4.5367   -6.9111 C   0  0  0  0  0  0  0  0  0  0  0  0
    7.5725    4.9999   -5.8035 C   0  0  1  0  0  0  0  0  0  0  0  0
    7.9254    4.0892   -5.2848 H   0  0  0  0  0  0  0  0  0  0  0  0
    8.8048    5.7042   -6.4183 C   0  0  0  0  0  0  0  0  0  0  0  0
    9.7821    6.1920   -5.3811 C   0  0  0  0  0  0  0  0  0  0  0  0
   10.9751    6.1486   -5.4623 O   0  0  0  0  0  0  0  0  0  0  0  0
    9.2156    6.7605   -4.2669 O   0  0  0  0  0  0  0  0  0  0  0  0
    7.8578    6.7809   -4.0460 C   0  0  0  0  0  0  0  0  0  0  0  0
    7.4383    7.6756   -3.0444 C   0  0  0  0  0  0  0  0  0  0  0  0
    6.0965    7.7381   -2.6929 C   0  0  0  0  0  0  0  0  0  0  0  0
    5.2047    6.8876   -3.3505 C   0  0  0  0  0  0  0  0  0  0  0  0
    5.6508    6.0024   -4.3404 C   0  0  0  0  0  0  0  0  0  0  0  0
    6.9848    5.9271   -4.7500 C   0  0  0  0  0  0  0  0  0  0  0  0
    4.6303    5.2328   -4.8444 O   0  0  0  0  0  0  0  0  0  0  0  0
    3.4596    5.5977   -4.1974 C   0  0  0  0  0  0  0  0  0  0  0  0
    2.2377    5.0595   -4.3896 C   0  0  0  0  0  0  0  0  0  0  0  0
    1.7851    3.9828   -5.2567 C   0  0  0  0  0  0  0  0  0  0  0  0
    2.6497    3.2551   -6.1081 C   0  0  0  0  0  0  0  0  0  0  0  0
    2.1546    2.2319   -6.9038 C   0  0  0  0  0  0  0  0  0  0  0  0
    0.7901    1.9086   -6.8907 C   0  0  0  0  0  0  0  0  0  0  0  0
   -0.0898    2.6182   -6.0668 C   0  0  0  0  0  0  0  0  0  0  0  0
   -1.4302    2.3991   -6.0054 O   0  0  0  0  0  0  0  0  0  0  0  0
   -2.0077    1.4211   -6.8400 C   0  0  0  0  0  0  0  0  0  0  0  0
    0.4075    3.6536   -5.2373 C   0  0  0  0  0  0  0  0  0  0  0  0
   -0.4380    4.3894   -4.4638 O   0  0  0  0  0  0  0  0  0  0  0  0
   -1.0968    3.7388   -3.3826 C   0  0  0  0  0  0  0  0  0  0  0  0
    3.7549    6.6851   -3.2087 C   0  0  0  0  0  0  0  0  0  0  0  0
    2.9578    7.2354   -2.4716 O   0  0  0  0  0  0  0  0  0  0  0  0
    5.9706    5.5633   -7.7231 C   0  0  0  0  0  0  0  0  0  0  0  0
    6.0648    6.7699   -7.5397 O   0  0  0  0  0  0  0  0  0  0  0  0
    5.1921    5.0694   -8.7663 N   0  0  0  0  0  0  0  0  0  0  0  0
    4.7224    5.7893   -9.3093 H   0  0  0  0  0  0  0  0  0  0  0  0
    5.0532    3.7486   -9.1345 C   0  0  0  0  0  0  0  0  0  0  0  0
    4.2790    3.3696  -10.2370 C   0  0  0  0  0  0  0  0  0  0  0  0
    2.6161    0.4550  -13.0006 H   0  0  0  0  0  0  0  0  0  0  0  0
    2.7838   -0.2186  -11.3488 H   0  0  0  0  0  0  0  0  0  0  0  0
    4.2317   -0.0311  -12.3971 H   0  0  0  0  0  0  0  0  0  0  0  0
    4.7745   -0.0215  -10.0914 H   0  0  0  0  0  0  0  0  0  0  0  0
    6.1281    0.6596   -8.1457 H   0  0  0  0  0  0  0  0  0  0  0  0
    7.0417    2.4624   -6.6476 H   0  0  0  0  0  0  0  0  0  0  0  0
    8.4503    6.5819   -6.9855 H   0  0  0  0  0  0  0  0  0  0  0  0
    9.3493    5.0444   -7.1055 H   0  0  0  0  0  0  0  0  0  0  0  0
    8.1955    8.2976   -2.5653 H   0  0  0  0  0  0  0  0  0  0  0  0
    5.7348    8.4225   -1.9227 H   0  0  0  0  0  0  0  0  0  0  0  0
    1.4747    5.5337   -3.7680 H   0  0  0  0  0  0  0  0  0  0  0  0
    3.7094    3.5029   -6.1258 H   0  0  0  0  0  0  0  0  0  0  0  0
    2.8308    1.6750   -7.5558 H   0  0  0  0  0  0  0  0  0  0  0  0
    0.4205    1.1099   -7.5340 H   0  0  0  0  0  0  0  0  0  0  0  0
   -3.0870    1.4352   -6.6374 H   0  0  0  0  0  0  0  0  0  0  0  0
   -1.6167    0.4100   -6.6243 H   0  0  0  0  0  0  0  0  0  0  0  0
   -1.8417    1.6454   -7.9090 H   0  0  0  0  0  0  0  0  0  0  0  0
   -1.6621    4.5163   -2.8507 H   0  0  0  0  0  0  0  0  0  0  0  0
   -0.3651    3.2898   -2.6871 H   0  0  0  0  0  0  0  0  0  0  0  0
   -1.7893    2.9611   -3.7378 H   0  0  0  0  0  0  0  0  0  0  0  0
    3.7510    4.1111  -10.8395 H   0  0  0  0  0  0  0  0  0  0  0  0
  1  2  1  0
  1 42  1  0
  1 43  1  0
  1 44  1  0
  2  3  1  0
  3  4  2  0
  3 41  1  0
  4  5  1  0
  4 45  1  0
  5  6  2  0
  5 46  1  0
  6  7  1  0
  6 40  1  0
  7  8  2  0
  7 47  1  0
  8  9  1  0
  8 36  1  0
  9 10  1  1
  9 11  1  0
  9 20  1  0
 11 12  1  0
 11 48  1  0
 11 49  1  0
 12 13  2  0
 12 14  1  0
 14 15  1  0
 15 16  2  0
 15 20  1  0
 16 17  1  0
 16 50  1  0
 17 18  2  0
 17 51  1  0
 18 19  1  0
 18 34  1  0
 19 20  2  0
 19 21  1  0
 21 22  1  0
 22 23  2  0
 22 34  1  0
 23 24  1  0
 23 52  1  0
 24 25  2  0
 24 31  1  0
 25 26  1  0
 25 53  1  0
 26 27  2  0
 26 54  1  0
 27 28  1  0
 27 55  1  0
 28 29  1  0
 28 31  2  0
 29 30  1  0
 30 56  1  0
 30 57  1  0
 30 58  1  0
 31 32  1  0
 32 33  1  0
 33 59  1  0
 33 60  1  0
 33 61  1  0
 34 35  2  0
 36 37  2  0
 36 38  1  0
 38 39  1  0
 38 40  1  0
 40 41  2  0
 41 62  1  0
M  END

