
     RDKit          3D

 72 75  0  0  0  0  0  0  0  0999 V2000
    4.7257   -0.3418   -2.6188 C   0  0  0  0  0  0  0  0  0  0  0  0
    3.9779    0.0160   -1.3337 C   0  0  0  0  0  0  0  0  0  0  0  0
    4.5755    1.2168   -0.5938 C   0  0  0  0  0  0  0  0  0  0  0  0
    3.8097    1.5888    0.6901 C   0  0  0  0  0  0  0  0  0  0  0  0
    4.3826    2.7956    1.4176 C   0  0  0  0  0  0  0  0  0  0  0  0
    3.8904    4.0475    1.0314 C   0  0  0  0  0  0  0  0  0  0  0  0
    4.3390    5.2566    1.5718 C   0  0  0  0  0  0  0  0  0  0  0  0
    3.8245    6.6039    1.1066 C   0  0  0  0  0  0  0  0  0  0  0  0
    3.1139    6.6216   -0.2470 C   0  0  0  0  0  0  0  0  0  0  0  0
    5.3250    5.1576    2.5592 C   0  0  0  0  0  0  0  0  0  0  0  0
    5.9044    6.2842    3.1281 O   0  0  0  0  0  0  0  0  0  0  0  0
    5.1669    7.1186    3.9290 C   0  0  0  0  0  0  0  0  0  0  0  0
    3.9943    6.9656    4.1449 O   0  0  0  0  0  0  0  0  0  0  0  0
    5.9969    8.2341    4.4693 C   0  0  0  0  0  0  0  0  0  0  0  0
    7.3553    8.3939    4.1505 C   0  0  0  0  0  0  0  0  0  0  0  0
    8.0746    9.4649    4.6845 C   0  0  0  0  0  0  0  0  0  0  0  0
    7.4456   10.3785    5.5366 C   0  0  0  0  0  0  0  0  0  0  0  0
    6.0921   10.2216    5.8570 C   0  0  0  0  0  0  0  0  0  0  0  0
    5.3695    9.1543    5.3251 C   0  0  0  0  0  0  0  0  0  0  0  0
    5.8562    3.9129    2.9467 C   0  0  0  0  0  0  0  0  0  0  0  0
    6.9464    3.9395    3.8095 O   0  0  0  0  0  0  0  0  0  0  0  0
    6.8125    4.4376    5.0733 C   0  0  0  0  0  0  0  0  0  0  0  0
    5.7458    4.5992    5.6097 O   0  0  0  0  0  0  0  0  0  0  0  0
    8.1327    4.7248    5.7061 C   0  0  0  0  0  0  0  0  0  0  0  0
    8.1401    5.0917    7.0617 C   0  0  0  0  0  0  0  0  0  0  0  0
    9.3442    5.3846    7.7012 C   0  0  0  0  0  0  0  0  0  0  0  0
   10.5479    5.3186    6.9901 C   0  0  0  0  0  0  0  0  0  0  0  0
   10.5451    4.9596    5.6379 C   0  0  0  0  0  0  0  0  0  0  0  0
    9.3423    4.6625    4.9945 C   0  0  0  0  0  0  0  0  0  0  0  0
    5.4086    2.6985    2.3989 C   0  0  0  0  0  0  0  0  0  0  0  0
    5.9024    1.2951    2.7848 C   0  0  1  0  0  0  0  0  0  0  0  0
    7.4018    1.0576    3.1335 C   0  0  0  0  0  0  0  0  0  0  0  0
    7.8040    1.0691    4.6185 C   0  0  0  0  0  0  0  0  0  0  0  0
    6.8083    0.3303    5.5189 C   0  0  0  0  0  0  0  0  0  0  0  0
    5.3816    0.8366    5.2846 C   0  0  0  0  0  0  0  0  0  0  0  0
    4.9695    0.6106    3.8277 C   0  0  0  0  0  0  0  0  0  0  0  0
    4.2711   -1.2089   -3.1240 H   0  0  0  0  0  0  0  0  0  0  0  0
    5.7801   -0.5919   -2.4129 H   0  0  0  0  0  0  0  0  0  0  0  0
    4.7213    0.4991   -3.3325 H   0  0  0  0  0  0  0  0  0  0  0  0
    3.9659   -0.8582   -0.6573 H   0  0  0  0  0  0  0  0  0  0  0  0
    2.9183    0.2255   -1.5685 H   0  0  0  0  0  0  0  0  0  0  0  0
    4.5944    2.0939   -1.2649 H   0  0  0  0  0  0  0  0  0  0  0  0
    5.6331    1.0090   -0.3498 H   0  0  0  0  0  0  0  0  0  0  0  0
    3.7523    0.7090    1.3477 H   0  0  0  0  0  0  0  0  0  0  0  0
    2.7663    1.8172    0.4157 H   0  0  0  0  0  0  0  0  0  0  0  0
    3.1183    4.0744    0.2603 H   0  0  0  0  0  0  0  0  0  0  0  0
    4.6766    7.3047    1.0801 H   0  0  0  0  0  0  0  0  0  0  0  0
    3.1505    7.0011    1.8839 H   0  0  0  0  0  0  0  0  0  0  0  0
    3.7492    6.2166   -1.0513 H   0  0  0  0  0  0  0  0  0  0  0  0
    2.8460    7.6544   -0.5191 H   0  0  0  0  0  0  0  0  0  0  0  0
    2.1788    6.0397   -0.2326 H   0  0  0  0  0  0  0  0  0  0  0  0
    7.8398    7.6764    3.4880 H   0  0  0  0  0  0  0  0  0  0  0  0
    9.1318    9.5864    4.4358 H   0  0  0  0  0  0  0  0  0  0  0  0
    8.0120   11.2156    5.9531 H   0  0  0  0  0  0  0  0  0  0  0  0
    5.6005   10.9346    6.5236 H   0  0  0  0  0  0  0  0  0  0  0  0
    4.3132    9.0106    5.5600 H   0  0  0  0  0  0  0  0  0  0  0  0
    7.1881    5.1429    7.5934 H   0  0  0  0  0  0  0  0  0  0  0  0
    9.3462    5.6671    8.7568 H   0  0  0  0  0  0  0  0  0  0  0  0
   11.4917    5.5490    7.4915 H   0  0  0  0  0  0  0  0  0  0  0  0
   11.4851    4.9112    5.0825 H   0  0  0  0  0  0  0  0  0  0  0  0
    9.3308    4.3833    3.9404 H   0  0  0  0  0  0  0  0  0  0  0  0
    5.7671    0.7238    1.8591 H   0  0  0  0  0  0  0  0  0  0  0  0
    8.0362    1.7549    2.5634 H   0  0  0  0  0  0  0  0  0  0  0  0
    7.6386    0.0512    2.7435 H   0  0  0  0  0  0  0  0  0  0  0  0
    7.9046    2.0996    4.9789 H   0  0  0  0  0  0  0  0  0  0  0  0
    8.8078    0.6203    4.7137 H   0  0  0  0  0  0  0  0  0  0  0  0
    7.0982    0.4509    6.5763 H   0  0  0  0  0  0  0  0  0  0  0  0
    6.8430   -0.7558    5.3092 H   0  0  0  0  0  0  0  0  0  0  0  0
    5.3104    1.9086    5.5394 H   0  0  0  0  0  0  0  0  0  0  0  0
    4.6734    0.3144    5.9501 H   0  0  0  0  0  0  0  0  0  0  0  0
    3.9306    0.9380    3.6668 H   0  0  0  0  0  0  0  0  0  0  0  0
    4.9863   -0.4780    3.6328 H   0  0  0  0  0  0  0  0  0  0  0  0
  1  2  1  0
  1 37  1  0
  1 38  1  0
  1 39  1  0
  2  3  1  0
  2 40  1  0
  2 41  1  0
  3  4  1  0
  3 42  1  0
  3 43  1  0
  4  5  1  0
  4 44  1  0
  4 45  1  0
  5  6  2  0
  5 30  1  0
  6  7  1  0
  6 46  1  0
  7  8  1  0
  7 10  2  0
  8  9  1  0
  8 47  1  0
  8 48  1  0
  9 49  1  0
  9 50  1  0
  9 51  1  0
 10 11  1  0
 10 20  1  0
 11 12  1  0
 12 13  2  0
 12 14  1  0
 14 15  2  0
 14 19  1  0
 15 16  1  0
 15 52  1  0
 16 17  2  0
 16 53  1  0
 17 18  1  0
 17 54  1  0
 18 19  2  0
 18 55  1  0
 19 56  1  0
 20 21  1  0
 20 30  2  0
 21 22  1  0
 22 23  2  0
 22 24  1  0
 24 25  2  0
 24 29  1  0
 25 26  1  0
 25 57  1  0
 26 27  2  0
 26 58  1  0
 27 28  1  0
 27 59  1  0
 28 29  2  0
 28 60  1  0
 29 61  1  0
 30 31  1  0
 31 32  1  0
 31 36  1  0
 31 62  1  6
 32 33  1  0
 32 63  1  0
 32 64  1  0
 33 34  1  0
 33 65  1  0
 33 66  1  0
 34 35  1  0
 34 67  1  0
 34 68  1  0
 35 36  1  0
 35 69  1  0
 35 70  1  0
 36 71  1  0
 36 72  1  0
M  END

