
     RDKit          3D

 38 40  0  0  0  0  0  0  0  0999 V2000
    1.1841    0.0758   -0.5833 C   0  0  0  0  0  0  0  0  0  0  0  0
    2.6149   -0.0502   -0.1674 C   0  0  0  0  0  0  0  0  0  0  0  0
    3.3180    1.0291    0.0818 N   0  0  0  0  0  0  0  0  0  0  0  0
    4.5827    0.5943    0.4400 O   0  0  0  0  0  0  0  0  0  0  0  0
    4.6341   -0.7476    0.4018 C   0  0  0  0  0  0  0  0  0  0  0  0
    5.9279   -1.3780    0.7814 C   0  0  0  0  0  0  0  0  0  0  0  0
    3.4091   -1.2415    0.0139 C   0  0  0  0  0  0  0  0  0  0  0  0
    2.9999   -2.6359   -0.1735 C   0  0  0  0  0  0  0  0  0  0  0  0
    3.8411   -3.6865   -0.4560 C   0  0  0  0  0  0  0  0  0  0  0  0
    2.9372   -5.1716   -0.5731 S   0  0  0  0  0  0  0  0  0  0  0  0
    1.4565   -4.2424   -0.2577 C   0  0  0  0  0  0  0  0  0  0  0  0
    0.2267   -4.8413   -0.2363 N   0  0  0  0  0  0  0  0  0  0  0  0
   -0.9121   -4.0969    0.3038 C   0  0  0  0  0  0  0  0  0  0  0  0
   -2.2041   -4.4795   -0.4168 C   0  0  0  0  0  0  0  0  0  0  0  0
   -2.4144   -5.9963   -0.4135 C   0  0  0  0  0  0  0  0  0  0  0  0
   -1.1976   -6.7261   -1.0016 C   0  0  2  0  0  0  0  0  0  0  0  0
   -1.3536   -8.2476   -0.9667 C   0  0  0  0  0  0  0  0  0  0  0  0
    0.0852   -6.2899   -0.2750 C   0  0  0  0  0  0  0  0  0  0  0  0
    1.6641   -2.9683   -0.0641 N   0  0  0  0  0  0  0  0  0  0  0  0
    0.9301    1.1378   -0.7060 H   0  0  0  0  0  0  0  0  0  0  0  0
    0.5203   -0.3755    0.1686 H   0  0  0  0  0  0  0  0  0  0  0  0
    1.0000   -0.4559   -1.5290 H   0  0  0  0  0  0  0  0  0  0  0  0
    6.4839   -0.7140    1.4591 H   0  0  0  0  0  0  0  0  0  0  0  0
    6.5641   -1.5645   -0.1012 H   0  0  0  0  0  0  0  0  0  0  0  0
    5.7552   -2.3425    1.2812 H   0  0  0  0  0  0  0  0  0  0  0  0
    4.9122   -3.6778   -0.6379 H   0  0  0  0  0  0  0  0  0  0  0  0
   -0.6923   -3.0281    0.2003 H   0  0  0  0  0  0  0  0  0  0  0  0
   -1.0102   -4.3084    1.3894 H   0  0  0  0  0  0  0  0  0  0  0  0
   -2.1584   -4.1132   -1.4571 H   0  0  0  0  0  0  0  0  0  0  0  0
   -3.0510   -3.9666    0.0681 H   0  0  0  0  0  0  0  0  0  0  0  0
   -3.3231   -6.2639   -0.9785 H   0  0  0  0  0  0  0  0  0  0  0  0
   -2.5774   -6.3453    0.6241 H   0  0  0  0  0  0  0  0  0  0  0  0
   -1.0920   -6.4066   -2.0550 H   0  0  0  0  0  0  0  0  0  0  0  0
   -1.4544   -8.6151    0.0687 H   0  0  0  0  0  0  0  0  0  0  0  0
   -0.4861   -8.7554   -1.4192 H   0  0  0  0  0  0  0  0  0  0  0  0
   -2.2519   -8.5643   -1.5199 H   0  0  0  0  0  0  0  0  0  0  0  0
    0.9558   -6.7213   -0.7917 H   0  0  0  0  0  0  0  0  0  0  0  0
    0.0839   -6.7057    0.7560 H   0  0  0  0  0  0  0  0  0  0  0  0
  1  2  1  0
  1 20  1  0
  1 21  1  0
  1 22  1  0
  2  3  2  0
  2  7  1  0
  3  4  1  0
  4  5  1  0
  5  6  1  0
  5  7  2  0
  6 23  1  0
  6 24  1  0
  6 25  1  0
  7  8  1  0
  8  9  2  0
  8 19  1  0
  9 10  1  0
  9 26  1  0
 10 11  1  0
 11 12  1  0
 11 19  2  0
 12 13  1  0
 12 18  1  0
 13 14  1  0
 13 27  1  0
 13 28  1  0
 14 15  1  0
 14 29  1  0
 14 30  1  0
 15 16  1  0
 15 31  1  0
 15 32  1  0
 16 17  1  0
 16 18  1  0
 16 33  1  6
 17 34  1  0
 17 35  1  0
 17 36  1  0
 18 37  1  0
 18 38  1  0
M  END

