
     RDKit          3D

 27 27  0  0  0  0  0  0  0  0999 V2000
    1.3861    0.1568   -1.1421 C   0  0  0  0  0  0  0  0  0  0  0  0
    2.4392   -0.0389   -0.0346 C   0  0  1  0  0  0  0  0  0  0  0  0
    1.9876    0.2634    1.3219 N   0  0  0  0  0  0  0  0  0  0  0  0
    2.9855   -1.4340   -0.0551 C   0  0  0  0  0  0  0  0  0  0  0  0
    4.1627   -1.8532   -0.3936 N   0  0  0  0  0  0  0  0  0  0  0  0
    4.1486   -3.2346   -0.2498 N   0  0  0  0  0  0  0  0  0  0  0  0
    2.9674   -3.5349    0.1703 C   0  0  0  0  0  0  0  0  0  0  0  0
    2.2707   -5.1816    0.4761 S   0  0  1  0  0  0  0  0  0  0  0  0
    1.5438   -5.1003    1.7470 O   0  0  0  0  0  0  0  0  0  0  0  0
    1.5789   -5.5680   -0.7580 O   0  0  0  0  0  0  0  0  0  0  0  0
    3.7818   -6.2093    0.6684 C   0  0  1  0  0  0  0  0  0  0  0  0
    4.4712   -5.8982    1.9922 C   0  0  0  0  0  0  0  0  0  0  0  0
    3.3433   -7.6668    0.5151 C   0  0  0  0  0  0  0  0  0  0  0  0
    2.1662   -2.4608    0.3153 O   0  0  0  0  0  0  0  0  0  0  0  0
    1.0284    1.1985   -1.1337 H   0  0  0  0  0  0  0  0  0  0  0  0
    0.5204   -0.5055   -0.9793 H   0  0  0  0  0  0  0  0  0  0  0  0
    1.7998   -0.0556   -2.1408 H   0  0  0  0  0  0  0  0  0  0  0  0
    3.3102    0.5992   -0.2513 H   0  0  0  0  0  0  0  0  0  0  0  0
    1.1441   -0.2685    1.5432 H   0  0  0  0  0  0  0  0  0  0  0  0
    1.7405    1.2498    1.3958 H   0  0  0  0  0  0  0  0  0  0  0  0
    4.4035   -5.8972   -0.1859 H   0  0  0  0  0  0  0  0  0  0  0  0
    3.8017   -6.1062    2.8397 H   0  0  0  0  0  0  0  0  0  0  0  0
    4.7987   -4.8501    2.0470 H   0  0  0  0  0  0  0  0  0  0  0  0
    5.3667   -6.5324    2.0883 H   0  0  0  0  0  0  0  0  0  0  0  0
    2.6581   -7.9593    1.3260 H   0  0  0  0  0  0  0  0  0  0  0  0
    4.2318   -8.3147    0.5665 H   0  0  0  0  0  0  0  0  0  0  0  0
    2.8406   -7.8350   -0.4470 H   0  0  0  0  0  0  0  0  0  0  0  0
  1  2  1  0
  1 15  1  0
  1 16  1  0
  1 17  1  0
  2  3  1  0
  2  4  1  0
  2 18  1  6
  3 19  1  0
  3 20  1  0
  4  5  2  0
  4 14  1  0
  5  6  1  0
  6  7  2  0
  8  7  1  6
  7 14  1  0
  8  9  2  0
  8 10  2  0
  8 11  1  0
 11 12  1  0
 11 13  1  0
 11 21  1  6
 12 22  1  0
 12 23  1  0
 12 24  1  0
 13 25  1  0
 13 26  1  0
 13 27  1  0
M  END

