
     RDKit          3D

 36 37  0  0  0  0  0  0  0  0999 V2000
    2.3622    1.2213   -1.2894 C   0  0  0  0  0  0  0  0  0  0  0  0
    2.7833    0.3665   -0.0918 C   0  0  1  0  0  0  0  0  0  0  0  0
    3.7675   -0.6807   -0.3851 N   0  0  0  0  0  0  0  0  0  0  0  0
    3.2561    1.2641    1.0784 C   0  0  0  0  0  0  0  0  0  0  0  0
    2.7474    2.3554    1.2862 O   0  0  0  0  0  0  0  0  0  0  0  0
    4.2325    0.6880    1.8353 N   0  0  0  0  0  0  0  0  0  0  0  0
    4.8575    1.1831    2.9902 C   0  0  0  0  0  0  0  0  0  0  0  0
    4.5603    2.4210    3.5889 C   0  0  0  0  0  0  0  0  0  0  0  0
    5.2454    2.8060    4.7349 C   0  0  0  0  0  0  0  0  0  0  0  0
    6.2421    1.9577    5.2773 C   0  0  0  0  0  0  0  0  0  0  0  0
    7.0056    2.2995    6.3890 N   0  0  0  0  0  0  0  0  0  0  0  0
    7.6991    1.2488    7.1298 C   0  0  0  0  0  0  0  0  0  0  0  0
    8.9121    1.8219    7.8504 C   0  0  0  0  0  0  0  0  0  0  0  0
    8.5564    2.9154    8.6751 O   0  0  0  0  0  0  0  0  0  0  0  0
    7.9711    3.9494    7.9178 C   0  0  0  0  0  0  0  0  0  0  0  0
    6.7148    3.4847    7.1781 C   0  0  0  0  0  0  0  0  0  0  0  0
    6.5002    0.7702    4.7084 N   0  0  0  0  0  0  0  0  0  0  0  0
    5.8407    0.4030    3.6171 C   0  0  0  0  0  0  0  0  0  0  0  0
    1.8950    0.5964   -2.0668 H   0  0  0  0  0  0  0  0  0  0  0  0
    3.2357    1.7299   -1.7316 H   0  0  0  0  0  0  0  0  0  0  0  0
    1.6503    1.9971   -0.9762 H   0  0  0  0  0  0  0  0  0  0  0  0
    1.8855   -0.1439    0.3033 H   0  0  0  0  0  0  0  0  0  0  0  0
    4.4802   -0.3289   -1.0274 H   0  0  0  0  0  0  0  0  0  0  0  0
    3.3292   -1.4764   -0.8466 H   0  0  0  0  0  0  0  0  0  0  0  0
    4.5253   -0.2220    1.4755 H   0  0  0  0  0  0  0  0  0  0  0  0
    3.7919    3.0562    3.1517 H   0  0  0  0  0  0  0  0  0  0  0  0
    4.9914    3.7578    5.1994 H   0  0  0  0  0  0  0  0  0  0  0  0
    7.9958    0.4637    6.4242 H   0  0  0  0  0  0  0  0  0  0  0  0
    7.0168    0.7907    7.8770 H   0  0  0  0  0  0  0  0  0  0  0  0
    9.6724    2.1376    7.1060 H   0  0  0  0  0  0  0  0  0  0  0  0
    9.3626    1.0591    8.5036 H   0  0  0  0  0  0  0  0  0  0  0  0
    8.6997    4.3422    7.1777 H   0  0  0  0  0  0  0  0  0  0  0  0
    7.7167    4.7616    8.6162 H   0  0  0  0  0  0  0  0  0  0  0  0
    6.3840    4.3044    6.5254 H   0  0  0  0  0  0  0  0  0  0  0  0
    5.9028    3.2910    7.9117 H   0  0  0  0  0  0  0  0  0  0  0  0
    6.0975   -0.5808    3.1996 H   0  0  0  0  0  0  0  0  0  0  0  0
  1  2  1  0
  1 19  1  0
  1 20  1  0
  1 21  1  0
  2  3  1  0
  2  4  1  0
  2 22  1  1
  3 23  1  0
  3 24  1  0
  4  5  2  0
  4  6  1  0
  6  7  1  0
  6 25  1  0
  7  8  2  0
  7 18  1  0
  8  9  1  0
  8 26  1  0
  9 10  2  0
  9 27  1  0
 10 11  1  0
 10 17  1  0
 11 12  1  0
 11 16  1  0
 12 13  1  0
 12 28  1  0
 12 29  1  0
 13 14  1  0
 13 30  1  0
 13 31  1  0
 14 15  1  0
 15 16  1  0
 15 32  1  0
 15 33  1  0
 16 34  1  0
 16 35  1  0
 17 18  2  0
 18 36  1  0
M  END

