
     RDKit          3D

 42 42  0  0  0  0  0  0  0  0999 V2000
    4.5510    3.7093   -8.4012 C   0  0  0  0  0  0  0  0  0  0  0  0
    4.9603    4.3456   -7.0726 C   0  0  0  0  0  0  0  0  0  0  0  0
    5.4451    3.3807   -6.0951 N   0  0  0  0  0  0  0  0  0  0  0  0
    4.6564    2.9015   -5.0946 C   0  0  0  0  0  0  0  0  0  0  0  0
    3.5029    3.2449   -4.9076 O   0  0  0  0  0  0  0  0  0  0  0  0
    5.2826    1.7929   -4.2203 C   0  0  2  0  0  0  0  0  0  0  0  0
    5.0809    0.8475   -4.7494 H   0  0  0  0  0  0  0  0  0  0  0  0
    4.6818    1.7174   -2.8260 C   0  0  0  0  0  0  0  0  0  0  0  0
    6.7355    1.8379   -4.2398 O   0  0  0  0  0  0  0  0  0  0  0  0
    7.3916    2.8724   -3.7076 C   0  0  0  0  0  0  0  0  0  0  0  0
    6.8659    3.7832   -3.0984 O   0  0  0  0  0  0  0  0  0  0  0  0
    8.8645    2.8316   -4.0404 C   0  0  0  0  0  0  0  0  0  0  0  0
    9.1754    3.7385   -5.6124 S   0  0  0  0  0  0  0  0  0  0  0  0
    8.6295    5.4457   -5.1937 C   0  0  0  0  0  0  0  0  0  0  0  0
    9.4534    6.1158   -4.0901 C   0  0  0  0  0  0  0  0  0  0  0  0
   10.4715    6.7335   -4.3436 O   0  0  0  0  0  0  0  0  0  0  0  0
    8.9264    5.9340   -2.8363 N   0  0  0  0  0  0  0  0  0  0  0  0
    9.4231    6.3962   -1.6000 C   0  0  0  0  0  0  0  0  0  0  0  0
   10.5842    7.1811   -1.4745 C   0  0  0  0  0  0  0  0  0  0  0  0
   11.0072    7.6003   -0.2110 C   0  0  0  0  0  0  0  0  0  0  0  0
   10.2800    7.2402    0.9197 C   0  0  0  0  0  0  0  0  0  0  0  0
   10.6935    7.6476    2.1308 F   0  0  0  0  0  0  0  0  0  0  0  0
    9.1282    6.4631    0.8179 C   0  0  0  0  0  0  0  0  0  0  0  0
    8.7043    6.0436   -0.4420 C   0  0  0  0  0  0  0  0  0  0  0  0
    4.2055    4.4816   -9.1072 H   0  0  0  0  0  0  0  0  0  0  0  0
    3.7300    2.9907   -8.2533 H   0  0  0  0  0  0  0  0  0  0  0  0
    5.3946    3.1770   -8.8707 H   0  0  0  0  0  0  0  0  0  0  0  0
    4.1005    4.8548   -6.6147 H   0  0  0  0  0  0  0  0  0  0  0  0
    5.7472    5.1008   -7.2374 H   0  0  0  0  0  0  0  0  0  0  0  0
    6.3862    3.0145   -6.2053 H   0  0  0  0  0  0  0  0  0  0  0  0
    5.1193    0.8739   -2.2712 H   0  0  0  0  0  0  0  0  0  0  0  0
    3.6002    1.5552   -2.9270 H   0  0  0  0  0  0  0  0  0  0  0  0
    4.8404    2.6475   -2.2676 H   0  0  0  0  0  0  0  0  0  0  0  0
    9.1974    1.8040   -4.2373 H   0  0  0  0  0  0  0  0  0  0  0  0
    9.4542    3.2660   -3.2223 H   0  0  0  0  0  0  0  0  0  0  0  0
    7.5513    5.4474   -4.9770 H   0  0  0  0  0  0  0  0  0  0  0  0
    8.8129    6.0059   -6.1207 H   0  0  0  0  0  0  0  0  0  0  0  0
    8.0789    5.3662   -2.7825 H   0  0  0  0  0  0  0  0  0  0  0  0
   11.1421    7.4529   -2.3674 H   0  0  0  0  0  0  0  0  0  0  0  0
   11.9054    8.2105   -0.0963 H   0  0  0  0  0  0  0  0  0  0  0  0
    8.5761    6.1955    1.7208 H   0  0  0  0  0  0  0  0  0  0  0  0
    7.8019    5.4330   -0.5325 H   0  0  0  0  0  0  0  0  0  0  0  0
  1  2  1  0
  1 25  1  0
  1 26  1  0
  1 27  1  0
  2  3  1  0
  2 28  1  0
  2 29  1  0
  3  4  1  0
  3 30  1  0
  4  5  2  0
  4  6  1  0
  6  7  1  6
  6  8  1  0
  6  9  1  0
  8 31  1  0
  8 32  1  0
  8 33  1  0
  9 10  1  0
 10 11  2  0
 10 12  1  0
 12 13  1  0
 12 34  1  0
 12 35  1  0
 13 14  1  0
 14 15  1  0
 14 36  1  0
 14 37  1  0
 15 16  2  0
 15 17  1  0
 17 18  1  0
 17 38  1  0
 18 19  2  0
 18 24  1  0
 19 20  1  0
 19 39  1  0
 20 21  2  0
 20 40  1  0
 21 22  1  0
 21 23  1  0
 23 24  2  0
 23 41  1  0
 24 42  1  0
M  END

