
     RDKit          3D

 53 56  0  0  0  0  0  0  0  0999 V2000
    3.2501    1.4643    0.8647 C   0  0  0  0  0  0  0  0  0  0  0  0
    2.8577    0.3014   -0.0100 C   0  0  0  0  0  0  0  0  0  0  0  0
    1.6870    0.3231   -0.7845 C   0  0  0  0  0  0  0  0  0  0  0  0
    1.3025   -0.6643   -1.5968 N   0  0  0  0  0  0  0  0  0  0  0  0
    2.0741   -1.7451   -1.6801 C   0  0  0  0  0  0  0  0  0  0  0  0
    3.2601   -1.9028   -0.9416 C   0  0  0  0  0  0  0  0  0  0  0  0
    4.0492   -3.1702   -1.1337 C   0  0  0  0  0  0  0  0  0  0  0  0
    3.9418   -3.8445   -2.1462 O   0  0  0  0  0  0  0  0  0  0  0  0
    4.8884   -3.5177   -0.1070 N   0  0  0  0  0  0  0  0  0  0  0  0
    5.7253   -4.7042   -0.1580 C   0  0  2  0  0  0  0  0  0  0  0  0
    4.9618   -5.9622    0.2710 C   0  0  0  0  0  0  0  0  0  0  0  0
    5.7645   -7.1227    0.1434 O   0  0  0  0  0  0  0  0  0  0  0  0
    7.0612   -7.0621    0.5592 C   0  0  0  0  0  0  0  0  0  0  0  0
    7.7557   -8.2812    0.5829 C   0  0  0  0  0  0  0  0  0  0  0  0
    9.0988   -8.2934    0.9396 C   0  0  0  0  0  0  0  0  0  0  0  0
    9.7536   -7.1087    1.2910 C   0  0  0  0  0  0  0  0  0  0  0  0
    9.0636   -5.8860    1.2796 C   0  0  0  0  0  0  0  0  0  0  0  0
    9.7106   -4.6634    1.6075 N   0  0  0  0  0  0  0  0  0  0  0  0
   11.1436   -4.5617    1.3425 C   0  0  0  0  0  0  0  0  0  0  0  0
   11.5714   -3.0864    1.3967 C   0  0  0  0  0  0  0  0  0  0  0  0
   11.2314   -2.4252    2.6502 N   0  0  0  0  0  0  0  0  0  0  0  0
   12.1406   -2.6749    3.7533 C   0  0  0  0  0  0  0  0  0  0  0  0
    9.8182   -2.6047    2.9535 C   0  0  0  0  0  0  0  0  0  0  0  0
    9.3597   -4.0693    2.9020 C   0  0  0  0  0  0  0  0  0  0  0  0
    7.6976   -5.8520    0.8933 C   0  0  0  0  0  0  0  0  0  0  0  0
    6.9568   -4.5426    0.7329 C   0  0  0  0  0  0  0  0  0  0  0  0
    3.6496   -0.8509   -0.1052 C   0  0  0  0  0  0  0  0  0  0  0  0
    2.4846    2.2539    0.8485 H   0  0  0  0  0  0  0  0  0  0  0  0
    4.2009    1.9127    0.5309 H   0  0  0  0  0  0  0  0  0  0  0  0
    3.3897    1.1516    1.9127 H   0  0  0  0  0  0  0  0  0  0  0  0
    1.0305    1.2019   -0.7425 H   0  0  0  0  0  0  0  0  0  0  0  0
    1.7621   -2.5458   -2.3582 H   0  0  0  0  0  0  0  0  0  0  0  0
    4.8185   -3.0237    0.7744 H   0  0  0  0  0  0  0  0  0  0  0  0
    6.0234   -4.8442   -1.2086 H   0  0  0  0  0  0  0  0  0  0  0  0
    4.0859   -6.1194   -0.3726 H   0  0  0  0  0  0  0  0  0  0  0  0
    4.6168   -5.8506    1.3188 H   0  0  0  0  0  0  0  0  0  0  0  0
    7.2200   -9.1905    0.3051 H   0  0  0  0  0  0  0  0  0  0  0  0
    9.6459   -9.2396    0.9565 H   0  0  0  0  0  0  0  0  0  0  0  0
   10.8022   -7.1406    1.5871 H   0  0  0  0  0  0  0  0  0  0  0  0
   11.3518   -4.9750    0.3436 H   0  0  0  0  0  0  0  0  0  0  0  0
   11.7456   -5.1481    2.0714 H   0  0  0  0  0  0  0  0  0  0  0  0
   11.0640   -2.5531    0.5724 H   0  0  0  0  0  0  0  0  0  0  0  0
   12.6569   -3.0044    1.2249 H   0  0  0  0  0  0  0  0  0  0  0  0
   13.1659   -2.4027    3.4539 H   0  0  0  0  0  0  0  0  0  0  0  0
   12.1730   -3.7234    4.1234 H   0  0  0  0  0  0  0  0  0  0  0  0
   11.8667   -2.0357    4.6088 H   0  0  0  0  0  0  0  0  0  0  0  0
    9.2290   -2.0343    2.2116 H   0  0  0  0  0  0  0  0  0  0  0  0
    9.6014   -2.1776    3.9463 H   0  0  0  0  0  0  0  0  0  0  0  0
    8.2729   -4.1259    3.0555 H   0  0  0  0  0  0  0  0  0  0  0  0
    9.8237   -4.6462    3.7326 H   0  0  0  0  0  0  0  0  0  0  0  0
    7.6468   -3.7836    0.3312 H   0  0  0  0  0  0  0  0  0  0  0  0
    6.6221   -4.1581    1.7168 H   0  0  0  0  0  0  0  0  0  0  0  0
    4.5872   -0.9047    0.4575 H   0  0  0  0  0  0  0  0  0  0  0  0
  1  2  1  0
  1 28  1  0
  1 29  1  0
  1 30  1  0
  2  3  2  0
  2 27  1  0
  3  4  1  0
  3 31  1  0
  4  5  2  0
  5  6  1  0
  5 32  1  0
  6  7  1  0
  6 27  2  0
  7  8  2  0
  7  9  1  0
  9 10  1  0
  9 33  1  0
 10 11  1  0
 10 26  1  0
 10 34  1  6
 11 12  1  0
 11 35  1  0
 11 36  1  0
 12 13  1  0
 13 14  2  0
 13 25  1  0
 14 15  1  0
 14 37  1  0
 15 16  2  0
 15 38  1  0
 16 17  1  0
 16 39  1  0
 17 18  1  0
 17 25  2  0
 18 19  1  0
 18 24  1  0
 19 20  1  0
 19 40  1  0
 19 41  1  0
 20 21  1  0
 20 42  1  0
 20 43  1  0
 21 22  1  0
 21 23  1  0
 22 44  1  0
 22 45  1  0
 22 46  1  0
 23 24  1  0
 23 47  1  0
 23 48  1  0
 24 49  1  0
 24 50  1  0
 25 26  1  0
 26 51  1  0
 26 52  1  0
 27 53  1  0
M  END

