
     RDKit          3D

 57 61  0  0  0  0  0  0  0  0999 V2000
    9.6366   -0.0293   -3.7683 C   0  0  0  0  0  0  0  0  0  0  0  0
    9.6595   -1.0541   -2.7267 N   0  0  0  0  0  0  0  0  0  0  0  0
   10.8744   -1.5388   -2.2392 C   0  0  0  0  0  0  0  0  0  0  0  0
   11.9428   -1.1327   -2.6596 O   0  0  0  0  0  0  0  0  0  0  0  0
   10.7614   -2.6008   -1.2003 C   0  0  0  0  0  0  0  0  0  0  0  0
   11.9434   -3.1783   -0.7115 C   0  0  0  0  0  0  0  0  0  0  0  0
   11.8943   -4.2136    0.2160 C   0  0  0  0  0  0  0  0  0  0  0  0
   10.6506   -4.6999    0.6423 C   0  0  0  0  0  0  0  0  0  0  0  0
    9.4617   -4.1439    0.1729 C   0  0  0  0  0  0  0  0  0  0  0  0
    9.5162   -3.0726   -0.7305 C   0  0  0  0  0  0  0  0  0  0  0  0
    8.3682   -2.4285   -1.2282 N   0  0  0  0  0  0  0  0  0  0  0  0
    6.9945   -2.4890   -0.9553 C   0  0  0  0  0  0  0  0  0  0  0  0
    6.2979   -3.2643    0.1215 C   0  0  0  0  0  0  0  0  0  0  0  0
    6.2834   -4.7129   -0.0519 N   0  0  0  0  0  0  0  0  0  0  0  0
    5.6317   -5.1439   -1.2894 C   0  0  0  0  0  0  0  0  0  0  0  0
    5.7343   -6.6664   -1.4337 C   0  0  0  0  0  0  0  0  0  0  0  0
    5.1972   -7.4012   -0.2927 N   0  0  0  0  0  0  0  0  0  0  0  0
    3.7439   -7.5411   -0.2562 C   0  0  0  0  0  0  0  0  0  0  0  0
    3.3164   -8.6623    0.7003 C   0  0  0  0  0  0  0  0  0  0  0  0
    2.7889   -8.4046    1.7761 O   0  0  0  0  0  0  0  0  0  0  0  0
    3.5736   -9.9426    0.3125 N   0  0  0  0  0  0  0  0  0  0  0  0
    3.2743  -11.0619    1.2138 C   0  0  0  0  0  0  0  0  0  0  0  0
    4.0948  -12.2192    0.6335 C   0  0  0  0  0  0  0  0  0  0  0  0
    4.1222  -11.9080   -0.8702 C   0  0  0  0  0  0  0  0  0  0  0  0
    4.2549  -10.3789   -0.9124 C   0  0  0  0  0  0  0  0  0  0  0  0
    5.7949   -6.9153    0.9508 C   0  0  0  0  0  0  0  0  0  0  0  0
    5.7094   -5.3915    1.1112 C   0  0  0  0  0  0  0  0  0  0  0  0
    6.3672   -1.6478   -1.7363 N   0  0  0  0  0  0  0  0  0  0  0  0
    7.2728   -0.9970   -2.5327 N   0  0  0  0  0  0  0  0  0  0  0  0
    8.4516   -1.4632   -2.2092 C   0  0  0  0  0  0  0  0  0  0  0  0
   10.6751    0.1783   -4.0466 H   0  0  0  0  0  0  0  0  0  0  0  0
    9.1478    0.8815   -3.3924 H   0  0  0  0  0  0  0  0  0  0  0  0
    9.0660   -0.3885   -4.6368 H   0  0  0  0  0  0  0  0  0  0  0  0
   12.8892   -2.7899   -1.0936 H   0  0  0  0  0  0  0  0  0  0  0  0
   12.8178   -4.6572    0.5944 H   0  0  0  0  0  0  0  0  0  0  0  0
   10.6039   -5.5363    1.3444 H   0  0  0  0  0  0  0  0  0  0  0  0
    8.4943   -4.5678    0.4429 H   0  0  0  0  0  0  0  0  0  0  0  0
    5.2751   -2.8345    0.1540 H   0  0  0  0  0  0  0  0  0  0  0  0
    6.7685   -3.0452    1.0962 H   0  0  0  0  0  0  0  0  0  0  0  0
    6.1195   -4.6563   -2.1478 H   0  0  0  0  0  0  0  0  0  0  0  0
    4.5645   -4.8256   -1.3107 H   0  0  0  0  0  0  0  0  0  0  0  0
    6.8016   -6.9315   -1.5411 H   0  0  0  0  0  0  0  0  0  0  0  0
    5.2208   -6.9912   -2.3526 H   0  0  0  0  0  0  0  0  0  0  0  0
    3.3964   -7.7625   -1.2780 H   0  0  0  0  0  0  0  0  0  0  0  0
    3.2018   -6.6396    0.0884 H   0  0  0  0  0  0  0  0  0  0  0  0
    2.1909  -11.2831    1.2074 H   0  0  0  0  0  0  0  0  0  0  0  0
    3.5371  -10.7963    2.2483 H   0  0  0  0  0  0  0  0  0  0  0  0
    3.6637  -13.2040    0.8668 H   0  0  0  0  0  0  0  0  0  0  0  0
    5.1190  -12.1985    1.0426 H   0  0  0  0  0  0  0  0  0  0  0  0
    3.1721  -12.2182   -1.3369 H   0  0  0  0  0  0  0  0  0  0  0  0
    4.9369  -12.4138   -1.4096 H   0  0  0  0  0  0  0  0  0  0  0  0
    3.7874   -9.9469   -1.8122 H   0  0  0  0  0  0  0  0  0  0  0  0
    5.3083  -10.0515   -0.9041 H   0  0  0  0  0  0  0  0  0  0  0  0
    6.8591   -7.2114    0.9596 H   0  0  0  0  0  0  0  0  0  0  0  0
    5.3052   -7.3997    1.8083 H   0  0  0  0  0  0  0  0  0  0  0  0
    6.2664   -5.0882    2.0140 H   0  0  0  0  0  0  0  0  0  0  0  0
    4.6518   -5.0838    1.2737 H   0  0  0  0  0  0  0  0  0  0  0  0
  1  2  1  0
  1 31  1  0
  1 32  1  0
  1 33  1  0
  2  3  1  0
  2 30  1  0
  3  4  2  0
  3  5  1  0
  5  6  2  0
  5 10  1  0
  6  7  1  0
  6 34  1  0
  7  8  2  0
  7 35  1  0
  8  9  1  0
  8 36  1  0
  9 10  2  0
  9 37  1  0
 10 11  1  0
 11 12  1  0
 11 30  1  0
 12 13  1  0
 12 28  2  0
 13 14  1  0
 13 38  1  0
 13 39  1  0
 14 15  1  0
 14 27  1  0
 15 16  1  0
 15 40  1  0
 15 41  1  0
 16 17  1  0
 16 42  1  0
 16 43  1  0
 17 18  1  0
 17 26  1  0
 18 19  1  0
 18 44  1  0
 18 45  1  0
 19 20  2  0
 19 21  1  0
 21 22  1  0
 21 25  1  0
 22 23  1  0
 22 46  1  0
 22 47  1  0
 23 24  1  0
 23 48  1  0
 23 49  1  0
 24 25  1  0
 24 50  1  0
 24 51  1  0
 25 52  1  0
 25 53  1  0
 26 27  1  0
 26 54  1  0
 26 55  1  0
 27 56  1  0
 27 57  1  0
 28 29  1  0
 29 30  2  0
M  END

