
     RDKit          3D

 40 42  0  0  0  0  0  0  0  0999 V2000
    1.5612    0.6649   -0.3505 O   0  0  0  0  0  0  0  0  0  0  0  0
    2.1650   -0.2594    0.1755 C   0  0  0  0  0  0  0  0  0  0  0  0
    2.2804   -1.6130   -0.5188 C   0  0  1  0  0  0  0  0  0  0  0  0
    1.4934   -1.7770   -1.8409 C   0  0  0  0  0  0  0  0  0  0  0  0
    2.7247   -2.4807   -2.4656 C   0  0  0  0  0  0  0  0  0  0  0  0
    3.5929   -1.9216   -1.3107 C   0  0  0  0  0  0  0  0  0  0  0  0
    2.7833   -0.1135    1.3984 N   0  0  0  0  0  0  0  0  0  0  0  0
    3.5592   -1.1258    2.0967 C   0  0  0  0  0  0  0  0  0  0  0  0
    4.9721   -0.6163    2.4356 C   0  0  0  0  0  0  0  0  0  0  0  0
    5.0370    0.7751    3.1094 C   0  0  2  0  0  0  0  0  0  0  0  0
    6.3527    1.3097    2.9392 O   0  0  0  0  0  0  0  0  0  0  0  0
    4.7111    0.7803    4.6142 C   0  0  0  0  0  0  0  0  0  0  0  0
    4.9459    1.9671    5.3362 C   0  0  0  0  0  0  0  0  0  0  0  0
    4.6958    2.0375    6.7066 C   0  0  0  0  0  0  0  0  0  0  0  0
    4.2095    0.9252    7.4024 C   0  0  0  0  0  0  0  0  0  0  0  0
    3.9936   -0.2461    6.6868 C   0  0  0  0  0  0  0  0  0  0  0  0
    3.5393   -1.3345    7.3282 F   0  0  0  0  0  0  0  0  0  0  0  0
    4.2376   -0.3369    5.3158 C   0  0  0  0  0  0  0  0  0  0  0  0
    4.1175    1.7358    2.3248 C   0  0  0  0  0  0  0  0  0  0  0  0
    2.7174    1.1695    2.0912 C   0  0  0  0  0  0  0  0  0  0  0  0
    2.0487   -2.4289    0.1841 H   0  0  0  0  0  0  0  0  0  0  0  0
    1.2910   -0.7922   -2.2841 H   0  0  0  0  0  0  0  0  0  0  0  0
    0.5510   -2.3432   -1.7917 H   0  0  0  0  0  0  0  0  0  0  0  0
    3.0070   -2.1900   -3.4890 H   0  0  0  0  0  0  0  0  0  0  0  0
    2.6470   -3.5788   -2.4273 H   0  0  0  0  0  0  0  0  0  0  0  0
    4.1156   -0.9950   -1.5957 H   0  0  0  0  0  0  0  0  0  0  0  0
    4.3211   -2.6016   -0.8405 H   0  0  0  0  0  0  0  0  0  0  0  0
    3.6479   -2.0265    1.4789 H   0  0  0  0  0  0  0  0  0  0  0  0
    3.0207   -1.4238    3.0151 H   0  0  0  0  0  0  0  0  0  0  0  0
    5.5391   -0.5128    1.4973 H   0  0  0  0  0  0  0  0  0  0  0  0
    5.5012   -1.3670    3.0466 H   0  0  0  0  0  0  0  0  0  0  0  0
    6.9547    0.8105    3.5088 H   0  0  0  0  0  0  0  0  0  0  0  0
    5.3505    2.8347    4.8124 H   0  0  0  0  0  0  0  0  0  0  0  0
    4.8847    2.9690    7.2460 H   0  0  0  0  0  0  0  0  0  0  0  0
    4.0051    0.9516    8.4742 H   0  0  0  0  0  0  0  0  0  0  0  0
    4.0506   -1.2968    4.8365 H   0  0  0  0  0  0  0  0  0  0  0  0
    4.6043    1.9234    1.3543 H   0  0  0  0  0  0  0  0  0  0  0  0
    4.0542    2.7021    2.8475 H   0  0  0  0  0  0  0  0  0  0  0  0
    2.1187    1.8466    1.4706 H   0  0  0  0  0  0  0  0  0  0  0  0
    2.1912    1.0358    3.0555 H   0  0  0  0  0  0  0  0  0  0  0  0
  1  2  2  0
  2  3  1  0
  2  7  1  0
  3  4  1  0
  3  6  1  0
  3 21  1  1
  4  5  1  0
  4 22  1  0
  4 23  1  0
  5  6  1  0
  5 24  1  0
  5 25  1  0
  6 26  1  0
  6 27  1  0
  7  8  1  0
  7 20  1  0
  8  9  1  0
  8 28  1  0
  8 29  1  0
  9 10  1  0
  9 30  1  0
  9 31  1  0
 10 11  1  1
 10 12  1  0
 10 19  1  0
 11 32  1  0
 12 13  2  0
 12 18  1  0
 13 14  1  0
 13 33  1  0
 14 15  2  0
 14 34  1  0
 15 16  1  0
 15 35  1  0
 16 17  1  0
 16 18  2  0
 18 36  1  0
 19 20  1  0
 19 37  1  0
 19 38  1  0
 20 39  1  0
 20 40  1  0
M  END

