
     RDKit          3D

 28 29  0  0  0  0  0  0  0  0999 V2000
    2.7887    0.8722   -0.5139 O   0  0  0  0  0  0  0  0  0  0  0  0
    2.3425   -0.1230    0.0296 C   0  0  0  0  0  0  0  0  0  0  0  0
    1.2358   -0.1897    0.8146 N   0  0  0  0  0  0  0  0  0  0  0  0
    0.3809    0.8468    1.1746 C   0  0  0  0  0  0  0  0  0  0  0  0
   -0.6560    0.6140    1.8741 N   0  0  0  0  0  0  0  0  0  0  0  0
   -1.4672    1.8043    2.0596 C   0  0  0  0  0  0  0  0  0  0  0  0
   -0.6295    3.0722    1.7713 C   0  0  0  0  0  0  0  0  0  0  0  0
    0.7267    2.5247    0.6479 S   0  0  0  0  0  0  0  0  0  0  0  0
    3.0112   -1.5097   -0.1195 C   0  0  0  0  0  0  0  0  0  0  0  0
    2.5442   -2.4993    0.4217 O   0  0  0  0  0  0  0  0  0  0  0  0
    4.1167   -1.4245   -0.8984 N   0  0  0  0  0  0  0  0  0  0  0  0
    5.0115   -2.4355   -1.2877 C   0  0  0  0  0  0  0  0  0  0  0  0
    4.8671   -3.7754   -0.8870 C   0  0  0  0  0  0  0  0  0  0  0  0
    5.8022   -4.7177   -1.3194 C   0  0  0  0  0  0  0  0  0  0  0  0
    6.8761   -4.3624   -2.1389 C   0  0  0  0  0  0  0  0  0  0  0  0
    7.0043   -3.0257   -2.5276 C   0  0  0  0  0  0  0  0  0  0  0  0
    8.3366   -2.5452   -3.5529 Cl  0  0  0  0  0  0  0  0  0  0  0  0
    6.0869   -2.0618   -2.1125 C   0  0  0  0  0  0  0  0  0  0  0  0
    0.9913   -1.1186    1.1603 H   0  0  0  0  0  0  0  0  0  0  0  0
   -1.8786    1.8293    3.0816 H   0  0  0  0  0  0  0  0  0  0  0  0
   -2.3327    1.7434    1.3725 H   0  0  0  0  0  0  0  0  0  0  0  0
   -0.1762    3.4838    2.6864 H   0  0  0  0  0  0  0  0  0  0  0  0
   -1.2103    3.8657    1.2810 H   0  0  0  0  0  0  0  0  0  0  0  0
    4.2934   -0.4775   -1.2336 H   0  0  0  0  0  0  0  0  0  0  0  0
    4.0331   -4.0591   -0.2490 H   0  0  0  0  0  0  0  0  0  0  0  0
    5.6896   -5.7591   -1.0079 H   0  0  0  0  0  0  0  0  0  0  0  0
    7.6043   -5.1017   -2.4744 H   0  0  0  0  0  0  0  0  0  0  0  0
    6.2100   -1.0244   -2.4303 H   0  0  0  0  0  0  0  0  0  0  0  0
  1  2  2  0
  2  3  1  0
  2  9  1  0
  3  4  1  0
  3 19  1  0
  4  5  2  0
  4  8  1  0
  5  6  1  0
  6  7  1  0
  6 20  1  0
  6 21  1  0
  7  8  1  0
  7 22  1  0
  7 23  1  0
  9 10  2  0
  9 11  1  0
 11 12  1  0
 11 24  1  0
 12 13  2  0
 12 18  1  0
 13 14  1  0
 13 25  1  0
 14 15  2  0
 14 26  1  0
 15 16  1  0
 15 27  1  0
 16 17  1  0
 16 18  2  0
 18 28  1  0
M  END

