
     RDKit          3D

 43 45  0  0  0  0  0  0  0  0999 V2000
    1.6007    0.3740   -0.0167 C   0  0  0  0  0  0  0  0  0  0  0  0
    3.0292   -0.0546   -0.0943 C   0  0  0  0  0  0  0  0  0  0  0  0
    4.0112    0.8329   -0.1146 N   0  0  0  0  0  0  0  0  0  0  0  0
    5.1758    0.1349   -0.1987 N   0  0  0  0  0  0  0  0  0  0  0  0
    6.4102    0.8462   -0.2050 C   0  0  0  0  0  0  0  0  0  0  0  0
    6.5307    1.9800    0.6111 C   0  0  0  0  0  0  0  0  0  0  0  0
    7.7211    2.7072    0.6104 C   0  0  0  0  0  0  0  0  0  0  0  0
    8.7942    2.3087   -0.1939 C   0  0  0  0  0  0  0  0  0  0  0  0
    8.6638    1.1833   -1.0116 C   0  0  0  0  0  0  0  0  0  0  0  0
    7.4722    0.4537   -1.0298 C   0  0  0  0  0  0  0  0  0  0  0  0
    4.9263   -1.2074   -0.2199 C   0  0  0  0  0  0  0  0  0  0  0  0
    6.1514   -2.4192   -0.2263 Cl  0  0  0  0  0  0  0  0  0  0  0  0
    3.5478   -1.3912   -0.1607 C   0  0  0  0  0  0  0  0  0  0  0  0
    2.8461   -2.6573   -0.1529 C   0  0  0  0  0  0  0  0  0  0  0  0
    1.5645   -2.7217   -0.0836 N   0  0  0  0  0  0  0  0  0  0  0  0
    1.0026   -3.9481   -0.0846 N   0  0  0  0  0  0  0  0  0  0  0  0
   -0.3572   -4.1228    0.0198 C   0  0  0  0  0  0  0  0  0  0  0  0
   -1.1748   -3.2322    0.1080 O   0  0  0  0  0  0  0  0  0  0  0  0
   -0.7631   -5.6158    0.0485 C   0  0  1  0  0  0  0  0  0  0  0  0
   -1.7199   -5.6631   -0.5024 H   0  0  0  0  0  0  0  0  0  0  0  0
    0.2156   -6.4467   -0.5591 O   0  0  0  0  0  0  0  0  0  0  0  0
   -1.0075   -6.0771    1.4818 C   0  0  0  0  0  0  0  0  0  0  0  0
   -1.8923   -5.3643    2.3074 C   0  0  0  0  0  0  0  0  0  0  0  0
   -2.1335   -5.7914    3.6144 C   0  0  0  0  0  0  0  0  0  0  0  0
   -1.4962   -6.9326    4.1135 C   0  0  0  0  0  0  0  0  0  0  0  0
   -0.6164   -7.6438    3.2946 C   0  0  0  0  0  0  0  0  0  0  0  0
   -0.3726   -7.2207    1.9835 C   0  0  0  0  0  0  0  0  0  0  0  0
    1.5456    1.4708    0.0159 H   0  0  0  0  0  0  0  0  0  0  0  0
    1.1088   -0.0481    0.8731 H   0  0  0  0  0  0  0  0  0  0  0  0
    1.0280    0.0009   -0.8795 H   0  0  0  0  0  0  0  0  0  0  0  0
    5.6829    2.2805    1.2270 H   0  0  0  0  0  0  0  0  0  0  0  0
    7.8117    3.5901    1.2477 H   0  0  0  0  0  0  0  0  0  0  0  0
    9.7265    2.8783   -0.1881 H   0  0  0  0  0  0  0  0  0  0  0  0
    9.4906    0.8738   -1.6555 H   0  0  0  0  0  0  0  0  0  0  0  0
    7.3682   -0.4070   -1.6898 H   0  0  0  0  0  0  0  0  0  0  0  0
    3.4676   -3.5706   -0.2067 H   0  0  0  0  0  0  0  0  0  0  0  0
    1.5756   -4.7931   -0.1574 H   0  0  0  0  0  0  0  0  0  0  0  0
    0.1121   -6.3864   -1.5174 H   0  0  0  0  0  0  0  0  0  0  0  0
   -2.3820   -4.4680    1.9205 H   0  0  0  0  0  0  0  0  0  0  0  0
   -2.8241   -5.2283    4.2474 H   0  0  0  0  0  0  0  0  0  0  0  0
   -1.6866   -7.2653    5.1371 H   0  0  0  0  0  0  0  0  0  0  0  0
   -0.1150   -8.5376    3.6752 H   0  0  0  0  0  0  0  0  0  0  0  0
    0.3078   -7.7790    1.3401 H   0  0  0  0  0  0  0  0  0  0  0  0
  1  2  1  0
  1 28  1  0
  1 29  1  0
  1 30  1  0
  2  3  2  0
  2 13  1  0
  3  4  1  0
  4  5  1  0
  4 11  1  0
  5  6  2  0
  5 10  1  0
  6  7  1  0
  6 31  1  0
  7  8  2  0
  7 32  1  0
  8  9  1  0
  8 33  1  0
  9 10  2  0
  9 34  1  0
 10 35  1  0
 11 12  1  0
 11 13  2  0
 13 14  1  0
 14 15  2  0
 14 36  1  0
 15 16  1  0
 16 17  1  0
 16 37  1  0
 17 18  2  0
 17 19  1  0
 19 20  1  6
 19 21  1  0
 19 22  1  0
 21 38  1  0
 22 23  2  0
 22 27  1  0
 23 24  1  0
 23 39  1  0
 24 25  2  0
 24 40  1  0
 25 26  1  0
 25 41  1  0
 26 27  2  0
 26 42  1  0
 27 43  1  0
M  END

