
     RDKit          3D

 59 62  0  0  0  0  0  0  0  0999 V2000
    2.1595    4.3275   -3.7995 C   0  0  0  0  0  0  0  0  0  0  0  0
    2.3959    4.6722   -2.3276 C   0  0  0  0  0  0  0  0  0  0  0  0
    3.1627    3.6715   -1.5917 N   0  0  0  0  0  0  0  0  0  0  0  0
    2.3508    2.4545   -1.2986 C   0  0  0  0  0  0  0  0  0  0  0  0
    3.0162    1.0949   -0.8562 C   0  0  0  0  0  0  0  0  0  0  0  0
    3.6134    1.0932    0.6096 C   0  0  1  0  0  0  0  0  0  0  0  0
    5.1904    0.9203    0.7919 C   0  0  0  0  0  0  0  0  0  0  0  0
    5.7689    2.3973    0.8315 C   0  0  0  0  0  0  0  0  0  0  0  0
    4.5320    3.0515    0.1948 C   0  0  2  0  0  0  0  0  0  0  0  0
    4.0029    4.2826   -0.5151 C   0  0  0  0  0  0  0  0  0  0  0  0
    3.4544    2.4770    1.0121 N   0  0  0  0  0  0  0  0  0  0  0  0
    3.2018    2.9765    2.2765 C   0  0  0  0  0  0  0  0  0  0  0  0
    3.6542    4.0476    2.6646 O   0  0  0  0  0  0  0  0  0  0  0  0
    2.3771    2.1961    3.0595 N   0  0  0  0  0  0  0  0  0  0  0  0
    1.9075    2.6819    4.3542 C   0  0  1  0  0  0  0  0  0  0  0  0
    0.6630    3.5796    4.2280 C   0  0  0  0  0  0  0  0  0  0  0  0
    1.6770    1.5144    5.2652 C   0  0  0  0  0  0  0  0  0  0  0  0
    0.7668    0.5891    4.8001 O   0  0  0  0  0  0  0  0  0  0  0  0
    0.6783   -0.3874    5.7512 C   0  0  0  0  0  0  0  0  0  0  0  0
   -0.1139   -1.5256    5.7125 C   0  0  0  0  0  0  0  0  0  0  0  0
   -0.0465   -2.3956    6.8077 C   0  0  0  0  0  0  0  0  0  0  0  0
    0.7995   -2.1167    7.9055 C   0  0  0  0  0  0  0  0  0  0  0  0
    0.9072   -2.9245    8.9979 O   0  0  0  0  0  0  0  0  0  0  0  0
    0.1458   -4.1056    9.0669 C   0  0  0  0  0  0  0  0  0  0  0  0
    1.5925   -0.9600    7.9239 C   0  0  0  0  0  0  0  0  0  0  0  0
    1.5302   -0.0858    6.8327 C   0  0  0  0  0  0  0  0  0  0  0  0
    2.1777    1.1679    6.4890 C   0  0  0  0  0  0  0  0  0  0  0  0
    3.1825    1.8965    7.3255 C   0  0  0  0  0  0  0  0  0  0  0  0
    1.6595    5.1652   -4.3123 H   0  0  0  0  0  0  0  0  0  0  0  0
    1.5196    3.4407   -3.9302 H   0  0  0  0  0  0  0  0  0  0  0  0
    3.1174    4.1296   -4.3058 H   0  0  0  0  0  0  0  0  0  0  0  0
    1.4204    4.8922   -1.8343 H   0  0  0  0  0  0  0  0  0  0  0  0
    2.9665    5.6143   -2.2864 H   0  0  0  0  0  0  0  0  0  0  0  0
    1.8477    2.2170   -2.2480 H   0  0  0  0  0  0  0  0  0  0  0  0
    1.5425    2.6794   -0.5715 H   0  0  0  0  0  0  0  0  0  0  0  0
    3.7697    0.7831   -1.5986 H   0  0  0  0  0  0  0  0  0  0  0  0
    2.2093    0.3442   -0.9168 H   0  0  0  0  0  0  0  0  0  0  0  0
    3.0727    0.3850    1.2536 H   0  0  0  0  0  0  0  0  0  0  0  0
    5.6337    0.3400   -0.0336 H   0  0  0  0  0  0  0  0  0  0  0  0
    5.3951    0.3762    1.7259 H   0  0  0  0  0  0  0  0  0  0  0  0
    6.6807    2.4950    0.2237 H   0  0  0  0  0  0  0  0  0  0  0  0
    5.9785    2.7447    1.8535 H   0  0  0  0  0  0  0  0  0  0  0  0
    4.5575    2.4476   -0.7135 H   0  0  0  0  0  0  0  0  0  0  0  0
    4.7967    4.8739   -1.0011 H   0  0  0  0  0  0  0  0  0  0  0  0
    3.4436    4.9495    0.1675 H   0  0  0  0  0  0  0  0  0  0  0  0
    1.8335    1.4582    2.6279 H   0  0  0  0  0  0  0  0  0  0  0  0
    2.7268    3.2861    4.7671 H   0  0  0  0  0  0  0  0  0  0  0  0
   -0.1843    3.0171    3.8054 H   0  0  0  0  0  0  0  0  0  0  0  0
    0.8918    4.4329    3.5729 H   0  0  0  0  0  0  0  0  0  0  0  0
    0.3593    3.9661    5.2137 H   0  0  0  0  0  0  0  0  0  0  0  0
   -0.7666   -1.7358    4.8632 H   0  0  0  0  0  0  0  0  0  0  0  0
   -0.6611   -3.2954    6.7999 H   0  0  0  0  0  0  0  0  0  0  0  0
    0.3948   -4.5838   10.0242 H   0  0  0  0  0  0  0  0  0  0  0  0
    0.3896   -4.8060    8.2468 H   0  0  0  0  0  0  0  0  0  0  0  0
   -0.9408   -3.9016    9.0446 H   0  0  0  0  0  0  0  0  0  0  0  0
    2.2345   -0.7750    8.7871 H   0  0  0  0  0  0  0  0  0  0  0  0
    4.0558    1.2583    7.5424 H   0  0  0  0  0  0  0  0  0  0  0  0
    2.7537    2.1940    8.2976 H   0  0  0  0  0  0  0  0  0  0  0  0
    3.5487    2.8062    6.8285 H   0  0  0  0  0  0  0  0  0  0  0  0
  1  2  1  0
  1 29  1  0
  1 30  1  0
  1 31  1  0
  2  3  1  0
  2 32  1  0
  2 33  1  0
  3  4  1  0
  3 10  1  0
  4  5  1  0
  4 34  1  0
  4 35  1  0
  5  6  1  0
  5 36  1  0
  5 37  1  0
  6  7  1  0
  6 11  1  0
  6 38  1  1
  7  8  1  0
  7 39  1  0
  7 40  1  0
  8  9  1  0
  8 41  1  0
  8 42  1  0
  9 10  1  0
  9 11  1  0
  9 43  1  6
 10 44  1  0
 10 45  1  0
 11 12  1  0
 12 13  2  0
 12 14  1  0
 14 15  1  0
 14 46  1  0
 15 16  1  0
 15 17  1  0
 15 47  1  1
 16 48  1  0
 16 49  1  0
 16 50  1  0
 17 18  1  0
 17 27  2  0
 18 19  1  0
 19 20  2  0
 19 26  1  0
 20 21  1  0
 20 51  1  0
 21 22  2  0
 21 52  1  0
 22 23  1  0
 22 25  1  0
 23 24  1  0
 24 53  1  0
 24 54  1  0
 24 55  1  0
 25 26  2  0
 25 56  1  0
 26 27  1  0
 27 28  1  0
 28 57  1  0
 28 58  1  0
 28 59  1  0
M  END

