
     RDKit          3D

 47 50  0  0  0  0  0  0  0  0999 V2000
    0.6893    0.0740    0.9074 C   0  0  0  0  0  0  0  0  0  0  0  0
    1.9740    0.0899    0.4762 C   0  0  0  0  0  0  0  0  0  0  0  0
    2.6557    1.3880    0.2562 C   0  0  0  0  0  0  0  0  0  0  0  0
    1.9618    2.5567   -0.1088 C   0  0  0  0  0  0  0  0  0  0  0  0
    2.6309    3.7719   -0.2391 C   0  0  0  0  0  0  0  0  0  0  0  0
    4.0103    3.8494    0.0008 C   0  0  0  0  0  0  0  0  0  0  0  0
    4.7109    2.7000    0.3517 C   0  0  0  0  0  0  0  0  0  0  0  0
    4.0454    1.4678    0.4647 C   0  0  0  0  0  0  0  0  0  0  0  0
    4.8377    0.2511    0.7947 C   0  0  0  0  0  0  0  0  0  0  0  0
    6.0231    0.3865    1.1373 O   0  0  0  0  0  0  0  0  0  0  0  0
    4.2007   -1.0573    0.5982 C   0  0  0  0  0  0  0  0  0  0  0  0
    5.0097   -2.2455    0.6084 C   0  0  0  0  0  0  0  0  0  0  0  0
    6.3382   -2.1872    0.9021 N   0  0  0  0  0  0  0  0  0  0  0  0
    7.2700   -3.3022    0.9270 C   0  0  1  0  0  0  0  0  0  0  0  0
    8.7009   -2.7817    0.6876 C   0  0  0  0  0  0  0  0  0  0  0  0
    9.2480   -1.9720    1.8731 C   0  0  0  0  0  0  0  0  0  0  0  0
    9.1608   -2.7654    3.1840 C   0  0  0  0  0  0  0  0  0  0  0  0
    7.7351   -3.2733    3.4386 C   0  0  0  0  0  0  0  0  0  0  0  0
    7.2101   -4.0956    2.2548 C   0  0  0  0  0  0  0  0  0  0  0  0
    4.3792   -3.4708    0.2902 C   0  0  0  0  0  0  0  0  0  0  0  0
    3.0374   -3.5272   -0.0570 C   0  0  0  0  0  0  0  0  0  0  0  0
    2.2685   -5.0895   -0.4764 S   0  0  0  0  0  0  0  0  0  0  0  0
    2.2101   -2.3709   -0.0497 C   0  0  0  0  0  0  0  0  0  0  0  0
    0.8589   -2.5141   -0.3893 N   0  0  0  0  0  0  0  0  0  0  0  0
    2.7954   -1.1414    0.3273 C   0  0  0  0  0  0  0  0  0  0  0  0
    0.1523    1.0061    1.0929 H   0  0  0  0  0  0  0  0  0  0  0  0
    0.1714   -0.8512    1.1595 H   0  0  0  0  0  0  0  0  0  0  0  0
    0.8903    2.5085   -0.3128 H   0  0  0  0  0  0  0  0  0  0  0  0
    2.0754    4.6656   -0.5354 H   0  0  0  0  0  0  0  0  0  0  0  0
    4.5323    4.8046   -0.0970 H   0  0  0  0  0  0  0  0  0  0  0  0
    5.7853    2.7182    0.5418 H   0  0  0  0  0  0  0  0  0  0  0  0
    6.6620   -1.2429    1.1250 H   0  0  0  0  0  0  0  0  0  0  0  0
    7.0182   -3.9857    0.0968 H   0  0  0  0  0  0  0  0  0  0  0  0
    8.7219   -2.1832   -0.2380 H   0  0  0  0  0  0  0  0  0  0  0  0
    9.3532   -3.6559    0.5169 H   0  0  0  0  0  0  0  0  0  0  0  0
    8.6853   -1.0267    1.9768 H   0  0  0  0  0  0  0  0  0  0  0  0
   10.2913   -1.6782    1.6692 H   0  0  0  0  0  0  0  0  0  0  0  0
    9.5042   -2.1456    4.0292 H   0  0  0  0  0  0  0  0  0  0  0  0
    9.8499   -3.6293    3.1320 H   0  0  0  0  0  0  0  0  0  0  0  0
    7.0640   -2.4119    3.6037 H   0  0  0  0  0  0  0  0  0  0  0  0
    7.6998   -3.8763    4.3613 H   0  0  0  0  0  0  0  0  0  0  0  0
    6.1762   -4.4266    2.4456 H   0  0  0  0  0  0  0  0  0  0  0  0
    7.8190   -5.0109    2.1389 H   0  0  0  0  0  0  0  0  0  0  0  0
    4.9529   -4.3955    0.3222 H   0  0  0  0  0  0  0  0  0  0  0  0
    3.3780   -5.6670   -0.9880 H   0  0  0  0  0  0  0  0  0  0  0  0
    0.6996   -3.2720   -1.0513 H   0  0  0  0  0  0  0  0  0  0  0  0
    0.4168   -1.6537   -0.7017 H   0  0  0  0  0  0  0  0  0  0  0  0
  1  2  2  0
  1 26  1  0
  1 27  1  0
  2  3  1  0
  2 25  1  0
  3  4  1  0
  3  8  2  0
  4  5  2  0
  4 28  1  0
  5  6  1  0
  5 29  1  0
  6  7  2  0
  6 30  1  0
  7  8  1  0
  7 31  1  0
  8  9  1  0
  9 10  2  0
  9 11  1  0
 11 12  1  0
 11 25  2  0
 12 13  1  0
 12 20  2  0
 13 14  1  0
 13 32  1  0
 14 15  1  0
 14 19  1  0
 14 33  1  6
 15 16  1  0
 15 34  1  0
 15 35  1  0
 16 17  1  0
 16 36  1  0
 16 37  1  0
 17 18  1  0
 17 38  1  0
 17 39  1  0
 18 19  1  0
 18 40  1  0
 18 41  1  0
 19 42  1  0
 19 43  1  0
 20 21  1  0
 20 44  1  0
 21 22  1  0
 21 23  2  0
 22 45  1  0
 23 24  1  0
 23 25  1  0
 24 46  1  0
 24 47  1  0
M  END

