
     RDKit          3D

 46 47  0  0  0  0  0  0  0  0999 V2000
    1.5253    0.5145   -0.4675 C   0  0  0  0  0  0  0  0  0  0  0  0
    2.8460    1.2289   -0.7549 C   0  0  0  0  0  0  0  0  0  0  0  0
    3.7811    1.3272    0.4694 C   0  0  2  0  0  0  0  0  0  0  0  0
    3.9648    0.2928    0.8058 H   0  0  0  0  0  0  0  0  0  0  0  0
    3.1428    1.9723    1.6280 N   0  0  0  0  0  0  0  0  0  0  0  0
    2.4567    3.1493    1.6402 C   0  0  0  0  0  0  0  0  0  0  0  0
    2.2484    3.8425    0.6574 O   0  0  0  0  0  0  0  0  0  0  0  0
    1.9267    3.5412    3.0083 C   0  0  0  0  0  0  0  0  0  0  0  0
    0.5433    3.4919    3.2623 C   0  0  0  0  0  0  0  0  0  0  0  0
   -0.2186    2.9593    2.2754 O   0  0  0  0  0  0  0  0  0  0  0  0
   -1.6223    2.9436    2.4057 C   0  0  0  0  0  0  0  0  0  0  0  0
    0.0284    3.9564    4.4845 C   0  0  0  0  0  0  0  0  0  0  0  0
    0.9069    4.4672    5.4412 C   0  0  0  0  0  0  0  0  0  0  0  0
    2.2833    4.5187    5.2178 C   0  0  0  0  0  0  0  0  0  0  0  0
    2.7910    4.0489    3.9946 C   0  0  0  0  0  0  0  0  0  0  0  0
    4.1117    4.0432    3.6734 O   0  0  0  0  0  0  0  0  0  0  0  0
    5.0505    4.6153    4.5564 C   0  0  0  0  0  0  0  0  0  0  0  0
    5.1446    1.9188    0.1222 C   0  0  0  0  0  0  0  0  0  0  0  0
    5.3028    3.2696   -0.2275 C   0  0  0  0  0  0  0  0  0  0  0  0
    6.5621    3.7738   -0.5620 C   0  0  0  0  0  0  0  0  0  0  0  0
    7.7040    2.9576   -0.5667 C   0  0  0  0  0  0  0  0  0  0  0  0
    9.0650    3.5046   -0.9257 C   0  0  0  0  0  0  0  0  0  0  0  0
    7.5402    1.6079   -0.2195 C   0  0  0  0  0  0  0  0  0  0  0  0
    6.2842    1.1004    0.1199 C   0  0  0  0  0  0  0  0  0  0  0  0
    0.9250    0.4240   -1.3869 H   0  0  0  0  0  0  0  0  0  0  0  0
    0.9229    1.0645    0.2713 H   0  0  0  0  0  0  0  0  0  0  0  0
    1.6905   -0.5052   -0.0782 H   0  0  0  0  0  0  0  0  0  0  0  0
    2.6492    2.2390   -1.1401 H   0  0  0  0  0  0  0  0  0  0  0  0
    3.4060    0.6877   -1.5362 H   0  0  0  0  0  0  0  0  0  0  0  0
    3.3476    1.5715    2.5349 H   0  0  0  0  0  0  0  0  0  0  0  0
   -2.0154    2.5124    1.4756 H   0  0  0  0  0  0  0  0  0  0  0  0
   -2.0325    3.9613    2.5303 H   0  0  0  0  0  0  0  0  0  0  0  0
   -1.9507    2.3192    3.2563 H   0  0  0  0  0  0  0  0  0  0  0  0
   -1.0400    3.9219    4.6934 H   0  0  0  0  0  0  0  0  0  0  0  0
    0.5070    4.8322    6.3908 H   0  0  0  0  0  0  0  0  0  0  0  0
    2.9442    4.9206    5.9847 H   0  0  0  0  0  0  0  0  0  0  0  0
    6.0293    4.5273    4.0665 H   0  0  0  0  0  0  0  0  0  0  0  0
    5.0846    4.0827    5.5240 H   0  0  0  0  0  0  0  0  0  0  0  0
    4.8374    5.6825    4.7450 H   0  0  0  0  0  0  0  0  0  0  0  0
    4.4310    3.9267   -0.2322 H   0  0  0  0  0  0  0  0  0  0  0  0
    6.6584    4.8302   -0.8305 H   0  0  0  0  0  0  0  0  0  0  0  0
    9.0074    4.5568   -1.2418 H   0  0  0  0  0  0  0  0  0  0  0  0
    9.5258    2.9310   -1.7472 H   0  0  0  0  0  0  0  0  0  0  0  0
    9.7592    3.4503   -0.0696 H   0  0  0  0  0  0  0  0  0  0  0  0
    8.4090    0.9422   -0.2128 H   0  0  0  0  0  0  0  0  0  0  0  0
    6.1888    0.0432    0.3878 H   0  0  0  0  0  0  0  0  0  0  0  0
  1  2  1  0
  1 25  1  0
  1 26  1  0
  1 27  1  0
  2  3  1  0
  2 28  1  0
  2 29  1  0
  3  4  1  1
  3  5  1  0
  3 18  1  0
  5  6  1  0
  5 30  1  0
  6  7  2  0
  6  8  1  0
  8  9  2  0
  8 15  1  0
  9 10  1  0
  9 12  1  0
 10 11  1  0
 11 31  1  0
 11 32  1  0
 11 33  1  0
 12 13  2  0
 12 34  1  0
 13 14  1  0
 13 35  1  0
 14 15  2  0
 14 36  1  0
 15 16  1  0
 16 17  1  0
 17 37  1  0
 17 38  1  0
 17 39  1  0
 18 19  2  0
 18 24  1  0
 19 20  1  0
 19 40  1  0
 20 21  2  0
 20 41  1  0
 21 22  1  0
 21 23  1  0
 22 42  1  0
 22 43  1  0
 22 44  1  0
 23 24  2  0
 23 45  1  0
 24 46  1  0
M  END

