
     RDKit          3D

 46 48  0  0  0  0  0  0  0  0999 V2000
    1.3264    0.2781   -0.3015 C   0  0  0  0  0  0  0  0  0  0  0  0
    2.5698    1.0961    0.0075 C   0  0  0  0  0  0  0  0  0  0  0  0
    3.1400    1.6673   -1.1821 O   0  0  0  0  0  0  0  0  0  0  0  0
    3.9941    0.9091   -1.8826 C   0  0  0  0  0  0  0  0  0  0  0  0
    4.3181   -0.2194   -1.5709 O   0  0  0  0  0  0  0  0  0  0  0  0
    4.5195    1.5836   -3.0897 C   0  0  0  0  0  0  0  0  0  0  0  0
    4.1730    2.8211   -3.4487 N   0  0  0  0  0  0  0  0  0  0  0  0
    4.8463    3.0734   -4.5827 N   0  0  0  0  0  0  0  0  0  0  0  0
    4.5803    4.3047   -5.2545 C   0  0  0  0  0  0  0  0  0  0  0  0
    4.6580    5.5058   -4.5383 C   0  0  0  0  0  0  0  0  0  0  0  0
    4.3636    6.7141   -5.1661 C   0  0  0  0  0  0  0  0  0  0  0  0
    3.9962    6.7273   -6.5188 C   0  0  0  0  0  0  0  0  0  0  0  0
    3.6090    8.2468   -7.3634 S   0  0  0  0  0  0  0  0  0  0  0  0
    3.8566    9.3805   -6.2874 O   0  0  0  0  0  0  0  0  0  0  0  0
    5.5857    9.9668   -6.3163 O   0  0  0  0  0  0  0  0  0  0  0  0
    5.6408   11.0387   -5.6347 N   0  0  0  0  0  0  0  0  0  0  0  0
    3.9110    5.5218   -7.2342 C   0  0  0  0  0  0  0  0  0  0  0  0
    4.1903    4.3124   -6.5997 C   0  0  0  0  0  0  0  0  0  0  0  0
    5.6479    2.0115   -4.9601 C   0  0  0  0  0  0  0  0  0  0  0  0
    5.4314    1.0199   -4.0151 C   0  0  0  0  0  0  0  0  0  0  0  0
    6.1319   -0.2994   -4.0764 C   0  0  0  0  0  0  0  0  0  0  0  0
    6.5893   -0.5132   -5.4477 N   0  0  0  0  0  0  0  0  0  0  0  0
    7.0634    0.5121   -6.2459 C   0  0  0  0  0  0  0  0  0  0  0  0
    7.9692    0.2502   -7.2919 C   0  0  0  0  0  0  0  0  0  0  0  0
    8.4413    1.2782   -8.1059 C   0  0  0  0  0  0  0  0  0  0  0  0
    8.0354    2.5987   -7.8868 C   0  0  0  0  0  0  0  0  0  0  0  0
    7.1270    2.8744   -6.8634 C   0  0  0  0  0  0  0  0  0  0  0  0
    6.6086    1.8533   -6.0514 C   0  0  0  0  0  0  0  0  0  0  0  0
    0.8666   -0.0741    0.6360 H   0  0  0  0  0  0  0  0  0  0  0  0
    1.5798   -0.6026   -0.9100 H   0  0  0  0  0  0  0  0  0  0  0  0
    0.5837    0.8828   -0.8446 H   0  0  0  0  0  0  0  0  0  0  0  0
    3.3297    0.4799    0.5109 H   0  0  0  0  0  0  0  0  0  0  0  0
    2.3290    1.9611    0.6425 H   0  0  0  0  0  0  0  0  0  0  0  0
    4.9399    5.4771   -3.4847 H   0  0  0  0  0  0  0  0  0  0  0  0
    4.4217    7.6589   -4.6242 H   0  0  0  0  0  0  0  0  0  0  0  0
    5.1832   11.8651   -6.0360 H   0  0  0  0  0  0  0  0  0  0  0  0
    5.5606   10.9469   -4.6158 H   0  0  0  0  0  0  0  0  0  0  0  0
    3.6152    5.5229   -8.2872 H   0  0  0  0  0  0  0  0  0  0  0  0
    4.1075    3.3724   -7.1478 H   0  0  0  0  0  0  0  0  0  0  0  0
    5.4483   -1.1096   -3.7826 H   0  0  0  0  0  0  0  0  0  0  0  0
    6.9703   -0.3260   -3.3450 H   0  0  0  0  0  0  0  0  0  0  0  0
    7.0209   -1.4140   -5.6155 H   0  0  0  0  0  0  0  0  0  0  0  0
    8.3090   -0.7769   -7.4540 H   0  0  0  0  0  0  0  0  0  0  0  0
    9.1468    1.0455   -8.9079 H   0  0  0  0  0  0  0  0  0  0  0  0
    8.4236    3.4101   -8.5058 H   0  0  0  0  0  0  0  0  0  0  0  0
    6.8198    3.9053   -6.6889 H   0  0  0  0  0  0  0  0  0  0  0  0
  1  2  1  0
  1 29  1  0
  1 30  1  0
  1 31  1  0
  2  3  1  0
  2 32  1  0
  2 33  1  0
  3  4  1  0
  4  5  2  0
  4  6  1  0
  6  7  2  0
  6 20  1  0
  7  8  1  0
  8  9  1  0
  8 19  1  0
  9 10  2  0
  9 18  1  0
 10 11  1  0
 10 34  1  0
 11 12  2  0
 11 35  1  0
 12 13  1  0
 12 17  1  0
 13 14  2  0
 15 16  1  0
 16 36  1  0
 16 37  1  0
 17 18  2  0
 17 38  1  0
 18 39  1  0
 19 20  2  0
 19 28  1  0
 20 21  1  0
 21 22  1  0
 21 40  1  0
 21 41  1  0
 22 23  1  0
 22 42  1  0
 23 24  1  0
 23 28  2  0
 24 25  2  0
 24 43  1  0
 25 26  1  0
 25 44  1  0
 26 27  2  0
 26 45  1  0
 27 28  1  0
 27 46  1  0
M  CHG  2  13   1  15  -1
M  END

