
     RDKit          3D

 49 51  0  0  0  0  0  0  0  0999 V2000
    7.6872    2.9620   -7.5467 C   0  0  0  0  0  0  0  0  0  0  0  0
    8.2327    2.2857   -6.3137 C   0  0  0  0  0  0  0  0  0  0  0  0
    9.5636    2.4725   -5.9057 C   0  0  0  0  0  0  0  0  0  0  0  0
   10.0630    1.8382   -4.7695 C   0  0  0  0  0  0  0  0  0  0  0  0
    9.2365    1.0009   -4.0059 C   0  0  0  0  0  0  0  0  0  0  0  0
    9.8206    0.3478   -2.8030 C   0  0  0  0  0  0  0  0  0  0  0  0
   10.9778    0.4330   -2.4645 O   0  0  0  0  0  0  0  0  0  0  0  0
    8.8930   -0.3491   -2.0973 O   0  0  0  0  0  0  0  0  0  0  0  0
    9.3288   -1.0424   -0.9289 C   0  0  0  0  0  0  0  0  0  0  0  0
    9.7479   -2.4615   -1.2895 C   0  0  1  0  0  0  0  0  0  0  0  0
   10.0987   -3.1283   -0.0792 O   0  0  0  0  0  0  0  0  0  0  0  0
    9.8208   -4.5026   -0.1951 C   0  0  2  0  0  0  0  0  0  0  0  0
   10.8102   -5.2031   -0.8679 O   0  0  0  0  0  0  0  0  0  0  0  0
    8.4634   -4.4760   -0.9364 C   0  0  2  0  0  0  0  0  0  0  0  0
    7.4970   -4.1196   -0.0416 F   0  0  0  0  0  0  0  0  0  0  0  0
    8.0114   -6.0339   -1.6874 Cl  0  0  0  0  0  0  0  0  0  0  0  0
    8.6232   -3.3056   -1.9425 C   0  0  2  0  0  0  0  0  0  0  0  0
    9.0437   -3.7408   -3.2236 O   0  0  0  0  0  0  0  0  0  0  0  0
    8.1452   -3.6737   -4.2536 C   0  0  0  0  0  0  0  0  0  0  0  0
    7.0313   -3.2307   -4.1223 O   0  0  0  0  0  0  0  0  0  0  0  0
    8.7128   -4.1928   -5.5245 C   0  0  0  0  0  0  0  0  0  0  0  0
    7.8835   -4.2115   -6.6559 C   0  0  0  0  0  0  0  0  0  0  0  0
    8.3657   -4.6886   -7.8731 C   0  0  0  0  0  0  0  0  0  0  0  0
    9.6839   -5.1573   -7.9977 C   0  0  0  0  0  0  0  0  0  0  0  0
   10.2140   -5.6722   -9.3122 C   0  0  0  0  0  0  0  0  0  0  0  0
   10.5070   -5.1319   -6.8572 C   0  0  0  0  0  0  0  0  0  0  0  0
   10.0342   -4.6581   -5.6364 C   0  0  0  0  0  0  0  0  0  0  0  0
    7.9031    0.8042   -4.4036 C   0  0  0  0  0  0  0  0  0  0  0  0
    7.4152    1.4397   -5.5429 C   0  0  0  0  0  0  0  0  0  0  0  0
    8.4253    3.6413   -7.9980 H   0  0  0  0  0  0  0  0  0  0  0  0
    6.7824    3.5477   -7.3137 H   0  0  0  0  0  0  0  0  0  0  0  0
    7.3996    2.2198   -8.3109 H   0  0  0  0  0  0  0  0  0  0  0  0
   10.2177    3.1269   -6.4888 H   0  0  0  0  0  0  0  0  0  0  0  0
   11.0982    1.9820   -4.4532 H   0  0  0  0  0  0  0  0  0  0  0  0
    8.4687   -1.0686   -0.2450 H   0  0  0  0  0  0  0  0  0  0  0  0
   10.1694   -0.5157   -0.4571 H   0  0  0  0  0  0  0  0  0  0  0  0
   10.6055   -2.4351   -1.9834 H   0  0  0  0  0  0  0  0  0  0  0  0
    9.7263   -4.8957    0.8277 H   0  0  0  0  0  0  0  0  0  0  0  0
   10.5399   -5.3788   -1.7803 H   0  0  0  0  0  0  0  0  0  0  0  0
    7.6633   -2.7806   -2.0260 H   0  0  0  0  0  0  0  0  0  0  0  0
    6.8592   -3.8458   -6.5606 H   0  0  0  0  0  0  0  0  0  0  0  0
    7.7076   -4.6975   -8.7465 H   0  0  0  0  0  0  0  0  0  0  0  0
    9.4436   -5.6526  -10.0969 H   0  0  0  0  0  0  0  0  0  0  0  0
   10.5754   -6.7096   -9.2156 H   0  0  0  0  0  0  0  0  0  0  0  0
   11.0683   -5.0672   -9.6604 H   0  0  0  0  0  0  0  0  0  0  0  0
   11.5387   -5.4883   -6.9305 H   0  0  0  0  0  0  0  0  0  0  0  0
   10.6896   -4.6406   -4.7648 H   0  0  0  0  0  0  0  0  0  0  0  0
    7.2570    0.1454   -3.8219 H   0  0  0  0  0  0  0  0  0  0  0  0
    6.3758    1.2763   -5.8427 H   0  0  0  0  0  0  0  0  0  0  0  0
  1  2  1  0
  1 30  1  0
  1 31  1  0
  1 32  1  0
  2  3  2  0
  2 29  1  0
  3  4  1  0
  3 33  1  0
  4  5  2  0
  4 34  1  0
  5  6  1  0
  5 28  1  0
  6  7  2  0
  6  8  1  0
  8  9  1  0
  9 10  1  0
  9 35  1  0
  9 36  1  0
 10 11  1  0
 10 17  1  0
 10 37  1  6
 11 12  1  0
 12 13  1  0
 12 14  1  0
 12 38  1  1
 13 39  1  0
 14 15  1  1
 14 16  1  0
 14 17  1  0
 17 18  1  0
 17 40  1  6
 18 19  1  0
 19 20  2  0
 19 21  1  0
 21 22  2  0
 21 27  1  0
 22 23  1  0
 22 41  1  0
 23 24  2  0
 23 42  1  0
 24 25  1  0
 24 26  1  0
 25 43  1  0
 25 44  1  0
 25 45  1  0
 26 27  2  0
 26 46  1  0
 27 47  1  0
 28 29  2  0
 28 48  1  0
 29 49  1  0
M  END

