
     RDKit          3D

 35 35  0  0  0  0  0  0  0  0999 V2000
    1.8664    0.8106   -1.4233 C   0  0  0  0  0  0  0  0  0  0  0  0
    2.6009    0.0793   -0.3111 C   0  0  0  0  0  0  0  0  0  0  0  0
    2.5785   -1.1352   -0.2291 O   0  0  0  0  0  0  0  0  0  0  0  0
    3.3473    0.8935    0.6730 C   0  0  0  0  0  0  0  0  0  0  0  0
    3.4792    2.2853    0.7322 C   0  0  0  0  0  0  0  0  0  0  0  0
    4.2513    2.5863    1.8014 N   0  0  0  0  0  0  0  0  0  0  0  0
    4.5405    3.5017    2.1329 H   0  0  0  0  0  0  0  0  0  0  0  0
    4.6355    1.4343    2.4549 C   0  0  0  0  0  0  0  0  0  0  0  0
    5.4872    1.5979    3.6504 C   0  0  0  0  0  0  0  0  0  0  0  0
    5.8312    2.7179    4.0246 O   0  0  0  0  0  0  0  0  0  0  0  0
    5.8600    0.4607    4.2996 N   0  0  0  0  0  0  0  0  0  0  0  0
    6.7048    0.5025    5.4714 C   0  0  1  0  0  0  0  0  0  0  0  0
    5.8773    0.6999    6.7665 C   0  0  0  0  0  0  0  0  0  0  0  0
    6.6902    0.8806    8.0484 C   0  0  0  0  0  0  0  0  0  0  0  0
    5.8060    1.3420    9.2136 C   0  0  0  0  0  0  0  0  0  0  0  0
    6.2426    0.9684   10.4504 N   0  0  0  0  0  0  0  0  0  0  0  0
    4.8072    2.0144    9.0448 O   0  0  0  0  0  0  0  0  0  0  0  0
    7.5063   -0.8025    5.5113 C   0  0  0  0  0  0  0  0  0  0  0  0
    7.1274   -1.8205    4.9984 O   0  0  0  0  0  0  0  0  0  0  0  0
    8.6594   -0.7690    6.2110 O   0  0  0  0  0  0  0  0  0  0  0  0
    4.0854    0.3623    1.7716 C   0  0  0  0  0  0  0  0  0  0  0  0
    1.3641    0.0764   -2.0662 H   0  0  0  0  0  0  0  0  0  0  0  0
    2.5685    1.4075   -2.0284 H   0  0  0  0  0  0  0  0  0  0  0  0
    1.1185    1.5053   -1.0069 H   0  0  0  0  0  0  0  0  0  0  0  0
    3.0744    3.0620    0.0871 H   0  0  0  0  0  0  0  0  0  0  0  0
    5.6122   -0.4610    3.9521 H   0  0  0  0  0  0  0  0  0  0  0  0
    7.3848    1.3663    5.3627 H   0  0  0  0  0  0  0  0  0  0  0  0
    5.1853   -0.1520    6.8721 H   0  0  0  0  0  0  0  0  0  0  0  0
    5.2608    1.5989    6.6253 H   0  0  0  0  0  0  0  0  0  0  0  0
    7.4472    1.6767    7.9056 H   0  0  0  0  0  0  0  0  0  0  0  0
    7.2376   -0.0352    8.3252 H   0  0  0  0  0  0  0  0  0  0  0  0
    7.0532    0.3810   10.5899 H   0  0  0  0  0  0  0  0  0  0  0  0
    5.7114    1.2718   11.2585 H   0  0  0  0  0  0  0  0  0  0  0  0
    8.8599    0.1356    6.4914 H   0  0  0  0  0  0  0  0  0  0  0  0
    4.1751   -0.6981    1.9979 H   0  0  0  0  0  0  0  0  0  0  0  0
  1  2  1  0
  1 22  1  0
  1 23  1  0
  1 24  1  0
  2  3  2  0
  2  4  1  0
  4  5  2  0
  4 21  1  0
  5  6  1  0
  5 25  1  0
  6  7  1  0
  6  8  1  0
  8  9  1  0
  8 21  2  0
  9 10  2  0
  9 11  1  0
 11 12  1  0
 11 26  1  0
 12 13  1  0
 12 18  1  0
 12 27  1  6
 13 14  1  0
 13 28  1  0
 13 29  1  0
 14 15  1  0
 14 30  1  0
 14 31  1  0
 15 16  1  0
 15 17  2  0
 16 32  1  0
 16 33  1  0
 18 19  2  0
 18 20  1  0
 20 34  1  0
 21 35  1  0
M  END

