
     RDKit          3D

 48 50  0  0  0  0  0  0  0  0999 V2000
    3.5953   -4.1604    0.4872 O   0  0  0  0  0  0  0  0  0  0  0  0
    3.0148   -3.2306   -0.0558 C   0  0  0  0  0  0  0  0  0  0  0  0
    2.4540   -2.0212    0.6717 C   0  0  0  0  0  0  0  0  0  0  0  0
    1.5467   -2.3771    1.8630 C   0  0  0  0  0  0  0  0  0  0  0  0
    2.2762   -2.9778    3.0700 C   0  0  0  0  0  0  0  0  0  0  0  0
    1.3306   -3.2913    4.2352 C   0  0  0  0  0  0  0  0  0  0  0  0
    2.0284   -3.9370    5.4339 C   0  0  2  0  0  0  0  0  0  0  0  0
    2.5538   -4.8488    5.1066 H   0  0  0  0  0  0  0  0  0  0  0  0
    0.7957   -4.4454    6.7200 S   0  0  0  0  0  0  0  0  0  0  0  0
    2.1116   -4.4699    7.9861 C   0  0  0  0  0  0  0  0  0  0  0  0
    2.9401   -3.2008    7.7105 C   0  0  1  0  0  0  0  0  0  0  0  0
    2.4044   -2.3378    8.1372 H   0  0  0  0  0  0  0  0  0  0  0  0
    4.3211   -3.2379    8.1352 N   0  0  0  0  0  0  0  0  0  0  0  0
    5.2085   -3.4502    7.0909 C   0  0  0  0  0  0  0  0  0  0  0  0
    6.4041   -3.6267    7.1756 O   0  0  0  0  0  0  0  0  0  0  0  0
    4.4490   -3.4165    5.9306 N   0  0  0  0  0  0  0  0  0  0  0  0
    3.0676   -3.0360    6.1566 C   0  0  1  0  0  0  0  0  0  0  0  0
    2.8845   -1.9813    5.8783 H   0  0  0  0  0  0  0  0  0  0  0  0
    2.8291   -3.2229   -1.4082 N   0  0  0  0  0  0  0  0  0  0  0  0
    3.3283   -4.2538   -2.1634 N   0  0  0  0  0  0  0  0  0  0  0  0
    3.1812   -4.2355   -3.4988 C   0  0  0  0  0  0  0  0  0  0  0  0
    2.6156   -3.3346   -4.1132 O   0  0  0  0  0  0  0  0  0  0  0  0
    3.8079   -5.4721   -4.1624 C   0  0  0  0  0  0  0  0  0  0  0  0
    4.3720   -6.3302   -3.5040 O   0  0  0  0  0  0  0  0  0  0  0  0
    3.6398   -5.4576   -5.5033 N   0  0  0  0  0  0  0  0  0  0  0  0
    4.1739   -6.4550   -6.3809 C   0  0  1  0  0  0  0  0  0  0  0  0
    3.5580   -7.8293   -6.4000 C   0  0  0  0  0  0  0  0  0  0  0  0
    3.3395   -6.8885   -7.5567 C   0  0  0  0  0  0  0  0  0  0  0  0
    1.9072   -1.3784   -0.0370 H   0  0  0  0  0  0  0  0  0  0  0  0
    3.3174   -1.4320    1.0291 H   0  0  0  0  0  0  0  0  0  0  0  0
    0.7576   -3.0716    1.5235 H   0  0  0  0  0  0  0  0  0  0  0  0
    1.0242   -1.4564    2.1762 H   0  0  0  0  0  0  0  0  0  0  0  0
    3.0547   -2.2640    3.3992 H   0  0  0  0  0  0  0  0  0  0  0  0
    2.8078   -3.8887    2.7540 H   0  0  0  0  0  0  0  0  0  0  0  0
    0.5371   -3.9718    3.8804 H   0  0  0  0  0  0  0  0  0  0  0  0
    0.8179   -2.3716    4.5709 H   0  0  0  0  0  0  0  0  0  0  0  0
    2.7361   -5.3716    7.8772 H   0  0  0  0  0  0  0  0  0  0  0  0
    1.6546   -4.4739    8.9866 H   0  0  0  0  0  0  0  0  0  0  0  0
    4.6165   -3.4248    9.0847 H   0  0  0  0  0  0  0  0  0  0  0  0
    4.9199   -3.2937    5.0431 H   0  0  0  0  0  0  0  0  0  0  0  0
    2.3767   -2.4953   -1.9549 H   0  0  0  0  0  0  0  0  0  0  0  0
    3.8055   -5.0024   -1.6616 H   0  0  0  0  0  0  0  0  0  0  0  0
    3.1920   -4.6241   -5.8787 H   0  0  0  0  0  0  0  0  0  0  0  0
    5.2603   -6.4013   -6.5241 H   0  0  0  0  0  0  0  0  0  0  0  0
    2.7211   -8.0094   -5.7212 H   0  0  0  0  0  0  0  0  0  0  0  0
    4.2300   -8.6813   -6.5295 H   0  0  0  0  0  0  0  0  0  0  0  0
    2.3487   -6.4366   -7.6631 H   0  0  0  0  0  0  0  0  0  0  0  0
    3.8524   -7.0802   -8.5028 H   0  0  0  0  0  0  0  0  0  0  0  0
  1  2  2  0
  2  3  1  0
  2 19  1  0
  3  4  1  0
  3 29  1  0
  3 30  1  0
  4  5  1  0
  4 31  1  0
  4 32  1  0
  5  6  1  0
  5 33  1  0
  5 34  1  0
  6  7  1  0
  6 35  1  0
  6 36  1  0
  7  8  1  6
  7  9  1  0
  7 17  1  0
  9 10  1  0
 10 11  1  0
 10 37  1  0
 10 38  1  0
 11 12  1  1
 11 13  1  0
 11 17  1  0
 13 14  1  0
 13 39  1  0
 14 15  2  0
 14 16  1  0
 16 17  1  0
 16 40  1  0
 17 18  1  1
 19 20  1  0
 19 41  1  0
 20 21  1  0
 20 42  1  0
 21 22  2  0
 21 23  1  0
 23 24  2  0
 23 25  1  0
 25 26  1  0
 25 43  1  0
 26 27  1  0
 26 28  1  0
 26 44  1  6
 27 28  1  0
 27 45  1  0
 27 46  1  0
 28 47  1  0
 28 48  1  0
M  END

