
     RDKit          3D

102104  0  0  0  0  0  0  0  0999 V2000
   29.5170    8.6287    2.0531 C   0  0  0  0  0  0  0  0  0  0  0  0
   29.3058    8.0953    0.6354 C   0  0  0  0  0  0  0  0  0  0  0  0
   27.8577    7.6916    0.3406 C   0  0  0  0  0  0  0  0  0  0  0  0
   27.6377    7.1560   -1.0771 C   0  0  0  0  0  0  0  0  0  0  0  0
   26.1899    6.7524   -1.3718 C   0  0  0  0  0  0  0  0  0  0  0  0
   25.9714    6.2154   -2.7894 C   0  0  0  0  0  0  0  0  0  0  0  0
   24.5239    5.8116   -3.0848 C   0  0  0  0  0  0  0  0  0  0  0  0
   24.3075    5.2723   -4.5018 C   0  0  0  0  0  0  0  0  0  0  0  0
   22.8602    4.8687   -4.7977 C   0  0  0  0  0  0  0  0  0  0  0  0
   22.6479    4.3256   -6.2141 C   0  0  0  0  0  0  0  0  0  0  0  0
   21.1980    3.9273   -6.5060 C   0  0  0  0  0  0  0  0  0  0  0  0
   21.0158    3.3852   -7.9186 C   0  0  0  0  0  0  0  0  0  0  0  0
   19.6712    2.9302   -8.1493 O   0  0  0  0  0  0  0  0  0  0  0  0
   18.7651    3.8351   -8.5674 C   0  0  0  0  0  0  0  0  0  0  0  0
   19.0271    4.9973   -8.7729 O   0  0  0  0  0  0  0  0  0  0  0  0
   17.3948    3.2015   -8.7156 C   0  0  0  0  0  0  0  0  0  0  0  0
   16.3769    4.0907   -9.4348 C   0  0  0  0  0  0  0  0  0  0  0  0
   16.6440    4.2631  -10.9359 C   0  0  1  0  0  0  0  0  0  0  0  0
   16.3869    3.0136  -11.7979 C   0  0  0  0  0  0  0  0  0  0  0  0
   16.2210    3.5079  -13.2618 C   0  0  1  0  0  0  0  0  0  0  0  0
   17.3644    3.0084  -14.1759 C   0  0  0  0  0  0  0  0  0  0  0  0
   17.1019    3.3090  -15.6578 C   0  0  0  0  0  0  0  0  0  0  0  0
   15.7008    2.8198  -16.0569 C   0  0  0  0  0  0  0  0  0  0  0  0
   14.6670    3.3032  -15.1481 N   0  0  0  0  0  0  0  0  0  0  0  0
   14.9858    2.9188  -13.8236 N   0  0  0  0  0  0  0  0  0  0  0  0
   16.1997    5.0666  -13.1321 C   0  0  0  0  0  0  0  0  0  0  0  0
   15.8631    5.4100  -11.6583 C   0  0  1  0  0  0  0  0  0  0  0  0
   14.3399    5.3012  -11.3587 C   0  0  0  0  0  0  0  0  0  0  0  0
   13.4009    6.2073  -12.1788 C   0  0  0  0  0  0  0  0  0  0  0  0
   12.1050    6.5618  -11.4322 C   0  0  0  0  0  0  0  0  0  0  0  0
   11.2122    7.6287  -12.0983 C   0  0  0  0  0  0  0  0  0  0  0  0
   11.4664    9.1098  -11.7428 C   0  0  0  0  0  0  0  0  0  0  0  0
   12.7570    9.7719  -12.2655 C   0  0  0  0  0  0  0  0  0  0  0  0
   14.0062    9.6101  -11.3865 C   0  0  0  0  0  0  0  0  0  0  0  0
   15.2973   10.1485  -12.0399 C   0  0  0  0  0  0  0  0  0  0  0  0
   16.5781    9.3590  -11.7159 C   0  0  0  0  0  0  0  0  0  0  0  0
   16.5725    7.9090  -12.2682 C   0  0  0  0  0  0  0  0  0  0  0  0
   16.3820    6.8129  -11.1972 C   0  0  0  0  0  0  0  0  0  0  0  0
   30.5681    8.9085    2.2292 H   0  0  0  0  0  0  0  0  0  0  0  0
   29.2425    7.8749    2.8102 H   0  0  0  0  0  0  0  0  0  0  0  0
   28.8990    9.5227    2.2415 H   0  0  0  0  0  0  0  0  0  0  0  0
   29.9661    7.2250    0.4664 H   0  0  0  0  0  0  0  0  0  0  0  0
   29.6255    8.8587   -0.0974 H   0  0  0  0  0  0  0  0  0  0  0  0
   27.1959    8.5620    0.5089 H   0  0  0  0  0  0  0  0  0  0  0  0
   27.5366    6.9276    1.0735 H   0  0  0  0  0  0  0  0  0  0  0  0
   28.2998    6.2859   -1.2448 H   0  0  0  0  0  0  0  0  0  0  0  0
   27.9591    7.9201   -1.8094 H   0  0  0  0  0  0  0  0  0  0  0  0
   25.5276    7.6225   -1.2054 H   0  0  0  0  0  0  0  0  0  0  0  0
   25.8679    5.9888   -0.6392 H   0  0  0  0  0  0  0  0  0  0  0  0
   26.6337    5.3453   -2.9556 H   0  0  0  0  0  0  0  0  0  0  0  0
   26.2936    6.9788   -3.5221 H   0  0  0  0  0  0  0  0  0  0  0  0
   23.8616    6.6821   -2.9209 H   0  0  0  0  0  0  0  0  0  0  0  0
   24.2010    5.0493   -2.3513 H   0  0  0  0  0  0  0  0  0  0  0  0
   24.9697    4.4016   -4.6654 H   0  0  0  0  0  0  0  0  0  0  0  0
   24.6305    6.0344   -5.2354 H   0  0  0  0  0  0  0  0  0  0  0  0
   22.1975    5.7394   -4.6392 H   0  0  0  0  0  0  0  0  0  0  0  0
   22.5354    4.1080   -4.0637 H   0  0  0  0  0  0  0  0  0  0  0  0
   23.3091    3.4529   -6.3715 H   0  0  0  0  0  0  0  0  0  0  0  0
   22.9738    5.0860   -6.9476 H   0  0  0  0  0  0  0  0  0  0  0  0
   20.5379    4.8010   -6.3744 H   0  0  0  0  0  0  0  0  0  0  0  0
   20.8639    3.1604   -5.7851 H   0  0  0  0  0  0  0  0  0  0  0  0
   21.6475    2.4996   -8.0852 H   0  0  0  0  0  0  0  0  0  0  0  0
   21.2694    4.1524   -8.6658 H   0  0  0  0  0  0  0  0  0  0  0  0
   17.0522    2.9684   -7.6917 H   0  0  0  0  0  0  0  0  0  0  0  0
   17.5206    2.2232   -9.2068 H   0  0  0  0  0  0  0  0  0  0  0  0
   16.3820    5.0778   -8.9456 H   0  0  0  0  0  0  0  0  0  0  0  0
   15.3731    3.6625   -9.2791 H   0  0  0  0  0  0  0  0  0  0  0  0
   17.7090    4.5313  -11.0475 H   0  0  0  0  0  0  0  0  0  0  0  0
   15.4653    2.4949  -11.4822 H   0  0  0  0  0  0  0  0  0  0  0  0
   17.1951    2.2708  -11.7148 H   0  0  0  0  0  0  0  0  0  0  0  0
   17.4388    1.9156  -14.0436 H   0  0  0  0  0  0  0  0  0  0  0  0
   18.3242    3.4426  -13.8486 H   0  0  0  0  0  0  0  0  0  0  0  0
   17.8734    2.8356  -16.2894 H   0  0  0  0  0  0  0  0  0  0  0  0
   17.1721    4.3969  -15.8425 H   0  0  0  0  0  0  0  0  0  0  0  0
   15.6683    1.7169  -16.0400 H   0  0  0  0  0  0  0  0  0  0  0  0
   15.4421    3.1452  -17.0786 H   0  0  0  0  0  0  0  0  0  0  0  0
   14.6219    4.3279  -15.2312 H   0  0  0  0  0  0  0  0  0  0  0  0
   14.1735    3.0775  -13.2331 H   0  0  0  0  0  0  0  0  0  0  0  0
   15.5145    5.5386  -13.8530 H   0  0  0  0  0  0  0  0  0  0  0  0
   17.2006    5.4622  -13.3668 H   0  0  0  0  0  0  0  0  0  0  0  0
   14.2050    5.5461  -10.2918 H   0  0  0  0  0  0  0  0  0  0  0  0
   13.9979    4.2564  -11.4524 H   0  0  0  0  0  0  0  0  0  0  0  0
   13.1420    5.7218  -13.1365 H   0  0  0  0  0  0  0  0  0  0  0  0
   13.9227    7.1315  -12.4559 H   0  0  0  0  0  0  0  0  0  0  0  0
   12.3559    6.8948  -10.4083 H   0  0  0  0  0  0  0  0  0  0  0  0
   11.5190    5.6349  -11.2988 H   0  0  0  0  0  0  0  0  0  0  0  0
   10.1655    7.4157  -11.8211 H   0  0  0  0  0  0  0  0  0  0  0  0
   11.2521    7.5076  -13.1971 H   0  0  0  0  0  0  0  0  0  0  0  0
   11.4099    9.2327  -10.6448 H   0  0  0  0  0  0  0  0  0  0  0  0
   10.6096    9.6789  -12.1429 H   0  0  0  0  0  0  0  0  0  0  0  0
   12.5720   10.8521  -12.4057 H   0  0  0  0  0  0  0  0  0  0  0  0
   12.9736    9.3824  -13.2778 H   0  0  0  0  0  0  0  0  0  0  0  0
   14.1368    8.5494  -11.1366 H   0  0  0  0  0  0  0  0  0  0  0  0
   13.8386   10.1131  -10.4174 H   0  0  0  0  0  0  0  0  0  0  0  0
   15.4381   11.2090  -11.7669 H   0  0  0  0  0  0  0  0  0  0  0  0
   15.1723   10.1441  -13.1384 H   0  0  0  0  0  0  0  0  0  0  0  0
   16.7496    9.3459  -10.6242 H   0  0  0  0  0  0  0  0  0  0  0  0
   17.4331    9.9111  -12.1405 H   0  0  0  0  0  0  0  0  0  0  0  0
   17.5171    7.7199  -12.8031 H   0  0  0  0  0  0  0  0  0  0  0  0
   15.7913    7.8339  -13.0418 H   0  0  0  0  0  0  0  0  0  0  0  0
   15.6973    7.1932  -10.4212 H   0  0  0  0  0  0  0  0  0  0  0  0
   17.3464    6.6821  -10.6772 H   0  0  0  0  0  0  0  0  0  0  0  0
  1  2  1  0
  1 39  1  0
  1 40  1  0
  1 41  1  0
  2  3  1  0
  2 42  1  0
  2 43  1  0
  3  4  1  0
  3 44  1  0
  3 45  1  0
  4  5  1  0
  4 46  1  0
  4 47  1  0
  5  6  1  0
  5 48  1  0
  5 49  1  0
  6  7  1  0
  6 50  1  0
  6 51  1  0
  7  8  1  0
  7 52  1  0
  7 53  1  0
  8  9  1  0
  8 54  1  0
  8 55  1  0
  9 10  1  0
  9 56  1  0
  9 57  1  0
 10 11  1  0
 10 58  1  0
 10 59  1  0
 11 12  1  0
 11 60  1  0
 11 61  1  0
 12 13  1  0
 12 62  1  0
 12 63  1  0
 13 14  1  0
 14 15  2  0
 14 16  1  0
 16 17  1  0
 16 64  1  0
 16 65  1  0
 17 18  1  0
 17 66  1  0
 17 67  1  0
 18 19  1  0
 18 27  1  0
 18 68  1  1
 19 20  1  0
 19 69  1  0
 19 70  1  0
 20 21  1  0
 20 25  1  6
 20 26  1  0
 21 22  1  0
 21 71  1  0
 21 72  1  0
 22 23  1  0
 22 73  1  0
 22 74  1  0
 23 24  1  0
 23 75  1  0
 23 76  1  0
 24 25  1  0
 24 77  1  0
 25 78  1  0
 27 26  1  6
 26 79  1  0
 26 80  1  0
 27 28  1  0
 27 38  1  0
 28 29  1  0
 28 81  1  0
 28 82  1  0
 29 30  1  0
 29 83  1  0
 29 84  1  0
 30 31  1  0
 30 85  1  0
 30 86  1  0
 31 32  1  0
 31 87  1  0
 31 88  1  0
 32 33  1  0
 32 89  1  0
 32 90  1  0
 33 34  1  0
 33 91  1  0
 33 92  1  0
 34 35  1  0
 34 93  1  0
 34 94  1  0
 35 36  1  0
 35 95  1  0
 35 96  1  0
 36 37  1  0
 36 97  1  0
 36 98  1  0
 37 38  1  0
 37 99  1  0
 37100  1  0
 38101  1  0
 38102  1  0
M  END

