
     RDKit          3D

 55 56  0  0  0  0  0  0  0  0999 V2000
   -0.9699   -0.3400    1.7250 C   0  0  0  0  0  0  0  0  0  0  0  0
    0.5046   -0.0924    1.4700 C   0  0  0  0  0  0  0  0  0  0  0  0
    1.2458   -0.5361    2.5873 O   0  0  0  0  0  0  0  0  0  0  0  0
    2.6284   -0.3583    2.4696 C   0  0  0  0  0  0  0  0  0  0  0  0
    3.3408   -0.8486    3.7067 C   0  0  0  0  0  0  0  0  0  0  0  0
    2.6456   -1.3806    4.8028 C   0  0  0  0  0  0  0  0  0  0  0  0
    3.3764   -1.8157    5.9034 C   0  0  0  0  0  0  0  0  0  0  0  0
    4.7757   -1.7179    5.8828 C   0  0  0  0  0  0  0  0  0  0  0  0
    5.5324   -2.1862    7.0885 C   0  0  0  0  0  0  0  0  0  0  0  0
    4.9841   -2.4137    8.1502 O   0  0  0  0  0  0  0  0  0  0  0  0
    6.8944   -2.3867    6.9140 N   0  0  0  0  0  0  0  0  0  0  0  0
    8.0393   -2.5583    8.1893 S   0  0  1  0  0  0  0  0  0  0  0  0
    9.3000   -2.7256    7.4621 O   0  0  0  0  0  0  0  0  0  0  0  0
    7.8616   -1.4773    9.1506 O   0  0  0  0  0  0  0  0  0  0  0  0
    7.5665   -4.1160    8.9624 C   0  0  0  0  0  0  0  0  0  0  0  0
    8.4823   -4.4170   10.1475 C   0  0  0  0  0  0  0  0  0  0  0  0
    8.2475   -5.8449   10.6635 C   0  0  1  0  0  0  0  0  0  0  0  0
    8.4689   -6.7996    9.6182 O   0  0  0  0  0  0  0  0  0  0  0  0
    9.0420   -6.1959   11.9100 C   0  0  0  0  0  0  0  0  0  0  0  0
   10.3276   -5.6846   12.1469 C   0  0  0  0  0  0  0  0  0  0  0  0
   11.0522   -6.0277   13.2915 C   0  0  0  0  0  0  0  0  0  0  0  0
   10.4865   -6.8879   14.2351 C   0  0  0  0  0  0  0  0  0  0  0  0
    9.2093   -7.4101   14.0217 C   0  0  0  0  0  0  0  0  0  0  0  0
    8.4900   -7.0832   12.8644 C   0  0  0  0  0  0  0  0  0  0  0  0
    7.2192   -7.5691   12.7137 O   0  0  0  0  0  0  0  0  0  0  0  0
    7.0291   -8.7319   11.8886 C   0  0  0  0  0  0  0  0  0  0  0  0
    7.4330  -10.0261   12.5786 C   0  0  0  0  0  0  0  0  0  0  0  0
    5.3662   -1.1534    4.7399 C   0  0  0  0  0  0  0  0  0  0  0  0
    4.6745   -0.7337    3.6847 N   0  0  0  0  0  0  0  0  0  0  0  0
   -1.5712   -0.0024    0.8667 H   0  0  0  0  0  0  0  0  0  0  0  0
   -1.3053    0.2052    2.6209 H   0  0  0  0  0  0  0  0  0  0  0  0
   -1.1612   -1.4126    1.8838 H   0  0  0  0  0  0  0  0  0  0  0  0
    0.6940    0.9871    1.2925 H   0  0  0  0  0  0  0  0  0  0  0  0
    0.8377   -0.6274    0.5560 H   0  0  0  0  0  0  0  0  0  0  0  0
    2.8931    0.7098    2.3166 H   0  0  0  0  0  0  0  0  0  0  0  0
    3.0395   -0.9022    1.5925 H   0  0  0  0  0  0  0  0  0  0  0  0
    1.5583   -1.4414    4.7696 H   0  0  0  0  0  0  0  0  0  0  0  0
    2.8914   -2.2320    6.7889 H   0  0  0  0  0  0  0  0  0  0  0  0
    7.3467   -2.2851    6.0097 H   0  0  0  0  0  0  0  0  0  0  0  0
    7.6591   -4.8861    8.1843 H   0  0  0  0  0  0  0  0  0  0  0  0
    6.5121   -3.9901    9.2483 H   0  0  0  0  0  0  0  0  0  0  0  0
    8.3092   -3.6886   10.9541 H   0  0  0  0  0  0  0  0  0  0  0  0
    9.5302   -4.3037    9.8233 H   0  0  0  0  0  0  0  0  0  0  0  0
    7.1807   -5.9514   10.9122 H   0  0  0  0  0  0  0  0  0  0  0  0
    9.4250   -6.9208    9.5277 H   0  0  0  0  0  0  0  0  0  0  0  0
   10.7733   -4.9904   11.4306 H   0  0  0  0  0  0  0  0  0  0  0  0
   12.0497   -5.6111   13.4503 H   0  0  0  0  0  0  0  0  0  0  0  0
   11.0368   -7.1507   15.1423 H   0  0  0  0  0  0  0  0  0  0  0  0
    8.7396   -8.0706   14.7531 H   0  0  0  0  0  0  0  0  0  0  0  0
    7.5688   -8.5989   10.9366 H   0  0  0  0  0  0  0  0  0  0  0  0
    5.9513   -8.7394   11.6642 H   0  0  0  0  0  0  0  0  0  0  0  0
    8.5120  -10.0522   12.7969 H   0  0  0  0  0  0  0  0  0  0  0  0
    7.2027  -10.8837   11.9254 H   0  0  0  0  0  0  0  0  0  0  0  0
    6.8843  -10.1569   13.5247 H   0  0  0  0  0  0  0  0  0  0  0  0
    6.4522   -1.0092    4.6789 H   0  0  0  0  0  0  0  0  0  0  0  0
  1  2  1  0
  1 30  1  0
  1 31  1  0
  1 32  1  0
  2  3  1  0
  2 33  1  0
  2 34  1  0
  3  4  1  0
  4  5  1  0
  4 35  1  0
  4 36  1  0
  5  6  2  0
  5 29  1  0
  6  7  1  0
  6 37  1  0
  7  8  2  0
  7 38  1  0
  8  9  1  0
  8 28  1  0
  9 10  2  0
  9 11  1  0
 12 11  1  6
 11 39  1  0
 12 13  2  0
 12 14  2  0
 12 15  1  0
 15 16  1  0
 15 40  1  0
 15 41  1  0
 16 17  1  0
 16 42  1  0
 16 43  1  0
 17 18  1  0
 17 19  1  0
 17 44  1  1
 18 45  1  0
 19 20  2  0
 19 24  1  0
 20 21  1  0
 20 46  1  0
 21 22  2  0
 21 47  1  0
 22 23  1  0
 22 48  1  0
 23 24  2  0
 23 49  1  0
 24 25  1  0
 25 26  1  0
 26 27  1  0
 26 50  1  0
 26 51  1  0
 27 52  1  0
 27 53  1  0
 27 54  1  0
 28 29  2  0
 28 55  1  0
M  END

