
     RDKit          3D

 32 34  0  0  0  0  0  0  0  0999 V2000
    0.8694    0.1497   -0.2516 O   0  0  0  0  0  0  0  0  0  0  0  0
    2.0812    0.0986   -0.1348 C   0  0  0  0  0  0  0  0  0  0  0  0
    2.8026   -1.1900   -0.1830 C   0  0  0  0  0  0  0  0  0  0  0  0
    4.1515   -1.3078   -0.1986 C   0  0  0  0  0  0  0  0  0  0  0  0
    4.8473   -2.6132   -0.0808 C   0  0  0  0  0  0  0  0  0  0  0  0
    4.1696   -3.8337   -0.2854 C   0  0  0  0  0  0  0  0  0  0  0  0
    4.8138   -5.0577   -0.1402 C   0  0  0  0  0  0  0  0  0  0  0  0
    6.1648   -5.0943    0.2239 C   0  0  0  0  0  0  0  0  0  0  0  0
    6.8523   -3.8993    0.4250 C   0  0  0  0  0  0  0  0  0  0  0  0
    6.2190   -2.6570    0.2696 C   0  0  0  0  0  0  0  0  0  0  0  0
    7.0372   -1.3925    0.4481 C   0  0  0  0  0  0  0  0  0  0  0  0
    6.1896   -0.1264    0.6957 C   0  0  2  0  0  0  0  0  0  0  0  0
    6.8388    0.7514    0.5201 H   0  0  0  0  0  0  0  0  0  0  0  0
    5.7202   -0.0073    2.1510 C   0  0  0  0  0  0  0  0  0  0  0  0
    4.5770    0.0584    2.5094 O   0  0  0  0  0  0  0  0  0  0  0  0
    6.7146    0.0404    3.0695 O   0  0  0  0  0  0  0  0  0  0  0  0
    5.0516   -0.0940   -0.3506 C   0  0  2  0  0  0  0  0  0  0  0  0
    5.5863   -0.2571   -1.3052 H   0  0  0  0  0  0  0  0  0  0  0  0
    4.2992    1.2481   -0.5148 C   0  0  0  0  0  0  0  0  0  0  0  0
    2.9284    1.3205    0.1632 C   0  0  0  0  0  0  0  0  0  0  0  0
    2.1504   -2.0647   -0.1355 H   0  0  0  0  0  0  0  0  0  0  0  0
    3.1187   -3.8196   -0.5775 H   0  0  0  0  0  0  0  0  0  0  0  0
    4.2630   -5.9858   -0.3109 H   0  0  0  0  0  0  0  0  0  0  0  0
    6.6787   -6.0505    0.3491 H   0  0  0  0  0  0  0  0  0  0  0  0
    7.9083   -3.9248    0.7103 H   0  0  0  0  0  0  0  0  0  0  0  0
    7.6307   -1.2246   -0.4686 H   0  0  0  0  0  0  0  0  0  0  0  0
    7.7775   -1.5504    1.2503 H   0  0  0  0  0  0  0  0  0  0  0  0
    7.5826    0.0018    2.6437 H   0  0  0  0  0  0  0  0  0  0  0  0
    4.1553    1.4170   -1.5953 H   0  0  0  0  0  0  0  0  0  0  0  0
    4.9406    2.0745   -0.1665 H   0  0  0  0  0  0  0  0  0  0  0  0
    2.3708    2.2168   -0.1458 H   0  0  0  0  0  0  0  0  0  0  0  0
    3.0446    1.3513    1.2587 H   0  0  0  0  0  0  0  0  0  0  0  0
  1  2  2  0
  2  3  1  0
  2 20  1  0
  3  4  2  0
  3 21  1  0
  4  5  1  0
  4 17  1  0
  5  6  2  0
  5 10  1  0
  6  7  1  0
  6 22  1  0
  7  8  2  0
  7 23  1  0
  8  9  1  0
  8 24  1  0
  9 10  2  0
  9 25  1  0
 10 11  1  0
 11 12  1  0
 11 26  1  0
 11 27  1  0
 12 13  1  6
 12 14  1  0
 12 17  1  0
 14 15  2  0
 14 16  1  0
 16 28  1  0
 17 18  1  6
 17 19  1  0
 19 20  1  0
 19 29  1  0
 19 30  1  0
 20 31  1  0
 20 32  1  0
M  END

