
     RDKit          3D

 47 49  0  0  0  0  0  0  0  0999 V2000
    2.9103   -0.5987   -1.8856 C   0  0  0  0  0  0  0  0  0  0  0  0
    2.5821    0.5839   -1.1879 O   0  0  0  0  0  0  0  0  0  0  0  0
    3.1021    0.6472    0.1228 C   0  0  0  0  0  0  0  0  0  0  0  0
    4.6243    0.8723    0.1867 C   0  0  0  0  0  0  0  0  0  0  0  0
    5.3556    0.0282    0.6727 O   0  0  0  0  0  0  0  0  0  0  0  0
    5.1077    2.0566   -0.3368 N   0  0  0  0  0  0  0  0  0  0  0  0
    4.2437    3.1292   -0.8885 C   0  0  0  0  0  0  0  0  0  0  0  0
    3.7293    4.0957    0.1459 C   0  0  0  0  0  0  0  0  0  0  0  0
    2.4504    4.4655    0.3535 C   0  0  0  0  0  0  0  0  0  0  0  0
    1.2633    3.9410   -0.4182 C   0  0  0  0  0  0  0  0  0  0  0  0
    2.1109    5.4987    1.3998 C   0  0  0  0  0  0  0  0  0  0  0  0
    6.5252    2.2704   -0.3346 C   0  0  0  0  0  0  0  0  0  0  0  0
    7.2476    2.1343   -1.5383 C   0  0  0  0  0  0  0  0  0  0  0  0
    6.6531    1.7209   -2.7732 C   0  0  0  0  0  0  0  0  0  0  0  0
    7.4080    1.6149   -3.9154 C   0  0  0  0  0  0  0  0  0  0  0  0
    8.8029    1.9155   -3.8954 C   0  0  0  0  0  0  0  0  0  0  0  0
    9.4125    2.3035   -2.7299 C   0  0  0  0  0  0  0  0  0  0  0  0
    8.6657    2.4212   -1.5117 C   0  0  0  0  0  0  0  0  0  0  0  0
    9.3141    2.7854   -0.3992 N   0  0  0  0  0  0  0  0  0  0  0  0
    8.6302    2.8854    0.7470 C   0  0  0  0  0  0  0  0  0  0  0  0
    9.3435    3.2637    1.9320 C   0  0  0  0  0  0  0  0  0  0  0  0
    8.6960    3.3866    3.1339 C   0  0  0  0  0  0  0  0  0  0  0  0
    7.2929    3.1414    3.2266 C   0  0  0  0  0  0  0  0  0  0  0  0
    6.5701    2.7798    2.1175 C   0  0  0  0  0  0  0  0  0  0  0  0
    7.2060    2.6385    0.8434 C   0  0  0  0  0  0  0  0  0  0  0  0
    2.4463   -0.5314   -2.8800 H   0  0  0  0  0  0  0  0  0  0  0  0
    2.5176   -1.4949   -1.3679 H   0  0  0  0  0  0  0  0  0  0  0  0
    4.0023   -0.7265   -2.0084 H   0  0  0  0  0  0  0  0  0  0  0  0
    2.9188   -0.2906    0.6758 H   0  0  0  0  0  0  0  0  0  0  0  0
    2.5769    1.4686    0.6334 H   0  0  0  0  0  0  0  0  0  0  0  0
    3.4310    2.6626   -1.4556 H   0  0  0  0  0  0  0  0  0  0  0  0
    4.8634    3.6752   -1.6179 H   0  0  0  0  0  0  0  0  0  0  0  0
    4.5037    4.5662    0.7629 H   0  0  0  0  0  0  0  0  0  0  0  0
    1.4893    3.0704   -1.0484 H   0  0  0  0  0  0  0  0  0  0  0  0
    0.8466    4.7321   -1.0673 H   0  0  0  0  0  0  0  0  0  0  0  0
    0.4526    3.6547    0.2739 H   0  0  0  0  0  0  0  0  0  0  0  0
    3.0041    5.8675    1.9249 H   0  0  0  0  0  0  0  0  0  0  0  0
    1.4133    5.0857    2.1500 H   0  0  0  0  0  0  0  0  0  0  0  0
    1.5980    6.3648    0.9446 H   0  0  0  0  0  0  0  0  0  0  0  0
    5.5900    1.4758   -2.7897 H   0  0  0  0  0  0  0  0  0  0  0  0
    6.9416    1.2913   -4.8493 H   0  0  0  0  0  0  0  0  0  0  0  0
    9.3845    1.8267   -4.8165 H   0  0  0  0  0  0  0  0  0  0  0  0
   10.4790    2.5306   -2.6792 H   0  0  0  0  0  0  0  0  0  0  0  0
   10.4150    3.4434    1.8269 H   0  0  0  0  0  0  0  0  0  0  0  0
    9.2517    3.6725    4.0308 H   0  0  0  0  0  0  0  0  0  0  0  0
    6.7935    3.2396    4.1937 H   0  0  0  0  0  0  0  0  0  0  0  0
    5.5001    2.5884    2.1974 H   0  0  0  0  0  0  0  0  0  0  0  0
  1  2  1  0
  1 26  1  0
  1 27  1  0
  1 28  1  0
  2  3  1  0
  3  4  1  0
  3 29  1  0
  3 30  1  0
  4  5  2  0
  4  6  1  0
  6  7  1  0
  6 12  1  0
  7  8  1  0
  7 31  1  0
  7 32  1  0
  8  9  2  0
  8 33  1  0
  9 10  1  0
  9 11  1  0
 10 34  1  0
 10 35  1  0
 10 36  1  0
 11 37  1  0
 11 38  1  0
 11 39  1  0
 12 13  2  0
 12 25  1  0
 13 14  1  0
 13 18  1  0
 14 15  2  0
 14 40  1  0
 15 16  1  0
 15 41  1  0
 16 17  2  0
 16 42  1  0
 17 18  1  0
 17 43  1  0
 18 19  2  0
 19 20  1  0
 20 21  1  0
 20 25  2  0
 21 22  2  0
 21 44  1  0
 22 23  1  0
 22 45  1  0
 23 24  2  0
 23 46  1  0
 24 25  1  0
 24 47  1  0
M  END

