
     RDKit          3D

 53 57  0  0  0  0  0  0  0  0999 V2000
    5.6482   -2.6879    0.0767 C   0  0  0  0  0  0  0  0  0  0  0  0
    4.4602   -3.4725    0.3613 N   0  0  0  0  0  0  0  0  0  0  0  0
    4.4824   -4.7294    0.9087 C   0  0  0  0  0  0  0  0  0  0  0  0
    3.2830   -5.2228    1.0930 N   0  0  0  0  0  0  0  0  0  0  0  0
    2.4266   -4.2497    0.6511 C   0  0  0  0  0  0  0  0  0  0  0  0
    3.1171   -3.1405    0.1918 C   0  0  0  0  0  0  0  0  0  0  0  0
    2.6132   -1.8218   -0.3898 C   0  0  1  0  0  0  0  0  0  0  0  0
    3.2121   -0.6369    0.2503 N   0  0  0  0  0  0  0  0  0  0  0  0
    2.9599   -1.6941   -1.8953 C   0  0  0  0  0  0  0  0  0  0  0  0
    3.3795   -2.7833   -2.6716 C   0  0  0  0  0  0  0  0  0  0  0  0
    3.6739   -2.6345   -4.0309 C   0  0  0  0  0  0  0  0  0  0  0  0
    3.5444   -1.3796   -4.6286 C   0  0  0  0  0  0  0  0  0  0  0  0
    3.9125   -1.1828   -6.3252 Cl  0  0  0  0  0  0  0  0  0  0  0  0
    3.1204   -0.2787   -3.8772 C   0  0  0  0  0  0  0  0  0  0  0  0
    2.8314   -0.4424   -2.5224 C   0  0  0  0  0  0  0  0  0  0  0  0
    1.0578   -1.8110   -0.2150 C   0  0  0  0  0  0  0  0  0  0  0  0
    0.2847   -2.4032   -1.2593 C   0  0  0  0  0  0  0  0  0  0  0  0
   -1.0857   -2.4704   -1.2254 C   0  0  0  0  0  0  0  0  0  0  0  0
   -1.7948   -1.9422   -0.1174 C   0  0  0  0  0  0  0  0  0  0  0  0
   -3.1491   -2.0192   -0.1232 N   0  0  0  0  0  0  0  0  0  0  0  0
   -3.8110   -1.5475    0.9151 C   0  0  0  0  0  0  0  0  0  0  0  0
   -5.2563   -1.6406    0.8797 C   0  0  0  0  0  0  0  0  0  0  0  0
   -6.4148   -1.6999    0.8812 N   0  0  0  0  0  0  0  0  0  0  0  0
   -3.1801   -0.9654    2.0507 C   0  0  0  0  0  0  0  0  0  0  0  0
   -1.8066   -0.8796    2.0652 C   0  0  0  0  0  0  0  0  0  0  0  0
   -1.0472   -1.3624    0.9617 C   0  0  0  0  0  0  0  0  0  0  0  0
    0.3928   -1.3055    0.9065 C   0  0  0  0  0  0  0  0  0  0  0  0
    1.0731   -0.7244    2.1134 C   0  0  0  0  0  0  0  0  0  0  0  0
    1.5880   -1.5600    3.1179 C   0  0  0  0  0  0  0  0  0  0  0  0
    2.1732   -1.0103    4.2645 C   0  0  0  0  0  0  0  0  0  0  0  0
    2.2507    0.3733    4.4316 C   0  0  0  0  0  0  0  0  0  0  0  0
    1.7291    1.2026    3.4322 C   0  0  0  0  0  0  0  0  0  0  0  0
    1.8176    2.9393    3.6227 Cl  0  0  0  0  0  0  0  0  0  0  0  0
    1.1424    0.6687    2.2838 C   0  0  0  0  0  0  0  0  0  0  0  0
    6.5265   -3.3430    0.1572 H   0  0  0  0  0  0  0  0  0  0  0  0
    5.7707   -1.8592    0.7915 H   0  0  0  0  0  0  0  0  0  0  0  0
    5.6189   -2.2801   -0.9438 H   0  0  0  0  0  0  0  0  0  0  0  0
    5.4247   -5.2253    1.1487 H   0  0  0  0  0  0  0  0  0  0  0  0
    1.3472   -4.3868    0.6750 H   0  0  0  0  0  0  0  0  0  0  0  0
    4.1459   -0.4662   -0.1130 H   0  0  0  0  0  0  0  0  0  0  0  0
    3.2758   -0.7415    1.2595 H   0  0  0  0  0  0  0  0  0  0  0  0
    3.4728   -3.7719   -2.2179 H   0  0  0  0  0  0  0  0  0  0  0  0
    4.0007   -3.4892   -4.6256 H   0  0  0  0  0  0  0  0  0  0  0  0
    3.0159    0.6968   -4.3552 H   0  0  0  0  0  0  0  0  0  0  0  0
    2.4993    0.4150   -1.9349 H   0  0  0  0  0  0  0  0  0  0  0  0
    0.8033   -2.8143   -2.1244 H   0  0  0  0  0  0  0  0  0  0  0  0
   -1.6609   -2.9215   -2.0355 H   0  0  0  0  0  0  0  0  0  0  0  0
   -3.7828   -0.6013    2.8842 H   0  0  0  0  0  0  0  0  0  0  0  0
   -1.3009   -0.4412    2.9257 H   0  0  0  0  0  0  0  0  0  0  0  0
    1.5332   -2.6436    2.9995 H   0  0  0  0  0  0  0  0  0  0  0  0
    2.5703   -1.6700    5.0400 H   0  0  0  0  0  0  0  0  0  0  0  0
    2.7037    0.8123    5.3219 H   0  0  0  0  0  0  0  0  0  0  0  0
    0.7551    1.3363    1.5133 H   0  0  0  0  0  0  0  0  0  0  0  0
  1  2  1  0
  1 35  1  0
  1 36  1  0
  1 37  1  0
  2  3  1  0
  2  6  1  0
  3  4  2  0
  3 38  1  0
  4  5  1  0
  5  6  2  0
  5 39  1  0
  6  7  1  0
  7  8  1  1
  7  9  1  0
  7 16  1  0
  8 40  1  0
  8 41  1  0
  9 10  2  0
  9 15  1  0
 10 11  1  0
 10 42  1  0
 11 12  2  0
 11 43  1  0
 12 13  1  0
 12 14  1  0
 14 15  2  0
 14 44  1  0
 15 45  1  0
 16 17  2  0
 16 27  1  0
 17 18  1  0
 17 46  1  0
 18 19  2  0
 18 47  1  0
 19 20  1  0
 19 26  1  0
 20 21  2  0
 21 22  1  0
 21 24  1  0
 22 23  3  0
 24 25  2  0
 24 48  1  0
 25 26  1  0
 25 49  1  0
 26 27  2  0
 27 28  1  0
 28 29  2  0
 28 34  1  0
 29 30  1  0
 29 50  1  0
 30 31  2  0
 30 51  1  0
 31 32  1  0
 31 52  1  0
 32 33  1  0
 32 34  2  0
 34 53  1  0
M  END

