
     RDKit          3D

 53 57  0  0  0  0  0  0  0  0999 V2000
    4.3891   -1.1966    0.9141 C   0  0  0  0  0  0  0  0  0  0  0  0
    5.0947   -1.3892    2.2578 C   0  0  0  0  0  0  0  0  0  0  0  0
    6.4319   -0.6464    2.3358 C   0  0  0  0  0  0  0  0  0  0  0  0
    7.1414   -0.8013    3.6848 C   0  0  0  0  0  0  0  0  0  0  0  0
    8.4461    0.0199    3.8019 C   0  0  0  0  0  0  0  0  0  0  0  0
    8.1756    1.5151    3.7502 C   0  0  0  0  0  0  0  0  0  0  0  0
    8.3485    2.1355    2.7170 O   0  0  0  0  0  0  0  0  0  0  0  0
    7.6382    2.2196    4.9618 C   0  0  0  0  0  0  0  0  0  0  0  0
    7.9366    1.7520    6.2469 C   0  0  0  0  0  0  0  0  0  0  0  0
    7.5302    2.4307    7.4057 C   0  0  0  0  0  0  0  0  0  0  0  0
    6.7788    3.5959    7.3035 C   0  0  0  0  0  0  0  0  0  0  0  0
    6.4453    4.0623    6.0278 C   0  0  0  0  0  0  0  0  0  0  0  0
    5.4435    5.4699    5.7161 S   0  0  0  0  0  0  0  0  0  0  0  0
    5.5607    5.1887    4.0071 C   0  0  0  0  0  0  0  0  0  0  0  0
    6.3450    4.1033    3.6684 C   0  0  0  0  0  0  0  0  0  0  0  0
    6.8661    3.4132    4.8276 C   0  0  0  0  0  0  0  0  0  0  0  0
    6.2992    3.8979    1.8389 P   0  0  2  0  0  0  0  0  0  0  0  0
    5.7972    2.6062    1.2539 O   0  0  0  0  0  0  0  0  0  0  0  0
    7.8552    4.4920    1.0852 C   0  0  0  0  0  0  0  0  0  0  0  0
    8.3812    3.7371    0.0288 C   0  0  0  0  0  0  0  0  0  0  0  0
    9.5404    4.1658   -0.6235 C   0  0  0  0  0  0  0  0  0  0  0  0
   10.1785    5.3427   -0.2206 C   0  0  0  0  0  0  0  0  0  0  0  0
    9.6556    6.0953    0.8370 C   0  0  0  0  0  0  0  0  0  0  0  0
    8.4938    5.6736    1.4877 C   0  0  0  0  0  0  0  0  0  0  0  0
    5.1501    5.3335    1.6749 C   0  0  0  0  0  0  0  0  0  0  0  0
    4.5613    5.8404    0.5217 C   0  0  0  0  0  0  0  0  0  0  0  0
    3.7035    6.9470    0.6208 C   0  0  0  0  0  0  0  0  0  0  0  0
    3.4468    7.5337    1.8647 C   0  0  0  0  0  0  0  0  0  0  0  0
    4.0318    7.0230    3.0301 C   0  0  0  0  0  0  0  0  0  0  0  0
    4.8806    5.9161    2.9316 C   0  0  0  0  0  0  0  0  0  0  0  0
    3.4129   -1.7077    0.8896 H   0  0  0  0  0  0  0  0  0  0  0  0
    4.9955   -1.5973    0.0841 H   0  0  0  0  0  0  0  0  0  0  0  0
    4.2227   -0.1262    0.7116 H   0  0  0  0  0  0  0  0  0  0  0  0
    5.2499   -2.4675    2.4512 H   0  0  0  0  0  0  0  0  0  0  0  0
    4.4362   -1.0303    3.0704 H   0  0  0  0  0  0  0  0  0  0  0  0
    6.2588    0.4194    2.1108 H   0  0  0  0  0  0  0  0  0  0  0  0
    7.1016   -1.0130    1.5353 H   0  0  0  0  0  0  0  0  0  0  0  0
    7.3884   -1.8636    3.8598 H   0  0  0  0  0  0  0  0  0  0  0  0
    6.4563   -0.5134    4.5027 H   0  0  0  0  0  0  0  0  0  0  0  0
    9.1101   -0.2062    2.9541 H   0  0  0  0  0  0  0  0  0  0  0  0
    8.9747   -0.2591    4.7261 H   0  0  0  0  0  0  0  0  0  0  0  0
    8.5256    0.8415    6.3597 H   0  0  0  0  0  0  0  0  0  0  0  0
    7.8018    2.0395    8.3886 H   0  0  0  0  0  0  0  0  0  0  0  0
    6.4449    4.1294    8.1964 H   0  0  0  0  0  0  0  0  0  0  0  0
    7.8770    2.8127   -0.2603 H   0  0  0  0  0  0  0  0  0  0  0  0
    9.9505    3.5748   -1.4466 H   0  0  0  0  0  0  0  0  0  0  0  0
   11.0870    5.6750   -0.7300 H   0  0  0  0  0  0  0  0  0  0  0  0
   10.1544    7.0145    1.1553 H   0  0  0  0  0  0  0  0  0  0  0  0
    8.0895    6.2676    2.3119 H   0  0  0  0  0  0  0  0  0  0  0  0
    4.7611    5.3803   -0.4495 H   0  0  0  0  0  0  0  0  0  0  0  0
    3.2318    7.3513   -0.2782 H   0  0  0  0  0  0  0  0  0  0  0  0
    2.7794    8.3964    1.9303 H   0  0  0  0  0  0  0  0  0  0  0  0
    3.8221    7.4818    4.0000 H   0  0  0  0  0  0  0  0  0  0  0  0
  1  2  1  0
  1 31  1  0
  1 32  1  0
  1 33  1  0
  2  3  1  0
  2 34  1  0
  2 35  1  0
  3  4  1  0
  3 36  1  0
  3 37  1  0
  4  5  1  0
  4 38  1  0
  4 39  1  0
  5  6  1  0
  5 40  1  0
  5 41  1  0
  6  7  2  0
  6  8  1  0
  8  9  2  0
  8 16  1  0
  9 10  1  0
  9 42  1  0
 10 11  2  0
 10 43  1  0
 11 12  1  0
 11 44  1  0
 12 13  2  0
 12 16  1  0
 13 14  1  0
 14 15  1  0
 14 30  2  0
 15 16  2  0
 15 17  1  0
 17 18  1  1
 17 19  1  0
 17 25  2  0
 19 20  2  0
 19 24  1  0
 20 21  1  0
 20 45  1  0
 21 22  2  0
 21 46  1  0
 22 23  1  0
 22 47  1  0
 23 24  2  0
 23 48  1  0
 24 49  1  0
 25 26  1  0
 25 30  1  0
 26 27  2  0
 26 50  1  0
 27 28  1  0
 27 51  1  0
 28 29  2  0
 28 52  1  0
 29 30  1  0
 29 53  1  0
M  CHG  2  13   1  18  -1
M  END

