
     RDKit          3D

 56 57  0  0  0  0  0  0  0  0999 V2000
    2.4610    1.9698   -0.0096 C   0  0  0  0  0  0  0  0  0  0  0  0
    2.2956    0.5713    0.0625 O   0  0  0  0  0  0  0  0  0  0  0  0
    3.1088   -0.1552    0.8730 C   0  0  0  0  0  0  0  0  0  0  0  0
    4.1400    0.3839    1.6412 C   0  0  0  0  0  0  0  0  0  0  0  0
    4.9253   -0.4279    2.4919 C   0  0  0  0  0  0  0  0  0  0  0  0
    6.0115    0.1032    3.3136 C   0  0  0  0  0  0  0  0  0  0  0  0
    6.4538    1.3741    3.4026 C   0  0  0  0  0  0  0  0  0  0  0  0
    7.5823    1.7084    4.3127 C   0  0  0  0  0  0  0  0  0  0  0  0
    8.1697    0.8817    4.9911 O   0  0  0  0  0  0  0  0  0  0  0  0
    7.9165    3.0565    4.3059 N   0  0  0  0  0  0  0  0  0  0  0  0
    8.8517    3.6714    5.1661 C   0  0  0  0  0  0  0  0  0  0  0  0
   10.2116    3.2824    5.2065 C   0  0  0  0  0  0  0  0  0  0  0  0
   10.7458    2.2053    4.3005 C   0  0  0  0  0  0  0  0  0  0  0  0
   11.0727    3.9513    6.0870 C   0  0  0  0  0  0  0  0  0  0  0  0
   10.6572    5.0090    6.9066 C   0  0  0  0  0  0  0  0  0  0  0  0
   11.6151    5.6798    7.8608 C   0  0  0  0  0  0  0  0  0  0  0  0
    9.3207    5.4181    6.8239 C   0  0  0  0  0  0  0  0  0  0  0  0
    8.4434    4.7522    5.9715 C   0  0  0  0  0  0  0  0  0  0  0  0
    6.7731    5.2998    5.8909 Cl  0  0  0  0  0  0  0  0  0  0  0  0
    4.6419   -1.8021    2.5505 C   0  0  0  0  0  0  0  0  0  0  0  0
    3.6195   -2.3511    1.7745 C   0  0  0  0  0  0  0  0  0  0  0  0
    2.8474   -1.5533    0.9296 C   0  0  0  0  0  0  0  0  0  0  0  0
    1.8239   -2.1242    0.2419 O   0  0  0  0  0  0  0  0  0  0  0  0
    1.8576   -2.1021   -1.1901 C   0  0  0  0  0  0  0  0  0  0  0  0
    0.6734   -2.9163   -1.6877 C   0  0  0  0  0  0  0  0  0  0  0  0
    0.4741   -2.9003   -3.2137 C   0  0  1  0  0  0  0  0  0  0  0  0
    1.6549   -3.5213   -3.9741 C   0  0  0  0  0  0  0  0  0  0  0  0
   -0.8399   -3.5985   -3.5872 C   0  0  0  0  0  0  0  0  0  0  0  0
    1.6920    2.3401   -0.7005 H   0  0  0  0  0  0  0  0  0  0  0  0
    3.4567    2.2475   -0.4002 H   0  0  0  0  0  0  0  0  0  0  0  0
    2.3184    2.4493    0.9753 H   0  0  0  0  0  0  0  0  0  0  0  0
    4.3378    1.4540    1.5980 H   0  0  0  0  0  0  0  0  0  0  0  0
    6.5394   -0.6238    3.9409 H   0  0  0  0  0  0  0  0  0  0  0  0
    6.0056    2.1827    2.8168 H   0  0  0  0  0  0  0  0  0  0  0  0
    7.2070    3.6808    3.9357 H   0  0  0  0  0  0  0  0  0  0  0  0
   10.3503    2.3204    3.2784 H   0  0  0  0  0  0  0  0  0  0  0  0
   10.4279    1.2108    4.6482 H   0  0  0  0  0  0  0  0  0  0  0  0
   11.8438    2.2414    4.2558 H   0  0  0  0  0  0  0  0  0  0  0  0
   12.1218    3.6424    6.1143 H   0  0  0  0  0  0  0  0  0  0  0  0
   12.6422    5.6832    7.4646 H   0  0  0  0  0  0  0  0  0  0  0  0
   11.6422    5.1520    8.8303 H   0  0  0  0  0  0  0  0  0  0  0  0
   11.3232    6.7213    8.0642 H   0  0  0  0  0  0  0  0  0  0  0  0
    8.9497    6.2504    7.4248 H   0  0  0  0  0  0  0  0  0  0  0  0
    5.2333   -2.4458    3.2059 H   0  0  0  0  0  0  0  0  0  0  0  0
    3.3898   -3.4178    1.8115 H   0  0  0  0  0  0  0  0  0  0  0  0
    2.8179   -2.5302   -1.5305 H   0  0  0  0  0  0  0  0  0  0  0  0
    1.7980   -1.0641   -1.5563 H   0  0  0  0  0  0  0  0  0  0  0  0
   -0.2298   -2.5149   -1.1972 H   0  0  0  0  0  0  0  0  0  0  0  0
    0.7797   -3.9578   -1.3344 H   0  0  0  0  0  0  0  0  0  0  0  0
    0.3907   -1.8418   -3.5277 H   0  0  0  0  0  0  0  0  0  0  0  0
    1.8093   -4.5716   -3.6710 H   0  0  0  0  0  0  0  0  0  0  0  0
    2.5985   -2.9814   -3.7981 H   0  0  0  0  0  0  0  0  0  0  0  0
    1.4720   -3.5138   -5.0609 H   0  0  0  0  0  0  0  0  0  0  0  0
   -0.8178   -4.6626   -3.2949 H   0  0  0  0  0  0  0  0  0  0  0  0
   -1.0218   -3.5559   -4.6733 H   0  0  0  0  0  0  0  0  0  0  0  0
   -1.7020   -3.1334   -3.0824 H   0  0  0  0  0  0  0  0  0  0  0  0
  1  2  1  0
  1 29  1  0
  1 30  1  0
  1 31  1  0
  2  3  1  0
  3  4  2  0
  3 22  1  0
  4  5  1  0
  4 32  1  0
  5  6  1  0
  5 20  2  0
  6  7  2  0
  6 33  1  0
  7  8  1  0
  7 34  1  0
  8  9  2  0
  8 10  1  0
 10 11  1  0
 10 35  1  0
 11 12  2  0
 11 18  1  0
 12 13  1  0
 12 14  1  0
 13 36  1  0
 13 37  1  0
 13 38  1  0
 14 15  2  0
 14 39  1  0
 15 16  1  0
 15 17  1  0
 16 40  1  0
 16 41  1  0
 16 42  1  0
 17 18  2  0
 17 43  1  0
 18 19  1  0
 20 21  1  0
 20 44  1  0
 21 22  2  0
 21 45  1  0
 22 23  1  0
 23 24  1  0
 24 25  1  0
 24 46  1  0
 24 47  1  0
 25 26  1  0
 25 48  1  0
 25 49  1  0
 26 27  1  0
 26 28  1  0
 26 50  1  6
 27 51  1  0
 27 52  1  0
 27 53  1  0
 28 54  1  0
 28 55  1  0
 28 56  1  0
M  END

