
     RDKit          3D

 38 40  0  0  0  0  0  0  0  0999 V2000
    0.7462    0.1336    0.0182 C   0  0  0  0  0  0  0  0  0  0  0  0
    2.2221   -0.0981   -0.1405 C   0  0  0  0  0  0  0  0  0  0  0  0
    3.2043    0.8551    0.2563 C   0  0  0  0  0  0  0  0  0  0  0  0
    4.4983    0.4448    0.0155 C   0  0  0  0  0  0  0  0  0  0  0  0
    5.6687    1.1571    0.2814 N   0  0  0  0  0  0  0  0  0  0  0  0
    5.8002    2.4235    0.8309 C   0  0  0  0  0  0  0  0  0  0  0  0
    7.0403    2.7762    0.9412 N   0  0  0  0  0  0  0  0  0  0  0  0
    7.7628    1.7302    0.4432 N   0  0  0  0  0  0  0  0  0  0  0  0
    9.2179    1.7169    0.4706 C   0  0  0  0  0  0  0  0  0  0  0  0
    9.7900    1.2672    1.8013 C   0  0  0  0  0  0  0  0  0  0  0  0
    9.8691   -0.1004    2.1090 C   0  0  0  0  0  0  0  0  0  0  0  0
   10.3689   -0.5216    3.3409 C   0  0  0  0  0  0  0  0  0  0  0  0
   10.7986    0.4235    4.2810 C   0  0  0  0  0  0  0  0  0  0  0  0
   11.3943   -0.0350    5.5897 C   0  0  1  0  0  0  0  0  0  0  0  0
   10.8391   -1.1831    6.0155 F   0  0  0  0  0  0  0  0  0  0  0  0
   12.7182   -0.2584    5.4785 F   0  0  0  0  0  0  0  0  0  0  0  0
   11.2318    0.8795    6.5617 F   0  0  0  0  0  0  0  0  0  0  0  0
   10.7189    1.7884    3.9858 C   0  0  0  0  0  0  0  0  0  0  0  0
   10.2155    2.2044    2.7518 C   0  0  0  0  0  0  0  0  0  0  0  0
    6.9737    0.6792    0.0323 C   0  0  0  0  0  0  0  0  0  0  0  0
    7.2887   -0.3995   -0.4327 O   0  0  0  0  0  0  0  0  0  0  0  0
    4.5562   -1.1314   -0.7139 S   0  0  0  0  0  0  0  0  0  0  0  0
    2.8049   -1.2372   -0.6788 C   0  0  0  0  0  0  0  0  0  0  0  0
    2.0784   -2.4248   -1.1809 C   0  0  0  0  0  0  0  0  0  0  0  0
    0.8775   -2.4589   -1.2907 O   0  0  0  0  0  0  0  0  0  0  0  0
    2.8146   -3.5102   -1.5232 O   0  0  0  0  0  0  0  0  0  0  0  0
    0.5542    1.0730    0.5570 H   0  0  0  0  0  0  0  0  0  0  0  0
    0.2677   -0.6968    0.5574 H   0  0  0  0  0  0  0  0  0  0  0  0
    0.2485    0.1770   -0.9627 H   0  0  0  0  0  0  0  0  0  0  0  0
    2.9479    1.8151    0.7052 H   0  0  0  0  0  0  0  0  0  0  0  0
    4.9560    3.0419    1.1275 H   0  0  0  0  0  0  0  0  0  0  0  0
    9.5564    2.7317    0.2195 H   0  0  0  0  0  0  0  0  0  0  0  0
    9.5323    1.0344   -0.3319 H   0  0  0  0  0  0  0  0  0  0  0  0
    9.5260   -0.8377    1.3784 H   0  0  0  0  0  0  0  0  0  0  0  0
   10.4230   -1.5862    3.5761 H   0  0  0  0  0  0  0  0  0  0  0  0
   11.0445    2.5244    4.7231 H   0  0  0  0  0  0  0  0  0  0  0  0
   10.1488    3.2721    2.5277 H   0  0  0  0  0  0  0  0  0  0  0  0
    3.7529   -3.4012   -1.3106 H   0  0  0  0  0  0  0  0  0  0  0  0
  1  2  1  0
  1 27  1  0
  1 28  1  0
  1 29  1  0
  2  3  2  0
  2 23  1  0
  3  4  1  0
  3 30  1  0
  4  5  1  0
  4 22  2  0
  5  6  1  0
  5 20  1  0
  6  7  2  0
  6 31  1  0
  7  8  1  0
  8  9  1  0
  8 20  1  0
  9 10  1  0
  9 32  1  0
  9 33  1  0
 10 11  2  0
 10 19  1  0
 11 12  1  0
 11 34  1  0
 12 13  2  0
 12 35  1  0
 13 14  1  0
 13 18  1  0
 14 15  1  1
 14 16  1  0
 14 17  1  0
 18 19  2  0
 18 36  1  0
 19 37  1  0
 20 21  2  0
 22 23  1  0
 23 24  2  0
 24 25  1  0
 24 26  1  0
 26 38  1  0
M  CHG  2  22   1  25  -1
M  END

