
     RDKit          3D

 42 43  0  0  0  0  0  0  0  0999 V2000
    2.6812    1.0295    1.3052 C   0  0  0  0  0  0  0  0  0  0  0  0
    3.5320    0.7940    0.2122 O   0  0  0  0  0  0  0  0  0  0  0  0
    2.9097    0.7630   -1.0484 C   0  0  1  0  0  0  0  0  0  0  0  0
    2.3736    2.1331   -1.4620 C   0  0  0  0  0  0  0  0  0  0  0  0
    1.2607    2.1405   -2.2107 N   0  0  0  0  0  0  0  0  0  0  0  0
    0.8312    3.3111   -2.6252 C   0  0  0  0  0  0  0  0  0  0  0  0
   -0.6068    3.2911   -3.6363 Cl  0  0  0  0  0  0  0  0  0  0  0  0
    1.4337    4.5473   -2.3118 C   0  0  0  0  0  0  0  0  0  0  0  0
    0.9407    5.8371   -2.9112 C   0  0  0  0  0  0  0  0  0  0  0  0
    2.5394    4.4290   -1.4334 C   0  0  0  0  0  0  0  0  0  0  0  0
    3.2805    5.5965   -0.8729 C   0  0  0  0  0  0  0  0  0  0  0  0
    2.6278    6.7562   -0.4180 C   0  0  0  0  0  0  0  0  0  0  0  0
    3.3546    7.8077    0.1462 C   0  0  0  0  0  0  0  0  0  0  0  0
    4.7450    7.7211    0.2570 C   0  0  0  0  0  0  0  0  0  0  0  0
    5.4035    6.5669   -0.1805 C   0  0  0  0  0  0  0  0  0  0  0  0
    4.6776    5.5093   -0.7279 C   0  0  0  0  0  0  0  0  0  0  0  0
    3.0074    3.2255   -1.0566 N   0  0  0  0  0  0  0  0  0  0  0  0
    3.9270    0.1413   -2.0627 C   0  0  1  0  0  0  0  0  0  0  0  0
    4.2526   -1.2838   -1.5738 C   0  0  0  0  0  0  0  0  0  0  0  0
    3.3060    0.0560   -3.4681 C   0  0  0  0  0  0  0  0  0  0  0  0
    5.2198    0.9753   -2.1096 C   0  0  0  0  0  0  0  0  0  0  0  0
    3.2872    0.9354    2.2183 H   0  0  0  0  0  0  0  0  0  0  0  0
    1.8567    0.2896    1.3506 H   0  0  0  0  0  0  0  0  0  0  0  0
    2.2409    2.0436    1.2851 H   0  0  0  0  0  0  0  0  0  0  0  0
    2.0246    0.0951   -1.0246 H   0  0  0  0  0  0  0  0  0  0  0  0
    0.6359    5.6756   -3.9549 H   0  0  0  0  0  0  0  0  0  0  0  0
    1.7147    6.6142   -2.8855 H   0  0  0  0  0  0  0  0  0  0  0  0
    0.0527    6.2228   -2.3819 H   0  0  0  0  0  0  0  0  0  0  0  0
    1.5404    6.8292   -0.4710 H   0  0  0  0  0  0  0  0  0  0  0  0
    2.8295    8.6958    0.5066 H   0  0  0  0  0  0  0  0  0  0  0  0
    5.3135    8.5471    0.6920 H   0  0  0  0  0  0  0  0  0  0  0  0
    6.4896    6.4874   -0.0871 H   0  0  0  0  0  0  0  0  0  0  0  0
    5.1817    4.5954   -1.0458 H   0  0  0  0  0  0  0  0  0  0  0  0
    3.3464   -1.9119   -1.5510 H   0  0  0  0  0  0  0  0  0  0  0  0
    4.6803   -1.2653   -0.5620 H   0  0  0  0  0  0  0  0  0  0  0  0
    4.9769   -1.7649   -2.2509 H   0  0  0  0  0  0  0  0  0  0  0  0
    2.3467   -0.4853   -3.4586 H   0  0  0  0  0  0  0  0  0  0  0  0
    3.9914   -0.4810   -4.1436 H   0  0  0  0  0  0  0  0  0  0  0  0
    3.1205    1.0486   -3.9052 H   0  0  0  0  0  0  0  0  0  0  0  0
    5.6593    1.0744   -1.1071 H   0  0  0  0  0  0  0  0  0  0  0  0
    5.0364    1.9884   -2.4998 H   0  0  0  0  0  0  0  0  0  0  0  0
    5.9582    0.4905   -2.7690 H   0  0  0  0  0  0  0  0  0  0  0  0
  1  2  1  0
  1 22  1  0
  1 23  1  0
  1 24  1  0
  2  3  1  0
  3  4  1  0
  3 18  1  0
  3 25  1  1
  4  5  2  0
  4 17  1  0
  5  6  1  0
  6  7  1  0
  6  8  2  0
  8  9  1  0
  8 10  1  0
  9 26  1  0
  9 27  1  0
  9 28  1  0
 10 11  1  0
 10 17  2  0
 11 12  2  0
 11 16  1  0
 12 13  1  0
 12 29  1  0
 13 14  2  0
 13 30  1  0
 14 15  1  0
 14 31  1  0
 15 16  2  0
 15 32  1  0
 16 33  1  0
 18 19  1  1
 18 20  1  0
 18 21  1  0
 19 34  1  0
 19 35  1  0
 19 36  1  0
 20 37  1  0
 20 38  1  0
 20 39  1  0
 21 40  1  0
 21 41  1  0
 21 42  1  0
M  END

