
     RDKit          3D

 46 48  0  0  0  0  0  0  0  0999 V2000
    4.8050   -2.3083    3.1578 O   0  0  0  0  0  0  0  0  0  0  0  0
    5.3636   -1.2471    3.1340 C   0  0  0  0  0  0  0  0  0  0  0  0
    5.3481   -0.4411    4.2224 O   0  0  0  0  0  0  0  0  0  0  0  0
    6.1184   -0.6962    1.9293 C   0  0  0  0  0  0  0  0  0  0  0  0
    6.1524   -1.6631    0.7482 C   0  0  0  0  0  0  0  0  0  0  0  0
    6.8839   -1.1019   -0.4742 C   0  0  0  0  0  0  0  0  0  0  0  0
    6.9237   -2.0977   -1.6379 C   0  0  0  0  0  0  0  0  0  0  0  0
    7.6664   -1.6350   -2.9011 C   0  0  0  0  0  0  0  0  0  0  0  0
    9.1108   -1.4047   -2.7340 N   0  0  0  0  0  0  0  0  0  0  0  0
    9.6110   -0.1021   -2.5699 C   0  0  0  0  0  0  0  0  0  0  0  0
    8.7596    1.0290   -2.5209 C   0  0  0  0  0  0  0  0  0  0  0  0
    9.2780    2.3103   -2.3741 C   0  0  0  0  0  0  0  0  0  0  0  0
   10.6590    2.5285   -2.2607 C   0  0  0  0  0  0  0  0  0  0  0  0
   11.5062    1.4327   -2.2953 C   0  0  0  0  0  0  0  0  0  0  0  0
   11.0068    0.1259   -2.4469 C   0  0  0  0  0  0  0  0  0  0  0  0
   11.9751   -0.9867   -2.4719 C   0  0  0  0  0  0  0  0  0  0  0  0
   13.1822   -0.8181   -2.3589 O   0  0  0  0  0  0  0  0  0  0  0  0
   11.3757   -2.3265   -2.6429 C   0  0  0  0  0  0  0  0  0  0  0  0
   12.2390   -3.4314   -2.6898 C   0  0  0  0  0  0  0  0  0  0  0  0
   11.7283   -4.7091   -2.8553 C   0  0  0  0  0  0  0  0  0  0  0  0
   12.8255   -6.1126   -2.8999 S   0  0  1  0  0  0  0  0  0  0  0  0
   12.1177   -7.2436   -3.5015 O   0  0  0  0  0  0  0  0  0  0  0  0
   14.1315   -5.6725   -3.3548 O   0  0  0  0  0  0  0  0  0  0  0  0
   12.9941   -6.4713   -1.3029 O   0  0  0  0  0  0  0  0  0  0  0  0
   10.3455   -4.9053   -2.9941 C   0  0  0  0  0  0  0  0  0  0  0  0
    9.4827   -3.8223   -2.9510 C   0  0  0  0  0  0  0  0  0  0  0  0
    9.9702   -2.4988   -2.7713 C   0  0  0  0  0  0  0  0  0  0  0  0
    5.8448    0.3721    4.0533 H   0  0  0  0  0  0  0  0  0  0  0  0
    7.1438   -0.4346    2.2511 H   0  0  0  0  0  0  0  0  0  0  0  0
    5.6434    0.2603    1.6397 H   0  0  0  0  0  0  0  0  0  0  0  0
    5.1174   -1.9348    0.4820 H   0  0  0  0  0  0  0  0  0  0  0  0
    6.6276   -2.6038    1.0732 H   0  0  0  0  0  0  0  0  0  0  0  0
    7.9132   -0.8203   -0.1906 H   0  0  0  0  0  0  0  0  0  0  0  0
    6.3914   -0.1673   -0.7988 H   0  0  0  0  0  0  0  0  0  0  0  0
    5.8909   -2.3441   -1.9432 H   0  0  0  0  0  0  0  0  0  0  0  0
    7.3645   -3.0437   -1.2814 H   0  0  0  0  0  0  0  0  0  0  0  0
    7.2144   -0.7194   -3.2963 H   0  0  0  0  0  0  0  0  0  0  0  0
    7.5347   -2.3795   -3.6983 H   0  0  0  0  0  0  0  0  0  0  0  0
    7.6801    0.9238   -2.5884 H   0  0  0  0  0  0  0  0  0  0  0  0
    8.5861    3.1562   -2.3448 H   0  0  0  0  0  0  0  0  0  0  0  0
   11.0547    3.5397   -2.1454 H   0  0  0  0  0  0  0  0  0  0  0  0
   12.5897    1.5345   -2.2085 H   0  0  0  0  0  0  0  0  0  0  0  0
   13.3106   -3.2436   -2.6023 H   0  0  0  0  0  0  0  0  0  0  0  0
   12.4770   -7.2776   -1.1353 H   0  0  0  0  0  0  0  0  0  0  0  0
    9.9550   -5.9126   -3.1499 H   0  0  0  0  0  0  0  0  0  0  0  0
    8.4194   -4.0192   -3.0603 H   0  0  0  0  0  0  0  0  0  0  0  0
  1  2  2  0
  2  3  1  0
  2  4  1  0
  3 28  1  0
  4  5  1  0
  4 29  1  0
  4 30  1  0
  5  6  1  0
  5 31  1  0
  5 32  1  0
  6  7  1  0
  6 33  1  0
  6 34  1  0
  7  8  1  0
  7 35  1  0
  7 36  1  0
  8  9  1  0
  8 37  1  0
  8 38  1  0
  9 10  1  0
  9 27  1  0
 10 11  2  0
 10 15  1  0
 11 12  1  0
 11 39  1  0
 12 13  2  0
 12 40  1  0
 13 14  1  0
 13 41  1  0
 14 15  2  0
 14 42  1  0
 15 16  1  0
 16 17  2  0
 16 18  1  0
 18 19  1  0
 18 27  2  0
 19 20  2  0
 19 43  1  0
 20 21  1  0
 20 25  1  0
 21 22  2  0
 21 23  2  0
 21 24  1  1
 24 44  1  0
 25 26  2  0
 25 45  1  0
 26 27  1  0
 26 46  1  0
M  END

