
     RDKit          3D

 40 41  0  0  0  0  0  0  0  0999 V2000
    1.7988    1.4112   -0.0083 C   0  0  0  0  0  0  0  0  0  0  0  0
    1.9644    0.0541    0.3468 O   0  0  0  0  0  0  0  0  0  0  0  0
    2.7486   -0.2570    1.4121 C   0  0  0  0  0  0  0  0  0  0  0  0
    3.4358    0.6866    2.1699 C   0  0  0  0  0  0  0  0  0  0  0  0
    4.1853    0.2722    3.2895 C   0  0  0  0  0  0  0  0  0  0  0  0
    4.9110    1.2464    4.1075 C   0  0  0  0  0  0  0  0  0  0  0  0
    4.9035    2.5006    3.8357 N   0  0  0  0  0  0  0  0  0  0  0  0
    5.5949    3.3248    4.6423 N   0  0  0  0  0  0  0  0  0  0  0  0
    5.6423    4.6809    4.4256 C   0  0  0  0  0  0  0  0  0  0  0  0
    5.0908    5.2714    3.5186 O   0  0  0  0  0  0  0  0  0  0  0  0
    6.4798    5.3968    5.4651 C   0  0  0  0  0  0  0  0  0  0  0  0
    6.6197    6.7869    5.3744 C   0  0  0  0  0  0  0  0  0  0  0  0
    7.3926    7.4372    6.3363 C   0  0  0  0  0  0  0  0  0  0  0  0
    7.9919    6.6785    7.3450 C   0  0  0  0  0  0  0  0  0  0  0  0
    7.7911    5.2936    7.3481 C   0  0  0  0  0  0  0  0  0  0  0  0
    7.0534    4.6666    6.4314 N   0  0  0  0  0  0  0  0  0  0  0  0
    4.2374   -1.0818    3.6244 C   0  0  0  0  0  0  0  0  0  0  0  0
    3.5597   -2.0473    2.8587 C   0  0  0  0  0  0  0  0  0  0  0  0
    3.6606   -3.3194    3.3219 O   0  0  0  0  0  0  0  0  0  0  0  0
    3.5376   -4.4514    2.4792 C   0  0  0  0  0  0  0  0  0  0  0  0
    2.8041   -1.6424    1.7401 C   0  0  0  0  0  0  0  0  0  0  0  0
    2.0611   -2.5568    1.0474 O   0  0  0  0  0  0  0  0  0  0  0  0
    2.3639   -2.7661   -0.3261 C   0  0  0  0  0  0  0  0  0  0  0  0
    1.1161    1.4260   -0.8685 H   0  0  0  0  0  0  0  0  0  0  0  0
    2.7555    1.8801   -0.2983 H   0  0  0  0  0  0  0  0  0  0  0  0
    1.3544    1.9960    0.8158 H   0  0  0  0  0  0  0  0  0  0  0  0
    3.4037    1.7490    1.9361 H   0  0  0  0  0  0  0  0  0  0  0  0
    5.4691    0.8504    4.9770 H   0  0  0  0  0  0  0  0  0  0  0  0
    6.1157    2.9789    5.4553 H   0  0  0  0  0  0  0  0  0  0  0  0
    6.1221    7.3131    4.5587 H   0  0  0  0  0  0  0  0  0  0  0  0
    7.5266    8.5214    6.3011 H   0  0  0  0  0  0  0  0  0  0  0  0
    8.6052    7.1459    8.1186 H   0  0  0  0  0  0  0  0  0  0  0  0
    8.2463    4.6684    8.1245 H   0  0  0  0  0  0  0  0  0  0  0  0
    4.8098   -1.4337    4.4850 H   0  0  0  0  0  0  0  0  0  0  0  0
    3.9423   -5.2978    3.0533 H   0  0  0  0  0  0  0  0  0  0  0  0
    4.1316   -4.3375    1.5552 H   0  0  0  0  0  0  0  0  0  0  0  0
    2.4924   -4.6573    2.2085 H   0  0  0  0  0  0  0  0  0  0  0  0
    1.7182   -3.5882   -0.6662 H   0  0  0  0  0  0  0  0  0  0  0  0
    3.4208   -3.0619   -0.4613 H   0  0  0  0  0  0  0  0  0  0  0  0
    2.1606   -1.8693   -0.9288 H   0  0  0  0  0  0  0  0  0  0  0  0
  1  2  1  0
  1 24  1  0
  1 25  1  0
  1 26  1  0
  2  3  1  0
  3  4  2  0
  3 21  1  0
  4  5  1  0
  4 27  1  0
  5  6  1  0
  5 17  2  0
  6  7  2  0
  6 28  1  0
  7  8  1  0
  8  9  1  0
  8 29  1  0
  9 10  2  0
  9 11  1  0
 11 12  2  0
 11 16  1  0
 12 13  1  0
 12 30  1  0
 13 14  2  0
 13 31  1  0
 14 15  1  0
 14 32  1  0
 15 16  2  0
 15 33  1  0
 17 18  1  0
 17 34  1  0
 18 19  1  0
 18 21  2  0
 19 20  1  0
 20 35  1  0
 20 36  1  0
 20 37  1  0
 21 22  1  0
 22 23  1  0
 23 38  1  0
 23 39  1  0
 23 40  1  0
M  END

