
     RDKit          3D

 44 46  0  0  0  0  0  0  0  0999 V2000
    0.9108    0.6273    0.1419 C   0  0  0  0  0  0  0  0  0  0  0  0
    1.9252   -0.1108   -0.5034 O   0  0  0  0  0  0  0  0  0  0  0  0
    2.8235    0.5350   -1.2779 C   0  0  0  0  0  0  0  0  0  0  0  0
    2.8037    1.9053   -1.5721 C   0  0  0  0  0  0  0  0  0  0  0  0
    3.7861    2.4566   -2.4030 C   0  0  0  0  0  0  0  0  0  0  0  0
    4.7913    1.6636   -2.9513 C   0  0  0  0  0  0  0  0  0  0  0  0
    4.8150    0.2993   -2.6503 C   0  0  0  0  0  0  0  0  0  0  0  0
    5.8535   -0.4811   -3.1265 O   0  0  0  0  0  0  0  0  0  0  0  0
    5.6002   -1.4105   -4.1007 C   0  0  0  0  0  0  0  0  0  0  0  0
    4.5212   -1.5497   -4.6118 O   0  0  0  0  0  0  0  0  0  0  0  0
    6.8249   -2.1934   -4.4428 C   0  0  0  0  0  0  0  0  0  0  0  0
    8.0513   -1.9993   -3.7842 C   0  0  0  0  0  0  0  0  0  0  0  0
    9.1523   -2.7688   -4.1598 C   0  0  0  0  0  0  0  0  0  0  0  0
    9.0433   -3.7207   -5.1775 C   0  0  0  0  0  0  0  0  0  0  0  0
    7.8178   -3.9132   -5.8337 C   0  0  0  0  0  0  0  0  0  0  0  0
    7.6540   -4.8224   -6.8281 O   0  0  0  0  0  0  0  0  0  0  0  0
    6.7079   -3.1460   -5.4621 C   0  0  0  0  0  0  0  0  0  0  0  0
    3.8470   -0.2682   -1.8229 C   0  0  0  0  0  0  0  0  0  0  0  0
    3.8676   -1.6245   -1.5865 O   0  0  0  0  0  0  0  0  0  0  0  0
    4.2127   -2.0752   -0.3396 C   0  0  0  0  0  0  0  0  0  0  0  0
    4.5840   -1.3482    0.5428 O   0  0  0  0  0  0  0  0  0  0  0  0
    4.0851   -3.5585   -0.2391 C   0  0  0  0  0  0  0  0  0  0  0  0
    4.4327   -4.1603    0.9825 C   0  0  0  0  0  0  0  0  0  0  0  0
    4.3253   -5.5427    1.1173 C   0  0  0  0  0  0  0  0  0  0  0  0
    3.8760   -6.3269    0.0499 C   0  0  0  0  0  0  0  0  0  0  0  0
    3.5296   -5.7254   -1.1690 C   0  0  0  0  0  0  0  0  0  0  0  0
    3.0878   -6.4366   -2.2373 O   0  0  0  0  0  0  0  0  0  0  0  0
    3.6348   -4.3354   -1.3135 C   0  0  0  0  0  0  0  0  0  0  0  0
    0.3274   -0.0940    0.7290 H   0  0  0  0  0  0  0  0  0  0  0  0
    0.2415    1.1238   -0.5834 H   0  0  0  0  0  0  0  0  0  0  0  0
    1.3315    1.3885    0.8225 H   0  0  0  0  0  0  0  0  0  0  0  0
    2.0253    2.5461   -1.1590 H   0  0  0  0  0  0  0  0  0  0  0  0
    3.7581    3.5258   -2.6256 H   0  0  0  0  0  0  0  0  0  0  0  0
    5.5641    2.0768   -3.6008 H   0  0  0  0  0  0  0  0  0  0  0  0
    8.1311   -1.2569   -2.9909 H   0  0  0  0  0  0  0  0  0  0  0  0
   10.1121   -2.6303   -3.6561 H   0  0  0  0  0  0  0  0  0  0  0  0
    9.9134   -4.3198   -5.4658 H   0  0  0  0  0  0  0  0  0  0  0  0
    8.4881   -5.2827   -6.9882 H   0  0  0  0  0  0  0  0  0  0  0  0
    5.7513   -3.2903   -5.9657 H   0  0  0  0  0  0  0  0  0  0  0  0
    4.7801   -3.5301    1.8021 H   0  0  0  0  0  0  0  0  0  0  0  0
    4.5921   -6.0239    2.0615 H   0  0  0  0  0  0  0  0  0  0  0  0
    3.7930   -7.4130    0.1616 H   0  0  0  0  0  0  0  0  0  0  0  0
    3.0615   -7.3762   -2.0140 H   0  0  0  0  0  0  0  0  0  0  0  0
    3.3667   -3.8751   -2.2643 H   0  0  0  0  0  0  0  0  0  0  0  0
  1  2  1  0
  1 29  1  0
  1 30  1  0
  1 31  1  0
  2  3  1  0
  3  4  2  0
  3 18  1  0
  4  5  1  0
  4 32  1  0
  5  6  2  0
  5 33  1  0
  6  7  1  0
  6 34  1  0
  7  8  1  0
  7 18  2  0
  8  9  1  0
  9 10  2  0
  9 11  1  0
 11 12  2  0
 11 17  1  0
 12 13  1  0
 12 35  1  0
 13 14  2  0
 13 36  1  0
 14 15  1  0
 14 37  1  0
 15 16  1  0
 15 17  2  0
 16 38  1  0
 17 39  1  0
 18 19  1  0
 19 20  1  0
 20 21  2  0
 20 22  1  0
 22 23  2  0
 22 28  1  0
 23 24  1  0
 23 40  1  0
 24 25  2  0
 24 41  1  0
 25 26  1  0
 25 42  1  0
 26 27  1  0
 26 28  2  0
 27 43  1  0
 28 44  1  0
M  END

