
     RDKit          3D

 40 42  0  0  0  0  0  0  0  0999 V2000
    2.4232   -1.0353    0.3698 C   0  0  0  0  0  0  0  0  0  0  0  0
    2.2064    0.3360   -0.2850 C   0  0  1  0  0  0  0  0  0  0  0  0
    0.7982    0.7152   -0.4155 N   0  0  0  0  0  0  0  0  0  0  0  0
    2.9690    1.5082    0.4148 C   0  0  1  0  0  0  0  0  0  0  0  0
    2.4114    1.7503    1.8151 C   0  0  0  0  0  0  0  0  0  0  0  0
    2.8991    1.0470    2.9297 C   0  0  0  0  0  0  0  0  0  0  0  0
    2.3516    1.2336    4.2002 C   0  0  0  0  0  0  0  0  0  0  0  0
    1.2946    2.1336    4.3667 C   0  0  0  0  0  0  0  0  0  0  0  0
    0.6018    2.3740    5.9570 Cl  0  0  0  0  0  0  0  0  0  0  0  0
    0.7924    2.8481    3.2769 C   0  0  0  0  0  0  0  0  0  0  0  0
    1.3561    2.6537    2.0126 C   0  0  0  0  0  0  0  0  0  0  0  0
    4.4197    1.3095    0.4515 N   0  0  0  0  0  0  0  0  0  0  0  0
    5.0348    0.8501   -0.7884 C   0  0  0  0  0  0  0  0  0  0  0  0
    6.5829    0.7763   -0.6150 C   0  0  1  0  0  0  0  0  0  0  0  0
    7.3423    2.0225   -1.1511 C   0  0  0  0  0  0  0  0  0  0  0  0
    7.5239    2.8886    0.1231 C   0  0  0  0  0  0  0  0  0  0  0  0
    6.6590    2.1194    1.1387 C   0  0  1  0  0  0  0  0  0  0  0  0
    5.1407    2.4569    0.9903 C   0  0  0  0  0  0  0  0  0  0  0  0
    6.8788    0.7619    0.7744 O   0  0  0  0  0  0  0  0  0  0  0  0
    1.9579   -1.8237   -0.2447 H   0  0  0  0  0  0  0  0  0  0  0  0
    1.9589   -1.0734    1.3680 H   0  0  0  0  0  0  0  0  0  0  0  0
    3.4901   -1.2781    0.4916 H   0  0  0  0  0  0  0  0  0  0  0  0
    2.5934    0.2922   -1.3158 H   0  0  0  0  0  0  0  0  0  0  0  0
    0.3180    0.6057    0.4793 H   0  0  0  0  0  0  0  0  0  0  0  0
    0.3298    0.0863   -1.0673 H   0  0  0  0  0  0  0  0  0  0  0  0
    2.7133    2.4010   -0.1987 H   0  0  0  0  0  0  0  0  0  0  0  0
    3.7375    0.3606    2.7930 H   0  0  0  0  0  0  0  0  0  0  0  0
    2.7402    0.6881    5.0621 H   0  0  0  0  0  0  0  0  0  0  0  0
   -0.0276    3.5538    3.4210 H   0  0  0  0  0  0  0  0  0  0  0  0
    0.9620    3.2106    1.1592 H   0  0  0  0  0  0  0  0  0  0  0  0
    4.7861    1.5083   -1.6538 H   0  0  0  0  0  0  0  0  0  0  0  0
    4.6591   -0.1525   -1.0338 H   0  0  0  0  0  0  0  0  0  0  0  0
    6.9609   -0.1600   -1.0493 H   0  0  0  0  0  0  0  0  0  0  0  0
    6.7786    2.5374   -1.9434 H   0  0  0  0  0  0  0  0  0  0  0  0
    8.3136    1.7302   -1.5755 H   0  0  0  0  0  0  0  0  0  0  0  0
    7.2051    3.9336   -0.0069 H   0  0  0  0  0  0  0  0  0  0  0  0
    8.5739    2.8926    0.4508 H   0  0  0  0  0  0  0  0  0  0  0  0
    6.9884    2.2403    2.1802 H   0  0  0  0  0  0  0  0  0  0  0  0
    5.0119    3.3565    0.3431 H   0  0  0  0  0  0  0  0  0  0  0  0
    4.7180    2.7216    1.9683 H   0  0  0  0  0  0  0  0  0  0  0  0
  1  2  1  0
  1 20  1  0
  1 21  1  0
  1 22  1  0
  2  3  1  0
  2  4  1  0
  2 23  1  6
  3 24  1  0
  3 25  1  0
  4  5  1  0
  4 12  1  0
  4 26  1  6
  5  6  2  0
  5 11  1  0
  6  7  1  0
  6 27  1  0
  7  8  2  0
  7 28  1  0
  8  9  1  0
  8 10  1  0
 10 11  2  0
 10 29  1  0
 11 30  1  0
 12 13  1  0
 12 18  1  0
 13 14  1  0
 13 31  1  0
 13 32  1  0
 14 15  1  0
 14 19  1  0
 14 33  1  6
 15 16  1  0
 15 34  1  0
 15 35  1  0
 16 17  1  0
 16 36  1  0
 16 37  1  0
 17 18  1  0
 17 19  1  0
 17 38  1  1
 18 39  1  0
 18 40  1  0
M  END

