
     RDKit          3D

 39 42  0  0  0  0  0  0  0  0999 V2000
    1.2426    0.0241   -0.7313 O   0  0  0  0  0  0  0  0  0  0  0  0
    2.3610    0.1132   -0.2693 C   0  0  0  0  0  0  0  0  0  0  0  0
    3.1115   -0.9490    0.2202 N   0  0  0  0  0  0  0  0  0  0  0  0
    4.3546   -0.5499    0.6745 C   0  0  0  0  0  0  0  0  0  0  0  0
    5.3198   -1.3707    1.1835 C   0  0  0  0  0  0  0  0  0  0  0  0
    5.2661   -2.7940    1.3373 C   0  0  0  0  0  0  0  0  0  0  0  0
    6.1623   -3.6654    1.9368 C   0  0  0  0  0  0  0  0  0  0  0  0
    5.6199   -4.9699    1.8178 C   0  0  0  0  0  0  0  0  0  0  0  0
    4.4286   -4.8386    1.1486 C   0  0  0  0  0  0  0  0  0  0  0  0
    3.4542   -5.8602    0.7202 C   0  0  0  0  0  0  0  0  0  0  0  0
    3.5600   -7.0191    1.0266 O   0  0  0  0  0  0  0  0  0  0  0  0
    2.4331   -5.4189   -0.0460 O   0  0  0  0  0  0  0  0  0  0  0  0
    4.2051   -3.5162    0.8534 O   0  0  0  0  0  0  0  0  0  0  0  0
    4.4177    0.9154    0.4652 C   0  0  0  0  0  0  0  0  0  0  0  0
    5.6087    1.7187    0.6975 C   0  0  0  0  0  0  0  0  0  0  0  0
    6.1139    2.8389    0.0759 C   0  0  0  0  0  0  0  0  0  0  0  0
    7.3479    3.1489    0.7240 C   0  0  0  0  0  0  0  0  0  0  0  0
    7.5137    2.2009    1.6946 C   0  0  0  0  0  0  0  0  0  0  0  0
    6.4745    1.3322    1.6867 O   0  0  0  0  0  0  0  0  0  0  0  0
    3.2246    1.3259   -0.0856 C   0  0  0  0  0  0  0  0  0  0  0  0
    2.7207    2.6673   -0.4192 C   0  0  0  0  0  0  0  0  0  0  0  0
    1.9394    2.8620   -1.5762 C   0  0  0  0  0  0  0  0  0  0  0  0
    1.4340    4.1257   -1.8890 C   0  0  0  0  0  0  0  0  0  0  0  0
    1.6815    5.2136   -1.0479 C   0  0  0  0  0  0  0  0  0  0  0  0
    2.4369    5.0291    0.1161 C   0  0  0  0  0  0  0  0  0  0  0  0
    2.9507    3.7712    0.4276 C   0  0  0  0  0  0  0  0  0  0  0  0
    2.7589   -1.8943    0.2782 H   0  0  0  0  0  0  0  0  0  0  0  0
    6.2379   -0.9065    1.5361 H   0  0  0  0  0  0  0  0  0  0  0  0
    7.0990   -3.3774    2.4088 H   0  0  0  0  0  0  0  0  0  0  0  0
    6.0374   -5.9108    2.1677 H   0  0  0  0  0  0  0  0  0  0  0  0
    2.5426   -4.4778   -0.2465 H   0  0  0  0  0  0  0  0  0  0  0  0
    5.6524    3.3710   -0.7516 H   0  0  0  0  0  0  0  0  0  0  0  0
    8.0246    3.9696    0.4962 H   0  0  0  0  0  0  0  0  0  0  0  0
    8.2831    2.0208    2.4409 H   0  0  0  0  0  0  0  0  0  0  0  0
    1.7241    2.0136   -2.2260 H   0  0  0  0  0  0  0  0  0  0  0  0
    0.8363    4.2580   -2.7945 H   0  0  0  0  0  0  0  0  0  0  0  0
    1.2799    6.2005   -1.2916 H   0  0  0  0  0  0  0  0  0  0  0  0
    2.6195    5.8700    0.7902 H   0  0  0  0  0  0  0  0  0  0  0  0
    3.5254    3.6349    1.3455 H   0  0  0  0  0  0  0  0  0  0  0  0
  1  2  2  0
  2  3  1  0
  2 20  1  0
  3  4  1  0
  3 27  1  0
  4  5  2  0
  4 14  1  0
  5  6  1  0
  5 28  1  0
  6  7  2  0
  6 13  1  0
  7  8  1  0
  7 29  1  0
  8  9  2  0
  8 30  1  0
  9 10  1  0
  9 13  1  0
 10 11  2  0
 10 12  1  0
 12 31  1  0
 14 15  1  0
 14 20  2  0
 15 16  2  0
 15 19  1  0
 16 17  1  0
 16 32  1  0
 17 18  2  0
 17 33  1  0
 18 19  1  0
 18 34  1  0
 20 21  1  0
 21 22  2  0
 21 26  1  0
 22 23  1  0
 22 35  1  0
 23 24  2  0
 23 36  1  0
 24 25  1  0
 24 37  1  0
 25 26  2  0
 25 38  1  0
 26 39  1  0
M  END

