
     RDKit          3D

 39 41  0  0  0  0  0  0  0  0999 V2000
    1.6937   -0.2161    1.6766 C   0  0  0  0  0  0  0  0  0  0  0  0
    2.8269   -0.0586    0.7134 C   0  0  0  0  0  0  0  0  0  0  0  0
    3.6204    1.0392    0.4507 C   0  0  0  0  0  0  0  0  0  0  0  0
    4.5931    0.6585   -0.5205 C   0  0  0  0  0  0  0  0  0  0  0  0
    4.3873   -0.6695   -0.8335 C   0  0  0  0  0  0  0  0  0  0  0  0
    5.0938   -1.5455   -1.8183 C   0  0  0  0  0  0  0  0  0  0  0  0
    3.3010   -1.1074   -0.0753 N   0  0  0  0  0  0  0  0  0  0  0  0
    2.7606   -2.4229   -0.1028 C   0  0  0  0  0  0  0  0  0  0  0  0
    3.4870   -3.5004    0.4275 C   0  0  0  0  0  0  0  0  0  0  0  0
    2.9563   -4.7885    0.3937 C   0  0  0  0  0  0  0  0  0  0  0  0
    1.6892   -5.0351   -0.1599 C   0  0  0  0  0  0  0  0  0  0  0  0
    1.1516   -6.4691   -0.1744 C   0  0  1  0  0  0  0  0  0  0  0  0
   -0.2622   -6.5893   -0.4780 N   0  0  0  0  0  0  0  0  0  0  0  0
   -0.7876   -6.6010   -1.7442 C   0  0  0  0  0  0  0  0  0  0  0  0
   -1.9626   -6.4636   -2.0004 O   0  0  0  0  0  0  0  0  0  0  0  0
    0.1664   -6.7846   -2.7657 N   0  0  0  0  0  0  0  0  0  0  0  0
    1.5037   -7.0913   -2.6339 C   0  0  0  0  0  0  0  0  0  0  0  0
    2.2647   -7.1672   -3.5659 O   0  0  0  0  0  0  0  0  0  0  0  0
    1.9320   -7.3685   -1.1755 C   0  0  2  0  0  0  0  0  0  0  0  0
    1.7472   -8.7930   -0.8719 C   0  0  0  0  0  0  0  0  0  0  0  0
    1.5991   -9.9128   -0.6150 N   0  0  0  0  0  0  0  0  0  0  0  0
    0.9615   -3.9536   -0.6707 C   0  0  0  0  0  0  0  0  0  0  0  0
    1.4947   -2.6615   -0.6510 C   0  0  0  0  0  0  0  0  0  0  0  0
    1.5705    0.7154    2.2469 H   0  0  0  0  0  0  0  0  0  0  0  0
    1.8702   -1.0311    2.3999 H   0  0  0  0  0  0  0  0  0  0  0  0
    0.7313   -0.4302    1.1808 H   0  0  0  0  0  0  0  0  0  0  0  0
    3.5120    2.0152    0.9209 H   0  0  0  0  0  0  0  0  0  0  0  0
    5.3637    1.2912   -0.9581 H   0  0  0  0  0  0  0  0  0  0  0  0
    5.8445   -0.9519   -2.3589 H   0  0  0  0  0  0  0  0  0  0  0  0
    4.4044   -1.9750   -2.5656 H   0  0  0  0  0  0  0  0  0  0  0  0
    5.6203   -2.3919   -1.3445 H   0  0  0  0  0  0  0  0  0  0  0  0
    4.4635   -3.3158    0.8793 H   0  0  0  0  0  0  0  0  0  0  0  0
    3.5354   -5.6119    0.8233 H   0  0  0  0  0  0  0  0  0  0  0  0
    1.3080   -6.8951    0.8287 H   0  0  0  0  0  0  0  0  0  0  0  0
   -0.9435   -6.4130    0.2520 H   0  0  0  0  0  0  0  0  0  0  0  0
   -0.1957   -6.6941   -3.7125 H   0  0  0  0  0  0  0  0  0  0  0  0
    3.0075   -7.1466   -1.1311 H   0  0  0  0  0  0  0  0  0  0  0  0
   -0.0344   -4.1069   -1.0900 H   0  0  0  0  0  0  0  0  0  0  0  0
    0.9286   -1.8277   -1.0707 H   0  0  0  0  0  0  0  0  0  0  0  0
  1  2  1  0
  1 24  1  0
  1 25  1  0
  1 26  1  0
  2  3  2  0
  2  7  1  0
  3  4  1  0
  3 27  1  0
  4  5  2  0
  4 28  1  0
  5  6  1  0
  5  7  1  0
  6 29  1  0
  6 30  1  0
  6 31  1  0
  7  8  1  0
  8  9  2  0
  8 23  1  0
  9 10  1  0
  9 32  1  0
 10 11  2  0
 10 33  1  0
 11 12  1  0
 11 22  1  0
 12 13  1  0
 12 19  1  0
 12 34  1  1
 13 14  1  0
 13 35  1  0
 14 15  2  0
 14 16  1  0
 16 17  1  0
 16 36  1  0
 17 18  2  0
 17 19  1  0
 19 20  1  0
 19 37  1  6
 20 21  3  0
 22 23  2  0
 22 38  1  0
 23 39  1  0
M  END

