
     RDKit          3D

 32 35  0  0  0  0  0  0  0  0999 V2000
    1.0448    0.3401   -0.2377 O   0  0  0  0  0  0  0  0  0  0  0  0
    2.2194    0.1839    0.0506 C   0  0  0  0  0  0  0  0  0  0  0  0
    3.1165    1.1622    0.4821 N   0  0  0  0  0  0  0  0  0  0  0  0
    2.7374    2.5525    0.6223 C   0  0  0  0  0  0  0  0  0  0  0  0
    3.4062    3.4559   -0.3834 C   0  0  0  0  0  0  0  0  0  0  0  0
    4.4176    4.2114   -0.1052 N   0  0  0  0  0  0  0  0  0  0  0  0
    4.8589    4.9024   -1.2186 C   0  0  0  0  0  0  0  0  0  0  0  0
    5.9346    5.8072   -1.2447 C   0  0  0  0  0  0  0  0  0  0  0  0
    6.2651    6.4293   -2.4442 C   0  0  0  0  0  0  0  0  0  0  0  0
    5.5373    6.1634   -3.6208 C   0  0  0  0  0  0  0  0  0  0  0  0
    4.4666    5.2707   -3.6186 C   0  0  0  0  0  0  0  0  0  0  0  0
    4.1335    4.6426   -2.4120 C   0  0  0  0  0  0  0  0  0  0  0  0
    2.8611    3.4926   -2.0718 S   0  0  0  0  0  0  0  0  0  0  0  0
    4.3720    0.6008    0.7211 C   0  0  0  0  0  0  0  0  0  0  0  0
    4.2818   -0.7225    0.4495 C   0  0  0  0  0  0  0  0  0  0  0  0
    2.9749   -0.9893    0.0271 N   0  0  0  0  0  0  0  0  0  0  0  0
    2.4368   -2.2826   -0.2702 C   0  0  1  0  0  0  0  0  0  0  0  0
    1.6712   -2.4740   -1.5482 C   0  0  0  0  0  0  0  0  0  0  0  0
    3.0392   -3.0833   -1.4021 C   0  0  0  0  0  0  0  0  0  0  0  0
    3.0071    2.9254    1.6225 H   0  0  0  0  0  0  0  0  0  0  0  0
    1.6433    2.5801    0.5105 H   0  0  0  0  0  0  0  0  0  0  0  0
    6.4875    6.0026   -0.3239 H   0  0  0  0  0  0  0  0  0  0  0  0
    7.0993    7.1343   -2.4767 H   0  0  0  0  0  0  0  0  0  0  0  0
    5.8148    6.6647   -4.5514 H   0  0  0  0  0  0  0  0  0  0  0  0
    3.9055    5.0693   -4.5336 H   0  0  0  0  0  0  0  0  0  0  0  0
    5.2155    1.2013    1.0502 H   0  0  0  0  0  0  0  0  0  0  0  0
    5.0324   -1.5055    0.5070 H   0  0  0  0  0  0  0  0  0  0  0  0
    2.0889   -2.8406    0.6084 H   0  0  0  0  0  0  0  0  0  0  0  0
    1.5553   -1.5989   -2.1905 H   0  0  0  0  0  0  0  0  0  0  0  0
    0.7942   -3.1250   -1.5116 H   0  0  0  0  0  0  0  0  0  0  0  0
    3.8633   -2.6254   -1.9560 H   0  0  0  0  0  0  0  0  0  0  0  0
    3.1278   -4.1645   -1.2654 H   0  0  0  0  0  0  0  0  0  0  0  0
  1  2  2  0
  2  3  1  0
  2 16  1  0
  3  4  1  0
  3 14  1  0
  4  5  1  0
  4 20  1  0
  4 21  1  0
  5  6  2  0
  5 13  1  0
  6  7  1  0
  7  8  2  0
  7 12  1  0
  8  9  1  0
  8 22  1  0
  9 10  2  0
  9 23  1  0
 10 11  1  0
 10 24  1  0
 11 12  2  0
 11 25  1  0
 12 13  1  0
 14 15  2  0
 14 26  1  0
 15 16  1  0
 15 27  1  0
 16 17  1  0
 17 18  1  0
 17 19  1  0
 17 28  1  1
 18 19  1  0
 18 29  1  0
 18 30  1  0
 19 31  1  0
 19 32  1  0
M  END

