
     RDKit          3D

 37 39  0  0  0  0  0  0  0  0999 V2000
    2.8335   -1.1613   -0.1928 O   0  0  0  0  0  0  0  0  0  0  0  0
    2.3407   -0.0505   -0.1060 C   0  0  0  0  0  0  0  0  0  0  0  0
    1.2692    0.4383   -0.7912 N   0  0  0  0  0  0  0  0  0  0  0  0
    0.4702   -0.1864   -1.7510 C   0  0  0  0  0  0  0  0  0  0  0  0
    0.6841   -1.5150   -2.1712 C   0  0  0  0  0  0  0  0  0  0  0  0
   -0.1514   -2.0762   -3.1331 C   0  0  0  0  0  0  0  0  0  0  0  0
   -1.1928   -1.3196   -3.6729 C   0  0  0  0  0  0  0  0  0  0  0  0
   -2.0718   -1.9209   -4.6895 N   0  0  0  0  0  0  0  0  0  0  0  0
   -1.8474   -3.0746   -5.0211 O   0  0  0  0  0  0  0  0  0  0  0  0
   -2.9727   -1.2282   -5.1383 O   0  0  0  0  0  0  0  0  0  0  0  0
   -1.4204   -0.0018   -3.2692 C   0  0  0  0  0  0  0  0  0  0  0  0
   -0.5880    0.5601   -2.3098 C   0  0  0  0  0  0  0  0  0  0  0  0
    2.8986    1.0264    0.8542 C   0  0  0  0  0  0  0  0  0  0  0  0
    2.3818    2.1354    0.9207 O   0  0  0  0  0  0  0  0  0  0  0  0
    3.9641    0.5736    1.5473 N   0  0  0  0  0  0  0  0  0  0  0  0
    4.7368    1.2394    2.5000 C   0  0  0  0  0  0  0  0  0  0  0  0
    4.5308    2.5455    2.9194 C   0  0  0  0  0  0  0  0  0  0  0  0
    5.3831    3.1163    3.8962 C   0  0  0  0  0  0  0  0  0  0  0  0
    6.4262    2.4052    4.4517 C   0  0  0  0  0  0  0  0  0  0  0  0
    6.6643    1.0644    4.0430 C   0  0  0  0  0  0  0  0  0  0  0  0
    7.7119    0.2534    4.5563 C   0  0  0  0  0  0  0  0  0  0  0  0
    7.8632   -1.0376    4.0975 C   0  0  0  0  0  0  0  0  0  0  0  0
    6.9612   -1.5246    3.1171 C   0  0  0  0  0  0  0  0  0  0  0  0
    5.9797   -0.8036    2.6181 N   0  0  0  0  0  0  0  0  0  0  0  0
    5.8158    0.4692    3.0583 C   0  0  0  0  0  0  0  0  0  0  0  0
    1.0536    1.4031   -0.5364 H   0  0  0  0  0  0  0  0  0  0  0  0
    1.5012   -2.0880   -1.7384 H   0  0  0  0  0  0  0  0  0  0  0  0
   -0.0077   -3.1009   -3.4750 H   0  0  0  0  0  0  0  0  0  0  0  0
   -2.2428    0.5589   -3.7123 H   0  0  0  0  0  0  0  0  0  0  0  0
   -0.7533    1.5903   -1.9837 H   0  0  0  0  0  0  0  0  0  0  0  0
    4.2617   -0.3896    1.3608 H   0  0  0  0  0  0  0  0  0  0  0  0
    3.7119    3.1202    2.4913 H   0  0  0  0  0  0  0  0  0  0  0  0
    5.1994    4.1468    4.2100 H   0  0  0  0  0  0  0  0  0  0  0  0
    7.0763    2.8579    5.2044 H   0  0  0  0  0  0  0  0  0  0  0  0
    8.3870    0.6655    5.3115 H   0  0  0  0  0  0  0  0  0  0  0  0
    8.6587   -1.6846    4.4732 H   0  0  0  0  0  0  0  0  0  0  0  0
    7.0653   -2.5487    2.7395 H   0  0  0  0  0  0  0  0  0  0  0  0
  1  2  2  0
  2  3  1  0
  2 13  1  0
  3  4  1  0
  3 26  1  0
  4  5  2  0
  4 12  1  0
  5  6  1  0
  5 27  1  0
  6  7  2  0
  6 28  1  0
  7  8  1  0
  7 11  1  0
  8  9  2  0
  8 10  1  0
 11 12  2  0
 11 29  1  0
 12 30  1  0
 13 14  2  0
 13 15  1  0
 15 16  1  0
 15 31  1  0
 16 17  2  0
 16 25  1  0
 17 18  1  0
 17 32  1  0
 18 19  2  0
 18 33  1  0
 19 20  1  0
 19 34  1  0
 20 21  1  0
 20 25  2  0
 21 22  2  0
 21 35  1  0
 22 23  1  0
 22 36  1  0
 23 24  2  0
 23 37  1  0
 24 25  1  0
M  CHG  2   8   1  10  -1
M  END

