
     RDKit          3D

 45 45  0  0  0  0  0  0  0  0999 V2000
   -1.5009    3.9299   -2.9965 C   0  0  0  0  0  0  0  0  0  0  0  0
    0.0262    4.0027   -3.0499 C   0  0  1  0  0  0  0  0  0  0  0  0
    0.6440    2.5909   -3.1091 C   0  0  0  0  0  0  0  0  0  0  0  0
    2.1182    2.5636   -3.0990 N   0  0  0  0  0  0  0  0  0  0  0  0
    2.6627    2.8896   -1.7801 C   0  0  0  0  0  0  0  0  0  0  0  0
    2.6624    1.2810   -3.5803 C   0  0  0  0  0  0  0  0  0  0  0  0
    2.4997    0.9960   -5.0793 C   0  0  0  0  0  0  0  0  0  0  0  0
    3.1979    1.9559   -6.0523 C   0  0  0  0  0  0  0  0  0  0  0  0
    4.7089    2.0284   -5.8747 C   0  0  0  0  0  0  0  0  0  0  0  0
    5.2358    2.7526   -6.9748 O   0  0  0  0  0  0  0  0  0  0  0  0
    6.5626    2.9775   -7.0788 C   0  0  0  0  0  0  0  0  0  0  0  0
    7.5100    2.5612   -6.1312 C   0  0  0  0  0  0  0  0  0  0  0  0
    8.8664    2.8433   -6.3245 C   0  0  0  0  0  0  0  0  0  0  0  0
    9.2971    3.5366   -7.4546 C   0  0  0  0  0  0  0  0  0  0  0  0
    8.3550    3.9492   -8.4019 C   0  0  0  0  0  0  0  0  0  0  0  0
    6.9969    3.6782   -8.2293 C   0  0  0  0  0  0  0  0  0  0  0  0
    5.9890    4.1233   -9.2636 C   0  0  1  0  0  0  0  0  0  0  0  0
    5.3196    3.0840   -9.7950 F   0  0  0  0  0  0  0  0  0  0  0  0
    5.0772    4.9666   -8.7544 F   0  0  0  0  0  0  0  0  0  0  0  0
    6.5885    4.7643  -10.2872 F   0  0  0  0  0  0  0  0  0  0  0  0
    0.4937    4.9289   -4.1938 C   0  0  0  0  0  0  0  0  0  0  0  0
   -0.2241    5.7544   -4.6964 O   0  0  0  0  0  0  0  0  0  0  0  0
    1.7738    4.7852   -4.5587 O   0  0  0  0  0  0  0  0  0  0  0  0
   -1.8395    3.3832   -2.1024 H   0  0  0  0  0  0  0  0  0  0  0  0
   -1.9035    3.4193   -3.8862 H   0  0  0  0  0  0  0  0  0  0  0  0
   -1.9290    4.9404   -2.9799 H   0  0  0  0  0  0  0  0  0  0  0  0
    0.3739    4.4985   -2.1242 H   0  0  0  0  0  0  0  0  0  0  0  0
    0.2997    2.1071   -4.0353 H   0  0  0  0  0  0  0  0  0  0  0  0
    0.2421    1.9846   -2.2702 H   0  0  0  0  0  0  0  0  0  0  0  0
    2.2987    3.8692   -1.4405 H   0  0  0  0  0  0  0  0  0  0  0  0
    3.7603    2.9422   -1.8316 H   0  0  0  0  0  0  0  0  0  0  0  0
    2.3856    2.1352   -1.0144 H   0  0  0  0  0  0  0  0  0  0  0  0
    2.2102    0.4431   -3.0070 H   0  0  0  0  0  0  0  0  0  0  0  0
    3.7339    1.2724   -3.3247 H   0  0  0  0  0  0  0  0  0  0  0  0
    1.4304    0.9470   -5.3421 H   0  0  0  0  0  0  0  0  0  0  0  0
    2.8803   -0.0283   -5.2424 H   0  0  0  0  0  0  0  0  0  0  0  0
    2.7790    2.9712   -5.9799 H   0  0  0  0  0  0  0  0  0  0  0  0
    3.0036    1.6168   -7.0827 H   0  0  0  0  0  0  0  0  0  0  0  0
    5.1502    1.0127   -5.8481 H   0  0  0  0  0  0  0  0  0  0  0  0
    4.9813    2.5355   -4.9306 H   0  0  0  0  0  0  0  0  0  0  0  0
    7.1969    2.0174   -5.2405 H   0  0  0  0  0  0  0  0  0  0  0  0
    9.5900    2.5121   -5.5751 H   0  0  0  0  0  0  0  0  0  0  0  0
   10.3562    3.7560   -7.6030 H   0  0  0  0  0  0  0  0  0  0  0  0
    8.6729    4.4907   -9.2937 H   0  0  0  0  0  0  0  0  0  0  0  0
    2.1617    3.9976   -4.0794 H   0  0  0  0  0  0  0  0  0  0  0  0
  1  2  1  0
  1 24  1  0
  1 25  1  0
  1 26  1  0
  2  3  1  0
  2 21  1  0
  2 27  1  1
  3  4  1  0
  3 28  1  0
  3 29  1  0
  4  5  1  0
  4  6  1  0
  5 30  1  0
  5 31  1  0
  5 32  1  0
  6  7  1  0
  6 33  1  0
  6 34  1  0
  7  8  1  0
  7 35  1  0
  7 36  1  0
  8  9  1  0
  8 37  1  0
  8 38  1  0
  9 10  1  0
  9 39  1  0
  9 40  1  0
 10 11  1  0
 11 12  2  0
 11 16  1  0
 12 13  1  0
 12 41  1  0
 13 14  2  0
 13 42  1  0
 14 15  1  0
 14 43  1  0
 15 16  2  0
 15 44  1  0
 16 17  1  0
 17 18  1  6
 17 19  1  0
 17 20  1  0
 21 22  2  0
 21 23  1  0
 23 45  1  0
M  END

