
     RDKit          3D

 32 32  0  0  0  0  0  0  0  0999 V2000
    0.8761    0.2383    0.0342 C   0  0  0  0  0  0  0  0  0  0  0  0
    2.3979    0.0341   -0.0111 C   0  0  1  0  0  0  0  0  0  0  0  0
    2.7983   -1.4370   -0.2443 C   0  0  0  0  0  0  0  0  0  0  0  0
    2.5545   -1.9246   -1.6832 C   0  0  2  0  0  0  0  0  0  0  0  0
    2.9992   -3.3777   -1.8714 C   0  0  0  0  0  0  0  0  0  0  0  0
    3.2518   -0.9883   -2.6877 C   0  0  0  0  0  0  0  0  0  0  0  0
    2.8306    0.4713   -2.4903 C   0  0  2  0  0  0  0  0  0  0  0  0
    3.7143    1.6108   -3.6424 S   0  0  0  0  0  0  0  0  0  0  0  0
    2.7295    1.4663   -5.1219 C   0  0  0  0  0  0  0  0  0  0  0  0
    3.2089    2.1927   -6.1967 N   0  0  0  0  0  0  0  0  0  0  0  0
    1.6860    0.7201   -5.1676 N   0  0  0  0  0  0  0  0  0  0  0  0
    1.0200    0.7681   -6.4220 N   0  0  0  0  0  0  0  0  0  0  0  0
    3.0857    0.9444   -1.0525 C   0  0  0  0  0  0  0  0  0  0  0  0
    0.4197   -0.3888    0.8175 H   0  0  0  0  0  0  0  0  0  0  0  0
    0.3846   -0.0167   -0.9179 H   0  0  0  0  0  0  0  0  0  0  0  0
    0.6267    1.2879    0.2600 H   0  0  0  0  0  0  0  0  0  0  0  0
    2.7884    0.3290    0.9793 H   0  0  0  0  0  0  0  0  0  0  0  0
    2.2634   -2.0874    0.4700 H   0  0  0  0  0  0  0  0  0  0  0  0
    3.8751   -1.5522   -0.0186 H   0  0  0  0  0  0  0  0  0  0  0  0
    1.4680   -1.8796   -1.8847 H   0  0  0  0  0  0  0  0  0  0  0  0
    4.0815   -3.4877   -1.6850 H   0  0  0  0  0  0  0  0  0  0  0  0
    2.8014   -3.7281   -2.8975 H   0  0  0  0  0  0  0  0  0  0  0  0
    2.4720   -4.0530   -1.1776 H   0  0  0  0  0  0  0  0  0  0  0  0
    3.0196   -1.2959   -3.7188 H   0  0  0  0  0  0  0  0  0  0  0  0
    4.3473   -1.0696   -2.5608 H   0  0  0  0  0  0  0  0  0  0  0  0
    1.7695    0.5816   -2.7557 H   0  0  0  0  0  0  0  0  0  0  0  0
    3.8476    2.9502   -5.9774 H   0  0  0  0  0  0  0  0  0  0  0  0
    2.4579    2.4544   -6.8373 H   0  0  0  0  0  0  0  0  0  0  0  0
    0.1974    0.1746   -6.3323 H   0  0  0  0  0  0  0  0  0  0  0  0
    1.6092    0.3242   -7.1379 H   0  0  0  0  0  0  0  0  0  0  0  0
    2.7466    1.9864   -0.9321 H   0  0  0  0  0  0  0  0  0  0  0  0
    4.1744    0.9422   -0.8619 H   0  0  0  0  0  0  0  0  0  0  0  0
  1  2  1  0
  1 14  1  0
  1 15  1  0
  1 16  1  0
  2  3  1  0
  2 13  1  0
  2 17  1  1
  3  4  1  0
  3 18  1  0
  3 19  1  0
  4  5  1  0
  4  6  1  0
  4 20  1  6
  5 21  1  0
  5 22  1  0
  5 23  1  0
  6  7  1  0
  6 24  1  0
  6 25  1  0
  7  8  1  0
  7 13  1  0
  7 26  1  6
  8  9  1  0
  9 10  1  0
  9 11  2  0
 10 27  1  0
 10 28  1  0
 11 12  1  0
 12 29  1  0
 12 30  1  0
 13 31  1  0
 13 32  1  0
M  END

