
     RDKit          3D

 57 58  0  0  0  0  0  0  0  0999 V2000
    4.7021   -3.1330   -0.1006 O   0  0  0  0  0  0  0  0  0  0  0  0
    4.5044   -3.1429    1.0823 C   0  0  0  0  0  0  0  0  0  0  0  0
    3.5808   -3.9819    1.6133 O   0  0  0  0  0  0  0  0  0  0  0  0
    5.2348   -2.2646    2.0913 C   0  0  0  0  0  0  0  0  0  0  0  0
    6.2228   -1.2929    1.4502 C   0  0  0  0  0  0  0  0  0  0  0  0
    6.9842   -0.4429    2.4703 C   0  0  0  0  0  0  0  0  0  0  0  0
    7.9623    0.5456    1.8286 C   0  0  0  0  0  0  0  0  0  0  0  0
    8.7418    1.3846    2.8446 C   0  0  0  0  0  0  0  0  0  0  0  0
    9.6868    2.3945    2.1804 C   0  0  0  0  0  0  0  0  0  0  0  0
   10.4544    3.1840    3.1292 N   0  0  0  0  0  0  0  0  0  0  0  0
   10.0493    4.4350    3.5406 C   0  0  0  0  0  0  0  0  0  0  0  0
    9.0580    5.0156    3.1478 O   0  0  0  0  0  0  0  0  0  0  0  0
   11.0847    4.9406    4.5460 C   0  0  0  0  0  0  0  0  0  0  0  0
   11.8428    3.6775    4.9670 C   0  0  0  0  0  0  0  0  0  0  0  0
   11.6995    2.7333    3.7338 C   0  0  2  0  0  0  0  0  0  0  0  0
   12.9022    2.8035    2.8264 C   0  0  0  0  0  0  0  0  0  0  0  0
   12.9719    3.4086    1.6303 C   0  0  0  0  0  0  0  0  0  0  0  0
   14.2454    3.4314    0.8536 C   0  0  0  0  0  0  0  0  0  0  0  0
   15.2618    2.8937    1.2490 O   0  0  0  0  0  0  0  0  0  0  0  0
   14.2081    4.1436   -0.5014 C   0  0  0  0  0  0  0  0  0  0  0  0
   13.5627    3.2688   -1.5613 C   0  0  0  0  0  0  0  0  0  0  0  0
   14.1617    2.0516   -1.9302 C   0  0  0  0  0  0  0  0  0  0  0  0
   13.5743    1.2325   -2.8958 C   0  0  0  0  0  0  0  0  0  0  0  0
   12.3767    1.6074   -3.5125 C   0  0  0  0  0  0  0  0  0  0  0  0
   11.7868    2.8137   -3.1409 C   0  0  0  0  0  0  0  0  0  0  0  0
   10.5596    3.1783   -3.7038 O   0  0  0  0  0  0  0  0  0  0  0  0
   10.5639    3.9269   -4.8291 C   0  0  1  0  0  0  0  0  0  0  0  0
   11.1932    3.3159   -5.8445 F   0  0  0  0  0  0  0  0  0  0  0  0
    9.3044    4.1440   -5.1795 F   0  0  0  0  0  0  0  0  0  0  0  0
   11.1692    5.1118   -4.6491 F   0  0  0  0  0  0  0  0  0  0  0  0
   12.3599    3.6427   -2.1754 C   0  0  0  0  0  0  0  0  0  0  0  0
    3.5335   -3.8705    2.5735 H   0  0  0  0  0  0  0  0  0  0  0  0
    5.7518   -2.9318    2.8071 H   0  0  0  0  0  0  0  0  0  0  0  0
    4.4788   -1.7188    2.6867 H   0  0  0  0  0  0  0  0  0  0  0  0
    5.6767   -0.6417    0.7473 H   0  0  0  0  0  0  0  0  0  0  0  0
    6.9308   -1.8660    0.8290 H   0  0  0  0  0  0  0  0  0  0  0  0
    7.5366   -1.1056    3.1629 H   0  0  0  0  0  0  0  0  0  0  0  0
    6.2654    0.1148    3.0991 H   0  0  0  0  0  0  0  0  0  0  0  0
    7.4065    1.2176    1.1495 H   0  0  0  0  0  0  0  0  0  0  0  0
    8.6714   -0.0092    1.1867 H   0  0  0  0  0  0  0  0  0  0  0  0
    9.3197    0.7159    3.5087 H   0  0  0  0  0  0  0  0  0  0  0  0
    8.0397    1.9379    3.4919 H   0  0  0  0  0  0  0  0  0  0  0  0
    9.1000    3.1050    1.5776 H   0  0  0  0  0  0  0  0  0  0  0  0
   10.3838    1.8761    1.5006 H   0  0  0  0  0  0  0  0  0  0  0  0
   10.5872    5.4686    5.3711 H   0  0  0  0  0  0  0  0  0  0  0  0
   11.7340    5.6705    4.0334 H   0  0  0  0  0  0  0  0  0  0  0  0
   11.3514    3.2088    5.8336 H   0  0  0  0  0  0  0  0  0  0  0  0
   12.8943    3.8552    5.2334 H   0  0  0  0  0  0  0  0  0  0  0  0
   11.6041    1.6866    4.0766 H   0  0  0  0  0  0  0  0  0  0  0  0
   13.8168    2.3264    3.2004 H   0  0  0  0  0  0  0  0  0  0  0  0
   12.0944    3.8991    1.1987 H   0  0  0  0  0  0  0  0  0  0  0  0
   15.2500    4.3684   -0.7735 H   0  0  0  0  0  0  0  0  0  0  0  0
   13.6555    5.0916   -0.4115 H   0  0  0  0  0  0  0  0  0  0  0  0
   15.0944    1.7477   -1.4484 H   0  0  0  0  0  0  0  0  0  0  0  0
   14.0519    0.2897   -3.1732 H   0  0  0  0  0  0  0  0  0  0  0  0
   11.8992    0.9814   -4.2676 H   0  0  0  0  0  0  0  0  0  0  0  0
   11.8608    4.5787   -1.9174 H   0  0  0  0  0  0  0  0  0  0  0  0
  1  2  2  0
  2  3  1  0
  2  4  1  0
  3 32  1  0
  4  5  1  0
  4 33  1  0
  4 34  1  0
  5  6  1  0
  5 35  1  0
  5 36  1  0
  6  7  1  0
  6 37  1  0
  6 38  1  0
  7  8  1  0
  7 39  1  0
  7 40  1  0
  8  9  1  0
  8 41  1  0
  8 42  1  0
  9 10  1  0
  9 43  1  0
  9 44  1  0
 10 11  1  0
 10 15  1  0
 11 12  2  0
 11 13  1  0
 13 14  1  0
 13 45  1  0
 13 46  1  0
 14 15  1  0
 14 47  1  0
 14 48  1  0
 15 16  1  0
 15 49  1  1
 16 17  2  0
 16 50  1  0
 17 18  1  0
 17 51  1  0
 18 19  2  0
 18 20  1  0
 20 21  1  0
 20 52  1  0
 20 53  1  0
 21 22  2  0
 21 31  1  0
 22 23  1  0
 22 54  1  0
 23 24  2  0
 23 55  1  0
 24 25  1  0
 24 56  1  0
 25 26  1  0
 25 31  2  0
 26 27  1  0
 27 28  1  6
 27 29  1  0
 27 30  1  0
 31 57  1  0
M  END

