
     RDKit          3D

 29 30  0  0  0  0  0  0  0  0999 V2000
    2.8052    1.7880    1.4666 C   0  0  0  0  0  0  0  0  0  0  0  0
    2.7941    0.3259    0.2828 Si  0  0  1  0  0  4  0  0  0  0  0  0
    3.6327   -1.1699    1.0629 C   0  0  0  0  0  0  0  0  0  0  0  0
    1.0506   -0.0685   -0.2842 C   0  0  0  0  0  0  0  0  0  0  0  0
    3.6185    0.7435   -1.1518 O   0  0  0  0  0  0  0  0  0  0  0  0
    4.9942    0.7098   -1.3665 C   0  0  2  0  0  0  0  0  0  0  0  0
    5.6917    1.6825   -0.6175 O   0  0  0  0  0  0  0  0  0  0  0  0
    5.5178    3.0454   -0.9850 C   0  0  0  0  0  0  0  0  0  0  0  0
    5.6815    3.3068   -2.4584 C   0  0  0  0  0  0  0  0  0  0  0  0
    5.5651    2.2659   -3.2959 C   0  0  0  0  0  0  0  0  0  0  0  0
    5.7045    2.2674   -4.6515 O   0  0  0  0  0  0  0  0  0  0  0  0
    5.4996    0.9564   -5.1132 C   0  0  0  0  0  0  0  0  0  0  0  0
    5.5734    0.6809   -6.2742 O   0  0  0  0  0  0  0  0  0  0  0  0
    5.2054    0.1230   -3.9239 C   0  0  0  0  0  0  0  0  0  0  0  0
    5.2508    0.9228   -2.8390 C   0  0  0  0  0  0  0  0  0  0  0  0
    2.2346    1.5601    2.3827 H   0  0  0  0  0  0  0  0  0  0  0  0
    2.3483    2.6768    1.0011 H   0  0  0  0  0  0  0  0  0  0  0  0
    3.8344    2.0467    1.7621 H   0  0  0  0  0  0  0  0  0  0  0  0
    3.0642   -1.5070    1.9459 H   0  0  0  0  0  0  0  0  0  0  0  0
    4.6561   -0.9382    1.4008 H   0  0  0  0  0  0  0  0  0  0  0  0
    3.6865   -2.0180    0.3604 H   0  0  0  0  0  0  0  0  0  0  0  0
    0.3991   -0.3093    0.5722 H   0  0  0  0  0  0  0  0  0  0  0  0
    1.0403   -0.9284   -0.9732 H   0  0  0  0  0  0  0  0  0  0  0  0
    0.6088    0.7913   -0.8136 H   0  0  0  0  0  0  0  0  0  0  0  0
    5.4281   -0.2493   -1.0330 H   0  0  0  0  0  0  0  0  0  0  0  0
    6.2754    3.6041   -0.4125 H   0  0  0  0  0  0  0  0  0  0  0  0
    4.5270    3.4119   -0.6475 H   0  0  0  0  0  0  0  0  0  0  0  0
    5.8707    4.3223   -2.8130 H   0  0  0  0  0  0  0  0  0  0  0  0
    4.9862   -0.9406   -3.9957 H   0  0  0  0  0  0  0  0  0  0  0  0
  1  2  1  0
  1 16  1  0
  1 17  1  0
  1 18  1  0
  2  3  1  0
  2  4  1  0
  2  5  1  6
  3 19  1  0
  3 20  1  0
  3 21  1  0
  4 22  1  0
  4 23  1  0
  4 24  1  0
  5  6  1  0
  6  7  1  0
  6 15  1  0
  6 25  1  1
  7  8  1  0
  8  9  1  0
  8 26  1  0
  8 27  1  0
  9 10  2  0
  9 28  1  0
 10 11  1  0
 10 15  1  0
 11 12  1  0
 12 13  2  0
 12 14  1  0
 14 15  2  0
 14 29  1  0
M  END

