
     RDKit          3D

 32 34  0  0  0  0  0  0  0  0999 V2000
    2.1009    1.3201    1.0666 O   0  0  0  0  0  0  0  0  0  0  0  0
    2.5128    0.2207    0.2788 C   0  0  0  0  0  0  0  0  0  0  0  0
    2.7542    0.7066   -1.1209 C   0  0  0  0  0  0  0  0  0  0  0  0
    2.2541    1.9183   -1.6722 C   0  0  0  0  0  0  0  0  0  0  0  0
    2.6670    2.1066   -2.9119 N   0  0  0  0  0  0  0  0  0  0  0  0
    3.4256    1.0229   -3.1968 N   0  0  0  0  0  0  0  0  0  0  0  0
    3.9756    0.9083   -4.4943 C   0  0  0  0  0  0  0  0  0  0  0  0
    3.7075   -0.2020   -5.1728 N   0  0  0  0  0  0  0  0  0  0  0  0
    4.1617   -0.3489   -6.4141 C   0  0  0  0  0  0  0  0  0  0  0  0
    4.9024    0.6428   -7.0647 C   0  0  0  0  0  0  0  0  0  0  0  0
    5.3331    0.4781   -8.5008 C   0  0  1  0  0  0  0  0  0  0  0  0
    5.4726   -0.8166   -8.8285 F   0  0  0  0  0  0  0  0  0  0  0  0
    4.4344    1.0086   -9.3485 F   0  0  0  0  0  0  0  0  0  0  0  0
    6.5064    1.0901   -8.7358 F   0  0  0  0  0  0  0  0  0  0  0  0
    5.2142    1.8067   -6.3583 C   0  0  0  0  0  0  0  0  0  0  0  0
    4.7638    1.9464   -5.0466 C   0  0  0  0  0  0  0  0  0  0  0  0
    5.2434    3.3398   -4.1348 Cl  0  0  0  0  0  0  0  0  0  0  0  0
    3.5059    0.1329   -2.1373 C   0  0  0  0  0  0  0  0  0  0  0  0
    4.3468   -1.0902   -2.1694 C   0  0  1  0  0  0  0  0  0  0  0  0
    3.9791   -2.3140   -1.3563 C   0  0  0  0  0  0  0  0  0  0  0  0
    3.8886   -2.3616   -2.8526 C   0  0  0  0  0  0  0  0  0  0  0  0
    1.8584    0.9923    1.9408 H   0  0  0  0  0  0  0  0  0  0  0  0
    1.7351   -0.5732    0.2744 H   0  0  0  0  0  0  0  0  0  0  0  0
    3.4355   -0.2467    0.6762 H   0  0  0  0  0  0  0  0  0  0  0  0
    1.6192    2.6530   -1.1801 H   0  0  0  0  0  0  0  0  0  0  0  0
    3.9254   -1.2897   -6.9205 H   0  0  0  0  0  0  0  0  0  0  0  0
    5.8238    2.5924   -6.8067 H   0  0  0  0  0  0  0  0  0  0  0  0
    5.4223   -0.8860   -2.2479 H   0  0  0  0  0  0  0  0  0  0  0  0
    3.0421   -2.2986   -0.7946 H   0  0  0  0  0  0  0  0  0  0  0  0
    4.7899   -2.8511   -0.8569 H   0  0  0  0  0  0  0  0  0  0  0  0
    2.8992   -2.3471   -3.3138 H   0  0  0  0  0  0  0  0  0  0  0  0
    4.6381   -2.9298   -3.4099 H   0  0  0  0  0  0  0  0  0  0  0  0
  1  2  1  0
  1 22  1  0
  2  3  1  0
  2 23  1  0
  2 24  1  0
  3  4  1  0
  3 18  2  0
  4  5  2  0
  4 25  1  0
  5  6  1  0
  6  7  1  0
  6 18  1  0
  7  8  2  0
  7 16  1  0
  8  9  1  0
  9 10  2  0
  9 26  1  0
 10 11  1  0
 10 15  1  0
 11 12  1  6
 11 13  1  0
 11 14  1  0
 15 16  2  0
 15 27  1  0
 16 17  1  0
 18 19  1  0
 19 20  1  0
 19 21  1  0
 19 28  1  6
 20 21  1  0
 20 29  1  0
 20 30  1  0
 21 31  1  0
 21 32  1  0
M  END

