
     RDKit          3D

 28 29  0  0  0  0  0  0  0  0999 V2000
    1.5621    0.2454    1.5381 C   0  0  0  0  0  0  0  0  0  0  0  0
    2.8955    0.1963    0.8534 C   0  0  0  0  0  0  0  0  0  0  0  0
    3.5103    1.3054    0.5127 N   0  0  0  0  0  0  0  0  0  0  0  0
    4.9712    0.8889   -0.2268 S   0  0  0  0  0  0  0  0  0  0  0  0
    4.6271   -0.8342   -0.0143 C   0  0  0  0  0  0  0  0  0  0  0  0
    5.4616   -1.8131   -0.4150 N   0  0  0  0  0  0  0  0  0  0  0  0
    6.7754   -1.5534   -0.9988 C   0  0  0  0  0  0  0  0  0  0  0  0
    7.3111   -2.9554   -1.3060 C   0  0  0  0  0  0  0  0  0  0  0  0
    6.6324   -3.8432   -0.2465 C   0  0  2  0  0  0  0  0  0  0  0  0
    6.7170   -5.3428   -0.5159 C   0  0  0  0  0  0  0  0  0  0  0  0
    5.2051   -3.2409   -0.1416 C   0  0  2  0  0  0  0  0  0  0  0  0
    4.1563   -3.8238   -1.0930 C   0  0  0  0  0  0  0  0  0  0  0  0
    3.4705   -1.0188    0.5834 N   0  0  0  0  0  0  0  0  0  0  0  0
    1.2448    1.2862    1.6792 H   0  0  0  0  0  0  0  0  0  0  0  0
    1.6180   -0.2571    2.5171 H   0  0  0  0  0  0  0  0  0  0  0  0
    0.8068   -0.2911    0.9417 H   0  0  0  0  0  0  0  0  0  0  0  0
    7.4222   -1.0174   -0.2769 H   0  0  0  0  0  0  0  0  0  0  0  0
    6.6924   -0.9167   -1.8975 H   0  0  0  0  0  0  0  0  0  0  0  0
    8.4095   -3.0025   -1.2633 H   0  0  0  0  0  0  0  0  0  0  0  0
    7.0063   -3.2709   -2.3180 H   0  0  0  0  0  0  0  0  0  0  0  0
    7.1285   -3.6393    0.7197 H   0  0  0  0  0  0  0  0  0  0  0  0
    6.2831   -5.6106   -1.4921 H   0  0  0  0  0  0  0  0  0  0  0  0
    6.1891   -5.9230    0.2580 H   0  0  0  0  0  0  0  0  0  0  0  0
    7.7675   -5.6752   -0.5181 H   0  0  0  0  0  0  0  0  0  0  0  0
    4.8189   -3.3298    0.8869 H   0  0  0  0  0  0  0  0  0  0  0  0
    4.4851   -3.7847   -2.1438 H   0  0  0  0  0  0  0  0  0  0  0  0
    3.2238   -3.2494   -0.9980 H   0  0  0  0  0  0  0  0  0  0  0  0
    3.9359   -4.8718   -0.8373 H   0  0  0  0  0  0  0  0  0  0  0  0
  1  2  1  0
  1 14  1  0
  1 15  1  0
  1 16  1  0
  2  3  2  0
  2 13  1  0
  3  4  1  0
  4  5  1  0
  5  6  1  0
  5 13  2  0
  6  7  1  0
  6 11  1  0
  7  8  1  0
  7 17  1  0
  7 18  1  0
  8  9  1  0
  8 19  1  0
  8 20  1  0
  9 10  1  0
  9 11  1  0
  9 21  1  1
 10 22  1  0
 10 23  1  0
 10 24  1  0
 11 12  1  0
 11 25  1  1
 12 26  1  0
 12 27  1  0
 12 28  1  0
M  END

