
     RDKit          3D

 55 57  0  0  0  0  0  0  0  0999 V2000
    1.1715   -0.0071   -0.4436 C   0  0  0  0  0  0  0  0  0  0  0  0
    2.5914    0.0115   -0.1539 N   0  0  0  0  0  0  0  0  0  0  0  0
    2.9869   -0.8574    0.9424 C   0  0  0  0  0  0  0  0  0  0  0  0
    4.5080   -0.8638    1.1655 C   0  0  1  0  0  0  0  0  0  0  0  0
    5.0854    0.5385    1.5138 C   0  0  0  0  0  0  0  0  0  0  0  0
    4.6073    1.1666    2.8094 C   0  0  0  0  0  0  0  0  0  0  0  0
    5.3352    0.9927    3.9994 C   0  0  0  0  0  0  0  0  0  0  0  0
    4.8799    1.5716    5.1877 C   0  0  0  0  0  0  0  0  0  0  0  0
    3.7087    2.3267    5.2181 C   0  0  0  0  0  0  0  0  0  0  0  0
    2.9647    2.5216    4.0378 C   0  0  0  0  0  0  0  0  0  0  0  0
    1.8274    3.3198    4.0349 N   0  0  0  0  0  0  0  0  0  0  0  0
    3.4333    1.9324    2.8472 C   0  0  0  0  0  0  0  0  0  0  0  0
    4.9330   -1.9300    2.1964 C   0  0  1  0  0  0  0  0  0  0  0  0
    4.4524   -3.3455    1.8724 C   0  0  0  0  0  0  0  0  0  0  0  0
    6.3666   -1.9038    2.2103 O   0  0  0  0  0  0  0  0  0  0  0  0
    7.0841   -2.4139    3.2494 C   0  0  0  0  0  0  0  0  0  0  0  0
    6.5464   -2.8355    4.4762 C   0  0  0  0  0  0  0  0  0  0  0  0
    7.4065   -3.3094    5.4692 C   0  0  0  0  0  0  0  0  0  0  0  0
    8.7940   -3.3846    5.2906 C   0  0  0  0  0  0  0  0  0  0  0  0
    9.3299   -2.9645    4.0534 C   0  0  0  0  0  0  0  0  0  0  0  0
    8.4706   -2.4896    3.0563 C   0  0  0  0  0  0  0  0  0  0  0  0
   10.8192   -3.0608    3.7681 C   0  0  0  0  0  0  0  0  0  0  0  0
   11.6755   -3.2112    5.0291 C   0  0  0  0  0  0  0  0  0  0  0  0
   11.0865   -4.2793    5.9539 C   0  0  0  0  0  0  0  0  0  0  0  0
    9.6863   -3.8692    6.4203 C   0  0  0  0  0  0  0  0  0  0  0  0
    0.9425    0.7017   -1.2551 H   0  0  0  0  0  0  0  0  0  0  0  0
    0.5175    0.2435    0.4232 H   0  0  0  0  0  0  0  0  0  0  0  0
    0.8699   -1.0103   -0.7912 H   0  0  0  0  0  0  0  0  0  0  0  0
    2.9014    0.9661    0.0110 H   0  0  0  0  0  0  0  0  0  0  0  0
    2.6582   -1.8743    0.6735 H   0  0  0  0  0  0  0  0  0  0  0  0
    2.4695   -0.6119    1.8992 H   0  0  0  0  0  0  0  0  0  0  0  0
    4.9684   -1.1540    0.2047 H   0  0  0  0  0  0  0  0  0  0  0  0
    4.8675    1.2171    0.6729 H   0  0  0  0  0  0  0  0  0  0  0  0
    6.1792    0.4396    1.5455 H   0  0  0  0  0  0  0  0  0  0  0  0
    6.2613    0.4145    3.9919 H   0  0  0  0  0  0  0  0  0  0  0  0
    5.4518    1.4343    6.1096 H   0  0  0  0  0  0  0  0  0  0  0  0
    3.3678    2.7798    6.1536 H   0  0  0  0  0  0  0  0  0  0  0  0
    1.3709    3.4547    4.9295 H   0  0  0  0  0  0  0  0  0  0  0  0
    1.1719    3.1676    3.2772 H   0  0  0  0  0  0  0  0  0  0  0  0
    2.8632    2.0927    1.9268 H   0  0  0  0  0  0  0  0  0  0  0  0
    4.5555   -1.6270    3.1889 H   0  0  0  0  0  0  0  0  0  0  0  0
    4.7123   -3.6155    0.8364 H   0  0  0  0  0  0  0  0  0  0  0  0
    3.3641   -3.4434    1.9985 H   0  0  0  0  0  0  0  0  0  0  0  0
    4.9284   -4.0748    2.5440 H   0  0  0  0  0  0  0  0  0  0  0  0
    5.4747   -2.7957    4.6700 H   0  0  0  0  0  0  0  0  0  0  0  0
    6.9768   -3.6335    6.4224 H   0  0  0  0  0  0  0  0  0  0  0  0
    8.8691   -2.1615    2.0927 H   0  0  0  0  0  0  0  0  0  0  0  0
   11.1406   -2.1836    3.1821 H   0  0  0  0  0  0  0  0  0  0  0  0
   10.9909   -3.9352    3.1118 H   0  0  0  0  0  0  0  0  0  0  0  0
   11.7189   -2.2476    5.5689 H   0  0  0  0  0  0  0  0  0  0  0  0
   12.7126   -3.4606    4.7504 H   0  0  0  0  0  0  0  0  0  0  0  0
   11.7399   -4.4475    6.8258 H   0  0  0  0  0  0  0  0  0  0  0  0
   11.0333   -5.2407    5.4108 H   0  0  0  0  0  0  0  0  0  0  0  0
    9.7846   -3.0597    7.1692 H   0  0  0  0  0  0  0  0  0  0  0  0
    9.1957   -4.7036    6.9496 H   0  0  0  0  0  0  0  0  0  0  0  0
  1  2  1  0
  1 26  1  0
  1 27  1  0
  1 28  1  0
  2  3  1  0
  2 29  1  0
  3  4  1  0
  3 30  1  0
  3 31  1  0
  4  5  1  0
  4 13  1  0
  4 32  1  6
  5  6  1  0
  5 33  1  0
  5 34  1  0
  6  7  2  0
  6 12  1  0
  7  8  1  0
  7 35  1  0
  8  9  2  0
  8 36  1  0
  9 10  1  0
  9 37  1  0
 10 11  1  0
 10 12  2  0
 11 38  1  0
 11 39  1  0
 12 40  1  0
 13 14  1  0
 13 15  1  0
 13 41  1  1
 14 42  1  0
 14 43  1  0
 14 44  1  0
 15 16  1  0
 16 17  2  0
 16 21  1  0
 17 18  1  0
 17 45  1  0
 18 19  2  0
 18 46  1  0
 19 20  1  0
 19 25  1  0
 20 21  2  0
 20 22  1  0
 21 47  1  0
 22 23  1  0
 22 48  1  0
 22 49  1  0
 23 24  1  0
 23 50  1  0
 23 51  1  0
 24 25  1  0
 24 52  1  0
 24 53  1  0
 25 54  1  0
 25 55  1  0
M  END

