
     RDKit          3D

 81 86  0  0  0  0  0  0  0  0999 V2000
   -1.0510   12.1824    9.0965 C   0  0  0  0  0  0  0  0  0  0  0  0
   -0.2752   11.0715    8.7069 O   0  0  0  0  0  0  0  0  0  0  0  0
    0.6378   11.2326    7.7247 C   0  0  0  0  0  0  0  0  0  0  0  0
    0.8892   12.4083    7.0513 C   0  0  0  0  0  0  0  0  0  0  0  0
    1.8768   12.4814    6.0250 C   0  0  0  0  0  0  0  0  0  0  0  0
    2.0639   13.6788    5.4103 N   0  0  0  0  0  0  0  0  0  0  0  0
    2.9764   13.7438    4.4639 C   0  0  0  0  0  0  0  0  0  0  0  0
    3.7688   12.6475    4.0500 C   0  0  0  0  0  0  0  0  0  0  0  0
    3.6057   11.4115    4.6529 C   0  0  0  0  0  0  0  0  0  0  0  0
    4.4245   10.1915    4.2554 C   0  0  0  0  0  0  0  0  0  0  0  0
    5.4302   10.3869    3.1433 C   0  0  0  0  0  0  0  0  0  0  0  0
    6.7536   10.7632    3.4149 C   0  0  0  0  0  0  0  0  0  0  0  0
    7.6947   10.9552    2.4014 C   0  0  0  0  0  0  0  0  0  0  0  0
    7.3181   10.7708    1.0590 C   0  0  0  0  0  0  0  0  0  0  0  0
    8.1948   10.9395   -0.0269 N   0  0  0  0  0  0  0  0  0  0  0  0
    9.5075   11.3208   -0.0218 C   0  0  0  0  0  0  0  0  0  0  0  0
   10.1686   11.5652    0.9757 O   0  0  0  0  0  0  0  0  0  0  0  0
   10.1219   11.3826   -1.4210 C   0  0  1  0  0  0  0  0  0  0  0  0
    9.2079   11.9360   -2.4954 C   0  0  0  0  0  0  0  0  0  0  0  0
    8.2225   11.2901   -2.8490 O   0  0  0  0  0  0  0  0  0  0  0  0
    9.4767   13.1423   -3.0781 N   0  0  0  0  0  0  0  0  0  0  0  0
   10.3200   14.2185   -2.7322 C   0  0  0  0  0  0  0  0  0  0  0  0
   10.7134   14.5018   -1.4138 C   0  0  0  0  0  0  0  0  0  0  0  0
   11.5238   15.6063   -1.1429 C   0  0  0  0  0  0  0  0  0  0  0  0
   11.9297   16.4571   -2.1726 C   0  0  0  0  0  0  0  0  0  0  0  0
   11.5141   16.1919   -3.4801 C   0  0  0  0  0  0  0  0  0  0  0  0
   10.7184   15.0817   -3.7852 C   0  0  0  0  0  0  0  0  0  0  0  0
   10.3194   14.7913   -5.2201 C   0  0  0  0  0  0  0  0  0  0  0  0
    8.8683   14.6436   -5.4010 N   0  0  0  0  0  0  0  0  0  0  0  0
    8.0851   15.8628   -5.1530 C   0  0  0  0  0  0  0  0  0  0  0  0
    8.1332   16.8749   -6.3095 C   0  0  0  0  0  0  0  0  0  0  0  0
    7.7248   16.2137   -7.6332 C   0  0  0  0  0  0  0  0  0  0  0  0
    8.5454   14.9404   -7.8825 C   0  0  0  0  0  0  0  0  0  0  0  0
    8.4751   14.0061   -6.6639 C   0  0  0  0  0  0  0  0  0  0  0  0
   11.6195   11.4762   -1.5041 C   0  0  0  0  0  0  0  0  0  0  0  0
   10.9607   10.1613   -1.7901 C   0  0  0  0  0  0  0  0  0  0  0  0
    5.9933   10.3929    0.7721 C   0  0  0  0  0  0  0  0  0  0  0  0
    5.0708   10.2048    1.7987 C   0  0  0  0  0  0  0  0  0  0  0  0
    2.6225   11.3074    5.6870 C   0  0  0  0  0  0  0  0  0  0  0  0
    2.3479   10.0991    6.3961 C   0  0  0  0  0  0  0  0  0  0  0  0
    1.3881   10.0472    7.3875 C   0  0  0  0  0  0  0  0  0  0  0  0
    1.0664    8.9486    8.1059 O   0  0  0  0  0  0  0  0  0  0  0  0
    1.7459    7.7420    7.8504 C   0  0  0  0  0  0  0  0  0  0  0  0
   -1.7181   11.8328    9.8958 H   0  0  0  0  0  0  0  0  0  0  0  0
   -1.6606   12.5690    8.2600 H   0  0  0  0  0  0  0  0  0  0  0  0
   -0.4226   13.0044    9.4838 H   0  0  0  0  0  0  0  0  0  0  0  0
    0.3498   13.3283    7.2704 H   0  0  0  0  0  0  0  0  0  0  0  0
    3.1155   14.7184    3.9782 H   0  0  0  0  0  0  0  0  0  0  0  0
    4.5049   12.7857    3.2567 H   0  0  0  0  0  0  0  0  0  0  0  0
    3.7246    9.3859    3.9714 H   0  0  0  0  0  0  0  0  0  0  0  0
    4.9480    9.8206    5.1541 H   0  0  0  0  0  0  0  0  0  0  0  0
    7.0661   10.9103    4.4531 H   0  0  0  0  0  0  0  0  0  0  0  0
    8.7178   11.2419    2.6333 H   0  0  0  0  0  0  0  0  0  0  0  0
    7.8117   10.7585   -0.9573 H   0  0  0  0  0  0  0  0  0  0  0  0
    8.8754   13.3665   -3.8876 H   0  0  0  0  0  0  0  0  0  0  0  0
   10.3892   13.8654   -0.5913 H   0  0  0  0  0  0  0  0  0  0  0  0
   11.8242   15.8057   -0.1114 H   0  0  0  0  0  0  0  0  0  0  0  0
   12.5560   17.3265   -1.9600 H   0  0  0  0  0  0  0  0  0  0  0  0
   11.8192   16.8584   -4.2922 H   0  0  0  0  0  0  0  0  0  0  0  0
   10.7717   13.8315   -5.5276 H   0  0  0  0  0  0  0  0  0  0  0  0
   10.7676   15.5665   -5.8728 H   0  0  0  0  0  0  0  0  0  0  0  0
    8.4316   16.3217   -4.2145 H   0  0  0  0  0  0  0  0  0  0  0  0
    7.0369   15.5546   -4.9870 H   0  0  0  0  0  0  0  0  0  0  0  0
    9.1524   17.2913   -6.4009 H   0  0  0  0  0  0  0  0  0  0  0  0
    7.4727   17.7272   -6.0773 H   0  0  0  0  0  0  0  0  0  0  0  0
    7.8344   16.9198   -8.4730 H   0  0  0  0  0  0  0  0  0  0  0  0
    6.6520   15.9479   -7.5884 H   0  0  0  0  0  0  0  0  0  0  0  0
    9.5971   15.2082   -8.0898 H   0  0  0  0  0  0  0  0  0  0  0  0
    8.1798   14.4073   -8.7764 H   0  0  0  0  0  0  0  0  0  0  0  0
    9.0999   13.1111   -6.8159 H   0  0  0  0  0  0  0  0  0  0  0  0
    7.4358   13.6493   -6.5455 H   0  0  0  0  0  0  0  0  0  0  0  0
   12.1389   11.6006   -0.5514 H   0  0  0  0  0  0  0  0  0  0  0  0
   12.0479   12.0277   -2.3435 H   0  0  0  0  0  0  0  0  0  0  0  0
   11.0300    9.3659   -1.0427 H   0  0  0  0  0  0  0  0  0  0  0  0
   10.8995    9.8094   -2.8238 H   0  0  0  0  0  0  0  0  0  0  0  0
    5.6889   10.2445   -0.2679 H   0  0  0  0  0  0  0  0  0  0  0  0
    4.0480    9.9096    1.5470 H   0  0  0  0  0  0  0  0  0  0  0  0
    2.9085    9.1999    6.1495 H   0  0  0  0  0  0  0  0  0  0  0  0
    1.3293    6.9956    8.5399 H   0  0  0  0  0  0  0  0  0  0  0  0
    2.8317    7.8353    8.0350 H   0  0  0  0  0  0  0  0  0  0  0  0
    1.5928    7.3966    6.8116 H   0  0  0  0  0  0  0  0  0  0  0  0
  1  2  1  0
  1 44  1  0
  1 45  1  0
  1 46  1  0
  2  3  1  0
  3  4  2  0
  3 41  1  0
  4  5  1  0
  4 47  1  0
  5  6  2  0
  5 39  1  0
  6  7  1  0
  7  8  2  0
  7 48  1  0
  8  9  1  0
  8 49  1  0
  9 10  1  0
  9 39  2  0
 10 11  1  0
 10 50  1  0
 10 51  1  0
 11 12  2  0
 11 38  1  0
 12 13  1  0
 12 52  1  0
 13 14  2  0
 13 53  1  0
 14 15  1  0
 14 37  1  0
 15 16  1  0
 15 54  1  0
 16 17  2  0
 18 16  1  1
 18 19  1  0
 18 35  1  0
 18 36  1  0
 19 20  2  0
 19 21  1  0
 21 22  1  0
 21 55  1  0
 22 23  2  0
 22 27  1  0
 23 24  1  0
 23 56  1  0
 24 25  2  0
 24 57  1  0
 25 26  1  0
 25 58  1  0
 26 27  2  0
 26 59  1  0
 27 28  1  0
 28 29  1  0
 28 60  1  0
 28 61  1  0
 29 30  1  0
 29 34  1  0
 30 31  1  0
 30 62  1  0
 30 63  1  0
 31 32  1  0
 31 64  1  0
 31 65  1  0
 32 33  1  0
 32 66  1  0
 32 67  1  0
 33 34  1  0
 33 68  1  0
 33 69  1  0
 34 70  1  0
 34 71  1  0
 35 36  1  0
 35 72  1  0
 35 73  1  0
 36 74  1  0
 36 75  1  0
 37 38  2  0
 37 76  1  0
 38 77  1  0
 39 40  1  0
 40 41  2  0
 40 78  1  0
 41 42  1  0
 42 43  1  0
 43 79  1  0
 43 80  1  0
 43 81  1  0
M  END

