
     RDKit          3D

 38 39  0  0  0  0  0  0  0  0999 V2000
    3.6379    0.8406   -1.2158 C   0  0  0  0  0  0  0  0  0  0  0  0
    3.1210    1.7665   -0.1126 C   0  0  0  0  0  0  0  0  0  0  0  0
    3.0300    1.1254    1.2913 C   0  0  1  0  0  0  0  0  0  0  0  0
    4.3838    0.5354    1.7044 C   0  0  0  0  0  0  0  0  0  0  0  0
    4.6032   -0.6641    1.5798 O   0  0  0  0  0  0  0  0  0  0  0  0
    5.3582    1.3709    2.1819 N   0  0  0  0  0  0  0  0  0  0  0  0
    5.3056    2.8207    2.3997 C   0  0  0  0  0  0  0  0  0  0  0  0
    6.7752    3.1944    2.6250 C   0  0  0  0  0  0  0  0  0  0  0  0
    7.3947    1.9421    3.2919 C   0  0  2  0  0  0  0  0  0  0  0  0
    7.0401    1.8911    4.7899 C   0  0  0  0  0  0  0  0  0  0  0  0
    8.9154    1.8754    3.1145 C   0  0  0  0  0  0  0  0  0  0  0  0
    6.6693    0.8107    2.5303 C   0  0  0  0  0  0  0  0  0  0  0  0
    2.2686    2.0286    2.3200 C   0  0  0  0  0  0  0  0  0  0  0  0
    0.9952    1.1753    2.1042 C   0  0  0  0  0  0  0  0  0  0  0  0
    1.8580    0.1018    1.3972 C   0  0  0  0  0  0  0  0  0  0  0  0
    3.6149    1.3504   -2.1923 H   0  0  0  0  0  0  0  0  0  0  0  0
    3.0265   -0.0714   -1.2993 H   0  0  0  0  0  0  0  0  0  0  0  0
    4.6733    0.5172   -1.0283 H   0  0  0  0  0  0  0  0  0  0  0  0
    2.1123    2.1290   -0.3797 H   0  0  0  0  0  0  0  0  0  0  0  0
    3.7545    2.6695   -0.0651 H   0  0  0  0  0  0  0  0  0  0  0  0
    4.6927    3.0747    3.2821 H   0  0  0  0  0  0  0  0  0  0  0  0
    4.8690    3.3511    1.5412 H   0  0  0  0  0  0  0  0  0  0  0  0
    6.8906    4.1068    3.2308 H   0  0  0  0  0  0  0  0  0  0  0  0
    7.2681    3.3746    1.6549 H   0  0  0  0  0  0  0  0  0  0  0  0
    7.4672    2.7545    5.3261 H   0  0  0  0  0  0  0  0  0  0  0  0
    7.4400    0.9751    5.2538 H   0  0  0  0  0  0  0  0  0  0  0  0
    5.9515    1.8944    4.9570 H   0  0  0  0  0  0  0  0  0  0  0  0
    9.4105    2.7123    3.6338 H   0  0  0  0  0  0  0  0  0  0  0  0
    9.1990    1.9228    2.0505 H   0  0  0  0  0  0  0  0  0  0  0  0
    9.3237    0.9394    3.5300 H   0  0  0  0  0  0  0  0  0  0  0  0
    6.5471   -0.1080    3.1237 H   0  0  0  0  0  0  0  0  0  0  0  0
    7.2179    0.5236    1.6143 H   0  0  0  0  0  0  0  0  0  0  0  0
    2.2049    3.1018    2.0789 H   0  0  0  0  0  0  0  0  0  0  0  0
    2.6661    1.9260    3.3412 H   0  0  0  0  0  0  0  0  0  0  0  0
    0.2704    1.6582    1.4312 H   0  0  0  0  0  0  0  0  0  0  0  0
    0.4580    0.8591    3.0112 H   0  0  0  0  0  0  0  0  0  0  0  0
    1.4763   -0.3023    0.4473 H   0  0  0  0  0  0  0  0  0  0  0  0
    2.1235   -0.7452    2.0437 H   0  0  0  0  0  0  0  0  0  0  0  0
  1  2  1  0
  1 16  1  0
  1 17  1  0
  1 18  1  0
  2  3  1  0
  2 19  1  0
  2 20  1  0
  3  4  1  1
  3 13  1  0
  3 15  1  0
  4  5  2  0
  4  6  1  0
  6  7  1  0
  6 12  1  0
  7  8  1  0
  7 21  1  0
  7 22  1  0
  8  9  1  0
  8 23  1  0
  8 24  1  0
  9 10  1  1
  9 11  1  0
  9 12  1  0
 10 25  1  0
 10 26  1  0
 10 27  1  0
 11 28  1  0
 11 29  1  0
 11 30  1  0
 12 31  1  0
 12 32  1  0
 13 14  1  0
 13 33  1  0
 13 34  1  0
 14 15  1  0
 14 35  1  0
 14 36  1  0
 15 37  1  0
 15 38  1  0
M  END

