
     RDKit          3D

 32 31  0  0  0  0  0  0  0  0999 V2000
    1.2138   -0.1148    0.2666 C   0  0  0  0  0  0  0  0  0  0  0  0
    2.7189    0.1251    0.1512 C   0  0  0  0  0  0  0  0  0  0  0  0
    3.1398    0.6974   -1.2022 C   0  0  0  0  0  0  0  0  0  0  0  0
    4.5727    0.9434   -1.2504 N   0  0  0  0  0  0  0  0  0  0  0  0
    5.1033    1.3694   -2.5430 C   0  0  1  0  0  0  0  0  0  0  0  0
    4.6315    2.7958   -2.9251 C   0  0  0  0  0  0  0  0  0  0  0  0
    4.7418    3.8923   -1.8620 C   0  0  0  0  0  0  0  0  0  0  0  0
    6.6409    1.1717   -2.5820 C   0  0  1  0  0  0  0  0  0  0  0  0
    7.4257    1.8235   -1.4436 C   0  0  0  0  0  0  0  0  0  0  0  0
    6.9106   -0.6698   -2.6537 S   0  0  0  0  0  0  0  0  0  0  0  0
    8.7060   -0.7855   -2.9236 C   0  0  0  0  0  0  0  0  0  0  0  0
    0.9480   -0.5316    1.2509 H   0  0  0  0  0  0  0  0  0  0  0  0
    0.8572   -0.8224   -0.5005 H   0  0  0  0  0  0  0  0  0  0  0  0
    0.6464    0.8226    0.1397 H   0  0  0  0  0  0  0  0  0  0  0  0
    3.2581   -0.8253    0.3222 H   0  0  0  0  0  0  0  0  0  0  0  0
    3.0593    0.8149    0.9424 H   0  0  0  0  0  0  0  0  0  0  0  0
    2.6029    1.6481   -1.3688 H   0  0  0  0  0  0  0  0  0  0  0  0
    2.7996    0.0116   -2.0140 H   0  0  0  0  0  0  0  0  0  0  0  0
    5.0649    0.1000   -0.9537 H   0  0  0  0  0  0  0  0  0  0  0  0
    4.7157    0.7182   -3.3601 H   0  0  0  0  0  0  0  0  0  0  0  0
    3.5728    2.7138   -3.2259 H   0  0  0  0  0  0  0  0  0  0  0  0
    5.1653    3.0947   -3.8441 H   0  0  0  0  0  0  0  0  0  0  0  0
    4.3169    3.5558   -0.9047 H   0  0  0  0  0  0  0  0  0  0  0  0
    4.1962    4.7939   -2.1841 H   0  0  0  0  0  0  0  0  0  0  0  0
    5.7813    4.1950   -1.6687 H   0  0  0  0  0  0  0  0  0  0  0  0
    6.9947    1.5636   -3.5503 H   0  0  0  0  0  0  0  0  0  0  0  0
    7.0310    1.5188   -0.4643 H   0  0  0  0  0  0  0  0  0  0  0  0
    7.3668    2.9201   -1.5064 H   0  0  0  0  0  0  0  0  0  0  0  0
    8.4923    1.5576   -1.4893 H   0  0  0  0  0  0  0  0  0  0  0  0
    8.9183   -1.8459   -3.1229 H   0  0  0  0  0  0  0  0  0  0  0  0
    9.2887   -0.4731   -2.0443 H   0  0  0  0  0  0  0  0  0  0  0  0
    9.0155   -0.1965   -3.8013 H   0  0  0  0  0  0  0  0  0  0  0  0
  1  2  1  0
  1 12  1  0
  1 13  1  0
  1 14  1  0
  2  3  1  0
  2 15  1  0
  2 16  1  0
  3  4  1  0
  3 17  1  0
  3 18  1  0
  4  5  1  0
  4 19  1  0
  5  6  1  0
  5  8  1  0
  5 20  1  6
  6  7  1  0
  6 21  1  0
  6 22  1  0
  7 23  1  0
  7 24  1  0
  7 25  1  0
  8  9  1  0
  8 10  1  0
  8 26  1  6
  9 27  1  0
  9 28  1  0
  9 29  1  0
 10 11  1  0
 11 30  1  0
 11 31  1  0
 11 32  1  0
M  END

