
     RDKit          3D

 40 42  0  0  0  0  0  0  0  0999 V2000
    3.1145   -0.1883    1.8807 C   0  0  0  0  0  0  0  0  0  0  0  0
    3.4005   -0.1012    0.4136 C   0  0  0  0  0  0  0  0  0  0  0  0
    3.8286    1.0268   -0.1423 N   0  0  0  0  0  0  0  0  0  0  0  0
    3.9864    0.7337   -1.4452 N   0  0  0  0  0  0  0  0  0  0  0  0
    4.3093    1.4547   -2.0785 H   0  0  0  0  0  0  0  0  0  0  0  0
    3.6676   -0.5534   -1.7594 C   0  0  0  0  0  0  0  0  0  0  0  0
    3.7801   -1.0879   -3.1519 C   0  0  0  0  0  0  0  0  0  0  0  0
    3.2801   -1.1428   -0.5595 C   0  0  0  0  0  0  0  0  0  0  0  0
    2.7975   -2.5431   -0.3233 C   0  0  0  0  0  0  0  0  0  0  0  0
    1.3648   -2.5779   -0.0250 N   0  0  0  0  0  0  0  0  0  0  0  0
    0.7592   -3.9094    0.0367 C   0  0  1  0  0  0  0  0  0  0  0  0
    1.2433   -4.6820    1.2762 C   0  0  0  0  0  0  0  0  0  0  0  0
   -0.7593   -3.7916    0.0286 C   0  0  0  0  0  0  0  0  0  0  0  0
   -1.5369   -4.7132   -0.6911 C   0  0  0  0  0  0  0  0  0  0  0  0
   -2.9396   -4.6691   -0.6857 C   0  0  0  0  0  0  0  0  0  0  0  0
   -3.5552   -3.6697    0.0592 C   0  0  0  0  0  0  0  0  0  0  0  0
   -4.8863   -3.3369    0.2757 N   0  0  0  0  0  0  0  0  0  0  0  0
   -5.7005   -3.8064   -0.0969 H   0  0  0  0  0  0  0  0  0  0  0  0
   -5.0032   -2.2238    1.1108 C   0  0  0  0  0  0  0  0  0  0  0  0
   -6.0178   -1.6844    1.4925 O   0  0  0  0  0  0  0  0  0  0  0  0
   -3.6835   -1.8759    1.4044 N   0  0  0  0  0  0  0  0  0  0  0  0
   -3.4628   -1.0911    2.0026 H   0  0  0  0  0  0  0  0  0  0  0  0
   -2.7821   -2.7320    0.7842 C   0  0  0  0  0  0  0  0  0  0  0  0
   -1.3931   -2.7812    0.7790 C   0  0  0  0  0  0  0  0  0  0  0  0
    3.1564    0.8124    2.3330 H   0  0  0  0  0  0  0  0  0  0  0  0
    3.8516   -0.8279    2.3968 H   0  0  0  0  0  0  0  0  0  0  0  0
    2.1224   -0.6304    2.0591 H   0  0  0  0  0  0  0  0  0  0  0  0
    3.2100   -0.4757   -3.8711 H   0  0  0  0  0  0  0  0  0  0  0  0
    3.3893   -2.1132   -3.2057 H   0  0  0  0  0  0  0  0  0  0  0  0
    4.8277   -1.1144   -3.4983 H   0  0  0  0  0  0  0  0  0  0  0  0
    3.3445   -2.9766    0.5311 H   0  0  0  0  0  0  0  0  0  0  0  0
    3.0582   -3.1803   -1.1988 H   0  0  0  0  0  0  0  0  0  0  0  0
    0.8737   -2.0183   -0.7211 H   0  0  0  0  0  0  0  0  0  0  0  0
    1.0438   -4.5162   -0.8539 H   0  0  0  0  0  0  0  0  0  0  0  0
    0.9912   -4.1295    2.1949 H   0  0  0  0  0  0  0  0  0  0  0  0
    2.3327   -4.8418    1.2569 H   0  0  0  0  0  0  0  0  0  0  0  0
    0.7620   -5.6705    1.3217 H   0  0  0  0  0  0  0  0  0  0  0  0
   -1.0355   -5.4889   -1.2762 H   0  0  0  0  0  0  0  0  0  0  0  0
   -3.5249   -5.3944   -1.2551 H   0  0  0  0  0  0  0  0  0  0  0  0
   -0.7937   -2.0558    1.3314 H   0  0  0  0  0  0  0  0  0  0  0  0
  1  2  1  0
  1 25  1  0
  1 26  1  0
  1 27  1  0
  2  3  2  0
  2  8  1  0
  3  4  1  0
  4  5  1  0
  4  6  1  0
  6  7  1  0
  6  8  2  0
  7 28  1  0
  7 29  1  0
  7 30  1  0
  8  9  1  0
  9 10  1  0
  9 31  1  0
  9 32  1  0
 10 11  1  0
 10 33  1  0
 11 12  1  0
 11 13  1  0
 11 34  1  6
 12 35  1  0
 12 36  1  0
 12 37  1  0
 13 14  2  0
 13 24  1  0
 14 15  1  0
 14 38  1  0
 15 16  2  0
 15 39  1  0
 16 17  1  0
 16 23  1  0
 17 18  1  0
 17 19  1  0
 19 20  2  0
 19 21  1  0
 21 22  1  0
 21 23  1  0
 23 24  2  0
 24 40  1  0
M  END

