
     RDKit          3D

 36 37  0  0  0  0  0  0  0  0999 V2000
    2.6313   -0.2459    1.4493 C   0  0  0  0  0  0  0  0  0  0  0  0
    2.7501    0.0385   -0.0515 C   0  0  1  0  0  0  0  0  0  0  0  0
    1.3968   -0.1763   -0.7636 C   0  0  0  0  0  0  0  0  0  0  0  0
    1.4000    0.0351   -2.2406 C   0  0  0  0  0  0  0  0  0  0  0  0
    1.4237   -0.8046   -3.3205 C   0  0  0  0  0  0  0  0  0  0  0  0
    1.4410    0.0281   -4.4907 C   0  0  0  0  0  0  0  0  0  0  0  0
    1.4281    1.3143   -4.0389 C   0  0  0  0  0  0  0  0  0  0  0  0
    1.4000    1.3318   -2.6782 O   0  0  0  0  0  0  0  0  0  0  0  0
    3.2354    1.3943   -0.3029 N   0  0  0  0  0  0  0  0  0  0  0  0
    4.5478    1.7290   -0.0969 C   0  0  0  0  0  0  0  0  0  0  0  0
    5.3548    0.9399    0.3771 O   0  0  0  0  0  0  0  0  0  0  0  0
    4.9400    3.1300   -0.4972 C   0  0  0  0  0  0  0  0  0  0  0  0
    4.0092    4.1754   -0.5785 C   0  0  0  0  0  0  0  0  0  0  0  0
    4.4346    5.4662   -0.9486 C   0  0  0  0  0  0  0  0  0  0  0  0
    3.5162    6.5032   -1.0706 N   0  0  0  0  0  0  0  0  0  0  0  0
    5.7936    5.6824   -1.2326 C   0  0  0  0  0  0  0  0  0  0  0  0
    6.7317    4.6384   -1.1433 C   0  0  0  0  0  0  0  0  0  0  0  0
    8.0626    4.8572   -1.4671 N   0  0  0  0  0  0  0  0  0  0  0  0
    6.2923    3.3564   -0.7632 C   0  0  0  0  0  0  0  0  0  0  0  0
    2.3102   -1.2858    1.6233 H   0  0  0  0  0  0  0  0  0  0  0  0
    1.8971    0.4291    1.9190 H   0  0  0  0  0  0  0  0  0  0  0  0
    3.6066   -0.1002    1.9329 H   0  0  0  0  0  0  0  0  0  0  0  0
    3.4871   -0.6677   -0.4746 H   0  0  0  0  0  0  0  0  0  0  0  0
    0.6431    0.4892   -0.3047 H   0  0  0  0  0  0  0  0  0  0  0  0
    1.0692   -1.2072   -0.5640 H   0  0  0  0  0  0  0  0  0  0  0  0
    1.4271   -1.8921   -3.2851 H   0  0  0  0  0  0  0  0  0  0  0  0
    1.4585   -0.2924   -5.5302 H   0  0  0  0  0  0  0  0  0  0  0  0
    1.4339    2.2832   -4.5309 H   0  0  0  0  0  0  0  0  0  0  0  0
    2.6971    1.9800   -0.9319 H   0  0  0  0  0  0  0  0  0  0  0  0
    2.9608    4.0125   -0.3184 H   0  0  0  0  0  0  0  0  0  0  0  0
    2.6483    6.3896   -0.5596 H   0  0  0  0  0  0  0  0  0  0  0  0
    3.8897    7.4428   -0.9993 H   0  0  0  0  0  0  0  0  0  0  0  0
    6.1269    6.6814   -1.5311 H   0  0  0  0  0  0  0  0  0  0  0  0
    8.3950    5.8127   -1.4135 H   0  0  0  0  0  0  0  0  0  0  0  0
    8.7275    4.1813   -1.1099 H   0  0  0  0  0  0  0  0  0  0  0  0
    6.9917    2.5239   -0.6675 H   0  0  0  0  0  0  0  0  0  0  0  0
  1  2  1  0
  1 20  1  0
  1 21  1  0
  1 22  1  0
  2  3  1  0
  2  9  1  0
  2 23  1  6
  3  4  1  0
  3 24  1  0
  3 25  1  0
  4  5  2  0
  4  8  1  0
  5  6  1  0
  5 26  1  0
  6  7  2  0
  6 27  1  0
  7  8  1  0
  7 28  1  0
  9 10  1  0
  9 29  1  0
 10 11  2  0
 10 12  1  0
 12 13  2  0
 12 19  1  0
 13 14  1  0
 13 30  1  0
 14 15  1  0
 14 16  2  0
 15 31  1  0
 15 32  1  0
 16 17  1  0
 16 33  1  0
 17 18  1  0
 17 19  2  0
 18 34  1  0
 18 35  1  0
 19 36  1  0
M  END

