
     RDKit          3D

 40 41  0  0  0  0  0  0  0  0999 V2000
    1.0930    1.7243    0.2505 C   0  0  0  0  0  0  0  0  0  0  0  0
    2.1084    0.6253   -0.0576 C   0  0  1  0  0  0  0  0  0  0  0  0
    2.4462    0.6160   -1.4784 N   0  0  0  0  0  0  0  0  0  0  0  0
    2.7755   -0.5436   -2.1304 C   0  0  0  0  0  0  0  0  0  0  0  0
    2.7753   -1.6209   -1.5497 O   0  0  0  0  0  0  0  0  0  0  0  0
    3.1641   -0.3910   -3.5908 C   0  0  0  0  0  0  0  0  0  0  0  0
    4.7008   -0.3944   -3.8088 C   0  0  1  0  0  0  0  0  0  0  0  0
    5.3685   -1.7420   -3.4567 C   0  0  0  0  0  0  0  0  0  0  0  0
    5.0765   -2.8439   -4.4855 C   0  0  0  0  0  0  0  0  0  0  0  0
    5.4385   -2.4068   -5.9111 C   0  0  0  0  0  0  0  0  0  0  0  0
    4.7577   -1.0832   -6.2841 C   0  0  0  0  0  0  0  0  0  0  0  0
    5.0637    0.0132   -5.2534 C   0  0  0  0  0  0  0  0  0  0  0  0
    3.3558    0.7466    0.8004 C   0  0  0  0  0  0  0  0  0  0  0  0
    3.7563    1.8336    1.3954 N   0  0  0  0  0  0  0  0  0  0  0  0
    4.9388    1.6455    2.0717 C   0  0  0  0  0  0  0  0  0  0  0  0
    5.5462    2.7911    2.8179 C   0  0  0  0  0  0  0  0  0  0  0  0
    6.5808    2.7200    3.4281 O   0  0  0  0  0  0  0  0  0  0  0  0
    4.8189    3.9173    2.7397 O   0  0  0  0  0  0  0  0  0  0  0  0
    5.4625    0.3801    1.9972 C   0  0  0  0  0  0  0  0  0  0  0  0
    4.4380   -0.6197    1.0405 S   0  0  0  0  0  0  0  0  0  0  0  0
    0.1939    1.5832   -0.3671 H   0  0  0  0  0  0  0  0  0  0  0  0
    1.5132    2.7217    0.0487 H   0  0  0  0  0  0  0  0  0  0  0  0
    0.8020    1.6984    1.3101 H   0  0  0  0  0  0  0  0  0  0  0  0
    1.6673   -0.3628    0.1412 H   0  0  0  0  0  0  0  0  0  0  0  0
    2.5520    1.5065   -1.9510 H   0  0  0  0  0  0  0  0  0  0  0  0
    2.7447    0.5435   -3.9997 H   0  0  0  0  0  0  0  0  0  0  0  0
    2.6906   -1.2239   -4.1310 H   0  0  0  0  0  0  0  0  0  0  0  0
    5.1152    0.3751   -3.1320 H   0  0  0  0  0  0  0  0  0  0  0  0
    5.0558   -2.0698   -2.4545 H   0  0  0  0  0  0  0  0  0  0  0  0
    6.4602   -1.5754   -3.4134 H   0  0  0  0  0  0  0  0  0  0  0  0
    4.0076   -3.1190   -4.4422 H   0  0  0  0  0  0  0  0  0  0  0  0
    5.6310   -3.7577   -4.2137 H   0  0  0  0  0  0  0  0  0  0  0  0
    5.1703   -3.1938   -6.6361 H   0  0  0  0  0  0  0  0  0  0  0  0
    6.5349   -2.2798   -5.9837 H   0  0  0  0  0  0  0  0  0  0  0  0
    3.6659   -1.2393   -6.3555 H   0  0  0  0  0  0  0  0  0  0  0  0
    5.0814   -0.7529   -7.2855 H   0  0  0  0  0  0  0  0  0  0  0  0
    4.5497    0.9517   -5.5247 H   0  0  0  0  0  0  0  0  0  0  0  0
    6.1457    0.2350   -5.2844 H   0  0  0  0  0  0  0  0  0  0  0  0
    4.0325    3.7180    2.1959 H   0  0  0  0  0  0  0  0  0  0  0  0
    6.3812    0.0225    2.4585 H   0  0  0  0  0  0  0  0  0  0  0  0
  1  2  1  0
  1 21  1  0
  1 22  1  0
  1 23  1  0
  2  3  1  0
  2 13  1  0
  2 24  1  1
  3  4  1  0
  3 25  1  0
  4  5  2  0
  4  6  1  0
  6  7  1  0
  6 26  1  0
  6 27  1  0
  7  8  1  0
  7 12  1  0
  7 28  1  1
  8  9  1  0
  8 29  1  0
  8 30  1  0
  9 10  1  0
  9 31  1  0
  9 32  1  0
 10 11  1  0
 10 33  1  0
 10 34  1  0
 11 12  1  0
 11 35  1  0
 11 36  1  0
 12 37  1  0
 12 38  1  0
 13 14  2  0
 13 20  1  0
 14 15  1  0
 15 16  1  0
 15 19  2  0
 16 17  2  0
 16 18  1  0
 18 39  1  0
 19 20  1  0
 19 40  1  0
M  END

