
     RDKit          3D

 51 55  0  0  0  0  0  0  0  0999 V2000
    0.8059    0.2316    0.0885 C   0  0  0  0  0  0  0  0  0  0  0  0
    2.3418    0.0388   -0.0236 C   0  0  1  0  0  0  0  0  0  0  0  0
    2.7202   -0.2314   -1.5043 C   0  0  0  0  0  0  0  0  0  0  0  0
    3.0428    1.3215    0.4457 C   0  0  0  0  0  0  0  0  0  0  0  0
    2.7835    2.5300   -0.2192 C   0  0  0  0  0  0  0  0  0  0  0  0
    3.3806    3.7360    0.1461 C   0  0  0  0  0  0  0  0  0  0  0  0
    4.2747    3.7446    1.2177 C   0  0  0  0  0  0  0  0  0  0  0  0
    4.5558    2.5649    1.9005 C   0  0  0  0  0  0  0  0  0  0  0  0
    3.9498    1.3438    1.5299 C   0  0  0  0  0  0  0  0  0  0  0  0
    4.2525    0.1672    2.2388 N   0  0  0  0  0  0  0  0  0  0  0  0
    5.1720    0.2304    3.3353 C   0  0  0  0  0  0  0  0  0  0  0  0
    4.7088    0.4836    4.6328 C   0  0  0  0  0  0  0  0  0  0  0  0
    5.6025    0.5458    5.7012 C   0  0  0  0  0  0  0  0  0  0  0  0
    6.9832    0.3566    5.5021 C   0  0  0  0  0  0  0  0  0  0  0  0
    7.9678    0.4162    6.6168 C   0  0  0  0  0  0  0  0  0  0  0  0
    7.5935    0.6814    7.9507 C   0  0  0  0  0  0  0  0  0  0  0  0
    8.5649    0.7224    8.9425 C   0  0  0  0  0  0  0  0  0  0  0  0
    9.9077    0.4976    8.5925 C   0  0  0  0  0  0  0  0  0  0  0  0
   10.9562    0.5263    9.5683 C   0  0  0  0  0  0  0  0  0  0  0  0
   11.8092    0.5487   10.3562 N   0  0  0  0  0  0  0  0  0  0  0  0
   10.1897    0.2411    7.2351 C   0  0  0  0  0  0  0  0  0  0  0  0
    9.2575    0.2037    6.2963 N   0  0  0  0  0  0  0  0  0  0  0  0
    7.4363    0.1020    4.1933 C   0  0  0  0  0  0  0  0  0  0  0  0
    6.5441    0.0399    3.1252 C   0  0  0  0  0  0  0  0  0  0  0  0
    3.6736   -1.0692    1.9001 C   0  0  0  0  0  0  0  0  0  0  0  0
    4.0069   -2.2280    2.6361 C   0  0  0  0  0  0  0  0  0  0  0  0
    3.4494   -3.4643    2.3239 C   0  0  0  0  0  0  0  0  0  0  0  0
    2.5438   -3.5763    1.2679 C   0  0  0  0  0  0  0  0  0  0  0  0
    2.2158   -2.4318    0.5418 C   0  0  0  0  0  0  0  0  0  0  0  0
    2.7579   -1.1692    0.8277 C   0  0  0  0  0  0  0  0  0  0  0  0
    0.4654    1.0805   -0.5237 H   0  0  0  0  0  0  0  0  0  0  0  0
    0.5121    0.4253    1.1314 H   0  0  0  0  0  0  0  0  0  0  0  0
    0.2660   -0.6634   -0.2561 H   0  0  0  0  0  0  0  0  0  0  0  0
    2.4219    0.6076   -2.1510 H   0  0  0  0  0  0  0  0  0  0  0  0
    2.2217   -1.1362   -1.8840 H   0  0  0  0  0  0  0  0  0  0  0  0
    3.8067   -0.3723   -1.6098 H   0  0  0  0  0  0  0  0  0  0  0  0
    2.0848    2.5280   -1.0587 H   0  0  0  0  0  0  0  0  0  0  0  0
    3.1498    4.6535   -0.3998 H   0  0  0  0  0  0  0  0  0  0  0  0
    4.7609    4.6726    1.5294 H   0  0  0  0  0  0  0  0  0  0  0  0
    5.2566    2.5881    2.7338 H   0  0  0  0  0  0  0  0  0  0  0  0
    3.6395    0.6314    4.7975 H   0  0  0  0  0  0  0  0  0  0  0  0
    5.2037    0.7440    6.6971 H   0  0  0  0  0  0  0  0  0  0  0  0
    6.5519    0.8562    8.2178 H   0  0  0  0  0  0  0  0  0  0  0  0
    8.2944    0.9261    9.9805 H   0  0  0  0  0  0  0  0  0  0  0  0
   11.2237    0.0612    6.9201 H   0  0  0  0  0  0  0  0  0  0  0  0
    8.5049   -0.0457    4.0363 H   0  0  0  0  0  0  0  0  0  0  0  0
    6.9051   -0.1576    2.1136 H   0  0  0  0  0  0  0  0  0  0  0  0
    4.7127   -2.1576    3.4624 H   0  0  0  0  0  0  0  0  0  0  0  0
    3.7288   -4.3418    2.9127 H   0  0  0  0  0  0  0  0  0  0  0  0
    2.0978   -4.5395    1.0104 H   0  0  0  0  0  0  0  0  0  0  0  0
    1.5069   -2.5242   -0.2839 H   0  0  0  0  0  0  0  0  0  0  0  0
  2  1  1  6
  1 31  1  0
  1 32  1  0
  1 33  1  0
  2  3  1  0
  2  4  1  0
  2 30  1  0
  3 34  1  0
  3 35  1  0
  3 36  1  0
  4  5  1  0
  4  9  2  0
  5  6  2  0
  5 37  1  0
  6  7  1  0
  6 38  1  0
  7  8  2  0
  7 39  1  0
  8  9  1  0
  8 40  1  0
  9 10  1  0
 10 11  1  0
 10 25  1  0
 11 12  2  0
 11 24  1  0
 12 13  1  0
 12 41  1  0
 13 14  2  0
 13 42  1  0
 14 15  1  0
 14 23  1  0
 15 16  2  0
 15 22  1  0
 16 17  1  0
 16 43  1  0
 17 18  2  0
 17 44  1  0
 18 19  1  0
 18 21  1  0
 19 20  3  0
 21 22  2  0
 21 45  1  0
 23 24  2  0
 23 46  1  0
 24 47  1  0
 25 26  1  0
 25 30  2  0
 26 27  2  0
 26 48  1  0
 27 28  1  0
 27 49  1  0
 28 29  2  0
 28 50  1  0
 29 30  1  0
 29 51  1  0
M  END

