
     RDKit          3D

 56 58  0  0  0  0  0  0  0  0999 V2000
    3.9101   -0.3964   -1.4129 C   0  0  0  0  0  0  0  0  0  0  0  0
    4.1183    0.5283   -0.4703 C   0  0  0  0  0  0  0  0  0  0  0  0
    4.7929    1.8148   -0.7924 C   0  0  0  0  0  0  0  0  0  0  0  0
    5.2063    2.1286   -1.8863 O   0  0  0  0  0  0  0  0  0  0  0  0
    4.8652    2.5969    0.3043 O   0  0  0  0  0  0  0  0  0  0  0  0
    5.5504    3.8633    0.2198 C   0  0  1  0  0  0  0  0  0  0  0  0
    4.6228    4.9598    0.7533 C   0  0  0  0  0  0  0  0  0  0  0  0
    4.1294    4.7776    2.1911 C   0  0  0  0  0  0  0  0  0  0  0  0
    6.8683    3.7384    0.9764 C   0  0  0  0  0  0  0  0  0  0  0  0
    7.6489    2.6908    0.4060 O   0  0  0  0  0  0  0  0  0  0  0  0
    8.9980    2.9032    0.2455 C   0  0  0  0  0  0  0  0  0  0  0  0
    9.8632    2.8180    1.3565 C   0  0  0  0  0  0  0  0  0  0  0  0
    9.4042    2.4512    2.6631 C   0  0  0  0  0  0  0  0  0  0  0  0
   10.2722    2.3876    3.7250 C   0  0  0  0  0  0  0  0  0  0  0  0
   11.6563    2.6865    3.5491 C   0  0  0  0  0  0  0  0  0  0  0  0
   12.1387    3.0188    2.3083 C   0  0  0  0  0  0  0  0  0  0  0  0
   11.2736    3.0850    1.1681 C   0  0  0  0  0  0  0  0  0  0  0  0
   11.7528    3.3917   -0.1127 C   0  0  0  0  0  0  0  0  0  0  0  0
   10.8980    3.4212   -1.2242 C   0  0  0  0  0  0  0  0  0  0  0  0
   11.3638    3.7017   -2.5449 C   0  0  0  0  0  0  0  0  0  0  0  0
   10.5088    3.7115   -3.6190 C   0  0  0  0  0  0  0  0  0  0  0  0
    9.1091    3.4344   -3.4733 C   0  0  0  0  0  0  0  0  0  0  0  0
    8.1552    3.3839   -4.6864 C   0  0  1  0  0  0  0  0  0  0  0  0
    8.8309    3.8790   -5.9791 C   0  0  0  0  0  0  0  0  0  0  0  0
    7.6962    1.9217   -4.9010 C   0  0  0  0  0  0  0  0  0  0  0  0
    6.9137    4.2670   -4.4233 C   0  0  0  0  0  0  0  0  0  0  0  0
    8.6348    3.1727   -2.2021 C   0  0  0  0  0  0  0  0  0  0  0  0
    9.4870    3.1660   -1.0545 C   0  0  0  0  0  0  0  0  0  0  0  0
    3.4180   -1.3450   -1.1846 H   0  0  0  0  0  0  0  0  0  0  0  0
    4.2353   -0.2168   -2.4417 H   0  0  0  0  0  0  0  0  0  0  0  0
    3.8093    0.3840    0.5680 H   0  0  0  0  0  0  0  0  0  0  0  0
    5.7714    4.0583   -0.8383 H   0  0  0  0  0  0  0  0  0  0  0  0
    3.7569    5.0112    0.0723 H   0  0  0  0  0  0  0  0  0  0  0  0
    5.1485    5.9249    0.6476 H   0  0  0  0  0  0  0  0  0  0  0  0
    3.6352    3.8022    2.3159 H   0  0  0  0  0  0  0  0  0  0  0  0
    3.4008    5.5613    2.4505 H   0  0  0  0  0  0  0  0  0  0  0  0
    4.9475    4.8374    2.9264 H   0  0  0  0  0  0  0  0  0  0  0  0
    6.6761    3.5184    2.0402 H   0  0  0  0  0  0  0  0  0  0  0  0
    7.4059    4.7003    0.9186 H   0  0  0  0  0  0  0  0  0  0  0  0
    8.3526    2.1947    2.7958 H   0  0  0  0  0  0  0  0  0  0  0  0
    9.9060    2.0961    4.7128 H   0  0  0  0  0  0  0  0  0  0  0  0
   12.3321    2.6368    4.4067 H   0  0  0  0  0  0  0  0  0  0  0  0
   13.2016    3.2326    2.1654 H   0  0  0  0  0  0  0  0  0  0  0  0
   12.8174    3.6004   -0.2505 H   0  0  0  0  0  0  0  0  0  0  0  0
   12.4282    3.9067   -2.6901 H   0  0  0  0  0  0  0  0  0  0  0  0
   10.9182    3.9287   -4.6055 H   0  0  0  0  0  0  0  0  0  0  0  0
    9.6805    3.2437   -6.2749 H   0  0  0  0  0  0  0  0  0  0  0  0
    9.1949    4.9146   -5.8831 H   0  0  0  0  0  0  0  0  0  0  0  0
    8.1055    3.8581   -6.8076 H   0  0  0  0  0  0  0  0  0  0  0  0
    8.5581    1.2572   -5.0738 H   0  0  0  0  0  0  0  0  0  0  0  0
    7.0320    1.8528   -5.7791 H   0  0  0  0  0  0  0  0  0  0  0  0
    7.1413    1.5459   -4.0287 H   0  0  0  0  0  0  0  0  0  0  0  0
    7.2045    5.3113   -4.2241 H   0  0  0  0  0  0  0  0  0  0  0  0
    6.3243    3.8992   -3.5712 H   0  0  0  0  0  0  0  0  0  0  0  0
    6.2517    4.2622   -5.3051 H   0  0  0  0  0  0  0  0  0  0  0  0
    7.5844    2.9282   -2.0460 H   0  0  0  0  0  0  0  0  0  0  0  0
  1  2  2  0
  1 29  1  0
  1 30  1  0
  2  3  1  0
  2 31  1  0
  3  4  2  0
  3  5  1  0
  5  6  1  0
  6  7  1  0
  6  9  1  0
  6 32  1  6
  7  8  1  0
  7 33  1  0
  7 34  1  0
  8 35  1  0
  8 36  1  0
  8 37  1  0
  9 10  1  0
  9 38  1  0
  9 39  1  0
 10 11  1  0
 11 12  2  0
 11 28  1  0
 12 13  1  0
 12 17  1  0
 13 14  2  0
 13 40  1  0
 14 15  1  0
 14 41  1  0
 15 16  2  0
 15 42  1  0
 16 17  1  0
 16 43  1  0
 17 18  2  0
 18 19  1  0
 18 44  1  0
 19 20  1  0
 19 28  2  0
 20 21  2  0
 20 45  1  0
 21 22  1  0
 21 46  1  0
 22 23  1  0
 22 27  2  0
 23 24  1  6
 23 25  1  0
 23 26  1  0
 24 47  1  0
 24 48  1  0
 24 49  1  0
 25 50  1  0
 25 51  1  0
 25 52  1  0
 26 53  1  0
 26 54  1  0
 26 55  1  0
 27 28  1  0
 27 56  1  0
M  END

