
     RDKit          3D

 41 44  0  0  0  0  0  0  0  0999 V2000
    4.6242    4.7063   -3.9801 Cl  0  0  0  0  0  0  0  0  0  0  0  0
    5.4957    3.3728   -3.2626 C   0  0  0  0  0  0  0  0  0  0  0  0
    5.4962    3.2179   -1.8711 C   0  0  0  0  0  0  0  0  0  0  0  0
    6.1924    2.1546   -1.3015 C   0  0  0  0  0  0  0  0  0  0  0  0
    6.8902    1.2415   -2.1117 C   0  0  0  0  0  0  0  0  0  0  0  0
    7.6281    0.1170   -1.5193 C   0  0  0  0  0  0  0  0  0  0  0  0
    7.6812   -0.1040   -0.2251 N   0  0  0  0  0  0  0  0  0  0  0  0
    8.4669   -1.2432   -0.1200 O   0  0  0  0  0  0  0  0  0  0  0  0
    8.8169   -1.6014   -1.3662 C   0  0  0  0  0  0  0  0  0  0  0  0
    9.6903   -2.7957   -1.5454 C   0  0  0  0  0  0  0  0  0  0  0  0
    9.1944   -4.0393   -0.7886 C   0  0  0  0  0  0  0  0  0  0  0  0
   10.0724   -5.2814   -0.9958 C   0  0  0  0  0  0  0  0  0  0  0  0
   11.4102   -5.2309   -0.3301 C   0  0  0  0  0  0  0  0  0  0  0  0
   12.1891   -4.2183   -0.0957 N   0  0  0  0  0  0  0  0  0  0  0  0
   13.2838   -4.8013    0.5114 C   0  0  0  0  0  0  0  0  0  0  0  0
   14.4561   -4.0439    0.9709 C   0  0  0  0  0  0  0  0  0  0  0  0
   14.4943   -2.6481    0.8275 C   0  0  0  0  0  0  0  0  0  0  0  0
   15.6022   -1.9196    1.2603 C   0  0  0  0  0  0  0  0  0  0  0  0
   16.6813   -2.5924    1.8411 C   0  0  0  0  0  0  0  0  0  0  0  0
   18.0719   -1.6869    2.3844 Cl  0  0  0  0  0  0  0  0  0  0  0  0
   16.6610   -3.9843    1.9926 C   0  0  0  0  0  0  0  0  0  0  0  0
   15.5506   -4.7037    1.5580 C   0  0  0  0  0  0  0  0  0  0  0  0
   13.1780   -6.1042    0.6401 N   0  0  0  0  0  0  0  0  0  0  0  0
   11.9379   -6.3908    0.0874 O   0  0  0  0  0  0  0  0  0  0  0  0
    8.3296   -0.8049   -2.2683 N   0  0  0  0  0  0  0  0  0  0  0  0
    6.8783    1.4125   -3.5051 C   0  0  0  0  0  0  0  0  0  0  0  0
    6.1836    2.4746   -4.0840 C   0  0  0  0  0  0  0  0  0  0  0  0
    4.9531    3.9285   -1.2461 H   0  0  0  0  0  0  0  0  0  0  0  0
    6.1996    2.0238   -0.2177 H   0  0  0  0  0  0  0  0  0  0  0  0
   10.7076   -2.5475   -1.2001 H   0  0  0  0  0  0  0  0  0  0  0  0
    9.7498   -2.9880   -2.6270 H   0  0  0  0  0  0  0  0  0  0  0  0
    8.1741   -4.2851   -1.1254 H   0  0  0  0  0  0  0  0  0  0  0  0
    9.1215   -3.8113    0.2866 H   0  0  0  0  0  0  0  0  0  0  0  0
   10.2334   -5.4539   -2.0764 H   0  0  0  0  0  0  0  0  0  0  0  0
    9.5573   -6.1805   -0.6247 H   0  0  0  0  0  0  0  0  0  0  0  0
   13.6457   -2.1345    0.3734 H   0  0  0  0  0  0  0  0  0  0  0  0
   15.6340   -0.8345    1.1505 H   0  0  0  0  0  0  0  0  0  0  0  0
   17.5118   -4.4935    2.4480 H   0  0  0  0  0  0  0  0  0  0  0  0
   15.5246   -5.7891    1.6714 H   0  0  0  0  0  0  0  0  0  0  0  0
    7.4208    0.7020   -4.1308 H   0  0  0  0  0  0  0  0  0  0  0  0
    6.1724    2.6098   -5.1667 H   0  0  0  0  0  0  0  0  0  0  0  0
  1  2  1  0
  2  3  2  0
  2 27  1  0
  3  4  1  0
  3 28  1  0
  4  5  2  0
  4 29  1  0
  5  6  1  0
  5 26  1  0
  6  7  2  0
  6 25  1  0
  7  8  1  0
  8  9  1  0
  9 10  1  0
  9 25  2  0
 10 11  1  0
 10 30  1  0
 10 31  1  0
 11 12  1  0
 11 32  1  0
 11 33  1  0
 12 13  1  0
 12 34  1  0
 12 35  1  0
 13 14  2  0
 13 24  1  0
 14 15  1  0
 15 16  1  0
 15 23  2  0
 16 17  2  0
 16 22  1  0
 17 18  1  0
 17 36  1  0
 18 19  2  0
 18 37  1  0
 19 20  1  0
 19 21  1  0
 21 22  2  0
 21 38  1  0
 22 39  1  0
 23 24  1  0
 26 27  2  0
 26 40  1  0
 27 41  1  0
M  END

