
     RDKit          3D

 26 27  0  0  0  0  0  0  0  0999 V2000
    2.4804    2.2407   -0.2194 C   0  0  0  0  0  0  0  0  0  0  0  0
    2.9185    0.8059   -0.1056 C   0  0  0  0  0  0  0  0  0  0  0  0
    2.0744   -0.2834   -0.1959 C   0  0  0  0  0  0  0  0  0  0  0  0
    2.8958   -1.7882   -0.0257 S   0  0  0  0  0  0  0  0  0  0  0  0
    4.4290   -0.9772    0.1776 C   0  0  0  0  0  0  0  0  0  0  0  0
    5.7191   -1.6687    0.4010 C   0  0  0  0  0  0  0  0  0  0  0  0
    6.7492   -1.0286    0.5002 O   0  0  0  0  0  0  0  0  0  0  0  0
    5.6943   -3.1891    0.5606 C   0  0  0  0  0  0  0  0  0  0  0  0
    6.9937   -3.8812    0.2897 C   0  0  0  0  0  0  0  0  0  0  0  0
    8.3203   -3.5597    0.6572 C   0  0  0  0  0  0  0  0  0  0  0  0
    9.1282   -4.5133    0.1945 N   0  0  0  0  0  0  0  0  0  0  0  0
    8.3110   -5.3577   -0.4187 N   0  0  0  0  0  0  0  0  0  0  0  0
    8.7854   -6.5557   -1.0794 C   0  0  0  0  0  0  0  0  0  0  0  0
    7.0280   -5.0297   -0.3942 N   0  0  0  0  0  0  0  0  0  0  0  0
    4.2657    0.3925    0.1095 C   0  0  0  0  0  0  0  0  0  0  0  0
    1.3959    2.3192   -0.3828 H   0  0  0  0  0  0  0  0  0  0  0  0
    2.9863    2.7461   -1.0586 H   0  0  0  0  0  0  0  0  0  0  0  0
    2.7266    2.8062    0.6945 H   0  0  0  0  0  0  0  0  0  0  0  0
    0.9965   -0.2704   -0.3581 H   0  0  0  0  0  0  0  0  0  0  0  0
    4.9170   -3.6407   -0.0744 H   0  0  0  0  0  0  0  0  0  0  0  0
    5.3711   -3.3733    1.6042 H   0  0  0  0  0  0  0  0  0  0  0  0
    8.6982   -2.6982    1.1995 H   0  0  0  0  0  0  0  0  0  0  0  0
    9.8744   -6.5885   -0.9614 H   0  0  0  0  0  0  0  0  0  0  0  0
    8.5247   -6.5294   -2.1479 H   0  0  0  0  0  0  0  0  0  0  0  0
    8.3317   -7.4480   -0.6228 H   0  0  0  0  0  0  0  0  0  0  0  0
    5.1162    1.0679    0.2155 H   0  0  0  0  0  0  0  0  0  0  0  0
  1  2  1  0
  1 16  1  0
  1 17  1  0
  1 18  1  0
  2  3  1  0
  2 15  2  0
  3  4  2  0
  3 19  1  0
  4  5  1  0
  5  6  2  0
  5 15  1  0
  6  7  1  0
  6  8  1  0
  8  9  1  0
  8 20  1  0
  8 21  1  0
  9 10  1  0
  9 14  2  0
 10 11  2  0
 10 22  1  0
 11 12  1  0
 12 13  1  0
 12 14  1  0
 13 23  1  0
 13 24  1  0
 13 25  1  0
 15 26  1  0
M  CHG  2   4   1   7  -1
M  END

