
     RDKit          3D

 53 55  0  0  0  0  0  0  0  0999 V2000
    1.7997    0.0721   -0.9096 C   0  0  0  0  0  0  0  0  0  0  0  0
    2.9911    0.2548   -0.1818 O   0  0  0  0  0  0  0  0  0  0  0  0
    3.5931   -0.8233    0.3878 C   0  0  0  0  0  0  0  0  0  0  0  0
    4.7796   -0.5697    1.0965 C   0  0  0  0  0  0  0  0  0  0  0  0
    5.4653   -1.6133    1.7111 C   0  0  0  0  0  0  0  0  0  0  0  0
    5.0027   -2.9400    1.6420 C   0  0  0  0  0  0  0  0  0  0  0  0
    5.7233   -4.0680    2.3439 C   0  0  0  0  0  0  0  0  0  0  0  0
    5.1365   -4.3704    3.7363 C   0  0  0  0  0  0  0  0  0  0  0  0
    5.7896   -5.4887    4.4038 N   0  0  0  0  0  0  0  0  0  0  0  0
    5.4351   -6.7790    4.0718 C   0  0  0  0  0  0  0  0  0  0  0  0
    4.6246   -6.9915    3.1763 O   0  0  0  0  0  0  0  0  0  0  0  0
    5.9932   -7.8201    4.8225 N   0  0  0  0  0  0  0  0  0  0  0  0
    5.4610   -9.1479    4.4899 C   0  0  0  0  0  0  0  0  0  0  0  0
    6.2871   -9.8232    3.3919 C   0  0  0  0  0  0  0  0  0  0  0  0
    7.7583   -9.9147    3.8075 C   0  0  0  0  0  0  0  0  0  0  0  0
    8.3183   -8.5715    4.3016 C   0  0  2  0  0  0  0  0  0  0  0  0
    9.7313   -8.7560    4.9008 C   0  0  0  0  0  0  0  0  0  0  0  0
   10.3118   -7.5644    5.4989 N   0  0  0  0  0  0  0  0  0  0  0  0
   10.8885   -6.6159    4.5657 C   0  0  0  0  0  0  0  0  0  0  0  0
    9.4171   -6.9938    6.4928 C   0  0  0  0  0  0  0  0  0  0  0  0
    8.0169   -6.6593    5.9392 C   0  0  0  0  0  0  0  0  0  0  0  0
    7.3742   -7.9218    5.3483 C   0  0  1  0  0  0  0  0  0  0  0  0
    3.8186   -3.1747    0.9310 C   0  0  0  0  0  0  0  0  0  0  0  0
    3.1133   -2.1391    0.3070 C   0  0  0  0  0  0  0  0  0  0  0  0
    1.4972    1.0641   -1.2719 H   0  0  0  0  0  0  0  0  0  0  0  0
    0.9893   -0.3395   -0.2802 H   0  0  0  0  0  0  0  0  0  0  0  0
    1.9439   -0.5958   -1.7787 H   0  0  0  0  0  0  0  0  0  0  0  0
    5.1442    0.4585    1.1458 H   0  0  0  0  0  0  0  0  0  0  0  0
    6.3903   -1.3941    2.2535 H   0  0  0  0  0  0  0  0  0  0  0  0
    6.7943   -3.8286    2.4531 H   0  0  0  0  0  0  0  0  0  0  0  0
    5.6526   -4.9902    1.7472 H   0  0  0  0  0  0  0  0  0  0  0  0
    4.0588   -4.5758    3.6304 H   0  0  0  0  0  0  0  0  0  0  0  0
    5.2441   -3.4861    4.3841 H   0  0  0  0  0  0  0  0  0  0  0  0
    6.1684   -5.3237    5.3245 H   0  0  0  0  0  0  0  0  0  0  0  0
    4.4174   -9.0339    4.1773 H   0  0  0  0  0  0  0  0  0  0  0  0
    5.4841   -9.7576    5.4114 H   0  0  0  0  0  0  0  0  0  0  0  0
    6.1787   -9.2300    2.4691 H   0  0  0  0  0  0  0  0  0  0  0  0
    5.8838  -10.8280    3.1787 H   0  0  0  0  0  0  0  0  0  0  0  0
    8.3775  -10.2954    2.9768 H   0  0  0  0  0  0  0  0  0  0  0  0
    7.8555  -10.6538    4.6260 H   0  0  0  0  0  0  0  0  0  0  0  0
    8.3782   -7.8748    3.4441 H   0  0  0  0  0  0  0  0  0  0  0  0
   10.4161   -9.1450    4.1291 H   0  0  0  0  0  0  0  0  0  0  0  0
    9.6690   -9.5360    5.6846 H   0  0  0  0  0  0  0  0  0  0  0  0
   11.6398   -7.1239    3.9397 H   0  0  0  0  0  0  0  0  0  0  0  0
   11.4077   -5.8179    5.1213 H   0  0  0  0  0  0  0  0  0  0  0  0
   10.1665   -6.1233    3.8769 H   0  0  0  0  0  0  0  0  0  0  0  0
    9.8787   -6.0880    6.9182 H   0  0  0  0  0  0  0  0  0  0  0  0
    9.3138   -7.7175    7.3231 H   0  0  0  0  0  0  0  0  0  0  0  0
    8.1183   -5.8820    5.1688 H   0  0  0  0  0  0  0  0  0  0  0  0
    7.3884   -6.2530    6.7520 H   0  0  0  0  0  0  0  0  0  0  0  0
    7.2961   -8.6405    6.1886 H   0  0  0  0  0  0  0  0  0  0  0  0
    3.4340   -4.1963    0.8560 H   0  0  0  0  0  0  0  0  0  0  0  0
    2.1988   -2.3718   -0.2392 H   0  0  0  0  0  0  0  0  0  0  0  0
  1  2  1  0
  1 25  1  0
  1 26  1  0
  1 27  1  0
  2  3  1  0
  3  4  2  0
  3 24  1  0
  4  5  1  0
  4 28  1  0
  5  6  2  0
  5 29  1  0
  6  7  1  0
  6 23  1  0
  7  8  1  0
  7 30  1  0
  7 31  1  0
  8  9  1  0
  8 32  1  0
  8 33  1  0
  9 10  1  0
  9 34  1  0
 10 11  2  0
 10 12  1  0
 12 13  1  0
 12 22  1  0
 13 14  1  0
 13 35  1  0
 13 36  1  0
 14 15  1  0
 14 37  1  0
 14 38  1  0
 15 16  1  0
 15 39  1  0
 15 40  1  0
 16 17  1  0
 16 22  1  0
 16 41  1  6
 17 18  1  0
 17 42  1  0
 17 43  1  0
 18 19  1  0
 18 20  1  0
 19 44  1  0
 19 45  1  0
 19 46  1  0
 20 21  1  0
 20 47  1  0
 20 48  1  0
 21 22  1  0
 21 49  1  0
 21 50  1  0
 22 51  1  1
 23 24  2  0
 23 52  1  0
 24 53  1  0
M  END

