
     RDKit          3D

 45 47  0  0  0  0  0  0  0  0999 V2000
    5.0226   -0.8825    2.2752 C   0  0  0  0  0  0  0  0  0  0  0  0
    4.5735   -0.6594    0.8303 C   0  0  0  0  0  0  0  0  0  0  0  0
    5.2146    0.5668    0.1746 C   0  0  0  0  0  0  0  0  0  0  0  0
    4.7674    0.7782   -1.2793 C   0  0  0  0  0  0  0  0  0  0  0  0
    5.3625    1.9360   -1.9227 N   0  0  0  0  0  0  0  0  0  0  0  0
    6.3316    1.7146   -2.9743 C   0  0  0  0  0  0  0  0  0  0  0  0
    7.1901    2.9620   -3.1728 C   0  0  1  0  0  0  0  0  0  0  0  0
    8.1899    2.8188   -4.3230 C   0  0  0  0  0  0  0  0  0  0  0  0
    9.1079    4.0073   -4.4803 C   0  0  0  0  0  0  0  0  0  0  0  0
    8.8294    5.0653   -5.3580 C   0  0  0  0  0  0  0  0  0  0  0  0
    9.6894    6.1609   -5.4736 C   0  0  0  0  0  0  0  0  0  0  0  0
   10.8546    6.2197   -4.7029 C   0  0  0  0  0  0  0  0  0  0  0  0
   11.1564    5.1829   -3.8161 C   0  0  0  0  0  0  0  0  0  0  0  0
   10.2794    4.1067   -3.7205 C   0  0  0  0  0  0  0  0  0  0  0  0
   10.5706    3.1102   -2.8585 F   0  0  0  0  0  0  0  0  0  0  0  0
    6.3543    4.0754   -3.4709 O   0  0  0  0  0  0  0  0  0  0  0  0
    5.2764    4.2576   -2.6464 C   0  0  0  0  0  0  0  0  0  0  0  0
    4.6976    5.5276   -2.6259 C   0  0  0  0  0  0  0  0  0  0  0  0
    3.5801    5.7897   -1.8248 C   0  0  0  0  0  0  0  0  0  0  0  0
    2.9813    7.0154   -1.7774 O   0  0  0  0  0  0  0  0  0  0  0  0
    3.0598    4.7633   -1.0314 C   0  0  0  0  0  0  0  0  0  0  0  0
    3.6433    3.4942   -1.0535 C   0  0  0  0  0  0  0  0  0  0  0  0
    4.7569    3.1970   -1.8624 C   0  0  0  0  0  0  0  0  0  0  0  0
    4.5417   -1.7701    2.7161 H   0  0  0  0  0  0  0  0  0  0  0  0
    4.7712   -0.0169    2.9105 H   0  0  0  0  0  0  0  0  0  0  0  0
    6.1139   -1.0294    2.3373 H   0  0  0  0  0  0  0  0  0  0  0  0
    3.4732   -0.5562    0.7989 H   0  0  0  0  0  0  0  0  0  0  0  0
    4.8053   -1.5584    0.2295 H   0  0  0  0  0  0  0  0  0  0  0  0
    6.3152    0.4721    0.1955 H   0  0  0  0  0  0  0  0  0  0  0  0
    4.9790    1.4711    0.7622 H   0  0  0  0  0  0  0  0  0  0  0  0
    3.6643    0.8418   -1.3258 H   0  0  0  0  0  0  0  0  0  0  0  0
    5.0334   -0.1140   -1.8713 H   0  0  0  0  0  0  0  0  0  0  0  0
    5.8546    1.4529   -3.9449 H   0  0  0  0  0  0  0  0  0  0  0  0
    6.9859    0.8736   -2.6938 H   0  0  0  0  0  0  0  0  0  0  0  0
    7.7357    3.1638   -2.2316 H   0  0  0  0  0  0  0  0  0  0  0  0
    7.6236    2.6635   -5.2549 H   0  0  0  0  0  0  0  0  0  0  0  0
    8.7869    1.9120   -4.1399 H   0  0  0  0  0  0  0  0  0  0  0  0
    7.9162    5.0214   -5.9565 H   0  0  0  0  0  0  0  0  0  0  0  0
    9.4492    6.9703   -6.1670 H   0  0  0  0  0  0  0  0  0  0  0  0
   11.5324    7.0724   -4.7896 H   0  0  0  0  0  0  0  0  0  0  0  0
   12.0559    5.1925   -3.1973 H   0  0  0  0  0  0  0  0  0  0  0  0
    5.1474    6.3031   -3.2518 H   0  0  0  0  0  0  0  0  0  0  0  0
    3.4527    7.6212   -2.3630 H   0  0  0  0  0  0  0  0  0  0  0  0
    2.1963    4.9686   -0.3963 H   0  0  0  0  0  0  0  0  0  0  0  0
    3.2156    2.7187   -0.4179 H   0  0  0  0  0  0  0  0  0  0  0  0
  1  2  1  0
  1 24  1  0
  1 25  1  0
  1 26  1  0
  2  3  1  0
  2 27  1  0
  2 28  1  0
  3  4  1  0
  3 29  1  0
  3 30  1  0
  4  5  1  0
  4 31  1  0
  4 32  1  0
  5  6  1  0
  5 23  1  0
  6  7  1  0
  6 33  1  0
  6 34  1  0
  7  8  1  0
  7 16  1  0
  7 35  1  1
  8  9  1  0
  8 36  1  0
  8 37  1  0
  9 10  2  0
  9 14  1  0
 10 11  1  0
 10 38  1  0
 11 12  2  0
 11 39  1  0
 12 13  1  0
 12 40  1  0
 13 14  2  0
 13 41  1  0
 14 15  1  0
 16 17  1  0
 17 18  1  0
 17 23  2  0
 18 19  2  0
 18 42  1  0
 19 20  1  0
 19 21  1  0
 20 43  1  0
 21 22  2  0
 21 44  1  0
 22 23  1  0
 22 45  1  0
M  END

