
     RDKit          3D

 34 34  0  0  0  0  0  0  0  0999 V2000
    2.8894    0.0651   -3.0586 C   0  0  0  0  0  0  0  0  0  0  0  0
    2.2883    1.1806   -2.1937 C   0  0  1  0  0  0  0  0  0  0  0  0
    0.7573    1.0873   -2.1475 C   0  0  0  0  0  0  0  0  0  0  0  0
    2.8801    1.2386   -0.7530 C   0  0  1  0  0  0  0  0  0  0  0  0
    2.5785    0.1009    0.1126 N   0  0  0  0  0  0  0  0  0  0  0  0
    4.4173    1.4368   -0.7202 C   0  0  0  0  0  0  0  0  0  0  0  0
    4.9233    2.6335   -1.5055 C   0  0  0  0  0  0  0  0  0  0  0  0
    5.3629    2.4990   -2.6336 O   0  0  0  0  0  0  0  0  0  0  0  0
    4.8606    4.0060   -0.8889 C   0  0  0  0  0  0  0  0  0  0  0  0
    5.2654    5.0989   -1.6762 C   0  0  0  0  0  0  0  0  0  0  0  0
    5.2358    6.3944   -1.1705 C   0  0  0  0  0  0  0  0  0  0  0  0
    4.7976    6.6005    0.1364 C   0  0  0  0  0  0  0  0  0  0  0  0
    4.7695    7.8425    0.6202 F   0  0  0  0  0  0  0  0  0  0  0  0
    4.3884    5.5364    0.9500 C   0  0  0  0  0  0  0  0  0  0  0  0
    3.9211    5.7994    2.3628 C   0  0  1  0  0  0  0  0  0  0  0  0
    4.8789    6.3819    3.1012 F   0  0  0  0  0  0  0  0  0  0  0  0
    2.8503    6.6094    2.3863 F   0  0  0  0  0  0  0  0  0  0  0  0
    3.5740    4.6585    2.9835 F   0  0  0  0  0  0  0  0  0  0  0  0
    4.4256    4.2418    0.4244 C   0  0  0  0  0  0  0  0  0  0  0  0
    2.3868    0.0214   -4.0379 H   0  0  0  0  0  0  0  0  0  0  0  0
    2.7629   -0.9255   -2.5876 H   0  0  0  0  0  0  0  0  0  0  0  0
    3.9604    0.2297   -3.2464 H   0  0  0  0  0  0  0  0  0  0  0  0
    2.5400    2.1427   -2.6754 H   0  0  0  0  0  0  0  0  0  0  0  0
    0.4236    0.1249   -1.7236 H   0  0  0  0  0  0  0  0  0  0  0  0
    0.3272    1.1625   -3.1586 H   0  0  0  0  0  0  0  0  0  0  0  0
    0.3177    1.8939   -1.5370 H   0  0  0  0  0  0  0  0  0  0  0  0
    2.4214    2.1202   -0.2691 H   0  0  0  0  0  0  0  0  0  0  0  0
    2.9220   -0.7696   -0.2949 H   0  0  0  0  0  0  0  0  0  0  0  0
    1.5737   -0.0085    0.2400 H   0  0  0  0  0  0  0  0  0  0  0  0
    4.9101    0.5507   -1.1474 H   0  0  0  0  0  0  0  0  0  0  0  0
    4.7130    1.4969    0.3370 H   0  0  0  0  0  0  0  0  0  0  0  0
    5.6046    4.8996   -2.6945 H   0  0  0  0  0  0  0  0  0  0  0  0
    5.5456    7.2561   -1.7647 H   0  0  0  0  0  0  0  0  0  0  0  0
    4.1101    3.4193    1.0654 H   0  0  0  0  0  0  0  0  0  0  0  0
  1  2  1  0
  1 20  1  0
  1 21  1  0
  1 22  1  0
  2  3  1  0
  2  4  1  0
  2 23  1  6
  3 24  1  0
  3 25  1  0
  3 26  1  0
  4  5  1  0
  4  6  1  0
  4 27  1  1
  5 28  1  0
  5 29  1  0
  6  7  1  0
  6 30  1  0
  6 31  1  0
  7  8  2  0
  7  9  1  0
  9 10  2  0
  9 19  1  0
 10 11  1  0
 10 32  1  0
 11 12  2  0
 11 33  1  0
 12 13  1  0
 12 14  1  0
 14 15  1  0
 14 19  2  0
 15 16  1  1
 15 17  1  0
 15 18  1  0
 19 34  1  0
M  END

