
     RDKit          3D

 45 47  0  0  0  0  0  0  0  0999 V2000
    2.5636   -8.4333    3.1267 N   0  0  0  0  0  0  0  0  0  0  0  0
    3.3102   -8.2502    2.2559 C   0  0  0  0  0  0  0  0  0  0  0  0
    4.2351   -8.0519    1.1785 C   0  0  0  0  0  0  0  0  0  0  0  0
    5.4500   -8.7697    1.1751 C   0  0  0  0  0  0  0  0  0  0  0  0
    6.3357   -8.6632    0.1078 C   0  0  0  0  0  0  0  0  0  0  0  0
    6.0146   -7.8370   -0.9767 C   0  0  0  0  0  0  0  0  0  0  0  0
    4.8260   -7.1095   -0.9824 C   0  0  0  0  0  0  0  0  0  0  0  0
    3.9284   -7.1991    0.0900 C   0  0  0  0  0  0  0  0  0  0  0  0
    2.7729   -6.4894   -0.0047 O   0  0  0  0  0  0  0  0  0  0  0  0
    2.3616   -5.6281    1.0699 C   0  0  0  0  0  0  0  0  0  0  0  0
    1.6685   -4.3985    0.4818 C   0  0  0  0  0  0  0  0  0  0  0  0
    2.0235   -3.2678    0.7384 O   0  0  0  0  0  0  0  0  0  0  0  0
    0.6440   -4.6598   -0.3986 N   0  0  0  0  0  0  0  0  0  0  0  0
    0.0513   -5.8994   -0.5039 N   0  0  0  0  0  0  0  0  0  0  0  0
   -1.3029   -6.0168   -0.2262 C   0  0  0  0  0  0  0  0  0  0  0  0
   -1.9520   -5.0681    0.1780 O   0  0  0  0  0  0  0  0  0  0  0  0
   -1.8940   -7.3510   -0.4651 C   0  0  0  0  0  0  0  0  0  0  0  0
   -3.2455   -7.6245   -0.4044 C   0  0  0  0  0  0  0  0  0  0  0  0
   -3.5643   -8.9836   -0.6734 C   0  0  0  0  0  0  0  0  0  0  0  0
   -2.4377   -9.7454   -0.9353 C   0  0  0  0  0  0  0  0  0  0  0  0
   -0.9910   -8.7996   -0.8377 S   0  0  0  0  0  0  0  0  0  0  0  0
   -2.4649  -11.2191   -1.2213 C   0  0  0  0  0  0  0  0  0  0  0  0
   -2.9750  -12.0801   -0.0278 C   0  0  0  0  0  0  0  0  0  0  0  0
   -3.8642  -11.3513    0.9933 C   0  0  0  0  0  0  0  0  0  0  0  0
   -5.1372  -10.6672    0.4669 C   0  0  0  0  0  0  0  0  0  0  0  0
   -4.9298   -9.6250   -0.6691 C   0  0  0  0  0  0  0  0  0  0  0  0
    5.6750   -9.4211    2.0218 H   0  0  0  0  0  0  0  0  0  0  0  0
    7.2715   -9.2257    0.1171 H   0  0  0  0  0  0  0  0  0  0  0  0
    6.7031   -7.7491   -1.8208 H   0  0  0  0  0  0  0  0  0  0  0  0
    4.5657   -6.4482   -1.8109 H   0  0  0  0  0  0  0  0  0  0  0  0
    3.2323   -5.2660    1.6341 H   0  0  0  0  0  0  0  0  0  0  0  0
    1.6786   -6.1606    1.7509 H   0  0  0  0  0  0  0  0  0  0  0  0
    0.0730   -3.8633   -0.6793 H   0  0  0  0  0  0  0  0  0  0  0  0
    0.5151   -6.5558   -1.1262 H   0  0  0  0  0  0  0  0  0  0  0  0
   -3.9723   -6.8445   -0.1728 H   0  0  0  0  0  0  0  0  0  0  0  0
   -1.4742  -11.5746   -1.5429 H   0  0  0  0  0  0  0  0  0  0  0  0
   -3.1332  -11.3697   -2.0877 H   0  0  0  0  0  0  0  0  0  0  0  0
   -2.1051  -12.4791    0.5197 H   0  0  0  0  0  0  0  0  0  0  0  0
   -3.5066  -12.9573   -0.4348 H   0  0  0  0  0  0  0  0  0  0  0  0
   -3.2507  -10.5984    1.5152 H   0  0  0  0  0  0  0  0  0  0  0  0
   -4.1601  -12.0785    1.7685 H   0  0  0  0  0  0  0  0  0  0  0  0
   -5.6178  -10.1697    1.3258 H   0  0  0  0  0  0  0  0  0  0  0  0
   -5.8564  -11.4284    0.1183 H   0  0  0  0  0  0  0  0  0  0  0  0
   -5.7095   -8.8504   -0.6083 H   0  0  0  0  0  0  0  0  0  0  0  0
   -5.0775  -10.1224   -1.6439 H   0  0  0  0  0  0  0  0  0  0  0  0
  1  2  3  0
  2  3  1  0
  3  4  2  0
  3  8  1  0
  4  5  1  0
  4 27  1  0
  5  6  2  0
  5 28  1  0
  6  7  1  0
  6 29  1  0
  7  8  2  0
  7 30  1  0
  8  9  1  0
  9 10  1  0
 10 11  1  0
 10 31  1  0
 10 32  1  0
 11 12  2  0
 11 13  1  0
 13 14  1  0
 13 33  1  0
 14 15  1  0
 14 34  1  0
 15 16  2  0
 15 17  1  0
 17 18  2  0
 17 21  1  0
 18 19  1  0
 18 35  1  0
 19 20  2  0
 19 26  1  0
 20 21  1  0
 20 22  1  0
 22 23  1  0
 22 36  1  0
 22 37  1  0
 23 24  1  0
 23 38  1  0
 23 39  1  0
 24 25  1  0
 24 40  1  0
 24 41  1  0
 25 26  1  0
 25 42  1  0
 25 43  1  0
 26 44  1  0
 26 45  1  0
M  END

