
     RDKit          3D

 40 42  0  0  0  0  0  0  0  0999 V2000
    1.0311    0.2498   -0.7618 C   0  0  0  0  0  0  0  0  0  0  0  0
    2.4808   -0.0083   -0.5271 C   0  0  0  0  0  0  0  0  0  0  0  0
    3.4137    0.9917   -0.3966 N   0  0  0  0  0  0  0  0  0  0  0  0
    3.2099    1.9823   -0.4445 H   0  0  0  0  0  0  0  0  0  0  0  0
    4.6512    0.4218   -0.1898 C   0  0  0  0  0  0  0  0  0  0  0  0
    5.8917    1.1843   -0.0068 C   0  0  0  0  0  0  0  0  0  0  0  0
    5.9279    2.5900   -0.0430 C   0  0  0  0  0  0  0  0  0  0  0  0
    7.1334    3.2708    0.1368 C   0  0  0  0  0  0  0  0  0  0  0  0
    8.3218    2.5712    0.3547 C   0  0  0  0  0  0  0  0  0  0  0  0
    8.2821    1.1724    0.3895 C   0  0  0  0  0  0  0  0  0  0  0  0
    9.7611    0.2800    0.6611 Cl  0  0  0  0  0  0  0  0  0  0  0  0
    7.0883    0.4770    0.2124 C   0  0  0  0  0  0  0  0  0  0  0  0
    4.5446   -0.8909   -0.1819 N   0  0  0  0  0  0  0  0  0  0  0  0
    3.2179   -1.1784   -0.3879 C   0  0  0  0  0  0  0  0  0  0  0  0
    2.7193   -2.5755   -0.4470 C   0  0  0  0  0  0  0  0  0  0  0  0
    1.5215   -2.8367   -0.6169 O   0  0  0  0  0  0  0  0  0  0  0  0
    3.6885   -3.5067   -0.3012 N   0  0  0  0  0  0  0  0  0  0  0  0
    3.4811   -4.9564   -0.2020 C   0  0  1  0  0  0  0  0  0  0  0  0
    2.7672   -5.5689   -1.4421 C   0  0  0  0  0  0  0  0  0  0  0  0
    1.3807   -5.4278   -1.4030 O   0  0  0  0  0  0  0  0  0  0  0  0
    4.7974   -5.6085    0.0762 C   0  0  0  0  0  0  0  0  0  0  0  0
    5.2313   -6.4687    1.0475 C   0  0  0  0  0  0  0  0  0  0  0  0
    6.5952   -6.7850    0.7300 C   0  0  0  0  0  0  0  0  0  0  0  0
    6.8877   -6.0900   -0.4070 C   0  0  0  0  0  0  0  0  0  0  0  0
    5.8055   -5.3758   -0.8138 O   0  0  0  0  0  0  0  0  0  0  0  0
    0.8682    0.8135   -1.6965 H   0  0  0  0  0  0  0  0  0  0  0  0
    0.5877    0.8343    0.0626 H   0  0  0  0  0  0  0  0  0  0  0  0
    0.5073   -0.7107   -0.8325 H   0  0  0  0  0  0  0  0  0  0  0  0
    5.0182    3.1711   -0.2131 H   0  0  0  0  0  0  0  0  0  0  0  0
    7.1494    4.3629    0.1065 H   0  0  0  0  0  0  0  0  0  0  0  0
    9.2686    3.0943    0.4962 H   0  0  0  0  0  0  0  0  0  0  0  0
    7.0670   -0.6120    0.2415 H   0  0  0  0  0  0  0  0  0  0  0  0
    4.6304   -3.1420   -0.1848 H   0  0  0  0  0  0  0  0  0  0  0  0
    2.8203   -5.1758    0.6555 H   0  0  0  0  0  0  0  0  0  0  0  0
    2.9881   -6.6493   -1.4544 H   0  0  0  0  0  0  0  0  0  0  0  0
    3.2336   -5.1314   -2.3511 H   0  0  0  0  0  0  0  0  0  0  0  0
    1.1944   -4.4888   -1.1935 H   0  0  0  0  0  0  0  0  0  0  0  0
    4.6468   -6.8313    1.8903 H   0  0  0  0  0  0  0  0  0  0  0  0
    7.2677   -7.4389    1.2813 H   0  0  0  0  0  0  0  0  0  0  0  0
    7.7807   -5.9969   -1.0195 H   0  0  0  0  0  0  0  0  0  0  0  0
  1  2  1  0
  1 26  1  0
  1 27  1  0
  1 28  1  0
  2  3  1  0
  2 14  2  0
  3  4  1  0
  3  5  1  0
  5  6  1  0
  5 13  2  0
  6  7  2  0
  6 12  1  0
  7  8  1  0
  7 29  1  0
  8  9  2  0
  8 30  1  0
  9 10  1  0
  9 31  1  0
 10 11  1  0
 10 12  2  0
 12 32  1  0
 13 14  1  0
 14 15  1  0
 15 16  2  0
 15 17  1  0
 17 18  1  0
 17 33  1  0
 18 19  1  0
 18 21  1  0
 18 34  1  1
 19 20  1  0
 19 35  1  0
 19 36  1  0
 20 37  1  0
 21 22  2  0
 21 25  1  0
 22 23  1  0
 22 38  1  0
 23 24  2  0
 23 39  1  0
 24 25  1  0
 24 40  1  0
M  END

