
     RDKit          3D

 41 44  0  0  0  0  0  0  0  0999 V2000
   -1.5547   -0.2742   -0.2918 C   0  0  0  0  0  0  0  0  0  0  0  0
   -0.9620    0.9741   -0.5145 C   0  0  0  0  0  0  0  0  0  0  0  0
    0.4249    1.1094   -0.4473 C   0  0  0  0  0  0  0  0  0  0  0  0
    1.2440    0.0046   -0.1567 C   0  0  0  0  0  0  0  0  0  0  0  0
    2.7492    0.2521   -0.0638 C   0  0  1  0  0  0  0  0  0  0  0  0
    3.1308    0.9774    1.0956 O   0  0  0  0  0  0  0  0  0  0  0  0
    2.8260    0.4336    2.3798 C   0  0  1  0  0  0  0  0  0  0  0  0
    4.0679    0.3859    3.2768 C   0  0  0  0  0  0  0  0  0  0  0  0
    3.4979    0.2704    4.7030 C   0  0  0  0  0  0  0  0  0  0  0  0
    2.0755    0.9133    4.6452 C   0  0  0  0  0  0  0  0  0  0  0  0
    1.8565    1.3212    3.1733 C   0  0  0  0  0  0  0  0  0  0  0  0
    3.6109   -0.9729   -0.2556 C   0  0  0  0  0  0  0  0  0  0  0  0
    3.7187   -2.0281    0.4866 N   0  0  0  0  0  0  0  0  0  0  0  0
    4.7071   -2.7968   -0.1215 C   0  0  0  0  0  0  0  0  0  0  0  0
    5.2605   -4.0397    0.2110 C   0  0  0  0  0  0  0  0  0  0  0  0
    6.2518   -4.5458   -0.6315 C   0  0  0  0  0  0  0  0  0  0  0  0
    6.6833   -3.8400   -1.7738 C   0  0  0  0  0  0  0  0  0  0  0  0
    6.1391   -2.5988   -2.1184 C   0  0  0  0  0  0  0  0  0  0  0  0
    5.1544   -2.1133   -1.2649 C   0  0  0  0  0  0  0  0  0  0  0  0
    4.4492   -0.9463   -1.3405 O   0  0  0  0  0  0  0  0  0  0  0  0
    0.6414   -1.2418    0.0658 C   0  0  0  0  0  0  0  0  0  0  0  0
   -0.7502   -1.3780   -0.0018 C   0  0  0  0  0  0  0  0  0  0  0  0
   -2.6408   -0.3842   -0.3471 H   0  0  0  0  0  0  0  0  0  0  0  0
   -1.5833    1.8433   -0.7453 H   0  0  0  0  0  0  0  0  0  0  0  0
    0.8851    2.0869   -0.6171 H   0  0  0  0  0  0  0  0  0  0  0  0
    3.0217    0.9241   -0.8911 H   0  0  0  0  0  0  0  0  0  0  0  0
    2.4133   -0.5834    2.2751 H   0  0  0  0  0  0  0  0  0  0  0  0
    4.6134    1.3352    3.1408 H   0  0  0  0  0  0  0  0  0  0  0  0
    4.7515   -0.4326    3.0066 H   0  0  0  0  0  0  0  0  0  0  0  0
    4.1481    0.7571    5.4460 H   0  0  0  0  0  0  0  0  0  0  0  0
    3.4238   -0.7879    5.0005 H   0  0  0  0  0  0  0  0  0  0  0  0
    1.9817    1.7764    5.3220 H   0  0  0  0  0  0  0  0  0  0  0  0
    1.3137    0.1849    4.9657 H   0  0  0  0  0  0  0  0  0  0  0  0
    2.1570    2.3686    3.0025 H   0  0  0  0  0  0  0  0  0  0  0  0
    0.8132    1.2205    2.8381 H   0  0  0  0  0  0  0  0  0  0  0  0
    4.9229   -4.5827    1.0956 H   0  0  0  0  0  0  0  0  0  0  0  0
    6.7073   -5.5126   -0.4040 H   0  0  0  0  0  0  0  0  0  0  0  0
    7.4625   -4.2736   -2.4053 H   0  0  0  0  0  0  0  0  0  0  0  0
    6.4649   -2.0436   -2.9994 H   0  0  0  0  0  0  0  0  0  0  0  0
    1.2621   -2.1087    0.2974 H   0  0  0  0  0  0  0  0  0  0  0  0
   -1.2053   -2.3563    0.1737 H   0  0  0  0  0  0  0  0  0  0  0  0
  1  2  2  0
  1 22  1  0
  1 23  1  0
  2  3  1  0
  2 24  1  0
  3  4  2  0
  3 25  1  0
  4  5  1  0
  4 21  1  0
  5  6  1  0
  5 12  1  0
  5 26  1  6
  6  7  1  0
  7  8  1  0
  7 11  1  0
  7 27  1  6
  8  9  1  0
  8 28  1  0
  8 29  1  0
  9 10  1  0
  9 30  1  0
  9 31  1  0
 10 11  1  0
 10 32  1  0
 10 33  1  0
 11 34  1  0
 11 35  1  0
 12 13  2  0
 12 20  1  0
 13 14  1  0
 14 15  2  0
 14 19  1  0
 15 16  1  0
 15 36  1  0
 16 17  2  0
 16 37  1  0
 17 18  1  0
 17 38  1  0
 18 19  2  0
 18 39  1  0
 19 20  1  0
 21 22  2  0
 21 40  1  0
 22 41  1  0
M  END

