
     RDKit          3D

 32 33  0  0  0  0  0  0  0  0999 V2000
    1.1719   -0.4120    0.3702 C   0  0  0  0  0  0  0  0  0  0  0  0
    2.1844    0.1722   -0.4814 N   0  0  0  0  0  0  0  0  0  0  0  0
    2.8866   -0.5043   -1.4137 C   0  0  0  0  0  0  0  0  0  0  0  0
    3.7896    0.2253   -2.1076 N   0  0  0  0  0  0  0  0  0  0  0  0
    4.5066   -0.3874   -3.0373 C   0  0  0  0  0  0  0  0  0  0  0  0
    5.4858    0.5008   -3.7582 C   0  0  0  0  0  0  0  0  0  0  0  0
    4.3245   -1.7821   -3.2927 C   0  0  0  0  0  0  0  0  0  0  0  0
    5.0966   -2.4565   -4.3021 N   0  0  0  0  0  0  0  0  0  0  0  0
    5.9152   -1.8274   -4.9575 O   0  0  0  0  0  0  0  0  0  0  0  0
    4.9162   -3.6731   -4.4907 O   0  0  0  0  0  0  0  0  0  0  0  0
    3.3323   -2.4756   -2.4920 C   0  0  0  0  0  0  0  0  0  0  0  0
    3.0981   -3.7991   -2.6672 N   0  0  0  0  0  0  0  0  0  0  0  0
    2.2138   -4.6853   -2.0383 C   0  0  0  0  0  0  0  0  0  0  0  0
    2.2463   -6.0233   -2.4860 C   0  0  0  0  0  0  0  0  0  0  0  0
    1.4082   -6.9833   -1.9280 C   0  0  0  0  0  0  0  0  0  0  0  0
    0.5146   -6.6386   -0.9090 C   0  0  0  0  0  0  0  0  0  0  0  0
   -0.5438   -7.8194   -0.1945 Cl  0  0  0  0  0  0  0  0  0  0  0  0
    0.4866   -5.3115   -0.4693 C   0  0  0  0  0  0  0  0  0  0  0  0
   -0.3579   -4.9559    0.5030 F   0  0  0  0  0  0  0  0  0  0  0  0
    1.3165   -4.3375   -1.0146 C   0  0  0  0  0  0  0  0  0  0  0  0
    2.6374   -1.8068   -1.5688 N   0  0  0  0  0  0  0  0  0  0  0  0
    0.7680    0.3699    1.0270 H   0  0  0  0  0  0  0  0  0  0  0  0
    1.5860   -1.2178    0.9985 H   0  0  0  0  0  0  0  0  0  0  0  0
    0.3427   -0.8372   -0.2189 H   0  0  0  0  0  0  0  0  0  0  0  0
    2.4140    1.1557   -0.4062 H   0  0  0  0  0  0  0  0  0  0  0  0
    5.3934    1.5082   -3.3342 H   0  0  0  0  0  0  0  0  0  0  0  0
    5.2878    0.5223   -4.8391 H   0  0  0  0  0  0  0  0  0  0  0  0
    6.5162    0.1340   -3.6513 H   0  0  0  0  0  0  0  0  0  0  0  0
    3.6971   -4.1896   -3.4027 H   0  0  0  0  0  0  0  0  0  0  0  0
    2.9381   -6.3108   -3.2812 H   0  0  0  0  0  0  0  0  0  0  0  0
    1.4390   -8.0159   -2.2793 H   0  0  0  0  0  0  0  0  0  0  0  0
    1.2631   -3.3192   -0.6442 H   0  0  0  0  0  0  0  0  0  0  0  0
  1  2  1  0
  1 22  1  0
  1 23  1  0
  1 24  1  0
  2  3  1  0
  2 25  1  0
  3  4  2  0
  3 21  1  0
  4  5  1  0
  5  6  1  0
  5  7  2  0
  6 26  1  0
  6 27  1  0
  6 28  1  0
  7  8  1  0
  7 11  1  0
  8  9  2  0
  8 10  1  0
 11 12  1  0
 11 21  2  0
 12 13  1  0
 12 29  1  0
 13 14  2  0
 13 20  1  0
 14 15  1  0
 14 30  1  0
 15 16  2  0
 15 31  1  0
 16 17  1  0
 16 18  1  0
 18 19  1  0
 18 20  2  0
 20 32  1  0
M  CHG  2   8   1  10  -1
M  END

