
     RDKit          3D

 20 19  0  0  0  0  0  0  0  0999 V2000
    1.5686   -0.5135    0.8820 C   0  0  0  0  0  0  0  0  0  0  0  0
    2.8199    0.0155    0.2257 C   0  0  0  0  0  0  0  0  0  0  0  0
    3.2823    1.1084    0.4676 O   0  0  0  0  0  0  0  0  0  0  0  0
    3.5264   -0.8844   -0.8121 C   0  0  1  0  0  0  0  0  0  0  0  0
    2.9547   -0.5691   -2.2107 C   0  0  0  0  0  0  0  0  0  0  0  0
    3.4402   -1.5391   -3.2903 C   0  0  0  0  0  0  0  0  0  0  0  0
    2.8055   -1.1709   -4.5572 N   0  0  0  0  0  0  0  0  0  0  0  0
    3.3259   -2.2675   -5.8523 Cl  0  0  0  0  0  0  0  0  0  0  0  0
    4.9703   -0.6574   -0.8413 N   0  0  0  0  0  0  0  0  0  0  0  0
    5.7284   -1.3620    0.6092 Cl  0  0  0  0  0  0  0  0  0  0  0  0
    1.0362    0.2960    1.3982 H   0  0  0  0  0  0  0  0  0  0  0  0
    1.8644   -1.2791    1.6205 H   0  0  0  0  0  0  0  0  0  0  0  0
    0.9052   -1.0089    0.1555 H   0  0  0  0  0  0  0  0  0  0  0  0
    3.3462   -1.9462   -0.5810 H   0  0  0  0  0  0  0  0  0  0  0  0
    3.2326    0.4682   -2.4713 H   0  0  0  0  0  0  0  0  0  0  0  0
    1.8531   -0.5942   -2.1748 H   0  0  0  0  0  0  0  0  0  0  0  0
    3.1180   -2.5635   -3.0425 H   0  0  0  0  0  0  0  0  0  0  0  0
    4.5441   -1.5405   -3.3289 H   0  0  0  0  0  0  0  0  0  0  0  0
    3.1737   -0.2681   -4.8674 H   0  0  0  0  0  0  0  0  0  0  0  0
    5.1042    0.3500   -0.6870 H   0  0  0  0  0  0  0  0  0  0  0  0
  1  2  1  0
  1 11  1  0
  1 12  1  0
  1 13  1  0
  2  3  2  0
  2  4  1  0
  4  5  1  0
  4  9  1  0
  4 14  1  1
  5  6  1  0
  5 15  1  0
  5 16  1  0
  6  7  1  0
  6 17  1  0
  6 18  1  0
  7  8  1  0
  7 19  1  0
  9 10  1  0
  9 20  1  0
M  END

