
     RDKit          3D

 44 44  0  0  0  0  0  0  0  0999 V2000
    2.6912   -3.4580   -1.0864 C   0  0  0  0  0  0  0  0  0  0  0  0
    2.3636   -2.3119   -0.1274 C   0  0  0  0  0  0  0  0  0  0  0  0
    2.8454   -0.9341   -0.6304 C   0  0  1  0  0  0  0  0  0  0  0  0
    2.3363   -0.5284   -1.9499 N   0  0  0  0  0  0  0  0  0  0  0  0
    0.9074   -0.6301   -2.2665 C   0  0  1  0  0  0  0  0  0  0  0  0
    0.0630    0.3549   -1.4517 C   0  0  0  0  0  0  0  0  0  0  0  0
    0.7111   -0.3784   -3.7730 C   0  0  0  0  0  0  0  0  0  0  0  0
    1.3210   -1.4346   -4.7030 C   0  0  0  0  0  0  0  0  0  0  0  0
    0.9563   -1.2840   -6.1935 C   0  0  1  0  0  0  0  0  0  0  0  0
    1.4751    0.0267   -6.8000 C   0  0  0  0  0  0  0  0  0  0  0  0
    1.4579   -2.4906   -6.9972 C   0  0  0  0  0  0  0  0  0  0  0  0
    2.7080    0.1988    0.3971 C   0  0  0  0  0  0  0  0  0  0  0  0
    2.2685    0.0075    1.7149 C   0  0  0  0  0  0  0  0  0  0  0  0
    2.2053    1.0706    2.6245 C   0  0  0  0  0  0  0  0  0  0  0  0
    2.5926    2.3386    2.2080 C   0  0  0  0  0  0  0  0  0  0  0  0
    2.5371    3.3642    3.0737 F   0  0  0  0  0  0  0  0  0  0  0  0
    3.0372    2.5675    0.9063 C   0  0  0  0  0  0  0  0  0  0  0  0
    3.0879    1.4978    0.0140 C   0  0  0  0  0  0  0  0  0  0  0  0
    2.3622   -4.4254   -0.6755 H   0  0  0  0  0  0  0  0  0  0  0  0
    3.7774   -3.5283   -1.2666 H   0  0  0  0  0  0  0  0  0  0  0  0
    2.2021   -3.3334   -2.0650 H   0  0  0  0  0  0  0  0  0  0  0  0
    2.8469   -2.5183    0.8413 H   0  0  0  0  0  0  0  0  0  0  0  0
    1.2788   -2.2869    0.0752 H   0  0  0  0  0  0  0  0  0  0  0  0
    3.9353   -1.0412   -0.7896 H   0  0  0  0  0  0  0  0  0  0  0  0
    2.8743   -1.0012   -2.6692 H   0  0  0  0  0  0  0  0  0  0  0  0
    0.5131   -1.6503   -2.0574 H   0  0  0  0  0  0  0  0  0  0  0  0
    0.3863    1.3916   -1.6351 H   0  0  0  0  0  0  0  0  0  0  0  0
    0.1362    0.1709   -0.3709 H   0  0  0  0  0  0  0  0  0  0  0  0
   -0.9980    0.2638   -1.7352 H   0  0  0  0  0  0  0  0  0  0  0  0
    1.1168    0.6212   -4.0044 H   0  0  0  0  0  0  0  0  0  0  0  0
   -0.3748   -0.3303   -3.9665 H   0  0  0  0  0  0  0  0  0  0  0  0
    0.9923   -2.4345   -4.3646 H   0  0  0  0  0  0  0  0  0  0  0  0
    2.4252   -1.4345   -4.6231 H   0  0  0  0  0  0  0  0  0  0  0  0
   -0.1487   -1.2722   -6.2609 H   0  0  0  0  0  0  0  0  0  0  0  0
    2.5760    0.0816   -6.7355 H   0  0  0  0  0  0  0  0  0  0  0  0
    1.0666    0.9124   -6.2899 H   0  0  0  0  0  0  0  0  0  0  0  0
    1.2019    0.1043   -7.8649 H   0  0  0  0  0  0  0  0  0  0  0  0
    2.5593   -2.5577   -6.9636 H   0  0  0  0  0  0  0  0  0  0  0  0
    1.1633   -2.4183   -8.0568 H   0  0  0  0  0  0  0  0  0  0  0  0
    1.0554   -3.4371   -6.6007 H   0  0  0  0  0  0  0  0  0  0  0  0
    1.9594   -0.9803    2.0587 H   0  0  0  0  0  0  0  0  0  0  0  0
    1.8586    0.9244    3.6495 H   0  0  0  0  0  0  0  0  0  0  0  0
    3.3334    3.5763    0.6107 H   0  0  0  0  0  0  0  0  0  0  0  0
    3.4112    1.6620   -1.0159 H   0  0  0  0  0  0  0  0  0  0  0  0
  1  2  1  0
  1 19  1  0
  1 20  1  0
  1 21  1  0
  2  3  1  0
  2 22  1  0
  2 23  1  0
  3  4  1  0
  3 12  1  0
  3 24  1  6
  4  5  1  0
  4 25  1  0
  5  6  1  0
  5  7  1  0
  5 26  1  6
  6 27  1  0
  6 28  1  0
  6 29  1  0
  7  8  1  0
  7 30  1  0
  7 31  1  0
  8  9  1  0
  8 32  1  0
  8 33  1  0
  9 10  1  0
  9 11  1  0
  9 34  1  1
 10 35  1  0
 10 36  1  0
 10 37  1  0
 11 38  1  0
 11 39  1  0
 11 40  1  0
 12 13  2  0
 12 18  1  0
 13 14  1  0
 13 41  1  0
 14 15  2  0
 14 42  1  0
 15 16  1  0
 15 17  1  0
 17 18  2  0
 17 43  1  0
 18 44  1  0
M  END

