
     RDKit          3D

 74 78  0  0  0  0  0  0  0  0999 V2000
    3.2178    1.4176    0.5022 C   0  0  0  0  0  0  0  0  0  0  0  0
    4.4836    1.9609    0.1944 O   0  0  0  0  0  0  0  0  0  0  0  0
    5.4758    0.9922   -0.0554 C   0  0  0  0  0  0  0  0  0  0  0  0
    5.4025    0.2695   -1.4145 C   0  0  0  0  0  0  0  0  0  0  0  0
    5.6031   -0.9337   -1.4597 O   0  0  0  0  0  0  0  0  0  0  0  0
    5.1211    1.0164   -2.5330 N   0  0  0  0  0  0  0  0  0  0  0  0
    5.3233    2.4684   -2.5987 C   0  0  1  0  0  0  0  0  0  0  0  0
    6.7939    2.8376   -2.2915 C   0  0  0  0  0  0  0  0  0  0  0  0
    7.6797    2.0051   -2.4519 O   0  0  0  0  0  0  0  0  0  0  0  0
    7.0514    4.1114   -1.8675 N   0  0  0  0  0  0  0  0  0  0  0  0
    6.0749    5.1703   -1.6114 C   0  0  0  0  0  0  0  0  0  0  0  0
    6.1591    5.6168   -0.1494 C   0  0  0  0  0  0  0  0  0  0  0  0
    7.5240    6.0306    0.1452 N   0  0  0  0  0  0  0  0  0  0  0  0
    8.4858    4.9569   -0.0670 C   0  0  0  0  0  0  0  0  0  0  0  0
    8.4232    4.4929   -1.5233 C   0  0  0  0  0  0  0  0  0  0  0  0
    4.9714    2.8404   -4.0639 C   0  0  2  0  0  0  0  0  0  0  0  0
    3.5260    3.3087   -4.2233 C   0  0  0  0  0  0  0  0  0  0  0  0
    3.2197    4.2961   -5.1754 C   0  0  0  0  0  0  0  0  0  0  0  0
    1.9283    4.8050   -5.3117 C   0  0  0  0  0  0  0  0  0  0  0  0
    0.9218    4.3203   -4.4790 C   0  0  0  0  0  0  0  0  0  0  0  0
   -0.3230    4.8062   -4.6009 F   0  0  0  0  0  0  0  0  0  0  0  0
    1.1840    3.3471   -3.5203 C   0  0  0  0  0  0  0  0  0  0  0  0
    2.4854    2.8508   -3.3982 C   0  0  0  0  0  0  0  0  0  0  0  0
    5.5089    1.5666   -4.7934 C   0  0  2  0  0  0  0  0  0  0  0  0
    5.2319    1.4199   -6.2865 C   0  0  0  0  0  0  0  0  0  0  0  0
    4.4734    2.1730   -6.8689 O   0  0  0  0  0  0  0  0  0  0  0  0
    5.9630    0.3502   -7.0489 C   0  0  0  0  0  0  0  0  0  0  0  0
    5.5041    0.0499   -8.3449 C   0  0  0  0  0  0  0  0  0  0  0  0
    6.1520   -0.9180   -9.1053 C   0  0  0  0  0  0  0  0  0  0  0  0
    7.2703   -1.5858   -8.5907 C   0  0  0  0  0  0  0  0  0  0  0  0
    7.7583   -1.2970   -7.3088 C   0  0  0  0  0  0  0  0  0  0  0  0
    8.9719   -1.9993   -6.7488 C   0  0  0  0  0  0  0  0  0  0  0  0
    7.0869   -0.3258   -6.5485 C   0  0  0  0  0  0  0  0  0  0  0  0
    5.1918    0.3563   -3.8642 C   0  0  2  0  0  0  0  0  0  0  0  0
    3.9871   -0.5226   -4.2110 C   0  0  0  0  0  0  0  0  0  0  0  0
    4.0244   -1.8831   -3.8523 C   0  0  0  0  0  0  0  0  0  0  0  0
    2.9689   -2.7446   -4.1522 C   0  0  0  0  0  0  0  0  0  0  0  0
    1.8594   -2.2420   -4.8276 C   0  0  0  0  0  0  0  0  0  0  0  0
    0.8402   -3.0647   -5.1217 F   0  0  0  0  0  0  0  0  0  0  0  0
    1.7904   -0.9066   -5.2102 C   0  0  0  0  0  0  0  0  0  0  0  0
    2.8559   -0.0558   -4.9006 C   0  0  0  0  0  0  0  0  0  0  0  0
    2.5300    2.2578    0.6737 H   0  0  0  0  0  0  0  0  0  0  0  0
    3.2577    0.7964    1.4177 H   0  0  0  0  0  0  0  0  0  0  0  0
    2.8186    0.7927   -0.3191 H   0  0  0  0  0  0  0  0  0  0  0  0
    5.4626    0.1889    0.7022 H   0  0  0  0  0  0  0  0  0  0  0  0
    6.4509    1.5004    0.0118 H   0  0  0  0  0  0  0  0  0  0  0  0
    4.6576    2.9557   -1.8825 H   0  0  0  0  0  0  0  0  0  0  0  0
    5.0601    4.8385   -1.8537 H   0  0  0  0  0  0  0  0  0  0  0  0
    6.3099    6.0311   -2.2632 H   0  0  0  0  0  0  0  0  0  0  0  0
    5.8029    4.7746    0.4860 H   0  0  0  0  0  0  0  0  0  0  0  0
    5.4777    6.4684    0.0092 H   0  0  0  0  0  0  0  0  0  0  0  0
    7.5952    6.4024    1.0897 H   0  0  0  0  0  0  0  0  0  0  0  0
    8.3046    4.0745    0.5884 H   0  0  0  0  0  0  0  0  0  0  0  0
    9.5001    5.3279    0.1526 H   0  0  0  0  0  0  0  0  0  0  0  0
    9.0690    3.6247   -1.6992 H   0  0  0  0  0  0  0  0  0  0  0  0
    8.7424    5.3194   -2.1832 H   0  0  0  0  0  0  0  0  0  0  0  0
    5.5993    3.6841   -4.3871 H   0  0  0  0  0  0  0  0  0  0  0  0
    4.0065    4.6664   -5.8352 H   0  0  0  0  0  0  0  0  0  0  0  0
    1.6909    5.5703   -6.0531 H   0  0  0  0  0  0  0  0  0  0  0  0
    0.3739    2.9873   -2.8831 H   0  0  0  0  0  0  0  0  0  0  0  0
    2.6819    2.0790   -2.6525 H   0  0  0  0  0  0  0  0  0  0  0  0
    6.6037    1.6703   -4.7227 H   0  0  0  0  0  0  0  0  0  0  0  0
    4.6368    0.5902   -8.7277 H   0  0  0  0  0  0  0  0  0  0  0  0
    5.7898   -1.1593  -10.1079 H   0  0  0  0  0  0  0  0  0  0  0  0
    7.7739   -2.3437   -9.1976 H   0  0  0  0  0  0  0  0  0  0  0  0
    9.3592   -2.7558   -7.4469 H   0  0  0  0  0  0  0  0  0  0  0  0
    8.7384   -2.5051   -5.7976 H   0  0  0  0  0  0  0  0  0  0  0  0
    9.7863   -1.2853   -6.5407 H   0  0  0  0  0  0  0  0  0  0  0  0
    7.4729   -0.0938   -5.5534 H   0  0  0  0  0  0  0  0  0  0  0  0
    6.0611   -0.3150   -3.8334 H   0  0  0  0  0  0  0  0  0  0  0  0
    4.8890   -2.2610   -3.3060 H   0  0  0  0  0  0  0  0  0  0  0  0
    2.9954   -3.7994   -3.8714 H   0  0  0  0  0  0  0  0  0  0  0  0
    0.9136   -0.5445   -5.7505 H   0  0  0  0  0  0  0  0  0  0  0  0
    2.7907    0.9809   -5.2244 H   0  0  0  0  0  0  0  0  0  0  0  0
  1  2  1  0
  1 42  1  0
  1 43  1  0
  1 44  1  0
  2  3  1  0
  3  4  1  0
  3 45  1  0
  3 46  1  0
  4  5  2  0
  4  6  1  0
  6  7  1  0
  6 34  1  0
  7  8  1  0
  7 16  1  0
  7 47  1  1
  8  9  2  0
  8 10  1  0
 10 11  1  0
 10 15  1  0
 11 12  1  0
 11 48  1  0
 11 49  1  0
 12 13  1  0
 12 50  1  0
 12 51  1  0
 13 14  1  0
 13 52  1  0
 14 15  1  0
 14 53  1  0
 14 54  1  0
 15 55  1  0
 15 56  1  0
 16 17  1  0
 16 24  1  0
 16 57  1  6
 17 18  2  0
 17 23  1  0
 18 19  1  0
 18 58  1  0
 19 20  2  0
 19 59  1  0
 20 21  1  0
 20 22  1  0
 22 23  2  0
 22 60  1  0
 23 61  1  0
 24 25  1  0
 24 34  1  0
 24 62  1  6
 25 26  2  0
 25 27  1  0
 27 28  2  0
 27 33  1  0
 28 29  1  0
 28 63  1  0
 29 30  2  0
 29 64  1  0
 30 31  1  0
 30 65  1  0
 31 32  1  0
 31 33  2  0
 32 66  1  0
 32 67  1  0
 32 68  1  0
 33 69  1  0
 34 35  1  0
 34 70  1  1
 35 36  2  0
 35 41  1  0
 36 37  1  0
 36 71  1  0
 37 38  2  0
 37 72  1  0
 38 39  1  0
 38 40  1  0
 40 41  2  0
 40 73  1  0
 41 74  1  0
M  END

