
     RDKit          3D

 38 39  0  0  0  0  0  0  0  0999 V2000
    1.2775   -0.4358    1.3435 C   0  0  0  0  0  0  0  0  0  0  0  0
    2.6745   -0.3713    1.0693 O   0  0  0  0  0  0  0  0  0  0  0  0
    3.2025    0.8662    0.9610 C   0  0  0  0  0  0  0  0  0  0  0  0
    2.5423    1.8732    1.0862 O   0  0  0  0  0  0  0  0  0  0  0  0
    4.6642    0.8419    0.6745 C   0  0  0  0  0  0  0  0  0  0  0  0
    5.3329    2.0700    0.5372 C   0  0  0  0  0  0  0  0  0  0  0  0
    6.6959    2.1075    0.2699 C   0  0  0  0  0  0  0  0  0  0  0  0
    7.4358    0.9094    0.1312 C   0  0  0  0  0  0  0  0  0  0  0  0
    8.8330    0.9429   -0.1426 C   0  0  0  0  0  0  0  0  0  0  0  0
   10.0317    0.9727   -0.3776 C   0  0  0  0  0  0  0  0  0  0  0  0
   11.4279    1.0083   -0.6516 C   0  0  0  0  0  0  0  0  0  0  0  0
   12.1183    2.2319   -0.7962 C   0  0  0  0  0  0  0  0  0  0  0  0
   13.4798    2.2731   -1.0638 C   0  0  0  0  0  0  0  0  0  0  0  0
   14.2386    1.0810   -1.2039 C   0  0  0  0  0  0  0  0  0  0  0  0
   15.5916    1.1161   -1.4701 N   0  0  0  0  0  0  0  0  0  0  0  0
   16.3381   -0.1182   -1.6073 C   0  0  0  0  0  0  0  0  0  0  0  0
   16.2714    2.3876   -1.6145 C   0  0  0  0  0  0  0  0  0  0  0  0
   13.5436   -0.1486   -1.0579 C   0  0  0  0  0  0  0  0  0  0  0  0
   12.1817   -0.1777   -0.7904 C   0  0  0  0  0  0  0  0  0  0  0  0
    6.7546   -0.3222    0.2709 C   0  0  0  0  0  0  0  0  0  0  0  0
    5.3901   -0.3538    0.5383 C   0  0  0  0  0  0  0  0  0  0  0  0
    1.0238   -1.5019    1.3967 H   0  0  0  0  0  0  0  0  0  0  0  0
    0.6974    0.0551    0.5470 H   0  0  0  0  0  0  0  0  0  0  0  0
    1.0408    0.0605    2.2973 H   0  0  0  0  0  0  0  0  0  0  0  0
    4.7566    2.9909    0.6453 H   0  0  0  0  0  0  0  0  0  0  0  0
    7.2103    3.0647    0.1640 H   0  0  0  0  0  0  0  0  0  0  0  0
   11.5651    3.1682   -0.6947 H   0  0  0  0  0  0  0  0  0  0  0  0
   13.9584    3.2462   -1.1647 H   0  0  0  0  0  0  0  0  0  0  0  0
   16.3044   -0.7313   -0.6877 H   0  0  0  0  0  0  0  0  0  0  0  0
   17.3905    0.1136   -1.8146 H   0  0  0  0  0  0  0  0  0  0  0  0
   15.9622   -0.7439   -2.4378 H   0  0  0  0  0  0  0  0  0  0  0  0
   15.8601    2.9890   -2.4462 H   0  0  0  0  0  0  0  0  0  0  0  0
   17.3339    2.2111   -1.8244 H   0  0  0  0  0  0  0  0  0  0  0  0
   16.2079    3.0019   -0.6972 H   0  0  0  0  0  0  0  0  0  0  0  0
   14.0726   -1.0958   -1.1543 H   0  0  0  0  0  0  0  0  0  0  0  0
   11.6786   -1.1415   -0.6844 H   0  0  0  0  0  0  0  0  0  0  0  0
    7.3151   -1.2532    0.1657 H   0  0  0  0  0  0  0  0  0  0  0  0
    4.8733   -1.3083    0.6443 H   0  0  0  0  0  0  0  0  0  0  0  0
  1  2  1  0
  1 22  1  0
  1 23  1  0
  1 24  1  0
  2  3  1  0
  3  4  2  0
  3  5  1  0
  5  6  2  0
  5 21  1  0
  6  7  1  0
  6 25  1  0
  7  8  2  0
  7 26  1  0
  8  9  1  0
  8 20  1  0
  9 10  3  0
 10 11  1  0
 11 12  2  0
 11 19  1  0
 12 13  1  0
 12 27  1  0
 13 14  2  0
 13 28  1  0
 14 15  1  0
 14 18  1  0
 15 16  1  0
 15 17  1  0
 16 29  1  0
 16 30  1  0
 16 31  1  0
 17 32  1  0
 17 33  1  0
 17 34  1  0
 18 19  2  0
 18 35  1  0
 19 36  1  0
 20 21  2  0
 20 37  1  0
 21 38  1  0
M  END

