
     RDKit          3D

 49 51  0  0  0  0  0  0  0  0999 V2000
    0.9428    0.1605    0.1811 C   0  0  0  0  0  0  0  0  0  0  0  0
    2.4761    0.1263    0.1445 C   0  0  1  0  0  0  0  0  0  0  0  0
    3.0665   -1.2782   -0.1247 C   0  0  0  0  0  0  0  0  0  0  0  0
    2.9382   -1.7338   -1.5854 C   0  0  0  0  0  0  0  0  0  0  0  0
    3.4897   -0.6742   -2.5591 C   0  0  2  0  0  0  0  0  0  0  0  0
    5.0362   -0.7048   -2.5851 C   0  0  0  0  0  0  0  0  0  0  0  0
    5.6173   -1.7611   -2.6145 O   0  0  0  0  0  0  0  0  0  0  0  0
    5.7112    0.4459   -2.6438 O   0  0  0  0  0  0  0  0  0  0  0  0
    2.8393    0.6776   -2.2540 C   0  0  0  0  0  0  0  0  0  0  0  0
    3.0300    1.0659   -0.8524 N   0  0  0  0  0  0  0  0  0  0  0  0
    3.8973    2.0803   -0.5737 C   0  0  0  0  0  0  0  0  0  0  0  0
    4.5651    2.6124   -1.4676 O   0  0  0  0  0  0  0  0  0  0  0  0
    4.0327    2.5512    0.8680 C   0  0  0  0  0  0  0  0  0  0  0  0
    4.7887    3.8761    0.9622 C   0  0  0  0  0  0  0  0  0  0  0  0
    5.1137    4.2382    2.3722 C   0  0  0  0  0  0  0  0  0  0  0  0
    5.1587    3.4717    3.4211 N   0  0  0  0  0  0  0  0  0  0  0  0
    5.5484    4.3414    4.4200 C   0  0  0  0  0  0  0  0  0  0  0  0
    5.7467    3.9280    5.8422 C   0  0  1  0  0  0  0  0  0  0  0  0
    4.4912    3.3262    6.5087 C   0  0  0  0  0  0  0  0  0  0  0  0
    5.0613    2.6575    7.7653 C   0  0  0  0  0  0  0  0  0  0  0  0
    6.3940    2.0268    7.2969 C   0  0  0  0  0  0  0  0  0  0  0  0
    6.8213    2.8217    6.0306 C   0  0  0  0  0  0  0  0  0  0  0  0
    5.7283    5.5710    4.0080 N   0  0  0  0  0  0  0  0  0  0  0  0
    5.4374    5.5078    2.6442 O   0  0  0  0  0  0  0  0  0  0  0  0
    0.5748   -0.4791    0.9980 H   0  0  0  0  0  0  0  0  0  0  0  0
    0.4853   -0.2026   -0.7514 H   0  0  0  0  0  0  0  0  0  0  0  0
    0.5801    1.1847    0.3593 H   0  0  0  0  0  0  0  0  0  0  0  0
    2.8318    0.4485    1.1305 H   0  0  0  0  0  0  0  0  0  0  0  0
    2.5841   -2.0071    0.5469 H   0  0  0  0  0  0  0  0  0  0  0  0
    4.1352   -1.2607    0.1496 H   0  0  0  0  0  0  0  0  0  0  0  0
    1.8812   -1.9284   -1.8339 H   0  0  0  0  0  0  0  0  0  0  0  0
    3.4850   -2.6752   -1.7351 H   0  0  0  0  0  0  0  0  0  0  0  0
    3.2047   -0.9638   -3.5864 H   0  0  0  0  0  0  0  0  0  0  0  0
    5.2034    1.2627   -2.4231 H   0  0  0  0  0  0  0  0  0  0  0  0
    1.7576    0.6024   -2.4505 H   0  0  0  0  0  0  0  0  0  0  0  0
    3.2224    1.4849   -2.8884 H   0  0  0  0  0  0  0  0  0  0  0  0
    4.5763    1.7868    1.4483 H   0  0  0  0  0  0  0  0  0  0  0  0
    3.0427    2.6365    1.3421 H   0  0  0  0  0  0  0  0  0  0  0  0
    4.2201    4.6984    0.5011 H   0  0  0  0  0  0  0  0  0  0  0  0
    5.7234    3.8089    0.3816 H   0  0  0  0  0  0  0  0  0  0  0  0
    6.0442    4.8315    6.3978 H   0  0  0  0  0  0  0  0  0  0  0  0
    4.0489    2.5740    5.8331 H   0  0  0  0  0  0  0  0  0  0  0  0
    3.7184    4.0818    6.7202 H   0  0  0  0  0  0  0  0  0  0  0  0
    4.3727    1.9248    8.2140 H   0  0  0  0  0  0  0  0  0  0  0  0
    5.2547    3.4275    8.5314 H   0  0  0  0  0  0  0  0  0  0  0  0
    6.2507    0.9637    7.0470 H   0  0  0  0  0  0  0  0  0  0  0  0
    7.1594    2.0609    8.0873 H   0  0  0  0  0  0  0  0  0  0  0  0
    6.8261    2.1670    5.1458 H   0  0  0  0  0  0  0  0  0  0  0  0
    7.8290    3.2557    6.1151 H   0  0  0  0  0  0  0  0  0  0  0  0
  1  2  1  0
  1 25  1  0
  1 26  1  0
  1 27  1  0
  2  3  1  0
  2 10  1  0
  2 28  1  1
  3  4  1  0
  3 29  1  0
  3 30  1  0
  4  5  1  0
  4 31  1  0
  4 32  1  0
  5  6  1  0
  5  9  1  0
  5 33  1  6
  6  7  2  0
  6  8  1  0
  8 34  1  0
  9 10  1  0
  9 35  1  0
  9 36  1  0
 10 11  1  0
 11 12  2  0
 11 13  1  0
 13 14  1  0
 13 37  1  0
 13 38  1  0
 14 15  1  0
 14 39  1  0
 14 40  1  0
 15 16  2  0
 15 24  1  0
 16 17  1  0
 17 18  1  0
 17 23  2  0
 18 19  1  0
 18 22  1  0
 18 41  1  1
 19 20  1  0
 19 42  1  0
 19 43  1  0
 20 21  1  0
 20 44  1  0
 20 45  1  0
 21 22  1  0
 21 46  1  0
 21 47  1  0
 22 48  1  0
 22 49  1  0
 23 24  1  0
M  END

