
     RDKit          3D

 54 56  0  0  0  0  0  0  0  0999 V2000
    1.3728   -0.5183    0.7493 C   0  0  0  0  0  0  0  0  0  0  0  0
    2.8476   -0.6598    0.3481 C   0  0  1  0  0  0  0  0  0  0  0  0
    3.1757   -2.0536   -0.2485 C   0  0  0  0  0  0  0  0  0  0  0  0
    2.6495   -2.2343   -1.6857 C   0  0  2  0  0  0  0  0  0  0  0  0
    3.0390   -3.5045   -2.3131 N   0  0  0  0  0  0  0  0  0  0  0  0
    2.5927   -4.7772   -1.7325 C   0  0  1  0  0  0  0  0  0  0  0  0
    3.1095   -5.0259   -0.7865 H   0  0  0  0  0  0  0  0  0  0  0  0
    1.0734   -4.8621   -1.4235 C   0  0  0  0  0  0  0  0  0  0  0  0
    0.1157   -4.6858   -2.5880 C   0  0  0  0  0  0  0  0  0  0  0  0
   -0.0570   -5.7077   -3.5392 C   0  0  0  0  0  0  0  0  0  0  0  0
   -0.9462   -5.5527   -4.6053 C   0  0  0  0  0  0  0  0  0  0  0  0
   -1.6913   -4.3771   -4.7390 C   0  0  0  0  0  0  0  0  0  0  0  0
   -1.5462   -3.3613   -3.7911 C   0  0  0  0  0  0  0  0  0  0  0  0
   -0.6528   -3.5190   -2.7272 C   0  0  0  0  0  0  0  0  0  0  0  0
    2.9691   -5.9072   -2.7142 C   0  0  0  0  0  0  0  0  0  0  0  0
    3.0263   -7.0642   -2.3871 O   0  0  0  0  0  0  0  0  0  0  0  0
    3.1794   -5.4869   -3.9645 O   0  0  0  0  0  0  0  0  0  0  0  0
    3.1322   -1.0688   -2.5581 C   0  0  0  0  0  0  0  0  0  0  0  0
    2.7807    0.2807   -1.9082 C   0  0  0  0  0  0  0  0  0  0  0  0
    3.2713    0.4336   -0.5422 N   0  0  0  0  0  0  0  0  0  0  0  0
    4.6780    0.7971   -0.4247 C   0  0  0  0  0  0  0  0  0  0  0  0
    5.0157    1.4986    0.8812 C   0  0  0  0  0  0  0  0  0  0  0  0
    6.1978    1.1988    1.5725 C   0  0  0  0  0  0  0  0  0  0  0  0
    6.5360    1.8808    2.7465 C   0  0  0  0  0  0  0  0  0  0  0  0
    5.6888    2.8715    3.2487 C   0  0  0  0  0  0  0  0  0  0  0  0
    4.5028    3.1744    2.5699 C   0  0  0  0  0  0  0  0  0  0  0  0
    4.1698    2.4937    1.3972 C   0  0  0  0  0  0  0  0  0  0  0  0
    1.0946   -1.2950    1.4794 H   0  0  0  0  0  0  0  0  0  0  0  0
    0.6853   -0.6091   -0.1063 H   0  0  0  0  0  0  0  0  0  0  0  0
    1.2014    0.4658    1.2099 H   0  0  0  0  0  0  0  0  0  0  0  0
    3.4350   -0.5514    1.2734 H   0  0  0  0  0  0  0  0  0  0  0  0
    2.7815   -2.8396    0.4169 H   0  0  0  0  0  0  0  0  0  0  0  0
    4.2731   -2.1880   -0.2676 H   0  0  0  0  0  0  0  0  0  0  0  0
    1.5502   -2.2039   -1.6745 H   0  0  0  0  0  0  0  0  0  0  0  0
    4.0601   -3.5235   -2.3611 H   0  0  0  0  0  0  0  0  0  0  0  0
    0.8321   -4.1370   -0.6315 H   0  0  0  0  0  0  0  0  0  0  0  0
    0.9289   -5.8606   -0.9811 H   0  0  0  0  0  0  0  0  0  0  0  0
    0.4997   -6.6423   -3.4373 H   0  0  0  0  0  0  0  0  0  0  0  0
   -1.0624   -6.3608   -5.3321 H   0  0  0  0  0  0  0  0  0  0  0  0
   -2.3889   -4.2584   -5.5720 H   0  0  0  0  0  0  0  0  0  0  0  0
   -2.1349   -2.4439   -3.8742 H   0  0  0  0  0  0  0  0  0  0  0  0
   -0.5672   -2.7240   -1.9808 H   0  0  0  0  0  0  0  0  0  0  0  0
    3.0287   -4.5119   -3.9377 H   0  0  0  0  0  0  0  0  0  0  0  0
    2.6814   -1.1435   -3.5612 H   0  0  0  0  0  0  0  0  0  0  0  0
    4.2274   -1.1462   -2.6942 H   0  0  0  0  0  0  0  0  0  0  0  0
    1.6822    0.3952   -1.9051 H   0  0  0  0  0  0  0  0  0  0  0  0
    3.1706    1.1116   -2.5169 H   0  0  0  0  0  0  0  0  0  0  0  0
    4.9056    1.4867   -1.2568 H   0  0  0  0  0  0  0  0  0  0  0  0
    5.3745   -0.0609   -0.5510 H   0  0  0  0  0  0  0  0  0  0  0  0
    6.8636    0.4201    1.1877 H   0  0  0  0  0  0  0  0  0  0  0  0
    7.4617    1.6319    3.2722 H   0  0  0  0  0  0  0  0  0  0  0  0
    5.9485    3.4037    4.1675 H   0  0  0  0  0  0  0  0  0  0  0  0
    3.8338    3.9473    2.9581 H   0  0  0  0  0  0  0  0  0  0  0  0
    3.2410    2.7189    0.8679 H   0  0  0  0  0  0  0  0  0  0  0  0
  1  2  1  0
  1 28  1  0
  1 29  1  0
  1 30  1  0
  2  3  1  0
  2 20  1  0
  2 31  1  1
  3  4  1  0
  3 32  1  0
  3 33  1  0
  4  5  1  0
  4 18  1  0
  4 34  1  1
  5  6  1  0
  5 35  1  0
  6  7  1  1
  6  8  1  0
  6 15  1  0
  8  9  1  0
  8 36  1  0
  8 37  1  0
  9 10  2  0
  9 14  1  0
 10 11  1  0
 10 38  1  0
 11 12  2  0
 11 39  1  0
 12 13  1  0
 12 40  1  0
 13 14  2  0
 13 41  1  0
 14 42  1  0
 15 16  2  0
 15 17  1  0
 17 43  1  0
 18 19  1  0
 18 44  1  0
 18 45  1  0
 19 20  1  0
 19 46  1  0
 19 47  1  0
 20 21  1  0
 21 22  1  0
 21 48  1  0
 21 49  1  0
 22 23  2  0
 22 27  1  0
 23 24  1  0
 23 50  1  0
 24 25  2  0
 24 51  1  0
 25 26  1  0
 25 52  1  0
 26 27  2  0
 26 53  1  0
 27 54  1  0
M  END

