
     RDKit          3D

 30 30  0  0  0  0  0  0  0  0999 V2000
    0.8135    0.0061    0.6005 C   0  0  0  0  0  0  0  0  0  0  0  0
    2.2610    0.0849    0.4662 N   0  0  0  0  0  0  0  0  0  0  0  0
    2.9992   -1.1639    0.5635 C   0  0  0  0  0  0  0  0  0  0  0  0
    3.2174   -1.8678   -0.7847 C   0  0  0  0  0  0  0  0  0  0  0  0
    4.0334   -3.1458   -0.6377 C   0  0  0  0  0  0  0  0  0  0  0  0
    4.5470   -3.4928    0.3908 O   0  0  0  0  0  0  0  0  0  0  0  0
    4.1695   -3.8864   -1.7582 O   0  0  0  0  0  0  0  0  0  0  0  0
    2.8073    1.2938    0.0607 C   0  0  0  0  0  0  0  0  0  0  0  0
    2.1241    2.2759   -0.1774 O   0  0  0  0  0  0  0  0  0  0  0  0
    4.1967    1.2963   -0.0528 N   0  0  0  0  0  0  0  0  0  0  0  0
    5.0217    2.3579   -0.4483 C   0  0  0  0  0  0  0  0  0  0  0  0
    4.5349    3.6024   -0.8828 C   0  0  0  0  0  0  0  0  0  0  0  0
    5.4409    4.5848   -1.2693 C   0  0  0  0  0  0  0  0  0  0  0  0
    4.9634    5.7596   -1.6789 F   0  0  0  0  0  0  0  0  0  0  0  0
    6.8268    4.3902   -1.2443 C   0  0  0  0  0  0  0  0  0  0  0  0
    8.0250    5.7480   -1.7752 Br  0  0  0  0  0  0  0  0  0  0  0  0
    7.2859    3.1435   -0.8057 C   0  0  0  0  0  0  0  0  0  0  0  0
    8.5971    2.9061   -0.7615 F   0  0  0  0  0  0  0  0  0  0  0  0
    6.4124    2.1374   -0.4129 C   0  0  0  0  0  0  0  0  0  0  0  0
    0.5419   -0.4242    1.5788 H   0  0  0  0  0  0  0  0  0  0  0  0
    0.3610   -0.6195   -0.1907 H   0  0  0  0  0  0  0  0  0  0  0  0
    0.3981    1.0164    0.5197 H   0  0  0  0  0  0  0  0  0  0  0  0
    2.4433   -1.8351    1.2343 H   0  0  0  0  0  0  0  0  0  0  0  0
    3.9692   -1.0290    1.0680 H   0  0  0  0  0  0  0  0  0  0  0  0
    3.7443   -1.1958   -1.4860 H   0  0  0  0  0  0  0  0  0  0  0  0
    2.2477   -2.1037   -1.2572 H   0  0  0  0  0  0  0  0  0  0  0  0
    3.7028   -3.4798   -2.5027 H   0  0  0  0  0  0  0  0  0  0  0  0
    4.6956    0.4811    0.2763 H   0  0  0  0  0  0  0  0  0  0  0  0
    3.4682    3.8066   -0.9120 H   0  0  0  0  0  0  0  0  0  0  0  0
    6.8370    1.1876   -0.0807 H   0  0  0  0  0  0  0  0  0  0  0  0
  1  2  1  0
  1 20  1  0
  1 21  1  0
  1 22  1  0
  2  3  1  0
  2  8  1  0
  3  4  1  0
  3 23  1  0
  3 24  1  0
  4  5  1  0
  4 25  1  0
  4 26  1  0
  5  6  2  0
  5  7  1  0
  7 27  1  0
  8  9  2  0
  8 10  1  0
 10 11  1  0
 10 28  1  0
 11 12  2  0
 11 19  1  0
 12 13  1  0
 12 29  1  0
 13 14  1  0
 13 15  2  0
 15 16  1  0
 15 17  1  0
 17 18  1  0
 17 19  2  0
 19 30  1  0
M  END

