
     RDKit          3D

 40 41  0  0  0  0  0  0  0  0999 V2000
    1.1546    0.1696    0.3873 C   0  0  0  0  0  0  0  0  0  0  0  0
    2.6390   -0.0944    0.0799 C   0  0  1  0  0  0  0  0  0  0  0  0
    2.9197   -1.5361   -0.3917 C   0  0  0  0  0  0  0  0  0  0  0  0
    2.5243   -1.7947   -1.8483 C   0  0  2  0  0  0  0  0  0  0  0  0
    2.8543   -3.2325   -2.2555 C   0  0  0  0  0  0  0  0  0  0  0  0
    3.3483   -4.0482   -1.5269 O   0  0  0  0  0  0  0  0  0  0  0  0
    2.5445   -3.5599   -3.5323 O   0  0  0  0  0  0  0  0  0  0  0  0
    3.1949   -0.7465   -2.7586 C   0  0  0  0  0  0  0  0  0  0  0  0
    2.8616    0.6687   -2.2862 C   0  0  0  0  0  0  0  0  0  0  0  0
    3.1961    0.8660   -0.8804 N   0  0  0  0  0  0  0  0  0  0  0  0
    3.8615    2.0405   -0.5430 C   0  0  0  0  0  0  0  0  0  0  0  0
    4.3287    2.7877   -1.3928 O   0  0  0  0  0  0  0  0  0  0  0  0
    3.9874    2.3126    0.8054 N   0  0  0  0  0  0  0  0  0  0  0  0
    4.6348    3.5262    1.2692 C   0  0  0  0  0  0  0  0  0  0  0  0
    5.5541    3.2935    2.4529 C   0  0  0  0  0  0  0  0  0  0  0  0
    6.4816    2.2382    2.4521 C   0  0  0  0  0  0  0  0  0  0  0  0
    7.3521    2.0410    3.5248 C   0  0  0  0  0  0  0  0  0  0  0  0
    7.2927    2.9135    4.6109 C   0  0  0  0  0  0  0  0  0  0  0  0
    8.1257    2.7278    5.6460 F   0  0  0  0  0  0  0  0  0  0  0  0
    6.3856    3.9683    4.6467 C   0  0  0  0  0  0  0  0  0  0  0  0
    5.5187    4.1474    3.5644 C   0  0  0  0  0  0  0  0  0  0  0  0
    0.7871   -0.5257    1.1585 H   0  0  0  0  0  0  0  0  0  0  0  0
    0.5181    0.0475   -0.5029 H   0  0  0  0  0  0  0  0  0  0  0  0
    1.0097    1.1974    0.7557 H   0  0  0  0  0  0  0  0  0  0  0  0
    3.2041    0.0121    1.0172 H   0  0  0  0  0  0  0  0  0  0  0  0
    2.4096   -2.2500    0.2719 H   0  0  0  0  0  0  0  0  0  0  0  0
    3.9976   -1.7393   -0.2920 H   0  0  0  0  0  0  0  0  0  0  0  0
    1.4270   -1.6883   -1.9598 H   0  0  0  0  0  0  0  0  0  0  0  0
    2.1581   -2.8032   -3.9953 H   0  0  0  0  0  0  0  0  0  0  0  0
    2.8711   -0.8494   -3.8093 H   0  0  0  0  0  0  0  0  0  0  0  0
    4.2880   -0.8956   -2.7435 H   0  0  0  0  0  0  0  0  0  0  0  0
    1.7834    0.8631   -2.4570 H   0  0  0  0  0  0  0  0  0  0  0  0
    3.4227    1.4179   -2.8568 H   0  0  0  0  0  0  0  0  0  0  0  0
    3.4426    1.7970    1.4825 H   0  0  0  0  0  0  0  0  0  0  0  0
    3.8903    4.2998    1.5347 H   0  0  0  0  0  0  0  0  0  0  0  0
    5.1940    3.9186    0.4062 H   0  0  0  0  0  0  0  0  0  0  0  0
    6.5194    1.5589    1.5970 H   0  0  0  0  0  0  0  0  0  0  0  0
    8.0775    1.2250    3.5328 H   0  0  0  0  0  0  0  0  0  0  0  0
    6.3630    4.6285    5.5159 H   0  0  0  0  0  0  0  0  0  0  0  0
    4.7999    4.9716    3.5885 H   0  0  0  0  0  0  0  0  0  0  0  0
  1  2  1  0
  1 22  1  0
  1 23  1  0
  1 24  1  0
  2  3  1  0
  2 10  1  0
  2 25  1  1
  3  4  1  0
  3 26  1  0
  3 27  1  0
  4  5  1  0
  4  8  1  0
  4 28  1  1
  5  6  2  0
  5  7  1  0
  7 29  1  0
  8  9  1  0
  8 30  1  0
  8 31  1  0
  9 10  1  0
  9 32  1  0
  9 33  1  0
 10 11  1  0
 11 12  2  0
 11 13  1  0
 13 14  1  0
 13 34  1  0
 14 15  1  0
 14 35  1  0
 14 36  1  0
 15 16  2  0
 15 21  1  0
 16 17  1  0
 16 37  1  0
 17 18  2  0
 17 38  1  0
 18 19  1  0
 18 20  1  0
 20 21  2  0
 20 39  1  0
 21 40  1  0
M  END

