
     RDKit          3D

 38 38  0  0  0  0  0  0  0  0999 V2000
    1.1445    0.2468   -0.2246 C   0  0  0  0  0  0  0  0  0  0  0  0
    2.5847   -0.1812   -0.5032 C   0  0  0  0  0  0  0  0  0  0  0  0
    3.1900   -0.9415    0.5860 N   0  0  0  0  0  0  0  0  0  0  0  0
    2.7193   -2.3153    0.6642 C   0  0  0  0  0  0  0  0  0  0  0  0
    2.7589   -2.9237    2.0608 C   0  0  0  0  0  0  0  0  0  0  0  0
    1.8791   -2.2320    2.9106 O   0  0  0  0  0  0  0  0  0  0  0  0
    1.8090   -2.7641    4.2047 C   0  0  0  0  0  0  0  0  0  0  0  0
    4.6376   -0.8059    0.6692 C   0  0  0  0  0  0  0  0  0  0  0  0
    5.1019    0.5151    1.2987 C   0  0  1  0  0  0  0  0  0  0  0  0
    4.6252    0.7015    2.7657 C   0  0  0  0  0  0  0  0  0  0  0  0
    5.9184    0.6437    3.5906 C   0  0  0  0  0  0  0  0  0  0  0  0
    6.8927    1.2259    2.6774 N   0  0  0  0  0  0  0  0  0  0  0  0
    6.6544    0.6141    1.3699 C   0  0  2  0  0  0  0  0  0  0  0  0
    7.2998    1.4122    0.2417 C   0  0  0  0  0  0  0  0  0  0  0  0
    0.7516    0.8455   -1.0625 H   0  0  0  0  0  0  0  0  0  0  0  0
    1.0946    0.8495    0.6951 H   0  0  0  0  0  0  0  0  0  0  0  0
    0.4717   -0.6149   -0.0918 H   0  0  0  0  0  0  0  0  0  0  0  0
    3.1894    0.7253   -0.6594 H   0  0  0  0  0  0  0  0  0  0  0  0
    2.6343   -0.7429   -1.4659 H   0  0  0  0  0  0  0  0  0  0  0  0
    3.2811   -2.9931   -0.0217 H   0  0  0  0  0  0  0  0  0  0  0  0
    1.6701   -2.3448    0.3349 H   0  0  0  0  0  0  0  0  0  0  0  0
    3.7890   -2.9105    2.4756 H   0  0  0  0  0  0  0  0  0  0  0  0
    2.4680   -3.9940    1.9832 H   0  0  0  0  0  0  0  0  0  0  0  0
    1.0979   -2.1555    4.7826 H   0  0  0  0  0  0  0  0  0  0  0  0
    2.7913   -2.7401    4.7203 H   0  0  0  0  0  0  0  0  0  0  0  0
    1.4539   -3.8158    4.2051 H   0  0  0  0  0  0  0  0  0  0  0  0
    5.1210   -0.9352   -0.3282 H   0  0  0  0  0  0  0  0  0  0  0  0
    5.0253   -1.6277    1.2924 H   0  0  0  0  0  0  0  0  0  0  0  0
    4.7298    1.3512    0.6850 H   0  0  0  0  0  0  0  0  0  0  0  0
    3.8782   -0.0529    3.0525 H   0  0  0  0  0  0  0  0  0  0  0  0
    4.1541    1.6882    2.8880 H   0  0  0  0  0  0  0  0  0  0  0  0
    6.1499   -0.4122    3.8633 H   0  0  0  0  0  0  0  0  0  0  0  0
    5.8590    1.2166    4.5307 H   0  0  0  0  0  0  0  0  0  0  0  0
    7.8558    1.1129    2.9901 H   0  0  0  0  0  0  0  0  0  0  0  0
    7.0593   -0.4256    1.3323 H   0  0  0  0  0  0  0  0  0  0  0  0
    6.9280    2.4491    0.2480 H   0  0  0  0  0  0  0  0  0  0  0  0
    7.0812    0.9626   -0.7406 H   0  0  0  0  0  0  0  0  0  0  0  0
    8.3966    1.4455    0.3532 H   0  0  0  0  0  0  0  0  0  0  0  0
  1  2  1  0
  1 15  1  0
  1 16  1  0
  1 17  1  0
  2  3  1  0
  2 18  1  0
  2 19  1  0
  3  4  1  0
  3  8  1  0
  4  5  1  0
  4 20  1  0
  4 21  1  0
  5  6  1  0
  5 22  1  0
  5 23  1  0
  6  7  1  0
  7 24  1  0
  7 25  1  0
  7 26  1  0
  8  9  1  0
  8 27  1  0
  8 28  1  0
  9 10  1  0
  9 13  1  0
  9 29  1  6
 10 11  1  0
 10 30  1  0
 10 31  1  0
 11 12  1  0
 11 32  1  0
 11 33  1  0
 12 13  1  0
 12 34  1  0
 13 14  1  0
 13 35  1  1
 14 36  1  0
 14 37  1  0
 14 38  1  0
M  END

