
     RDKit          3D

 54 60  0  0  0  0  0  0  0  0999 V2000
    1.1842   -0.0320    0.0503 N   0  0  0  0  0  0  0  0  0  0  0  0
    2.3437   -0.0314   -0.0004 C   0  0  0  0  0  0  0  0  0  0  0  0
    3.7761    0.0000   -0.0752 C   0  0  0  0  0  0  0  0  0  0  0  0
    4.4224    1.1838   -0.4457 C   0  0  0  0  0  0  0  0  0  0  0  0
    5.8206    1.2769   -0.5252 C   0  0  0  0  0  0  0  0  0  0  0  0
    6.3926    2.5133   -0.8827 N   0  0  0  0  0  0  0  0  0  0  0  0
    6.0573    3.2549   -2.0299 C   0  0  0  0  0  0  0  0  0  0  0  0
    5.2202    2.9148   -3.0991 C   0  0  0  0  0  0  0  0  0  0  0  0
    5.0864    3.8354   -4.1414 C   0  0  0  0  0  0  0  0  0  0  0  0
    5.7726    5.0624   -4.1259 C   0  0  0  0  0  0  0  0  0  0  0  0
    6.6140    5.3908   -3.0630 C   0  0  0  0  0  0  0  0  0  0  0  0
    6.7629    4.4851   -2.0040 C   0  0  0  0  0  0  0  0  0  0  0  0
    7.5385    4.5021   -0.7776 C   0  0  0  0  0  0  0  0  0  0  0  0
    8.3877    5.4504   -0.1911 C   0  0  0  0  0  0  0  0  0  0  0  0
    8.9556    5.1751    1.0521 C   0  0  0  0  0  0  0  0  0  0  0  0
    8.6708    3.9687    1.7161 C   0  0  0  0  0  0  0  0  0  0  0  0
    7.8291    3.0084    1.1516 C   0  0  0  0  0  0  0  0  0  0  0  0
    7.2821    3.2790   -0.1061 C   0  0  0  0  0  0  0  0  0  0  0  0
    6.6027    0.1251   -0.2351 C   0  0  0  0  0  0  0  0  0  0  0  0
    8.0083    0.1193   -0.3237 N   0  0  0  0  0  0  0  0  0  0  0  0
    8.7752    0.3854   -1.4732 C   0  0  0  0  0  0  0  0  0  0  0  0
    8.3605    0.7379   -2.7609 C   0  0  0  0  0  0  0  0  0  0  0  0
    9.3437    0.9144   -3.7363 C   0  0  0  0  0  0  0  0  0  0  0  0
   10.7074    0.7355   -3.4435 C   0  0  0  0  0  0  0  0  0  0  0  0
   11.1134    0.3600   -2.1637 C   0  0  0  0  0  0  0  0  0  0  0  0
   10.1446    0.1757   -1.1677 C   0  0  0  0  0  0  0  0  0  0  0  0
   10.2114   -0.2483    0.2185 C   0  0  0  0  0  0  0  0  0  0  0  0
   11.2692   -0.5869    1.0731 C   0  0  0  0  0  0  0  0  0  0  0  0
   10.9896   -0.9562    2.3888 C   0  0  0  0  0  0  0  0  0  0  0  0
    9.6642   -0.9823    2.8573 C   0  0  0  0  0  0  0  0  0  0  0  0
    8.5929   -0.6468    2.0258 C   0  0  0  0  0  0  0  0  0  0  0  0
    8.8790   -0.2879    0.7034 C   0  0  0  0  0  0  0  0  0  0  0  0
    5.9507   -1.0574    0.1478 C   0  0  0  0  0  0  0  0  0  0  0  0
    4.5576   -1.1426    0.2375 C   0  0  0  0  0  0  0  0  0  0  0  0
    3.9471   -2.3821    0.6236 C   0  0  0  0  0  0  0  0  0  0  0  0
    3.4775   -3.3951    0.9403 N   0  0  0  0  0  0  0  0  0  0  0  0
    3.8267    2.0734   -0.6521 H   0  0  0  0  0  0  0  0  0  0  0  0
    4.6854    1.9640   -3.1304 H   0  0  0  0  0  0  0  0  0  0  0  0
    4.4344    3.5924   -4.9840 H   0  0  0  0  0  0  0  0  0  0  0  0
    5.6460    5.7615   -4.9557 H   0  0  0  0  0  0  0  0  0  0  0  0
    7.1527    6.3414   -3.0559 H   0  0  0  0  0  0  0  0  0  0  0  0
    8.5939    6.3959   -0.6986 H   0  0  0  0  0  0  0  0  0  0  0  0
    9.6203    5.9047    1.5204 H   0  0  0  0  0  0  0  0  0  0  0  0
    9.1141    3.7741    2.6956 H   0  0  0  0  0  0  0  0  0  0  0  0
    7.6117    2.0848    1.6872 H   0  0  0  0  0  0  0  0  0  0  0  0
    7.3083    0.8700   -3.0108 H   0  0  0  0  0  0  0  0  0  0  0  0
    9.0414    1.1965   -4.7477 H   0  0  0  0  0  0  0  0  0  0  0  0
   11.4518    0.8837   -4.2291 H   0  0  0  0  0  0  0  0  0  0  0  0
   12.1715    0.2024   -1.9407 H   0  0  0  0  0  0  0  0  0  0  0  0
   12.3003   -0.5595    0.7124 H   0  0  0  0  0  0  0  0  0  0  0  0
   11.8055   -1.2251    3.0635 H   0  0  0  0  0  0  0  0  0  0  0  0
    9.4635   -1.2698    3.8922 H   0  0  0  0  0  0  0  0  0  0  0  0
    7.5707   -0.6660    2.4078 H   0  0  0  0  0  0  0  0  0  0  0  0
    6.5526   -1.9432    0.3528 H   0  0  0  0  0  0  0  0  0  0  0  0
  1  2  3  0
  2  3  1  0
  3  4  2  0
  3 34  1  0
  4  5  1  0
  4 37  1  0
  5  6  1  0
  5 19  2  0
  6  7  1  0
  6 18  1  0
  7  8  2  0
  7 12  1  0
  8  9  1  0
  8 38  1  0
  9 10  2  0
  9 39  1  0
 10 11  1  0
 10 40  1  0
 11 12  2  0
 11 41  1  0
 12 13  1  0
 13 14  1  0
 13 18  2  0
 14 15  2  0
 14 42  1  0
 15 16  1  0
 15 43  1  0
 16 17  2  0
 16 44  1  0
 17 18  1  0
 17 45  1  0
 19 20  1  0
 19 33  1  0
 20 21  1  0
 20 32  1  0
 21 22  2  0
 21 26  1  0
 22 23  1  0
 22 46  1  0
 23 24  2  0
 23 47  1  0
 24 25  1  0
 24 48  1  0
 25 26  2  0
 25 49  1  0
 26 27  1  0
 27 28  1  0
 27 32  2  0
 28 29  2  0
 28 50  1  0
 29 30  1  0
 29 51  1  0
 30 31  2  0
 30 52  1  0
 31 32  1  0
 31 53  1  0
 33 34  2  0
 33 54  1  0
 34 35  1  0
 35 36  3  0
M  END

