
     RDKit          3D

 65 71  0  0  0  0  0  0  0  0999 V2000
    3.1005   -0.8579   -2.6801 O   0  0  0  0  0  0  0  0  0  0  0  0
    3.9649   -0.6627   -1.8460 C   0  0  0  0  0  0  0  0  0  0  0  0
    4.6707    0.5858   -1.6034 C   0  0  0  0  0  0  0  0  0  0  0  0
    4.3651    1.7220   -2.3840 C   0  0  0  0  0  0  0  0  0  0  0  0
    5.0286    2.9166   -2.1622 C   0  0  0  0  0  0  0  0  0  0  0  0
    6.0135    2.9948   -1.1509 C   0  0  0  0  0  0  0  0  0  0  0  0
    6.3254    1.8912   -0.3768 C   0  0  0  0  0  0  0  0  0  0  0  0
    5.6604    0.6548   -0.5836 C   0  0  0  0  0  0  0  0  0  0  0  0
    5.9907   -0.4172    0.1953 N   0  0  0  0  0  0  0  0  0  0  0  0
    5.3743   -1.5536    0.0003 C   0  0  0  0  0  0  0  0  0  0  0  0
    5.6902   -2.7086    0.7975 C   0  0  0  0  0  0  0  0  0  0  0  0
    5.0618   -3.9033    0.6153 C   0  0  0  0  0  0  0  0  0  0  0  0
    4.0433   -4.0585   -0.3929 C   0  0  0  0  0  0  0  0  0  0  0  0
    3.3479   -5.3507   -0.6051 C   0  0  0  0  0  0  0  0  0  0  0  0
    4.0068   -6.5753   -0.3884 C   0  0  0  0  0  0  0  0  0  0  0  0
    3.3607   -7.7919   -0.5987 C   0  0  0  0  0  0  0  0  0  0  0  0
    2.0224   -7.8478   -1.0327 C   0  0  0  0  0  0  0  0  0  0  0  0
    1.3338   -9.1432   -1.2546 C   0  0  0  0  0  0  0  0  0  0  0  0
    1.6176  -10.2729   -0.4629 C   0  0  0  0  0  0  0  0  0  0  0  0
    0.9792  -11.4926   -0.6717 C   0  0  0  0  0  0  0  0  0  0  0  0
    0.0100  -11.6340   -1.6831 C   0  0  0  0  0  0  0  0  0  0  0  0
   -0.6468  -12.8693   -1.8956 N   0  0  0  0  0  0  0  0  0  0  0  0
   -1.0151  -13.6831   -0.7896 C   0  0  0  0  0  0  0  0  0  0  0  0
   -1.6053  -13.1146    0.3539 C   0  0  0  0  0  0  0  0  0  0  0  0
   -1.9604  -13.9180    1.4386 C   0  0  0  0  0  0  0  0  0  0  0  0
   -1.7516  -15.3004    1.3984 C   0  0  0  0  0  0  0  0  0  0  0  0
   -1.1741  -15.8711    0.2596 C   0  0  0  0  0  0  0  0  0  0  0  0
   -0.8004  -15.0730   -0.8228 C   0  0  0  0  0  0  0  0  0  0  0  0
   -0.9414  -13.3061   -3.2160 C   0  0  0  0  0  0  0  0  0  0  0  0
    0.0127  -13.1827   -4.2425 C   0  0  0  0  0  0  0  0  0  0  0  0
   -0.2849  -13.6091   -5.5378 C   0  0  0  0  0  0  0  0  0  0  0  0
   -1.5273  -14.1809   -5.8309 C   0  0  0  0  0  0  0  0  0  0  0  0
   -2.4751  -14.3144   -4.8112 C   0  0  0  0  0  0  0  0  0  0  0  0
   -2.1922  -13.8751   -3.5169 C   0  0  0  0  0  0  0  0  0  0  0  0
   -0.2863  -10.5094   -2.4766 C   0  0  0  0  0  0  0  0  0  0  0  0
    0.3672   -9.2979   -2.2672 C   0  0  0  0  0  0  0  0  0  0  0  0
    1.3639   -6.6202   -1.2443 C   0  0  0  0  0  0  0  0  0  0  0  0
    2.0078   -5.4036   -1.0339 C   0  0  0  0  0  0  0  0  0  0  0  0
    3.7490   -2.9581   -1.1531 C   0  0  0  0  0  0  0  0  0  0  0  0
    4.3759   -1.7400   -0.9750 N   0  0  0  0  0  0  0  0  0  0  0  0
    3.5991    1.6260   -3.1561 H   0  0  0  0  0  0  0  0  0  0  0  0
    4.7941    3.7971   -2.7647 H   0  0  0  0  0  0  0  0  0  0  0  0
    6.5351    3.9402   -0.9789 H   0  0  0  0  0  0  0  0  0  0  0  0
    7.0830    1.9336    0.4079 H   0  0  0  0  0  0  0  0  0  0  0  0
    6.4552   -2.5590    1.5598 H   0  0  0  0  0  0  0  0  0  0  0  0
    5.3143   -4.7505    1.2560 H   0  0  0  0  0  0  0  0  0  0  0  0
    5.0559   -6.5826   -0.0836 H   0  0  0  0  0  0  0  0  0  0  0  0
    3.9196   -8.7189   -0.4529 H   0  0  0  0  0  0  0  0  0  0  0  0
    2.3475  -10.1960    0.3463 H   0  0  0  0  0  0  0  0  0  0  0  0
    1.2268  -12.3476   -0.0404 H   0  0  0  0  0  0  0  0  0  0  0  0
   -1.7847  -12.0382    0.3862 H   0  0  0  0  0  0  0  0  0  0  0  0
   -2.4183  -13.4585    2.3186 H   0  0  0  0  0  0  0  0  0  0  0  0
   -2.0371  -15.9273    2.2464 H   0  0  0  0  0  0  0  0  0  0  0  0
   -0.9994  -16.9494    0.2160 H   0  0  0  0  0  0  0  0  0  0  0  0
   -0.3387  -15.5231   -1.7037 H   0  0  0  0  0  0  0  0  0  0  0  0
    0.9898  -12.7505   -4.0181 H   0  0  0  0  0  0  0  0  0  0  0  0
    0.4690  -13.5052   -6.3226 H   0  0  0  0  0  0  0  0  0  0  0  0
   -1.7542  -14.5196   -6.8444 H   0  0  0  0  0  0  0  0  0  0  0  0
   -3.4528  -14.7538   -5.0262 H   0  0  0  0  0  0  0  0  0  0  0  0
   -2.9414  -13.9706   -2.7287 H   0  0  0  0  0  0  0  0  0  0  0  0
   -1.0320  -10.5914   -3.2692 H   0  0  0  0  0  0  0  0  0  0  0  0
    0.1264   -8.4540   -2.9179 H   0  0  0  0  0  0  0  0  0  0  0  0
    0.3141   -6.6164   -1.5455 H   0  0  0  0  0  0  0  0  0  0  0  0
    1.4471   -4.4765   -1.1743 H   0  0  0  0  0  0  0  0  0  0  0  0
    3.0209   -2.9485   -1.9629 H   0  0  0  0  0  0  0  0  0  0  0  0
  1  2  2  0
  2  3  1  0
  2 40  1  0
  3  4  2  0
  3  8  1  0
  4  5  1  0
  4 41  1  0
  5  6  2  0
  5 42  1  0
  6  7  1  0
  6 43  1  0
  7  8  2  0
  7 44  1  0
  8  9  1  0
  9 10  2  0
 10 11  1  0
 10 40  1  0
 11 12  2  0
 11 45  1  0
 12 13  1  0
 12 46  1  0
 13 14  1  0
 13 39  2  0
 14 15  2  0
 14 38  1  0
 15 16  1  0
 15 47  1  0
 16 17  2  0
 16 48  1  0
 17 18  1  0
 17 37  1  0
 18 19  2  0
 18 36  1  0
 19 20  1  0
 19 49  1  0
 20 21  2  0
 20 50  1  0
 21 22  1  0
 21 35  1  0
 22 23  1  0
 22 29  1  0
 23 24  2  0
 23 28  1  0
 24 25  1  0
 24 51  1  0
 25 26  2  0
 25 52  1  0
 26 27  1  0
 26 53  1  0
 27 28  2  0
 27 54  1  0
 28 55  1  0
 29 30  2  0
 29 34  1  0
 30 31  1  0
 30 56  1  0
 31 32  2  0
 31 57  1  0
 32 33  1  0
 32 58  1  0
 33 34  2  0
 33 59  1  0
 34 60  1  0
 35 36  2  0
 35 61  1  0
 36 62  1  0
 37 38  2  0
 37 63  1  0
 38 64  1  0
 39 40  1  0
 39 65  1  0
M  END

