
     RDKit          3D

 24 24  0  0  0  0  0  0  0  0999 V2000
    1.0330   -0.1963   -0.1837 C   0  0  0  0  0  0  0  0  0  0  0  0
    2.5516   -0.1068   -0.0181 C   0  0  1  0  0  0  0  0  0  0  0  0
    3.0326   -0.1992    1.4499 C   0  0  0  0  0  0  0  0  0  0  0  0
    2.7043   -1.5172    2.1343 C   0  0  0  0  0  0  0  0  0  0  0  0
    3.4329   -1.5947    3.9627 Br  0  0  0  0  0  0  0  0  0  0  0  0
    3.1912   -1.1050   -0.8785 N   0  0  0  0  0  0  0  0  0  0  0  0
    4.4155   -0.9626   -1.4479 C   0  0  0  0  0  0  0  0  0  0  0  0
    4.9613   -1.9595   -2.2971 C   0  0  0  0  0  0  0  0  0  0  0  0
    6.2168   -1.6838   -2.8165 C   0  0  0  0  0  0  0  0  0  0  0  0
    6.9737   -2.8485   -3.8725 Cl  0  0  0  0  0  0  0  0  0  0  0  0
    6.8971   -0.5707   -2.5626 N   0  0  0  0  0  0  0  0  0  0  0  0
    6.2878    0.2861   -1.7586 C   0  0  0  0  0  0  0  0  0  0  0  0
    7.1576    1.7581   -1.4085 Cl  0  0  0  0  0  0  0  0  0  0  0  0
    5.1043    0.1643   -1.1854 N   0  0  0  0  0  0  0  0  0  0  0  0
    0.5323    0.5445    0.4576 H   0  0  0  0  0  0  0  0  0  0  0  0
    0.6429   -1.1906    0.0930 H   0  0  0  0  0  0  0  0  0  0  0  0
    0.7416    0.0024   -1.2265 H   0  0  0  0  0  0  0  0  0  0  0  0
    2.8912    0.8742   -0.3825 H   0  0  0  0  0  0  0  0  0  0  0  0
    2.5844    0.6338    2.0163 H   0  0  0  0  0  0  0  0  0  0  0  0
    4.1212   -0.0380    1.4606 H   0  0  0  0  0  0  0  0  0  0  0  0
    3.1440   -2.3748    1.6085 H   0  0  0  0  0  0  0  0  0  0  0  0
    1.6257   -1.6833    2.2498 H   0  0  0  0  0  0  0  0  0  0  0  0
    2.6821   -1.9557   -1.0839 H   0  0  0  0  0  0  0  0  0  0  0  0
    4.4337   -2.8836   -2.5319 H   0  0  0  0  0  0  0  0  0  0  0  0
  1  2  1  0
  1 15  1  0
  1 16  1  0
  1 17  1  0
  2  3  1  0
  2  6  1  0
  2 18  1  6
  3  4  1  0
  3 19  1  0
  3 20  1  0
  4  5  1  0
  4 21  1  0
  4 22  1  0
  6  7  1  0
  6 23  1  0
  7  8  2  0
  7 14  1  0
  8  9  1  0
  8 24  1  0
  9 10  1  0
  9 11  2  0
 11 12  1  0
 12 13  1  0
 12 14  2  0
M  END

