
     RDKit          3D

 35 38  0  0  0  0  0  0  0  0999 V2000
    3.8116   -0.9090    0.7321 N   0  0  0  0  0  0  0  0  0  0  0  0
    2.8989   -0.0027    0.0681 C   0  0  1  0  0  0  0  0  0  0  0  0
    3.1322   -0.1242   -1.4133 C   0  0  0  0  0  0  0  0  0  0  0  0
    3.3070    0.8921   -2.2186 N   0  0  0  0  0  0  0  0  0  0  0  0
    3.4432    0.3094   -3.4679 O   0  0  0  0  0  0  0  0  0  0  0  0
    3.3431   -1.0211   -3.3031 C   0  0  0  0  0  0  0  0  0  0  0  0
    3.4739   -1.8684   -4.5020 C   0  0  0  0  0  0  0  0  0  0  0  0
    3.7789   -1.2500   -5.6823 C   0  0  0  0  0  0  0  0  0  0  0  0
    3.9395   -1.9705   -6.9470 C   0  0  0  0  0  0  0  0  0  0  0  0
    4.2103   -1.4518   -8.0162 O   0  0  0  0  0  0  0  0  0  0  0  0
    3.7538   -3.3455   -6.8325 N   0  0  0  0  0  0  0  0  0  0  0  0
    3.8626   -3.8626   -7.7011 H   0  0  0  0  0  0  0  0  0  0  0  0
    3.4427   -4.0306   -5.6780 C   0  0  0  0  0  0  0  0  0  0  0  0
    3.2769   -5.4286   -5.7068 C   0  0  0  0  0  0  0  0  0  0  0  0
    2.9607   -6.1265   -4.5506 C   0  0  0  0  0  0  0  0  0  0  0  0
    2.8054   -5.4262   -3.3439 C   0  0  0  0  0  0  0  0  0  0  0  0
    2.3697   -6.3887   -1.7559 Br  0  0  0  0  0  0  0  0  0  0  0  0
    2.9646   -4.0487   -3.2898 C   0  0  0  0  0  0  0  0  0  0  0  0
    3.2879   -3.3193   -4.4554 C   0  0  0  0  0  0  0  0  0  0  0  0
    3.1452   -1.3413   -2.0548 N   0  0  0  0  0  0  0  0  0  0  0  0
    1.3504   -0.0288    0.3829 C   0  0  0  0  0  0  0  0  0  0  0  0
    1.3696    1.5165    0.4608 C   0  0  0  0  0  0  0  0  0  0  0  0
    2.9140    1.4686    0.5699 C   0  0  0  0  0  0  0  0  0  0  0  0
    3.7293   -1.8506    0.3467 H   0  0  0  0  0  0  0  0  0  0  0  0
    3.5936   -0.9662    1.7262 H   0  0  0  0  0  0  0  0  0  0  0  0
    3.9216   -0.1713   -5.7378 H   0  0  0  0  0  0  0  0  0  0  0  0
    3.3990   -5.9637   -6.6519 H   0  0  0  0  0  0  0  0  0  0  0  0
    2.8334   -7.2097   -4.5791 H   0  0  0  0  0  0  0  0  0  0  0  0
    2.8463   -3.5125   -2.3511 H   0  0  0  0  0  0  0  0  0  0  0  0
    1.1850   -0.4976    1.3661 H   0  0  0  0  0  0  0  0  0  0  0  0
    0.6865   -0.5108   -0.3515 H   0  0  0  0  0  0  0  0  0  0  0  0
    0.8236    1.9787    1.2962 H   0  0  0  0  0  0  0  0  0  0  0  0
    1.0368    1.9866   -0.4763 H   0  0  0  0  0  0  0  0  0  0  0  0
    3.2604    1.4965    1.6144 H   0  0  0  0  0  0  0  0  0  0  0  0
    3.5006    2.1871   -0.0185 H   0  0  0  0  0  0  0  0  0  0  0  0
  2  1  1  1
  1 24  1  0
  1 25  1  0
  2  3  1  0
  2 21  1  0
  2 23  1  0
  3  4  2  0
  3 20  1  0
  4  5  1  0
  5  6  1  0
  6  7  1  0
  6 20  2  0
  7  8  2  0
  7 19  1  0
  8  9  1  0
  8 26  1  0
  9 10  2  0
  9 11  1  0
 11 12  1  0
 11 13  1  0
 13 14  1  0
 13 19  2  0
 14 15  2  0
 14 27  1  0
 15 16  1  0
 15 28  1  0
 16 17  1  0
 16 18  2  0
 18 19  1  0
 18 29  1  0
 21 22  1  0
 21 30  1  0
 21 31  1  0
 22 23  1  0
 22 32  1  0
 22 33  1  0
 23 34  1  0
 23 35  1  0
M  END

