
     RDKit          3D

 62 65  0  0  0  0  0  0  0  0999 V2000
    1.9494   -0.3473   -2.5168 C   0  0  0  0  0  0  0  0  0  0  0  0
    3.3409   -0.3079   -2.2719 O   0  0  0  0  0  0  0  0  0  0  0  0
    3.9520   -1.3716   -1.7049 C   0  0  0  0  0  0  0  0  0  0  0  0
    5.3330   -1.2478   -1.4789 C   0  0  0  0  0  0  0  0  0  0  0  0
    6.0397   -2.2962   -0.8953 C   0  0  0  0  0  0  0  0  0  0  0  0
    5.3948   -3.4836   -0.5353 C   0  0  0  0  0  0  0  0  0  0  0  0
    4.0187   -3.6196   -0.7541 C   0  0  0  0  0  0  0  0  0  0  0  0
    3.3009   -4.9231   -0.3767 C   0  0  1  0  0  0  0  0  0  0  0  0
    3.9064   -6.1868   -0.9990 C   0  0  0  0  0  0  0  0  0  0  0  0
    3.9482   -6.3195   -2.3819 C   0  0  0  0  0  0  0  0  0  0  0  0
    3.5603   -5.2678   -3.1332 O   0  0  0  0  0  0  0  0  0  0  0  0
    4.3279   -7.4636   -3.2245 C   0  0  0  0  0  0  0  0  0  0  0  0
    4.5751   -8.7683   -2.7353 C   0  0  0  0  0  0  0  0  0  0  0  0
    4.8913   -9.8049   -3.5991 C   0  0  0  0  0  0  0  0  0  0  0  0
    4.9805   -9.5939   -4.9886 C   0  0  0  0  0  0  0  0  0  0  0  0
    5.2819  -10.6763   -5.7326 O   0  0  0  0  0  0  0  0  0  0  0  0
    5.4424  -10.6059   -7.1591 C   0  0  1  0  0  0  0  0  0  0  0  0
    6.8350  -10.0900   -7.5148 C   0  0  0  0  0  0  0  0  0  0  0  0
    5.1809  -12.0128   -7.6796 C   0  0  0  0  0  0  0  0  0  0  0  0
    4.7470   -8.2999   -5.4920 C   0  0  0  0  0  0  0  0  0  0  0  0
    4.4239   -7.2649   -4.6205 C   0  0  0  0  0  0  0  0  0  0  0  0
    4.3580   -7.0536    0.0785 C   0  0  0  0  0  0  0  0  0  0  0  0
    4.8927   -8.1480    0.0970 O   0  0  0  0  0  0  0  0  0  0  0  0
    4.0242   -6.3363    1.3996 C   0  0  0  0  0  0  0  0  0  0  0  0
    4.2767   -6.7533    2.5054 O   0  0  0  0  0  0  0  0  0  0  0  0
    3.3568   -5.1656    1.0726 N   0  0  0  0  0  0  0  0  0  0  0  0
    2.7542   -4.2961    2.0110 C   0  0  0  0  0  0  0  0  0  0  0  0
    3.2759   -4.1585    3.3112 C   0  0  0  0  0  0  0  0  0  0  0  0
    2.6513   -3.3073    4.2229 C   0  0  0  0  0  0  0  0  0  0  0  0
    1.5172   -2.5720    3.8705 C   0  0  0  0  0  0  0  0  0  0  0  0
    1.0110   -2.7210    2.5823 C   0  0  0  0  0  0  0  0  0  0  0  0
   -0.1738   -2.0347    2.2825 O   0  0  0  0  0  0  0  0  0  0  0  0
   -0.2352   -1.1918    1.2393 C   0  0  1  0  0  0  0  0  0  0  0  0
    0.7877   -0.3261    1.2069 F   0  0  0  0  0  0  0  0  0  0  0  0
   -0.2279   -1.8357    0.0447 F   0  0  0  0  0  0  0  0  0  0  0  0
   -1.3709   -0.5134    1.3195 F   0  0  0  0  0  0  0  0  0  0  0  0
    1.5999   -3.5770    1.6538 C   0  0  0  0  0  0  0  0  0  0  0  0
    3.2963   -2.5614   -1.3359 C   0  0  0  0  0  0  0  0  0  0  0  0
    1.6863    0.6193   -2.9660 H   0  0  0  0  0  0  0  0  0  0  0  0
    1.3747   -0.4805   -1.5856 H   0  0  0  0  0  0  0  0  0  0  0  0
    1.6817   -1.1534   -3.2237 H   0  0  0  0  0  0  0  0  0  0  0  0
    5.8240   -0.3171   -1.7693 H   0  0  0  0  0  0  0  0  0  0  0  0
    7.1136   -2.1891   -0.7230 H   0  0  0  0  0  0  0  0  0  0  0  0
    5.9627   -4.3030   -0.0896 H   0  0  0  0  0  0  0  0  0  0  0  0
    2.2471   -4.8359   -0.6975 H   0  0  0  0  0  0  0  0  0  0  0  0
    3.5824   -4.4363   -2.6273 H   0  0  0  0  0  0  0  0  0  0  0  0
    4.5474   -8.9578   -1.6643 H   0  0  0  0  0  0  0  0  0  0  0  0
    5.0811  -10.8100   -3.2176 H   0  0  0  0  0  0  0  0  0  0  0  0
    4.6741   -9.9270   -7.5701 H   0  0  0  0  0  0  0  0  0  0  0  0
    7.6045  -10.7670   -7.1116 H   0  0  0  0  0  0  0  0  0  0  0  0
    7.0143   -9.0855   -7.1036 H   0  0  0  0  0  0  0  0  0  0  0  0
    6.9568  -10.0377   -8.6082 H   0  0  0  0  0  0  0  0  0  0  0  0
    5.9090  -12.7207   -7.2536 H   0  0  0  0  0  0  0  0  0  0  0  0
    5.2688  -12.0394   -8.7766 H   0  0  0  0  0  0  0  0  0  0  0  0
    4.1710  -12.3480   -7.4006 H   0  0  0  0  0  0  0  0  0  0  0  0
    4.8161   -8.0877   -6.5586 H   0  0  0  0  0  0  0  0  0  0  0  0
    4.2429   -6.2721   -5.0298 H   0  0  0  0  0  0  0  0  0  0  0  0
    4.1509   -4.7344    3.6020 H   0  0  0  0  0  0  0  0  0  0  0  0
    3.0642   -3.2098    5.2296 H   0  0  0  0  0  0  0  0  0  0  0  0
    1.0227   -1.8971    4.5704 H   0  0  0  0  0  0  0  0  0  0  0  0
    1.1414   -3.6965    0.6758 H   0  0  0  0  0  0  0  0  0  0  0  0
    2.2193   -2.6630   -1.4777 H   0  0  0  0  0  0  0  0  0  0  0  0
  1  2  1  0
  1 39  1  0
  1 40  1  0
  1 41  1  0
  2  3  1  0
  3  4  2  0
  3 38  1  0
  4  5  1  0
  4 42  1  0
  5  6  2  0
  5 43  1  0
  6  7  1  0
  6 44  1  0
  7  8  1  0
  7 38  2  0
  8  9  1  0
  8 26  1  0
  8 45  1  6
  9 10  2  0
  9 22  1  0
 10 11  1  0
 10 12  1  0
 11 46  1  0
 12 13  2  0
 12 21  1  0
 13 14  1  0
 13 47  1  0
 14 15  2  0
 14 48  1  0
 15 16  1  0
 15 20  1  0
 16 17  1  0
 17 18  1  0
 17 19  1  0
 17 49  1  6
 18 50  1  0
 18 51  1  0
 18 52  1  0
 19 53  1  0
 19 54  1  0
 19 55  1  0
 20 21  2  0
 20 56  1  0
 21 57  1  0
 22 23  2  0
 22 24  1  0
 24 25  2  0
 24 26  1  0
 26 27  1  0
 27 28  2  0
 27 37  1  0
 28 29  1  0
 28 58  1  0
 29 30  2  0
 29 59  1  0
 30 31  1  0
 30 60  1  0
 31 32  1  0
 31 37  2  0
 32 33  1  0
 33 34  1  6
 33 35  1  0
 33 36  1  0
 37 61  1  0
 38 62  1  0
M  END

