
     RDKit          3D

 41 43  0  0  0  0  0  0  0  0999 V2000
    2.4844    1.4651   -1.7003 C   0  0  0  0  0  0  0  0  0  0  0  0
    2.5516    0.4038   -0.6009 C   0  0  0  0  0  0  0  0  0  0  0  0
    2.9211   -0.9232   -1.0911 N   0  0  0  0  0  0  0  0  0  0  0  0
    1.8570   -1.8430   -1.4904 C   0  0  0  0  0  0  0  0  0  0  0  0
    1.3831   -2.7582   -0.3602 C   0  0  0  0  0  0  0  0  0  0  0  0
    4.2288   -1.2947   -1.1752 C   0  0  0  0  0  0  0  0  0  0  0  0
    4.5039   -2.5454   -1.5925 N   0  0  0  0  0  0  0  0  0  0  0  0
    5.7692   -2.9065   -1.6734 C   0  0  0  0  0  0  0  0  0  0  0  0
    6.0207   -4.5808   -2.1716 Cl  0  0  0  0  0  0  0  0  0  0  0  0
    6.8462   -2.0673   -1.3813 C   0  0  0  0  0  0  0  0  0  0  0  0
    6.4204   -0.7850   -0.9456 C   0  0  0  0  0  0  0  0  0  0  0  0
    5.1698   -0.3854   -0.8360 N   0  0  0  0  0  0  0  0  0  0  0  0
    7.7613    0.2846   -0.5039 S   0  0  0  0  0  0  0  0  0  0  0  0
    8.9569   -0.8470   -1.3461 C   0  0  2  0  0  0  0  0  0  0  0  0
    9.1504   -0.3985   -2.8158 C   0  0  0  0  0  0  0  0  0  0  0  0
    9.8811   -1.3470   -3.6374 N   0  0  0  0  0  0  0  0  0  0  0  0
   11.3208   -1.3515   -3.4649 C   0  0  0  0  0  0  0  0  0  0  0  0
    9.2410   -2.6585   -3.6155 C   0  0  0  0  0  0  0  0  0  0  0  0
    9.0898   -3.2328   -2.2000 C   0  0  0  0  0  0  0  0  0  0  0  0
    8.3493   -2.2729   -1.2451 C   0  0  2  0  0  0  0  0  0  0  0  0
    2.1623    2.4321   -1.2810 H   0  0  0  0  0  0  0  0  0  0  0  0
    1.7702    1.1851   -2.4917 H   0  0  0  0  0  0  0  0  0  0  0  0
    3.4747    1.6045   -2.1593 H   0  0  0  0  0  0  0  0  0  0  0  0
    1.5742    0.3094   -0.1000 H   0  0  0  0  0  0  0  0  0  0  0  0
    3.2818    0.7082    0.1608 H   0  0  0  0  0  0  0  0  0  0  0  0
    2.2211   -2.4518   -2.3290 H   0  0  0  0  0  0  0  0  0  0  0  0
    1.0189   -1.2334   -1.8660 H   0  0  0  0  0  0  0  0  0  0  0  0
    2.2039   -3.4104   -0.0262 H   0  0  0  0  0  0  0  0  0  0  0  0
    0.5562   -3.3992   -0.7069 H   0  0  0  0  0  0  0  0  0  0  0  0
    1.0226   -2.1798    0.5061 H   0  0  0  0  0  0  0  0  0  0  0  0
    9.9061   -0.7967   -0.7929 H   0  0  0  0  0  0  0  0  0  0  0  0
    9.6563    0.5799   -2.8380 H   0  0  0  0  0  0  0  0  0  0  0  0
    8.1518   -0.2481   -3.2627 H   0  0  0  0  0  0  0  0  0  0  0  0
   11.6872   -1.7100   -2.4766 H   0  0  0  0  0  0  0  0  0  0  0  0
   11.7129   -0.3313   -3.6070 H   0  0  0  0  0  0  0  0  0  0  0  0
   11.7833   -1.9921   -4.2335 H   0  0  0  0  0  0  0  0  0  0  0  0
    9.8209   -3.3507   -4.2476 H   0  0  0  0  0  0  0  0  0  0  0  0
    8.2435   -2.5656   -4.0819 H   0  0  0  0  0  0  0  0  0  0  0  0
   10.0914   -3.4140   -1.7732 H   0  0  0  0  0  0  0  0  0  0  0  0
    8.5842   -4.2067   -2.2290 H   0  0  0  0  0  0  0  0  0  0  0  0
    8.5175   -2.6345   -0.2120 H   0  0  0  0  0  0  0  0  0  0  0  0
  1  2  1  0
  1 21  1  0
  1 22  1  0
  1 23  1  0
  2  3  1  0
  2 24  1  0
  2 25  1  0
  3  4  1  0
  3  6  1  0
  4  5  1  0
  4 26  1  0
  4 27  1  0
  5 28  1  0
  5 29  1  0
  5 30  1  0
  6  7  2  0
  6 12  1  0
  7  8  1  0
  8  9  1  0
  8 10  2  0
 10 11  1  0
 10 20  1  0
 11 12  2  0
 11 13  1  0
 13 14  1  0
 14 15  1  0
 14 20  1  0
 14 31  1  1
 15 16  1  0
 15 32  1  0
 15 33  1  0
 16 17  1  0
 16 18  1  0
 17 34  1  0
 17 35  1  0
 17 36  1  0
 18 19  1  0
 18 37  1  0
 18 38  1  0
 19 20  1  0
 19 39  1  0
 19 40  1  0
 20 41  1  1
M  END

