
     RDKit          3D

 51 52  0  0  0  0  0  0  0  0999 V2000
    3.8533   -4.1558   -0.0809 C   0  0  0  0  0  0  0  0  0  0  0  0
    4.6089   -3.2800   -0.8848 O   0  0  0  0  0  0  0  0  0  0  0  0
    4.0462   -2.1347   -1.3490 C   0  0  0  0  0  0  0  0  0  0  0  0
    4.8760   -1.3153   -2.1257 C   0  0  0  0  0  0  0  0  0  0  0  0
    4.3919   -0.1096   -2.6503 C   0  0  0  0  0  0  0  0  0  0  0  0
    5.2778    0.7635   -3.5127 C   0  0  0  0  0  0  0  0  0  0  0  0
    5.6265    0.1641   -4.8952 C   0  0  1  0  0  0  0  0  0  0  0  0
    4.3727   -0.2498   -5.6841 C   0  0  0  0  0  0  0  0  0  0  0  0
    3.4712    0.8205   -5.8983 O   0  0  0  0  0  0  0  0  0  0  0  0
    6.4806    1.1325   -5.7263 C   0  0  0  0  0  0  0  0  0  0  0  0
    7.7058    1.5384   -5.0527 N   0  0  0  0  0  0  0  0  0  0  0  0
    8.5129    2.4871   -5.8022 C   0  0  0  0  0  0  0  0  0  0  0  0
    9.7265    2.9620   -5.0274 C   0  0  0  0  0  0  0  0  0  0  0  0
   10.9422    3.2219   -5.6747 C   0  0  0  0  0  0  0  0  0  0  0  0
   12.0423    3.7153   -4.9646 C   0  0  0  0  0  0  0  0  0  0  0  0
   11.9459    3.9468   -3.5939 C   0  0  0  0  0  0  0  0  0  0  0  0
   10.7450    3.6697   -2.9217 C   0  0  0  0  0  0  0  0  0  0  0  0
   10.6971    3.9391   -1.4415 C   0  0  0  0  0  0  0  0  0  0  0  0
   11.5264    4.5932   -0.8650 O   0  0  0  0  0  0  0  0  0  0  0  0
    9.6627    3.3975   -0.7600 O   0  0  0  0  0  0  0  0  0  0  0  0
    9.6445    3.1896   -3.6462 C   0  0  0  0  0  0  0  0  0  0  0  0
    3.0696    0.2684   -2.3846 C   0  0  0  0  0  0  0  0  0  0  0  0
    2.2362   -0.5508   -1.6068 C   0  0  0  0  0  0  0  0  0  0  0  0
    0.9748   -0.0914   -1.4053 O   0  0  0  0  0  0  0  0  0  0  0  0
    0.0735   -0.8435   -0.6263 C   0  0  0  0  0  0  0  0  0  0  0  0
    2.7163   -1.7617   -1.0838 C   0  0  0  0  0  0  0  0  0  0  0  0
    4.5143   -4.9949    0.1750 H   0  0  0  0  0  0  0  0  0  0  0  0
    2.9700   -4.5500   -0.6159 H   0  0  0  0  0  0  0  0  0  0  0  0
    3.5156   -3.6716    0.8534 H   0  0  0  0  0  0  0  0  0  0  0  0
    5.9029   -1.6424   -2.3004 H   0  0  0  0  0  0  0  0  0  0  0  0
    6.2202    0.9792   -2.9869 H   0  0  0  0  0  0  0  0  0  0  0  0
    4.7881    1.7379   -3.6713 H   0  0  0  0  0  0  0  0  0  0  0  0
    6.2106   -0.7638   -4.7361 H   0  0  0  0  0  0  0  0  0  0  0  0
    3.8774   -1.0948   -5.1730 H   0  0  0  0  0  0  0  0  0  0  0  0
    4.6762   -0.6119   -6.6813 H   0  0  0  0  0  0  0  0  0  0  0  0
    2.9195    0.9055   -5.1103 H   0  0  0  0  0  0  0  0  0  0  0  0
    5.8805    2.0348   -5.9360 H   0  0  0  0  0  0  0  0  0  0  0  0
    6.6801    0.6643   -6.7171 H   0  0  0  0  0  0  0  0  0  0  0  0
    8.2686    0.7165   -4.8279 H   0  0  0  0  0  0  0  0  0  0  0  0
    7.8708    3.3585   -6.0316 H   0  0  0  0  0  0  0  0  0  0  0  0
    8.8455    2.0990   -6.7908 H   0  0  0  0  0  0  0  0  0  0  0  0
   11.0282    3.0383   -6.7497 H   0  0  0  0  0  0  0  0  0  0  0  0
   12.9808    3.9162   -5.4874 H   0  0  0  0  0  0  0  0  0  0  0  0
   12.7871    4.3367   -3.0181 H   0  0  0  0  0  0  0  0  0  0  0  0
    9.1410    2.8221   -1.3365 H   0  0  0  0  0  0  0  0  0  0  0  0
    8.6808    2.9901   -3.1689 H   0  0  0  0  0  0  0  0  0  0  0  0
    2.6640    1.2173   -2.7439 H   0  0  0  0  0  0  0  0  0  0  0  0
   -0.8675   -0.2777   -0.6023 H   0  0  0  0  0  0  0  0  0  0  0  0
    0.4351   -0.9769    0.4095 H   0  0  0  0  0  0  0  0  0  0  0  0
   -0.1211   -1.8389   -1.0654 H   0  0  0  0  0  0  0  0  0  0  0  0
    2.0737   -2.3968   -0.4800 H   0  0  0  0  0  0  0  0  0  0  0  0
  1  2  1  0
  1 27  1  0
  1 28  1  0
  1 29  1  0
  2  3  1  0
  3  4  2  0
  3 26  1  0
  4  5  1  0
  4 30  1  0
  5  6  1  0
  5 22  2  0
  6  7  1  0
  6 31  1  0
  6 32  1  0
  7  8  1  0
  7 10  1  0
  7 33  1  1
  8  9  1  0
  8 34  1  0
  8 35  1  0
  9 36  1  0
 10 11  1  0
 10 37  1  0
 10 38  1  0
 11 12  1  0
 11 39  1  0
 12 13  1  0
 12 40  1  0
 12 41  1  0
 13 14  2  0
 13 21  1  0
 14 15  1  0
 14 42  1  0
 15 16  2  0
 15 43  1  0
 16 17  1  0
 16 44  1  0
 17 18  1  0
 17 21  2  0
 18 19  2  0
 18 20  1  0
 20 45  1  0
 21 46  1  0
 22 23  1  0
 22 47  1  0
 23 24  1  0
 23 26  2  0
 24 25  1  0
 25 48  1  0
 25 49  1  0
 25 50  1  0
 26 51  1  0
M  END

