
     RDKit          3D

 49 52  0  0  0  0  0  0  0  0999 V2000
    0.5917   -5.2886    0.0843 C   0  0  0  0  0  0  0  0  0  0  0  0
    1.0562   -4.1535   -0.7205 N   0  0  0  0  0  0  0  0  0  0  0  0
    2.2680   -4.3243   -1.4191 C   0  0  0  0  0  0  0  0  0  0  0  0
    2.8824   -5.3749   -1.3421 O   0  0  0  0  0  0  0  0  0  0  0  0
    2.7287   -3.1744   -2.2285 C   0  0  0  0  0  0  0  0  0  0  0  0
    3.9189   -3.3796   -2.9008 C   0  0  0  0  0  0  0  0  0  0  0  0
    4.7565   -2.6283   -3.7735 C   0  0  0  0  0  0  0  0  0  0  0  0
    4.6540   -1.3235   -4.2758 C   0  0  0  0  0  0  0  0  0  0  0  0
    5.7117   -1.0394   -5.0799 N   0  0  0  0  0  0  0  0  0  0  0  0
    5.9270    0.2245   -5.7605 C   0  0  0  0  0  0  0  0  0  0  0  0
    5.7061    0.1857   -7.2646 C   0  0  0  0  0  0  0  0  0  0  0  0
    4.7584   -0.6712   -7.8445 C   0  0  0  0  0  0  0  0  0  0  0  0
    4.5348   -0.6572   -9.2210 C   0  0  0  0  0  0  0  0  0  0  0  0
    5.2684    0.2263  -10.0124 C   0  0  0  0  0  0  0  0  0  0  0  0
    5.0370    0.2460  -11.4736 N   0  0  0  0  0  0  0  0  0  0  0  0
    4.1996   -0.5197  -11.9205 O   0  0  0  0  0  0  0  0  0  0  0  0
    5.6984    1.0280  -12.1366 O   0  0  0  0  0  0  0  0  0  0  0  0
    6.2179    1.0894   -9.4662 C   0  0  0  0  0  0  0  0  0  0  0  0
    6.4328    1.0595   -8.0890 C   0  0  0  0  0  0  0  0  0  0  0  0
    6.5615   -2.1477   -5.1442 C   0  0  0  0  0  0  0  0  0  0  0  0
    7.7639   -2.3164   -5.8397 C   0  0  0  0  0  0  0  0  0  0  0  0
    8.4106   -3.5444   -5.7070 C   0  0  0  0  0  0  0  0  0  0  0  0
    7.8678   -4.5692   -4.9067 C   0  0  0  0  0  0  0  0  0  0  0  0
    6.6676   -4.3913   -4.2206 C   0  0  0  0  0  0  0  0  0  0  0  0
    5.9967   -3.1635   -4.3354 C   0  0  0  0  0  0  0  0  0  0  0  0
    1.9372   -1.9476   -2.2711 C   0  0  0  0  0  0  0  0  0  0  0  0
    2.2501   -0.9547   -2.9167 O   0  0  0  0  0  0  0  0  0  0  0  0
    0.7476   -1.9400   -1.5128 N   0  0  0  0  0  0  0  0  0  0  0  0
   -0.0539   -0.7120   -1.5494 C   0  0  0  0  0  0  0  0  0  0  0  0
    0.2870   -3.0006   -0.7431 C   0  0  0  0  0  0  0  0  0  0  0  0
   -1.1350   -2.8906    0.1188 S   0  0  0  0  0  0  0  0  0  0  0  0
    1.3269   -6.0903   -0.0290 H   0  0  0  0  0  0  0  0  0  0  0  0
   -0.3987   -5.6149   -0.2614 H   0  0  0  0  0  0  0  0  0  0  0  0
    0.4985   -4.9905    1.1375 H   0  0  0  0  0  0  0  0  0  0  0  0
    4.3043   -4.3852   -2.7003 H   0  0  0  0  0  0  0  0  0  0  0  0
    3.8677   -0.6015   -4.0782 H   0  0  0  0  0  0  0  0  0  0  0  0
    6.9484    0.5779   -5.5449 H   0  0  0  0  0  0  0  0  0  0  0  0
    5.2397    0.9573   -5.3078 H   0  0  0  0  0  0  0  0  0  0  0  0
    4.1908   -1.3620   -7.2173 H   0  0  0  0  0  0  0  0  0  0  0  0
    3.8050   -1.3160   -9.6909 H   0  0  0  0  0  0  0  0  0  0  0  0
    6.7724    1.7596  -10.1225 H   0  0  0  0  0  0  0  0  0  0  0  0
    7.1796    1.7268   -7.6499 H   0  0  0  0  0  0  0  0  0  0  0  0
    8.1805   -1.5273   -6.4683 H   0  0  0  0  0  0  0  0  0  0  0  0
    9.3517   -3.7150   -6.2351 H   0  0  0  0  0  0  0  0  0  0  0  0
    8.3983   -5.5208   -4.8249 H   0  0  0  0  0  0  0  0  0  0  0  0
    6.2614   -5.1972   -3.6048 H   0  0  0  0  0  0  0  0  0  0  0  0
    0.4647   -0.0009   -2.1980 H   0  0  0  0  0  0  0  0  0  0  0  0
   -0.1655   -0.3045   -0.5354 H   0  0  0  0  0  0  0  0  0  0  0  0
   -1.0593   -0.9295   -1.9353 H   0  0  0  0  0  0  0  0  0  0  0  0
  1  2  1  0
  1 32  1  0
  1 33  1  0
  1 34  1  0
  2  3  1  0
  2 30  1  0
  3  4  2  0
  3  5  1  0
  5  6  2  0
  5 26  1  0
  6  7  1  0
  6 35  1  0
  7  8  2  0
  7 25  1  0
  8  9  1  0
  8 36  1  0
  9 10  1  0
  9 20  1  0
 10 11  1  0
 10 37  1  0
 10 38  1  0
 11 12  2  0
 11 19  1  0
 12 13  1  0
 12 39  1  0
 13 14  2  0
 13 40  1  0
 14 15  1  0
 14 18  1  0
 15 16  2  0
 15 17  1  0
 18 19  2  0
 18 41  1  0
 19 42  1  0
 20 21  1  0
 20 25  2  0
 21 22  2  0
 21 43  1  0
 22 23  1  0
 22 44  1  0
 23 24  2  0
 23 45  1  0
 24 25  1  0
 24 46  1  0
 26 27  2  0
 26 28  1  0
 28 29  1  0
 28 30  1  0
 29 47  1  0
 29 48  1  0
 29 49  1  0
 30 31  2  0
M  CHG  2  15   1  17  -1
M  END

