
     RDKit          3D

 54 56  0  0  0  0  0  0  0  0999 V2000
    1.1588    2.0746    0.3373 C   0  0  0  0  0  0  0  0  0  0  0  0
    2.2610    1.6226   -0.5714 C   0  0  0  0  0  0  0  0  0  0  0  0
    3.0013    0.5239   -0.3917 C   0  0  0  0  0  0  0  0  0  0  0  0
    4.1057    0.0665   -1.3203 C   0  0  2  0  0  0  0  0  0  0  0  0
    4.2477    1.0316   -2.3379 O   0  0  0  0  0  0  0  0  0  0  0  0
    3.7610   -1.3083   -1.9501 C   0  0  0  0  0  0  0  0  0  0  0  0
    3.6721   -2.5129   -0.9815 C   0  0  1  0  0  0  0  0  0  0  0  0
    3.9178   -3.8166   -1.6998 C   0  0  0  0  0  0  0  0  0  0  0  0
    3.1143   -4.6159   -2.4489 C   0  0  0  0  0  0  0  0  0  0  0  0
    3.5380   -5.7034   -3.0736 O   0  0  0  0  0  0  0  0  0  0  0  0
    5.3339   -4.1488   -1.5506 C   0  0  0  0  0  0  0  0  0  0  0  0
    5.9482   -5.0464   -2.0984 O   0  0  0  0  0  0  0  0  0  0  0  0
    5.9126   -3.2855   -0.6764 O   0  0  0  0  0  0  0  0  0  0  0  0
    4.8576   -2.5728    0.0296 C   0  0  1  0  0  0  0  0  0  0  0  0
    5.3125   -1.2205    0.4719 C   0  0  0  0  0  0  0  0  0  0  0  0
    5.4729   -0.7408    1.7274 C   0  0  0  0  0  0  0  0  0  0  0  0
    5.3717   -1.5074    3.0163 C   0  0  0  0  0  0  0  0  0  0  0  0
    4.8263   -2.5981    3.0334 O   0  0  0  0  0  0  0  0  0  0  0  0
    5.9444   -0.8967    4.2792 C   0  0  0  0  0  0  0  0  0  0  0  0
    4.8845   -0.1285    5.1043 C   0  0  0  0  0  0  0  0  0  0  0  0
    3.7931   -1.0045    5.7245 C   0  0  0  0  0  0  0  0  0  0  0  0
    2.7626   -0.2034    6.5272 C   0  0  0  0  0  0  0  0  0  0  0  0
    1.6746   -1.0720    7.1600 C   0  0  0  0  0  0  0  0  0  0  0  0
    5.7537    0.7278    1.6133 C   0  0  0  0  0  0  0  0  0  0  0  0
    5.9705    1.5369    2.4747 O   0  0  0  0  0  0  0  0  0  0  0  0
    5.7073    1.0567    0.2938 O   0  0  0  0  0  0  0  0  0  0  0  0
    5.4692   -0.0963   -0.5200 C   0  0  2  0  0  0  0  0  0  0  0  0
    6.6843   -0.2426   -1.4443 C   0  0  0  0  0  0  0  0  0  0  0  0
    1.3790    3.0742    0.7511 H   0  0  0  0  0  0  0  0  0  0  0  0
    1.0028    1.3830    1.1797 H   0  0  0  0  0  0  0  0  0  0  0  0
    0.2057    2.1706   -0.2117 H   0  0  0  0  0  0  0  0  0  0  0  0
    2.4788    2.2504   -1.4414 H   0  0  0  0  0  0  0  0  0  0  0  0
    2.8121   -0.1149    0.4776 H   0  0  0  0  0  0  0  0  0  0  0  0
    4.7472    0.6493   -3.0703 H   0  0  0  0  0  0  0  0  0  0  0  0
    4.5220   -1.5332   -2.7172 H   0  0  0  0  0  0  0  0  0  0  0  0
    2.8055   -1.2003   -2.4857 H   0  0  0  0  0  0  0  0  0  0  0  0
    2.7213   -2.4881   -0.4290 H   0  0  0  0  0  0  0  0  0  0  0  0
    2.0445   -4.4205   -2.5871 H   0  0  0  0  0  0  0  0  0  0  0  0
    4.5145   -5.7780   -2.9122 H   0  0  0  0  0  0  0  0  0  0  0  0
    4.5870   -3.1695    0.9089 H   0  0  0  0  0  0  0  0  0  0  0  0
    6.7634   -0.2085    4.0310 H   0  0  0  0  0  0  0  0  0  0  0  0
    6.3390   -1.7334    4.8773 H   0  0  0  0  0  0  0  0  0  0  0  0
    4.4376    0.6578    4.4733 H   0  0  0  0  0  0  0  0  0  0  0  0
    5.4211    0.4096    5.9047 H   0  0  0  0  0  0  0  0  0  0  0  0
    4.2616   -1.7610    6.3809 H   0  0  0  0  0  0  0  0  0  0  0  0
    3.2766   -1.5809    4.9371 H   0  0  0  0  0  0  0  0  0  0  0  0
    2.2962    0.5510    5.8675 H   0  0  0  0  0  0  0  0  0  0  0  0
    3.2814    0.3717    7.3159 H   0  0  0  0  0  0  0  0  0  0  0  0
    1.1136   -1.6330    6.3937 H   0  0  0  0  0  0  0  0  0  0  0  0
    0.9495   -0.4655    7.7261 H   0  0  0  0  0  0  0  0  0  0  0  0
    2.1058   -1.8108    7.8563 H   0  0  0  0  0  0  0  0  0  0  0  0
    7.5938   -0.3539   -0.8371 H   0  0  0  0  0  0  0  0  0  0  0  0
    6.7834    0.6711   -2.0473 H   0  0  0  0  0  0  0  0  0  0  0  0
    6.6113   -1.1212   -2.0978 H   0  0  0  0  0  0  0  0  0  0  0  0
  1  2  1  0
  1 29  1  0
  1 30  1  0
  1 31  1  0
  2  3  2  0
  2 32  1  0
  3  4  1  0
  3 33  1  0
  4  5  1  6
  4  6  1  0
  4 27  1  0
  5 34  1  0
  6  7  1  0
  6 35  1  0
  6 36  1  0
  7  8  1  0
  7 14  1  0
  7 37  1  1
  8  9  2  0
  8 11  1  0
  9 10  1  0
  9 38  1  0
 10 39  1  0
 11 12  2  0
 11 13  1  0
 13 14  1  0
 14 15  1  0
 14 40  1  1
 15 16  2  0
 15 27  1  0
 16 17  1  0
 16 24  1  0
 17 18  2  0
 17 19  1  0
 19 20  1  0
 19 41  1  0
 19 42  1  0
 20 21  1  0
 20 43  1  0
 20 44  1  0
 21 22  1  0
 21 45  1  0
 21 46  1  0
 22 23  1  0
 22 47  1  0
 22 48  1  0
 23 49  1  0
 23 50  1  0
 23 51  1  0
 24 25  2  0
 24 26  1  0
 26 27  1  0
 27 28  1  6
 28 52  1  0
 28 53  1  0
 28 54  1  0
M  END

