
     RDKit          3D

 38 38  0  0  0  0  0  0  0  0999 V2000
    2.8652    2.1449    1.2357 C   0  0  0  0  0  0  0  0  0  0  0  0
    2.5740    0.8651    0.4507 C   0  0  0  0  0  0  0  0  0  0  0  0
    2.7185   -0.3529    1.2515 N   0  0  0  0  0  0  0  0  0  0  0  0
    1.5371   -0.8463    1.9493 C   0  0  0  0  0  0  0  0  0  0  0  0
    0.6192   -1.7169    1.0959 C   0  0  0  0  0  0  0  0  0  0  0  0
    1.2641   -2.9254    0.7813 O   0  0  0  0  0  0  0  0  0  0  0  0
    0.5247   -3.7703   -0.0603 C   0  0  0  0  0  0  0  0  0  0  0  0
    3.9722   -0.9024    1.3473 C   0  0  0  0  0  0  0  0  0  0  0  0
    4.9305   -0.3995    0.7748 O   0  0  0  0  0  0  0  0  0  0  0  0
    4.1255   -2.1736    2.2177 C   0  0  1  0  0  0  0  0  0  0  0  0
    5.5371   -2.7817    2.1347 C   0  0  0  0  0  0  0  0  0  0  0  0
    5.9166   -3.0248    3.6021 C   0  0  0  0  0  0  0  0  0  0  0  0
    5.1352   -1.9303    4.3312 C   0  0  2  0  0  0  0  0  0  0  0  0
    4.7930   -2.1892    5.7949 C   0  0  0  0  0  0  0  0  0  0  0  0
    4.0656   -3.4405    5.9534 N   0  0  0  0  0  0  0  0  0  0  0  0
    3.9071   -1.8279    3.5979 O   0  0  0  0  0  0  0  0  0  0  0  0
    2.7174    3.0310    0.5970 H   0  0  0  0  0  0  0  0  0  0  0  0
    3.9080    2.1450    1.5858 H   0  0  0  0  0  0  0  0  0  0  0  0
    2.2035    2.2465    2.1117 H   0  0  0  0  0  0  0  0  0  0  0  0
    3.2649    0.7909   -0.4005 H   0  0  0  0  0  0  0  0  0  0  0  0
    1.5486    0.8868    0.0462 H   0  0  0  0  0  0  0  0  0  0  0  0
    0.9527    0.0211    2.3013 H   0  0  0  0  0  0  0  0  0  0  0  0
    1.8401   -1.3930    2.8506 H   0  0  0  0  0  0  0  0  0  0  0  0
    0.3305   -1.1792    0.1679 H   0  0  0  0  0  0  0  0  0  0  0  0
   -0.3191   -1.9074    1.6605 H   0  0  0  0  0  0  0  0  0  0  0  0
    1.1244   -4.6738   -0.2418 H   0  0  0  0  0  0  0  0  0  0  0  0
    0.3030   -3.2913   -1.0354 H   0  0  0  0  0  0  0  0  0  0  0  0
   -0.4392   -4.0724    0.3978 H   0  0  0  0  0  0  0  0  0  0  0  0
    3.3455   -2.8923    1.9272 H   0  0  0  0  0  0  0  0  0  0  0  0
    6.2087   -2.0546    1.6572 H   0  0  0  0  0  0  0  0  0  0  0  0
    5.5493   -3.7005    1.5304 H   0  0  0  0  0  0  0  0  0  0  0  0
    7.0005   -2.9555    3.7813 H   0  0  0  0  0  0  0  0  0  0  0  0
    5.5660   -4.0044    3.9603 H   0  0  0  0  0  0  0  0  0  0  0  0
    5.6822   -0.9672    4.2672 H   0  0  0  0  0  0  0  0  0  0  0  0
    4.2531   -1.2945    6.1735 H   0  0  0  0  0  0  0  0  0  0  0  0
    5.7402   -2.2452    6.3595 H   0  0  0  0  0  0  0  0  0  0  0  0
    3.1896   -3.3803    5.4336 H   0  0  0  0  0  0  0  0  0  0  0  0
    3.8214   -3.5942    6.9305 H   0  0  0  0  0  0  0  0  0  0  0  0
  1  2  1  0
  1 17  1  0
  1 18  1  0
  1 19  1  0
  2  3  1  0
  2 20  1  0
  2 21  1  0
  3  4  1  0
  3  8  1  0
  4  5  1  0
  4 22  1  0
  4 23  1  0
  5  6  1  0
  5 24  1  0
  5 25  1  0
  6  7  1  0
  7 26  1  0
  7 27  1  0
  7 28  1  0
  8  9  2  0
  8 10  1  0
 10 11  1  0
 10 16  1  0
 10 29  1  6
 11 12  1  0
 11 30  1  0
 11 31  1  0
 12 13  1  0
 12 32  1  0
 12 33  1  0
 13 14  1  0
 13 16  1  0
 13 34  1  1
 14 15  1  0
 14 35  1  0
 14 36  1  0
 15 37  1  0
 15 38  1  0
M  END

