
     RDKit          3D

 29 29  0  0  0  0  0  0  0  0999 V2000
    2.5612   -1.3312    0.4466 C   0  0  0  0  0  0  0  0  0  0  0  0
    2.3013    0.1698    0.3239 C   0  0  0  0  0  0  0  0  0  0  0  0
    2.7781    0.7709   -0.9352 N   0  0  0  0  0  0  0  0  0  0  0  0
    1.7813    1.2413   -1.8827 C   0  0  0  0  0  0  0  0  0  0  0  0
    0.9822    0.1605   -2.6331 C   0  0  0  0  0  0  0  0  0  0  0  0
    1.6693   -0.9697   -2.9486 N   0  0  0  0  0  0  0  0  0  0  0  0
   -0.1759    0.3581   -2.9471 O   0  0  0  0  0  0  0  0  0  0  0  0
    4.1178    1.0493   -1.0124 C   0  0  0  0  0  0  0  0  0  0  0  0
    4.9054    0.7476   -0.1336 O   0  0  0  0  0  0  0  0  0  0  0  0
    4.6329    1.7652   -2.2517 C   0  0  0  0  0  0  0  0  0  0  0  0
    4.5753    3.1627   -2.3154 C   0  0  0  0  0  0  0  0  0  0  0  0
    3.9068    3.8064   -1.3463 F   0  0  0  0  0  0  0  0  0  0  0  0
    5.1571    3.9004   -3.3405 C   0  0  0  0  0  0  0  0  0  0  0  0
    5.8341    3.2160   -4.3522 C   0  0  0  0  0  0  0  0  0  0  0  0
    5.9190    1.8216   -4.3327 C   0  0  0  0  0  0  0  0  0  0  0  0
    5.3254    1.1152   -3.2830 C   0  0  0  0  0  0  0  0  0  0  0  0
    5.4679   -0.7923   -3.2805 Br  0  0  0  0  0  0  0  0  0  0  0  0
    2.1832   -1.6952    1.4154 H   0  0  0  0  0  0  0  0  0  0  0  0
    3.6403   -1.5371    0.4036 H   0  0  0  0  0  0  0  0  0  0  0  0
    2.0553   -1.8944   -0.3515 H   0  0  0  0  0  0  0  0  0  0  0  0
    2.7998    0.6947    1.1537 H   0  0  0  0  0  0  0  0  0  0  0  0
    1.2232    0.3803    0.3925 H   0  0  0  0  0  0  0  0  0  0  0  0
    2.2671    1.8599   -2.6506 H   0  0  0  0  0  0  0  0  0  0  0  0
    1.0344    1.8785   -1.3835 H   0  0  0  0  0  0  0  0  0  0  0  0
    2.6565   -1.0760   -2.7458 H   0  0  0  0  0  0  0  0  0  0  0  0
    1.2031   -1.6695   -3.5142 H   0  0  0  0  0  0  0  0  0  0  0  0
    5.0722    4.9883   -3.3304 H   0  0  0  0  0  0  0  0  0  0  0  0
    6.3005    3.7737   -5.1675 H   0  0  0  0  0  0  0  0  0  0  0  0
    6.4448    1.2838   -5.1224 H   0  0  0  0  0  0  0  0  0  0  0  0
  1  2  1  0
  1 18  1  0
  1 19  1  0
  1 20  1  0
  2  3  1  0
  2 21  1  0
  2 22  1  0
  3  4  1  0
  3  8  1  0
  4  5  1  0
  4 23  1  0
  4 24  1  0
  5  6  1  0
  5  7  2  0
  6 25  1  0
  6 26  1  0
  8  9  2  0
  8 10  1  0
 10 11  2  0
 10 16  1  0
 11 12  1  0
 11 13  1  0
 13 14  2  0
 13 27  1  0
 14 15  1  0
 14 28  1  0
 15 16  2  0
 15 29  1  0
 16 17  1  0
M  END

