
     RDKit          3D

 45 46  0  0  0  0  0  0  0  0999 V2000
   -0.5875    6.8395   -0.9405 C   0  0  0  0  0  0  0  0  0  0  0  0
    0.4354    5.7654   -1.0670 C   0  0  0  0  0  0  0  0  0  0  0  0
    1.7301    5.7372   -1.5037 C   0  0  0  0  0  0  0  0  0  0  0  0
    2.1061    4.3656   -1.3626 C   0  0  0  0  0  0  0  0  0  0  0  0
    3.4414    3.7335   -1.6514 C   0  0  0  0  0  0  0  0  0  0  0  0
    4.4454    4.0400   -0.6366 N   0  0  0  0  0  0  0  0  0  0  0  0
    4.4050    3.2902    0.6060 C   0  0  0  0  0  0  0  0  0  0  0  0
    5.2706    5.1296   -0.8641 C   0  0  0  0  0  0  0  0  0  0  0  0
    5.1015    5.8747   -1.8271 O   0  0  0  0  0  0  0  0  0  0  0  0
    6.2706    5.3238    0.0632 N   0  0  0  0  0  0  0  0  0  0  0  0
    7.2862    6.3819   -0.0558 C   0  0  1  0  0  0  0  0  0  0  0  0
    8.1650    6.2142   -1.3031 C   0  0  0  0  0  0  0  0  0  0  0  0
    6.6758    7.7917    0.0354 C   0  0  0  0  0  0  0  0  0  0  0  0
    5.9190    8.0636    1.3464 C   0  0  0  0  0  0  0  0  0  0  0  0
    5.3053    9.4453    1.4030 C   0  0  0  0  0  0  0  0  0  0  0  0
    4.0643    9.7028    0.7964 C   0  0  0  0  0  0  0  0  0  0  0  0
    3.5068   10.9838    0.8130 C   0  0  0  0  0  0  0  0  0  0  0  0
    4.1817   12.0366    1.4393 C   0  0  0  0  0  0  0  0  0  0  0  0
    5.4165   11.7956    2.0479 C   0  0  0  0  0  0  0  0  0  0  0  0
    5.9705   10.5120    2.0277 C   0  0  0  0  0  0  0  0  0  0  0  0
    1.1207    3.6446   -0.8772 N   0  0  0  0  0  0  0  0  0  0  0  0
    0.0667    4.5227   -0.6918 O   0  0  0  0  0  0  0  0  0  0  0  0
   -0.1760    7.7993   -1.2797 H   0  0  0  0  0  0  0  0  0  0  0  0
   -0.9177    6.9474    0.1055 H   0  0  0  0  0  0  0  0  0  0  0  0
   -1.4792    6.6056   -1.5445 H   0  0  0  0  0  0  0  0  0  0  0  0
    2.3503    6.5485   -1.8746 H   0  0  0  0  0  0  0  0  0  0  0  0
    3.8178    4.0995   -2.6144 H   0  0  0  0  0  0  0  0  0  0  0  0
    3.3108    2.6423   -1.7110 H   0  0  0  0  0  0  0  0  0  0  0  0
    3.3876    2.9005    0.7606 H   0  0  0  0  0  0  0  0  0  0  0  0
    4.6352    3.9382    1.4656 H   0  0  0  0  0  0  0  0  0  0  0  0
    5.1027    2.4297    0.6147 H   0  0  0  0  0  0  0  0  0  0  0  0
    6.5062    4.5507    0.6705 H   0  0  0  0  0  0  0  0  0  0  0  0
    7.9257    6.2439    0.8340 H   0  0  0  0  0  0  0  0  0  0  0  0
    7.5620    6.3348   -2.2138 H   0  0  0  0  0  0  0  0  0  0  0  0
    8.6291    5.2150   -1.3221 H   0  0  0  0  0  0  0  0  0  0  0  0
    8.9720    6.9641   -1.3108 H   0  0  0  0  0  0  0  0  0  0  0  0
    6.0049    7.9430   -0.8231 H   0  0  0  0  0  0  0  0  0  0  0  0
    7.4950    8.5235   -0.0678 H   0  0  0  0  0  0  0  0  0  0  0  0
    6.6071    7.9322    2.2000 H   0  0  0  0  0  0  0  0  0  0  0  0
    5.1280    7.3052    1.4635 H   0  0  0  0  0  0  0  0  0  0  0  0
    3.5288    8.8837    0.3069 H   0  0  0  0  0  0  0  0  0  0  0  0
    2.5384   11.1614    0.3372 H   0  0  0  0  0  0  0  0  0  0  0  0
    3.7455   13.0387    1.4555 H   0  0  0  0  0  0  0  0  0  0  0  0
    5.9511   12.6103    2.5439 H   0  0  0  0  0  0  0  0  0  0  0  0
    6.9362   10.3327    2.5104 H   0  0  0  0  0  0  0  0  0  0  0  0
  1  2  1  0
  1 23  1  0
  1 24  1  0
  1 25  1  0
  2  3  2  0
  2 22  1  0
  3  4  1  0
  3 26  1  0
  4  5  1  0
  4 21  2  0
  5  6  1  0
  5 27  1  0
  5 28  1  0
  6  7  1  0
  6  8  1  0
  7 29  1  0
  7 30  1  0
  7 31  1  0
  8  9  2  0
  8 10  1  0
 10 11  1  0
 10 32  1  0
 11 12  1  0
 11 13  1  0
 11 33  1  1
 12 34  1  0
 12 35  1  0
 12 36  1  0
 13 14  1  0
 13 37  1  0
 13 38  1  0
 14 15  1  0
 14 39  1  0
 14 40  1  0
 15 16  2  0
 15 20  1  0
 16 17  1  0
 16 41  1  0
 17 18  2  0
 17 42  1  0
 18 19  1  0
 18 43  1  0
 19 20  2  0
 19 44  1  0
 20 45  1  0
 21 22  1  0
M  END

