
     RDKit          3D

110124  0  0  0  0  0  0  0  0999 V2000
   -2.1079    1.0698   -1.5142 C   0  0  0  0  0  0  0  0  0  0  0  0
   -2.2412   -0.3410   -1.5422 C   0  0  0  0  0  0  0  0  0  0  0  0
   -1.1537   -1.1531   -1.2883 C   0  0  0  0  0  0  0  0  0  0  0  0
    0.1199   -0.5925   -0.9910 C   0  0  0  0  0  0  0  0  0  0  0  0
    1.2947   -1.3739   -0.7291 C   0  0  0  0  0  0  0  0  0  0  0  0
    1.2161   -2.8682   -0.7618 C   0  0  0  0  0  0  0  0  0  0  0  0
    1.7010   -3.5921   -1.8633 C   0  0  0  0  0  0  0  0  0  0  0  0
    1.6363   -4.9860   -1.8943 C   0  0  0  0  0  0  0  0  0  0  0  0
    1.0655   -5.6912   -0.8243 C   0  0  0  0  0  0  0  0  0  0  0  0
    0.9900   -7.1079   -0.8556 N   0  0  0  0  0  0  0  0  0  0  0  0
    1.5223   -7.9772    0.1028 C   0  0  0  0  0  0  0  0  0  0  0  0
    2.2572   -7.6879    1.2599 C   0  0  0  0  0  0  0  0  0  0  0  0
    2.6928   -8.7596    2.0406 C   0  0  0  0  0  0  0  0  0  0  0  0
    2.4114  -10.0913    1.6820 C   0  0  0  0  0  0  0  0  0  0  0  0
    1.6905  -10.3754    0.5230 C   0  0  0  0  0  0  0  0  0  0  0  0
    1.2412   -9.3169   -0.2799 C   0  0  0  0  0  0  0  0  0  0  0  0
    0.5028   -9.2498   -1.5260 C   0  0  0  0  0  0  0  0  0  0  0  0
   -0.0567  -10.2178   -2.3727 C   0  0  0  0  0  0  0  0  0  0  0  0
   -0.7405   -9.8075   -3.5162 C   0  0  0  0  0  0  0  0  0  0  0  0
   -0.8756   -8.4388   -3.8161 C   0  0  0  0  0  0  0  0  0  0  0  0
   -0.3281   -7.4553   -2.9910 C   0  0  0  0  0  0  0  0  0  0  0  0
    0.3689   -7.8722   -1.8496 C   0  0  0  0  0  0  0  0  0  0  0  0
    0.5690   -4.9772    0.2767 C   0  0  0  0  0  0  0  0  0  0  0  0
    0.6508   -3.5842    0.3068 C   0  0  0  0  0  0  0  0  0  0  0  0
    2.4910   -0.7226   -0.4604 C   0  0  0  0  0  0  0  0  0  0  0  0
    2.5040    0.7174   -0.4539 C   0  0  0  0  0  0  0  0  0  0  0  0
    1.4336    1.4471   -0.7045 N   0  0  0  0  0  0  0  0  0  0  0  0
    0.2544    0.8350   -0.9700 C   0  0  0  0  0  0  0  0  0  0  0  0
   -0.8865    1.6446   -1.2357 C   0  0  0  0  0  0  0  0  0  0  0  0
    3.7751    1.4282   -0.1657 C   0  0  0  0  0  0  0  0  0  0  0  0
    3.9126    2.7924   -0.4667 C   0  0  0  0  0  0  0  0  0  0  0  0
    5.0928    3.4835   -0.1946 C   0  0  0  0  0  0  0  0  0  0  0  0
    6.1701    2.7938    0.4066 C   0  0  0  0  0  0  0  0  0  0  0  0
    6.0326    1.4296    0.7077 C   0  0  0  0  0  0  0  0  0  0  0  0
    4.8524    0.7385    0.4356 C   0  0  0  0  0  0  0  0  0  0  0  0
    4.6726   -0.7141    0.8083 C   0  0  0  0  0  0  0  0  0  0  0  0
    3.7944   -1.4500   -0.2079 C   0  0  0  0  0  0  0  0  0  0  0  0
    7.4412    3.5045    0.6948 C   0  0  0  0  0  0  0  0  0  0  0  0
    8.5115    2.7748    0.9459 N   0  0  0  0  0  0  0  0  0  0  0  0
    9.6908    3.3868    1.2111 C   0  0  0  0  0  0  0  0  0  0  0  0
   10.8316    2.5772    1.4773 C   0  0  0  0  0  0  0  0  0  0  0  0
   12.0531    3.1521    1.7554 C   0  0  0  0  0  0  0  0  0  0  0  0
   12.1867    4.5628    1.7824 C   0  0  0  0  0  0  0  0  0  0  0  0
   11.0992    5.3749    1.5280 C   0  0  0  0  0  0  0  0  0  0  0  0
    9.8255    4.8143    1.2313 C   0  0  0  0  0  0  0  0  0  0  0  0
    8.6509    5.5957    0.9691 C   0  0  0  0  0  0  0  0  0  0  0  0
    8.7296    7.0901    1.0014 C   0  0  0  0  0  0  0  0  0  0  0  0
    9.2915    7.8062   -0.0688 C   0  0  0  0  0  0  0  0  0  0  0  0
    9.3734    9.1993   -0.0387 C   0  0  0  0  0  0  0  0  0  0  0  0
    8.8801    9.9130    1.0639 C   0  0  0  0  0  0  0  0  0  0  0  0
    8.9556   11.3297    1.0952 N   0  0  0  0  0  0  0  0  0  0  0  0
    8.4209   12.1991    0.1381 C   0  0  0  0  0  0  0  0  0  0  0  0
    7.6829   11.9100   -1.0170 C   0  0  0  0  0  0  0  0  0  0  0  0
    7.2454   12.9818   -1.7965 C   0  0  0  0  0  0  0  0  0  0  0  0
    7.5279   14.3135   -1.4386 C   0  0  0  0  0  0  0  0  0  0  0  0
    8.2519   14.5975   -0.2815 C   0  0  0  0  0  0  0  0  0  0  0  0
    8.7032   13.5388    0.5201 C   0  0  0  0  0  0  0  0  0  0  0  0
    9.4448   13.4716    1.7643 C   0  0  0  0  0  0  0  0  0  0  0  0
   10.0067   14.4395    2.6095 C   0  0  0  0  0  0  0  0  0  0  0  0
   10.6934   14.0291    3.7513 C   0  0  0  0  0  0  0  0  0  0  0  0
   10.8291   12.6604    4.0507 C   0  0  0  0  0  0  0  0  0  0  0  0
   10.2793   11.6770    3.2271 C   0  0  0  0  0  0  0  0  0  0  0  0
    9.5794   12.0940    2.0876 C   0  0  0  0  0  0  0  0  0  0  0  0
    8.3126    9.2077    2.1355 C   0  0  0  0  0  0  0  0  0  0  0  0
    8.2480    7.8138    2.1045 C   0  0  0  0  0  0  0  0  0  0  0  0
    7.4545    4.9446    0.7007 C   0  0  0  0  0  0  0  0  0  0  0  0
    6.1512    5.6721    0.4482 C   0  0  0  0  0  0  0  0  0  0  0  0
    5.2724    4.9362   -0.5674 C   0  0  0  0  0  0  0  0  0  0  0  0
   -2.9777    1.6999   -1.7168 H   0  0  0  0  0  0  0  0  0  0  0  0
   -3.2121   -0.7884   -1.7697 H   0  0  0  0  0  0  0  0  0  0  0  0
   -1.2649   -2.2383   -1.3184 H   0  0  0  0  0  0  0  0  0  0  0  0
    2.1444   -3.0559   -2.7060 H   0  0  0  0  0  0  0  0  0  0  0  0
    2.0370   -5.5362   -2.7479 H   0  0  0  0  0  0  0  0  0  0  0  0
    2.4881   -6.6600    1.5435 H   0  0  0  0  0  0  0  0  0  0  0  0
    3.2670   -8.5572    2.9484 H   0  0  0  0  0  0  0  0  0  0  0  0
    2.7660  -10.9071    2.3163 H   0  0  0  0  0  0  0  0  0  0  0  0
    1.4806  -11.4102    0.2405 H   0  0  0  0  0  0  0  0  0  0  0  0
    0.0396  -11.2805   -2.1359 H   0  0  0  0  0  0  0  0  0  0  0  0
   -1.1799  -10.5519   -4.1843 H   0  0  0  0  0  0  0  0  0  0  0  0
   -1.4226   -8.1364   -4.7127 H   0  0  0  0  0  0  0  0  0  0  0  0
   -0.4458   -6.3972   -3.2294 H   0  0  0  0  0  0  0  0  0  0  0  0
    0.1095   -5.5190    1.1057 H   0  0  0  0  0  0  0  0  0  0  0  0
    0.2601   -3.0410    1.1708 H   0  0  0  0  0  0  0  0  0  0  0  0
   -0.7494    2.7274   -1.2086 H   0  0  0  0  0  0  0  0  0  0  0  0
    3.0634    3.3032   -0.9247 H   0  0  0  0  0  0  0  0  0  0  0  0
    6.8818    0.9189    1.1658 H   0  0  0  0  0  0  0  0  0  0  0  0
    4.2002   -0.7770    1.8073 H   0  0  0  0  0  0  0  0  0  0  0  0
    5.6518   -1.2091    0.8971 H   0  0  0  0  0  0  0  0  0  0  0  0
    3.6024   -2.4802    0.1231 H   0  0  0  0  0  0  0  0  0  0  0  0
    4.3473   -1.5298   -1.1633 H   0  0  0  0  0  0  0  0  0  0  0  0
   10.6943    1.4944    1.4510 H   0  0  0  0  0  0  0  0  0  0  0  0
   12.9228    2.5219    1.9584 H   0  0  0  0  0  0  0  0  0  0  0  0
   13.1577    5.0102    2.0093 H   0  0  0  0  0  0  0  0  0  0  0  0
   11.2106    6.4601    1.5573 H   0  0  0  0  0  0  0  0  0  0  0  0
    9.6797    7.2631   -0.9340 H   0  0  0  0  0  0  0  0  0  0  0  0
    9.8304    9.7412   -0.8690 H   0  0  0  0  0  0  0  0  0  0  0  0
    7.4510   10.8822   -1.3000 H   0  0  0  0  0  0  0  0  0  0  0  0
    6.6688   12.7795   -2.7028 H   0  0  0  0  0  0  0  0  0  0  0  0
    7.1718   15.1294   -2.0720 H   0  0  0  0  0  0  0  0  0  0  0  0
    8.4627   15.6322    0.0005 H   0  0  0  0  0  0  0  0  0  0  0  0
    9.9099   15.5022    2.3730 H   0  0  0  0  0  0  0  0  0  0  0  0
   11.1347   14.7735    4.4182 H   0  0  0  0  0  0  0  0  0  0  0  0
   11.3785   12.3579    4.9459 H   0  0  0  0  0  0  0  0  0  0  0  0
   10.3976   10.6188    3.4652 H   0  0  0  0  0  0  0  0  0  0  0  0
    7.9144    9.7577    2.9904 H   0  0  0  0  0  0  0  0  0  0  0  0
    7.8072    7.2774    2.9485 H   0  0  0  0  0  0  0  0  0  0  0  0
    6.3433    6.7022    0.1167 H   0  0  0  0  0  0  0  0  0  0  0  0
    5.5987    5.7525    1.4038 H   0  0  0  0  0  0  0  0  0  0  0  0
    5.7441    4.9990   -1.5668 H   0  0  0  0  0  0  0  0  0  0  0  0
    4.2931    5.4311   -0.6556 H   0  0  0  0  0  0  0  0  0  0  0  0
  1  2  2  0
  1 29  1  0
  1 69  1  0
  2  3  1  0
  2 70  1  0
  3  4  2  0
  3 71  1  0
  4  5  1  0
  4 28  1  0
  5  6  1  0
  5 25  2  0
  6  7  2  0
  6 24  1  0
  7  8  1  0
  7 72  1  0
  8  9  2  0
  8 73  1  0
  9 10  1  0
  9 23  1  0
 10 11  1  0
 10 22  1  0
 11 12  2  0
 11 16  1  0
 12 13  1  0
 12 74  1  0
 13 14  2  0
 13 75  1  0
 14 15  1  0
 14 76  1  0
 15 16  2  0
 15 77  1  0
 16 17  1  0
 17 18  1  0
 17 22  2  0
 18 19  2  0
 18 78  1  0
 19 20  1  0
 19 79  1  0
 20 21  2  0
 20 80  1  0
 21 22  1  0
 21 81  1  0
 23 24  2  0
 23 82  1  0
 24 83  1  0
 25 26  1  0
 25 37  1  0
 26 27  2  0
 26 30  1  0
 27 28  1  0
 28 29  2  0
 29 84  1  0
 30 31  2  0
 30 35  1  0
 31 32  1  0
 31 85  1  0
 32 33  2  0
 32 68  1  0
 33 34  1  0
 33 38  1  0
 34 35  2  0
 34 86  1  0
 35 36  1  0
 36 37  1  0
 36 87  1  0
 36 88  1  0
 37 89  1  0
 37 90  1  0
 38 39  2  0
 38 66  1  0
 39 40  1  0
 40 41  2  0
 40 45  1  0
 41 42  1  0
 41 91  1  0
 42 43  2  0
 42 92  1  0
 43 44  1  0
 43 93  1  0
 44 45  2  0
 44 94  1  0
 45 46  1  0
 46 47  1  0
 46 66  2  0
 47 48  2  0
 47 65  1  0
 48 49  1  0
 48 95  1  0
 49 50  2  0
 49 96  1  0
 50 51  1  0
 50 64  1  0
 51 52  1  0
 51 63  1  0
 52 53  2  0
 52 57  1  0
 53 54  1  0
 53 97  1  0
 54 55  2  0
 54 98  1  0
 55 56  1  0
 55 99  1  0
 56 57  2  0
 56100  1  0
 57 58  1  0
 58 59  1  0
 58 63  2  0
 59 60  2  0
 59101  1  0
 60 61  1  0
 60102  1  0
 61 62  2  0
 61103  1  0
 62 63  1  0
 62104  1  0
 64 65  2  0
 64105  1  0
 65106  1  0
 66 67  1  0
 67 68  1  0
 67107  1  0
 67108  1  0
 68109  1  0
 68110  1  0
M  END

