
     RDKit          3D

 36 36  0  0  0  0  0  0  0  0999 V2000
    0.9067    0.6269    0.3066 C   0  0  0  0  0  0  0  0  0  0  0  0
    2.4215    0.4335    0.3708 C   0  0  0  0  0  0  0  0  0  0  0  0
    2.9023   -0.6348    1.3684 C   0  0  1  0  0  0  0  0  0  0  0  0
    2.3306   -2.0438    1.1040 C   0  0  0  0  0  0  0  0  0  0  0  0
    2.6906   -2.6452   -0.2556 C   0  0  0  0  0  0  0  0  0  0  0  0
    4.3651   -0.6511    1.3562 N   0  0  0  0  0  0  0  0  0  0  0  0
    5.0159   -1.2801    2.4999 C   0  0  0  0  0  0  0  0  0  0  0  0
    6.4986   -0.9827    2.5102 C   0  0  0  0  0  0  0  0  0  0  0  0
    7.3665   -1.7348    1.7037 C   0  0  0  0  0  0  0  0  0  0  0  0
    8.7352   -1.4672    1.6831 C   0  0  0  0  0  0  0  0  0  0  0  0
    9.8849   -2.5223    0.5864 Br  0  0  0  0  0  0  0  0  0  0  0  0
    9.2749   -0.4384    2.4604 C   0  0  0  0  0  0  0  0  0  0  0  0
    8.4202    0.3274    3.2517 C   0  0  0  0  0  0  0  0  0  0  0  0
    7.0482    0.0638    3.2694 C   0  0  0  0  0  0  0  0  0  0  0  0
    6.2763    0.8289    4.1359 O   0  0  0  0  0  0  0  0  0  0  0  0
    5.3310    1.7120    3.6785 C   0  0  1  0  0  0  0  0  0  0  0  0
    5.3290    2.7634    4.5097 F   0  0  0  0  0  0  0  0  0  0  0  0
    5.6383    2.1579    2.4327 F   0  0  0  0  0  0  0  0  0  0  0  0
    0.6485    1.4721   -0.3507 H   0  0  0  0  0  0  0  0  0  0  0  0
    0.4834    0.8409    1.3024 H   0  0  0  0  0  0  0  0  0  0  0  0
    0.3912   -0.2626   -0.0885 H   0  0  0  0  0  0  0  0  0  0  0  0
    2.8940    1.3912    0.6571 H   0  0  0  0  0  0  0  0  0  0  0  0
    2.8177    0.1927   -0.6302 H   0  0  0  0  0  0  0  0  0  0  0  0
    2.5246   -0.3320    2.3758 H   0  0  0  0  0  0  0  0  0  0  0  0
    1.2352   -2.0041    1.2268 H   0  0  0  0  0  0  0  0  0  0  0  0
    2.6820   -2.7164    1.9055 H   0  0  0  0  0  0  0  0  0  0  0  0
    2.2319   -2.0873   -1.0879 H   0  0  0  0  0  0  0  0  0  0  0  0
    2.3424   -3.6876   -0.3299 H   0  0  0  0  0  0  0  0  0  0  0  0
    3.7801   -2.6328   -0.4113 H   0  0  0  0  0  0  0  0  0  0  0  0
    4.7298    0.2892    1.2186 H   0  0  0  0  0  0  0  0  0  0  0  0
    4.8797   -2.3727    2.4434 H   0  0  0  0  0  0  0  0  0  0  0  0
    4.5751   -0.9714    3.4734 H   0  0  0  0  0  0  0  0  0  0  0  0
    6.9574   -2.5415    1.0929 H   0  0  0  0  0  0  0  0  0  0  0  0
   10.3468   -0.2362    2.4460 H   0  0  0  0  0  0  0  0  0  0  0  0
    8.8047    1.1403    3.8701 H   0  0  0  0  0  0  0  0  0  0  0  0
    4.3140    1.2829    3.6502 H   0  0  0  0  0  0  0  0  0  0  0  0
  1  2  1  0
  1 19  1  0
  1 20  1  0
  1 21  1  0
  2  3  1  0
  2 22  1  0
  2 23  1  0
  3  4  1  0
  3  6  1  0
  3 24  1  1
  4  5  1  0
  4 25  1  0
  4 26  1  0
  5 27  1  0
  5 28  1  0
  5 29  1  0
  6  7  1  0
  6 30  1  0
  7  8  1  0
  7 31  1  0
  7 32  1  0
  8  9  2  0
  8 14  1  0
  9 10  1  0
  9 33  1  0
 10 11  1  0
 10 12  2  0
 12 13  1  0
 12 34  1  0
 13 14  2  0
 13 35  1  0
 14 15  1  0
 15 16  1  0
 16 17  1  0
 16 18  1  0
 16 36  1  6
M  END

