
     RDKit          3D

 36 35  0  0  0  0  0  0  0  0999 V2000
    0.6362    0.4544    2.6375 C   0  0  0  0  0  0  0  0  0  0  0  0
    2.1565    0.2849    2.6042 C   0  0  0  0  0  0  0  0  0  0  0  0
    2.7713    0.8095    1.2985 C   0  0  0  0  0  0  0  0  0  0  0  0
    4.3236    0.7965    1.1961 C   0  0  1  0  0  0  0  0  0  0  0  0
    4.7765   -0.6836    1.2890 C   0  0  0  0  0  0  0  0  0  0  0  0
    4.7778    1.3760   -0.1876 C   0  0  0  0  0  0  0  0  0  0  0  0
    4.4172    0.5682   -1.4383 C   0  0  0  0  0  0  0  0  0  0  0  0
    5.0409    1.6502    2.2862 C   0  0  0  0  0  0  0  0  0  0  0  0
    6.3796    1.1115    2.7370 C   0  0  0  0  0  0  0  0  0  0  0  0
    4.5542    2.8014    2.8339 C   0  0  0  0  0  0  0  0  0  0  0  0
    3.2665    3.4877    2.4689 C   0  0  0  0  0  0  0  0  0  0  0  0
    2.3539    3.6347    3.2552 O   0  0  0  0  0  0  0  0  0  0  0  0
    3.1946    4.0562    1.2557 O   0  0  0  0  0  0  0  0  0  0  0  0
    5.2140    3.4864    4.0339 C   0  0  0  0  0  0  0  0  0  0  0  0
    6.3975    3.6822    4.1457 O   0  0  0  0  0  0  0  0  0  0  0  0
    4.3577    3.8584    4.9907 O   0  0  0  0  0  0  0  0  0  0  0  0
    0.2075    0.0418    3.5644 H   0  0  0  0  0  0  0  0  0  0  0  0
    0.1538   -0.0603    1.7894 H   0  0  0  0  0  0  0  0  0  0  0  0
    0.3588    1.5196    2.5877 H   0  0  0  0  0  0  0  0  0  0  0  0
    2.4089   -0.7811    2.7337 H   0  0  0  0  0  0  0  0  0  0  0  0
    2.5955    0.8113    3.4677 H   0  0  0  0  0  0  0  0  0  0  0  0
    2.3775    1.8137    1.0879 H   0  0  0  0  0  0  0  0  0  0  0  0
    2.3879    0.1913    0.4694 H   0  0  0  0  0  0  0  0  0  0  0  0
    4.1603   -1.3004    0.6194 H   0  0  0  0  0  0  0  0  0  0  0  0
    4.6556   -1.0876    2.3036 H   0  0  0  0  0  0  0  0  0  0  0  0
    5.8250   -0.8275    0.9934 H   0  0  0  0  0  0  0  0  0  0  0  0
    5.8722    1.5161   -0.1638 H   0  0  0  0  0  0  0  0  0  0  0  0
    4.3442    2.3836   -0.2992 H   0  0  0  0  0  0  0  0  0  0  0  0
    4.9035   -0.4186   -1.4514 H   0  0  0  0  0  0  0  0  0  0  0  0
    4.7524    1.1072   -2.3385 H   0  0  0  0  0  0  0  0  0  0  0  0
    3.3320    0.4125   -1.5378 H   0  0  0  0  0  0  0  0  0  0  0  0
    6.9876    0.8447    1.8584 H   0  0  0  0  0  0  0  0  0  0  0  0
    6.2547    0.1849    3.3191 H   0  0  0  0  0  0  0  0  0  0  0  0
    6.9391    1.8368    3.3312 H   0  0  0  0  0  0  0  0  0  0  0  0
    4.0319    3.9234    0.7850 H   0  0  0  0  0  0  0  0  0  0  0  0
    3.4328    3.6915    4.7017 H   0  0  0  0  0  0  0  0  0  0  0  0
  1  2  1  0
  1 17  1  0
  1 18  1  0
  1 19  1  0
  2  3  1  0
  2 20  1  0
  2 21  1  0
  3  4  1  0
  3 22  1  0
  3 23  1  0
  4  5  1  0
  4  6  1  0
  4  8  1  1
  5 24  1  0
  5 25  1  0
  5 26  1  0
  6  7  1  0
  6 27  1  0
  6 28  1  0
  7 29  1  0
  7 30  1  0
  7 31  1  0
  8  9  1  0
  8 10  2  0
  9 32  1  0
  9 33  1  0
  9 34  1  0
 10 11  1  0
 10 14  1  0
 11 12  2  0
 11 13  1  0
 13 35  1  0
 14 15  2  0
 14 16  1  0
 16 36  1  0
M  END

