
     RDKit          3D

 41 41  0  0  0  0  0  0  0  0999 V2000
    0.7603    4.4831    0.0815 C   0  0  0  0  0  0  0  0  0  0  0  0
    2.2359    4.5944   -0.3047 C   0  0  0  0  0  0  0  0  0  0  0  0
    2.8030    3.3149   -0.9262 C   0  0  0  0  0  0  0  0  0  0  0  0
    4.2844    3.4151   -1.3027 C   0  0  0  0  0  0  0  0  0  0  0  0
    4.8120    2.1660   -2.0180 C   0  0  1  0  0  0  0  0  0  0  0  0
    4.1661    1.9829   -3.2735 O   0  0  0  0  0  0  0  0  0  0  0  0
    6.3726    2.0913   -2.1123 C   0  0  1  0  0  0  0  0  0  0  0  0
    6.9071    2.2103   -0.7800 O   0  0  0  0  0  0  0  0  0  0  0  0
    6.6548    1.2105    0.1885 C   0  0  0  0  0  0  0  0  0  0  0  0
    7.5035    1.5240    1.4100 C   0  0  0  0  0  0  0  0  0  0  0  0
    6.8456    0.7673   -2.7650 C   0  0  0  0  0  0  0  0  0  0  0  0
    6.7878    0.7307   -4.3006 C   0  0  0  0  0  0  0  0  0  0  0  0
    7.5040    1.9304   -4.9281 C   0  0  0  0  0  0  0  0  0  0  0  0
    6.9565    3.2506   -4.3763 C   0  0  0  0  0  0  0  0  0  0  0  0
    7.0236    3.2874   -2.8437 C   0  0  0  0  0  0  0  0  0  0  0  0
    0.3827    5.4214    0.5187 H   0  0  0  0  0  0  0  0  0  0  0  0
    0.5993    3.6823    0.8228 H   0  0  0  0  0  0  0  0  0  0  0  0
    0.1342    4.2480   -0.7956 H   0  0  0  0  0  0  0  0  0  0  0  0
    2.8326    4.8626    0.5864 H   0  0  0  0  0  0  0  0  0  0  0  0
    2.3688    5.4320   -1.0141 H   0  0  0  0  0  0  0  0  0  0  0  0
    2.2216    3.0483   -1.8259 H   0  0  0  0  0  0  0  0  0  0  0  0
    2.6641    2.4743   -0.2207 H   0  0  0  0  0  0  0  0  0  0  0  0
    4.8982    3.6010   -0.4071 H   0  0  0  0  0  0  0  0  0  0  0  0
    4.4350    4.2944   -1.9579 H   0  0  0  0  0  0  0  0  0  0  0  0
    4.5004    1.2834   -1.4342 H   0  0  0  0  0  0  0  0  0  0  0  0
    4.2566    2.7999   -3.7816 H   0  0  0  0  0  0  0  0  0  0  0  0
    6.9086    0.2049   -0.1952 H   0  0  0  0  0  0  0  0  0  0  0  0
    5.5849    1.1846    0.4764 H   0  0  0  0  0  0  0  0  0  0  0  0
    8.5727    1.5244    1.1473 H   0  0  0  0  0  0  0  0  0  0  0  0
    7.3363    0.7756    2.2008 H   0  0  0  0  0  0  0  0  0  0  0  0
    7.2529    2.5180    1.8122 H   0  0  0  0  0  0  0  0  0  0  0  0
    6.2707   -0.0813   -2.3592 H   0  0  0  0  0  0  0  0  0  0  0  0
    7.8928    0.6250   -2.4433 H   0  0  0  0  0  0  0  0  0  0  0  0
    5.7361    0.7189   -4.6233 H   0  0  0  0  0  0  0  0  0  0  0  0
    7.2431   -0.2102   -4.6539 H   0  0  0  0  0  0  0  0  0  0  0  0
    7.4113    1.9033   -6.0269 H   0  0  0  0  0  0  0  0  0  0  0  0
    8.5856    1.8726   -4.7043 H   0  0  0  0  0  0  0  0  0  0  0  0
    5.9209    3.3938   -4.7340 H   0  0  0  0  0  0  0  0  0  0  0  0
    7.5278    4.1032   -4.7808 H   0  0  0  0  0  0  0  0  0  0  0  0
    6.6142    4.2308   -2.4500 H   0  0  0  0  0  0  0  0  0  0  0  0
    8.0828    3.2730   -2.5376 H   0  0  0  0  0  0  0  0  0  0  0  0
  1  2  1  0
  1 16  1  0
  1 17  1  0
  1 18  1  0
  2  3  1  0
  2 19  1  0
  2 20  1  0
  3  4  1  0
  3 21  1  0
  3 22  1  0
  4  5  1  0
  4 23  1  0
  4 24  1  0
  5  6  1  0
  5  7  1  0
  5 25  1  1
  6 26  1  0
  7  8  1  1
  7 11  1  0
  7 15  1  0
  8  9  1  0
  9 10  1  0
  9 27  1  0
  9 28  1  0
 10 29  1  0
 10 30  1  0
 10 31  1  0
 11 12  1  0
 11 32  1  0
 11 33  1  0
 12 13  1  0
 12 34  1  0
 12 35  1  0
 13 14  1  0
 13 36  1  0
 13 37  1  0
 14 15  1  0
 14 38  1  0
 14 39  1  0
 15 40  1  0
 15 41  1  0
M  END

