
     RDKit          3D

 44 45  0  0  0  0  0  0  0  0999 V2000
    3.6604    2.6186    2.0462 C   0  0  0  0  0  0  0  0  0  0  0  0
    3.3534    1.2486    1.9268 O   0  0  0  0  0  0  0  0  0  0  0  0
    3.3544    0.7481    0.6035 C   0  0  0  0  0  0  0  0  0  0  0  0
    4.7290    0.6863   -0.0478 C   0  0  0  0  0  0  0  0  0  0  0  0
    4.9206    1.4542   -1.2016 C   0  0  0  0  0  0  0  0  0  0  0  0
    6.1555    1.5486   -1.8799 C   0  0  0  0  0  0  0  0  0  0  0  0
    6.4417    2.3073   -3.0830 C   0  0  0  0  0  0  0  0  0  0  0  0
    5.7596    3.1293   -3.9521 C   0  0  0  0  0  0  0  0  0  0  0  0
    6.5306    3.6504   -5.0511 C   0  0  0  0  0  0  0  0  0  0  0  0
    7.1928    4.0443   -5.9207 N   0  0  0  0  0  0  0  0  0  0  0  0
    4.3301    3.5499   -3.9044 C   0  0  0  0  0  0  0  0  0  0  0  0
    3.5169    3.2500   -3.0548 O   0  0  0  0  0  0  0  0  0  0  0  0
    4.0344    4.3258   -4.9589 O   0  0  0  0  0  0  0  0  0  0  0  0
    2.6930    4.8533   -5.0609 C   0  0  0  0  0  0  0  0  0  0  0  0
    2.5447    6.1674   -4.3323 C   0  0  0  0  0  0  0  0  0  0  0  0
    3.0034    7.3556   -4.9226 C   0  0  0  0  0  0  0  0  0  0  0  0
    2.8872    8.5740   -4.2501 C   0  0  0  0  0  0  0  0  0  0  0  0
    2.3074    8.6184   -2.9778 C   0  0  0  0  0  0  0  0  0  0  0  0
    1.8486    7.4402   -2.3815 C   0  0  0  0  0  0  0  0  0  0  0  0
    1.9700    6.2207   -3.0535 C   0  0  0  0  0  0  0  0  0  0  0  0
    7.2445    0.8308   -1.3215 C   0  0  0  0  0  0  0  0  0  0  0  0
    7.0884    0.0657   -0.1831 C   0  0  0  0  0  0  0  0  0  0  0  0
    5.8401   -0.0379    0.4698 C   0  0  0  0  0  0  0  0  0  0  0  0
    5.8782   -0.8263    1.5601 O   0  0  0  0  0  0  0  0  0  0  0  0
    4.7436   -1.4495    2.1461 C   0  0  0  0  0  0  0  0  0  0  0  0
    3.5847    2.8783    3.1119 H   0  0  0  0  0  0  0  0  0  0  0  0
    2.9475    3.2468    1.4763 H   0  0  0  0  0  0  0  0  0  0  0  0
    4.6824    2.8553    1.6960 H   0  0  0  0  0  0  0  0  0  0  0  0
    2.7021    1.3681   -0.0396 H   0  0  0  0  0  0  0  0  0  0  0  0
    2.8877   -0.2449    0.6653 H   0  0  0  0  0  0  0  0  0  0  0  0
    4.0776    2.0182   -1.5956 H   0  0  0  0  0  0  0  0  0  0  0  0
    7.4889    2.1889   -3.3815 H   0  0  0  0  0  0  0  0  0  0  0  0
    1.9860    4.1055   -4.6774 H   0  0  0  0  0  0  0  0  0  0  0  0
    2.5406    4.9843   -6.1406 H   0  0  0  0  0  0  0  0  0  0  0  0
    3.4562    7.3237   -5.9177 H   0  0  0  0  0  0  0  0  0  0  0  0
    3.2471    9.4924   -4.7209 H   0  0  0  0  0  0  0  0  0  0  0  0
    2.2127    9.5722   -2.4521 H   0  0  0  0  0  0  0  0  0  0  0  0
    1.3954    7.4704   -1.3872 H   0  0  0  0  0  0  0  0  0  0  0  0
    1.6272    5.2964   -2.5828 H   0  0  0  0  0  0  0  0  0  0  0  0
    8.2245    0.8763   -1.8039 H   0  0  0  0  0  0  0  0  0  0  0  0
    7.9225   -0.4958    0.2415 H   0  0  0  0  0  0  0  0  0  0  0  0
    5.1441   -2.1381    2.9022 H   0  0  0  0  0  0  0  0  0  0  0  0
    4.1843   -2.0369    1.3988 H   0  0  0  0  0  0  0  0  0  0  0  0
    4.0823   -0.7157    2.6277 H   0  0  0  0  0  0  0  0  0  0  0  0
  1  2  1  0
  1 26  1  0
  1 27  1  0
  1 28  1  0
  2  3  1  0
  3  4  1  0
  3 29  1  0
  3 30  1  0
  4  5  2  0
  4 23  1  0
  5  6  1  0
  5 31  1  0
  6  7  1  0
  6 21  2  0
  7  8  2  0
  7 32  1  0
  8  9  1  0
  8 11  1  0
  9 10  3  0
 11 12  2  0
 11 13  1  0
 13 14  1  0
 14 15  1  0
 14 33  1  0
 14 34  1  0
 15 16  2  0
 15 20  1  0
 16 17  1  0
 16 35  1  0
 17 18  2  0
 17 36  1  0
 18 19  1  0
 18 37  1  0
 19 20  2  0
 19 38  1  0
 20 39  1  0
 21 22  1  0
 21 40  1  0
 22 23  2  0
 22 41  1  0
 23 24  1  0
 24 25  1  0
 25 42  1  0
 25 43  1  0
 25 44  1  0
M  END

