
     RDKit          3D

 33 33  0  0  0  0  0  0  0  0999 V2000
    0.8631    0.2052    2.3771 C   0  0  0  0  0  0  0  0  0  0  0  0
    2.1991   -0.5347    2.2809 C   0  0  1  0  0  0  0  0  0  0  0  0
    1.9886   -1.9105    1.9919 O   0  0  0  0  0  0  0  0  0  0  0  0
    3.1526    0.1424    1.2811 C   0  0  0  0  0  0  0  0  0  0  0  0
    4.6494   -0.2567    1.3163 C   0  0  1  0  0  0  0  0  0  0  0  0
    4.8505   -1.7543    1.0284 C   0  0  0  0  0  0  0  0  0  0  0  0
    5.4033    0.5780    0.2588 C   0  0  0  0  0  0  0  0  0  0  0  0
    5.1443    0.0706    2.6683 N   0  0  0  0  0  0  0  0  0  0  0  0
    6.3988   -0.1464    3.1495 C   0  0  0  0  0  0  0  0  0  0  0  0
    7.5356   -0.8445    2.8698 C   0  0  0  0  0  0  0  0  0  0  0  0
    8.3288   -0.2052    3.9923 C   0  0  2  0  0  0  0  0  0  0  0  0
    8.9660   -1.0298    4.9366 O   0  0  0  0  0  0  0  0  0  0  0  0
    6.9784    0.5092    4.3911 C   0  0  1  0  0  0  0  0  0  0  0  0
    6.8892    1.9103    4.4863 O   0  0  0  0  0  0  0  0  0  0  0  0
    0.1891   -0.3263    3.0654 H   0  0  0  0  0  0  0  0  0  0  0  0
    0.3708    0.2582    1.3896 H   0  0  0  0  0  0  0  0  0  0  0  0
    0.9905    1.2373    2.7410 H   0  0  0  0  0  0  0  0  0  0  0  0
    2.6776   -0.5338    3.2740 H   0  0  0  0  0  0  0  0  0  0  0  0
    1.5659   -1.9731    1.1238 H   0  0  0  0  0  0  0  0  0  0  0  0
    3.0965    1.2353    1.4393 H   0  0  0  0  0  0  0  0  0  0  0  0
    2.7700   -0.0253    0.2579 H   0  0  0  0  0  0  0  0  0  0  0  0
    4.4101   -2.0082    0.0514 H   0  0  0  0  0  0  0  0  0  0  0  0
    4.3641   -2.3769    1.7889 H   0  0  0  0  0  0  0  0  0  0  0  0
    5.9195   -2.0051    0.9831 H   0  0  0  0  0  0  0  0  0  0  0  0
    5.0484    0.3445   -0.7577 H   0  0  0  0  0  0  0  0  0  0  0  0
    6.4832    0.3693    0.2988 H   0  0  0  0  0  0  0  0  0  0  0  0
    5.2572    1.6569    0.4312 H   0  0  0  0  0  0  0  0  0  0  0  0
    4.7078    0.8846    3.0928 H   0  0  0  0  0  0  0  0  0  0  0  0
    7.8220   -1.5723    2.1100 H   0  0  0  0  0  0  0  0  0  0  0  0
    9.0915    0.5346    3.6847 H   0  0  0  0  0  0  0  0  0  0  0  0
    8.3941   -1.7973    5.0783 H   0  0  0  0  0  0  0  0  0  0  0  0
    6.5819    0.1086    5.3389 H   0  0  0  0  0  0  0  0  0  0  0  0
    7.3311    2.2912    3.7145 H   0  0  0  0  0  0  0  0  0  0  0  0
  1  2  1  0
  1 15  1  0
  1 16  1  0
  1 17  1  0
  2  3  1  0
  2  4  1  0
  2 18  1  1
  3 19  1  0
  4  5  1  0
  4 20  1  0
  4 21  1  0
  5  6  1  0
  5  7  1  0
  5  8  1  1
  6 22  1  0
  6 23  1  0
  6 24  1  0
  7 25  1  0
  7 26  1  0
  7 27  1  0
  8  9  1  0
  8 28  1  0
  9 10  2  0
  9 13  1  0
 10 11  1  0
 10 29  1  0
 11 12  1  0
 11 13  1  0
 11 30  1  6
 12 31  1  0
 13 14  1  0
 13 32  1  1
 14 33  1  0
M  END

