
     RDKit          3D

 46 47  0  0  0  0  0  0  0  0999 V2000
    1.4203    0.2613    1.7110 C   0  0  0  0  0  0  0  0  0  0  0  0
    2.5713    0.2892    0.7457 C   0  0  0  0  0  0  0  0  0  0  0  0
    3.6961   -0.4341    0.9214 C   0  0  0  0  0  0  0  0  0  0  0  0
    3.8033   -1.2342    2.0281 O   0  0  0  0  0  0  0  0  0  0  0  0
    5.0101   -1.8986    2.0503 C   0  0  0  0  0  0  0  0  0  0  0  0
    5.2655   -2.7336    3.0900 C   0  0  0  0  0  0  0  0  0  0  0  0
    6.3908   -3.5804    3.4488 C   0  0  0  0  0  0  0  0  0  0  0  0
    7.5824   -3.7216    2.7012 C   0  0  0  0  0  0  0  0  0  0  0  0
    8.6168   -4.5515    3.1079 C   0  0  0  0  0  0  0  0  0  0  0  0
    8.5005   -5.2862    4.2982 C   0  0  0  0  0  0  0  0  0  0  0  0
    9.5536   -6.0739    4.6270 O   0  0  0  0  0  0  0  0  0  0  0  0
    9.5117   -6.8421    5.8068 C   0  0  0  0  0  0  0  0  0  0  0  0
    7.3352   -5.1775    5.0733 C   0  0  0  0  0  0  0  0  0  0  0  0
    6.2946   -4.3361    4.6544 C   0  0  0  0  0  0  0  0  0  0  0  0
    5.1469   -4.1959    5.3681 O   0  0  0  0  0  0  0  0  0  0  0  0
    4.9648   -4.9035    6.5718 C   0  0  0  0  0  0  0  0  0  0  0  0
    5.7378   -1.4768    0.8381 C   0  0  0  0  0  0  0  0  0  0  0  0
    6.8476   -1.8176    0.4563 O   0  0  0  0  0  0  0  0  0  0  0  0
    4.8904   -0.5804    0.1815 N   0  0  0  0  0  0  0  0  0  0  0  0
    5.3276    0.0553   -1.1145 C   0  0  1  0  0  0  0  0  0  0  0  0
    5.5766   -1.0660   -2.1439 C   0  0  0  0  0  0  0  0  0  0  0  0
    4.2797    1.0114   -1.7001 C   0  0  0  0  0  0  0  0  0  0  0  0
    6.6135    0.8642   -0.8473 C   0  0  0  0  0  0  0  0  0  0  0  0
    1.2120    1.2688    2.1140 H   0  0  0  0  0  0  0  0  0  0  0  0
    1.6107   -0.4086    2.5596 H   0  0  0  0  0  0  0  0  0  0  0  0
    0.4911   -0.0739    1.2159 H   0  0  0  0  0  0  0  0  0  0  0  0
    2.4734    0.9258   -0.1249 H   0  0  0  0  0  0  0  0  0  0  0  0
    4.4399   -2.7687    3.8043 H   0  0  0  0  0  0  0  0  0  0  0  0
    7.6780   -3.1535    1.7761 H   0  0  0  0  0  0  0  0  0  0  0  0
    9.5302   -4.6490    2.5188 H   0  0  0  0  0  0  0  0  0  0  0  0
   10.4627   -7.3893    5.8586 H   0  0  0  0  0  0  0  0  0  0  0  0
    8.6817   -7.5718    5.7949 H   0  0  0  0  0  0  0  0  0  0  0  0
    9.4157   -6.2096    6.7081 H   0  0  0  0  0  0  0  0  0  0  0  0
    7.2363   -5.7426    5.9961 H   0  0  0  0  0  0  0  0  0  0  0  0
    3.9731   -4.6228    6.9515 H   0  0  0  0  0  0  0  0  0  0  0  0
    5.7249   -4.6341    7.3272 H   0  0  0  0  0  0  0  0  0  0  0  0
    4.9900   -5.9969    6.4149 H   0  0  0  0  0  0  0  0  0  0  0  0
    4.6476   -1.6276   -2.3311 H   0  0  0  0  0  0  0  0  0  0  0  0
    6.3494   -1.7627   -1.7985 H   0  0  0  0  0  0  0  0  0  0  0  0
    5.9051   -0.6235   -3.0972 H   0  0  0  0  0  0  0  0  0  0  0  0
    3.3395    0.5013   -1.9498 H   0  0  0  0  0  0  0  0  0  0  0  0
    4.6922    1.4174   -2.6355 H   0  0  0  0  0  0  0  0  0  0  0  0
    4.0707    1.8617   -1.0368 H   0  0  0  0  0  0  0  0  0  0  0  0
    7.4170    0.2244   -0.4641 H   0  0  0  0  0  0  0  0  0  0  0  0
    6.4170    1.6661   -0.1180 H   0  0  0  0  0  0  0  0  0  0  0  0
    6.9549    1.3317   -1.7840 H   0  0  0  0  0  0  0  0  0  0  0  0
  1  2  1  0
  1 24  1  0
  1 25  1  0
  1 26  1  0
  2  3  2  0
  2 27  1  0
  3  4  1  0
  3 19  1  0
  4  5  1  0
  5  6  2  0
  5 17  1  0
  6  7  1  0
  6 28  1  0
  7  8  2  0
  7 14  1  0
  8  9  1  0
  8 29  1  0
  9 10  2  0
  9 30  1  0
 10 11  1  0
 10 13  1  0
 11 12  1  0
 12 31  1  0
 12 32  1  0
 12 33  1  0
 13 14  2  0
 13 34  1  0
 14 15  1  0
 15 16  1  0
 16 35  1  0
 16 36  1  0
 16 37  1  0
 17 18  2  0
 17 19  1  0
 19 20  1  0
 20 21  1  6
 20 22  1  0
 20 23  1  0
 21 38  1  0
 21 39  1  0
 21 40  1  0
 22 41  1  0
 22 42  1  0
 22 43  1  0
 23 44  1  0
 23 45  1  0
 23 46  1  0
M  END

