
     RDKit          3D

 56 57  0  0  0  0  0  0  0  0999 V2000
    1.2939    0.4363   -0.1413 C   0  0  0  0  0  0  0  0  0  0  0  0
    1.8540    0.0777    1.1014 O   0  0  0  0  0  0  0  0  0  0  0  0
    2.7430    0.9175    1.6953 C   0  0  0  0  0  0  0  0  0  0  0  0
    3.1814    2.1286    1.1477 C   0  0  0  0  0  0  0  0  0  0  0  0
    4.0758    2.9461    1.8508 C   0  0  0  0  0  0  0  0  0  0  0  0
    4.5532    2.5808    3.1130 C   0  0  0  0  0  0  0  0  0  0  0  0
    5.5456    3.4405    3.8634 C   0  0  0  0  0  0  0  0  0  0  0  0
    7.0002    2.9624    3.6788 C   0  0  0  0  0  0  0  0  0  0  0  0
    7.9642    3.7828    4.3854 N   0  0  0  0  0  0  0  0  0  0  0  0
    8.5913    3.4039    5.5124 C   0  0  0  0  0  0  0  0  0  0  0  0
    8.4781    2.3247    6.0843 O   0  0  0  0  0  0  0  0  0  0  0  0
    9.5317    4.5099    6.0539 C   0  0  0  0  0  0  0  0  0  0  0  0
    9.6322    5.5874    5.4832 O   0  0  0  0  0  0  0  0  0  0  0  0
   10.1553    4.0798    7.1769 N   0  0  0  0  0  0  0  0  0  0  0  0
   11.0885    4.7225    8.0151 C   0  0  0  0  0  0  0  0  0  0  0  0
   11.4997    6.0313    7.7004 C   0  0  0  0  0  0  0  0  0  0  0  0
   12.4201    6.7006    8.5032 C   0  0  0  0  0  0  0  0  0  0  0  0
   12.9390    6.0676    9.6297 C   0  0  0  0  0  0  0  0  0  0  0  0
   12.5286    4.7686    9.9389 C   0  0  0  0  0  0  0  0  0  0  0  0
   11.6036    4.0494    9.1630 C   0  0  0  0  0  0  0  0  0  0  0  0
   11.1962    2.6068    9.5727 C   0  0  1  0  0  0  0  0  0  0  0  0
   11.9224    2.1582   10.8594 C   0  0  0  0  0  0  0  0  0  0  0  0
    9.6783    2.5232    9.8836 C   0  0  0  0  0  0  0  0  0  0  0  0
   11.5921    1.5831    8.4758 C   0  0  0  0  0  0  0  0  0  0  0  0
    4.1177    1.3566    3.6499 C   0  0  0  0  0  0  0  0  0  0  0  0
    3.2291    0.5256    2.9693 C   0  0  0  0  0  0  0  0  0  0  0  0
    2.7958   -0.6127    3.5848 O   0  0  0  0  0  0  0  0  0  0  0  0
    3.1312   -1.8554    2.9855 C   0  0  0  0  0  0  0  0  0  0  0  0
    0.5997   -0.3693   -0.4160 H   0  0  0  0  0  0  0  0  0  0  0  0
    2.0629    0.5299   -0.9297 H   0  0  0  0  0  0  0  0  0  0  0  0
    0.7329    1.3861   -0.0787 H   0  0  0  0  0  0  0  0  0  0  0  0
    2.8183    2.4547    0.1728 H   0  0  0  0  0  0  0  0  0  0  0  0
    4.3916    3.8922    1.4020 H   0  0  0  0  0  0  0  0  0  0  0  0
    5.3147    3.4383    4.9413 H   0  0  0  0  0  0  0  0  0  0  0  0
    5.4662    4.4867    3.5228 H   0  0  0  0  0  0  0  0  0  0  0  0
    7.2518    2.9481    2.6050 H   0  0  0  0  0  0  0  0  0  0  0  0
    7.1103    1.9369    4.0594 H   0  0  0  0  0  0  0  0  0  0  0  0
    8.1775    4.7292    4.0761 H   0  0  0  0  0  0  0  0  0  0  0  0
    9.8667    3.1338    7.4112 H   0  0  0  0  0  0  0  0  0  0  0  0
   11.0812    6.5068    6.8161 H   0  0  0  0  0  0  0  0  0  0  0  0
   12.7262    7.7165    8.2413 H   0  0  0  0  0  0  0  0  0  0  0  0
   13.6622    6.5749   10.2730 H   0  0  0  0  0  0  0  0  0  0  0  0
   12.9541    4.3042   10.8264 H   0  0  0  0  0  0  0  0  0  0  0  0
   11.6797    2.8008   11.7193 H   0  0  0  0  0  0  0  0  0  0  0  0
   13.0160    2.1437   10.7360 H   0  0  0  0  0  0  0  0  0  0  0  0
   11.6069    1.1349   11.1143 H   0  0  0  0  0  0  0  0  0  0  0  0
    9.4072    3.2432   10.6717 H   0  0  0  0  0  0  0  0  0  0  0  0
    9.4269    1.5138   10.2470 H   0  0  0  0  0  0  0  0  0  0  0  0
    9.0258    2.7178    9.0212 H   0  0  0  0  0  0  0  0  0  0  0  0
   12.6723    1.6397    8.2691 H   0  0  0  0  0  0  0  0  0  0  0  0
   11.0665    1.7142    7.5197 H   0  0  0  0  0  0  0  0  0  0  0  0
   11.3671    0.5610    8.8208 H   0  0  0  0  0  0  0  0  0  0  0  0
    4.4543    1.0240    4.6353 H   0  0  0  0  0  0  0  0  0  0  0  0
    2.7580   -2.6393    3.6596 H   0  0  0  0  0  0  0  0  0  0  0  0
    4.2267   -1.9658    2.8846 H   0  0  0  0  0  0  0  0  0  0  0  0
    2.6629   -1.9752    1.9962 H   0  0  0  0  0  0  0  0  0  0  0  0
  1  2  1  0
  1 29  1  0
  1 30  1  0
  1 31  1  0
  2  3  1  0
  3  4  2  0
  3 26  1  0
  4  5  1  0
  4 32  1  0
  5  6  2  0
  5 33  1  0
  6  7  1  0
  6 25  1  0
  7  8  1  0
  7 34  1  0
  7 35  1  0
  8  9  1  0
  8 36  1  0
  8 37  1  0
  9 10  1  0
  9 38  1  0
 10 11  2  0
 10 12  1  0
 12 13  2  0
 12 14  1  0
 14 15  1  0
 14 39  1  0
 15 16  2  0
 15 20  1  0
 16 17  1  0
 16 40  1  0
 17 18  2  0
 17 41  1  0
 18 19  1  0
 18 42  1  0
 19 20  2  0
 19 43  1  0
 20 21  1  0
 21 22  1  1
 21 23  1  0
 21 24  1  0
 22 44  1  0
 22 45  1  0
 22 46  1  0
 23 47  1  0
 23 48  1  0
 23 49  1  0
 24 50  1  0
 24 51  1  0
 24 52  1  0
 25 26  2  0
 25 53  1  0
 26 27  1  0
 27 28  1  0
 28 54  1  0
 28 55  1  0
 28 56  1  0
M  END

