
     RDKit          3D

 29 30  0  0  0  0  0  0  0  0999 V2000
    1.3702   -0.3182    1.3675 Br  0  0  0  0  0  0  0  0  0  0  0  0
    3.1063   -0.0154    0.6662 C   0  0  0  0  0  0  0  0  0  0  0  0
    3.5891    1.2298    0.3895 C   0  0  0  0  0  0  0  0  0  0  0  0
    5.2163    1.0700   -0.2375 S   0  0  0  0  0  0  0  0  0  0  0  0
    5.0633   -0.6864   -0.0581 C   0  0  0  0  0  0  0  0  0  0  0  0
    6.0970   -1.5144   -0.3689 N   0  0  0  0  0  0  0  0  0  0  0  0
    5.9588   -2.9628   -0.3612 C   0  0  0  0  0  0  0  0  0  0  0  0
    7.3073   -3.6471   -0.1449 C   0  0  0  0  0  0  0  0  0  0  0  0
    7.1977   -5.1816   -0.1319 C   0  0  0  0  0  0  0  0  0  0  0  0
    8.5287   -5.8725    0.0721 C   0  0  0  0  0  0  0  0  0  0  0  0
    9.0207   -6.1201    1.3639 C   0  0  0  0  0  0  0  0  0  0  0  0
   10.2660   -6.7242    1.5562 C   0  0  0  0  0  0  0  0  0  0  0  0
   11.0451   -7.0932    0.4553 C   0  0  0  0  0  0  0  0  0  0  0  0
   10.5676   -6.8548   -0.8367 C   0  0  0  0  0  0  0  0  0  0  0  0
    9.3212   -6.2502   -1.0237 C   0  0  0  0  0  0  0  0  0  0  0  0
    3.9125   -1.0850    0.4168 N   0  0  0  0  0  0  0  0  0  0  0  0
    3.1099    2.1980    0.5050 H   0  0  0  0  0  0  0  0  0  0  0  0
    6.8693   -1.1204   -0.8925 H   0  0  0  0  0  0  0  0  0  0  0  0
    5.4954   -3.3221   -1.3021 H   0  0  0  0  0  0  0  0  0  0  0  0
    5.2553   -3.2193    0.4446 H   0  0  0  0  0  0  0  0  0  0  0  0
    7.7451   -3.2956    0.8047 H   0  0  0  0  0  0  0  0  0  0  0  0
    8.0124   -3.3445   -0.9412 H   0  0  0  0  0  0  0  0  0  0  0  0
    6.7487   -5.5200   -1.0813 H   0  0  0  0  0  0  0  0  0  0  0  0
    6.4985   -5.4827    0.6669 H   0  0  0  0  0  0  0  0  0  0  0  0
    8.4158   -5.8408    2.2320 H   0  0  0  0  0  0  0  0  0  0  0  0
   10.6277   -6.9119    2.5707 H   0  0  0  0  0  0  0  0  0  0  0  0
   12.0178   -7.5689    0.6038 H   0  0  0  0  0  0  0  0  0  0  0  0
   11.1661   -7.1453   -1.7043 H   0  0  0  0  0  0  0  0  0  0  0  0
    8.9530   -6.0742   -2.0392 H   0  0  0  0  0  0  0  0  0  0  0  0
  1  2  1  0
  2  3  2  0
  2 16  1  0
  3  4  1  0
  3 17  1  0
  4  5  1  0
  5  6  1  0
  5 16  2  0
  6  7  1  0
  6 18  1  0
  7  8  1  0
  7 19  1  0
  7 20  1  0
  8  9  1  0
  8 21  1  0
  8 22  1  0
  9 10  1  0
  9 23  1  0
  9 24  1  0
 10 11  2  0
 10 15  1  0
 11 12  1  0
 11 25  1  0
 12 13  2  0
 12 26  1  0
 13 14  1  0
 13 27  1  0
 14 15  2  0
 14 28  1  0
 15 29  1  0
M  END

