
     RDKit          3D

 62 65  0  0  0  0  0  0  0  0999 V2000
   10.4256   -3.1225    5.0849 C   0  0  0  0  0  0  0  0  0  0  0  0
    9.9049   -2.3735    3.8820 C   0  0  0  0  0  0  0  0  0  0  0  0
    8.5356   -2.2894    3.6059 C   0  0  0  0  0  0  0  0  0  0  0  0
    8.0759   -1.5696    2.4999 C   0  0  0  0  0  0  0  0  0  0  0  0
    8.9673   -0.9180    1.6325 C   0  0  0  0  0  0  0  0  0  0  0  0
    8.4245   -0.1620    0.4727 C   0  0  0  0  0  0  0  0  0  0  0  0
    8.7594    1.1669    0.2972 N   0  0  0  0  0  0  0  0  0  0  0  0
    8.1679    1.7020   -0.7259 C   0  0  0  0  0  0  0  0  0  0  0  0
    8.3197    3.1309   -1.1497 C   0  0  0  0  0  0  0  0  0  0  0  0
    7.1288    0.5852   -1.5986 S   0  0  0  0  0  0  0  0  0  0  0  0
    7.5564   -0.6733   -0.4711 C   0  0  0  0  0  0  0  0  0  0  0  0
    7.0404   -2.0699   -0.6372 C   0  0  0  0  0  0  0  0  0  0  0  0
    5.6079   -2.2759   -0.0985 C   0  0  0  0  0  0  0  0  0  0  0  0
    5.1218   -1.4644    0.6742 O   0  0  0  0  0  0  0  0  0  0  0  0
    4.9324   -3.3889   -0.5437 N   0  0  0  0  0  0  0  0  0  0  0  0
    5.6330   -4.5891   -1.0162 C   0  0  0  0  0  0  0  0  0  0  0  0
    5.8321   -5.5885    0.1351 C   0  0  0  0  0  0  0  0  0  0  0  0
    4.5013   -5.9195    0.8270 C   0  0  0  0  0  0  0  0  0  0  0  0
    3.7147   -4.6511    1.1889 C   0  0  0  0  0  0  0  0  0  0  0  0
    3.5823   -3.7326   -0.0356 C   0  0  1  0  0  0  0  0  0  0  0  0
    3.1420   -4.3384   -0.8478 H   0  0  0  0  0  0  0  0  0  0  0  0
    2.6222   -2.5491    0.1729 C   0  0  0  0  0  0  0  0  0  0  0  0
    1.2486   -3.0170    0.2604 N   0  0  0  0  0  0  0  0  0  0  0  0
    0.3346   -2.1229    0.9633 C   0  0  0  0  0  0  0  0  0  0  0  0
   -1.0479   -2.7565    0.7360 C   0  0  0  0  0  0  0  0  0  0  0  0
   -0.8926   -3.5432   -0.5952 C   0  0  0  0  0  0  0  0  0  0  0  0
    0.5782   -3.3248   -0.9977 C   0  0  0  0  0  0  0  0  0  0  0  0
   10.3592   -0.9908    1.8947 C   0  0  0  0  0  0  0  0  0  0  0  0
   11.3682   -0.3197    0.9951 C   0  0  0  0  0  0  0  0  0  0  0  0
   10.7903   -1.7173    3.0109 C   0  0  0  0  0  0  0  0  0  0  0  0
    9.6397   -3.7343    5.5524 H   0  0  0  0  0  0  0  0  0  0  0  0
   10.8061   -2.4275    5.8536 H   0  0  0  0  0  0  0  0  0  0  0  0
   11.2611   -3.7893    4.8155 H   0  0  0  0  0  0  0  0  0  0  0  0
    7.8158   -2.7801    4.2676 H   0  0  0  0  0  0  0  0  0  0  0  0
    7.0034   -1.4852    2.3091 H   0  0  0  0  0  0  0  0  0  0  0  0
    9.0335    3.6207   -0.4736 H   0  0  0  0  0  0  0  0  0  0  0  0
    7.3603    3.6714   -1.1001 H   0  0  0  0  0  0  0  0  0  0  0  0
    8.6941    3.2125   -2.1831 H   0  0  0  0  0  0  0  0  0  0  0  0
    7.7122   -2.7527   -0.0908 H   0  0  0  0  0  0  0  0  0  0  0  0
    7.0897   -2.3616   -1.6981 H   0  0  0  0  0  0  0  0  0  0  0  0
    6.5936   -4.3234   -1.4713 H   0  0  0  0  0  0  0  0  0  0  0  0
    5.0232   -5.0506   -1.8131 H   0  0  0  0  0  0  0  0  0  0  0  0
    6.5329   -5.1466    0.8658 H   0  0  0  0  0  0  0  0  0  0  0  0
    6.3104   -6.5054   -0.2494 H   0  0  0  0  0  0  0  0  0  0  0  0
    4.6819   -6.5350    1.7237 H   0  0  0  0  0  0  0  0  0  0  0  0
    3.8874   -6.5382    0.1464 H   0  0  0  0  0  0  0  0  0  0  0  0
    4.2247   -4.0929    1.9937 H   0  0  0  0  0  0  0  0  0  0  0  0
    2.7061   -4.9031    1.5507 H   0  0  0  0  0  0  0  0  0  0  0  0
    2.8792   -2.0228    1.0991 H   0  0  0  0  0  0  0  0  0  0  0  0
    2.7564   -1.8145   -0.6512 H   0  0  0  0  0  0  0  0  0  0  0  0
    0.3606   -1.0938    0.5340 H   0  0  0  0  0  0  0  0  0  0  0  0
    0.6091   -2.0377    2.0269 H   0  0  0  0  0  0  0  0  0  0  0  0
   -1.8419   -1.9960    0.6920 H   0  0  0  0  0  0  0  0  0  0  0  0
   -1.2963   -3.4413    1.5608 H   0  0  0  0  0  0  0  0  0  0  0  0
   -1.5790   -3.1911   -1.3799 H   0  0  0  0  0  0  0  0  0  0  0  0
   -1.0985   -4.6129   -0.4400 H   0  0  0  0  0  0  0  0  0  0  0  0
    0.6619   -2.4732   -1.7143 H   0  0  0  0  0  0  0  0  0  0  0  0
    1.0189   -4.2050   -1.4928 H   0  0  0  0  0  0  0  0  0  0  0  0
   11.2585   -0.6540   -0.0502 H   0  0  0  0  0  0  0  0  0  0  0  0
   12.3962   -0.5401    1.3184 H   0  0  0  0  0  0  0  0  0  0  0  0
   11.2226    0.7707    0.9862 H   0  0  0  0  0  0  0  0  0  0  0  0
   11.8657   -1.7777    3.2083 H   0  0  0  0  0  0  0  0  0  0  0  0
  1  2  1  0
  1 31  1  0
  1 32  1  0
  1 33  1  0
  2  3  2  0
  2 30  1  0
  3  4  1  0
  3 34  1  0
  4  5  2  0
  4 35  1  0
  5  6  1  0
  5 28  1  0
  6  7  1  0
  6 11  2  0
  7  8  2  0
  8  9  1  0
  8 10  1  0
  9 36  1  0
  9 37  1  0
  9 38  1  0
 10 11  1  0
 11 12  1  0
 12 13  1  0
 12 39  1  0
 12 40  1  0
 13 14  2  0
 13 15  1  0
 15 16  1  0
 15 20  1  0
 16 17  1  0
 16 41  1  0
 16 42  1  0
 17 18  1  0
 17 43  1  0
 17 44  1  0
 18 19  1  0
 18 45  1  0
 18 46  1  0
 19 20  1  0
 19 47  1  0
 19 48  1  0
 20 21  1  6
 20 22  1  0
 22 23  1  0
 22 49  1  0
 22 50  1  0
 23 24  1  0
 23 27  1  0
 24 25  1  0
 24 51  1  0
 24 52  1  0
 25 26  1  0
 25 53  1  0
 25 54  1  0
 26 27  1  0
 26 55  1  0
 26 56  1  0
 27 57  1  0
 27 58  1  0
 28 29  1  0
 28 30  2  0
 29 59  1  0
 29 60  1  0
 29 61  1  0
 30 62  1  0
M  END

