
     RDKit          3D

 51 52  0  0  0  0  0  0  0  0999 V2000
    0.8577    1.5985   -0.6775 C   0  0  0  0  0  0  0  0  0  0  0  0
    2.3828    1.5546   -0.6780 C   0  0  0  0  0  0  0  0  0  0  0  0
    2.9702    1.1224    0.5944 N   0  0  0  0  0  0  0  0  0  0  0  0
    2.4987   -0.1655    1.0954 C   0  0  0  0  0  0  0  0  0  0  0  0
    2.8165   -1.3441    0.1613 C   0  0  0  0  0  0  0  0  0  0  0  0
    2.0686   -1.7361   -0.6942 O   0  0  0  0  0  0  0  0  0  0  0  0
    4.0531   -1.8861    0.2876 O   0  0  0  0  0  0  0  0  0  0  0  0
    4.4136    1.2749    0.6125 C   0  0  1  0  0  0  0  0  0  0  0  0
    4.9771    2.7195    0.5932 C   0  0  0  0  0  0  0  0  0  0  0  0
    6.0348    2.2936    1.6424 C   0  0  2  0  0  0  0  0  0  0  0  0
    7.2971    1.9484    1.0110 N   0  0  0  0  0  0  0  0  0  0  0  0
    8.2962    1.3552    1.7598 C   0  0  0  0  0  0  0  0  0  0  0  0
    8.0825    0.9646    2.9034 O   0  0  0  0  0  0  0  0  0  0  0  0
    9.5206    1.2179    1.1302 N   0  0  0  0  0  0  0  0  0  0  0  0
    9.7344    1.6265   -0.2456 C   0  0  0  0  0  0  0  0  0  0  0  0
   10.5967    0.5177    1.8537 C   0  0  1  0  0  0  0  0  0  0  0  0
   10.8325   -0.8872    1.2902 C   0  0  0  0  0  0  0  0  0  0  0  0
   11.8419    1.3994    1.9523 C   0  0  0  0  0  0  0  0  0  0  0  0
   11.7438    2.6242    2.6377 C   0  0  0  0  0  0  0  0  0  0  0  0
   12.8443    3.4722    2.7579 C   0  0  0  0  0  0  0  0  0  0  0  0
   14.0741    3.1129    2.1924 C   0  0  0  0  0  0  0  0  0  0  0  0
   14.1873    1.8997    1.5128 C   0  0  0  0  0  0  0  0  0  0  0  0
   13.0796    1.0498    1.3950 C   0  0  0  0  0  0  0  0  0  0  0  0
    5.1458    1.0629    1.9625 C   0  0  0  0  0  0  0  0  0  0  0  0
    0.5000    2.0975   -1.5915 H   0  0  0  0  0  0  0  0  0  0  0  0
    0.4804    2.1613    0.1915 H   0  0  0  0  0  0  0  0  0  0  0  0
    0.4224    0.5884   -0.6661 H   0  0  0  0  0  0  0  0  0  0  0  0
    2.7714    2.5676   -0.8734 H   0  0  0  0  0  0  0  0  0  0  0  0
    2.7287    0.9217   -1.5251 H   0  0  0  0  0  0  0  0  0  0  0  0
    1.4078   -0.1375    1.2154 H   0  0  0  0  0  0  0  0  0  0  0  0
    2.9346   -0.3375    2.0935 H   0  0  0  0  0  0  0  0  0  0  0  0
    4.5275   -1.4806    1.0278 H   0  0  0  0  0  0  0  0  0  0  0  0
    4.9097    0.6791   -0.1842 H   0  0  0  0  0  0  0  0  0  0  0  0
    4.2513    3.4218    1.0282 H   0  0  0  0  0  0  0  0  0  0  0  0
    5.3440    3.1236   -0.3641 H   0  0  0  0  0  0  0  0  0  0  0  0
    6.1918    2.9801    2.4909 H   0  0  0  0  0  0  0  0  0  0  0  0
    7.5429    2.4647    0.1761 H   0  0  0  0  0  0  0  0  0  0  0  0
    9.0854    1.0815   -0.9547 H   0  0  0  0  0  0  0  0  0  0  0  0
   10.7784    1.4322   -0.5231 H   0  0  0  0  0  0  0  0  0  0  0  0
    9.5724    2.7111   -0.3870 H   0  0  0  0  0  0  0  0  0  0  0  0
   10.1946    0.4027    2.8699 H   0  0  0  0  0  0  0  0  0  0  0  0
   11.1712   -0.8727    0.2415 H   0  0  0  0  0  0  0  0  0  0  0  0
    9.8959   -1.4625    1.3351 H   0  0  0  0  0  0  0  0  0  0  0  0
   11.5898   -1.4258    1.8803 H   0  0  0  0  0  0  0  0  0  0  0  0
   10.7871    2.9070    3.0859 H   0  0  0  0  0  0  0  0  0  0  0  0
   12.7464    4.4166    3.3001 H   0  0  0  0  0  0  0  0  0  0  0  0
   14.9384    3.7753    2.2864 H   0  0  0  0  0  0  0  0  0  0  0  0
   15.1428    1.6064    1.0698 H   0  0  0  0  0  0  0  0  0  0  0  0
   13.1957    0.1032    0.8637 H   0  0  0  0  0  0  0  0  0  0  0  0
    4.4790    1.2826    2.8095 H   0  0  0  0  0  0  0  0  0  0  0  0
    5.6826    0.1226    2.1553 H   0  0  0  0  0  0  0  0  0  0  0  0
  1  2  1  0
  1 25  1  0
  1 26  1  0
  1 27  1  0
  2  3  1  0
  2 28  1  0
  2 29  1  0
  3  4  1  0
  3  8  1  0
  4  5  1  0
  4 30  1  0
  4 31  1  0
  5  6  2  0
  5  7  1  0
  7 32  1  0
  8  9  1  0
  8 24  1  0
  8 33  1  6
  9 10  1  0
  9 34  1  0
  9 35  1  0
 10 11  1  0
 10 24  1  0
 10 36  1  1
 11 12  1  0
 11 37  1  0
 12 13  2  0
 12 14  1  0
 14 15  1  0
 14 16  1  0
 15 38  1  0
 15 39  1  0
 15 40  1  0
 16 17  1  0
 16 18  1  0
 16 41  1  1
 17 42  1  0
 17 43  1  0
 17 44  1  0
 18 19  2  0
 18 23  1  0
 19 20  1  0
 19 45  1  0
 20 21  2  0
 20 46  1  0
 21 22  1  0
 21 47  1  0
 22 23  2  0
 22 48  1  0
 23 49  1  0
 24 50  1  0
 24 51  1  0
M  END

