
     RDKit          3D

 62 66  0  0  0  0  0  0  0  0999 V2000
    2.3658    0.2589   -0.1922 C   0  0  0  0  0  0  0  0  0  0  0  0
    3.8332    0.4249   -0.6085 C   0  0  1  0  0  0  0  0  0  0  0  0
    4.4701   -0.8878   -1.1069 C   0  0  0  0  0  0  0  0  0  0  0  0
    3.9765   -1.3035   -2.5034 C   0  0  2  0  0  0  0  0  0  0  0  0
    4.6885   -2.5567   -3.0163 C   0  0  0  0  0  0  0  0  0  0  0  0
    4.1504   -0.1292   -3.4802 C   0  0  0  0  0  0  0  0  0  0  0  0
    3.5309    1.1005   -2.9869 N   0  0  0  0  0  0  0  0  0  0  0  0
    2.3632    1.5369   -3.5844 C   0  0  0  0  0  0  0  0  0  0  0  0
    1.8080    0.8985   -4.4669 O   0  0  0  0  0  0  0  0  0  0  0  0
    1.7860    2.8599   -3.1334 C   0  0  0  0  0  0  0  0  0  0  0  0
    0.4249    2.8702   -2.7985 C   0  0  0  0  0  0  0  0  0  0  0  0
   -0.2220    4.0473   -2.4263 C   0  0  0  0  0  0  0  0  0  0  0  0
    0.4991    5.2445   -2.4195 C   0  0  0  0  0  0  0  0  0  0  0  0
    1.8440    5.2729   -2.7868 C   0  0  0  0  0  0  0  0  0  0  0  0
    2.5039    4.0838   -3.1549 C   0  0  0  0  0  0  0  0  0  0  0  0
    3.8476    4.0739   -3.5639 N   0  0  0  0  0  0  0  0  0  0  0  0
    4.7479    5.1110   -3.6132 C   0  0  0  0  0  0  0  0  0  0  0  0
    4.5222    6.2679   -3.2812 O   0  0  0  0  0  0  0  0  0  0  0  0
    6.0758    4.6863   -4.1242 C   0  0  0  0  0  0  0  0  0  0  0  0
    6.3592    3.3888   -4.5169 N   0  0  0  0  0  0  0  0  0  0  0  0
    7.5985    3.4027   -4.9055 C   0  0  0  0  0  0  0  0  0  0  0  0
    8.4107    2.3082   -5.4319 C   0  0  0  0  0  0  0  0  0  0  0  0
    7.8142    1.0546   -5.6651 C   0  0  0  0  0  0  0  0  0  0  0  0
    8.5749   -0.0007   -6.1654 C   0  0  0  0  0  0  0  0  0  0  0  0
    9.9358    0.1787   -6.4408 C   0  0  0  0  0  0  0  0  0  0  0  0
   10.5323    1.4231   -6.2143 C   0  0  0  0  0  0  0  0  0  0  0  0
    9.7775    2.4848   -5.7134 C   0  0  0  0  0  0  0  0  0  0  0  0
    8.1675    4.6414   -4.7896 O   0  0  0  0  0  0  0  0  0  0  0  0
    7.1993    5.4628   -4.2933 C   0  0  0  0  0  0  0  0  0  0  0  0
    7.5019    6.8746   -4.0575 C   0  0  1  0  0  0  0  0  0  0  0  0
    8.8815    7.3034   -3.5832 C   0  0  0  0  0  0  0  0  0  0  0  0
    8.4482    7.6282   -4.9783 C   0  0  0  0  0  0  0  0  0  0  0  0
    4.0154    1.5274   -1.6737 C   0  0  0  0  0  0  0  0  0  0  0  0
    2.2642   -0.5177    0.5829 H   0  0  0  0  0  0  0  0  0  0  0  0
    1.7230   -0.0327   -1.0377 H   0  0  0  0  0  0  0  0  0  0  0  0
    1.9616    1.1979    0.2183 H   0  0  0  0  0  0  0  0  0  0  0  0
    4.3969    0.7581    0.2813 H   0  0  0  0  0  0  0  0  0  0  0  0
    4.2842   -1.6979   -0.3807 H   0  0  0  0  0  0  0  0  0  0  0  0
    5.5679   -0.7580   -1.1507 H   0  0  0  0  0  0  0  0  0  0  0  0
    2.8953   -1.5216   -2.4485 H   0  0  0  0  0  0  0  0  0  0  0  0
    5.7753   -2.3875   -3.1103 H   0  0  0  0  0  0  0  0  0  0  0  0
    4.3090   -2.8583   -4.0061 H   0  0  0  0  0  0  0  0  0  0  0  0
    4.5442   -3.4057   -2.3289 H   0  0  0  0  0  0  0  0  0  0  0  0
    3.7024   -0.3605   -4.4544 H   0  0  0  0  0  0  0  0  0  0  0  0
    5.2303    0.0658   -3.6237 H   0  0  0  0  0  0  0  0  0  0  0  0
   -0.1215    1.9254   -2.8373 H   0  0  0  0  0  0  0  0  0  0  0  0
   -1.2796    4.0319   -2.1535 H   0  0  0  0  0  0  0  0  0  0  0  0
    0.0084    6.1790   -2.1350 H   0  0  0  0  0  0  0  0  0  0  0  0
    2.4026    6.2054   -2.8015 H   0  0  0  0  0  0  0  0  0  0  0  0
    4.2259    3.1803   -3.8736 H   0  0  0  0  0  0  0  0  0  0  0  0
    6.7507    0.9278   -5.4560 H   0  0  0  0  0  0  0  0  0  0  0  0
    8.1030   -0.9696   -6.3463 H   0  0  0  0  0  0  0  0  0  0  0  0
   10.5294   -0.6502   -6.8341 H   0  0  0  0  0  0  0  0  0  0  0  0
   11.5938    1.5686   -6.4293 H   0  0  0  0  0  0  0  0  0  0  0  0
   10.2439    3.4554   -5.5365 H   0  0  0  0  0  0  0  0  0  0  0  0
    6.6349    7.4078   -3.6645 H   0  0  0  0  0  0  0  0  0  0  0  0
    9.6311    6.5189   -3.4485 H   0  0  0  0  0  0  0  0  0  0  0  0
    8.9207    8.1047   -2.8404 H   0  0  0  0  0  0  0  0  0  0  0  0
    8.9004    7.0660   -5.7998 H   0  0  0  0  0  0  0  0  0  0  0  0
    8.1803    8.6595   -5.2231 H   0  0  0  0  0  0  0  0  0  0  0  0
    3.4894    2.4394   -1.3665 H   0  0  0  0  0  0  0  0  0  0  0  0
    5.0882    1.7770   -1.7630 H   0  0  0  0  0  0  0  0  0  0  0  0
  1  2  1  0
  1 34  1  0
  1 35  1  0
  1 36  1  0
  2  3  1  0
  2 33  1  0
  2 37  1  1
  3  4  1  0
  3 38  1  0
  3 39  1  0
  4  5  1  0
  4  6  1  0
  4 40  1  1
  5 41  1  0
  5 42  1  0
  5 43  1  0
  6  7  1  0
  6 44  1  0
  6 45  1  0
  7  8  1  0
  7 33  1  0
  8  9  2  0
  8 10  1  0
 10 11  2  0
 10 15  1  0
 11 12  1  0
 11 46  1  0
 12 13  2  0
 12 47  1  0
 13 14  1  0
 13 48  1  0
 14 15  2  0
 14 49  1  0
 15 16  1  0
 16 17  1  0
 16 50  1  0
 17 18  2  0
 17 19  1  0
 19 20  1  0
 19 29  2  0
 20 21  2  0
 21 22  1  0
 21 28  1  0
 22 23  2  0
 22 27  1  0
 23 24  1  0
 23 51  1  0
 24 25  2  0
 24 52  1  0
 25 26  1  0
 25 53  1  0
 26 27  2  0
 26 54  1  0
 27 55  1  0
 28 29  1  0
 29 30  1  0
 30 31  1  0
 30 32  1  0
 30 56  1  1
 31 32  1  0
 31 57  1  0
 31 58  1  0
 32 59  1  0
 32 60  1  0
 33 61  1  0
 33 62  1  0
M  END

