
     RDKit          3D

 43 43  0  0  0  0  0  0  0  0999 V2000
    1.0519    0.3983   -0.0257 C   0  0  0  0  0  0  0  0  0  0  0  0
    2.5635    0.1365    0.0649 C   0  0  1  0  0  0  0  0  0  0  0  0
    2.9640   -0.1518    1.5232 C   0  0  0  0  0  0  0  0  0  0  0  0
    2.5909    0.9351    2.4134 N   0  0  0  0  0  0  0  0  0  0  0  0
    3.1468    0.8396    3.7530 C   0  0  0  0  0  0  0  0  0  0  0  0
    2.6967    2.0103    4.6251 C   0  0  0  0  0  0  0  0  0  0  0  0
    3.3183    1.9858    6.0296 C   0  0  0  0  0  0  0  0  0  0  0  0
    2.8597    3.1129    6.9163 C   0  0  0  0  0  0  0  0  0  0  0  0
    3.1438    4.4013    6.5324 N   0  0  0  0  0  0  0  0  0  0  0  0
    2.1703    2.8085    7.9628 N   0  0  0  0  0  0  0  0  0  0  0  0
    1.8205    3.9826    8.6705 O   0  0  0  0  0  0  0  0  0  0  0  0
    2.9279   -0.9666   -0.8447 N   0  0  0  0  0  0  0  0  0  0  0  0
    2.9162   -0.6078   -2.2637 C   0  0  0  0  0  0  0  0  0  0  0  0
    4.1921    0.1158   -2.7349 C   0  0  0  0  0  0  0  0  0  0  0  0
    5.4411   -0.7129   -2.4072 C   0  0  0  0  0  0  0  0  0  0  0  0
    5.4457   -1.1255   -0.9289 C   0  0  0  0  0  0  0  0  0  0  0  0
    4.1052   -1.7836   -0.5533 C   0  0  0  0  0  0  0  0  0  0  0  0
    0.7714    1.2945    0.5489 H   0  0  0  0  0  0  0  0  0  0  0  0
    0.4899   -0.4713    0.3534 H   0  0  0  0  0  0  0  0  0  0  0  0
    0.7281    0.5755   -1.0612 H   0  0  0  0  0  0  0  0  0  0  0  0
    3.0840    1.0809   -0.2059 H   0  0  0  0  0  0  0  0  0  0  0  0
    4.0584   -0.2581    1.5902 H   0  0  0  0  0  0  0  0  0  0  0  0
    2.5351   -1.1344    1.8284 H   0  0  0  0  0  0  0  0  0  0  0  0
    1.5766    1.0048    2.4770 H   0  0  0  0  0  0  0  0  0  0  0  0
    4.2498    0.8475    3.6707 H   0  0  0  0  0  0  0  0  0  0  0  0
    2.8915   -0.1183    4.2647 H   0  0  0  0  0  0  0  0  0  0  0  0
    1.5965    1.9945    4.7267 H   0  0  0  0  0  0  0  0  0  0  0  0
    2.9432    2.9501    4.1043 H   0  0  0  0  0  0  0  0  0  0  0  0
    4.4214    2.0216    5.9444 H   0  0  0  0  0  0  0  0  0  0  0  0
    3.0663    1.0482    6.5462 H   0  0  0  0  0  0  0  0  0  0  0  0
    3.9386    4.5542    5.9254 H   0  0  0  0  0  0  0  0  0  0  0  0
    2.9657    5.1139    7.2316 H   0  0  0  0  0  0  0  0  0  0  0  0
    1.3517    3.6318    9.4362 H   0  0  0  0  0  0  0  0  0  0  0  0
    2.0294    0.0034   -2.4857 H   0  0  0  0  0  0  0  0  0  0  0  0
    2.8006   -1.5399   -2.8494 H   0  0  0  0  0  0  0  0  0  0  0  0
    4.2615    1.1016   -2.2408 H   0  0  0  0  0  0  0  0  0  0  0  0
    4.1285    0.3154   -3.8186 H   0  0  0  0  0  0  0  0  0  0  0  0
    6.3594   -0.1587   -2.6650 H   0  0  0  0  0  0  0  0  0  0  0  0
    5.4428   -1.6253   -3.0332 H   0  0  0  0  0  0  0  0  0  0  0  0
    5.6147   -0.2361   -0.2950 H   0  0  0  0  0  0  0  0  0  0  0  0
    6.2766   -1.8222   -0.7212 H   0  0  0  0  0  0  0  0  0  0  0  0
    4.1019   -2.0977    0.4990 H   0  0  0  0  0  0  0  0  0  0  0  0
    4.0031   -2.7162   -1.1409 H   0  0  0  0  0  0  0  0  0  0  0  0
  1  2  1  0
  1 18  1  0
  1 19  1  0
  1 20  1  0
  2  3  1  0
  2 12  1  0
  2 21  1  6
  3  4  1  0
  3 22  1  0
  3 23  1  0
  4  5  1  0
  4 24  1  0
  5  6  1  0
  5 25  1  0
  5 26  1  0
  6  7  1  0
  6 27  1  0
  6 28  1  0
  7  8  1  0
  7 29  1  0
  7 30  1  0
  8  9  1  0
  8 10  2  0
  9 31  1  0
  9 32  1  0
 10 11  1  0
 11 33  1  0
 12 13  1  0
 12 17  1  0
 13 14  1  0
 13 34  1  0
 13 35  1  0
 14 15  1  0
 14 36  1  0
 14 37  1  0
 15 16  1  0
 15 38  1  0
 15 39  1  0
 16 17  1  0
 16 40  1  0
 16 41  1  0
 17 42  1  0
 17 43  1  0
M  END

