
     RDKit          3D

 86 93  0  0  0  0  0  0  0  0999 V2000
    4.2910    0.0883   -3.8403 C   0  0  0  0  0  0  0  0  0  0  0  0
    3.8983    0.9313   -2.8804 C   0  0  0  0  0  0  0  0  0  0  0  0
    4.8173    1.7960   -2.0474 C   0  0  1  0  0  0  0  0  0  0  0  0
    5.8530    1.4800   -2.2606 H   0  0  0  0  0  0  0  0  0  0  0  0
    4.7624    3.2688   -2.5320 C   0  0  0  0  0  0  0  0  0  0  0  0
    3.4716    3.9224   -2.3647 N   0  0  0  0  0  0  0  0  0  0  0  0
    2.4301    3.9992   -3.2330 C   0  0  0  0  0  0  0  0  0  0  0  0
    1.4509    4.7034   -2.5439 C   0  0  0  0  0  0  0  0  0  0  0  0
    0.0995    5.1131   -2.9543 C   0  0  0  0  0  0  0  0  0  0  0  0
   -0.4109    4.7958   -4.2259 C   0  0  0  0  0  0  0  0  0  0  0  0
   -1.6965    5.1930   -4.5971 C   0  0  0  0  0  0  0  0  0  0  0  0
   -2.4956    5.9142   -3.7043 C   0  0  0  0  0  0  0  0  0  0  0  0
   -1.9968    6.2345   -2.4373 C   0  0  0  0  0  0  0  0  0  0  0  0
   -0.7120    5.8391   -2.0634 C   0  0  0  0  0  0  0  0  0  0  0  0
    1.9615    5.0031   -1.3102 N   0  0  0  0  0  0  0  0  0  0  0  0
    3.1646    4.5376   -1.2082 N   0  0  0  0  0  0  0  0  0  0  0  0
    4.5261    1.6313   -0.5263 C   0  0  1  0  0  0  0  0  0  0  0  0
    3.4899    1.9716   -0.3649 H   0  0  0  0  0  0  0  0  0  0  0  0
    4.6201    0.1629   -0.0576 C   0  0  0  0  0  0  0  0  0  0  0  0
    6.0601   -0.3497   -0.0080 C   0  0  0  0  0  0  0  0  0  0  0  0
    6.9082    0.5593    0.7566 N   0  0  0  0  0  0  0  0  0  0  0  0
    8.0260    0.0790    1.3909 C   0  0  0  0  0  0  0  0  0  0  0  0
    8.3232   -1.0804    1.5440 O   0  0  0  0  0  0  0  0  0  0  0  0
    9.0349    1.4703    1.9802 S   0  0  0  0  0  0  0  0  0  0  0  0
    7.7308    2.7002    1.5183 C   0  0  1  0  0  0  0  0  0  0  0  0
    7.1193    2.8370    2.4184 H   0  0  0  0  0  0  0  0  0  0  0  0
    8.2911    4.0322    1.0550 C   0  0  0  0  0  0  0  0  0  0  0  0
    9.3473    4.0692    0.1652 C   0  0  0  0  0  0  0  0  0  0  0  0
    9.8569    5.3060   -0.3280 C   0  0  0  0  0  0  0  0  0  0  0  0
   10.9921    5.3543   -1.2910 C   0  0  0  0  0  0  0  0  0  0  0  0
   11.3896    6.5931   -1.8328 C   0  0  0  0  0  0  0  0  0  0  0  0
   12.4466    6.6845   -2.7307 C   0  0  0  0  0  0  0  0  0  0  0  0
   13.1424    5.5297   -3.1155 C   0  0  0  0  0  0  0  0  0  0  0  0
   14.1335    5.6889   -4.0471 O   0  0  0  0  0  0  0  0  0  0  0  0
   15.2107    4.8359   -4.1259 C   0  0  0  0  0  0  0  0  0  0  0  0
   15.5927    4.4002   -5.3991 C   0  0  0  0  0  0  0  0  0  0  0  0
   16.7271    3.5973   -5.5426 C   0  0  0  0  0  0  0  0  0  0  0  0
   17.4753    3.2230   -4.4222 C   0  0  0  0  0  0  0  0  0  0  0  0
   17.0859    3.6654   -3.1534 C   0  0  0  0  0  0  0  0  0  0  0  0
   15.9584    4.4754   -2.9972 C   0  0  0  0  0  0  0  0  0  0  0  0
   12.7646    4.2854   -2.5952 C   0  0  0  0  0  0  0  0  0  0  0  0
   11.7026    4.2090   -1.6932 C   0  0  0  0  0  0  0  0  0  0  0  0
    9.3317    6.4592    0.0531 N   0  0  0  0  0  0  0  0  0  0  0  0
    8.3008    6.4720    0.9298 C   0  0  0  0  0  0  0  0  0  0  0  0
    7.7663    7.7342    1.3193 C   0  0  0  0  0  0  0  0  0  0  0  0
    6.7168    7.8162    2.2031 C   0  0  0  0  0  0  0  0  0  0  0  0
    6.1287    6.6446    2.7615 C   0  0  0  0  0  0  0  0  0  0  0  0
    4.9744    6.7726    3.7224 C   0  0  0  0  0  0  0  0  0  0  0  0
    6.6375    5.4107    2.3954 C   0  0  0  0  0  0  0  0  0  0  0  0
    7.7220    5.2781    1.4823 C   0  0  0  0  0  0  0  0  0  0  0  0
    6.8715    1.9842    0.4455 C   0  0  2  0  0  0  0  0  0  0  0  0
    7.3557    2.1530   -0.5387 H   0  0  0  0  0  0  0  0  0  0  0  0
    5.4236    2.4839    0.3964 C   0  0  0  0  0  0  0  0  0  0  0  0
    3.5701   -0.4973   -4.4177 H   0  0  0  0  0  0  0  0  0  0  0  0
    5.3496   -0.0541   -4.0843 H   0  0  0  0  0  0  0  0  0  0  0  0
    2.8257    1.0319   -2.6689 H   0  0  0  0  0  0  0  0  0  0  0  0
    5.0131    3.3035   -3.6015 H   0  0  0  0  0  0  0  0  0  0  0  0
    5.4983    3.8843   -1.9982 H   0  0  0  0  0  0  0  0  0  0  0  0
    2.4737    3.5706   -4.2295 H   0  0  0  0  0  0  0  0  0  0  0  0
    0.1999    4.2330   -4.9364 H   0  0  0  0  0  0  0  0  0  0  0  0
   -2.0764    4.9379   -5.5898 H   0  0  0  0  0  0  0  0  0  0  0  0
   -3.5021    6.2252   -3.9953 H   0  0  0  0  0  0  0  0  0  0  0  0
   -2.6145    6.7984   -1.7334 H   0  0  0  0  0  0  0  0  0  0  0  0
   -0.3147    6.0855   -1.0774 H   0  0  0  0  0  0  0  0  0  0  0  0
    4.0275   -0.4989   -0.7073 H   0  0  0  0  0  0  0  0  0  0  0  0
    4.1852    0.0939    0.9534 H   0  0  0  0  0  0  0  0  0  0  0  0
    6.4658   -0.4710   -1.0324 H   0  0  0  0  0  0  0  0  0  0  0  0
    6.1213   -1.3362    0.4713 H   0  0  0  0  0  0  0  0  0  0  0  0
    9.7990    3.1281   -0.1461 H   0  0  0  0  0  0  0  0  0  0  0  0
   10.8463    7.4862   -1.5226 H   0  0  0  0  0  0  0  0  0  0  0  0
   12.7532    7.6446   -3.1507 H   0  0  0  0  0  0  0  0  0  0  0  0
   14.9947    4.7049   -6.2602 H   0  0  0  0  0  0  0  0  0  0  0  0
   17.0249    3.2598   -6.5387 H   0  0  0  0  0  0  0  0  0  0  0  0
   18.3600    2.5924   -4.5366 H   0  0  0  0  0  0  0  0  0  0  0  0
   17.6701    3.3856   -2.2729 H   0  0  0  0  0  0  0  0  0  0  0  0
   15.6600    4.8324   -2.0096 H   0  0  0  0  0  0  0  0  0  0  0  0
   13.2949    3.3800   -2.8939 H   0  0  0  0  0  0  0  0  0  0  0  0
   11.4393    3.2250   -1.3021 H   0  0  0  0  0  0  0  0  0  0  0  0
    8.2246    8.6254    0.8864 H   0  0  0  0  0  0  0  0  0  0  0  0
    6.3208    8.7957    2.4869 H   0  0  0  0  0  0  0  0  0  0  0  0
    4.1088    7.2557    3.2382 H   0  0  0  0  0  0  0  0  0  0  0  0
    5.2455    7.3969    4.5904 H   0  0  0  0  0  0  0  0  0  0  0  0
    4.6456    5.7928    4.0983 H   0  0  0  0  0  0  0  0  0  0  0  0
    6.1828    4.5169    2.8252 H   0  0  0  0  0  0  0  0  0  0  0  0
    5.3925    3.5473    0.1224 H   0  0  0  0  0  0  0  0  0  0  0  0
    5.0066    2.4195    1.4154 H   0  0  0  0  0  0  0  0  0  0  0  0
  1  2  2  0
  1 54  1  0
  1 55  1  0
  2  3  1  0
  2 56  1  0
  3  4  1  1
  3  5  1  0
  3 17  1  0
  5  6  1  0
  5 57  1  0
  5 58  1  0
  6  7  1  0
  6 16  1  0
  7  8  2  0
  7 59  1  0
  8  9  1  0
  8 15  1  0
  9 10  2  0
  9 14  1  0
 10 11  1  0
 10 60  1  0
 11 12  2  0
 11 61  1  0
 12 13  1  0
 12 62  1  0
 13 14  2  0
 13 63  1  0
 14 64  1  0
 15 16  2  0
 17 18  1  6
 17 19  1  0
 17 53  1  0
 19 20  1  0
 19 65  1  0
 19 66  1  0
 20 21  1  0
 20 67  1  0
 20 68  1  0
 21 22  1  0
 21 51  1  0
 22 23  2  0
 22 24  1  0
 24 25  1  0
 25 26  1  1
 25 27  1  0
 25 51  1  0
 27 28  2  0
 27 50  1  0
 28 29  1  0
 28 69  1  0
 29 30  1  0
 29 43  2  0
 30 31  2  0
 30 42  1  0
 31 32  1  0
 31 70  1  0
 32 33  2  0
 32 71  1  0
 33 34  1  0
 33 41  1  0
 34 35  1  0
 35 36  2  0
 35 40  1  0
 36 37  1  0
 36 72  1  0
 37 38  2  0
 37 73  1  0
 38 39  1  0
 38 74  1  0
 39 40  2  0
 39 75  1  0
 40 76  1  0
 41 42  2  0
 41 77  1  0
 42 78  1  0
 43 44  1  0
 44 45  1  0
 44 50  2  0
 45 46  2  0
 45 79  1  0
 46 47  1  0
 46 80  1  0
 47 48  1  0
 47 49  2  0
 48 81  1  0
 48 82  1  0
 48 83  1  0
 49 50  1  0
 49 84  1  0
 51 52  1  6
 51 53  1  0
 53 85  1  0
 53 86  1  0
M  END

