
     RDKit          3D

 62 65  0  0  0  0  0  0  0  0999 V2000
    1.7261    0.7824    1.4176 O   0  0  0  0  0  0  0  0  0  0  0  0
    2.1064    0.1787    0.4230 C   0  0  0  0  0  0  0  0  0  0  0  0
    2.0485   -1.1758    0.3358 N   0  0  0  0  0  0  0  0  0  0  0  0
    1.5372   -1.9718    1.4187 C   0  0  0  0  0  0  0  0  0  0  0  0
    1.6936   -3.4489    1.0393 C   0  0  0  0  0  0  0  0  0  0  0  0
    2.2159   -3.7498   -0.0273 O   0  0  0  0  0  0  0  0  0  0  0  0
    1.2412   -4.3826    1.9279 N   0  0  0  0  0  0  0  0  0  0  0  0
    0.6056   -4.1017    3.2124 C   0  0  0  0  0  0  0  0  0  0  0  0
   -0.7870   -4.7434    3.2829 C   0  0  0  0  0  0  0  0  0  0  0  0
   -0.7115   -6.2247    2.9444 C   0  0  2  0  0  0  0  0  0  0  0  0
   -1.9657   -6.7593    2.9161 F   0  0  0  0  0  0  0  0  0  0  0  0
   -0.0364   -6.8685    3.9579 F   0  0  0  0  0  0  0  0  0  0  0  0
    0.0060   -6.4975    1.6325 C   0  0  0  0  0  0  0  0  0  0  0  0
    1.3735   -5.8051    1.6102 C   0  0  0  0  0  0  0  0  0  0  0  0
    2.6722    0.9080   -0.7736 C   0  0  0  0  0  0  0  0  0  0  0  0
    3.0294    2.2517   -0.5879 C   0  0  0  0  0  0  0  0  0  0  0  0
    3.5579    2.9991   -1.6403 C   0  0  0  0  0  0  0  0  0  0  0  0
    3.7171    2.3864   -2.8856 C   0  0  0  0  0  0  0  0  0  0  0  0
    4.3521    3.3434   -4.2613 S   0  0  1  0  0  0  0  0  0  0  0  0
    3.7206    2.8848   -5.4945 O   0  0  0  0  0  0  0  0  0  0  0  0
    4.3635    4.7570   -3.8799 O   0  0  0  0  0  0  0  0  0  0  0  0
    6.0320    2.7012   -4.3503 N   0  0  0  0  0  0  0  0  0  0  0  0
    6.4625    2.9984   -5.6613 O   0  0  0  0  0  0  0  0  0  0  0  0
    6.5993    1.8986   -6.4886 C   0  0  0  0  0  0  0  0  0  0  0  0
    6.6040    0.5747   -6.0437 C   0  0  0  0  0  0  0  0  0  0  0  0
    6.7971   -0.4516   -6.9749 C   0  0  0  0  0  0  0  0  0  0  0  0
    6.9871   -0.1661   -8.3291 C   0  0  0  0  0  0  0  0  0  0  0  0
    6.9803    1.1669   -8.7562 C   0  0  0  0  0  0  0  0  0  0  0  0
    6.7843    2.2021   -7.8423 C   0  0  0  0  0  0  0  0  0  0  0  0
    6.9338    3.2746   -3.3896 C   0  0  0  0  0  0  0  0  0  0  0  0
    7.1661    2.5600   -2.2079 C   0  0  0  0  0  0  0  0  0  0  0  0
    8.0225    3.0845   -1.2357 C   0  0  0  0  0  0  0  0  0  0  0  0
    8.6602    4.3089   -1.4516 C   0  0  0  0  0  0  0  0  0  0  0  0
    8.4336    5.0142   -2.6397 C   0  0  0  0  0  0  0  0  0  0  0  0
    7.5660    4.5079   -3.6071 C   0  0  0  0  0  0  0  0  0  0  0  0
    3.3414    1.0580   -3.1061 C   0  0  0  0  0  0  0  0  0  0  0  0
    2.8222    0.3210   -2.0421 C   0  0  0  0  0  0  0  0  0  0  0  0
    2.4575   -1.7106   -0.4264 H   0  0  0  0  0  0  0  0  0  0  0  0
    0.4784   -1.7274    1.6183 H   0  0  0  0  0  0  0  0  0  0  0  0
    2.0765   -1.7540    2.3590 H   0  0  0  0  0  0  0  0  0  0  0  0
    0.5317   -3.0220    3.3807 H   0  0  0  0  0  0  0  0  0  0  0  0
    1.2335   -4.5144    4.0222 H   0  0  0  0  0  0  0  0  0  0  0  0
   -1.4693   -4.2605    2.5660 H   0  0  0  0  0  0  0  0  0  0  0  0
   -1.2156   -4.6365    4.2911 H   0  0  0  0  0  0  0  0  0  0  0  0
   -0.6259   -6.1280    0.8099 H   0  0  0  0  0  0  0  0  0  0  0  0
    0.1172   -7.5864    1.5154 H   0  0  0  0  0  0  0  0  0  0  0  0
    1.8466   -5.8859    0.6251 H   0  0  0  0  0  0  0  0  0  0  0  0
    2.0372   -6.2792    2.3546 H   0  0  0  0  0  0  0  0  0  0  0  0
    2.8763    2.6933    0.3983 H   0  0  0  0  0  0  0  0  0  0  0  0
    3.8388    4.0456   -1.5120 H   0  0  0  0  0  0  0  0  0  0  0  0
    6.4568    0.3572   -4.9869 H   0  0  0  0  0  0  0  0  0  0  0  0
    6.8009   -1.4889   -6.6294 H   0  0  0  0  0  0  0  0  0  0  0  0
    7.1365   -0.9750   -9.0479 H   0  0  0  0  0  0  0  0  0  0  0  0
    7.1225    1.4054   -9.8134 H   0  0  0  0  0  0  0  0  0  0  0  0
    6.7648    3.2474   -8.1565 H   0  0  0  0  0  0  0  0  0  0  0  0
    6.6789    1.5940   -2.0642 H   0  0  0  0  0  0  0  0  0  0  0  0
    8.2029    2.5251   -0.3145 H   0  0  0  0  0  0  0  0  0  0  0  0
    9.3381    4.7139   -0.6961 H   0  0  0  0  0  0  0  0  0  0  0  0
    8.9312    5.9722   -2.8100 H   0  0  0  0  0  0  0  0  0  0  0  0
    7.3744    5.0535   -4.5308 H   0  0  0  0  0  0  0  0  0  0  0  0
    3.4409    0.6200   -4.1008 H   0  0  0  0  0  0  0  0  0  0  0  0
    2.5064   -0.7088   -2.2235 H   0  0  0  0  0  0  0  0  0  0  0  0
  1  2  2  0
  2  3  1  0
  2 15  1  0
  3  4  1  0
  3 38  1  0
  4  5  1  0
  4 39  1  0
  4 40  1  0
  5  6  2  0
  5  7  1  0
  7  8  1  0
  7 14  1  0
  8  9  1  0
  8 41  1  0
  8 42  1  0
  9 10  1  0
  9 43  1  0
  9 44  1  0
 10 11  1  6
 10 12  1  0
 10 13  1  0
 13 14  1  0
 13 45  1  0
 13 46  1  0
 14 47  1  0
 14 48  1  0
 15 16  2  0
 15 37  1  0
 16 17  1  0
 16 49  1  0
 17 18  2  0
 17 50  1  0
 18 19  1  0
 18 36  1  0
 19 20  2  0
 19 21  2  0
 19 22  1  6
 22 23  1  0
 22 30  1  0
 23 24  1  0
 24 25  2  0
 24 29  1  0
 25 26  1  0
 25 51  1  0
 26 27  2  0
 26 52  1  0
 27 28  1  0
 27 53  1  0
 28 29  2  0
 28 54  1  0
 29 55  1  0
 30 31  2  0
 30 35  1  0
 31 32  1  0
 31 56  1  0
 32 33  2  0
 32 57  1  0
 33 34  1  0
 33 58  1  0
 34 35  2  0
 34 59  1  0
 35 60  1  0
 36 37  2  0
 36 61  1  0
 37 62  1  0
M  END

