
     RDKit          3D

 54 55  0  0  0  0  0  0  0  0999 V2000
   -0.2409    9.2578    9.7052 C   0  0  0  0  0  0  0  0  0  0  0  0
   -0.4738    9.7062    8.2715 C   0  0  0  0  0  0  0  0  0  0  0  0
    0.7315    9.6466    7.4911 O   0  0  0  0  0  0  0  0  0  0  0  0
    1.5550   10.7152    7.5343 C   0  0  0  0  0  0  0  0  0  0  0  0
    1.3223   11.7077    8.1892 O   0  0  0  0  0  0  0  0  0  0  0  0
    2.7672   10.5342    6.6883 C   0  0  0  0  0  0  0  0  0  0  0  0
    3.0091    9.3714    5.9408 C   0  0  0  0  0  0  0  0  0  0  0  0
    4.1557    9.2401    5.1593 C   0  0  0  0  0  0  0  0  0  0  0  0
    5.0923   10.2906    5.1164 C   0  0  0  0  0  0  0  0  0  0  0  0
    6.2720   10.2454    4.3580 N   0  0  0  0  0  0  0  0  0  0  0  0
    6.7578    9.2235    3.5826 C   0  0  0  0  0  0  0  0  0  0  0  0
    6.2010    8.1610    3.3790 O   0  0  0  0  0  0  0  0  0  0  0  0
    8.1145    9.5332    2.9240 C   0  0  0  0  0  0  0  0  0  0  0  0
    9.2028    9.6162    3.8597 O   0  0  0  0  0  0  0  0  0  0  0  0
    9.4440   10.7941    4.4656 C   0  0  0  0  0  0  0  0  0  0  0  0
    8.7167   11.7577    4.3393 O   0  0  0  0  0  0  0  0  0  0  0  0
   10.6835   10.7522    5.3237 C   0  0  0  0  0  0  0  0  0  0  0  0
   11.9124   10.1069    4.6517 C   0  0  0  0  0  0  0  0  0  0  0  0
   13.1234   10.0866    5.5581 C   0  0  0  0  0  0  0  0  0  0  0  0
   14.2109   10.9452    5.3419 C   0  0  0  0  0  0  0  0  0  0  0  0
   15.3118   10.9615    6.2032 C   0  0  0  0  0  0  0  0  0  0  0  0
   15.3332   10.1170    7.3155 C   0  0  0  0  0  0  0  0  0  0  0  0
   14.2599    9.2545    7.5541 C   0  0  0  0  0  0  0  0  0  0  0  0
   13.1672    9.2299    6.6790 C   0  0  0  0  0  0  0  0  0  0  0  0
   12.0879    8.4185    6.9404 O   0  0  0  0  0  0  0  0  0  0  0  0
   12.1151    7.0824    6.4219 C   0  0  0  0  0  0  0  0  0  0  0  0
   12.8117    6.0936    7.3450 C   0  0  0  0  0  0  0  0  0  0  0  0
    4.8528   11.4601    5.8673 C   0  0  0  0  0  0  0  0  0  0  0  0
    3.7060   11.5782    6.6410 C   0  0  0  0  0  0  0  0  0  0  0  0
   -1.1973    9.2395   10.2525 H   0  0  0  0  0  0  0  0  0  0  0  0
    0.4371    9.9508   10.2247 H   0  0  0  0  0  0  0  0  0  0  0  0
    0.1930    8.2461    9.7363 H   0  0  0  0  0  0  0  0  0  0  0  0
   -0.8683   10.7327    8.2418 H   0  0  0  0  0  0  0  0  0  0  0  0
   -1.1757    9.0360    7.7538 H   0  0  0  0  0  0  0  0  0  0  0  0
    2.2842    8.5571    5.9733 H   0  0  0  0  0  0  0  0  0  0  0  0
    4.3391    8.3384    4.5802 H   0  0  0  0  0  0  0  0  0  0  0  0
    6.8692   11.0730    4.4019 H   0  0  0  0  0  0  0  0  0  0  0  0
    8.0599   10.4672    2.3425 H   0  0  0  0  0  0  0  0  0  0  0  0
    8.3479    8.6866    2.2697 H   0  0  0  0  0  0  0  0  0  0  0  0
   10.4344   10.1699    6.2274 H   0  0  0  0  0  0  0  0  0  0  0  0
   10.8915   11.7838    5.6396 H   0  0  0  0  0  0  0  0  0  0  0  0
   12.1603   10.6583    3.7306 H   0  0  0  0  0  0  0  0  0  0  0  0
   11.6413    9.0857    4.3457 H   0  0  0  0  0  0  0  0  0  0  0  0
   14.1907   11.6164    4.4782 H   0  0  0  0  0  0  0  0  0  0  0  0
   16.1464   11.6395    6.0092 H   0  0  0  0  0  0  0  0  0  0  0  0
   16.1824   10.1312    8.0034 H   0  0  0  0  0  0  0  0  0  0  0  0
   14.2458    8.6037    8.4303 H   0  0  0  0  0  0  0  0  0  0  0  0
   12.5875    7.0795    5.4228 H   0  0  0  0  0  0  0  0  0  0  0  0
   11.0586    6.8004    6.2902 H   0  0  0  0  0  0  0  0  0  0  0  0
   13.8844    6.3178    7.4481 H   0  0  0  0  0  0  0  0  0  0  0  0
   12.7190    5.0729    6.9393 H   0  0  0  0  0  0  0  0  0  0  0  0
   12.3536    6.1094    8.3462 H   0  0  0  0  0  0  0  0  0  0  0  0
    5.5803   12.2761    5.8387 H   0  0  0  0  0  0  0  0  0  0  0  0
    3.5149   12.4809    7.2243 H   0  0  0  0  0  0  0  0  0  0  0  0
  1  2  1  0
  1 30  1  0
  1 31  1  0
  1 32  1  0
  2  3  1  0
  2 33  1  0
  2 34  1  0
  3  4  1  0
  4  5  2  0
  4  6  1  0
  6  7  2  0
  6 29  1  0
  7  8  1  0
  7 35  1  0
  8  9  2  0
  8 36  1  0
  9 10  1  0
  9 28  1  0
 10 11  1  0
 10 37  1  0
 11 12  2  0
 11 13  1  0
 13 14  1  0
 13 38  1  0
 13 39  1  0
 14 15  1  0
 15 16  2  0
 15 17  1  0
 17 18  1  0
 17 40  1  0
 17 41  1  0
 18 19  1  0
 18 42  1  0
 18 43  1  0
 19 20  2  0
 19 24  1  0
 20 21  1  0
 20 44  1  0
 21 22  2  0
 21 45  1  0
 22 23  1  0
 22 46  1  0
 23 24  2  0
 23 47  1  0
 24 25  1  0
 25 26  1  0
 26 27  1  0
 26 48  1  0
 26 49  1  0
 27 50  1  0
 27 51  1  0
 27 52  1  0
 28 29  2  0
 28 53  1  0
 29 54  1  0
M  END

