
     RDKit          3D

 29 30  0  0  0  0  0  0  0  0999 V2000
    3.1773   -2.4932    1.0233 C   0  0  0  0  0  0  0  0  0  0  0  0
    3.5746   -1.2276    0.3281 C   0  0  0  0  0  0  0  0  0  0  0  0
    4.5164   -0.4259    0.7285 N   0  0  0  0  0  0  0  0  0  0  0  0
    4.6745    0.6566   -0.1070 C   0  0  0  0  0  0  0  0  0  0  0  0
    5.7451    1.6789    0.2347 C   0  0  1  0  0  0  0  0  0  0  0  0
    5.4282    2.3871    1.5578 C   0  0  0  0  0  0  0  0  0  0  0  0
    7.0686    1.0777    0.3280 N   0  0  0  0  0  0  0  0  0  0  0  0
    7.8269    0.6631   -0.7425 C   0  0  0  0  0  0  0  0  0  0  0  0
    7.5429    1.0339   -2.0774 C   0  0  0  0  0  0  0  0  0  0  0  0
    8.3559    0.6497   -3.1421 C   0  0  0  0  0  0  0  0  0  0  0  0
    9.4859   -0.1350   -2.9097 C   0  0  0  0  0  0  0  0  0  0  0  0
   10.6027   -0.6711   -4.3615 Br  0  0  0  0  0  0  0  0  0  0  0  0
    9.8007   -0.5353   -1.6091 C   0  0  0  0  0  0  0  0  0  0  0  0
    8.9819   -0.1409   -0.5537 C   0  0  0  0  0  0  0  0  0  0  0  0
    9.4551   -0.7110    1.2135 Br  0  0  0  0  0  0  0  0  0  0  0  0
    3.8248    0.6860   -1.1818 C   0  0  0  0  0  0  0  0  0  0  0  0
    2.7800   -0.6960   -1.1505 S   0  0  0  0  0  0  0  0  0  0  0  0
    3.7676   -2.5847    1.9449 H   0  0  0  0  0  0  0  0  0  0  0  0
    3.3698   -3.3767    0.3929 H   0  0  0  0  0  0  0  0  0  0  0  0
    2.1067   -2.4965    1.2832 H   0  0  0  0  0  0  0  0  0  0  0  0
    5.7647    2.4367   -0.5636 H   0  0  0  0  0  0  0  0  0  0  0  0
    5.3609    1.6515    2.3749 H   0  0  0  0  0  0  0  0  0  0  0  0
    4.4611    2.9075    1.4954 H   0  0  0  0  0  0  0  0  0  0  0  0
    6.2140    3.1186    1.7994 H   0  0  0  0  0  0  0  0  0  0  0  0
    7.2354    0.5637    1.1881 H   0  0  0  0  0  0  0  0  0  0  0  0
    6.6606    1.6369   -2.2901 H   0  0  0  0  0  0  0  0  0  0  0  0
    8.1015    0.9599   -4.1570 H   0  0  0  0  0  0  0  0  0  0  0  0
   10.6784   -1.1515   -1.4139 H   0  0  0  0  0  0  0  0  0  0  0  0
    3.7584    1.4303   -1.9736 H   0  0  0  0  0  0  0  0  0  0  0  0
  1  2  1  0
  1 18  1  0
  1 19  1  0
  1 20  1  0
  2  3  2  0
  2 17  1  0
  3  4  1  0
  4  5  1  0
  4 16  2  0
  5  6  1  0
  5  7  1  0
  5 21  1  6
  6 22  1  0
  6 23  1  0
  6 24  1  0
  7  8  1  0
  7 25  1  0
  8  9  2  0
  8 14  1  0
  9 10  1  0
  9 26  1  0
 10 11  2  0
 10 27  1  0
 11 12  1  0
 11 13  1  0
 13 14  2  0
 13 28  1  0
 14 15  1  0
 16 17  1  0
 16 29  1  0
M  END

