
     RDKit          3D

 55 57  0  0  0  0  0  0  0  0999 V2000
    1.0324   -0.9999    1.0423 C   0  0  0  0  0  0  0  0  0  0  0  0
    2.5184   -1.2662    0.8758 C   0  0  0  0  0  0  0  0  0  0  0  0
    2.7655   -1.4095   -0.5186 O   0  0  0  0  0  0  0  0  0  0  0  0
    4.1400   -1.6571   -0.8114 N   0  0  0  0  0  0  0  0  0  0  0  0
    4.2590   -3.0261   -1.3891 C   0  0  1  0  0  0  0  0  0  0  0  0
    3.8651   -4.0316   -0.2869 C   0  0  0  0  0  0  0  0  0  0  0  0
    3.3551   -3.2992   -2.6122 C   0  0  0  0  0  0  0  0  0  0  0  0
    5.7568   -3.2682   -1.6864 C   0  0  0  0  0  0  0  0  0  0  0  0
    6.5400   -2.1705   -2.4290 C   0  0  1  0  0  0  0  0  0  0  0  0
    6.1646   -0.7865   -1.8679 C   0  0  0  0  0  0  0  0  0  0  0  0
    4.6747   -0.4947   -1.5760 C   0  0  1  0  0  0  0  0  0  0  0  0
    3.8773   -0.1274   -2.8478 C   0  0  0  0  0  0  0  0  0  0  0  0
    4.6456    0.7313   -0.6396 C   0  0  0  0  0  0  0  0  0  0  0  0
    7.9396   -2.3808   -2.1341 O   0  0  0  0  0  0  0  0  0  0  0  0
    8.7466   -2.5785   -3.2866 C   0  0  2  0  0  0  0  0  0  0  0  0
    9.4263   -3.9579   -3.2095 C   0  0  0  0  0  0  0  0  0  0  0  0
   10.4289   -4.1893   -4.3483 C   0  0  0  0  0  0  0  0  0  0  0  0
   11.4758   -3.0699   -4.4152 C   0  0  0  0  0  0  0  0  0  0  0  0
   10.8112   -1.6905   -4.5118 C   0  0  0  0  0  0  0  0  0  0  0  0
    9.8081   -1.4662   -3.3721 C   0  0  0  0  0  0  0  0  0  0  0  0
    7.7762   -2.5004   -4.3685 N   0  0  0  0  0  0  0  0  0  0  0  0
    6.4969   -2.2743   -3.9691 C   0  0  0  0  0  0  0  0  0  0  0  0
    5.5360   -2.1778   -4.7091 O   0  0  0  0  0  0  0  0  0  0  0  0
    0.7838   -0.8803    2.1086 H   0  0  0  0  0  0  0  0  0  0  0  0
    0.4360   -1.8330    0.6387 H   0  0  0  0  0  0  0  0  0  0  0  0
    0.7355   -0.0816    0.5120 H   0  0  0  0  0  0  0  0  0  0  0  0
    2.8142   -2.1812    1.4174 H   0  0  0  0  0  0  0  0  0  0  0  0
    3.1135   -0.4346    1.2906 H   0  0  0  0  0  0  0  0  0  0  0  0
    2.7865   -3.9885   -0.0794 H   0  0  0  0  0  0  0  0  0  0  0  0
    4.4153   -3.8297    0.6444 H   0  0  0  0  0  0  0  0  0  0  0  0
    4.0995   -5.0570   -0.6140 H   0  0  0  0  0  0  0  0  0  0  0  0
    2.3309   -2.9660   -2.3939 H   0  0  0  0  0  0  0  0  0  0  0  0
    3.3245   -4.3831   -2.8106 H   0  0  0  0  0  0  0  0  0  0  0  0
    3.7112   -2.8125   -3.5253 H   0  0  0  0  0  0  0  0  0  0  0  0
    5.8662   -4.2316   -2.2104 H   0  0  0  0  0  0  0  0  0  0  0  0
    6.2833   -3.3697   -0.7249 H   0  0  0  0  0  0  0  0  0  0  0  0
    6.5634    0.0075   -2.5199 H   0  0  0  0  0  0  0  0  0  0  0  0
    6.7171   -0.7231   -0.9178 H   0  0  0  0  0  0  0  0  0  0  0  0
    4.0394   -0.8281   -3.6725 H   0  0  0  0  0  0  0  0  0  0  0  0
    4.1882    0.8697   -3.2002 H   0  0  0  0  0  0  0  0  0  0  0  0
    2.8055   -0.0830   -2.6092 H   0  0  0  0  0  0  0  0  0  0  0  0
    5.1249    0.5017    0.3239 H   0  0  0  0  0  0  0  0  0  0  0  0
    3.6141    1.0626   -0.4539 H   0  0  0  0  0  0  0  0  0  0  0  0
    5.1853    1.5711   -1.1050 H   0  0  0  0  0  0  0  0  0  0  0  0
    8.6449   -4.7339   -3.1974 H   0  0  0  0  0  0  0  0  0  0  0  0
    9.9444   -4.0048   -2.2369 H   0  0  0  0  0  0  0  0  0  0  0  0
    9.8892   -4.2462   -5.3125 H   0  0  0  0  0  0  0  0  0  0  0  0
   10.9172   -5.1692   -4.2213 H   0  0  0  0  0  0  0  0  0  0  0  0
   12.1550   -3.2297   -5.2688 H   0  0  0  0  0  0  0  0  0  0  0  0
   12.1033   -3.1064   -3.5059 H   0  0  0  0  0  0  0  0  0  0  0  0
   10.2938   -1.5988   -5.4854 H   0  0  0  0  0  0  0  0  0  0  0  0
   11.5716   -0.8926   -4.5014 H   0  0  0  0  0  0  0  0  0  0  0  0
    9.2944   -0.4973   -3.4736 H   0  0  0  0  0  0  0  0  0  0  0  0
   10.3360   -1.4530   -2.4038 H   0  0  0  0  0  0  0  0  0  0  0  0
    8.0013   -2.6065   -5.3505 H   0  0  0  0  0  0  0  0  0  0  0  0
  1  2  1  0
  1 24  1  0
  1 25  1  0
  1 26  1  0
  2  3  1  0
  2 27  1  0
  2 28  1  0
  3  4  1  0
  4  5  1  0
  4 11  1  0
  5  6  1  1
  5  7  1  0
  5  8  1  0
  6 29  1  0
  6 30  1  0
  6 31  1  0
  7 32  1  0
  7 33  1  0
  7 34  1  0
  8  9  1  0
  8 35  1  0
  8 36  1  0
  9 10  1  0
  9 14  1  1
  9 22  1  0
 10 11  1  0
 10 37  1  0
 10 38  1  0
 11 12  1  6
 11 13  1  0
 12 39  1  0
 12 40  1  0
 12 41  1  0
 13 42  1  0
 13 43  1  0
 13 44  1  0
 15 14  1  1
 15 16  1  0
 15 20  1  0
 15 21  1  0
 16 17  1  0
 16 45  1  0
 16 46  1  0
 17 18  1  0
 17 47  1  0
 17 48  1  0
 18 19  1  0
 18 49  1  0
 18 50  1  0
 19 20  1  0
 19 51  1  0
 19 52  1  0
 20 53  1  0
 20 54  1  0
 21 22  1  0
 21 55  1  0
 22 23  2  0
M  END

