
     RDKit          3D

 50 55  0  0  0  0  0  0  0  0999 V2000
    1.5474   -1.3535    1.2495 C   0  0  0  0  0  0  0  0  0  0  0  0
    2.6570   -0.6613    0.5191 C   0  0  0  0  0  0  0  0  0  0  0  0
    3.7676   -1.2423   -0.1005 C   0  0  0  0  0  0  0  0  0  0  0  0
    4.5485   -0.2104   -0.6661 C   0  0  0  0  0  0  0  0  0  0  0  0
    5.8297   -0.3292   -1.4222 C   0  0  0  0  0  0  0  0  0  0  0  0
    3.9505    0.9793   -0.4148 N   0  0  0  0  0  0  0  0  0  0  0  0
    2.7882    0.7407    0.3119 C   0  0  0  0  0  0  0  0  0  0  0  0
    1.9669    1.8062    0.6908 C   0  0  0  0  0  0  0  0  0  0  0  0
    2.2631    3.1205    0.3643 C   0  0  0  0  0  0  0  0  0  0  0  0
    1.5326    4.3300    0.6213 C   0  0  0  0  0  0  0  0  0  0  0  0
    0.3467    4.6005    1.3282 C   0  0  0  0  0  0  0  0  0  0  0  0
   -0.0632    5.9219    1.4497 C   0  0  0  0  0  0  0  0  0  0  0  0
    0.6968    6.9791    0.8946 C   0  0  0  0  0  0  0  0  0  0  0  0
    1.8644    6.7257    0.1886 C   0  0  0  0  0  0  0  0  0  0  0  0
    2.2760    5.3870    0.0240 C   0  0  0  0  0  0  0  0  0  0  0  0
    3.4347    4.7901   -0.5978 C   0  0  0  0  0  0  0  0  0  0  0  0
    4.4800    5.4874   -1.3263 C   0  0  0  0  0  0  0  0  0  0  0  0
    5.8179    5.1493   -1.1776 N   0  0  0  0  0  0  0  0  0  0  0  0
    6.1331    4.3473   -0.6365 H   0  0  0  0  0  0  0  0  0  0  0  0
    6.5862    5.9535   -1.9702 C   0  0  0  0  0  0  0  0  0  0  0  0
    7.9782    5.9892   -2.1559 C   0  0  0  0  0  0  0  0  0  0  0  0
    8.4841    6.9293   -3.0461 C   0  0  0  0  0  0  0  0  0  0  0  0
    7.6327    7.8217   -3.7420 C   0  0  0  0  0  0  0  0  0  0  0  0
    6.2569    7.7873   -3.5574 C   0  0  0  0  0  0  0  0  0  0  0  0
    5.7117    6.8468   -2.6567 C   0  0  0  0  0  0  0  0  0  0  0  0
    4.3723    6.5400   -2.2439 C   0  0  0  0  0  0  0  0  0  0  0  0
    3.1428    7.1679   -2.8284 C   0  0  0  0  0  0  0  0  0  0  0  0
    3.4107    3.4555   -0.3595 N   0  0  0  0  0  0  0  0  0  0  0  0
    4.4838    2.3795   -0.8057 B   0  0  2  0  0  0  0  0  0  0  0  0
    4.7064    2.4691   -2.1652 F   0  0  0  0  0  0  0  0  0  0  0  0
    5.6838    2.6261   -0.0978 F   0  0  0  0  0  0  0  0  0  0  0  0
    1.6999   -2.4425    1.2527 H   0  0  0  0  0  0  0  0  0  0  0  0
    0.5660   -1.1568    0.7857 H   0  0  0  0  0  0  0  0  0  0  0  0
    1.4804   -1.0242    2.3003 H   0  0  0  0  0  0  0  0  0  0  0  0
    4.0044   -2.3041   -0.1506 H   0  0  0  0  0  0  0  0  0  0  0  0
    6.1264   -1.3824   -1.5164 H   0  0  0  0  0  0  0  0  0  0  0  0
    6.6353    0.2235   -0.9118 H   0  0  0  0  0  0  0  0  0  0  0  0
    5.7347    0.1112   -2.4271 H   0  0  0  0  0  0  0  0  0  0  0  0
    1.0513    1.5986    1.2475 H   0  0  0  0  0  0  0  0  0  0  0  0
   -0.2344    3.7952    1.7840 H   0  0  0  0  0  0  0  0  0  0  0  0
   -0.9795    6.1543    1.9983 H   0  0  0  0  0  0  0  0  0  0  0  0
    0.3616    8.0095    1.0344 H   0  0  0  0  0  0  0  0  0  0  0  0
    2.4596    7.5460   -0.2125 H   0  0  0  0  0  0  0  0  0  0  0  0
    8.6369    5.2990   -1.6238 H   0  0  0  0  0  0  0  0  0  0  0  0
    9.5628    6.9798   -3.2156 H   0  0  0  0  0  0  0  0  0  0  0  0
    8.0703    8.5457   -4.4337 H   0  0  0  0  0  0  0  0  0  0  0  0
    5.6069    8.4798   -4.0985 H   0  0  0  0  0  0  0  0  0  0  0  0
    3.2182    7.1947   -3.9283 H   0  0  0  0  0  0  0  0  0  0  0  0
    3.0084    8.2128   -2.4974 H   0  0  0  0  0  0  0  0  0  0  0  0
    2.2286    6.6162   -2.5733 H   0  0  0  0  0  0  0  0  0  0  0  0
  1  2  1  0
  1 32  1  0
  1 33  1  0
  1 34  1  0
  2  3  1  0
  2  7  2  0
  3  4  2  0
  3 35  1  0
  4  5  1  0
  4  6  1  0
  5 36  1  0
  5 37  1  0
  5 38  1  0
  6  7  1  0
  6 29  1  0
  7  8  1  0
  8  9  2  0
  8 39  1  0
  9 10  1  0
  9 28  1  0
 10 11  2  0
 10 15  1  0
 11 12  1  0
 11 40  1  0
 12 13  2  0
 12 41  1  0
 13 14  1  0
 13 42  1  0
 14 15  2  0
 14 43  1  0
 15 16  1  0
 16 17  1  0
 16 28  2  0
 17 18  1  0
 17 26  2  0
 18 19  1  0
 18 20  1  0
 20 21  2  0
 20 25  1  0
 21 22  1  0
 21 44  1  0
 22 23  2  0
 22 45  1  0
 23 24  1  0
 23 46  1  0
 24 25  2  0
 24 47  1  0
 25 26  1  0
 26 27  1  0
 27 48  1  0
 27 49  1  0
 27 50  1  0
 28 29  1  0
 29 30  1  6
 29 31  1  0
M  CHG  2  28   1  29  -1
M  END

