
     RDKit          3D

 33 34  0  0  0  0  0  0  0  0999 V2000
    1.0169    0.0976    0.1908 C   0  0  0  0  0  0  0  0  0  0  0  0
    2.4359   -0.0198   -0.0974 N   0  0  0  0  0  0  0  0  0  0  0  0
    2.8776   -1.3304   -0.5760 C   0  0  1  0  0  0  0  0  0  0  0  0
    2.2516   -1.6687   -1.9403 C   0  0  0  0  0  0  0  0  0  0  0  0
    4.3971   -1.3586   -0.6735 C   0  0  0  0  0  0  0  0  0  0  0  0
    5.1213   -0.1876   -0.9552 C   0  0  0  0  0  0  0  0  0  0  0  0
    6.5087   -0.1878   -1.0826 C   0  0  0  0  0  0  0  0  0  0  0  0
    7.2506   -1.3748   -0.9356 C   0  0  0  0  0  0  0  0  0  0  0  0
    8.7279   -1.3643   -1.0560 C   0  0  0  0  0  0  0  0  0  0  0  0
    9.5398   -0.3143   -0.4976 C   0  0  0  0  0  0  0  0  0  0  0  0
   10.8777   -0.4795   -0.7247 C   0  0  0  0  0  0  0  0  0  0  0  0
   11.1835   -1.9157   -1.6378 S   0  0  0  0  0  0  0  0  0  0  0  0
    9.4902   -2.3156   -1.7176 C   0  0  0  0  0  0  0  0  0  0  0  0
    9.0580   -3.5415   -2.4693 C   0  0  0  0  0  0  0  0  0  0  0  0
    6.5401   -2.5532   -0.6516 C   0  0  0  0  0  0  0  0  0  0  0  0
    5.1485   -2.5375   -0.5334 C   0  0  0  0  0  0  0  0  0  0  0  0
    4.3534   -4.0718   -0.1919 Cl  0  0  0  0  0  0  0  0  0  0  0  0
    0.8284    1.0542    0.7022 H   0  0  0  0  0  0  0  0  0  0  0  0
    0.6111   -0.7170    0.8323 H   0  0  0  0  0  0  0  0  0  0  0  0
    0.4239    0.1089   -0.7374 H   0  0  0  0  0  0  0  0  0  0  0  0
    2.9673    0.2131    0.7405 H   0  0  0  0  0  0  0  0  0  0  0  0
    2.5760   -2.1362    0.1268 H   0  0  0  0  0  0  0  0  0  0  0  0
    2.5054   -0.8934   -2.6801 H   0  0  0  0  0  0  0  0  0  0  0  0
    1.1552   -1.7421   -1.8730 H   0  0  0  0  0  0  0  0  0  0  0  0
    2.6267   -2.6381   -2.2992 H   0  0  0  0  0  0  0  0  0  0  0  0
    4.5575    0.7394   -1.0761 H   0  0  0  0  0  0  0  0  0  0  0  0
    7.0259    0.7450   -1.3186 H   0  0  0  0  0  0  0  0  0  0  0  0
    9.1274    0.5181    0.0745 H   0  0  0  0  0  0  0  0  0  0  0  0
   11.7010    0.1546   -0.3990 H   0  0  0  0  0  0  0  0  0  0  0  0
    9.7329   -3.7499   -3.3138 H   0  0  0  0  0  0  0  0  0  0  0  0
    8.0422   -3.4131   -2.8713 H   0  0  0  0  0  0  0  0  0  0  0  0
    9.0502   -4.4416   -1.8299 H   0  0  0  0  0  0  0  0  0  0  0  0
    7.0668   -3.4936   -0.4919 H   0  0  0  0  0  0  0  0  0  0  0  0
  1  2  1  0
  1 18  1  0
  1 19  1  0
  1 20  1  0
  2  3  1  0
  2 21  1  0
  3  4  1  0
  3  5  1  0
  3 22  1  1
  4 23  1  0
  4 24  1  0
  4 25  1  0
  5  6  2  0
  5 16  1  0
  6  7  1  0
  6 26  1  0
  7  8  2  0
  7 27  1  0
  8  9  1  0
  8 15  1  0
  9 10  1  0
  9 13  2  0
 10 11  2  0
 10 28  1  0
 11 12  1  0
 11 29  1  0
 12 13  1  0
 13 14  1  0
 14 30  1  0
 14 31  1  0
 14 32  1  0
 15 16  2  0
 15 33  1  0
 16 17  1  0
M  END

