
     RDKit          3D

 34 35  0  0  0  0  0  0  0  0999 V2000
    1.3582    1.3297   -0.5549 O   0  0  0  0  0  0  0  0  0  0  0  0
    2.3055    0.6034   -0.2624 C   0  0  0  0  0  0  0  0  0  0  0  0
    2.7131    0.3434    1.0018 N   0  0  0  0  0  0  0  0  0  0  0  0
    2.1085    0.9153    2.2072 C   0  0  1  0  0  0  0  0  0  0  0  0
    2.3452    2.4370    2.2746 C   0  0  0  0  0  0  0  0  0  0  0  0
    1.7135    3.1785    3.4640 C   0  0  0  0  0  0  0  0  0  0  0  0
    0.1775    3.2413    3.4138 C   0  0  0  0  0  0  0  0  0  0  0  0
   -0.5506    2.0024    3.9650 C   0  0  0  0  0  0  0  0  0  0  0  0
    0.1716    0.7622    3.7287 N   0  0  0  0  0  0  0  0  0  0  0  0
    0.6311    0.4905    2.3726 C   0  0  0  0  0  0  0  0  0  0  0  0
    3.1048   -0.0741   -1.3565 C   0  0  0  0  0  0  0  0  0  0  0  0
    2.7210    0.1649   -2.6575 C   0  0  0  0  0  0  0  0  0  0  0  0
    3.3922   -0.4108   -3.7686 C   0  0  0  0  0  0  0  0  0  0  0  0
    4.4581   -1.2316   -3.5172 C   0  0  0  0  0  0  0  0  0  0  0  0
    4.8434   -1.4738   -2.2357 N   0  0  0  0  0  0  0  0  0  0  0  0
    5.6350   -2.0834   -2.0446 H   0  0  0  0  0  0  0  0  0  0  0  0
    4.2406   -0.9506   -1.0818 C   0  0  0  0  0  0  0  0  0  0  0  0
    4.7030   -1.2607    0.0174 O   0  0  0  0  0  0  0  0  0  0  0  0
    3.5222   -0.2752    1.0888 H   0  0  0  0  0  0  0  0  0  0  0  0
    2.6370    0.4488    3.0542 H   0  0  0  0  0  0  0  0  0  0  0  0
    1.9666    2.8810    1.3395 H   0  0  0  0  0  0  0  0  0  0  0  0
    3.4368    2.6003    2.2814 H   0  0  0  0  0  0  0  0  0  0  0  0
    2.1032    4.2106    3.4480 H   0  0  0  0  0  0  0  0  0  0  0  0
    2.0460    2.7372    4.4198 H   0  0  0  0  0  0  0  0  0  0  0  0
   -0.1266    3.4178    2.3677 H   0  0  0  0  0  0  0  0  0  0  0  0
   -0.1836    4.1182    3.9773 H   0  0  0  0  0  0  0  0  0  0  0  0
   -1.5832    1.9981    3.5456 H   0  0  0  0  0  0  0  0  0  0  0  0
   -0.6648    2.1061    5.0591 H   0  0  0  0  0  0  0  0  0  0  0  0
   -0.3440   -0.0260    4.1073 H   0  0  0  0  0  0  0  0  0  0  0  0
    0.0124    0.9679    1.5904 H   0  0  0  0  0  0  0  0  0  0  0  0
    0.5829   -0.5954    2.1907 H   0  0  0  0  0  0  0  0  0  0  0  0
    1.8638    0.8288   -2.7982 H   0  0  0  0  0  0  0  0  0  0  0  0
    3.0769   -0.2115   -4.7926 H   0  0  0  0  0  0  0  0  0  0  0  0
    5.0408   -1.7227   -4.2996 H   0  0  0  0  0  0  0  0  0  0  0  0
  1  2  2  0
  2  3  1  0
  2 11  1  0
  3  4  1  0
  3 19  1  0
  4  5  1  0
  4 10  1  0
  4 20  1  1
  5  6  1  0
  5 21  1  0
  5 22  1  0
  6  7  1  0
  6 23  1  0
  6 24  1  0
  7  8  1  0
  7 25  1  0
  7 26  1  0
  8  9  1  0
  8 27  1  0
  8 28  1  0
  9 10  1  0
  9 29  1  0
 10 30  1  0
 10 31  1  0
 11 12  2  0
 11 17  1  0
 12 13  1  0
 12 32  1  0
 13 14  2  0
 13 33  1  0
 14 15  1  0
 14 34  1  0
 15 16  1  0
 15 17  1  0
 17 18  2  0
M  END

