
     RDKit          3D

 22 22  0  0  0  0  0  0  0  0999 V2000
    2.8338    0.5811   -1.5618 C   0  0  0  0  0  0  0  0  0  0  0  0
    2.4161    0.1166   -0.1604 C   0  0  1  0  0  0  0  0  0  0  0  0
    0.8895    0.1465   -0.0097 C   0  0  0  0  0  0  0  0  0  0  0  0
    2.9560   -1.2866    0.1864 C   0  0  0  0  0  0  0  0  0  0  0  0
    4.4816   -1.4701    0.1717 C   0  0  0  0  0  0  0  0  0  0  0  0
    5.2265   -0.6236    1.1787 C   0  0  1  0  0  0  0  0  0  0  0  0
    5.5254   -1.1055    2.5368 C   0  0  0  0  0  0  0  0  0  0  0  0
    6.5350   -1.0602    1.5372 O   0  0  0  0  0  0  0  0  0  0  0  0
    2.4155    1.5750   -1.7891 H   0  0  0  0  0  0  0  0  0  0  0  0
    2.4671   -0.1175   -2.3340 H   0  0  0  0  0  0  0  0  0  0  0  0
    3.9271    0.6538   -1.6716 H   0  0  0  0  0  0  0  0  0  0  0  0
    2.8314    0.8354    0.5708 H   0  0  0  0  0  0  0  0  0  0  0  0
    0.4094   -0.5503   -0.7187 H   0  0  0  0  0  0  0  0  0  0  0  0
    0.4852    1.1524   -0.2078 H   0  0  0  0  0  0  0  0  0  0  0  0
    0.5774   -0.1467    1.0060 H   0  0  0  0  0  0  0  0  0  0  0  0
    2.5119   -2.0125   -0.5192 H   0  0  0  0  0  0  0  0  0  0  0  0
    2.5772   -1.5692    1.1852 H   0  0  0  0  0  0  0  0  0  0  0  0
    4.8861   -1.2570   -0.8331 H   0  0  0  0  0  0  0  0  0  0  0  0
    4.7253   -2.5258    0.3761 H   0  0  0  0  0  0  0  0  0  0  0  0
    5.1523    0.4653    1.0400 H   0  0  0  0  0  0  0  0  0  0  0  0
    5.1961   -2.1110    2.8346 H   0  0  0  0  0  0  0  0  0  0  0  0
    5.6374   -0.3920    3.3647 H   0  0  0  0  0  0  0  0  0  0  0  0
  1  2  1  0
  1  9  1  0
  1 10  1  0
  1 11  1  0
  2  3  1  0
  2  4  1  0
  2 12  1  1
  3 13  1  0
  3 14  1  0
  3 15  1  0
  4  5  1  0
  4 16  1  0
  4 17  1  0
  5  6  1  0
  5 18  1  0
  5 19  1  0
  6  7  1  0
  6  8  1  0
  6 20  1  1
  7  8  1  0
  7 21  1  0
  7 22  1  0
M  END

