
     RDKit          3D

 42 45  0  0  0  0  0  0  0  0999 V2000
    5.2261   -2.5943    0.7477 C   0  0  0  0  0  0  0  0  0  0  0  0
    4.5846   -1.3892    0.0881 C   0  0  0  0  0  0  0  0  0  0  0  0
    3.4670   -1.4314   -0.3790 O   0  0  0  0  0  0  0  0  0  0  0  0
    5.4227   -0.1183    0.0378 C   0  0  0  0  0  0  0  0  0  0  0  0
    4.7855    0.9584   -0.8407 C   0  0  0  0  0  0  0  0  0  0  0  0
    5.5346    2.2274   -0.8067 N   0  0  0  0  0  0  0  0  0  0  0  0
    5.1567    3.3116   -0.0280 C   0  0  0  0  0  0  0  0  0  0  0  0
    3.8220    3.3415    0.6436 C   0  0  0  0  0  0  0  0  0  0  0  0
    3.7640    3.6332    2.0163 C   0  0  0  0  0  0  0  0  0  0  0  0
    2.5330    3.7408    2.6663 C   0  0  0  0  0  0  0  0  0  0  0  0
    1.3434    3.5795    1.9497 C   0  0  0  0  0  0  0  0  0  0  0  0
    1.3910    3.3156    0.5774 C   0  0  0  0  0  0  0  0  0  0  0  0
    2.6209    3.1960   -0.0727 C   0  0  0  0  0  0  0  0  0  0  0  0
    5.9179    4.3604    0.1498 N   0  0  0  0  0  0  0  0  0  0  0  0
    7.0950    4.3867   -0.5063 C   0  0  0  0  0  0  0  0  0  0  0  0
    8.2317    5.7224   -0.3730 S   0  0  0  0  0  0  0  0  0  0  0  0
    9.3170    4.9174   -1.4749 C   0  0  0  0  0  0  0  0  0  0  0  0
    8.8420    3.7140   -1.9213 C   0  0  0  0  0  0  0  0  0  0  0  0
    7.5622    3.3950   -1.3726 C   0  0  0  0  0  0  0  0  0  0  0  0
    6.7611    2.2039   -1.5454 C   0  0  0  0  0  0  0  0  0  0  0  0
    7.0586    1.2247   -2.2144 O   0  0  0  0  0  0  0  0  0  0  0  0
    9.7909    3.0894   -2.9101 C   0  0  0  0  0  0  0  0  0  0  0  0
   11.0770    3.9479   -2.7286 C   0  0  0  0  0  0  0  0  0  0  0  0
   10.6358    5.2987   -2.0867 C   0  0  0  0  0  0  0  0  0  0  0  0
    4.4800   -3.3887    0.8802 H   0  0  0  0  0  0  0  0  0  0  0  0
    5.6750   -2.3269    1.7179 H   0  0  0  0  0  0  0  0  0  0  0  0
    6.0439   -2.9684    0.1083 H   0  0  0  0  0  0  0  0  0  0  0  0
    6.4358   -0.3629   -0.3198 H   0  0  0  0  0  0  0  0  0  0  0  0
    5.5388    0.2443    1.0765 H   0  0  0  0  0  0  0  0  0  0  0  0
    3.7557    1.1255   -0.5226 H   0  0  0  0  0  0  0  0  0  0  0  0
    4.7683    0.6141   -1.8824 H   0  0  0  0  0  0  0  0  0  0  0  0
    4.6954    3.7829    2.5659 H   0  0  0  0  0  0  0  0  0  0  0  0
    2.5030    3.9581    3.7369 H   0  0  0  0  0  0  0  0  0  0  0  0
    0.3798    3.6673    2.4577 H   0  0  0  0  0  0  0  0  0  0  0  0
    0.4654    3.2074    0.0067 H   0  0  0  0  0  0  0  0  0  0  0  0
    2.6452    3.0108   -1.1492 H   0  0  0  0  0  0  0  0  0  0  0  0
    9.3837    3.1657   -3.9346 H   0  0  0  0  0  0  0  0  0  0  0  0
    9.9596    2.0176   -2.7269 H   0  0  0  0  0  0  0  0  0  0  0  0
   11.6264    4.0944   -3.6705 H   0  0  0  0  0  0  0  0  0  0  0  0
   11.7585    3.4316   -2.0337 H   0  0  0  0  0  0  0  0  0  0  0  0
   10.5039    6.0924   -2.8458 H   0  0  0  0  0  0  0  0  0  0  0  0
   11.3713    5.6783   -1.3589 H   0  0  0  0  0  0  0  0  0  0  0  0
  1  2  1  0
  1 25  1  0
  1 26  1  0
  1 27  1  0
  2  3  2  0
  2  4  1  0
  4  5  1  0
  4 28  1  0
  4 29  1  0
  5  6  1  0
  5 30  1  0
  5 31  1  0
  6  7  1  0
  6 20  1  0
  7  8  1  0
  7 14  2  0
  8  9  2  0
  8 13  1  0
  9 10  1  0
  9 32  1  0
 10 11  2  0
 10 33  1  0
 11 12  1  0
 11 34  1  0
 12 13  2  0
 12 35  1  0
 13 36  1  0
 14 15  1  0
 15 16  2  0
 15 19  1  0
 16 17  1  0
 17 18  2  0
 17 24  1  0
 18 19  1  0
 18 22  1  0
 19 20  2  0
 20 21  1  0
 22 23  1  0
 22 37  1  0
 22 38  1  0
 23 24  1  0
 23 39  1  0
 23 40  1  0
 24 41  1  0
 24 42  1  0
M  CHG  2  16   1  21  -1
M  END

