
     RDKit          3D

 73 77  0  0  0  0  0  0  0  0999 V2000
    2.4790    0.5424   -2.6893 C   0  0  0  0  0  0  0  0  0  0  0  0
    3.0466    0.2300   -1.3388 C   0  0  0  0  0  0  0  0  0  0  0  0
    3.2186    1.0528   -0.2163 C   0  0  0  0  0  0  0  0  0  0  0  0
    2.7899    2.4444   -0.0627 C   0  0  0  0  0  0  0  0  0  0  0  0
    1.5529    2.7533   -0.5394 O   0  0  0  0  0  0  0  0  0  0  0  0
    3.5050    3.4594    0.4979 C   0  0  0  0  0  0  0  0  0  0  0  0
    4.9210    3.4360    0.8840 C   0  0  0  0  0  0  0  0  0  0  0  0
    5.7082    2.5147    0.9505 O   0  0  0  0  0  0  0  0  0  0  0  0
    5.2926    4.8999    1.1967 C   0  0  0  0  0  0  0  0  0  0  0  0
    6.3937    5.3285    1.4806 O   0  0  0  0  0  0  0  0  0  0  0  0
    4.1401    5.6279    1.0867 N   0  0  0  0  0  0  0  0  0  0  0  0
    4.1366    7.0666    1.2644 C   0  0  0  0  0  0  0  0  0  0  0  0
    4.5302    7.8403   -0.0032 C   0  0  0  0  0  0  0  0  0  0  0  0
    3.5935    7.6479   -1.1066 N   0  0  0  0  0  0  0  0  0  0  0  0
    2.3913    8.4829   -1.0600 C   0  0  0  0  0  0  0  0  0  0  0  0
    2.6261    9.8804   -1.6437 C   0  0  0  0  0  0  0  0  0  0  0  0
    3.1462    9.8000   -2.9579 O   0  0  0  0  0  0  0  0  0  0  0  0
    4.3606    9.0719   -3.0047 C   0  0  0  0  0  0  0  0  0  0  0  0
    4.1645    7.6568   -2.4535 C   0  0  0  0  0  0  0  0  0  0  0  0
    2.9523    4.8675    0.6794 C   0  0  2  0  0  0  0  0  0  0  0  0
    2.5876    5.2686   -0.2806 H   0  0  0  0  0  0  0  0  0  0  0  0
    1.8173    4.9636    1.6958 C   0  0  0  0  0  0  0  0  0  0  0  0
    0.5148    5.2919    1.2905 C   0  0  0  0  0  0  0  0  0  0  0  0
   -0.5302    5.3672    2.2077 C   0  0  0  0  0  0  0  0  0  0  0  0
   -0.3013    5.1153    3.5718 C   0  0  0  0  0  0  0  0  0  0  0  0
   -1.3884    5.1983    4.3797 O   0  0  0  0  0  0  0  0  0  0  0  0
   -1.2930    5.0151    5.7976 C   0  0  1  0  0  0  0  0  0  0  0  0
   -0.7875    6.2881    6.4747 C   0  0  0  0  0  0  0  0  0  0  0  0
   -2.6866    4.6140    6.2640 C   0  0  0  0  0  0  0  0  0  0  0  0
    1.0008    4.7925    3.9922 C   0  0  0  0  0  0  0  0  0  0  0  0
    2.0364    4.7181    3.0564 C   0  0  0  0  0  0  0  0  0  0  0  0
    3.8458    0.2148    0.7503 C   0  0  0  0  0  0  0  0  0  0  0  0
    4.0252   -1.0050    0.2915 N   0  0  0  0  0  0  0  0  0  0  0  0
    3.5590   -0.9906   -0.9841 N   0  0  0  0  0  0  0  0  0  0  0  0
    3.6000   -2.2038   -1.7325 C   0  0  0  0  0  0  0  0  0  0  0  0
    3.2502   -3.4004   -1.0902 C   0  0  0  0  0  0  0  0  0  0  0  0
    3.2929   -4.6024   -1.7964 C   0  0  0  0  0  0  0  0  0  0  0  0
    3.6782   -4.6209   -3.1415 C   0  0  0  0  0  0  0  0  0  0  0  0
    4.0381   -3.4282   -3.7733 C   0  0  0  0  0  0  0  0  0  0  0  0
    4.0102   -2.2195   -3.0716 C   0  0  0  0  0  0  0  0  0  0  0  0
    1.8902    1.4673   -2.6494 H   0  0  0  0  0  0  0  0  0  0  0  0
    1.8381   -0.2708   -3.0629 H   0  0  0  0  0  0  0  0  0  0  0  0
    3.2732    0.7047   -3.4362 H   0  0  0  0  0  0  0  0  0  0  0  0
    1.0419    1.9378   -0.6432 H   0  0  0  0  0  0  0  0  0  0  0  0
    4.8675    7.3068    2.0526 H   0  0  0  0  0  0  0  0  0  0  0  0
    3.1415    7.3713    1.6246 H   0  0  0  0  0  0  0  0  0  0  0  0
    5.5211    7.4776   -0.3159 H   0  0  0  0  0  0  0  0  0  0  0  0
    4.6686    8.9063    0.2803 H   0  0  0  0  0  0  0  0  0  0  0  0
    2.0232    8.5545   -0.0239 H   0  0  0  0  0  0  0  0  0  0  0  0
    1.5980    7.9893   -1.6506 H   0  0  0  0  0  0  0  0  0  0  0  0
    3.3179   10.4586   -0.9947 H   0  0  0  0  0  0  0  0  0  0  0  0
    1.6806   10.4425   -1.7061 H   0  0  0  0  0  0  0  0  0  0  0  0
    5.1486    9.6033   -2.4293 H   0  0  0  0  0  0  0  0  0  0  0  0
    4.6767    9.0442   -4.0598 H   0  0  0  0  0  0  0  0  0  0  0  0
    5.1169    7.1032   -2.4535 H   0  0  0  0  0  0  0  0  0  0  0  0
    3.4707    7.1199   -3.1266 H   0  0  0  0  0  0  0  0  0  0  0  0
    0.3151    5.4849    0.2330 H   0  0  0  0  0  0  0  0  0  0  0  0
   -1.5449    5.6208    1.8935 H   0  0  0  0  0  0  0  0  0  0  0  0
   -0.5983    4.1812    6.0062 H   0  0  0  0  0  0  0  0  0  0  0  0
   -1.4821    7.1210    6.2816 H   0  0  0  0  0  0  0  0  0  0  0  0
    0.2061    6.5788    6.1027 H   0  0  0  0  0  0  0  0  0  0  0  0
   -0.7141    6.1427    7.5641 H   0  0  0  0  0  0  0  0  0  0  0  0
   -3.4115    5.4110    6.0349 H   0  0  0  0  0  0  0  0  0  0  0  0
   -2.6944    4.4370    7.3505 H   0  0  0  0  0  0  0  0  0  0  0  0
   -3.0148    3.6947    5.7565 H   0  0  0  0  0  0  0  0  0  0  0  0
    1.2226    4.5998    5.0418 H   0  0  0  0  0  0  0  0  0  0  0  0
    3.0424    4.4692    3.4056 H   0  0  0  0  0  0  0  0  0  0  0  0
    4.1619    0.4814    1.7561 H   0  0  0  0  0  0  0  0  0  0  0  0
    2.9613   -3.3702   -0.0392 H   0  0  0  0  0  0  0  0  0  0  0  0
    3.0201   -5.5325   -1.2917 H   0  0  0  0  0  0  0  0  0  0  0  0
    3.7073   -5.5642   -3.6920 H   0  0  0  0  0  0  0  0  0  0  0  0
    4.3614   -3.4352   -4.8171 H   0  0  0  0  0  0  0  0  0  0  0  0
    4.3362   -1.3003   -3.5580 H   0  0  0  0  0  0  0  0  0  0  0  0
  1  2  1  0
  1 41  1  0
  1 42  1  0
  1 43  1  0
  2  3  2  0
  2 34  1  0
  3  4  1  0
  3 32  1  0
  4  5  1  0
  4  6  2  0
  5 44  1  0
  6  7  1  0
  6 20  1  0
  7  8  2  0
  7  9  1  0
  9 10  2  0
  9 11  1  0
 11 12  1  0
 11 20  1  0
 12 13  1  0
 12 45  1  0
 12 46  1  0
 13 14  1  0
 13 47  1  0
 13 48  1  0
 14 15  1  0
 14 19  1  0
 15 16  1  0
 15 49  1  0
 15 50  1  0
 16 17  1  0
 16 51  1  0
 16 52  1  0
 17 18  1  0
 18 19  1  0
 18 53  1  0
 18 54  1  0
 19 55  1  0
 19 56  1  0
 20 21  1  6
 20 22  1  0
 22 23  2  0
 22 31  1  0
 23 24  1  0
 23 57  1  0
 24 25  2  0
 24 58  1  0
 25 26  1  0
 25 30  1  0
 26 27  1  0
 27 28  1  0
 27 29  1  0
 27 59  1  6
 28 60  1  0
 28 61  1  0
 28 62  1  0
 29 63  1  0
 29 64  1  0
 29 65  1  0
 30 31  2  0
 30 66  1  0
 31 67  1  0
 32 33  2  0
 32 68  1  0
 33 34  1  0
 34 35  1  0
 35 36  2  0
 35 40  1  0
 36 37  1  0
 36 69  1  0
 37 38  2  0
 37 70  1  0
 38 39  1  0
 38 71  1  0
 39 40  2  0
 39 72  1  0
 40 73  1  0
M  END

