
     RDKit          3D

 24 25  0  0  0  0  0  0  0  0999 V2000
    3.9408    2.8089   -0.3996 O   0  0  0  0  0  0  0  0  0  0  0  0
    4.3205    1.6745   -0.2280 C   0  0  0  0  0  0  0  0  0  0  0  0
    5.6809    1.2273    0.3011 C   0  0  0  0  0  0  0  0  0  0  0  0
    5.6255   -0.2858    0.3178 C   0  0  0  0  0  0  0  0  0  0  0  0
    6.4331   -1.0422    0.7890 O   0  0  0  0  0  0  0  0  0  0  0  0
    4.2956   -0.7162   -0.3633 C   0  0  2  0  0  0  0  0  0  0  0  0
    3.7891   -1.4355    0.3040 H   0  0  0  0  0  0  0  0  0  0  0  0
    4.4932   -1.3848   -1.7551 C   0  0  0  0  0  0  0  0  0  0  0  0
    4.2312   -0.7320   -2.7438 O   0  0  0  0  0  0  0  0  0  0  0  0
    4.9352   -2.8079   -1.8360 C   0  0  0  0  0  0  0  0  0  0  0  0
    4.9565   -3.4049   -3.1118 C   0  0  0  0  0  0  0  0  0  0  0  0
    5.3412   -4.7345   -3.2626 C   0  0  0  0  0  0  0  0  0  0  0  0
    5.7151   -5.4853   -2.1406 C   0  0  0  0  0  0  0  0  0  0  0  0
    5.7056   -4.8997   -0.8716 C   0  0  0  0  0  0  0  0  0  0  0  0
    5.3153   -3.5676   -0.7148 C   0  0  0  0  0  0  0  0  0  0  0  0
    3.5883    0.5349   -0.4735 N   0  0  0  0  0  0  0  0  0  0  0  0
    5.8979    1.6373    1.2998 H   0  0  0  0  0  0  0  0  0  0  0  0
    6.4824    1.5783   -0.3710 H   0  0  0  0  0  0  0  0  0  0  0  0
    4.6628   -2.7994   -3.9712 H   0  0  0  0  0  0  0  0  0  0  0  0
    5.3516   -5.1909   -4.2554 H   0  0  0  0  0  0  0  0  0  0  0  0
    6.0173   -6.5292   -2.2577 H   0  0  0  0  0  0  0  0  0  0  0  0
    6.0077   -5.4812    0.0026 H   0  0  0  0  0  0  0  0  0  0  0  0
    5.3493   -3.1156    0.2763 H   0  0  0  0  0  0  0  0  0  0  0  0
    2.7445    0.6136   -1.0324 H   0  0  0  0  0  0  0  0  0  0  0  0
  1  2  2  0
  2  3  1  0
  2 16  1  0
  3  4  1  0
  3 17  1  0
  3 18  1  0
  4  5  2  0
  4  6  1  0
  6  7  1  1
  6  8  1  0
  6 16  1  0
  8  9  2  0
  8 10  1  0
 10 11  2  0
 10 15  1  0
 11 12  1  0
 11 19  1  0
 12 13  2  0
 12 20  1  0
 13 14  1  0
 13 21  1  0
 14 15  2  0
 14 22  1  0
 15 23  1  0
 16 24  1  0
M  END

