
     RDKit          3D

 36 37  0  0  0  0  0  0  0  0999 V2000
    2.3717    0.0263    1.0632 C   0  0  0  0  0  0  0  0  0  0  0  0
    1.9148   -0.2856   -0.2463 O   0  0  0  0  0  0  0  0  0  0  0  0
    2.7646   -0.9895   -1.0500 C   0  0  0  0  0  0  0  0  0  0  0  0
    3.2896   -0.3758   -2.1857 C   0  0  0  0  0  0  0  0  0  0  0  0
    4.1141   -1.0687   -3.0898 C   0  0  0  0  0  0  0  0  0  0  0  0
    4.6969   -0.3671   -4.3011 C   0  0  0  0  0  0  0  0  0  0  0  0
    6.0021    0.3378   -3.9379 C   0  0  0  0  0  0  0  0  0  0  0  0
    6.9142    1.3775   -5.6452 I   0  0  0  0  0  0  0  0  0  0  0  0
    4.4136   -2.4060   -2.8104 C   0  0  0  0  0  0  0  0  0  0  0  0
    3.8972   -3.0446   -1.6760 C   0  0  0  0  0  0  0  0  0  0  0  0
    3.0650   -2.3508   -0.7898 C   0  0  0  0  0  0  0  0  0  0  0  0
    2.4923   -2.8871    0.3189 O   0  0  0  0  0  0  0  0  0  0  0  0
    2.6185   -4.2731    0.5777 C   0  0  0  0  0  0  0  0  0  0  0  0
    1.7553   -4.6448    1.7609 C   0  0  0  0  0  0  0  0  0  0  0  0
    0.5585   -3.9617    2.0220 C   0  0  0  0  0  0  0  0  0  0  0  0
   -0.2555   -4.3485    3.0900 C   0  0  0  0  0  0  0  0  0  0  0  0
    0.1124   -5.4235    3.9052 C   0  0  0  0  0  0  0  0  0  0  0  0
    1.3047   -6.1074    3.6506 C   0  0  0  0  0  0  0  0  0  0  0  0
    2.1229   -5.7159    2.5873 C   0  0  0  0  0  0  0  0  0  0  0  0
    1.5837    0.6292    1.5360 H   0  0  0  0  0  0  0  0  0  0  0  0
    3.3024    0.6217    1.0274 H   0  0  0  0  0  0  0  0  0  0  0  0
    2.5432   -0.8801    1.6647 H   0  0  0  0  0  0  0  0  0  0  0  0
    3.0177    0.6686   -2.3599 H   0  0  0  0  0  0  0  0  0  0  0  0
    3.9789    0.3689   -4.6959 H   0  0  0  0  0  0  0  0  0  0  0  0
    4.8840   -1.0954   -5.1055 H   0  0  0  0  0  0  0  0  0  0  0  0
    6.7721   -0.3635   -3.5930 H   0  0  0  0  0  0  0  0  0  0  0  0
    5.8591    1.1177   -3.1798 H   0  0  0  0  0  0  0  0  0  0  0  0
    5.0530   -2.9738   -3.4922 H   0  0  0  0  0  0  0  0  0  0  0  0
    4.1432   -4.0915   -1.4973 H   0  0  0  0  0  0  0  0  0  0  0  0
    3.6739   -4.5381    0.7764 H   0  0  0  0  0  0  0  0  0  0  0  0
    2.3019   -4.8456   -0.3167 H   0  0  0  0  0  0  0  0  0  0  0  0
    0.2780   -3.1187    1.3877 H   0  0  0  0  0  0  0  0  0  0  0  0
   -1.1841   -3.8061    3.2864 H   0  0  0  0  0  0  0  0  0  0  0  0
   -0.5260   -5.7247    4.7397 H   0  0  0  0  0  0  0  0  0  0  0  0
    1.6045   -6.9438    4.2872 H   0  0  0  0  0  0  0  0  0  0  0  0
    3.0603   -6.2488    2.4008 H   0  0  0  0  0  0  0  0  0  0  0  0
  1  2  1  0
  1 20  1  0
  1 21  1  0
  1 22  1  0
  2  3  1  0
  3  4  2  0
  3 11  1  0
  4  5  1  0
  4 23  1  0
  5  6  1  0
  5  9  2  0
  6  7  1  0
  6 24  1  0
  6 25  1  0
  7  8  1  0
  7 26  1  0
  7 27  1  0
  9 10  1  0
  9 28  1  0
 10 11  2  0
 10 29  1  0
 11 12  1  0
 12 13  1  0
 13 14  1  0
 13 30  1  0
 13 31  1  0
 14 15  2  0
 14 19  1  0
 15 16  1  0
 15 32  1  0
 16 17  2  0
 16 33  1  0
 17 18  1  0
 17 34  1  0
 18 19  2  0
 18 35  1  0
 19 36  1  0
M  END

