
     RDKit          3D

 34 35  0  0  0  0  0  0  0  0999 V2000
    3.2529   -0.3093   -1.4530 C   0  0  0  0  0  0  0  0  0  0  0  0
    2.5338    0.2116   -0.2075 C   0  0  0  0  0  0  0  0  0  0  0  0
    3.0723    1.5475    0.3098 C   0  0  1  0  0  0  0  0  0  0  0  0
    2.8927    2.7599   -0.6226 C   0  0  0  0  0  0  0  0  0  0  0  0
    2.7991    3.9491    0.3257 C   0  0  0  0  0  0  0  0  0  0  0  0
    2.9487    5.1314    0.0418 O   0  0  0  0  0  0  0  0  0  0  0  0
    2.5000    3.4688    1.5652 N   0  0  0  0  0  0  0  0  0  0  0  0
    2.1944    4.3276    2.7079 C   0  0  0  0  0  0  0  0  0  0  0  0
    3.3198    4.4768    3.7096 C   0  0  0  0  0  0  0  0  0  0  0  0
    3.3172    3.7327    4.8941 C   0  0  0  0  0  0  0  0  0  0  0  0
    4.3289    3.8332    5.8520 C   0  0  0  0  0  0  0  0  0  0  0  0
    5.3737    4.7246    5.5956 C   0  0  0  0  0  0  0  0  0  0  0  0
    6.6701    4.8896    6.7648 Cl  0  0  0  0  0  0  0  0  0  0  0  0
    5.4149    5.4896    4.4339 C   0  0  0  0  0  0  0  0  0  0  0  0
    4.3903    5.3855    3.4651 C   0  0  0  0  0  0  0  0  0  0  0  0
    4.4189    6.1796    2.3482 N   0  0  0  0  0  0  0  0  0  0  0  0
    2.4111    2.0178    1.6259 C   0  0  0  0  0  0  0  0  0  0  0  0
    2.8436   -1.2805   -1.7723 H   0  0  0  0  0  0  0  0  0  0  0  0
    4.3306   -0.4482   -1.2646 H   0  0  0  0  0  0  0  0  0  0  0  0
    3.1523    0.3862   -2.3020 H   0  0  0  0  0  0  0  0  0  0  0  0
    2.6121   -0.5381    0.6004 H   0  0  0  0  0  0  0  0  0  0  0  0
    1.4536    0.3185   -0.4178 H   0  0  0  0  0  0  0  0  0  0  0  0
    4.1534    1.4355    0.5076 H   0  0  0  0  0  0  0  0  0  0  0  0
    1.9456    2.7049   -1.1906 H   0  0  0  0  0  0  0  0  0  0  0  0
    3.7014    2.9115   -1.3506 H   0  0  0  0  0  0  0  0  0  0  0  0
    1.3073    3.9119    3.2131 H   0  0  0  0  0  0  0  0  0  0  0  0
    1.9102    5.3079    2.2947 H   0  0  0  0  0  0  0  0  0  0  0  0
    2.4809    3.0517    5.0815 H   0  0  0  0  0  0  0  0  0  0  0  0
    4.3089    3.2470    6.7706 H   0  0  0  0  0  0  0  0  0  0  0  0
    6.2454    6.1798    4.2730 H   0  0  0  0  0  0  0  0  0  0  0  0
    5.2610    6.7120    2.1744 H   0  0  0  0  0  0  0  0  0  0  0  0
    3.8628    5.9522    1.5207 H   0  0  0  0  0  0  0  0  0  0  0  0
    1.3525    1.6941    1.6883 H   0  0  0  0  0  0  0  0  0  0  0  0
    2.9293    1.6280    2.5173 H   0  0  0  0  0  0  0  0  0  0  0  0
  1  2  1  0
  1 18  1  0
  1 19  1  0
  1 20  1  0
  2  3  1  0
  2 21  1  0
  2 22  1  0
  3  4  1  0
  3 17  1  0
  3 23  1  1
  4  5  1  0
  4 24  1  0
  4 25  1  0
  5  6  2  0
  5  7  1  0
  7  8  1  0
  7 17  1  0
  8  9  1  0
  8 26  1  0
  8 27  1  0
  9 10  2  0
  9 15  1  0
 10 11  1  0
 10 28  1  0
 11 12  2  0
 11 29  1  0
 12 13  1  0
 12 14  1  0
 14 15  2  0
 14 30  1  0
 15 16  1  0
 16 31  1  0
 16 32  1  0
 17 33  1  0
 17 34  1  0
M  END

