
     RDKit          3D

 41 45  0  0  0  0  0  0  0  0999 V2000
    1.2611    0.0609    0.4052 C   0  0  0  0  0  0  0  0  0  0  0  0
    2.7466   -0.0080    0.1947 C   0  0  0  0  0  0  0  0  0  0  0  0
    3.3465   -1.1526    0.3189 N   0  0  0  0  0  0  0  0  0  0  0  0
    4.6944   -1.1813    0.1217 C   0  0  0  0  0  0  0  0  0  0  0  0
    5.4280   -0.0449   -0.2012 C   0  0  0  0  0  0  0  0  0  0  0  0
    6.7593   -0.3639   -0.3411 N   0  0  0  0  0  0  0  0  0  0  0  0
    7.4819    0.3046   -0.5754 H   0  0  0  0  0  0  0  0  0  0  0  0
    6.9129   -1.7159   -0.1114 C   0  0  0  0  0  0  0  0  0  0  0  0
    8.0681   -2.5124   -0.1359 C   0  0  0  0  0  0  0  0  0  0  0  0
    7.9224   -3.8688    0.1398 C   0  0  0  0  0  0  0  0  0  0  0  0
    6.6610   -4.4347    0.4352 C   0  0  0  0  0  0  0  0  0  0  0  0
    5.5148   -3.6484    0.4602 C   0  0  0  0  0  0  0  0  0  0  0  0
    5.6317   -2.2750    0.1856 C   0  0  0  0  0  0  0  0  0  0  0  0
    4.8298    1.2484   -0.3532 C   0  0  0  0  0  0  0  0  0  0  0  0
    5.4376    2.2757   -0.6362 O   0  0  0  0  0  0  0  0  0  0  0  0
    3.4160    1.1944   -0.1305 N   0  0  0  0  0  0  0  0  0  0  0  0
    2.5726    2.2809   -0.2073 N   0  0  0  0  0  0  0  0  0  0  0  0
    2.9760    3.4740   -0.4919 C   0  0  0  0  0  0  0  0  0  0  0  0
    2.0183    4.5635   -0.5523 C   0  0  0  0  0  0  0  0  0  0  0  0
    0.6501    4.5022   -0.3361 C   0  0  0  0  0  0  0  0  0  0  0  0
    0.1014    5.7471   -0.4873 N   0  0  0  0  0  0  0  0  0  0  0  0
   -0.8807    5.9649   -0.3804 H   0  0  0  0  0  0  0  0  0  0  0  0
    1.0898    6.6612   -0.8062 C   0  0  0  0  0  0  0  0  0  0  0  0
    1.0079    8.0379   -1.0518 C   0  0  0  0  0  0  0  0  0  0  0  0
    2.1909    8.7069   -1.3542 C   0  0  0  0  0  0  0  0  0  0  0  0
    3.4235    8.0204   -1.4101 C   0  0  0  0  0  0  0  0  0  0  0  0
    3.4998    6.6525   -1.1653 C   0  0  0  0  0  0  0  0  0  0  0  0
    2.3204    5.9487   -0.8569 C   0  0  0  0  0  0  0  0  0  0  0  0
    0.9192   -0.9525    0.6478 H   0  0  0  0  0  0  0  0  0  0  0  0
    0.7438    0.4275   -0.4938 H   0  0  0  0  0  0  0  0  0  0  0  0
    1.0016    0.7511    1.2216 H   0  0  0  0  0  0  0  0  0  0  0  0
    9.0472   -2.0839   -0.3631 H   0  0  0  0  0  0  0  0  0  0  0  0
    8.8061   -4.5121    0.1274 H   0  0  0  0  0  0  0  0  0  0  0  0
    6.5921   -5.5046    0.6457 H   0  0  0  0  0  0  0  0  0  0  0  0
    4.5360   -4.0762    0.6873 H   0  0  0  0  0  0  0  0  0  0  0  0
    4.0237    3.7057   -0.6932 H   0  0  0  0  0  0  0  0  0  0  0  0
    0.0393    3.6386   -0.0832 H   0  0  0  0  0  0  0  0  0  0  0  0
    0.0533    8.5683   -1.0083 H   0  0  0  0  0  0  0  0  0  0  0  0
    2.1648    9.7814   -1.5515 H   0  0  0  0  0  0  0  0  0  0  0  0
    4.3330    8.5766   -1.6504 H   0  0  0  0  0  0  0  0  0  0  0  0
    4.4613    6.1356   -1.2125 H   0  0  0  0  0  0  0  0  0  0  0  0
  1  2  1  0
  1 29  1  0
  1 30  1  0
  1 31  1  0
  2  3  2  0
  2 16  1  0
  3  4  1  0
  4  5  2  0
  4 13  1  0
  5  6  1  0
  5 14  1  0
  6  7  1  0
  6  8  1  0
  8  9  1  0
  8 13  2  0
  9 10  2  0
  9 32  1  0
 10 11  1  0
 10 33  1  0
 11 12  2  0
 11 34  1  0
 12 13  1  0
 12 35  1  0
 14 15  2  0
 14 16  1  0
 16 17  1  0
 17 18  2  0
 18 19  1  0
 18 36  1  0
 19 20  2  0
 19 28  1  0
 20 21  1  0
 20 37  1  0
 21 22  1  0
 21 23  1  0
 23 24  1  0
 23 28  2  0
 24 25  2  0
 24 38  1  0
 25 26  1  0
 25 39  1  0
 26 27  2  0
 26 40  1  0
 27 28  1  0
 27 41  1  0
M  END

