
     RDKit          3D

 43 45  0  0  0  0  0  0  0  0999 V2000
    0.9825    0.2276    0.7100 C   0  0  0  0  0  0  0  0  0  0  0  0
    2.4210    0.2274    0.1570 C   0  0  1  0  0  0  0  0  0  0  0  0
    2.8452    1.6774   -0.1268 C   0  0  0  0  0  0  0  0  0  0  0  0
    3.3980   -0.3943    1.1746 C   0  0  0  0  0  0  0  0  0  0  0  0
    2.4524   -0.5706   -1.1037 N   0  0  0  0  0  0  0  0  0  0  0  0
    2.9141   -0.0578   -2.3921 C   0  0  0  0  0  0  0  0  0  0  0  0
    2.4338   -1.0994   -3.4211 C   0  0  2  0  0  0  0  0  0  0  0  0
    1.0640   -0.7047   -3.9934 C   0  0  0  0  0  0  0  0  0  0  0  0
    0.4077    0.2019   -3.5100 O   0  0  0  0  0  0  0  0  0  0  0  0
    0.5510   -1.4631   -5.0421 N   0  0  0  0  0  0  0  0  0  0  0  0
   -0.8831   -1.3494   -5.3196 C   0  0  0  0  0  0  0  0  0  0  0  0
   -1.6534   -2.4450   -4.5915 C   0  0  0  0  0  0  0  0  0  0  0  0
   -1.0381   -4.1379   -4.9989 S   0  0  0  0  0  0  0  0  0  0  0  0
    0.5382   -3.8143   -5.7257 C   0  0  0  0  0  0  0  0  0  0  0  0
    1.1963   -4.8610   -6.3927 C   0  0  0  0  0  0  0  0  0  0  0  0
    2.4396   -4.6208   -6.9734 C   0  0  0  0  0  0  0  0  0  0  0  0
    3.0360   -3.4232   -6.9740 N   0  0  0  0  0  0  0  0  0  0  0  0
    2.4063   -2.4254   -6.3612 C   0  0  0  0  0  0  0  0  0  0  0  0
    1.1873   -2.5614   -5.6767 C   0  0  0  0  0  0  0  0  0  0  0  0
    2.3247   -2.3917   -2.5846 C   0  0  0  0  0  0  0  0  0  0  0  0
    2.1193   -1.8986   -1.1507 C   0  0  0  0  0  0  0  0  0  0  0  0
    1.7432   -2.5955   -0.2239 O   0  0  0  0  0  0  0  0  0  0  0  0
    0.9282    0.8366    1.6265 H   0  0  0  0  0  0  0  0  0  0  0  0
    0.6573   -0.7939    0.9457 H   0  0  0  0  0  0  0  0  0  0  0  0
    0.2915    0.6541   -0.0340 H   0  0  0  0  0  0  0  0  0  0  0  0
    2.8428    2.2371    0.8205 H   0  0  0  0  0  0  0  0  0  0  0  0
    2.1503    2.1846   -0.8126 H   0  0  0  0  0  0  0  0  0  0  0  0
    3.8620    1.7406   -0.5442 H   0  0  0  0  0  0  0  0  0  0  0  0
    3.3770    0.1740    2.1181 H   0  0  0  0  0  0  0  0  0  0  0  0
    4.4297   -0.3720    0.7872 H   0  0  0  0  0  0  0  0  0  0  0  0
    3.1240   -1.4361    1.3866 H   0  0  0  0  0  0  0  0  0  0  0  0
    4.0167    0.0275   -2.4215 H   0  0  0  0  0  0  0  0  0  0  0  0
    2.4835    0.9262   -2.6089 H   0  0  0  0  0  0  0  0  0  0  0  0
    3.1652   -1.2034   -4.2303 H   0  0  0  0  0  0  0  0  0  0  0  0
   -1.0412   -1.4094   -6.4073 H   0  0  0  0  0  0  0  0  0  0  0  0
   -1.2158   -0.3661   -4.9637 H   0  0  0  0  0  0  0  0  0  0  0  0
   -2.7172   -2.4337   -4.8731 H   0  0  0  0  0  0  0  0  0  0  0  0
   -1.5822   -2.2997   -3.5036 H   0  0  0  0  0  0  0  0  0  0  0  0
    0.7378   -5.8507   -6.4568 H   0  0  0  0  0  0  0  0  0  0  0  0
    2.9682   -5.4342   -7.4836 H   0  0  0  0  0  0  0  0  0  0  0  0
    2.8794   -1.4372   -6.4051 H   0  0  0  0  0  0  0  0  0  0  0  0
    3.2563   -2.9802   -2.6220 H   0  0  0  0  0  0  0  0  0  0  0  0
    1.5062   -3.0675   -2.8686 H   0  0  0  0  0  0  0  0  0  0  0  0
  2  1  1  1
  1 23  1  0
  1 24  1  0
  1 25  1  0
  2  3  1  0
  2  4  1  0
  2  5  1  0
  3 26  1  0
  3 27  1  0
  3 28  1  0
  4 29  1  0
  4 30  1  0
  4 31  1  0
  5  6  1  0
  5 21  1  0
  6  7  1  0
  6 32  1  0
  6 33  1  0
  7  8  1  0
  7 20  1  0
  7 34  1  6
  8  9  2  0
  8 10  1  0
 10 11  1  0
 10 19  1  0
 11 12  1  0
 11 35  1  0
 11 36  1  0
 12 13  1  0
 12 37  1  0
 12 38  1  0
 13 14  1  0
 14 15  2  0
 14 19  1  0
 15 16  1  0
 15 39  1  0
 16 17  2  0
 16 40  1  0
 17 18  1  0
 18 19  2  0
 18 41  1  0
 20 21  1  0
 20 42  1  0
 20 43  1  0
 21 22  2  0
M  END

