
     RDKit          3D

102115  0  0  0  0  0  0  0  0999 V2000
   -2.7338    0.3924   -1.9102 C   0  0  0  0  0  0  0  0  0  0  0  0
   -1.9055    1.4886   -2.1895 C   0  0  0  0  0  0  0  0  0  0  0  0
   -0.7741    1.7437   -1.4038 C   0  0  0  0  0  0  0  0  0  0  0  0
   -0.4831    0.8924   -0.3400 C   0  0  0  0  0  0  0  0  0  0  0  0
   -1.3137   -0.2095   -0.0580 C   0  0  0  0  0  0  0  0  0  0  0  0
   -2.4446   -0.4640   -0.8436 C   0  0  0  0  0  0  0  0  0  0  0  0
   -0.7694   -0.9232    1.1060 C   0  0  0  0  0  0  0  0  0  0  0  0
   -1.2238   -2.0681    1.7690 C   0  0  0  0  0  0  0  0  0  0  0  0
   -0.5029   -2.5436    2.8691 C   0  0  0  0  0  0  0  0  0  0  0  0
    0.6553   -1.8830    3.2988 C   0  0  0  0  0  0  0  0  0  0  0  0
    1.1133   -0.7355    2.6367 C   0  0  0  0  0  0  0  0  0  0  0  0
    0.3970   -0.2595    1.5404 C   0  0  0  0  0  0  0  0  0  0  0  0
    0.6882    0.9716    0.6486 C   0  0  2  0  0  0  0  0  0  0  0  0
    0.6105    2.2588    1.4997 C   0  0  0  0  0  0  0  0  0  0  0  0
   -0.6353    2.8576    1.7468 C   0  0  0  0  0  0  0  0  0  0  0  0
   -0.7985    3.9762    2.5794 C   0  0  0  0  0  0  0  0  0  0  0  0
   -2.1437    4.5611    2.8189 C   0  0  0  0  0  0  0  0  0  0  0  0
   -3.2898    3.7479    2.9075 C   0  0  0  0  0  0  0  0  0  0  0  0
   -4.5536    4.2951    3.1243 C   0  0  0  0  0  0  0  0  0  0  0  0
   -4.7093    5.6805    3.2790 C   0  0  0  0  0  0  0  0  0  0  0  0
   -5.9935    6.2406    3.5092 N   0  0  0  0  0  0  0  0  0  0  0  0
   -6.8492    5.9170    4.5670 C   0  0  0  0  0  0  0  0  0  0  0  0
   -6.6535    5.0286    5.6323 C   0  0  0  0  0  0  0  0  0  0  0  0
   -7.6749    4.9070    6.5755 C   0  0  0  0  0  0  0  0  0  0  0  0
   -8.8644    5.6525    6.4701 C   0  0  0  0  0  0  0  0  0  0  0  0
   -9.0500    6.5447    5.4150 C   0  0  0  0  0  0  0  0  0  0  0  0
   -8.0391    6.6866    4.4532 C   0  0  0  0  0  0  0  0  0  0  0  0
   -7.8919    7.5107    3.2693 C   0  0  0  0  0  0  0  0  0  0  0  0
   -8.7167    8.4513    2.6353 C   0  0  0  0  0  0  0  0  0  0  0  0
   -8.2711    9.0689    1.4675 C   0  0  0  0  0  0  0  0  0  0  0  0
   -7.0122    8.7489    0.9248 C   0  0  0  0  0  0  0  0  0  0  0  0
   -6.1717    7.8173    1.5355 C   0  0  0  0  0  0  0  0  0  0  0  0
   -6.6179    7.2082    2.7156 C   0  0  0  0  0  0  0  0  0  0  0  0
   -3.5762    6.5038    3.2029 C   0  0  0  0  0  0  0  0  0  0  0  0
   -2.3183    5.9503    2.9678 C   0  0  0  0  0  0  0  0  0  0  0  0
    0.3524    4.5225    3.1763 C   0  0  0  0  0  0  0  0  0  0  0  0
    1.6005    3.9604    2.9412 C   0  0  0  0  0  0  0  0  0  0  0  0
    1.7380    2.8306    2.1167 C   0  0  0  0  0  0  0  0  0  0  0  0
    3.3759    2.1781    1.9560 S   0  0  0  0  0  0  0  0  0  0  0  0
    3.2549    1.2620    0.4459 C   0  0  0  0  0  0  0  0  0  0  0  0
    4.4662    0.9969   -0.2155 C   0  0  0  0  0  0  0  0  0  0  0  0
    4.4905    0.2436   -1.3821 C   0  0  0  0  0  0  0  0  0  0  0  0
    3.2960   -0.2577   -1.9310 C   0  0  0  0  0  0  0  0  0  0  0  0
    3.2998   -1.0671   -3.1775 C   0  0  0  0  0  0  0  0  0  0  0  0
    2.3991   -2.1341   -3.3596 C   0  0  0  0  0  0  0  0  0  0  0  0
    2.3960   -2.8899   -4.5310 C   0  0  0  0  0  0  0  0  0  0  0  0
    3.3121   -2.6125   -5.5563 C   0  0  0  0  0  0  0  0  0  0  0  0
    3.3183   -3.3863   -6.7467 N   0  0  0  0  0  0  0  0  0  0  0  0
    3.1529   -2.8921   -8.0445 C   0  0  0  0  0  0  0  0  0  0  0  0
    2.9174   -1.5801   -8.4758 C   0  0  0  0  0  0  0  0  0  0  0  0
    2.7681   -1.3615   -9.8460 C   0  0  0  0  0  0  0  0  0  0  0  0
    2.8455   -2.4196  -10.7713 C   0  0  0  0  0  0  0  0  0  0  0  0
    3.0676   -3.7256  -10.3368 C   0  0  0  0  0  0  0  0  0  0  0  0
    3.2209   -3.9735   -8.9649 C   0  0  0  0  0  0  0  0  0  0  0  0
    3.4395   -5.1746   -8.1827 C   0  0  0  0  0  0  0  0  0  0  0  0
    3.6035   -6.5281   -8.5115 C   0  0  0  0  0  0  0  0  0  0  0  0
    3.8219   -7.4539   -7.4922 C   0  0  0  0  0  0  0  0  0  0  0  0
    3.8849   -7.0373   -6.1490 C   0  0  0  0  0  0  0  0  0  0  0  0
    3.7245   -5.6972   -5.7942 C   0  0  0  0  0  0  0  0  0  0  0  0
    3.4929   -4.7719   -6.8203 C   0  0  0  0  0  0  0  0  0  0  0  0
    4.2223   -1.5588   -5.3868 C   0  0  0  0  0  0  0  0  0  0  0  0
    4.2069   -0.7961   -4.2197 C   0  0  0  0  0  0  0  0  0  0  0  0
    2.0964    0.0329   -1.2621 C   0  0  0  0  0  0  0  0  0  0  0  0
    2.0400    0.7805   -0.0748 C   0  0  0  0  0  0  0  0  0  0  0  0
   -3.6131    0.2062   -2.5320 H   0  0  0  0  0  0  0  0  0  0  0  0
   -2.1444    2.1491   -3.0267 H   0  0  0  0  0  0  0  0  0  0  0  0
   -0.1307    2.5991   -1.6245 H   0  0  0  0  0  0  0  0  0  0  0  0
   -3.0930   -1.3174   -0.6298 H   0  0  0  0  0  0  0  0  0  0  0  0
   -2.1272   -2.5852    1.4355 H   0  0  0  0  0  0  0  0  0  0  0  0
   -0.8454   -3.4370    3.3972 H   0  0  0  0  0  0  0  0  0  0  0  0
    1.2092   -2.2652    4.1600 H   0  0  0  0  0  0  0  0  0  0  0  0
    2.0170   -0.2264    2.9779 H   0  0  0  0  0  0  0  0  0  0  0  0
   -1.5165    2.4386    1.2616 H   0  0  0  0  0  0  0  0  0  0  0  0
   -3.1915    2.6641    2.8159 H   0  0  0  0  0  0  0  0  0  0  0  0
   -5.4306    3.6468    3.1753 H   0  0  0  0  0  0  0  0  0  0  0  0
   -5.7321    4.4520    5.7278 H   0  0  0  0  0  0  0  0  0  0  0  0
   -7.5443    4.2191    7.4149 H   0  0  0  0  0  0  0  0  0  0  0  0
   -9.6449    5.5323    7.2251 H   0  0  0  0  0  0  0  0  0  0  0  0
   -9.9702    7.1297    5.3393 H   0  0  0  0  0  0  0  0  0  0  0  0
   -9.6982    8.6938    3.0506 H   0  0  0  0  0  0  0  0  0  0  0  0
   -8.9041    9.8041    0.9649 H   0  0  0  0  0  0  0  0  0  0  0  0
   -6.6842    9.2373    0.0036 H   0  0  0  0  0  0  0  0  0  0  0  0
   -5.2012    7.5705    1.1022 H   0  0  0  0  0  0  0  0  0  0  0  0
   -3.6866    7.5826    3.3291 H   0  0  0  0  0  0  0  0  0  0  0  0
   -1.4555    6.6151    2.8871 H   0  0  0  0  0  0  0  0  0  0  0  0
    0.2707    5.3841    3.8423 H   0  0  0  0  0  0  0  0  0  0  0  0
    2.4902    4.3958    3.4030 H   0  0  0  0  0  0  0  0  0  0  0  0
    5.3981    1.3888    0.1999 H   0  0  0  0  0  0  0  0  0  0  0  0
    5.4483    0.0304   -1.8613 H   0  0  0  0  0  0  0  0  0  0  0  0
    1.6929   -2.3864   -2.5657 H   0  0  0  0  0  0  0  0  0  0  0  0
    1.6793   -3.7039   -4.6567 H   0  0  0  0  0  0  0  0  0  0  0  0
    2.8475   -0.7542   -7.7664 H   0  0  0  0  0  0  0  0  0  0  0  0
    2.5846   -0.3456  -10.2054 H   0  0  0  0  0  0  0  0  0  0  0  0
    2.7256   -2.2136  -11.8375 H   0  0  0  0  0  0  0  0  0  0  0  0
    3.1183   -4.5476  -11.0554 H   0  0  0  0  0  0  0  0  0  0  0  0
    3.5639   -6.8515   -9.5548 H   0  0  0  0  0  0  0  0  0  0  0  0
    3.9503   -8.5113   -7.7356 H   0  0  0  0  0  0  0  0  0  0  0  0
    4.0659   -7.7769   -5.3648 H   0  0  0  0  0  0  0  0  0  0  0  0
    3.7831   -5.3837   -4.7507 H   0  0  0  0  0  0  0  0  0  0  0  0
    4.9437   -1.3396   -6.1764 H   0  0  0  0  0  0  0  0  0  0  0  0
    4.9086    0.0352   -4.1227 H   0  0  0  0  0  0  0  0  0  0  0  0
    1.1624   -0.3316   -1.6892 H   0  0  0  0  0  0  0  0  0  0  0  0
  1  2  2  0
  1  6  1  0
  1 65  1  0
  2  3  1  0
  2 66  1  0
  3  4  2  0
  3 67  1  0
  4  5  1  0
 13  4  1  6
  5  6  2  0
  5  7  1  0
  6 68  1  0
  7  8  2  0
  7 12  1  0
  8  9  1  0
  8 69  1  0
  9 10  2  0
  9 70  1  0
 10 11  1  0
 10 71  1  0
 11 12  2  0
 11 72  1  0
 12 13  1  0
 13 14  1  0
 13 64  1  0
 14 15  2  0
 14 38  1  0
 15 16  1  0
 15 73  1  0
 16 17  1  0
 16 36  2  0
 17 18  2  0
 17 35  1  0
 18 19  1  0
 18 74  1  0
 19 20  2  0
 19 75  1  0
 20 21  1  0
 20 34  1  0
 21 22  1  0
 21 33  1  0
 22 23  2  0
 22 27  1  0
 23 24  1  0
 23 76  1  0
 24 25  2  0
 24 77  1  0
 25 26  1  0
 25 78  1  0
 26 27  2  0
 26 79  1  0
 27 28  1  0
 28 29  1  0
 28 33  2  0
 29 30  2  0
 29 80  1  0
 30 31  1  0
 30 81  1  0
 31 32  2  0
 31 82  1  0
 32 33  1  0
 32 83  1  0
 34 35  2  0
 34 84  1  0
 35 85  1  0
 36 37  1  0
 36 86  1  0
 37 38  2  0
 37 87  1  0
 38 39  1  0
 39 40  1  0
 40 41  2  0
 40 64  1  0
 41 42  1  0
 41 88  1  0
 42 43  2  0
 42 89  1  0
 43 44  1  0
 43 63  1  0
 44 45  2  0
 44 62  1  0
 45 46  1  0
 45 90  1  0
 46 47  2  0
 46 91  1  0
 47 48  1  0
 47 61  1  0
 48 49  1  0
 48 60  1  0
 49 50  2  0
 49 54  1  0
 50 51  1  0
 50 92  1  0
 51 52  2  0
 51 93  1  0
 52 53  1  0
 52 94  1  0
 53 54  2  0
 53 95  1  0
 54 55  1  0
 55 56  1  0
 55 60  2  0
 56 57  2  0
 56 96  1  0
 57 58  1  0
 57 97  1  0
 58 59  2  0
 58 98  1  0
 59 60  1  0
 59 99  1  0
 61 62  2  0
 61100  1  0
 62101  1  0
 63 64  2  0
 63102  1  0
M  END

