
     RDKit          3D

 53 56  0  0  0  0  0  0  0  0999 V2000
    0.8250    0.0448    0.1181 C   0  0  0  0  0  0  0  0  0  0  0  0
    2.3199    0.0359   -0.0875 C   0  0  0  0  0  0  0  0  0  0  0  0
    2.9147    0.7189   -1.1598 C   0  0  0  0  0  0  0  0  0  0  0  0
    4.2933    0.6834   -1.3732 C   0  0  0  0  0  0  0  0  0  0  0  0
    5.1291   -0.0321   -0.5017 C   0  0  0  0  0  0  0  0  0  0  0  0
    6.5410   -0.0475   -0.7031 N   0  0  0  0  0  0  0  0  0  0  0  0
    7.2047    1.1943   -0.9382 C   0  0  0  0  0  0  0  0  0  0  0  0
    6.9566    2.3014   -0.1129 C   0  0  0  0  0  0  0  0  0  0  0  0
    7.5887    3.5211   -0.3590 C   0  0  0  0  0  0  0  0  0  0  0  0
    8.4961    3.6767   -1.4184 C   0  0  0  0  0  0  0  0  0  0  0  0
    9.2098    4.9846   -1.6566 C   0  0  0  0  0  0  0  0  0  0  0  0
    8.7355    2.5606   -2.2376 C   0  0  0  0  0  0  0  0  0  0  0  0
    8.0980    1.3412   -2.0122 C   0  0  0  0  0  0  0  0  0  0  0  0
    7.2600   -1.2495   -0.6653 C   0  0  0  0  0  0  0  0  0  0  0  0
    6.6532   -2.4727   -1.0364 C   0  0  0  0  0  0  0  0  0  0  0  0
    7.3675   -3.6607   -0.9973 C   0  0  0  0  0  0  0  0  0  0  0  0
    8.7194   -3.6903   -0.5936 C   0  0  0  0  0  0  0  0  0  0  0  0
    9.4620   -4.9325   -0.5559 C   0  0  0  0  0  0  0  0  0  0  0  0
    9.1295   -6.2564   -0.8372 C   0  0  0  0  0  0  0  0  0  0  0  0
   10.2912   -7.0202   -0.6132 C   0  0  0  0  0  0  0  0  0  0  0  0
   11.2846   -6.1349   -0.2036 C   0  0  0  0  0  0  0  0  0  0  0  0
   12.6361   -6.3531    0.1530 C   0  0  0  0  0  0  0  0  0  0  0  0
   13.5807   -5.4316    0.5580 C   0  0  0  0  0  0  0  0  0  0  0  0
   13.3203   -4.0289    0.6901 C   0  0  0  0  0  0  0  0  0  0  0  0
   13.1240   -2.8891    0.8044 N   0  0  0  0  0  0  0  0  0  0  0  0
   14.9078   -5.8709    0.8732 C   0  0  0  0  0  0  0  0  0  0  0  0
   15.9819   -6.2360    1.1267 N   0  0  0  0  0  0  0  0  0  0  0  0
   10.7585   -4.8740   -0.1765 O   0  0  0  0  0  0  0  0  0  0  0  0
    9.3270   -2.4688   -0.2267 C   0  0  0  0  0  0  0  0  0  0  0  0
    8.6139   -1.2787   -0.2592 C   0  0  0  0  0  0  0  0  0  0  0  0
    4.5479   -0.7066    0.5851 C   0  0  0  0  0  0  0  0  0  0  0  0
    3.1671   -0.6762    0.7780 C   0  0  0  0  0  0  0  0  0  0  0  0
    0.3579    0.9286   -0.3422 H   0  0  0  0  0  0  0  0  0  0  0  0
    0.5637    0.0392    1.1879 H   0  0  0  0  0  0  0  0  0  0  0  0
    0.3546   -0.8463   -0.3341 H   0  0  0  0  0  0  0  0  0  0  0  0
    2.2853    1.2869   -1.8510 H   0  0  0  0  0  0  0  0  0  0  0  0
    4.7309    1.2182   -2.2185 H   0  0  0  0  0  0  0  0  0  0  0  0
    6.2613    2.2038    0.7233 H   0  0  0  0  0  0  0  0  0  0  0  0
    7.3773    4.3703    0.2971 H   0  0  0  0  0  0  0  0  0  0  0  0
    8.6560    5.8329   -1.2268 H   0  0  0  0  0  0  0  0  0  0  0  0
    9.3513    5.1785   -2.7314 H   0  0  0  0  0  0  0  0  0  0  0  0
   10.2128    4.9803   -1.1945 H   0  0  0  0  0  0  0  0  0  0  0  0
    9.4267    2.6503   -3.0807 H   0  0  0  0  0  0  0  0  0  0  0  0
    8.2905    0.4932   -2.6728 H   0  0  0  0  0  0  0  0  0  0  0  0
    5.6142   -2.4800   -1.3672 H   0  0  0  0  0  0  0  0  0  0  0  0
    6.8679   -4.5833   -1.3018 H   0  0  0  0  0  0  0  0  0  0  0  0
    8.1589   -6.6206   -1.1637 H   0  0  0  0  0  0  0  0  0  0  0  0
   10.4091   -8.0958   -0.7309 H   0  0  0  0  0  0  0  0  0  0  0  0
   12.9618   -7.3942    0.0954 H   0  0  0  0  0  0  0  0  0  0  0  0
   10.3690   -2.4592    0.1003 H   0  0  0  0  0  0  0  0  0  0  0  0
    9.1060   -0.3537    0.0427 H   0  0  0  0  0  0  0  0  0  0  0  0
    5.1859   -1.2523    1.2834 H   0  0  0  0  0  0  0  0  0  0  0  0
    2.7391   -1.2061    1.6341 H   0  0  0  0  0  0  0  0  0  0  0  0
  1  2  1  0
  1 33  1  0
  1 34  1  0
  1 35  1  0
  2  3  2  0
  2 32  1  0
  3  4  1  0
  3 36  1  0
  4  5  2  0
  4 37  1  0
  5  6  1  0
  5 31  1  0
  6  7  1  0
  6 14  1  0
  7  8  2  0
  7 13  1  0
  8  9  1  0
  8 38  1  0
  9 10  2  0
  9 39  1  0
 10 11  1  0
 10 12  1  0
 11 40  1  0
 11 41  1  0
 11 42  1  0
 12 13  2  0
 12 43  1  0
 13 44  1  0
 14 15  2  0
 14 30  1  0
 15 16  1  0
 15 45  1  0
 16 17  2  0
 16 46  1  0
 17 18  1  0
 17 29  1  0
 18 19  2  0
 18 28  1  0
 19 20  1  0
 19 47  1  0
 20 21  2  0
 20 48  1  0
 21 22  1  0
 21 28  1  0
 22 23  2  0
 22 49  1  0
 23 24  1  0
 23 26  1  0
 24 25  3  0
 26 27  3  0
 29 30  2  0
 29 50  1  0
 30 51  1  0
 31 32  2  0
 31 52  1  0
 32 53  1  0
M  END

