
     RDKit          3D

 93 97  0  0  0  0  0  0  0  0999 V2000
    1.0201   -3.5663    0.3571 C   0  0  0  0  0  0  0  0  0  0  0  0
    1.9892   -2.3883    0.3794 C   0  0  0  0  0  0  0  0  0  0  0  0
    3.4055   -2.7121    0.1674 N   0  0  0  0  0  0  0  0  0  0  0  0
    3.7908   -4.0480   -0.1490 C   0  0  0  0  0  0  0  0  0  0  0  0
    3.8462   -4.9673    0.9161 C   0  0  0  0  0  0  0  0  0  0  0  0
    4.2213   -6.2943    0.7242 C   0  0  0  0  0  0  0  0  0  0  0  0
    4.5863   -6.7187   -0.5517 C   0  0  0  0  0  0  0  0  0  0  0  0
    4.5556   -5.8249   -1.6327 C   0  0  0  0  0  0  0  0  0  0  0  0
    4.1302   -4.4853   -1.4585 C   0  0  0  0  0  0  0  0  0  0  0  0
    3.9975   -3.5641   -2.6693 C   0  0  0  0  0  0  0  0  0  0  0  0
    2.5769   -3.1341   -2.9729 C   0  0  0  0  0  0  0  0  0  0  0  0
    1.7107   -3.7396   -3.8007 C   0  0  0  0  0  0  0  0  0  0  0  0
    1.9374   -5.0028   -4.5831 C   0  0  0  0  0  0  0  0  0  0  0  0
    1.0817   -6.1879   -4.0642 C   0  0  0  0  0  0  0  0  0  0  0  0
    1.3868   -7.4783   -4.7898 C   0  0  0  0  0  0  0  0  0  0  0  0
    0.6368   -7.8210   -5.9328 C   0  0  0  0  0  0  0  0  0  0  0  0
    0.9402   -8.9736   -6.6554 C   0  0  0  0  0  0  0  0  0  0  0  0
    0.1575   -9.3895   -7.8729 C   0  0  0  0  0  0  0  0  0  0  0  0
    1.9588   -9.7748   -6.2949 N   0  0  0  0  0  0  0  0  0  0  0  0
    2.6679   -9.4581   -5.2278 C   0  0  0  0  0  0  0  0  0  0  0  0
    3.7121  -10.2450   -4.8796 O   0  0  0  0  0  0  0  0  0  0  0  0
    3.9692  -11.4020   -5.6645 C   0  0  0  0  0  0  0  0  0  0  0  0
    2.4314   -8.3301   -4.4007 C   0  0  0  0  0  0  0  0  0  0  0  0
    3.3124   -8.1110   -3.1872 C   0  0  0  0  0  0  0  0  0  0  0  0
    4.5590   -7.4229   -3.5156 N   0  0  0  0  0  0  0  0  0  0  0  0
    5.1228   -6.3112   -2.9502 C   0  0  0  0  0  0  0  0  0  0  0  0
    6.0855   -5.7593   -3.4648 O   0  0  0  0  0  0  0  0  0  0  0  0
    4.2829   -1.5704   -0.1363 C   0  0  1  0  0  0  0  0  0  0  0  0
    4.0588   -0.3908    0.8363 C   0  0  0  0  0  0  0  0  0  0  0  0
    4.4590   -0.7196    2.2798 C   0  0  0  0  0  0  0  0  0  0  0  0
    5.9175   -1.2085    2.4639 C   0  0  2  0  0  0  0  0  0  0  0  0
    6.9923   -0.1063    2.7581 C   0  0  1  0  0  0  0  0  0  0  0  0
    7.2668    0.8077    1.5430 C   0  0  0  0  0  0  0  0  0  0  0  0
    8.5624    1.6566    1.4826 C   0  0  0  0  0  0  0  0  0  0  0  0
    9.8372    1.1027    2.1463 C   0  0  0  0  0  0  0  0  0  0  0  0
   10.0859    1.5843    3.4498 O   0  0  0  0  0  0  0  0  0  0  0  0
    9.2786    1.1156    4.5087 C   0  0  0  0  0  0  0  0  0  0  0  0
    7.8278    1.6471    4.5047 C   0  0  0  0  0  0  0  0  0  0  0  0
    6.7030    0.6682    4.0783 C   0  0  2  0  0  0  0  0  0  0  0  0
    6.3756   -0.2610    5.2632 C   0  0  0  0  0  0  0  0  0  0  0  0
    6.3021   -2.2126    1.3418 C   0  0  0  0  0  0  0  0  0  0  0  0
    5.7812   -1.9238   -0.0776 C   0  0  0  0  0  0  0  0  0  0  0  0
   -0.0037   -3.1831    0.4944 H   0  0  0  0  0  0  0  0  0  0  0  0
    1.2172   -4.2879    1.1630 H   0  0  0  0  0  0  0  0  0  0  0  0
    1.0541   -4.1079   -0.5996 H   0  0  0  0  0  0  0  0  0  0  0  0
    1.8614   -1.8585    1.3416 H   0  0  0  0  0  0  0  0  0  0  0  0
    1.6614   -1.6664   -0.3992 H   0  0  0  0  0  0  0  0  0  0  0  0
    3.6027   -4.6027    1.9162 H   0  0  0  0  0  0  0  0  0  0  0  0
    4.2605   -6.9851    1.5702 H   0  0  0  0  0  0  0  0  0  0  0  0
    4.9248   -7.7451   -0.7129 H   0  0  0  0  0  0  0  0  0  0  0  0
    4.4417   -4.0610   -3.5384 H   0  0  0  0  0  0  0  0  0  0  0  0
    4.6067   -2.6614   -2.5146 H   0  0  0  0  0  0  0  0  0  0  0  0
    2.2317   -2.2264   -2.4673 H   0  0  0  0  0  0  0  0  0  0  0  0
    0.7157   -3.2885   -3.9096 H   0  0  0  0  0  0  0  0  0  0  0  0
    2.9976   -5.2917   -4.5622 H   0  0  0  0  0  0  0  0  0  0  0  0
    1.6835   -4.8345   -5.6450 H   0  0  0  0  0  0  0  0  0  0  0  0
    0.0138   -5.9440   -4.1868 H   0  0  0  0  0  0  0  0  0  0  0  0
    1.2516   -6.2977   -2.9826 H   0  0  0  0  0  0  0  0  0  0  0  0
   -0.1894   -7.1806   -6.2505 H   0  0  0  0  0  0  0  0  0  0  0  0
   -0.6489   -8.6804   -8.1069 H   0  0  0  0  0  0  0  0  0  0  0  0
   -0.2830  -10.3883   -7.7197 H   0  0  0  0  0  0  0  0  0  0  0  0
    0.8248   -9.4688   -8.7464 H   0  0  0  0  0  0  0  0  0  0  0  0
    4.8416  -11.8877   -5.2078 H   0  0  0  0  0  0  0  0  0  0  0  0
    4.1865  -11.1354   -6.7104 H   0  0  0  0  0  0  0  0  0  0  0  0
    3.1071  -12.0871   -5.6601 H   0  0  0  0  0  0  0  0  0  0  0  0
    3.5331   -9.0916   -2.7353 H   0  0  0  0  0  0  0  0  0  0  0  0
    2.7868   -7.5177   -2.4309 H   0  0  0  0  0  0  0  0  0  0  0  0
    5.0561   -7.7524   -4.3391 H   0  0  0  0  0  0  0  0  0  0  0  0
    4.0635   -1.1780   -1.1549 H   0  0  0  0  0  0  0  0  0  0  0  0
    3.0131   -0.0488    0.8086 H   0  0  0  0  0  0  0  0  0  0  0  0
    4.6516    0.4542    0.4518 H   0  0  0  0  0  0  0  0  0  0  0  0
    3.7878   -1.5179    2.6400 H   0  0  0  0  0  0  0  0  0  0  0  0
    4.2586    0.1517    2.9240 H   0  0  0  0  0  0  0  0  0  0  0  0
    5.9149   -1.8173    3.3784 H   0  0  0  0  0  0  0  0  0  0  0  0
    7.9128   -0.6918    2.9341 H   0  0  0  0  0  0  0  0  0  0  0  0
    6.4064    1.4820    1.3895 H   0  0  0  0  0  0  0  0  0  0  0  0
    7.2876    0.1555    0.6598 H   0  0  0  0  0  0  0  0  0  0  0  0
    8.4083    2.6674    1.8901 H   0  0  0  0  0  0  0  0  0  0  0  0
    8.7868    1.8128    0.4137 H   0  0  0  0  0  0  0  0  0  0  0  0
   10.7104    1.4331    1.5625 H   0  0  0  0  0  0  0  0  0  0  0  0
    9.8465   -0.0070    2.1265 H   0  0  0  0  0  0  0  0  0  0  0  0
    9.7913    1.4663    5.4176 H   0  0  0  0  0  0  0  0  0  0  0  0
    9.2948    0.0069    4.5486 H   0  0  0  0  0  0  0  0  0  0  0  0
    7.8147    2.5595    3.8918 H   0  0  0  0  0  0  0  0  0  0  0  0
    7.5840    1.9899    5.5242 H   0  0  0  0  0  0  0  0  0  0  0  0
    5.8095    1.2958    3.9043 H   0  0  0  0  0  0  0  0  0  0  0  0
    7.1846   -0.9899    5.4446 H   0  0  0  0  0  0  0  0  0  0  0  0
    5.4466   -0.8298    5.1170 H   0  0  0  0  0  0  0  0  0  0  0  0
    6.2507    0.3268    6.1866 H   0  0  0  0  0  0  0  0  0  0  0  0
    5.9155   -3.2011    1.6368 H   0  0  0  0  0  0  0  0  0  0  0  0
    7.3995   -2.3271    1.3060 H   0  0  0  0  0  0  0  0  0  0  0  0
    6.0114   -2.7881   -0.7177 H   0  0  0  0  0  0  0  0  0  0  0  0
    6.3178   -1.0738   -0.5279 H   0  0  0  0  0  0  0  0  0  0  0  0
  1  2  1  0
  1 43  1  0
  1 44  1  0
  1 45  1  0
  2  3  1  0
  2 46  1  0
  2 47  1  0
  3  4  1  0
  3 28  1  0
  4  5  2  0
  4  9  1  0
  5  6  1  0
  5 48  1  0
  6  7  2  0
  6 49  1  0
  7  8  1  0
  7 50  1  0
  8  9  2  0
  8 26  1  0
  9 10  1  0
 10 11  1  0
 10 51  1  0
 10 52  1  0
 11 12  2  0
 11 53  1  0
 12 13  1  0
 12 54  1  0
 13 14  1  0
 13 55  1  0
 13 56  1  0
 14 15  1  0
 14 57  1  0
 14 58  1  0
 15 16  2  0
 15 23  1  0
 16 17  1  0
 16 59  1  0
 17 18  1  0
 17 19  2  0
 18 60  1  0
 18 61  1  0
 18 62  1  0
 19 20  1  0
 20 21  1  0
 20 23  2  0
 21 22  1  0
 22 63  1  0
 22 64  1  0
 22 65  1  0
 23 24  1  0
 24 25  1  0
 24 66  1  0
 24 67  1  0
 25 26  1  0
 25 68  1  0
 26 27  2  0
 28 29  1  0
 28 42  1  0
 28 69  1  6
 29 30  1  0
 29 70  1  0
 29 71  1  0
 30 31  1  0
 30 72  1  0
 30 73  1  0
 31 32  1  0
 31 41  1  0
 31 74  1  1
 32 33  1  0
 32 39  1  0
 32 75  1  1
 33 34  1  0
 33 76  1  0
 33 77  1  0
 34 35  1  0
 34 78  1  0
 34 79  1  0
 35 36  1  0
 35 80  1  0
 35 81  1  0
 36 37  1  0
 37 38  1  0
 37 82  1  0
 37 83  1  0
 38 39  1  0
 38 84  1  0
 38 85  1  0
 39 40  1  0
 39 86  1  6
 40 87  1  0
 40 88  1  0
 40 89  1  0
 41 42  1  0
 41 90  1  0
 41 91  1  0
 42 92  1  0
 42 93  1  0
M  END

