
     RDKit          3D

 32 33  0  0  0  0  0  0  0  0999 V2000
    1.0695    0.2476    0.3549 O   0  0  0  0  0  0  0  0  0  0  0  0
    2.2802    0.1403    0.2323 C   0  0  0  0  0  0  0  0  0  0  0  0
    3.0302   -0.7421    0.9404 N   0  0  0  0  0  0  0  0  0  0  0  0
    2.4604   -1.6983    1.8729 C   0  0  1  0  0  0  0  0  0  0  0  0
    2.6575   -3.1744    1.4844 C   0  0  0  0  0  0  0  0  0  0  0  0
    2.2840   -3.9166    2.7742 C   0  0  0  0  0  0  0  0  0  0  0  0
    2.8042   -3.0121    3.9269 C   0  0  0  0  0  0  0  0  0  0  0  0
    3.0601   -1.6188    3.2944 C   0  0  0  0  0  0  0  0  0  0  0  0
    3.0092    1.0981   -0.7068 C   0  0  0  0  0  0  0  0  0  0  0  0
    2.3330    2.3133   -0.9114 C   0  0  0  0  0  0  0  0  0  0  0  0
    2.8640    3.2871   -1.7481 C   0  0  0  0  0  0  0  0  0  0  0  0
    1.9839    4.8311   -1.9568 S   0  0  1  0  0  0  0  0  0  0  0  0
    1.0987    5.0471   -0.8233 O   0  0  0  0  0  0  0  0  0  0  0  0
    2.9141    5.8475   -2.4273 O   0  0  0  0  0  0  0  0  0  0  0  0
    0.7403    4.3306   -3.6219 Cl  0  0  0  0  0  0  0  0  0  0  0  0
    4.0661    3.0989   -2.4350 C   0  0  0  0  0  0  0  0  0  0  0  0
    4.7354    1.8927   -2.2637 C   0  0  0  0  0  0  0  0  0  0  0  0
    4.2148    0.9073   -1.4111 C   0  0  0  0  0  0  0  0  0  0  0  0
    5.1454   -0.5780   -1.3155 Cl  0  0  0  0  0  0  0  0  0  0  0  0
    4.0272   -0.7900    0.7653 H   0  0  0  0  0  0  0  0  0  0  0  0
    1.3840   -1.4760    1.9070 H   0  0  0  0  0  0  0  0  0  0  0  0
    3.7191   -3.3474    1.2278 H   0  0  0  0  0  0  0  0  0  0  0  0
    2.0546   -3.4685    0.6116 H   0  0  0  0  0  0  0  0  0  0  0  0
    2.6923   -4.9378    2.8147 H   0  0  0  0  0  0  0  0  0  0  0  0
    1.1871   -4.0102    2.8347 H   0  0  0  0  0  0  0  0  0  0  0  0
    3.7315   -3.4164    4.3613 H   0  0  0  0  0  0  0  0  0  0  0  0
    2.0744   -2.9596    4.7490 H   0  0  0  0  0  0  0  0  0  0  0  0
    4.1436   -1.4238    3.2146 H   0  0  0  0  0  0  0  0  0  0  0  0
    2.6309   -0.7885    3.8751 H   0  0  0  0  0  0  0  0  0  0  0  0
    1.3818    2.4612   -0.3980 H   0  0  0  0  0  0  0  0  0  0  0  0
    4.4647    3.8798   -3.0844 H   0  0  0  0  0  0  0  0  0  0  0  0
    5.6709    1.6989   -2.7902 H   0  0  0  0  0  0  0  0  0  0  0  0
  1  2  2  0
  2  3  1  0
  2  9  1  0
  3  4  1  0
  3 20  1  0
  4  5  1  0
  4  8  1  0
  4 21  1  1
  5  6  1  0
  5 22  1  0
  5 23  1  0
  6  7  1  0
  6 24  1  0
  6 25  1  0
  7  8  1  0
  7 26  1  0
  7 27  1  0
  8 28  1  0
  8 29  1  0
  9 10  2  0
  9 18  1  0
 10 11  1  0
 10 30  1  0
 11 12  1  0
 11 16  2  0
 12 13  2  0
 12 14  2  0
 12 15  1  6
 16 17  1  0
 16 31  1  0
 17 18  2  0
 17 32  1  0
 18 19  1  0
M  END

