
     RDKit          3D

 38 39  0  0  0  0  0  0  0  0999 V2000
    1.4061   -0.5157   -2.0197 C   0  0  0  0  0  0  0  0  0  0  0  0
    1.9328   -0.9762   -0.6605 C   0  0  0  0  0  0  0  0  0  0  0  0
    3.0125   -1.9464   -0.7615 N   0  0  0  0  0  0  0  0  0  0  0  0
    4.3098   -1.6477   -0.4852 C   0  0  0  0  0  0  0  0  0  0  0  0
    4.6860   -0.5587   -0.0816 O   0  0  0  0  0  0  0  0  0  0  0  0
    5.3317   -2.7829   -0.7581 C   0  0  1  0  0  0  0  0  0  0  0  0
    6.5348   -2.6868    0.2116 C   0  0  0  0  0  0  0  0  0  0  0  0
    6.2558   -3.1602    1.5534 N   0  0  0  0  0  0  0  0  0  0  0  0
    5.6710   -4.4932    1.5473 C   0  0  0  0  0  0  0  0  0  0  0  0
    4.4446   -4.6186    0.6344 C   0  0  0  0  0  0  0  0  0  0  0  0
    4.7403   -4.1201   -0.7186 N   0  0  0  0  0  0  0  0  0  0  0  0
    4.6216   -4.9340   -1.8244 C   0  0  0  0  0  0  0  0  0  0  0  0
    4.8281   -4.4731   -3.1570 C   0  0  0  0  0  0  0  0  0  0  0  0
    4.6731   -5.3811   -4.1797 C   0  0  0  0  0  0  0  0  0  0  0  0
    4.3117   -6.6991   -3.8460 C   0  0  0  0  0  0  0  0  0  0  0  0
    4.1320   -7.7313   -4.9301 C   0  0  0  0  0  0  0  0  0  0  0  0
    3.7830   -8.9580   -4.4731 N   0  0  0  0  0  0  0  0  0  0  0  0
    4.2956   -7.4465   -6.1070 O   0  0  0  0  0  0  0  0  0  0  0  0
    4.1104   -7.0654   -2.5823 N   0  0  0  0  0  0  0  0  0  0  0  0
    4.2596   -6.2156   -1.5921 N   0  0  0  0  0  0  0  0  0  0  0  0
    0.5833    0.2052   -1.8888 H   0  0  0  0  0  0  0  0  0  0  0  0
    1.0183   -1.3617   -2.6113 H   0  0  0  0  0  0  0  0  0  0  0  0
    2.2004   -0.0253   -2.6038 H   0  0  0  0  0  0  0  0  0  0  0  0
    1.1139   -1.4127   -0.0629 H   0  0  0  0  0  0  0  0  0  0  0  0
    2.3367   -0.1238   -0.0959 H   0  0  0  0  0  0  0  0  0  0  0  0
    2.8060   -2.8819   -1.0933 H   0  0  0  0  0  0  0  0  0  0  0  0
    5.7183   -2.5834   -1.7671 H   0  0  0  0  0  0  0  0  0  0  0  0
    6.8622   -1.6392    0.2475 H   0  0  0  0  0  0  0  0  0  0  0  0
    7.3562   -3.2913   -0.2120 H   0  0  0  0  0  0  0  0  0  0  0  0
    5.6567   -2.4968    2.0446 H   0  0  0  0  0  0  0  0  0  0  0  0
    5.3933   -4.7790    2.5749 H   0  0  0  0  0  0  0  0  0  0  0  0
    6.4416   -5.2101    1.2105 H   0  0  0  0  0  0  0  0  0  0  0  0
    3.6144   -4.0192    1.0540 H   0  0  0  0  0  0  0  0  0  0  0  0
    4.1106   -5.6581    0.5458 H   0  0  0  0  0  0  0  0  0  0  0  0
    5.0829   -3.4368   -3.3765 H   0  0  0  0  0  0  0  0  0  0  0  0
    4.8092   -5.1178   -5.2300 H   0  0  0  0  0  0  0  0  0  0  0  0
    3.6701   -9.0984   -3.4752 H   0  0  0  0  0  0  0  0  0  0  0  0
    3.6446   -9.7099   -5.1352 H   0  0  0  0  0  0  0  0  0  0  0  0
  1  2  1  0
  1 21  1  0
  1 22  1  0
  1 23  1  0
  2  3  1  0
  2 24  1  0
  2 25  1  0
  3  4  1  0
  3 26  1  0
  4  5  2  0
  4  6  1  0
  6  7  1  0
  6 11  1  0
  6 27  1  6
  7  8  1  0
  7 28  1  0
  7 29  1  0
  8  9  1  0
  8 30  1  0
  9 10  1  0
  9 31  1  0
  9 32  1  0
 10 11  1  0
 10 33  1  0
 10 34  1  0
 11 12  1  0
 12 13  2  0
 12 20  1  0
 13 14  1  0
 13 35  1  0
 14 15  2  0
 14 36  1  0
 15 16  1  0
 15 19  1  0
 16 17  1  0
 16 18  2  0
 17 37  1  0
 17 38  1  0
 19 20  2  0
M  END

