
     RDKit          3D

 50 52  0  0  0  0  0  0  0  0999 V2000
    1.4844   -0.0825    1.5022 C   0  0  0  0  0  0  0  0  0  0  0  0
    2.8747    0.2284    1.5319 O   0  0  0  0  0  0  0  0  0  0  0  0
    3.3053    1.1105    0.6039 C   0  0  0  0  0  0  0  0  0  0  0  0
    2.5674    1.6161   -0.2099 O   0  0  0  0  0  0  0  0  0  0  0  0
    4.7695    1.3766    0.7070 C   0  0  0  0  0  0  0  0  0  0  0  0
    5.5770    0.7639    1.6741 C   0  0  0  0  0  0  0  0  0  0  0  0
    6.9443    1.0369    1.7119 C   0  0  0  0  0  0  0  0  0  0  0  0
    7.5328    1.9235    0.7981 C   0  0  0  0  0  0  0  0  0  0  0  0
    8.9172    2.2150    0.7868 N   0  0  0  0  0  0  0  0  0  0  0  0
    9.7042    2.0447    2.0063 C   0  0  0  0  0  0  0  0  0  0  0  0
   11.1100    2.4606    1.5618 C   0  0  0  0  0  0  0  0  0  0  0  0
   11.1902    1.9909    0.0864 C   0  0  0  0  0  0  0  0  0  0  0  0
    9.7348    1.6464   -0.3053 C   0  0  0  0  0  0  0  0  0  0  0  0
    6.6940    2.5860   -0.1432 C   0  0  0  0  0  0  0  0  0  0  0  0
    7.3104    3.5597   -0.9464 N   0  0  0  0  0  0  0  0  0  0  0  0
    6.8031    4.2414   -2.0110 C   0  0  0  0  0  0  0  0  0  0  0  0
    5.7010    4.1004   -2.5059 O   0  0  0  0  0  0  0  0  0  0  0  0
    7.7548    5.2801   -2.6147 C   0  0  0  0  0  0  0  0  0  0  0  0
    9.0103    5.2671   -1.9611 O   0  0  0  0  0  0  0  0  0  0  0  0
    9.9898    6.1325   -2.3285 C   0  0  0  0  0  0  0  0  0  0  0  0
    9.8746    7.0632   -3.3734 C   0  0  0  0  0  0  0  0  0  0  0  0
   10.9508    7.9081   -3.6734 C   0  0  0  0  0  0  0  0  0  0  0  0
   12.1424    7.8449   -2.9535 C   0  0  0  0  0  0  0  0  0  0  0  0
   12.2268    6.9087   -1.9202 C   0  0  0  0  0  0  0  0  0  0  0  0
   13.4808    6.8117   -1.1361 N   0  0  0  0  0  0  0  0  0  0  0  0
   14.3827    7.5805   -1.4222 O   0  0  0  0  0  0  0  0  0  0  0  0
   13.5322    5.9682   -0.2556 O   0  0  0  0  0  0  0  0  0  0  0  0
   11.1806    6.0560   -1.5916 C   0  0  0  0  0  0  0  0  0  0  0  0
    5.3292    2.2914   -0.1983 C   0  0  0  0  0  0  0  0  0  0  0  0
    1.3134   -0.8034    2.3116 H   0  0  0  0  0  0  0  0  0  0  0  0
    1.2001   -0.5220    0.5338 H   0  0  0  0  0  0  0  0  0  0  0  0
    0.8757    0.8209    1.6615 H   0  0  0  0  0  0  0  0  0  0  0  0
    5.1347    0.0649    2.3843 H   0  0  0  0  0  0  0  0  0  0  0  0
    7.5684    0.5392    2.4552 H   0  0  0  0  0  0  0  0  0  0  0  0
    9.7161    0.9884    2.3519 H   0  0  0  0  0  0  0  0  0  0  0  0
    9.2931    2.6584    2.8223 H   0  0  0  0  0  0  0  0  0  0  0  0
   11.8938    2.0200    2.1951 H   0  0  0  0  0  0  0  0  0  0  0  0
   11.2140    3.5546    1.6241 H   0  0  0  0  0  0  0  0  0  0  0  0
   11.8363    1.1077   -0.0266 H   0  0  0  0  0  0  0  0  0  0  0  0
   11.6116    2.7759   -0.5585 H   0  0  0  0  0  0  0  0  0  0  0  0
    9.5919    0.5485   -0.3596 H   0  0  0  0  0  0  0  0  0  0  0  0
    9.4370    2.0609   -1.2798 H   0  0  0  0  0  0  0  0  0  0  0  0
    8.2425    3.8238   -0.6329 H   0  0  0  0  0  0  0  0  0  0  0  0
    7.2672    6.2677   -2.5284 H   0  0  0  0  0  0  0  0  0  0  0  0
    7.8558    5.0454   -3.6889 H   0  0  0  0  0  0  0  0  0  0  0  0
    8.9573    7.1371   -3.9574 H   0  0  0  0  0  0  0  0  0  0  0  0
   10.8498    8.6281   -4.4886 H   0  0  0  0  0  0  0  0  0  0  0  0
   12.9916    8.4910   -3.1698 H   0  0  0  0  0  0  0  0  0  0  0  0
   11.2844    5.3434   -0.7753 H   0  0  0  0  0  0  0  0  0  0  0  0
    4.6929    2.7825   -0.9315 H   0  0  0  0  0  0  0  0  0  0  0  0
  1  2  1  0
  1 30  1  0
  1 31  1  0
  1 32  1  0
  2  3  1  0
  3  4  2  0
  3  5  1  0
  5  6  2  0
  5 29  1  0
  6  7  1  0
  6 33  1  0
  7  8  2  0
  7 34  1  0
  8  9  1  0
  8 14  1  0
  9 10  1  0
  9 13  1  0
 10 11  1  0
 10 35  1  0
 10 36  1  0
 11 12  1  0
 11 37  1  0
 11 38  1  0
 12 13  1  0
 12 39  1  0
 12 40  1  0
 13 41  1  0
 13 42  1  0
 14 15  1  0
 14 29  2  0
 15 16  1  0
 15 43  1  0
 16 17  2  0
 16 18  1  0
 18 19  1  0
 18 44  1  0
 18 45  1  0
 19 20  1  0
 20 21  2  0
 20 28  1  0
 21 22  1  0
 21 46  1  0
 22 23  2  0
 22 47  1  0
 23 24  1  0
 23 48  1  0
 24 25  1  0
 24 28  2  0
 25 26  2  0
 25 27  1  0
 28 49  1  0
 29 50  1  0
M  CHG  2  25   1  27  -1
M  END

