
     RDKit          3D

 32 33  0  0  0  0  0  0  0  0999 V2000
    2.1655   -0.6584    1.5979 C   0  0  0  0  0  0  0  0  0  0  0  0
    2.4314   -0.0790    0.1917 C   0  0  1  0  0  0  0  0  0  0  0  0
    1.0871    0.4349   -0.3705 C   0  0  0  0  0  0  0  0  0  0  0  0
    3.4131    1.1016    0.2924 C   0  0  0  0  0  0  0  0  0  0  0  0
    2.9992   -1.1317   -0.8292 C   0  0  2  0  0  0  0  0  0  0  0  0
    2.3071   -2.5115   -0.8313 C   0  0  0  0  0  0  0  0  0  0  0  0
    1.1113   -2.6919   -0.7588 O   0  0  0  0  0  0  0  0  0  0  0  0
    3.3270   -3.6386   -0.9550 C   0  0  1  0  0  0  0  0  0  0  0  0
    4.1777   -3.3924   -2.2220 C   0  0  0  0  0  0  0  0  0  0  0  0
    4.8515   -1.9890   -2.0881 C   0  0  0  0  0  0  0  0  0  0  0  0
    4.4635   -1.3321   -0.8343 N   0  0  0  0  0  0  0  0  0  0  0  0
    4.9326   -2.1596    0.2850 C   0  0  0  0  0  0  0  0  0  0  0  0
    4.2442   -3.5585    0.2872 C   0  0  0  0  0  0  0  0  0  0  0  0
    1.7146    0.1177    2.2373 H   0  0  0  0  0  0  0  0  0  0  0  0
    3.0839   -0.9926    2.1026 H   0  0  0  0  0  0  0  0  0  0  0  0
    1.4614   -1.5030    1.5614 H   0  0  0  0  0  0  0  0  0  0  0  0
    0.6426    1.1730    0.3169 H   0  0  0  0  0  0  0  0  0  0  0  0
    0.3753   -0.3906   -0.5070 H   0  0  0  0  0  0  0  0  0  0  0  0
    1.2300    0.9311   -1.3451 H   0  0  0  0  0  0  0  0  0  0  0  0
    2.9803    1.8961    0.9224 H   0  0  0  0  0  0  0  0  0  0  0  0
    3.6228    1.5316   -0.7000 H   0  0  0  0  0  0  0  0  0  0  0  0
    4.3776    0.8024    0.7265 H   0  0  0  0  0  0  0  0  0  0  0  0
    2.7668   -0.7056   -1.8226 H   0  0  0  0  0  0  0  0  0  0  0  0
    2.7873   -4.5950   -1.0024 H   0  0  0  0  0  0  0  0  0  0  0  0
    3.5456   -3.4510   -3.1223 H   0  0  0  0  0  0  0  0  0  0  0  0
    4.9291   -4.1945   -2.3110 H   0  0  0  0  0  0  0  0  0  0  0  0
    4.5709   -1.3350   -2.9285 H   0  0  0  0  0  0  0  0  0  0  0  0
    5.9495   -2.0748   -2.1053 H   0  0  0  0  0  0  0  0  0  0  0  0
    4.7584   -1.6277    1.2290 H   0  0  0  0  0  0  0  0  0  0  0  0
    6.0249   -2.2595    0.1860 H   0  0  0  0  0  0  0  0  0  0  0  0
    3.6538   -3.7150    1.2040 H   0  0  0  0  0  0  0  0  0  0  0  0
    4.9845   -4.3745    0.2433 H   0  0  0  0  0  0  0  0  0  0  0  0
  2  1  1  1
  1 14  1  0
  1 15  1  0
  1 16  1  0
  2  3  1  0
  2  4  1  0
  2  5  1  0
  3 17  1  0
  3 18  1  0
  3 19  1  0
  4 20  1  0
  4 21  1  0
  4 22  1  0
  5  6  1  0
  5 11  1  0
  5 23  1  6
  6  7  2  0
  6  8  1  0
  8  9  1  0
  8 13  1  0
  8 24  1  6
  9 10  1  0
  9 25  1  0
  9 26  1  0
 10 11  1  0
 10 27  1  0
 10 28  1  0
 11 12  1  0
 12 13  1  0
 12 29  1  0
 12 30  1  0
 13 31  1  0
 13 32  1  0
M  END

