
     RDKit          3D

 37 39  0  0  0  0  0  0  0  0999 V2000
   11.8852    2.9748    1.7276 C   0  0  0  0  0  0  0  0  0  0  0  0
   10.4080    2.7514    1.8892 C   0  0  0  0  0  0  0  0  0  0  0  0
    9.5739    2.1125    0.9184 C   0  0  0  0  0  0  0  0  0  0  0  0
    8.2611    2.0106    1.3079 C   0  0  0  0  0  0  0  0  0  0  0  0
    6.9580    1.2835    0.3567 S   0  0  1  0  0  0  0  0  0  0  0  0
    7.6112    0.6001   -0.7636 O   0  0  0  0  0  0  0  0  0  0  0  0
    6.0700    0.5828    1.2848 O   0  0  0  0  0  0  0  0  0  0  0  0
    6.0870    2.6303   -0.2375 N   0  0  0  0  0  0  0  0  0  0  0  0
    6.2992    3.0510   -1.6457 C   0  0  0  0  0  0  0  0  0  0  0  0
    4.9251    2.9229   -2.3664 C   0  0  1  0  0  0  0  0  0  0  0  0
    4.8680    1.8219   -3.4428 C   0  0  0  0  0  0  0  0  0  0  0  0
    4.6114    0.5319   -2.6510 C   0  0  0  0  0  0  0  0  0  0  0  0
    3.6118    0.9664   -1.5621 C   0  0  0  0  0  0  0  0  0  0  0  0
    3.9153    2.4644   -1.2619 C   0  0  1  0  0  0  0  0  0  0  0  0
    4.6450    2.7343    0.0645 C   0  0  2  0  0  0  0  0  0  0  0  0
    4.3136    4.1305    0.6392 C   0  0  0  0  0  0  0  0  0  0  0  0
    3.1937    4.5622    0.6819 O   0  0  0  0  0  0  0  0  0  0  0  0
    5.3687    4.8055    1.1137 O   0  0  0  0  0  0  0  0  0  0  0  0
    7.9857    2.6746    2.8914 S   0  0  0  0  0  0  0  0  0  0  0  0
    9.6643    3.1118    2.9964 C   0  0  0  0  0  0  0  0  0  0  0  0
   10.3088    3.9636    4.5429 Br  0  0  0  0  0  0  0  0  0  0  0  0
   12.1944    2.8097    0.6858 H   0  0  0  0  0  0  0  0  0  0  0  0
   12.4643    2.2860    2.3653 H   0  0  0  0  0  0  0  0  0  0  0  0
   12.1690    3.9986    2.0153 H   0  0  0  0  0  0  0  0  0  0  0  0
    9.9307    1.7308   -0.0391 H   0  0  0  0  0  0  0  0  0  0  0  0
    7.0778    2.4259   -2.1017 H   0  0  0  0  0  0  0  0  0  0  0  0
    6.6517    4.0948   -1.6535 H   0  0  0  0  0  0  0  0  0  0  0  0
    4.6512    3.9028   -2.7841 H   0  0  0  0  0  0  0  0  0  0  0  0
    5.7757    1.7844   -4.0666 H   0  0  0  0  0  0  0  0  0  0  0  0
    4.0204    2.0242   -4.1203 H   0  0  0  0  0  0  0  0  0  0  0  0
    5.5491    0.1766   -2.1951 H   0  0  0  0  0  0  0  0  0  0  0  0
    4.2284   -0.2877   -3.2788 H   0  0  0  0  0  0  0  0  0  0  0  0
    3.6720    0.3372   -0.6608 H   0  0  0  0  0  0  0  0  0  0  0  0
    2.5810    0.8803   -1.9417 H   0  0  0  0  0  0  0  0  0  0  0  0
    2.9912    3.0564   -1.2713 H   0  0  0  0  0  0  0  0  0  0  0  0
    4.3767    2.0095    0.8466 H   0  0  0  0  0  0  0  0  0  0  0  0
    6.1587    4.2614    0.9262 H   0  0  0  0  0  0  0  0  0  0  0  0
  1  2  1  0
  1 22  1  0
  1 23  1  0
  1 24  1  0
  2  3  1  0
  2 20  2  0
  3  4  2  0
  3 25  1  0
  5  4  1  1
  4 19  1  0
  5  6  2  0
  5  7  2  0
  5  8  1  0
  8  9  1  0
  8 15  1  0
  9 10  1  0
  9 26  1  0
  9 27  1  0
 10 11  1  0
 10 14  1  0
 10 28  1  6
 11 12  1  0
 11 29  1  0
 11 30  1  0
 12 13  1  0
 12 31  1  0
 12 32  1  0
 13 14  1  0
 13 33  1  0
 13 34  1  0
 14 15  1  0
 14 35  1  1
 15 16  1  0
 15 36  1  1
 16 17  2  0
 16 18  1  0
 18 37  1  0
 19 20  1  0
 20 21  1  0
M  END

