
     RDKit          3D

 48 50  0  0  0  0  0  0  0  0999 V2000
    1.2142   -0.0330   -0.4866 C   0  0  0  0  0  0  0  0  0  0  0  0
    2.6755   -0.3690   -0.1678 C   0  0  1  0  0  0  0  0  0  0  0  0
    2.9177   -0.9163    1.1693 N   0  0  0  0  0  0  0  0  0  0  0  0
    2.2441   -2.1611    1.5139 C   0  0  0  0  0  0  0  0  0  0  0  0
    2.8231   -2.7455    2.8086 C   0  0  0  0  0  0  0  0  0  0  0  0
    2.1801   -4.0013    3.1755 N   0  0  0  0  0  0  0  0  0  0  0  0
    2.6942   -5.1916    2.4969 C   0  0  0  0  0  0  0  0  0  0  0  0
    3.9314   -5.7709    3.1911 C   0  0  0  0  0  0  0  0  0  0  0  0
    3.6725   -6.0285    4.5603 O   0  0  0  0  0  0  0  0  0  0  0  0
    3.2586   -4.8639    5.2509 C   0  0  0  0  0  0  0  0  0  0  0  0
    2.0067   -4.2660    4.6009 C   0  0  0  0  0  0  0  0  0  0  0  0
    3.2736   -1.3056   -1.2453 C   0  0  0  0  0  0  0  0  0  0  0  0
    2.5409   -1.8064   -2.0811 O   0  0  0  0  0  0  0  0  0  0  0  0
    4.7488   -1.5531   -1.2761 C   0  0  0  0  0  0  0  0  0  0  0  0
    5.6536   -1.0309   -0.3334 C   0  0  0  0  0  0  0  0  0  0  0  0
    7.0176   -1.2854   -0.4658 C   0  0  0  0  0  0  0  0  0  0  0  0
    7.5023   -2.0544   -1.5269 C   0  0  0  0  0  0  0  0  0  0  0  0
    6.6078   -2.5892   -2.4905 C   0  0  0  0  0  0  0  0  0  0  0  0
    5.2442   -2.3267   -2.3413 C   0  0  0  0  0  0  0  0  0  0  0  0
    7.1174   -3.3657   -3.5312 N   0  0  0  0  0  0  0  0  0  0  0  0
    8.5296   -3.2325   -3.8186 C   0  0  0  0  0  0  0  0  0  0  0  0
    9.2828   -3.2842   -2.4950 C   0  0  0  0  0  0  0  0  0  0  0  0
    8.8480   -2.2540   -1.6162 O   0  0  0  0  0  0  0  0  0  0  0  0
    0.8030    0.6326    0.2900 H   0  0  0  0  0  0  0  0  0  0  0  0
    0.5951   -0.9395   -0.5414 H   0  0  0  0  0  0  0  0  0  0  0  0
    1.1293    0.4753   -1.4588 H   0  0  0  0  0  0  0  0  0  0  0  0
    3.2652    0.5644   -0.2224 H   0  0  0  0  0  0  0  0  0  0  0  0
    2.7223   -0.2020    1.8695 H   0  0  0  0  0  0  0  0  0  0  0  0
    2.3987   -2.8767    0.6891 H   0  0  0  0  0  0  0  0  0  0  0  0
    1.1455   -2.0700    1.6362 H   0  0  0  0  0  0  0  0  0  0  0  0
    2.6507   -2.0214    3.6239 H   0  0  0  0  0  0  0  0  0  0  0  0
    3.9247   -2.8160    2.6943 H   0  0  0  0  0  0  0  0  0  0  0  0
    2.9210   -4.9559    1.4451 H   0  0  0  0  0  0  0  0  0  0  0  0
    1.9029   -5.9636    2.4928 H   0  0  0  0  0  0  0  0  0  0  0  0
    4.7899   -5.0732    3.0912 H   0  0  0  0  0  0  0  0  0  0  0  0
    4.2252   -6.7299    2.7354 H   0  0  0  0  0  0  0  0  0  0  0  0
    4.0790   -4.1141    5.2646 H   0  0  0  0  0  0  0  0  0  0  0  0
    3.0591   -5.1634    6.2926 H   0  0  0  0  0  0  0  0  0  0  0  0
    1.7062   -3.3395    5.1168 H   0  0  0  0  0  0  0  0  0  0  0  0
    1.1802   -4.9911    4.7217 H   0  0  0  0  0  0  0  0  0  0  0  0
    5.2860   -0.4671    0.5224 H   0  0  0  0  0  0  0  0  0  0  0  0
    7.7408   -0.8983    0.2552 H   0  0  0  0  0  0  0  0  0  0  0  0
    4.5274   -2.7161   -3.0683 H   0  0  0  0  0  0  0  0  0  0  0  0
    6.5008   -3.4810   -4.3272 H   0  0  0  0  0  0  0  0  0  0  0  0
    8.7816   -2.2843   -4.3389 H   0  0  0  0  0  0  0  0  0  0  0  0
    8.8611   -4.0637   -4.4617 H   0  0  0  0  0  0  0  0  0  0  0  0
   10.3609   -3.1286   -2.6435 H   0  0  0  0  0  0  0  0  0  0  0  0
    9.1299   -4.2694   -2.0178 H   0  0  0  0  0  0  0  0  0  0  0  0
  1  2  1  0
  1 24  1  0
  1 25  1  0
  1 26  1  0
  2  3  1  0
  2 12  1  0
  2 27  1  1
  3  4  1  0
  3 28  1  0
  4  5  1  0
  4 29  1  0
  4 30  1  0
  5  6  1  0
  5 31  1  0
  5 32  1  0
  6  7  1  0
  6 11  1  0
  7  8  1  0
  7 33  1  0
  7 34  1  0
  8  9  1  0
  8 35  1  0
  8 36  1  0
  9 10  1  0
 10 11  1  0
 10 37  1  0
 10 38  1  0
 11 39  1  0
 11 40  1  0
 12 13  2  0
 12 14  1  0
 14 15  2  0
 14 19  1  0
 15 16  1  0
 15 41  1  0
 16 17  2  0
 16 42  1  0
 17 18  1  0
 17 23  1  0
 18 19  2  0
 18 20  1  0
 19 43  1  0
 20 21  1  0
 20 44  1  0
 21 22  1  0
 21 45  1  0
 21 46  1  0
 22 23  1  0
 22 47  1  0
 22 48  1  0
M  END

