
     RDKit          3D

 38 43  0  0  0  0  0  0  0  0999 V2000
    2.8831   -0.9230   -0.0699 C   0  0  0  0  0  0  0  0  0  0  0  0
    2.3720    0.3356   -0.4953 C   0  0  0  0  0  0  0  0  0  0  0  0
    2.7749    1.4774    0.1745 C   0  0  0  0  0  0  0  0  0  0  0  0
    3.6787    1.3541    1.2565 C   0  0  0  0  0  0  0  0  0  0  0  0
    3.9665    2.6234    1.8373 C   0  0  0  0  0  0  0  0  0  0  0  0
    4.7141    2.6119    3.0080 C   0  0  0  0  0  0  0  0  0  0  0  0
    5.2075    1.3774    3.5198 C   0  0  0  0  0  0  0  0  0  0  0  0
    4.9665    0.1616    2.9024 C   0  0  0  0  0  0  0  0  0  0  0  0
    4.1569    0.1190    1.7309 C   0  0  0  0  0  0  0  0  0  0  0  0
    3.7431   -1.0414    1.0114 C   0  0  0  0  0  0  0  0  0  0  0  0
    3.2201    3.6357    1.0271 C   0  0  0  0  0  0  0  0  0  0  0  0
    2.4487    2.9070    0.0754 C   0  0  0  0  0  0  0  0  0  0  0  0
    1.4790    3.5269   -0.7248 C   0  0  0  0  0  0  0  0  0  0  0  0
    1.2283    4.8737   -0.5372 C   0  0  0  0  0  0  0  0  0  0  0  0
    2.0016    5.6448    0.3642 C   0  0  0  0  0  0  0  0  0  0  0  0
    1.6671    7.0273    0.5723 C   0  0  0  0  0  0  0  0  0  0  0  0
    2.3933    7.8190    1.4082 C   0  0  0  0  0  0  0  0  0  0  0  0
    3.6026    7.3279    2.0064 C   0  0  0  0  0  0  0  0  0  0  0  0
    4.4526    8.2007    2.7289 C   0  0  0  0  0  0  0  0  0  0  0  0
    5.6960    7.7865    3.1727 C   0  0  0  0  0  0  0  0  0  0  0  0
    6.1369    6.4842    2.8692 C   0  0  0  0  0  0  0  0  0  0  0  0
    5.3047    5.6029    2.1953 C   0  0  0  0  0  0  0  0  0  0  0  0
    3.9957    5.9676    1.7961 C   0  0  0  0  0  0  0  0  0  0  0  0
    3.0959    5.0565    1.0888 C   0  0  0  0  0  0  0  0  0  0  0  0
    2.5718   -1.8236   -0.6055 H   0  0  0  0  0  0  0  0  0  0  0  0
    1.6707    0.3774   -1.3329 H   0  0  0  0  0  0  0  0  0  0  0  0
    4.9277    3.5222    3.5666 H   0  0  0  0  0  0  0  0  0  0  0  0
    5.8006    1.4017    4.4378 H   0  0  0  0  0  0  0  0  0  0  0  0
    5.3714   -0.7628    3.3228 H   0  0  0  0  0  0  0  0  0  0  0  0
    4.0972   -2.0272    1.3251 H   0  0  0  0  0  0  0  0  0  0  0  0
    0.8950    2.9439   -1.4409 H   0  0  0  0  0  0  0  0  0  0  0  0
    0.4247    5.3679   -1.0893 H   0  0  0  0  0  0  0  0  0  0  0  0
    0.7923    7.4263    0.0520 H   0  0  0  0  0  0  0  0  0  0  0  0
    2.1055    8.8587    1.5845 H   0  0  0  0  0  0  0  0  0  0  0  0
    4.1195    9.2277    2.9020 H   0  0  0  0  0  0  0  0  0  0  0  0
    6.3452    8.4745    3.7200 H   0  0  0  0  0  0  0  0  0  0  0  0
    7.1448    6.1686    3.1511 H   0  0  0  0  0  0  0  0  0  0  0  0
    5.6867    4.6216    1.9239 H   0  0  0  0  0  0  0  0  0  0  0  0
  1  2  2  0
  1 10  1  0
  1 25  1  0
  2  3  1  0
  2 26  1  0
  3  4  2  0
  3 12  1  0
  4  5  1  0
  4  9  1  0
  5  6  2  0
  5 11  1  0
  6  7  1  0
  6 27  1  0
  7  8  2  0
  7 28  1  0
  8  9  1  0
  8 29  1  0
  9 10  2  0
 10 30  1  0
 11 12  2  0
 11 24  1  0
 12 13  1  0
 13 14  2  0
 13 31  1  0
 14 15  1  0
 14 32  1  0
 15 16  1  0
 15 24  2  0
 16 17  2  0
 16 33  1  0
 17 18  1  0
 17 34  1  0
 18 19  1  0
 18 23  2  0
 19 20  2  0
 19 35  1  0
 20 21  1  0
 20 36  1  0
 21 22  2  0
 21 37  1  0
 22 23  1  0
 22 38  1  0
 23 24  1  0
M  END

