
     RDKit          3D

 87 95  0  0  0  0  0  0  0  0999 V2000
    1.3120   -0.2011    0.1322 O   0  0  0  0  0  0  0  0  0  0  0  0
    2.5336   -0.1035    0.1597 C   0  0  0  0  0  0  0  0  0  0  0  0
    3.1809    1.2285    0.3000 C   0  0  0  0  0  0  0  0  0  0  0  0
    2.3402    2.3572    0.3928 C   0  0  0  0  0  0  0  0  0  0  0  0
    2.8497    3.6373    0.5253 C   0  0  0  0  0  0  0  0  0  0  0  0
    4.2475    3.8584    0.5715 C   0  0  0  0  0  0  0  0  0  0  0  0
    4.8041    5.2251    0.7149 C   0  0  0  0  0  0  0  0  0  0  0  0
    6.0022    5.4644    1.4162 C   0  0  0  0  0  0  0  0  0  0  0  0
    6.5233    6.7470    1.5579 C   0  0  0  0  0  0  0  0  0  0  0  0
    5.8718    7.8567    0.9846 C   0  0  0  0  0  0  0  0  0  0  0  0
    6.4005    9.1600    1.1189 N   0  0  0  0  0  0  0  0  0  0  0  0
    7.8068    9.3709    1.0889 C   0  0  0  0  0  0  0  0  0  0  0  0
    8.6084    8.7276    0.1285 C   0  0  0  0  0  0  0  0  0  0  0  0
    9.9883    8.9368    0.1069 C   0  0  0  0  0  0  0  0  0  0  0  0
   10.5910    9.8011    1.0267 C   0  0  0  0  0  0  0  0  0  0  0  0
    9.7962   10.4505    1.9767 C   0  0  0  0  0  0  0  0  0  0  0  0
    8.4177   10.2342    2.0161 C   0  0  0  0  0  0  0  0  0  0  0  0
    5.5314   10.2739    1.2844 C   0  0  0  0  0  0  0  0  0  0  0  0
    4.4426   10.2082    2.1725 C   0  0  0  0  0  0  0  0  0  0  0  0
    3.5915   11.3036    2.3274 C   0  0  0  0  0  0  0  0  0  0  0  0
    3.8188   12.4867    1.6167 C   0  0  0  0  0  0  0  0  0  0  0  0
    4.9063   12.5596    0.7404 C   0  0  0  0  0  0  0  0  0  0  0  0
    5.7526   11.4631    0.5669 C   0  0  0  0  0  0  0  0  0  0  0  0
    4.6769    7.6277    0.2749 C   0  0  0  0  0  0  0  0  0  0  0  0
    4.1555    6.3428    0.1543 C   0  0  0  0  0  0  0  0  0  0  0  0
    5.0893    2.7430    0.4777 C   0  0  0  0  0  0  0  0  0  0  0  0
    4.5738    1.4417    0.3457 C   0  0  0  0  0  0  0  0  0  0  0  0
    5.7700    0.1546    0.2355 S   0  0  0  0  0  0  0  0  0  0  0  0
    4.7992   -1.3053    0.0762 C   0  0  0  0  0  0  0  0  0  0  0  0
    5.5200   -2.5073   -0.0365 C   0  0  0  0  0  0  0  0  0  0  0  0
    4.8709   -3.7403   -0.1745 C   0  0  0  0  0  0  0  0  0  0  0  0
    5.6437   -5.0016   -0.2891 C   0  0  0  0  0  0  0  0  0  0  0  0
    6.8679   -5.1807    0.3839 C   0  0  0  0  0  0  0  0  0  0  0  0
    7.5982   -6.3605    0.2721 C   0  0  0  0  0  0  0  0  0  0  0  0
    7.1269   -7.4273   -0.5177 C   0  0  0  0  0  0  0  0  0  0  0  0
    7.8624   -8.6292   -0.6315 N   0  0  0  0  0  0  0  0  0  0  0  0
    8.5618   -9.1519    0.4912 C   0  0  0  0  0  0  0  0  0  0  0  0
    7.9568   -9.1864    1.7607 C   0  0  0  0  0  0  0  0  0  0  0  0
    8.6501   -9.6979    2.8590 C   0  0  0  0  0  0  0  0  0  0  0  0
    9.9473  -10.1993    2.7104 C   0  0  0  0  0  0  0  0  0  0  0  0
   10.5485  -10.1762    1.4479 C   0  0  0  0  0  0  0  0  0  0  0  0
    9.8689   -9.6509    0.3476 C   0  0  0  0  0  0  0  0  0  0  0  0
    7.9076   -9.3279   -1.8695 C   0  0  0  0  0  0  0  0  0  0  0  0
    8.1090   -8.6350   -3.0770 C   0  0  0  0  0  0  0  0  0  0  0  0
    8.1487   -9.3261   -4.2890 C   0  0  0  0  0  0  0  0  0  0  0  0
    8.0070  -10.7173   -4.3193 C   0  0  0  0  0  0  0  0  0  0  0  0
    7.8167  -11.4111   -3.1200 C   0  0  0  0  0  0  0  0  0  0  0  0
    7.7588  -10.7261   -1.9051 C   0  0  0  0  0  0  0  0  0  0  0  0
    5.9007   -7.2606   -1.1900 C   0  0  0  0  0  0  0  0  0  0  0  0
    5.1827   -6.0732   -1.0780 C   0  0  0  0  0  0  0  0  0  0  0  0
    3.4554   -3.7432   -0.2008 C   0  0  0  0  0  0  0  0  0  0  0  0
    2.7438   -2.5611   -0.0910 C   0  0  0  0  0  0  0  0  0  0  0  0
    3.3896   -1.3152    0.0499 C   0  0  0  0  0  0  0  0  0  0  0  0
    1.2645    2.1746    0.3656 H   0  0  0  0  0  0  0  0  0  0  0  0
    2.1650    4.4818    0.6233 H   0  0  0  0  0  0  0  0  0  0  0  0
    6.5200    4.6332    1.9005 H   0  0  0  0  0  0  0  0  0  0  0  0
    7.4402    6.8979    2.1300 H   0  0  0  0  0  0  0  0  0  0  0  0
    8.1424    8.0633   -0.6018 H   0  0  0  0  0  0  0  0  0  0  0  0
   10.5957    8.4288   -0.6468 H   0  0  0  0  0  0  0  0  0  0  0  0
   11.6704    9.9679    1.0026 H   0  0  0  0  0  0  0  0  0  0  0  0
   10.2540   11.1247    2.7053 H   0  0  0  0  0  0  0  0  0  0  0  0
    7.8042   10.7346    2.7676 H   0  0  0  0  0  0  0  0  0  0  0  0
    4.2682    9.2928    2.7413 H   0  0  0  0  0  0  0  0  0  0  0  0
    2.7503   11.2348    3.0221 H   0  0  0  0  0  0  0  0  0  0  0  0
    3.1546   13.3445    1.7454 H   0  0  0  0  0  0  0  0  0  0  0  0
    5.0931   13.4758    0.1742 H   0  0  0  0  0  0  0  0  0  0  0  0
    6.5927   11.5220   -0.1277 H   0  0  0  0  0  0  0  0  0  0  0  0
    4.1605    8.4666   -0.1945 H   0  0  0  0  0  0  0  0  0  0  0  0
    3.2411    6.2018   -0.4263 H   0  0  0  0  0  0  0  0  0  0  0  0
    6.1727    2.8823    0.4793 H   0  0  0  0  0  0  0  0  0  0  0  0
    6.6117   -2.4679   -0.0419 H   0  0  0  0  0  0  0  0  0  0  0  0
    7.2551   -4.3843    1.0235 H   0  0  0  0  0  0  0  0  0  0  0  0
    8.5438   -6.4631    0.8068 H   0  0  0  0  0  0  0  0  0  0  0  0
    6.9390   -8.8105    1.8809 H   0  0  0  0  0  0  0  0  0  0  0  0
    8.1641   -9.7170    3.8380 H   0  0  0  0  0  0  0  0  0  0  0  0
   10.4845  -10.6053    3.5708 H   0  0  0  0  0  0  0  0  0  0  0  0
   11.5640  -10.5597    1.3177 H   0  0  0  0  0  0  0  0  0  0  0  0
   10.3482   -9.6245   -0.6329 H   0  0  0  0  0  0  0  0  0  0  0  0
    8.2350   -7.5507   -3.0591 H   0  0  0  0  0  0  0  0  0  0  0  0
    8.3061   -8.7711   -5.2176 H   0  0  0  0  0  0  0  0  0  0  0  0
    8.0453  -11.2559   -5.2690 H   0  0  0  0  0  0  0  0  0  0  0  0
    7.6988  -12.4979   -3.1286 H   0  0  0  0  0  0  0  0  0  0  0  0
    7.5977  -11.2721   -0.9737 H   0  0  0  0  0  0  0  0  0  0  0  0
    5.5118   -8.0705   -1.8093 H   0  0  0  0  0  0  0  0  0  0  0  0
    4.2452   -5.9744   -1.6297 H   0  0  0  0  0  0  0  0  0  0  0  0
    2.9178   -4.6899   -0.2809 H   0  0  0  0  0  0  0  0  0  0  0  0
    1.6524   -2.5526   -0.1000 H   0  0  0  0  0  0  0  0  0  0  0  0
  1  2  2  0
  2  3  1  0
  2 53  1  0
  3  4  2  0
  3 27  1  0
  4  5  1  0
  4 54  1  0
  5  6  2  0
  5 55  1  0
  6  7  1  0
  6 26  1  0
  7  8  2  0
  7 25  1  0
  8  9  1  0
  8 56  1  0
  9 10  2  0
  9 57  1  0
 10 11  1  0
 10 24  1  0
 11 12  1  0
 11 18  1  0
 12 13  2  0
 12 17  1  0
 13 14  1  0
 13 58  1  0
 14 15  2  0
 14 59  1  0
 15 16  1  0
 15 60  1  0
 16 17  2  0
 16 61  1  0
 17 62  1  0
 18 19  2  0
 18 23  1  0
 19 20  1  0
 19 63  1  0
 20 21  2  0
 20 64  1  0
 21 22  1  0
 21 65  1  0
 22 23  2  0
 22 66  1  0
 23 67  1  0
 24 25  2  0
 24 68  1  0
 25 69  1  0
 26 27  2  0
 26 70  1  0
 27 28  1  0
 28 29  1  0
 29 30  1  0
 29 53  2  0
 30 31  2  0
 30 71  1  0
 31 32  1  0
 31 51  1  0
 32 33  2  0
 32 50  1  0
 33 34  1  0
 33 72  1  0
 34 35  2  0
 34 73  1  0
 35 36  1  0
 35 49  1  0
 36 37  1  0
 36 43  1  0
 37 38  2  0
 37 42  1  0
 38 39  1  0
 38 74  1  0
 39 40  2  0
 39 75  1  0
 40 41  1  0
 40 76  1  0
 41 42  2  0
 41 77  1  0
 42 78  1  0
 43 44  2  0
 43 48  1  0
 44 45  1  0
 44 79  1  0
 45 46  2  0
 45 80  1  0
 46 47  1  0
 46 81  1  0
 47 48  2  0
 47 82  1  0
 48 83  1  0
 49 50  2  0
 49 84  1  0
 50 85  1  0
 51 52  2  0
 51 86  1  0
 52 53  1  0
 52 87  1  0
M  END

