
     RDKit          3D

 39 41  0  0  0  0  0  0  0  0999 V2000
    3.5476   -0.7340    0.8352 C   0  0  0  0  0  0  0  0  0  0  0  0
    3.7949    0.7831    0.7793 C   0  0  1  0  0  0  0  0  0  0  0  0
    5.2445    1.1272    1.1613 C   0  0  0  0  0  0  0  0  0  0  0  0
    3.4571    1.3298   -0.5890 C   0  0  0  0  0  0  0  0  0  0  0  0
    2.4944    2.2640   -0.8695 C   0  0  0  0  0  0  0  0  0  0  0  0
    2.4475    2.5988   -2.5764 S   0  0  0  0  0  0  0  0  0  0  0  0
    3.7601    1.4302   -2.7781 C   0  0  0  0  0  0  0  0  0  0  0  0
    4.2528    1.2043   -4.0568 N   0  0  0  0  0  0  0  0  0  0  0  0
    5.1755    0.2479   -4.4393 C   0  0  0  0  0  0  0  0  0  0  0  0
    5.7304   -0.5421   -3.7132 O   0  0  0  0  0  0  0  0  0  0  0  0
    5.4672    0.2788   -5.9570 C   0  0  0  0  0  0  0  0  0  0  0  0
    4.3702   -0.2354   -6.7854 N   0  0  0  0  0  0  0  0  0  0  0  0
    4.3854   -1.5482   -7.2221 C   0  0  0  0  0  0  0  0  0  0  0  0
    3.5013   -2.0891   -7.9819 N   0  0  0  0  0  0  0  0  0  0  0  0
    2.4468   -1.3010   -8.4028 C   0  0  0  0  0  0  0  0  0  0  0  0
    1.4609   -1.8556   -9.2494 C   0  0  0  0  0  0  0  0  0  0  0  0
    0.3960   -1.0839   -9.6858 C   0  0  0  0  0  0  0  0  0  0  0  0
    0.2987    0.2583   -9.2792 C   0  0  0  0  0  0  0  0  0  0  0  0
   -0.7390    0.9823   -9.7134 F   0  0  0  0  0  0  0  0  0  0  0  0
    1.2388    0.8396   -8.4485 C   0  0  0  0  0  0  0  0  0  0  0  0
    2.3212    0.0555   -8.0088 C   0  0  0  0  0  0  0  0  0  0  0  0
    3.3291    0.6381   -7.1203 C   0  0  0  0  0  0  0  0  0  0  0  0
    3.3050    1.7848   -6.6776 O   0  0  0  0  0  0  0  0  0  0  0  0
    4.1624    0.8733   -1.6823 N   0  0  0  0  0  0  0  0  0  0  0  0
    3.7943   -1.1332    1.8324 H   0  0  0  0  0  0  0  0  0  0  0  0
    4.1728   -1.2502    0.0900 H   0  0  0  0  0  0  0  0  0  0  0  0
    2.4948   -0.9764    0.6202 H   0  0  0  0  0  0  0  0  0  0  0  0
    3.1184    1.2740    1.5002 H   0  0  0  0  0  0  0  0  0  0  0  0
    5.9453    0.6903    0.4330 H   0  0  0  0  0  0  0  0  0  0  0  0
    5.4897    0.7302    2.1598 H   0  0  0  0  0  0  0  0  0  0  0  0
    5.4070    2.2165    1.1767 H   0  0  0  0  0  0  0  0  0  0  0  0
    1.8201    2.7703   -0.1816 H   0  0  0  0  0  0  0  0  0  0  0  0
    3.8428    1.7455   -4.8244 H   0  0  0  0  0  0  0  0  0  0  0  0
    6.3495   -0.3516   -6.1143 H   0  0  0  0  0  0  0  0  0  0  0  0
    5.6827    1.3054   -6.2868 H   0  0  0  0  0  0  0  0  0  0  0  0
    5.2399   -2.1370   -6.8690 H   0  0  0  0  0  0  0  0  0  0  0  0
    1.5656   -2.9007   -9.5453 H   0  0  0  0  0  0  0  0  0  0  0  0
   -0.3761   -1.4928  -10.3408 H   0  0  0  0  0  0  0  0  0  0  0  0
    1.1517    1.8806   -8.1350 H   0  0  0  0  0  0  0  0  0  0  0  0
  1  2  1  0
  1 25  1  0
  1 26  1  0
  1 27  1  0
  2  3  1  0
  2  4  1  0
  2 28  1  1
  3 29  1  0
  3 30  1  0
  3 31  1  0
  4  5  2  0
  4 24  1  0
  5  6  1  0
  5 32  1  0
  6  7  1  0
  7  8  1  0
  7 24  2  0
  8  9  1  0
  8 33  1  0
  9 10  2  0
  9 11  1  0
 11 12  1  0
 11 34  1  0
 11 35  1  0
 12 13  1  0
 12 22  1  0
 13 14  2  0
 13 36  1  0
 14 15  1  0
 15 16  2  0
 15 21  1  0
 16 17  1  0
 16 37  1  0
 17 18  2  0
 17 38  1  0
 18 19  1  0
 18 20  1  0
 20 21  2  0
 20 39  1  0
 21 22  1  0
 22 23  2  0
M  END

