
     RDKit          3D

 50 54  0  0  0  0  0  0  0  0999 V2000
    3.3393   -3.7799   -0.1113 O   0  0  0  0  0  0  0  0  0  0  0  0
    3.1545   -2.5835    0.1009 C   0  0  0  0  0  0  0  0  0  0  0  0
    2.9512   -1.6540   -0.9030 N   0  0  0  0  0  0  0  0  0  0  0  0
    2.8660   -1.9517   -2.2596 C   0  0  0  0  0  0  0  0  0  0  0  0
    3.0721   -3.2069   -2.9045 C   0  0  0  0  0  0  0  0  0  0  0  0
    2.8580   -3.1183   -4.2134 N   0  0  0  0  0  0  0  0  0  0  0  0
    2.4970   -1.8554   -4.4272 N   0  0  0  0  0  0  0  0  0  0  0  0
    2.3888   -1.5186   -5.3762 H   0  0  0  0  0  0  0  0  0  0  0  0
    2.4953   -1.0776   -3.2926 C   0  0  0  0  0  0  0  0  0  0  0  0
    2.0682    0.3256   -3.3499 C   0  0  0  0  0  0  0  0  0  0  0  0
    0.9621    0.6865   -4.1499 C   0  0  0  0  0  0  0  0  0  0  0  0
    0.5388    2.0159   -4.2679 C   0  0  0  0  0  0  0  0  0  0  0  0
   -0.8355    2.5454   -5.2677 S   0  0  0  0  0  0  0  0  0  0  0  0
   -1.7242    1.0061   -5.6349 C   0  0  1  0  0  0  0  0  0  0  0  0
   -3.0461    1.2193   -6.4053 C   0  0  0  0  0  0  0  0  0  0  0  0
   -2.6546    0.2823   -7.4158 O   0  0  0  0  0  0  0  0  0  0  0  0
   -1.3366    0.1526   -6.8661 C   0  0  0  0  0  0  0  0  0  0  0  0
    1.2321    3.0189   -3.5657 C   0  0  0  0  0  0  0  0  0  0  0  0
    2.3270    2.6854   -2.7735 C   0  0  0  0  0  0  0  0  0  0  0  0
    2.7429    1.3565   -2.6714 C   0  0  0  0  0  0  0  0  0  0  0  0
    3.8177    1.0227   -1.8508 O   0  0  0  0  0  0  0  0  0  0  0  0
    5.0861    1.2953   -2.2760 C   0  0  1  0  0  0  0  0  0  0  0  0
    5.2961    0.8488   -3.5310 F   0  0  0  0  0  0  0  0  0  0  0  0
    5.3232    2.6332   -2.2961 F   0  0  0  0  0  0  0  0  0  0  0  0
    3.1358   -2.0588    1.4661 C   0  0  0  0  0  0  0  0  0  0  0  0
    2.9417   -0.7865    1.9260 C   0  0  0  0  0  0  0  0  0  0  0  0
    2.7335    0.3972    1.2732 N   0  0  0  0  0  0  0  0  0  0  0  0
    2.6984    1.4949    1.9898 C   0  0  0  0  0  0  0  0  0  0  0  0
    2.8523    1.5447    3.4072 C   0  0  0  0  0  0  0  0  0  0  0  0
    2.9971    0.3370    4.0649 C   0  0  0  0  0  0  0  0  0  0  0  0
    2.9972   -0.7878    3.3413 N   0  0  0  0  0  0  0  0  0  0  0  0
    3.0806   -2.1037    3.8470 N   0  0  0  0  0  0  0  0  0  0  0  0
    3.4476   -2.9377    2.6625 C   0  0  0  0  0  0  0  0  0  0  0  0
    2.8589   -0.6790   -0.6197 H   0  0  0  0  0  0  0  0  0  0  0  0
    3.3549   -4.1424   -2.4333 H   0  0  0  0  0  0  0  0  0  0  0  0
    0.4293   -0.1113   -4.6679 H   0  0  0  0  0  0  0  0  0  0  0  0
   -1.8457    0.4243   -4.7103 H   0  0  0  0  0  0  0  0  0  0  0  0
   -3.1841    2.2414   -6.8061 H   0  0  0  0  0  0  0  0  0  0  0  0
   -3.9653    0.9185   -5.8739 H   0  0  0  0  0  0  0  0  0  0  0  0
   -0.5621    0.6119   -7.5069 H   0  0  0  0  0  0  0  0  0  0  0  0
   -1.0682   -0.9001   -6.6636 H   0  0  0  0  0  0  0  0  0  0  0  0
    0.9051    4.0593   -3.6312 H   0  0  0  0  0  0  0  0  0  0  0  0
    2.8736    3.4540   -2.2262 H   0  0  0  0  0  0  0  0  0  0  0  0
    5.7865    0.8114   -1.5785 H   0  0  0  0  0  0  0  0  0  0  0  0
    2.5338    2.4290    1.4380 H   0  0  0  0  0  0  0  0  0  0  0  0
    2.8376    2.4862    3.9533 H   0  0  0  0  0  0  0  0  0  0  0  0
    3.0989    0.2227    5.1466 H   0  0  0  0  0  0  0  0  0  0  0  0
    2.1345   -2.3542    4.1478 H   0  0  0  0  0  0  0  0  0  0  0  0
    2.8773   -3.8777    2.6773 H   0  0  0  0  0  0  0  0  0  0  0  0
    4.5189   -3.2094    2.7082 H   0  0  0  0  0  0  0  0  0  0  0  0
  1  2  2  0
  2  3  1  0
  2 25  1  0
  3  4  1  0
  3 34  1  0
  4  5  1  0
  4  9  2  0
  5  6  2  0
  5 35  1  0
  6  7  1  0
  7  8  1  0
  7  9  1  0
  9 10  1  0
 10 11  2  0
 10 20  1  0
 11 12  1  0
 11 36  1  0
 12 13  1  0
 12 18  2  0
 13 14  1  0
 14 15  1  0
 14 17  1  0
 14 37  1  1
 15 16  1  0
 15 38  1  0
 15 39  1  0
 16 17  1  0
 17 40  1  0
 17 41  1  0
 18 19  1  0
 18 42  1  0
 19 20  2  0
 19 43  1  0
 20 21  1  0
 21 22  1  0
 22 23  1  0
 22 24  1  0
 22 44  1  1
 25 26  2  0
 25 33  1  0
 26 27  1  0
 26 31  1  0
 27 28  2  0
 28 29  1  0
 28 45  1  0
 29 30  2  0
 29 46  1  0
 30 31  1  0
 30 47  1  0
 31 32  1  0
 32 33  1  0
 32 48  1  0
 33 49  1  0
 33 50  1  0
M  END

