
     RDKit          3D

 53 55  0  0  0  0  0  0  0  0999 V2000
    0.6315   -0.4357   -0.7519 C   0  0  0  0  0  0  0  0  0  0  0  0
    2.0444    0.0294   -0.3656 C   0  0  1  0  0  0  0  0  0  0  0  0
    2.3561    1.3617   -1.0979 C   0  0  0  0  0  0  0  0  0  0  0  0
    1.4420    2.0622   -1.5206 O   0  0  0  0  0  0  0  0  0  0  0  0
    3.6705    1.7269   -1.2559 N   0  0  0  0  0  0  0  0  0  0  0  0
    4.7868    0.9353   -0.7457 C   0  0  0  0  0  0  0  0  0  0  0  0
    4.0004    2.9344   -2.0194 C   0  0  1  0  0  0  0  0  0  0  0  0
    3.5590    2.9000   -3.5082 C   0  0  0  0  0  0  0  0  0  0  0  0
    3.7762    4.2941   -4.1216 C   0  0  0  0  0  0  0  0  0  0  0  0
    3.9348    5.4681   -2.7041 S   0  0  2  0  0  0  0  0  0  0  0  0
    2.9610    6.5600   -2.8004 O   0  0  0  0  0  0  0  0  0  0  0  0
    5.3701    5.7456   -2.5201 O   0  0  0  0  0  0  0  0  0  0  0  0
    3.4554    4.2475   -1.4373 C   0  0  0  0  0  0  0  0  0  0  0  0
    2.3382    0.1772    1.0580 N   0  0  0  0  0  0  0  0  0  0  0  0
    1.6204    1.1930    1.8270 C   0  0  0  0  0  0  0  0  0  0  0  0
    0.3926    0.6558    2.5864 C   0  0  0  0  0  0  0  0  0  0  0  0
    0.7370   -0.5700    3.4324 C   0  0  2  0  0  0  0  0  0  0  0  0
    1.5959   -0.1048    4.4976 O   0  0  0  0  0  0  0  0  0  0  0  0
    1.6677   -0.7987    5.6505 C   0  0  0  0  0  0  0  0  0  0  0  0
    2.4961   -0.2684    6.6634 C   0  0  0  0  0  0  0  0  0  0  0  0
    2.5776   -0.9606    7.8632 C   0  0  0  0  0  0  0  0  0  0  0  0
    1.8439   -2.1467    8.0267 C   0  0  0  0  0  0  0  0  0  0  0  0
    1.0604   -2.5764    6.9597 C   0  0  0  0  0  0  0  0  0  0  0  0
    0.9742   -1.9204    5.7942 N   0  0  0  0  0  0  0  0  0  0  0  0
    1.4560   -1.6276    2.5863 C   0  0  0  0  0  0  0  0  0  0  0  0
    2.6526   -1.0188    1.8355 C   0  0  0  0  0  0  0  0  0  0  0  0
    0.5565   -0.5790   -1.8411 H   0  0  0  0  0  0  0  0  0  0  0  0
   -0.1234    0.3125   -0.4747 H   0  0  0  0  0  0  0  0  0  0  0  0
    0.3940   -1.3923   -0.2643 H   0  0  0  0  0  0  0  0  0  0  0  0
    2.7562   -0.7250   -0.7426 H   0  0  0  0  0  0  0  0  0  0  0  0
    4.4916    0.4358    0.1843 H   0  0  0  0  0  0  0  0  0  0  0  0
    5.6278    1.6039   -0.5121 H   0  0  0  0  0  0  0  0  0  0  0  0
    5.1423    0.1857   -1.4762 H   0  0  0  0  0  0  0  0  0  0  0  0
    5.0972    3.0145   -1.9963 H   0  0  0  0  0  0  0  0  0  0  0  0
    2.4937    2.6395   -3.5408 H   0  0  0  0  0  0  0  0  0  0  0  0
    4.1211    2.1286   -4.0557 H   0  0  0  0  0  0  0  0  0  0  0  0
    2.9380    4.6444   -4.7377 H   0  0  0  0  0  0  0  0  0  0  0  0
    4.7187    4.4023   -4.6750 H   0  0  0  0  0  0  0  0  0  0  0  0
    2.3614    4.2391   -1.3597 H   0  0  0  0  0  0  0  0  0  0  0  0
    3.9269    4.5585   -0.4958 H   0  0  0  0  0  0  0  0  0  0  0  0
    1.3153    2.0085    1.1552 H   0  0  0  0  0  0  0  0  0  0  0  0
    2.3173    1.6281    2.5664 H   0  0  0  0  0  0  0  0  0  0  0  0
   -0.3988    0.3675    1.8763 H   0  0  0  0  0  0  0  0  0  0  0  0
   -0.0219    1.4446    3.2352 H   0  0  0  0  0  0  0  0  0  0  0  0
   -0.1640   -1.0058    3.8875 H   0  0  0  0  0  0  0  0  0  0  0  0
    3.0397    0.6603    6.4831 H   0  0  0  0  0  0  0  0  0  0  0  0
    3.2072   -0.5810    8.6723 H   0  0  0  0  0  0  0  0  0  0  0  0
    1.8823   -2.7185    8.9557 H   0  0  0  0  0  0  0  0  0  0  0  0
    0.4707   -3.4973    7.0389 H   0  0  0  0  0  0  0  0  0  0  0  0
    0.7258   -2.0481    1.8752 H   0  0  0  0  0  0  0  0  0  0  0  0
    1.7844   -2.4555    3.2334 H   0  0  0  0  0  0  0  0  0  0  0  0
    3.1066   -1.7695    1.1688 H   0  0  0  0  0  0  0  0  0  0  0  0
    3.4227   -0.7536    2.5842 H   0  0  0  0  0  0  0  0  0  0  0  0
  1  2  1  0
  1 27  1  0
  1 28  1  0
  1 29  1  0
  2  3  1  0
  2 14  1  0
  2 30  1  6
  3  4  2  0
  3  5  1  0
  5  6  1  0
  5  7  1  0
  6 31  1  0
  6 32  1  0
  6 33  1  0
  7  8  1  0
  7 13  1  0
  7 34  1  6
  8  9  1  0
  8 35  1  0
  8 36  1  0
 10  9  1  6
  9 37  1  0
  9 38  1  0
 10 11  2  0
 10 12  2  0
 10 13  1  0
 13 39  1  0
 13 40  1  0
 14 15  1  0
 14 26  1  0
 15 16  1  0
 15 41  1  0
 15 42  1  0
 16 17  1  0
 16 43  1  0
 16 44  1  0
 17 18  1  0
 17 25  1  0
 17 45  1  1
 18 19  1  0
 19 20  2  0
 19 24  1  0
 20 21  1  0
 20 46  1  0
 21 22  2  0
 21 47  1  0
 22 23  1  0
 22 48  1  0
 23 24  2  0
 23 49  1  0
 25 26  1  0
 25 50  1  0
 25 51  1  0
 26 52  1  0
 26 53  1  0
M  END

