
     RDKit          3D

 53 55  0  0  0  0  0  0  0  0999 V2000
    7.3514    4.0117   -8.8821 C   0  0  0  0  0  0  0  0  0  0  0  0
    8.0491    3.4823   -7.6341 C   0  0  0  0  0  0  0  0  0  0  0  0
    7.6746    1.6861   -7.4274 S   0  0  0  0  0  0  0  0  0  0  0  0
    8.6177    1.3077   -5.9510 C   0  0  0  0  0  0  0  0  0  0  0  0
    7.9582    1.0951   -4.7332 C   0  0  0  0  0  0  0  0  0  0  0  0
    8.6837    0.7549   -3.5867 C   0  0  0  0  0  0  0  0  0  0  0  0
   10.0791    0.6303   -3.6260 C   0  0  0  0  0  0  0  0  0  0  0  0
   10.8741    0.2659   -2.3857 C   0  0  0  0  0  0  0  0  0  0  0  0
   11.7208   -0.9964   -2.5921 C   0  0  0  0  0  0  0  0  0  0  0  0
   12.9023   -0.9348   -2.8839 O   0  0  0  0  0  0  0  0  0  0  0  0
   11.0213   -2.1699   -2.4582 N   0  0  0  0  0  0  0  0  0  0  0  0
   11.4818   -3.4930   -2.6415 C   0  0  0  0  0  0  0  0  0  0  0  0
   12.7488   -3.8401   -2.9603 C   0  0  0  0  0  0  0  0  0  0  0  0
   13.1620   -5.2745   -3.1422 C   0  0  0  0  0  0  0  0  0  0  0  0
   12.0819   -6.3206   -2.8938 C   0  0  0  0  0  0  0  0  0  0  0  0
   12.3820   -7.6410   -3.0004 C   0  0  0  0  0  0  0  0  0  0  0  0
   11.4763   -8.8276   -2.8662 C   0  0  0  0  0  0  0  0  0  0  0  0
   13.6692   -7.9565   -3.4238 O   0  0  0  0  0  0  0  0  0  0  0  0
   14.5315   -8.6378   -2.6127 C   0  0  0  0  0  0  0  0  0  0  0  0
   15.6047   -9.2962   -3.2292 C   0  0  0  0  0  0  0  0  0  0  0  0
   16.5378   -9.9737   -2.4506 C   0  0  0  0  0  0  0  0  0  0  0  0
   16.4178  -10.0142   -1.0554 C   0  0  0  0  0  0  0  0  0  0  0  0
   17.6005  -10.8833   -0.1180 Cl  0  0  0  0  0  0  0  0  0  0  0  0
   15.3424   -9.3506   -0.4444 C   0  0  0  0  0  0  0  0  0  0  0  0
   15.1494   -9.3592    1.2863 Cl  0  0  0  0  0  0  0  0  0  0  0  0
   14.4039   -8.6602   -1.2194 C   0  0  0  0  0  0  0  0  0  0  0  0
   10.7438   -5.8457   -2.5745 C   0  0  0  0  0  0  0  0  0  0  0  0
   10.4617   -4.5286   -2.4543 C   0  0  0  0  0  0  0  0  0  0  0  0
   10.7357    0.8435   -4.8512 C   0  0  0  0  0  0  0  0  0  0  0  0
   10.0152    1.1675   -5.9998 C   0  0  0  0  0  0  0  0  0  0  0  0
    7.5665    5.0845   -9.0123 H   0  0  0  0  0  0  0  0  0  0  0  0
    6.2586    3.8914   -8.8122 H   0  0  0  0  0  0  0  0  0  0  0  0
    7.6938    3.4841   -9.7864 H   0  0  0  0  0  0  0  0  0  0  0  0
    7.7076    4.0147   -6.7327 H   0  0  0  0  0  0  0  0  0  0  0  0
    9.1404    3.6080   -7.7097 H   0  0  0  0  0  0  0  0  0  0  0  0
    6.8719    1.2000   -4.6877 H   0  0  0  0  0  0  0  0  0  0  0  0
    8.1515    0.5980   -2.6435 H   0  0  0  0  0  0  0  0  0  0  0  0
   10.1957    0.1430   -1.5263 H   0  0  0  0  0  0  0  0  0  0  0  0
   11.5881    1.0653   -2.1384 H   0  0  0  0  0  0  0  0  0  0  0  0
   10.0341   -2.0804   -2.2498 H   0  0  0  0  0  0  0  0  0  0  0  0
   13.5023   -3.0676   -3.0998 H   0  0  0  0  0  0  0  0  0  0  0  0
   14.0354   -5.4808   -2.4952 H   0  0  0  0  0  0  0  0  0  0  0  0
   13.5649   -5.4067   -4.1654 H   0  0  0  0  0  0  0  0  0  0  0  0
   10.4680   -8.5517   -2.5356 H   0  0  0  0  0  0  0  0  0  0  0  0
   11.8789   -9.5593   -2.1460 H   0  0  0  0  0  0  0  0  0  0  0  0
   11.3926   -9.3490   -3.8358 H   0  0  0  0  0  0  0  0  0  0  0  0
   15.6915   -9.2643   -4.3165 H   0  0  0  0  0  0  0  0  0  0  0  0
   17.3772  -10.4899   -2.9196 H   0  0  0  0  0  0  0  0  0  0  0  0
   13.5862   -8.1322   -0.7280 H   0  0  0  0  0  0  0  0  0  0  0  0
    9.9440   -6.5721   -2.4224 H   0  0  0  0  0  0  0  0  0  0  0  0
    9.4414   -4.2177   -2.2086 H   0  0  0  0  0  0  0  0  0  0  0  0
   11.8225    0.7355   -4.9014 H   0  0  0  0  0  0  0  0  0  0  0  0
   10.5359    1.3067   -6.9503 H   0  0  0  0  0  0  0  0  0  0  0  0
  1  2  1  0
  1 31  1  0
  1 32  1  0
  1 33  1  0
  2  3  1  0
  2 34  1  0
  2 35  1  0
  3  4  1  0
  4  5  2  0
  4 30  1  0
  5  6  1  0
  5 36  1  0
  6  7  2  0
  6 37  1  0
  7  8  1  0
  7 29  1  0
  8  9  1  0
  8 38  1  0
  8 39  1  0
  9 10  2  0
  9 11  1  0
 11 12  1  0
 11 40  1  0
 12 13  2  0
 12 28  1  0
 13 14  1  0
 13 41  1  0
 14 15  1  0
 14 42  1  0
 14 43  1  0
 15 16  2  0
 15 27  1  0
 16 17  1  0
 16 18  1  0
 17 44  1  0
 17 45  1  0
 17 46  1  0
 18 19  1  0
 19 20  2  0
 19 26  1  0
 20 21  1  0
 20 47  1  0
 21 22  2  0
 21 48  1  0
 22 23  1  0
 22 24  1  0
 24 25  1  0
 24 26  2  0
 26 49  1  0
 27 28  2  0
 27 50  1  0
 28 51  1  0
 29 30  2  0
 29 52  1  0
 30 53  1  0
M  END

