
     RDKit          3D

 38 40  0  0  0  0  0  0  0  0999 V2000
    0.4567   -1.8531    4.1661 N   0  0  0  0  0  0  0  0  0  0  0  0
    0.2064   -0.5046    3.9241 C   0  0  0  0  0  0  0  0  0  0  0  0
    0.8998    0.2909    3.1952 N   0  0  0  0  0  0  0  0  0  0  0  0
    2.1036   -0.1921    2.5412 C   0  0  0  0  0  0  0  0  0  0  0  0
    3.2831   -0.3878    3.4603 C   0  0  0  0  0  0  0  0  0  0  0  0
    4.2583    0.5414    3.6690 N   0  0  0  0  0  0  0  0  0  0  0  0
    5.0420   -0.0310    4.5599 C   0  0  0  0  0  0  0  0  0  0  0  0
    4.5747   -1.2608    4.8816 N   0  0  0  0  0  0  0  0  0  0  0  0
    5.0846   -2.2229    5.8448 C   0  0  0  0  0  0  0  0  0  0  0  0
    4.5379   -2.0541    7.2531 C   0  0  0  0  0  0  0  0  0  0  0  0
    3.1705   -1.8322    7.4824 C   0  0  0  0  0  0  0  0  0  0  0  0
    2.6893   -1.7103    8.7883 C   0  0  0  0  0  0  0  0  0  0  0  0
    3.5526   -1.8135    9.8831 C   0  0  0  0  0  0  0  0  0  0  0  0
    4.9045   -2.0370    9.6389 C   0  0  0  0  0  0  0  0  0  0  0  0
    5.7511   -2.1344   10.6737 F   0  0  0  0  0  0  0  0  0  0  0  0
    5.4095   -2.1545    8.3451 C   0  0  0  0  0  0  0  0  0  0  0  0
    3.4468   -1.4982    4.1769 N   0  0  0  0  0  0  0  0  0  0  0  0
   -0.9577   -0.0413    4.5421 N   0  0  0  0  0  0  0  0  0  0  0  0
   -1.4675    1.2554    4.2022 C   0  0  1  0  0  0  0  0  0  0  0  0
   -2.4154    1.8984    5.1807 C   0  0  0  0  0  0  0  0  0  0  0  0
   -1.0181    2.4409    5.0073 C   0  0  0  0  0  0  0  0  0  0  0  0
    1.4369   -2.1285    4.1157 H   0  0  0  0  0  0  0  0  0  0  0  0
   -0.0008   -2.2359    4.9874 H   0  0  0  0  0  0  0  0  0  0  0  0
    2.4076    0.5523    1.7905 H   0  0  0  0  0  0  0  0  0  0  0  0
    1.9291   -1.1467    2.0045 H   0  0  0  0  0  0  0  0  0  0  0  0
    5.9503    0.3869    4.9948 H   0  0  0  0  0  0  0  0  0  0  0  0
    6.1815   -2.1443    5.8551 H   0  0  0  0  0  0  0  0  0  0  0  0
    4.8314   -3.2191    5.4495 H   0  0  0  0  0  0  0  0  0  0  0  0
    2.4858   -1.7504    6.6362 H   0  0  0  0  0  0  0  0  0  0  0  0
    1.6249   -1.5316    8.9593 H   0  0  0  0  0  0  0  0  0  0  0  0
    3.1990   -1.7207   10.9115 H   0  0  0  0  0  0  0  0  0  0  0  0
    6.4810   -2.3208    8.2111 H   0  0  0  0  0  0  0  0  0  0  0  0
   -1.6759   -0.7544    4.6393 H   0  0  0  0  0  0  0  0  0  0  0  0
   -1.6372    1.4348    3.1323 H   0  0  0  0  0  0  0  0  0  0  0  0
   -2.6352    1.3502    6.1018 H   0  0  0  0  0  0  0  0  0  0  0  0
   -3.2590    2.4682    4.7811 H   0  0  0  0  0  0  0  0  0  0  0  0
   -0.2948    2.2478    5.8031 H   0  0  0  0  0  0  0  0  0  0  0  0
   -0.8798    3.3893    4.4818 H   0  0  0  0  0  0  0  0  0  0  0  0
  1  2  1  0
  1 22  1  0
  1 23  1  0
  2  3  2  0
  2 18  1  0
  3  4  1  0
  4  5  1  0
  4 24  1  0
  4 25  1  0
  5  6  1  0
  5 17  2  0
  6  7  2  0
  7  8  1  0
  7 26  1  0
  8  9  1  0
  8 17  1  0
  9 10  1  0
  9 27  1  0
  9 28  1  0
 10 11  2  0
 10 16  1  0
 11 12  1  0
 11 29  1  0
 12 13  2  0
 12 30  1  0
 13 14  1  0
 13 31  1  0
 14 15  1  0
 14 16  2  0
 16 32  1  0
 18 19  1  0
 18 33  1  0
 19 20  1  0
 19 21  1  0
 19 34  1  6
 20 21  1  0
 20 35  1  0
 20 36  1  0
 21 37  1  0
 21 38  1  0
M  END

