
     RDKit          3D

 63 68  0  0  0  0  0  0  0  0999 V2000
    8.1118   -3.0907    3.3719 N   0  0  0  0  0  0  0  0  0  0  0  0
    8.0289   -3.0380    1.9927 C   0  0  0  0  0  0  0  0  0  0  0  0
    9.1656   -3.2396    1.1812 C   0  0  0  0  0  0  0  0  0  0  0  0
    9.0353   -3.2865   -0.2054 C   0  0  0  0  0  0  0  0  0  0  0  0
    7.7850   -3.1499   -0.8190 C   0  0  0  0  0  0  0  0  0  0  0  0
    6.6502   -2.9237   -0.0277 C   0  0  0  0  0  0  0  0  0  0  0  0
    5.2913   -2.7121   -0.6713 C   0  0  0  0  0  0  0  0  0  0  0  0
    4.1788   -3.3668    0.0388 N   0  0  0  0  0  0  0  0  0  0  0  0
    3.3562   -2.5484    0.8124 C   0  0  0  0  0  0  0  0  0  0  0  0
    3.5708   -1.3513    0.8998 O   0  0  0  0  0  0  0  0  0  0  0  0
    2.1816   -3.1730    1.5588 C   0  0  1  0  0  0  0  0  0  0  0  0
    1.0647   -3.8683    0.7222 C   0  0  0  0  0  0  0  0  0  0  0  0
    0.5694   -5.0670    1.5780 C   0  0  0  0  0  0  0  0  0  0  0  0
    1.2787   -4.9403    2.9428 C   0  0  0  0  0  0  0  0  0  0  0  0
    2.5851   -4.1639    2.6849 C   0  0  1  0  0  0  0  0  0  0  0  0
    3.7335   -5.0156    2.3304 N   0  0  0  0  0  0  0  0  0  0  0  0
    4.8648   -4.9456    3.1317 C   0  0  0  0  0  0  0  0  0  0  0  0
    4.9625   -4.1538    4.0530 O   0  0  0  0  0  0  0  0  0  0  0  0
    6.0487   -5.8703    2.8029 C   0  0  0  0  0  0  0  0  0  0  0  0
    5.8046   -7.2943    2.9677 N   0  0  0  0  0  0  0  0  0  0  0  0
    5.1462   -7.8837    4.0601 C   0  0  0  0  0  0  0  0  0  0  0  0
    4.6074   -7.2879    4.9623 O   0  0  0  0  0  0  0  0  0  0  0  0
    5.2442   -9.3614    3.8402 C   0  0  0  0  0  0  0  0  0  0  0  0
    4.7563  -10.4155    4.6038 C   0  0  0  0  0  0  0  0  0  0  0  0
    5.0088  -11.7171    4.1444 C   0  0  0  0  0  0  0  0  0  0  0  0
    5.7260  -11.9401    2.9593 C   0  0  0  0  0  0  0  0  0  0  0  0
    6.2136  -10.8687    2.1956 C   0  0  0  0  0  0  0  0  0  0  0  0
    5.9578   -9.5834    2.6593 C   0  0  0  0  0  0  0  0  0  0  0  0
    6.3408   -8.2556    2.0876 C   0  0  0  0  0  0  0  0  0  0  0  0
    6.9751   -8.0137    1.0894 O   0  0  0  0  0  0  0  0  0  0  0  0
    3.7554   -5.5971    1.0231 C   0  0  0  0  0  0  0  0  0  0  0  0
    3.5034   -6.9628    0.8395 C   0  0  0  0  0  0  0  0  0  0  0  0
    3.5472   -7.5397   -0.4290 C   0  0  0  0  0  0  0  0  0  0  0  0
    3.8224   -6.7336   -1.5366 C   0  0  0  0  0  0  0  0  0  0  0  0
    4.0295   -5.3649   -1.3739 C   0  0  0  0  0  0  0  0  0  0  0  0
    3.9904   -4.7692   -0.1010 C   0  0  0  0  0  0  0  0  0  0  0  0
    6.7838   -2.8471    1.3622 C   0  0  0  0  0  0  0  0  0  0  0  0
    8.9984   -2.8841    3.8132 H   0  0  0  0  0  0  0  0  0  0  0  0
    7.2846   -2.8565    3.9095 H   0  0  0  0  0  0  0  0  0  0  0  0
   10.1446   -3.3830    1.6471 H   0  0  0  0  0  0  0  0  0  0  0  0
    9.9243   -3.4545   -0.8195 H   0  0  0  0  0  0  0  0  0  0  0  0
    7.6953   -3.2164   -1.9064 H   0  0  0  0  0  0  0  0  0  0  0  0
    5.3183   -3.0491   -1.7169 H   0  0  0  0  0  0  0  0  0  0  0  0
    5.0475   -1.6407   -0.6731 H   0  0  0  0  0  0  0  0  0  0  0  0
    1.7342   -2.3087    2.0671 H   0  0  0  0  0  0  0  0  0  0  0  0
    1.4264   -4.2078   -0.2583 H   0  0  0  0  0  0  0  0  0  0  0  0
    0.2581   -3.1476    0.5209 H   0  0  0  0  0  0  0  0  0  0  0  0
    0.8363   -6.0156    1.0899 H   0  0  0  0  0  0  0  0  0  0  0  0
   -0.5257   -5.0687    1.6892 H   0  0  0  0  0  0  0  0  0  0  0  0
    1.4679   -5.9035    3.4400 H   0  0  0  0  0  0  0  0  0  0  0  0
    0.6645   -4.3382    3.6327 H   0  0  0  0  0  0  0  0  0  0  0  0
    2.9145   -3.6197    3.5770 H   0  0  0  0  0  0  0  0  0  0  0  0
    6.8608   -5.5365    3.4643 H   0  0  0  0  0  0  0  0  0  0  0  0
    6.3799   -5.7292    1.7646 H   0  0  0  0  0  0  0  0  0  0  0  0
    4.2015  -10.2288    5.5258 H   0  0  0  0  0  0  0  0  0  0  0  0
    4.6436  -12.5725    4.7181 H   0  0  0  0  0  0  0  0  0  0  0  0
    5.9080  -12.9658    2.6288 H   0  0  0  0  0  0  0  0  0  0  0  0
    6.7750  -11.0294    1.2726 H   0  0  0  0  0  0  0  0  0  0  0  0
    3.2760   -7.5698    1.7167 H   0  0  0  0  0  0  0  0  0  0  0  0
    3.3654   -8.6095   -0.5520 H   0  0  0  0  0  0  0  0  0  0  0  0
    3.8606   -7.1682   -2.5383 H   0  0  0  0  0  0  0  0  0  0  0  0
    4.2097   -4.7422   -2.2510 H   0  0  0  0  0  0  0  0  0  0  0  0
    5.9119   -2.6304    1.9811 H   0  0  0  0  0  0  0  0  0  0  0  0
  1  2  1  0
  1 38  1  0
  1 39  1  0
  2  3  2  0
  2 37  1  0
  3  4  1  0
  3 40  1  0
  4  5  2  0
  4 41  1  0
  5  6  1  0
  5 42  1  0
  6  7  1  0
  6 37  2  0
  7  8  1  0
  7 43  1  0
  7 44  1  0
  8  9  1  0
  8 36  1  0
  9 10  2  0
  9 11  1  0
 11 12  1  0
 11 15  1  0
 11 45  1  1
 12 13  1  0
 12 46  1  0
 12 47  1  0
 13 14  1  0
 13 48  1  0
 13 49  1  0
 14 15  1  0
 14 50  1  0
 14 51  1  0
 15 16  1  0
 15 52  1  1
 16 17  1  0
 16 31  1  0
 17 18  2  0
 17 19  1  0
 19 20  1  0
 19 53  1  0
 19 54  1  0
 20 21  1  0
 20 29  1  0
 21 22  2  0
 21 23  1  0
 23 24  1  0
 23 28  2  0
 24 25  2  0
 24 55  1  0
 25 26  1  0
 25 56  1  0
 26 27  2  0
 26 57  1  0
 27 28  1  0
 27 58  1  0
 28 29  1  0
 29 30  2  0
 31 32  1  0
 31 36  2  0
 32 33  2  0
 32 59  1  0
 33 34  1  0
 33 60  1  0
 34 35  2  0
 34 61  1  0
 35 36  1  0
 35 62  1  0
 37 63  1  0
M  END

