
     RDKit          3D

 36 37  0  0  0  0  0  0  0  0999 V2000
    3.8974   -5.4706   -2.2494 N   0  0  0  0  0  0  0  0  0  0  0  0
    3.2133   -4.5417   -1.5197 C   0  0  0  0  0  0  0  0  0  0  0  0
    2.3197   -4.8945   -0.7491 O   0  0  0  0  0  0  0  0  0  0  0  0
    3.6069   -3.1087   -1.7146 C   0  0  0  0  0  0  0  0  0  0  0  0
    4.3083   -2.7188   -2.8712 C   0  0  0  0  0  0  0  0  0  0  0  0
    4.7353   -1.4094   -3.0665 C   0  0  0  0  0  0  0  0  0  0  0  0
    4.4619   -0.4565   -2.0795 C   0  0  0  0  0  0  0  0  0  0  0  0
    3.7494   -0.7978   -0.9340 C   0  0  0  0  0  0  0  0  0  0  0  0
    3.2872   -2.1175   -0.7385 C   0  0  0  0  0  0  0  0  0  0  0  0
    2.5282   -2.4684    0.3780 N   0  0  0  0  0  0  0  0  0  0  0  0
    2.2514   -1.7228    1.4974 C   0  0  0  0  0  0  0  0  0  0  0  0
    2.6490   -0.5935    1.7237 O   0  0  0  0  0  0  0  0  0  0  0  0
    1.3099   -2.4285    2.4872 C   0  0  0  0  0  0  0  0  0  0  0  0
    1.1981   -3.8528    2.3095 N   0  0  0  0  0  0  0  0  0  0  0  0
    2.2734   -4.6887    2.8277 C   0  0  0  0  0  0  0  0  0  0  0  0
    1.7583   -6.0914    2.5055 C   0  0  0  0  0  0  0  0  0  0  0  0
    0.2497   -5.9995    2.8271 C   0  0  1  0  0  0  0  0  0  0  0  0
   -0.3448   -6.6081    2.1308 H   0  0  0  0  0  0  0  0  0  0  0  0
   -0.0821   -6.4931    4.1126 O   0  0  0  0  0  0  0  0  0  0  0  0
   -0.0694   -4.4858    2.6691 C   0  0  0  0  0  0  0  0  0  0  0  0
    3.6674   -6.4422   -2.0766 H   0  0  0  0  0  0  0  0  0  0  0  0
    4.7766   -5.2593   -2.6998 H   0  0  0  0  0  0  0  0  0  0  0  0
    4.4987   -3.4572   -3.6531 H   0  0  0  0  0  0  0  0  0  0  0  0
    5.2700   -1.1340   -3.9781 H   0  0  0  0  0  0  0  0  0  0  0  0
    4.7972    0.5762   -2.2074 H   0  0  0  0  0  0  0  0  0  0  0  0
    3.5301   -0.0585   -0.1675 H   0  0  0  0  0  0  0  0  0  0  0  0
    2.1055   -3.4055    0.3474 H   0  0  0  0  0  0  0  0  0  0  0  0
    0.3198   -1.9660    2.3331 H   0  0  0  0  0  0  0  0  0  0  0  0
    1.6374   -2.1204    3.5031 H   0  0  0  0  0  0  0  0  0  0  0  0
    2.4226   -4.5479    3.9262 H   0  0  0  0  0  0  0  0  0  0  0  0
    3.2318   -4.4501    2.3401 H   0  0  0  0  0  0  0  0  0  0  0  0
    2.2343   -6.8977    3.0828 H   0  0  0  0  0  0  0  0  0  0  0  0
    1.9079   -6.2799    1.4319 H   0  0  0  0  0  0  0  0  0  0  0  0
    0.4453   -6.0140    4.7669 H   0  0  0  0  0  0  0  0  0  0  0  0
   -0.4714   -4.1251    3.6409 H   0  0  0  0  0  0  0  0  0  0  0  0
   -0.8376   -4.2824    1.9042 H   0  0  0  0  0  0  0  0  0  0  0  0
  1  2  1  0
  1 21  1  0
  1 22  1  0
  2  3  2  0
  2  4  1  0
  4  5  2  0
  4  9  1  0
  5  6  1  0
  5 23  1  0
  6  7  2  0
  6 24  1  0
  7  8  1  0
  7 25  1  0
  8  9  2  0
  8 26  1  0
  9 10  1  0
 10 11  1  0
 10 27  1  0
 11 12  2  0
 11 13  1  0
 13 14  1  0
 13 28  1  0
 13 29  1  0
 14 15  1  0
 14 20  1  0
 15 16  1  0
 15 30  1  0
 15 31  1  0
 16 17  1  0
 16 32  1  0
 16 33  1  0
 17 18  1  6
 17 19  1  0
 17 20  1  0
 19 34  1  0
 20 35  1  0
 20 36  1  0
M  END

