
     RDKit          3D

 48 48  0  0  0  0  0  0  0  0999 V2000
    5.1456   -1.6686   -1.1789 C   0  0  0  0  0  0  0  0  0  0  0  0
    4.6016   -0.9928   -2.2768 O   0  0  0  0  0  0  0  0  0  0  0  0
    5.5460   -0.2784   -3.0364 C   0  0  0  0  0  0  0  0  0  0  0  0
    4.8191    0.4092   -4.1915 C   0  0  0  0  0  0  0  0  0  0  0  0
    5.7289    1.1930   -5.0145 N   0  0  0  0  0  0  0  0  0  0  0  0
    5.7082    0.9352   -6.4293 C   0  0  0  0  0  0  0  0  0  0  0  0
    4.4765    1.4995   -7.1764 C   0  0  0  0  0  0  0  0  0  0  0  0
    3.5903    2.0667   -6.5541 O   0  0  0  0  0  0  0  0  0  0  0  0
    4.4209    1.3379   -8.5426 N   0  0  0  0  0  0  0  0  0  0  0  0
    5.3999    0.6247   -9.3379 C   0  0  0  0  0  0  0  0  0  0  0  0
    3.2564    1.8204   -9.2647 C   0  0  0  0  0  0  0  0  0  0  0  0
    5.8775    2.5715   -4.5646 C   0  0  0  0  0  0  0  0  0  0  0  0
    6.8965    3.3998   -5.3403 C   0  0  2  0  0  0  0  0  0  0  0  0
    6.5348    3.5435   -6.3780 H   0  0  0  0  0  0  0  0  0  0  0  0
    8.1469    2.7317   -5.3247 O   0  0  0  0  0  0  0  0  0  0  0  0
    7.0630    4.7955   -4.7289 C   0  0  0  0  0  0  0  0  0  0  0  0
    5.8580    5.5118   -4.8814 O   0  0  0  0  0  0  0  0  0  0  0  0
    5.7622    6.7870   -4.4165 C   0  0  0  0  0  0  0  0  0  0  0  0
    4.5233    7.4235   -4.6109 C   0  0  0  0  0  0  0  0  0  0  0  0
    4.3244    8.7298   -4.1736 C   0  0  0  0  0  0  0  0  0  0  0  0
    5.3689    9.4039   -3.5385 C   0  0  0  0  0  0  0  0  0  0  0  0
    5.1775   10.6658   -3.1162 F   0  0  0  0  0  0  0  0  0  0  0  0
    6.5998    8.7929   -3.3361 C   0  0  0  0  0  0  0  0  0  0  0  0
    6.8014    7.4780   -3.7758 C   0  0  0  0  0  0  0  0  0  0  0  0
    4.3265   -2.1878   -0.6587 H   0  0  0  0  0  0  0  0  0  0  0  0
    5.6336   -0.9762   -0.4615 H   0  0  0  0  0  0  0  0  0  0  0  0
    5.9015   -2.4223   -1.4837 H   0  0  0  0  0  0  0  0  0  0  0  0
    6.3305   -0.9532   -3.4390 H   0  0  0  0  0  0  0  0  0  0  0  0
    6.0687    0.4721   -2.4060 H   0  0  0  0  0  0  0  0  0  0  0  0
    3.9933    1.0224   -3.7841 H   0  0  0  0  0  0  0  0  0  0  0  0
    4.3362   -0.3698   -4.8017 H   0  0  0  0  0  0  0  0  0  0  0  0
    5.7413   -0.1570   -6.5861 H   0  0  0  0  0  0  0  0  0  0  0  0
    6.6380    1.3201   -6.8806 H   0  0  0  0  0  0  0  0  0  0  0  0
    6.2964    0.3824   -8.7577 H   0  0  0  0  0  0  0  0  0  0  0  0
    5.7146    1.2381  -10.2013 H   0  0  0  0  0  0  0  0  0  0  0  0
    4.9858   -0.3201   -9.7389 H   0  0  0  0  0  0  0  0  0  0  0  0
    2.5934    2.3297   -8.5560 H   0  0  0  0  0  0  0  0  0  0  0  0
    2.7089    0.9842   -9.7369 H   0  0  0  0  0  0  0  0  0  0  0  0
    3.5547    2.5252  -10.0611 H   0  0  0  0  0  0  0  0  0  0  0  0
    6.2105    2.5469   -3.5118 H   0  0  0  0  0  0  0  0  0  0  0  0
    4.9198    3.1257   -4.5963 H   0  0  0  0  0  0  0  0  0  0  0  0
    8.7556    3.2079   -5.9047 H   0  0  0  0  0  0  0  0  0  0  0  0
    7.8914    5.3187   -5.2485 H   0  0  0  0  0  0  0  0  0  0  0  0
    7.3444    4.7033   -3.6629 H   0  0  0  0  0  0  0  0  0  0  0  0
    3.7267    6.8681   -5.1096 H   0  0  0  0  0  0  0  0  0  0  0  0
    3.3678    9.2364   -4.3167 H   0  0  0  0  0  0  0  0  0  0  0  0
    7.3966    9.3459   -2.8347 H   0  0  0  0  0  0  0  0  0  0  0  0
    7.7708    7.0085   -3.6089 H   0  0  0  0  0  0  0  0  0  0  0  0
  1  2  1  0
  1 25  1  0
  1 26  1  0
  1 27  1  0
  2  3  1  0
  3  4  1  0
  3 28  1  0
  3 29  1  0
  4  5  1  0
  4 30  1  0
  4 31  1  0
  5  6  1  0
  5 12  1  0
  6  7  1  0
  6 32  1  0
  6 33  1  0
  7  8  2  0
  7  9  1  0
  9 10  1  0
  9 11  1  0
 10 34  1  0
 10 35  1  0
 10 36  1  0
 11 37  1  0
 11 38  1  0
 11 39  1  0
 12 13  1  0
 12 40  1  0
 12 41  1  0
 13 14  1  6
 13 15  1  0
 13 16  1  0
 15 42  1  0
 16 17  1  0
 16 43  1  0
 16 44  1  0
 17 18  1  0
 18 19  2  0
 18 24  1  0
 19 20  1  0
 19 45  1  0
 20 21  2  0
 20 46  1  0
 21 22  1  0
 21 23  1  0
 23 24  2  0
 23 47  1  0
 24 48  1  0
M  END

