
     RDKit          3D

 45 46  0  0  0  0  0  0  0  0999 V2000
    2.2287    0.0496    2.2676 C   0  0  0  0  0  0  0  0  0  0  0  0
    3.1575    0.0570    1.0768 C   0  0  0  0  0  0  0  0  0  0  0  0
    3.4210    1.2272    0.3560 C   0  0  0  0  0  0  0  0  0  0  0  0
    4.2936    1.2061   -0.7345 C   0  0  0  0  0  0  0  0  0  0  0  0
    4.9349    0.0299   -1.1477 C   0  0  0  0  0  0  0  0  0  0  0  0
    5.8715    0.0668   -2.3347 C   0  0  0  0  0  0  0  0  0  0  0  0
    4.6760   -1.1627   -0.4300 C   0  0  0  0  0  0  0  0  0  0  0  0
    5.3745   -2.4852   -0.7922 C   0  0  1  0  0  0  0  0  0  0  0  0
    6.6632   -2.6545    0.0269 C   0  0  0  0  0  0  0  0  0  0  0  0
    4.5667   -3.6906   -0.6615 N   0  0  0  0  0  0  0  0  0  0  0  0
    3.3774   -3.7710   -1.5068 C   0  0  0  0  0  0  0  0  0  0  0  0
    2.6136   -5.0409   -1.2743 C   0  0  0  0  0  0  0  0  0  0  0  0
    3.0612   -6.3730   -1.5241 C   0  0  0  0  0  0  0  0  0  0  0  0
    4.3737   -6.8041   -2.1025 C   0  0  0  0  0  0  0  0  0  0  0  0
    2.1325   -7.2592   -1.1814 N   0  0  0  0  0  0  0  0  0  0  0  0
    1.0918   -6.5380   -0.7176 N   0  0  0  0  0  0  0  0  0  0  0  0
   -0.0975   -7.2118   -0.2476 C   0  0  0  0  0  0  0  0  0  0  0  0
    1.3331   -5.1933   -0.7472 C   0  0  0  0  0  0  0  0  0  0  0  0
    0.3251   -4.1917   -0.2813 C   0  0  0  0  0  0  0  0  0  0  0  0
    3.7964   -1.1205    0.6584 C   0  0  0  0  0  0  0  0  0  0  0  0
    1.7446    1.0274    2.4089 H   0  0  0  0  0  0  0  0  0  0  0  0
    2.7706   -0.1913    3.1982 H   0  0  0  0  0  0  0  0  0  0  0  0
    1.4338   -0.7066    2.1559 H   0  0  0  0  0  0  0  0  0  0  0  0
    2.9397    2.1656    0.6461 H   0  0  0  0  0  0  0  0  0  0  0  0
    4.4827    2.1331   -1.2839 H   0  0  0  0  0  0  0  0  0  0  0  0
    5.9501    1.0868   -2.7384 H   0  0  0  0  0  0  0  0  0  0  0  0
    5.5262   -0.5863   -3.1541 H   0  0  0  0  0  0  0  0  0  0  0  0
    6.8905   -0.2639   -2.0734 H   0  0  0  0  0  0  0  0  0  0  0  0
    5.6605   -2.4292   -1.8556 H   0  0  0  0  0  0  0  0  0  0  0  0
    6.4284   -2.7412    1.1011 H   0  0  0  0  0  0  0  0  0  0  0  0
    7.3323   -1.7888   -0.0924 H   0  0  0  0  0  0  0  0  0  0  0  0
    7.1960   -3.5657   -0.2848 H   0  0  0  0  0  0  0  0  0  0  0  0
    4.3327   -3.8896    0.3098 H   0  0  0  0  0  0  0  0  0  0  0  0
    3.7203   -3.7273   -2.5578 H   0  0  0  0  0  0  0  0  0  0  0  0
    2.6968   -2.9028   -1.3804 H   0  0  0  0  0  0  0  0  0  0  0  0
    5.2072   -6.3023   -1.5883 H   0  0  0  0  0  0  0  0  0  0  0  0
    4.4475   -6.5398   -3.1721 H   0  0  0  0  0  0  0  0  0  0  0  0
    4.4859   -7.8938   -2.0134 H   0  0  0  0  0  0  0  0  0  0  0  0
    0.0547   -8.2860   -0.4061 H   0  0  0  0  0  0  0  0  0  0  0  0
   -0.9912   -6.8884   -0.8062 H   0  0  0  0  0  0  0  0  0  0  0  0
   -0.2709   -7.0287    0.8263 H   0  0  0  0  0  0  0  0  0  0  0  0
    0.0279   -4.3627    0.7677 H   0  0  0  0  0  0  0  0  0  0  0  0
   -0.5968   -4.2199   -0.8880 H   0  0  0  0  0  0  0  0  0  0  0  0
    0.7348   -3.1747   -0.3507 H   0  0  0  0  0  0  0  0  0  0  0  0
    3.5925   -2.0463    1.2066 H   0  0  0  0  0  0  0  0  0  0  0  0
  1  2  1  0
  1 21  1  0
  1 22  1  0
  1 23  1  0
  2  3  2  0
  2 20  1  0
  3  4  1  0
  3 24  1  0
  4  5  2  0
  4 25  1  0
  5  6  1  0
  5  7  1  0
  6 26  1  0
  6 27  1  0
  6 28  1  0
  7  8  1  0
  7 20  2  0
  8  9  1  0
  8 10  1  0
  8 29  1  6
  9 30  1  0
  9 31  1  0
  9 32  1  0
 10 11  1  0
 10 33  1  0
 11 12  1  0
 11 34  1  0
 11 35  1  0
 12 13  1  0
 12 18  2  0
 13 14  1  0
 13 15  2  0
 14 36  1  0
 14 37  1  0
 14 38  1  0
 15 16  1  0
 16 17  1  0
 16 18  1  0
 17 39  1  0
 17 40  1  0
 17 41  1  0
 18 19  1  0
 19 42  1  0
 19 43  1  0
 19 44  1  0
 20 45  1  0
M  END

