
     RDKit          3D

 35 35  0  0  0  0  0  0  0  0999 V2000
    5.2475   -2.3220   -0.3461 C   0  0  0  0  0  0  0  0  0  0  0  0
    4.4281   -1.0586   -0.2596 C   0  0  0  0  0  0  0  0  0  0  0  0
    5.0576    0.1925   -0.2334 C   0  0  0  0  0  0  0  0  0  0  0  0
    4.3365    1.3827   -0.1547 C   0  0  0  0  0  0  0  0  0  0  0  0
    2.9482    1.2921   -0.1017 C   0  0  0  0  0  0  0  0  0  0  0  0
    2.1543    2.5396   -0.0185 N   0  0  0  0  0  0  0  0  0  0  0  0
    2.7688    3.5946    0.0103 O   0  0  0  0  0  0  0  0  0  0  0  0
    0.9397    2.4389    0.0153 O   0  0  0  0  0  0  0  0  0  0  0  0
    2.2679    0.0777   -0.1229 C   0  0  0  0  0  0  0  0  0  0  0  0
    3.0090   -1.1116   -0.2036 C   0  0  0  0  0  0  0  0  0  0  0  0
    2.4008   -2.3769   -0.2349 N   0  0  0  0  0  0  0  0  0  0  0  0
    1.0427   -2.6811   -0.1861 C   0  0  0  0  0  0  0  0  0  0  0  0
    0.1556   -1.8506   -0.0817 O   0  0  0  0  0  0  0  0  0  0  0  0
    0.7741   -4.0283   -0.2703 N   0  0  0  0  0  0  0  0  0  0  0  0
   -0.5937   -4.5190   -0.1726 C   0  0  0  0  0  0  0  0  0  0  0  0
   -1.4362   -4.2990   -1.4370 C   0  0  0  0  0  0  0  0  0  0  0  0
   -0.8702   -4.9941   -2.6803 C   0  0  0  0  0  0  0  0  0  0  0  0
   -1.6932   -4.8346   -3.9542 C   0  0  0  0  0  0  0  0  0  0  0  0
   -1.9330   -5.7350   -4.7098 O   0  0  0  0  0  0  0  0  0  0  0  0
   -2.1365   -3.5835   -4.2187 O   0  0  0  0  0  0  0  0  0  0  0  0
    6.3216   -2.0947   -0.3805 H   0  0  0  0  0  0  0  0  0  0  0  0
    5.0098   -2.9066   -1.2534 H   0  0  0  0  0  0  0  0  0  0  0  0
    5.0827   -2.9812    0.5255 H   0  0  0  0  0  0  0  0  0  0  0  0
    6.1490    0.2310   -0.2767 H   0  0  0  0  0  0  0  0  0  0  0  0
    4.8206    2.3576   -0.1340 H   0  0  0  0  0  0  0  0  0  0  0  0
    1.1833    0.0543   -0.0749 H   0  0  0  0  0  0  0  0  0  0  0  0
    3.0405   -3.1586   -0.2802 H   0  0  0  0  0  0  0  0  0  0  0  0
    1.5236   -4.6991   -0.3787 H   0  0  0  0  0  0  0  0  0  0  0  0
   -1.0878   -4.0154    0.6727 H   0  0  0  0  0  0  0  0  0  0  0  0
   -0.5411   -5.5931    0.0659 H   0  0  0  0  0  0  0  0  0  0  0  0
   -1.5116   -3.2080   -1.5861 H   0  0  0  0  0  0  0  0  0  0  0  0
   -2.4585   -4.6616   -1.2352 H   0  0  0  0  0  0  0  0  0  0  0  0
   -0.7671   -6.0773   -2.5178 H   0  0  0  0  0  0  0  0  0  0  0  0
    0.1422   -4.6033   -2.8915 H   0  0  0  0  0  0  0  0  0  0  0  0
   -1.8757   -2.9685   -3.5178 H   0  0  0  0  0  0  0  0  0  0  0  0
  1  2  1  0
  1 21  1  0
  1 22  1  0
  1 23  1  0
  2  3  2  0
  2 10  1  0
  3  4  1  0
  3 24  1  0
  4  5  2  0
  4 25  1  0
  5  6  1  0
  5  9  1  0
  6  7  2  0
  6  8  1  0
  9 10  2  0
  9 26  1  0
 10 11  1  0
 11 12  1  0
 11 27  1  0
 12 13  2  0
 12 14  1  0
 14 15  1  0
 14 28  1  0
 15 16  1  0
 15 29  1  0
 15 30  1  0
 16 17  1  0
 16 31  1  0
 16 32  1  0
 17 18  1  0
 17 33  1  0
 17 34  1  0
 18 19  2  0
 18 20  1  0
 20 35  1  0
M  CHG  2   6   1   8  -1
M  END

