
     RDKit          3D

130140  0  0  0  0  0  0  0  0999 V2000
    4.4894    1.4794   -1.2221 C   0  0  0  0  0  0  0  0  0  0  0  0
    3.8053    0.1333   -1.5217 C   0  0  1  0  0  0  0  0  0  0  0  0
    2.2849    0.3824   -1.6554 C   0  0  0  0  0  0  0  0  0  0  0  0
    4.3589   -0.4023   -2.8627 C   0  0  0  0  0  0  0  0  0  0  0  0
    4.0570   -0.9055   -0.4118 C   0  0  0  0  0  0  0  0  0  0  0  0
    4.8263   -0.6353    0.7313 C   0  0  0  0  0  0  0  0  0  0  0  0
    5.0305   -1.5960    1.7261 C   0  0  0  0  0  0  0  0  0  0  0  0
    4.4628   -2.8624    1.5954 C   0  0  0  0  0  0  0  0  0  0  0  0
    4.7642   -3.7937    2.5721 O   0  0  0  0  0  0  0  0  0  0  0  0
    3.8684   -4.7129    3.0065 C   0  0  0  0  0  0  0  0  0  0  0  0
    2.4959   -4.4001    3.0581 C   0  0  0  0  0  0  0  0  0  0  0  0
    1.5702   -5.3949    3.3014 C   0  0  0  0  0  0  0  0  0  0  0  0
    1.9972   -6.7408    3.4174 C   0  0  0  0  0  0  0  0  0  0  0  0
    1.0373   -7.7775    3.3837 C   0  0  0  0  0  0  0  0  0  0  0  0
    1.4481   -9.0859    3.2143 C   0  0  0  0  0  0  0  0  0  0  0  0
    2.8195   -9.3991    3.1484 C   0  0  0  0  0  0  0  0  0  0  0  0
    3.2160  -10.6240    2.7202 O   0  0  0  0  0  0  0  0  0  0  0  0
    2.3126  -11.4934    2.1191 C   0  0  0  0  0  0  0  0  0  0  0  0
    2.0017  -11.3421    0.7656 C   0  0  0  0  0  0  0  0  0  0  0  0
    1.1454  -12.2568    0.1541 C   0  0  0  0  0  0  0  0  0  0  0  0
    0.5813  -13.3368    0.8611 C   0  0  0  0  0  0  0  0  0  0  0  0
   -0.3642  -14.3179    0.1411 C   0  0  1  0  0  0  0  0  0  0  0  0
    0.3880  -14.9885   -1.0319 C   0  0  0  0  0  0  0  0  0  0  0  0
   -0.8776  -15.4248    1.0796 C   0  0  0  0  0  0  0  0  0  0  0  0
   -1.5857  -13.5430   -0.4060 C   0  0  0  0  0  0  0  0  0  0  0  0
    0.9225  -13.4610    2.2174 C   0  0  0  0  0  0  0  0  0  0  0  0
    1.7802  -12.5528    2.8484 C   0  0  0  0  0  0  0  0  0  0  0  0
    3.8099   -8.4322    3.4724 C   0  0  0  0  0  0  0  0  0  0  0  0
    5.2357   -8.7354    3.6232 C   0  0  0  0  0  0  0  0  0  0  0  0
    5.7403  -10.0120    3.9829 C   0  0  0  0  0  0  0  0  0  0  0  0
    4.8874  -10.8966    4.5548 O   0  0  0  0  0  0  0  0  0  0  0  0
    5.0936  -12.2619    4.5408 C   0  0  0  0  0  0  0  0  0  0  0  0
    5.4413  -12.9613    3.3849 C   0  0  0  0  0  0  0  0  0  0  0  0
    5.5747  -14.3525    3.4348 C   0  0  0  0  0  0  0  0  0  0  0  0
    5.3554  -15.0791    4.6164 C   0  0  0  0  0  0  0  0  0  0  0  0
    5.4954  -16.6116    4.6981 C   0  0  1  0  0  0  0  0  0  0  0  0
    5.8988  -17.2306    3.3476 C   0  0  0  0  0  0  0  0  0  0  0  0
    6.5806  -16.9732    5.7388 C   0  0  0  0  0  0  0  0  0  0  0  0
    4.1443  -17.2288    5.1282 C   0  0  0  0  0  0  0  0  0  0  0  0
    4.9921  -14.3416    5.7598 C   0  0  0  0  0  0  0  0  0  0  0  0
    4.8636  -12.9535    5.7330 C   0  0  0  0  0  0  0  0  0  0  0  0
    7.1153  -10.3054    3.8965 C   0  0  0  0  0  0  0  0  0  0  0  0
    8.0265   -9.2981    3.6434 C   0  0  0  0  0  0  0  0  0  0  0  0
    7.5867   -7.9551    3.5663 C   0  0  0  0  0  0  0  0  0  0  0  0
    8.5422   -6.9093    3.6059 C   0  0  0  0  0  0  0  0  0  0  0  0
    8.1204   -5.6142    3.8391 C   0  0  0  0  0  0  0  0  0  0  0  0
    6.7492   -5.3209    3.9397 C   0  0  0  0  0  0  0  0  0  0  0  0
    6.4652   -4.0729    4.4098 O   0  0  0  0  0  0  0  0  0  0  0  0
    5.7025   -3.8894    5.5459 C   0  0  0  0  0  0  0  0  0  0  0  0
    5.5545   -4.8589    6.5396 C   0  0  0  0  0  0  0  0  0  0  0  0
    4.8040   -4.5689    7.6849 C   0  0  0  0  0  0  0  0  0  0  0  0
    4.1898   -3.3227    7.8791 C   0  0  0  0  0  0  0  0  0  0  0  0
    3.3568   -2.9790    9.1290 C   0  0  1  0  0  0  0  0  0  0  0  0
    3.2836   -4.1557   10.1188 C   0  0  0  0  0  0  0  0  0  0  0  0
    3.9957   -1.7740    9.8580 C   0  0  0  0  0  0  0  0  0  0  0  0
    1.9154   -2.6159    8.7026 C   0  0  0  0  0  0  0  0  0  0  0  0
    4.3682   -2.3651    6.8620 C   0  0  0  0  0  0  0  0  0  0  0  0
    5.1076   -2.6343    5.7125 C   0  0  0  0  0  0  0  0  0  0  0  0
    5.7660   -6.2828    3.5941 C   0  0  0  0  0  0  0  0  0  0  0  0
    4.3475   -5.9842    3.4093 C   0  0  0  0  0  0  0  0  0  0  0  0
    3.3891   -7.0552    3.4799 C   0  0  0  0  0  0  0  0  0  0  0  0
    6.1898   -7.6585    3.5523 C   0  0  0  0  0  0  0  0  0  0  0  0
    9.9896   -7.2117    3.5326 C   0  0  0  0  0  0  0  0  0  0  0  0
   10.8650   -6.3928    3.5107 O   0  0  0  0  0  0  0  0  0  0  0  0
   10.3380   -8.5496    3.4863 O   0  0  0  0  0  0  0  0  0  0  0  0
    9.4710   -9.6201    3.5787 C   0  0  0  0  0  0  0  0  0  0  0  0
    9.9290  -10.7288    3.5974 O   0  0  0  0  0  0  0  0  0  0  0  0
   -0.4090   -7.4637    3.4256 C   0  0  0  0  0  0  0  0  0  0  0  0
   -1.2902   -8.2772    3.4475 O   0  0  0  0  0  0  0  0  0  0  0  0
   -0.7490   -6.1240    3.4415 O   0  0  0  0  0  0  0  0  0  0  0  0
    0.1278   -5.0605    3.3429 C   0  0  0  0  0  0  0  0  0  0  0  0
   -0.3229   -3.9499    3.2971 O   0  0  0  0  0  0  0  0  0  0  0  0
    3.7070   -3.1733    0.4590 C   0  0  0  0  0  0  0  0  0  0  0  0
    3.5100   -2.1985   -0.5185 C   0  0  0  0  0  0  0  0  0  0  0  0
    4.2835    2.1908   -2.0371 H   0  0  0  0  0  0  0  0  0  0  0  0
    5.5831    1.3771   -1.1428 H   0  0  0  0  0  0  0  0  0  0  0  0
    4.1179    1.9312   -0.2890 H   0  0  0  0  0  0  0  0  0  0  0  0
    2.0847    1.1218   -2.4481 H   0  0  0  0  0  0  0  0  0  0  0  0
    1.8630    0.7694   -0.7143 H   0  0  0  0  0  0  0  0  0  0  0  0
    1.7380   -0.5374   -1.9134 H   0  0  0  0  0  0  0  0  0  0  0  0
    4.1848    0.3284   -3.6696 H   0  0  0  0  0  0  0  0  0  0  0  0
    3.8764   -1.3458   -3.1602 H   0  0  0  0  0  0  0  0  0  0  0  0
    5.4431   -0.5861   -2.7979 H   0  0  0  0  0  0  0  0  0  0  0  0
    5.2858    0.3436    0.8674 H   0  0  0  0  0  0  0  0  0  0  0  0
    5.6446   -1.3774    2.6010 H   0  0  0  0  0  0  0  0  0  0  0  0
    2.1547   -3.3819    2.8688 H   0  0  0  0  0  0  0  0  0  0  0  0
    0.6968   -9.8640    3.0820 H   0  0  0  0  0  0  0  0  0  0  0  0
    2.4347  -10.5139    0.2004 H   0  0  0  0  0  0  0  0  0  0  0  0
    0.9160  -12.1197   -0.9049 H   0  0  0  0  0  0  0  0  0  0  0  0
    1.2627  -15.5525   -0.6705 H   0  0  0  0  0  0  0  0  0  0  0  0
    0.7450  -14.2520   -1.7679 H   0  0  0  0  0  0  0  0  0  0  0  0
   -0.2755  -15.6920   -1.5612 H   0  0  0  0  0  0  0  0  0  0  0  0
   -0.0557  -16.0367    1.4835 H   0  0  0  0  0  0  0  0  0  0  0  0
   -1.5489  -16.0996    0.5259 H   0  0  0  0  0  0  0  0  0  0  0  0
   -1.4490  -15.0141    1.9266 H   0  0  0  0  0  0  0  0  0  0  0  0
   -1.2908  -12.7618   -1.1232 H   0  0  0  0  0  0  0  0  0  0  0  0
   -2.1430  -13.0555    0.4095 H   0  0  0  0  0  0  0  0  0  0  0  0
   -2.2737  -14.2292   -0.9264 H   0  0  0  0  0  0  0  0  0  0  0  0
    0.5200  -14.2796    2.8136 H   0  0  0  0  0  0  0  0  0  0  0  0
    2.0412  -12.6682    3.9017 H   0  0  0  0  0  0  0  0  0  0  0  0
    5.5991  -12.4263    2.4470 H   0  0  0  0  0  0  0  0  0  0  0  0
    5.8493  -14.8682    2.5147 H   0  0  0  0  0  0  0  0  0  0  0  0
    6.8712  -16.8523    2.9955 H   0  0  0  0  0  0  0  0  0  0  0  0
    5.1499  -17.0343    2.5643 H   0  0  0  0  0  0  0  0  0  0  0  0
    5.9885  -18.3233    3.4512 H   0  0  0  0  0  0  0  0  0  0  0  0
    7.5569  -16.5491    5.4555 H   0  0  0  0  0  0  0  0  0  0  0  0
    6.6930  -18.0674    5.8129 H   0  0  0  0  0  0  0  0  0  0  0  0
    6.3306  -16.5966    6.7425 H   0  0  0  0  0  0  0  0  0  0  0  0
    3.3519  -16.9907    4.4006 H   0  0  0  0  0  0  0  0  0  0  0  0
    3.8174  -16.8600    6.1125 H   0  0  0  0  0  0  0  0  0  0  0  0
    4.2263  -18.3261    5.1952 H   0  0  0  0  0  0  0  0  0  0  0  0
    4.8093  -14.8570    6.7054 H   0  0  0  0  0  0  0  0  0  0  0  0
    4.5867  -12.3926    6.6279 H   0  0  0  0  0  0  0  0  0  0  0  0
    7.4824  -11.3136    4.0877 H   0  0  0  0  0  0  0  0  0  0  0  0
    8.8466   -4.8182    4.0090 H   0  0  0  0  0  0  0  0  0  0  0  0
    6.0264   -5.8370    6.4355 H   0  0  0  0  0  0  0  0  0  0  0  0
    4.7133   -5.3504    8.4394 H   0  0  0  0  0  0  0  0  0  0  0  0
    4.2800   -4.4470   10.4868 H   0  0  0  0  0  0  0  0  0  0  0  0
    2.8108   -5.0428    9.6690 H   0  0  0  0  0  0  0  0  0  0  0  0
    2.6800   -3.8691   10.9943 H   0  0  0  0  0  0  0  0  0  0  0  0
    5.0239   -2.0058   10.1786 H   0  0  0  0  0  0  0  0  0  0  0  0
    3.4101   -1.5114   10.7544 H   0  0  0  0  0  0  0  0  0  0  0  0
    4.0387   -0.8807    9.2163 H   0  0  0  0  0  0  0  0  0  0  0  0
    1.4316   -3.4592    8.1847 H   0  0  0  0  0  0  0  0  0  0  0  0
    1.8926   -1.7500    8.0235 H   0  0  0  0  0  0  0  0  0  0  0  0
    1.3047   -2.3626    9.5848 H   0  0  0  0  0  0  0  0  0  0  0  0
    3.9159   -1.3756    6.9599 H   0  0  0  0  0  0  0  0  0  0  0  0
    5.2331   -1.8780    4.9370 H   0  0  0  0  0  0  0  0  0  0  0  0
    3.2816   -4.1703    0.3327 H   0  0  0  0  0  0  0  0  0  0  0  0
    2.9145   -2.4668   -1.3940 H   0  0  0  0  0  0  0  0  0  0  0  0
  2  1  1  1
  1 75  1  0
  1 76  1  0
  1 77  1  0
  2  3  1  0
  2  4  1  0
  2  5  1  0
  3 78  1  0
  3 79  1  0
  3 80  1  0
  4 81  1  0
  4 82  1  0
  4 83  1  0
  5  6  2  0
  5 74  1  0
  6  7  1  0
  6 84  1  0
  7  8  2  0
  7 85  1  0
  8  9  1  0
  8 73  1  0
  9 10  1  0
 10 11  2  0
 10 60  1  0
 11 12  1  0
 11 86  1  0
 12 13  2  0
 12 71  1  0
 13 14  1  0
 13 61  1  0
 14 15  2  0
 14 68  1  0
 15 16  1  0
 15 87  1  0
 16 17  1  0
 16 28  2  0
 17 18  1  0
 18 19  2  0
 18 27  1  0
 19 20  1  0
 19 88  1  0
 20 21  2  0
 20 89  1  0
 21 22  1  0
 21 26  1  0
 22 23  1  6
 22 24  1  0
 22 25  1  0
 23 90  1  0
 23 91  1  0
 23 92  1  0
 24 93  1  0
 24 94  1  0
 24 95  1  0
 25 96  1  0
 25 97  1  0
 25 98  1  0
 26 27  2  0
 26 99  1  0
 27100  1  0
 28 29  1  0
 28 61  1  0
 29 30  1  0
 29 62  2  0
 30 31  1  0
 30 42  2  0
 31 32  1  0
 32 33  2  0
 32 41  1  0
 33 34  1  0
 33101  1  0
 34 35  2  0
 34102  1  0
 35 36  1  0
 35 40  1  0
 36 37  1  6
 36 38  1  0
 36 39  1  0
 37103  1  0
 37104  1  0
 37105  1  0
 38106  1  0
 38107  1  0
 38108  1  0
 39109  1  0
 39110  1  0
 39111  1  0
 40 41  2  0
 40112  1  0
 41113  1  0
 42 43  1  0
 42114  1  0
 43 44  2  0
 43 66  1  0
 44 45  1  0
 44 62  1  0
 45 46  2  0
 45 63  1  0
 46 47  1  0
 46115  1  0
 47 48  1  0
 47 59  2  0
 48 49  1  0
 49 50  2  0
 49 58  1  0
 50 51  1  0
 50116  1  0
 51 52  2  0
 51117  1  0
 52 53  1  0
 52 57  1  0
 53 54  1  1
 53 55  1  0
 53 56  1  0
 54118  1  0
 54119  1  0
 54120  1  0
 55121  1  0
 55122  1  0
 55123  1  0
 56124  1  0
 56125  1  0
 56126  1  0
 57 58  2  0
 57127  1  0
 58128  1  0
 59 60  1  0
 59 62  1  0
 60 61  2  0
 63 64  2  0
 63 65  1  0
 65 66  1  0
 66 67  2  0
 68 69  2  0
 68 70  1  0
 70 71  1  0
 71 72  2  0
 73 74  2  0
 73129  1  0
 74130  1  0
M  END

