
     RDKit          3D

 57 59  0  0  0  0  0  0  0  0999 V2000
    5.8861   -2.2796   -1.4975 C   0  0  0  0  0  0  0  0  0  0  0  0
    5.0559   -2.5419   -2.7565 C   0  0  1  0  0  0  0  0  0  0  0  0
    3.7551   -3.2934   -2.4631 C   0  0  0  0  0  0  0  0  0  0  0  0
    4.7703   -1.2783   -3.4528 N   0  0  0  0  0  0  0  0  0  0  0  0
    5.1757   -0.9369   -4.7040 C   0  0  0  0  0  0  0  0  0  0  0  0
    4.6731    0.3495   -4.9438 C   0  0  0  0  0  0  0  0  0  0  0  0
    4.7304    1.2628   -6.0296 C   0  0  0  0  0  0  0  0  0  0  0  0
    4.0856    2.4805   -5.8812 C   0  0  0  0  0  0  0  0  0  0  0  0
    4.0571    3.4909   -6.8670 N   0  0  0  0  0  0  0  0  0  0  0  0
    4.6471    3.4790   -8.1192 C   0  0  0  0  0  0  0  0  0  0  0  0
    5.2654    2.5165   -8.5577 O   0  0  0  0  0  0  0  0  0  0  0  0
    4.4878    4.6515   -8.8450 N   0  0  0  0  0  0  0  0  0  0  0  0
    3.7418    5.7926   -8.3503 C   0  0  0  0  0  0  0  0  0  0  0  0
    4.9439    4.6736  -10.2352 C   0  0  0  0  0  0  0  0  0  0  0  0
    6.1250    5.6140  -10.5087 C   0  0  0  0  0  0  0  0  0  0  0  0
    7.4124    5.3200   -9.7117 C   0  0  1  0  0  0  0  0  0  0  0  0
    8.0772    3.9654  -10.0560 C   0  0  0  0  0  0  0  0  0  0  0  0
    8.7760    3.9917  -11.4230 C   0  0  0  0  0  0  0  0  0  0  0  0
    9.7501    5.1747  -11.5085 C   0  0  0  0  0  0  0  0  0  0  0  0
    9.0338    6.4852  -11.1366 C   0  0  0  0  0  0  0  0  0  0  0  0
    8.3508    6.4502   -9.8436 N   0  0  0  0  0  0  0  0  0  0  0  0
    9.2273    6.6382   -8.7033 C   0  0  0  0  0  0  0  0  0  0  0  0
    3.3846    2.7917   -4.6631 C   0  0  0  0  0  0  0  0  0  0  0  0
    3.3175    1.9190   -3.6033 C   0  0  0  0  0  0  0  0  0  0  0  0
    3.9718    0.6659   -3.7303 C   0  0  0  0  0  0  0  0  0  0  0  0
    4.0453   -0.3408   -2.8377 N   0  0  0  0  0  0  0  0  0  0  0  0
    6.1335   -3.2306   -1.0008 H   0  0  0  0  0  0  0  0  0  0  0  0
    5.3221   -1.6494   -0.7945 H   0  0  0  0  0  0  0  0  0  0  0  0
    6.8262   -1.7636   -1.7458 H   0  0  0  0  0  0  0  0  0  0  0  0
    5.6579   -3.1292   -3.4683 H   0  0  0  0  0  0  0  0  0  0  0  0
    3.1151   -2.6992   -1.7947 H   0  0  0  0  0  0  0  0  0  0  0  0
    3.9746   -4.2576   -1.9790 H   0  0  0  0  0  0  0  0  0  0  0  0
    3.1962   -3.4907   -3.3908 H   0  0  0  0  0  0  0  0  0  0  0  0
    5.7728   -1.6102   -5.3146 H   0  0  0  0  0  0  0  0  0  0  0  0
    5.2542    1.0338   -6.9539 H   0  0  0  0  0  0  0  0  0  0  0  0
    3.5264    4.3099   -6.6067 H   0  0  0  0  0  0  0  0  0  0  0  0
    4.1210    6.1450   -7.3750 H   0  0  0  0  0  0  0  0  0  0  0  0
    2.6569    5.5894   -8.2527 H   0  0  0  0  0  0  0  0  0  0  0  0
    3.8566    6.6305   -9.0503 H   0  0  0  0  0  0  0  0  0  0  0  0
    4.0963    4.9696  -10.8805 H   0  0  0  0  0  0  0  0  0  0  0  0
    5.2008    3.6400  -10.4963 H   0  0  0  0  0  0  0  0  0  0  0  0
    5.8440    6.6581  -10.2870 H   0  0  0  0  0  0  0  0  0  0  0  0
    6.3163    5.5826  -11.5946 H   0  0  0  0  0  0  0  0  0  0  0  0
    7.1165    5.2872   -8.6501 H   0  0  0  0  0  0  0  0  0  0  0  0
    7.3401    3.1509   -9.9870 H   0  0  0  0  0  0  0  0  0  0  0  0
    8.8310    3.7472   -9.2788 H   0  0  0  0  0  0  0  0  0  0  0  0
    8.0275    4.0753  -12.2326 H   0  0  0  0  0  0  0  0  0  0  0  0
    9.3037    3.0390  -11.5975 H   0  0  0  0  0  0  0  0  0  0  0  0
   10.1830    5.2600  -12.5203 H   0  0  0  0  0  0  0  0  0  0  0  0
   10.5974    5.0038  -10.8201 H   0  0  0  0  0  0  0  0  0  0  0  0
    8.2917    6.7171  -11.9224 H   0  0  0  0  0  0  0  0  0  0  0  0
    9.7431    7.3293  -11.1307 H   0  0  0  0  0  0  0  0  0  0  0  0
    9.8038    7.5699   -8.8278 H   0  0  0  0  0  0  0  0  0  0  0  0
    9.9608    5.8206   -8.5231 H   0  0  0  0  0  0  0  0  0  0  0  0
    8.6276    6.7429   -7.7843 H   0  0  0  0  0  0  0  0  0  0  0  0
    2.8879    3.7645   -4.5847 H   0  0  0  0  0  0  0  0  0  0  0  0
    2.7800    2.1746   -2.6880 H   0  0  0  0  0  0  0  0  0  0  0  0
  1  2  1  0
  1 27  1  0
  1 28  1  0
  1 29  1  0
  2  3  1  0
  2  4  1  0
  2 30  1  6
  3 31  1  0
  3 32  1  0
  3 33  1  0
  4  5  1  0
  4 26  1  0
  5  6  2  0
  5 34  1  0
  6  7  1  0
  6 25  1  0
  7  8  2  0
  7 35  1  0
  8  9  1  0
  8 23  1  0
  9 10  1  0
  9 36  1  0
 10 11  2  0
 10 12  1  0
 12 13  1  0
 12 14  1  0
 13 37  1  0
 13 38  1  0
 13 39  1  0
 14 15  1  0
 14 40  1  0
 14 41  1  0
 15 16  1  0
 15 42  1  0
 15 43  1  0
 16 17  1  0
 16 21  1  0
 16 44  1  1
 17 18  1  0
 17 45  1  0
 17 46  1  0
 18 19  1  0
 18 47  1  0
 18 48  1  0
 19 20  1  0
 19 49  1  0
 19 50  1  0
 20 21  1  0
 20 51  1  0
 20 52  1  0
 21 22  1  0
 22 53  1  0
 22 54  1  0
 22 55  1  0
 23 24  2  0
 23 56  1  0
 24 25  1  0
 24 57  1  0
 25 26  2  0
M  END

