
     RDKit          3D

 47 49  0  0  0  0  0  0  0  0999 V2000
    3.5186    1.1562   -0.6999 C   0  0  0  0  0  0  0  0  0  0  0  0
    2.7442    0.0009   -0.5066 O   0  0  0  0  0  0  0  0  0  0  0  0
    2.9226   -0.7292    0.6411 C   0  0  0  0  0  0  0  0  0  0  0  0
    3.8535   -0.4239    1.6340 C   0  0  0  0  0  0  0  0  0  0  0  0
    3.9494   -1.1787    2.8157 C   0  0  0  0  0  0  0  0  0  0  0  0
    4.9628   -0.7988    3.8817 C   0  0  0  0  0  0  0  0  0  0  0  0
    4.3792   -0.1656    5.1306 C   0  0  0  0  0  0  0  0  0  0  0  0
    3.7425    1.0550    5.1797 C   0  0  0  0  0  0  0  0  0  0  0  0
    3.3657    1.3455    6.4747 N   0  0  0  0  0  0  0  0  0  0  0  0
    2.8788    2.1807    6.7689 H   0  0  0  0  0  0  0  0  0  0  0  0
    3.7460    0.3184    7.3042 C   0  0  0  0  0  0  0  0  0  0  0  0
    3.5860    0.1759    8.6933 C   0  0  0  0  0  0  0  0  0  0  0  0
    4.0795   -0.9841    9.2708 C   0  0  0  0  0  0  0  0  0  0  0  0
    4.7063   -1.9894    8.4982 C   0  0  0  0  0  0  0  0  0  0  0  0
    4.8533   -1.8404    7.1198 C   0  0  0  0  0  0  0  0  0  0  0  0
    5.4149   -2.7877    6.3045 O   0  0  0  0  0  0  0  0  0  0  0  0
    5.9877   -3.9418    6.8812 C   0  0  0  0  0  0  0  0  0  0  0  0
    4.3834   -0.6605    6.4894 C   0  0  0  0  0  0  0  0  0  0  0  0
    3.0957   -2.2818    3.0034 C   0  0  0  0  0  0  0  0  0  0  0  0
    3.0943   -3.0378    4.1599 N   0  0  0  0  0  0  0  0  0  0  0  0
    2.1709   -2.6171    1.9765 C   0  0  0  0  0  0  0  0  0  0  0  0
    1.3797   -3.6995    2.2601 O   0  0  0  0  0  0  0  0  0  0  0  0
    1.0133   -4.6231    1.2519 C   0  0  0  0  0  0  0  0  0  0  0  0
    2.0670   -1.8447    0.8090 C   0  0  0  0  0  0  0  0  0  0  0  0
    1.0899   -2.1462   -0.1044 O   0  0  0  0  0  0  0  0  0  0  0  0
    1.4947   -2.4797   -1.4235 C   0  0  0  0  0  0  0  0  0  0  0  0
    3.2003    1.5944   -1.6563 H   0  0  0  0  0  0  0  0  0  0  0  0
    4.6003    0.9306   -0.7555 H   0  0  0  0  0  0  0  0  0  0  0  0
    3.3591    1.9002    0.1029 H   0  0  0  0  0  0  0  0  0  0  0  0
    4.5265    0.4251    1.5092 H   0  0  0  0  0  0  0  0  0  0  0  0
    5.6860   -0.0989    3.4321 H   0  0  0  0  0  0  0  0  0  0  0  0
    5.5490   -1.6796    4.1820 H   0  0  0  0  0  0  0  0  0  0  0  0
    3.5225    1.7463    4.3680 H   0  0  0  0  0  0  0  0  0  0  0  0
    3.0951    0.9464    9.2922 H   0  0  0  0  0  0  0  0  0  0  0  0
    3.9799   -1.1371   10.3483 H   0  0  0  0  0  0  0  0  0  0  0  0
    5.0633   -2.8885    8.9995 H   0  0  0  0  0  0  0  0  0  0  0  0
    6.4096   -4.5290    6.0543 H   0  0  0  0  0  0  0  0  0  0  0  0
    5.2355   -4.5539    7.4101 H   0  0  0  0  0  0  0  0  0  0  0  0
    6.7950   -3.6825    7.5884 H   0  0  0  0  0  0  0  0  0  0  0  0
    3.9168   -3.0330    4.7524 H   0  0  0  0  0  0  0  0  0  0  0  0
    2.5838   -3.9094    4.1028 H   0  0  0  0  0  0  0  0  0  0  0  0
    0.7237   -5.5506    1.7695 H   0  0  0  0  0  0  0  0  0  0  0  0
    1.8600   -4.8451    0.5773 H   0  0  0  0  0  0  0  0  0  0  0  0
    0.1658   -4.2619    0.6516 H   0  0  0  0  0  0  0  0  0  0  0  0
    0.5844   -2.7729   -1.9667 H   0  0  0  0  0  0  0  0  0  0  0  0
    2.1997   -3.3324   -1.4242 H   0  0  0  0  0  0  0  0  0  0  0  0
    1.9653   -1.6269   -1.9340 H   0  0  0  0  0  0  0  0  0  0  0  0
  1  2  1  0
  1 27  1  0
  1 28  1  0
  1 29  1  0
  2  3  1  0
  3  4  2  0
  3 24  1  0
  4  5  1  0
  4 30  1  0
  5  6  1  0
  5 19  2  0
  6  7  1  0
  6 31  1  0
  6 32  1  0
  7  8  2  0
  7 18  1  0
  8  9  1  0
  8 33  1  0
  9 10  1  0
  9 11  1  0
 11 12  1  0
 11 18  2  0
 12 13  2  0
 12 34  1  0
 13 14  1  0
 13 35  1  0
 14 15  2  0
 14 36  1  0
 15 16  1  0
 15 18  1  0
 16 17  1  0
 17 37  1  0
 17 38  1  0
 17 39  1  0
 19 20  1  0
 19 21  1  0
 20 40  1  0
 20 41  1  0
 21 22  1  0
 21 24  2  0
 22 23  1  0
 23 42  1  0
 23 43  1  0
 23 44  1  0
 24 25  1  0
 25 26  1  0
 26 45  1  0
 26 46  1  0
 26 47  1  0
M  END

