
     RDKit          3D

 63 66  0  0  0  0  0  0  0  0999 V2000
   -3.2606    5.0025   -1.9996 C   0  0  0  0  0  0  0  0  0  0  0  0
   -2.4439    4.1665   -3.0126 C   0  0  1  0  0  0  0  0  0  0  0  0
   -2.5799    2.6646   -2.6686 C   0  0  0  0  0  0  0  0  0  0  0  0
   -3.0358    4.3954   -4.4150 C   0  0  0  0  0  0  0  0  0  0  0  0
   -0.9612    4.5742   -2.9307 C   0  0  0  0  0  0  0  0  0  0  0  0
   -0.2570    4.4354   -1.7173 C   0  0  0  0  0  0  0  0  0  0  0  0
    1.0819    4.7924   -1.6053 C   0  0  0  0  0  0  0  0  0  0  0  0
    1.7867    5.3036   -2.7086 C   0  0  0  0  0  0  0  0  0  0  0  0
    3.2321    5.6615   -2.4783 C   0  0  0  0  0  0  0  0  0  0  0  0
    3.7401    5.6059   -1.3820 O   0  0  0  0  0  0  0  0  0  0  0  0
    3.9392    6.0542   -3.6278 N   0  0  0  0  0  0  0  0  0  0  0  0
    5.2792    6.4214   -3.7018 C   0  0  0  0  0  0  0  0  0  0  0  0
    6.0600    6.4427   -2.7836 O   0  0  0  0  0  0  0  0  0  0  0  0
    5.7319    6.7871   -5.1315 C   0  0  0  0  0  0  0  0  0  0  0  0
    5.1561    8.0071   -5.6299 O   0  0  0  0  0  0  0  0  0  0  0  0
    3.9520    7.9625   -6.2251 C   0  0  0  0  0  0  0  0  0  0  0  0
    3.2844    6.9475   -6.2781 O   0  0  0  0  0  0  0  0  0  0  0  0
    3.5358    9.2962   -6.7931 C   0  0  0  0  0  0  0  0  0  0  0  0
    2.8390   10.2572   -5.7895 C   0  0  2  0  0  0  0  0  0  0  0  0
    3.8098   10.7531   -4.6893 C   0  0  0  0  0  0  0  0  0  0  0  0
    3.1001   11.7517   -3.7534 C   0  0  1  0  0  0  0  0  0  0  0  0
    2.6127   12.9653   -4.5677 C   0  0  0  0  0  0  0  0  0  0  0  0
    1.6284   12.4906   -5.6539 C   0  0  2  0  0  0  0  0  0  0  0  0
    0.4210   11.8006   -4.9901 C   0  0  0  0  0  0  0  0  0  0  0  0
    0.9086   10.5880   -4.1743 C   0  0  2  0  0  0  0  0  0  0  0  0
    1.8938   11.0613   -3.0878 C   0  0  0  0  0  0  0  0  0  0  0  0
    1.6198    9.5889   -5.1083 C   0  0  0  0  0  0  0  0  0  0  0  0
    2.3380   11.4895   -6.5848 C   0  0  0  0  0  0  0  0  0  0  0  0
    1.0980    5.4508   -3.9216 C   0  0  0  0  0  0  0  0  0  0  0  0
   -0.2498    5.0913   -4.0245 C   0  0  0  0  0  0  0  0  0  0  0  0
   -4.3256    4.7209   -2.0411 H   0  0  0  0  0  0  0  0  0  0  0  0
   -3.1843    6.0787   -2.2223 H   0  0  0  0  0  0  0  0  0  0  0  0
   -2.9158    4.8492   -0.9659 H   0  0  0  0  0  0  0  0  0  0  0  0
   -3.6366    2.3546   -2.7186 H   0  0  0  0  0  0  0  0  0  0  0  0
   -2.2143    2.4392   -1.6554 H   0  0  0  0  0  0  0  0  0  0  0  0
   -2.0091    2.0434   -3.3769 H   0  0  0  0  0  0  0  0  0  0  0  0
   -4.0940    4.0905   -4.4262 H   0  0  0  0  0  0  0  0  0  0  0  0
   -2.5142    3.8040   -5.1837 H   0  0  0  0  0  0  0  0  0  0  0  0
   -2.9950    5.4553   -4.7112 H   0  0  0  0  0  0  0  0  0  0  0  0
   -0.7652    4.0388   -0.8354 H   0  0  0  0  0  0  0  0  0  0  0  0
    1.6159    4.6841   -0.6596 H   0  0  0  0  0  0  0  0  0  0  0  0
    3.4478    6.0579   -4.5205 H   0  0  0  0  0  0  0  0  0  0  0  0
    5.5093    5.9655   -5.8311 H   0  0  0  0  0  0  0  0  0  0  0  0
    6.8108    6.9679   -5.0825 H   0  0  0  0  0  0  0  0  0  0  0  0
    2.8384    9.0754   -7.6149 H   0  0  0  0  0  0  0  0  0  0  0  0
    4.4235    9.7977   -7.2087 H   0  0  0  0  0  0  0  0  0  0  0  0
    4.6878   11.2307   -5.1587 H   0  0  0  0  0  0  0  0  0  0  0  0
    4.1935    9.9008   -4.1062 H   0  0  0  0  0  0  0  0  0  0  0  0
    3.8109   12.0848   -2.9785 H   0  0  0  0  0  0  0  0  0  0  0  0
    3.4708   13.4821   -5.0317 H   0  0  0  0  0  0  0  0  0  0  0  0
    2.1213   13.6971   -3.9036 H   0  0  0  0  0  0  0  0  0  0  0  0
    1.2836   13.3542   -6.2478 H   0  0  0  0  0  0  0  0  0  0  0  0
   -0.3023   11.4769   -5.7588 H   0  0  0  0  0  0  0  0  0  0  0  0
   -0.1092   12.5119   -4.3335 H   0  0  0  0  0  0  0  0  0  0  0  0
    0.0472   10.0868   -3.7014 H   0  0  0  0  0  0  0  0  0  0  0  0
    2.2330   10.2037   -2.4816 H   0  0  0  0  0  0  0  0  0  0  0  0
    1.3902   11.7593   -2.3970 H   0  0  0  0  0  0  0  0  0  0  0  0
    0.9192    9.2181   -5.8770 H   0  0  0  0  0  0  0  0  0  0  0  0
    1.9426    8.7085   -4.5281 H   0  0  0  0  0  0  0  0  0  0  0  0
    3.1922   11.9773   -7.0868 H   0  0  0  0  0  0  0  0  0  0  0  0
    1.6475   11.1592   -7.3809 H   0  0  0  0  0  0  0  0  0  0  0  0
    1.5818    5.8556   -4.8136 H   0  0  0  0  0  0  0  0  0  0  0  0
   -0.7415    5.2257   -4.9878 H   0  0  0  0  0  0  0  0  0  0  0  0
  2  1  1  1
  1 31  1  0
  1 32  1  0
  1 33  1  0
  2  3  1  0
  2  4  1  0
  2  5  1  0
  3 34  1  0
  3 35  1  0
  3 36  1  0
  4 37  1  0
  4 38  1  0
  4 39  1  0
  5  6  2  0
  5 30  1  0
  6  7  1  0
  6 40  1  0
  7  8  2  0
  7 41  1  0
  8  9  1  0
  8 29  1  0
  9 10  2  0
  9 11  1  0
 11 12  1  0
 11 42  1  0
 12 13  2  0
 12 14  1  0
 14 15  1  0
 14 43  1  0
 14 44  1  0
 15 16  1  0
 16 17  2  0
 16 18  1  0
 19 18  1  6
 18 45  1  0
 18 46  1  0
 19 20  1  0
 19 27  1  0
 19 28  1  0
 20 21  1  0
 20 47  1  0
 20 48  1  0
 21 22  1  0
 21 26  1  0
 21 49  1  1
 22 23  1  0
 22 50  1  0
 22 51  1  0
 23 24  1  0
 23 28  1  0
 23 52  1  6
 24 25  1  0
 24 53  1  0
 24 54  1  0
 25 26  1  0
 25 27  1  0
 25 55  1  1
 26 56  1  0
 26 57  1  0
 27 58  1  0
 27 59  1  0
 28 60  1  0
 28 61  1  0
 29 30  2  0
 29 62  1  0
 30 63  1  0
M  END

