
     RDKit          3D

 35 36  0  0  0  0  0  0  0  0999 V2000
    0.6077    0.4149    0.5121 C   0  0  0  0  0  0  0  0  0  0  0  0
    2.0143    0.4088    0.0731 N   0  0  0  0  0  0  0  0  0  0  0  0
    2.4457   -0.0163   -1.1488 C   0  0  0  0  0  0  0  0  0  0  0  0
    3.6193    0.0101   -1.5049 O   0  0  0  0  0  0  0  0  0  0  0  0
    1.4041   -0.5939   -2.1557 C   0  0  0  0  0  0  0  0  0  0  0  0
    0.2158   -0.7398   -1.9339 O   0  0  0  0  0  0  0  0  0  0  0  0
    2.0518   -0.9193   -3.3132 N   0  0  0  0  0  0  0  0  0  0  0  0
    1.5451   -1.4797   -4.4860 C   0  0  0  0  0  0  0  0  0  0  0  0
    0.1829   -1.8022   -4.6586 C   0  0  0  0  0  0  0  0  0  0  0  0
   -0.2478   -2.3582   -5.8601 C   0  0  0  0  0  0  0  0  0  0  0  0
    0.6705   -2.5925   -6.8848 C   0  0  0  0  0  0  0  0  0  0  0  0
    0.2062   -3.1803   -8.1516 N   0  0  0  0  0  0  0  0  0  0  0  0
   -0.9826   -3.4421   -8.2527 O   0  0  0  0  0  0  0  0  0  0  0  0
    1.0390   -3.3707   -9.0252 O   0  0  0  0  0  0  0  0  0  0  0  0
    2.0238   -2.2803   -6.7335 C   0  0  0  0  0  0  0  0  0  0  0  0
    2.4555   -1.7256   -5.5359 C   0  0  0  0  0  0  0  0  0  0  0  0
    2.9985    0.8316    1.0345 C   0  0  0  0  0  0  0  0  0  0  0  0
    3.9337    1.8279    0.7225 C   0  0  0  0  0  0  0  0  0  0  0  0
    4.8581    2.2389    1.6844 C   0  0  0  0  0  0  0  0  0  0  0  0
    4.8570    1.6679    2.9610 C   0  0  0  0  0  0  0  0  0  0  0  0
    3.9242    0.6754    3.2716 C   0  0  0  0  0  0  0  0  0  0  0  0
    2.9999    0.2544    2.3120 C   0  0  0  0  0  0  0  0  0  0  0  0
   -0.0361    0.8754   -0.2450 H   0  0  0  0  0  0  0  0  0  0  0  0
    0.5527    1.0021    1.4364 H   0  0  0  0  0  0  0  0  0  0  0  0
    0.2267   -0.5992    0.7010 H   0  0  0  0  0  0  0  0  0  0  0  0
    3.0536   -0.7249   -3.2568 H   0  0  0  0  0  0  0  0  0  0  0  0
   -0.5182   -1.6135   -3.8492 H   0  0  0  0  0  0  0  0  0  0  0  0
   -1.2949   -2.6161   -6.0176 H   0  0  0  0  0  0  0  0  0  0  0  0
    2.7130   -2.4767   -7.5542 H   0  0  0  0  0  0  0  0  0  0  0  0
    3.5114   -1.4761   -5.4029 H   0  0  0  0  0  0  0  0  0  0  0  0
    3.9401    2.2729   -0.2721 H   0  0  0  0  0  0  0  0  0  0  0  0
    5.5834    3.0167    1.4331 H   0  0  0  0  0  0  0  0  0  0  0  0
    5.5821    1.9949    3.7102 H   0  0  0  0  0  0  0  0  0  0  0  0
    3.9170    0.2174    4.2638 H   0  0  0  0  0  0  0  0  0  0  0  0
    2.2822   -0.5323    2.5546 H   0  0  0  0  0  0  0  0  0  0  0  0
  1  2  1  0
  1 23  1  0
  1 24  1  0
  1 25  1  0
  2  3  1  0
  2 17  1  0
  3  4  2  0
  3  5  1  0
  5  6  2  0
  5  7  1  0
  7  8  1  0
  7 26  1  0
  8  9  2  0
  8 16  1  0
  9 10  1  0
  9 27  1  0
 10 11  2  0
 10 28  1  0
 11 12  1  0
 11 15  1  0
 12 13  2  0
 12 14  1  0
 15 16  2  0
 15 29  1  0
 16 30  1  0
 17 18  2  0
 17 22  1  0
 18 19  1  0
 18 31  1  0
 19 20  2  0
 19 32  1  0
 20 21  1  0
 20 33  1  0
 21 22  2  0
 21 34  1  0
 22 35  1  0
M  CHG  2  12   1  14  -1
M  END

