
     RDKit          3D

 41 42  0  0  0  0  0  0  0  0999 V2000
    0.9643    0.9068    0.5679 C   0  0  0  0  0  0  0  0  0  0  0  0
    2.3937    1.3246    0.8942 C   0  0  0  0  0  0  0  0  0  0  0  0
    3.2166    0.1682    1.2292 N   0  0  0  0  0  0  0  0  0  0  0  0
    4.6205    0.4487    1.4731 C   0  0  1  0  0  0  0  0  0  0  0  0
    4.9055    1.3095    2.7131 C   0  0  0  0  0  0  0  0  0  0  0  0
    6.3894    1.0184    3.0726 C   0  0  0  0  0  0  0  0  0  0  0  0
    6.7677   -0.2713    2.2997 C   0  0  0  0  0  0  0  0  0  0  0  0
    5.4325   -0.8181    1.7800 C   0  0  2  0  0  0  0  0  0  0  0  0
    5.6189   -1.6573    0.6473 O   0  0  0  0  0  0  0  0  0  0  0  0
    5.0405   -2.8965    0.5814 C   0  0  0  0  0  0  0  0  0  0  0  0
    3.8018   -3.2215    1.1625 C   0  0  0  0  0  0  0  0  0  0  0  0
    3.2757   -4.5038    1.0132 C   0  0  0  0  0  0  0  0  0  0  0  0
    3.9565   -5.4847    0.2753 C   0  0  0  0  0  0  0  0  0  0  0  0
    3.3538   -6.7026    0.1872 O   0  0  0  0  0  0  0  0  0  0  0  0
    3.9789   -7.7414   -0.5437 C   0  0  0  0  0  0  0  0  0  0  0  0
    3.0897   -8.9687   -0.4738 C   0  0  0  0  0  0  0  0  0  0  0  0
    5.1862   -5.1556   -0.3164 C   0  0  0  0  0  0  0  0  0  0  0  0
    5.7193   -3.8732   -0.1554 C   0  0  0  0  0  0  0  0  0  0  0  0
    0.3371    1.7839    0.3443 H   0  0  0  0  0  0  0  0  0  0  0  0
    0.5164    0.3625    1.4140 H   0  0  0  0  0  0  0  0  0  0  0  0
    0.9335    0.2433   -0.3133 H   0  0  0  0  0  0  0  0  0  0  0  0
    2.3839    2.0105    1.7582 H   0  0  0  0  0  0  0  0  0  0  0  0
    2.8141    1.9108    0.0445 H   0  0  0  0  0  0  0  0  0  0  0  0
    3.1540   -0.5063    0.4652 H   0  0  0  0  0  0  0  0  0  0  0  0
    5.1062    0.9310    0.5918 H   0  0  0  0  0  0  0  0  0  0  0  0
    4.2315    0.9774    3.5206 H   0  0  0  0  0  0  0  0  0  0  0  0
    4.7138    2.3799    2.5475 H   0  0  0  0  0  0  0  0  0  0  0  0
    6.5115    0.8949    4.1593 H   0  0  0  0  0  0  0  0  0  0  0  0
    7.0430    1.8544    2.7807 H   0  0  0  0  0  0  0  0  0  0  0  0
    7.3077   -1.0092    2.9114 H   0  0  0  0  0  0  0  0  0  0  0  0
    7.4019   -0.0454    1.4280 H   0  0  0  0  0  0  0  0  0  0  0  0
    4.9131   -1.3759    2.5778 H   0  0  0  0  0  0  0  0  0  0  0  0
    3.2357   -2.4677    1.7128 H   0  0  0  0  0  0  0  0  0  0  0  0
    2.3142   -4.7664    1.4598 H   0  0  0  0  0  0  0  0  0  0  0  0
    4.9782   -7.9590   -0.1190 H   0  0  0  0  0  0  0  0  0  0  0  0
    4.1317   -7.4298   -1.5953 H   0  0  0  0  0  0  0  0  0  0  0  0
    2.9470   -9.2856    0.5707 H   0  0  0  0  0  0  0  0  0  0  0  0
    3.5430   -9.8020   -1.0328 H   0  0  0  0  0  0  0  0  0  0  0  0
    2.0999   -8.7558   -0.9059 H   0  0  0  0  0  0  0  0  0  0  0  0
    5.7448   -5.8889   -0.8984 H   0  0  0  0  0  0  0  0  0  0  0  0
    6.6796   -3.6107   -0.6043 H   0  0  0  0  0  0  0  0  0  0  0  0
  1  2  1  0
  1 19  1  0
  1 20  1  0
  1 21  1  0
  2  3  1  0
  2 22  1  0
  2 23  1  0
  3  4  1  0
  3 24  1  0
  4  5  1  0
  4  8  1  0
  4 25  1  6
  5  6  1  0
  5 26  1  0
  5 27  1  0
  6  7  1  0
  6 28  1  0
  6 29  1  0
  7  8  1  0
  7 30  1  0
  7 31  1  0
  8  9  1  0
  8 32  1  1
  9 10  1  0
 10 11  2  0
 10 18  1  0
 11 12  1  0
 11 33  1  0
 12 13  2  0
 12 34  1  0
 13 14  1  0
 13 17  1  0
 14 15  1  0
 15 16  1  0
 15 35  1  0
 15 36  1  0
 16 37  1  0
 16 38  1  0
 16 39  1  0
 17 18  2  0
 17 40  1  0
 18 41  1  0
M  END

