
     RDKit          3D

 30 31  0  0  0  0  0  0  0  0999 V2000
    1.6019   -0.3720    2.0985 C   0  0  0  0  0  0  0  0  0  0  0  0
    2.9980   -0.5540    1.8457 O   0  0  0  0  0  0  0  0  0  0  0  0
    3.3448   -0.7611    0.5735 C   0  0  0  0  0  0  0  0  0  0  0  0
    2.5766   -0.8218   -0.3552 O   0  0  0  0  0  0  0  0  0  0  0  0
    4.8187   -0.8983    0.4212 C   0  0  0  0  0  0  0  0  0  0  0  0
    5.6197   -0.4905    1.4144 O   0  0  0  0  0  0  0  0  0  0  0  0
    6.9263   -0.6430    1.0426 N   0  0  0  0  0  0  0  0  0  0  0  0
    6.9304   -1.1353   -0.1836 C   0  0  0  0  0  0  0  0  0  0  0  0
    8.2286   -1.4414   -0.8247 C   0  0  0  0  0  0  0  0  0  0  0  0
    9.3358   -1.7478   -0.0094 C   0  0  0  0  0  0  0  0  0  0  0  0
   10.5772   -2.0178   -0.5842 C   0  0  0  0  0  0  0  0  0  0  0  0
   10.7412   -1.9884   -1.9725 C   0  0  0  0  0  0  0  0  0  0  0  0
    9.6374   -1.6805   -2.7634 C   0  0  0  0  0  0  0  0  0  0  0  0
    9.7831   -1.6418   -4.0957 F   0  0  0  0  0  0  0  0  0  0  0  0
    8.3854   -1.4047   -2.2202 C   0  0  0  0  0  0  0  0  0  0  0  0
    5.5763   -1.3302   -0.6398 C   0  0  0  0  0  0  0  0  0  0  0  0
    5.0621   -1.8749   -1.9298 C   0  0  0  0  0  0  0  0  0  0  0  0
    5.3914   -1.4792   -3.0230 O   0  0  0  0  0  0  0  0  0  0  0  0
    4.1918   -2.8654   -1.7212 O   0  0  0  0  0  0  0  0  0  0  0  0
    3.5226   -3.3791   -2.8762 C   0  0  0  0  0  0  0  0  0  0  0  0
    1.5104   -0.1997    3.1772 H   0  0  0  0  0  0  0  0  0  0  0  0
    1.0349   -1.2671    1.8021 H   0  0  0  0  0  0  0  0  0  0  0  0
    1.2157    0.4912    1.5361 H   0  0  0  0  0  0  0  0  0  0  0  0
    9.2089   -1.7727    1.0734 H   0  0  0  0  0  0  0  0  0  0  0  0
   11.4303   -2.2580    0.0548 H   0  0  0  0  0  0  0  0  0  0  0  0
   11.7018   -2.1975   -2.4471 H   0  0  0  0  0  0  0  0  0  0  0  0
    7.5557   -1.1584   -2.8828 H   0  0  0  0  0  0  0  0  0  0  0  0
    2.8829   -4.1939   -2.5173 H   0  0  0  0  0  0  0  0  0  0  0  0
    4.2479   -3.7529   -3.6137 H   0  0  0  0  0  0  0  0  0  0  0  0
    2.9119   -2.5918   -3.3424 H   0  0  0  0  0  0  0  0  0  0  0  0
  1  2  1  0
  1 21  1  0
  1 22  1  0
  1 23  1  0
  2  3  1  0
  3  4  2  0
  3  5  1  0
  5  6  1  0
  5 16  2  0
  6  7  1  0
  7  8  2  0
  8  9  1  0
  8 16  1  0
  9 10  2  0
  9 15  1  0
 10 11  1  0
 10 24  1  0
 11 12  2  0
 11 25  1  0
 12 13  1  0
 12 26  1  0
 13 14  1  0
 13 15  2  0
 15 27  1  0
 16 17  1  0
 17 18  2  0
 17 19  1  0
 19 20  1  0
 20 28  1  0
 20 29  1  0
 20 30  1  0
M  END

