
     RDKit          3D

 36 37  0  0  0  0  0  0  0  0999 V2000
    4.8081   -2.3077   -0.5642 O   0  0  0  0  0  0  0  0  0  0  0  0
    4.2194   -1.1041   -0.3350 C   0  0  0  0  0  0  0  0  0  0  0  0
    4.9538    0.0906   -0.3473 C   0  0  0  0  0  0  0  0  0  0  0  0
    4.3186    1.3093   -0.1080 C   0  0  0  0  0  0  0  0  0  0  0  0
    2.9420    1.3491    0.1468 C   0  0  0  0  0  0  0  0  0  0  0  0
    2.2144    0.1617    0.1590 C   0  0  0  0  0  0  0  0  0  0  0  0
    2.8294   -1.0798   -0.0796 C   0  0  0  0  0  0  0  0  0  0  0  0
    2.0498   -2.3313   -0.0654 C   0  0  0  0  0  0  0  0  0  0  0  0
    0.7960   -2.3532    0.1601 N   0  0  0  0  0  0  0  0  0  0  0  0
    0.1108   -3.6235    0.1545 C   0  0  0  0  0  0  0  0  0  0  0  0
   -1.0537   -3.6075   -0.8495 C   0  0  0  0  0  0  0  0  0  0  0  0
   -1.7385   -4.8780   -0.8552 N   0  0  0  0  0  0  0  0  0  0  0  0
   -2.9921   -4.9002   -0.6289 C   0  0  0  0  0  0  0  0  0  0  0  0
   -3.7713   -6.1520   -0.6140 C   0  0  0  0  0  0  0  0  0  0  0  0
   -3.1566   -7.3932   -0.8552 C   0  0  0  0  0  0  0  0  0  0  0  0
   -3.8839   -8.5807   -0.8428 C   0  0  0  0  0  0  0  0  0  0  0  0
   -5.2600   -8.5415   -0.5849 C   0  0  0  0  0  0  0  0  0  0  0  0
   -5.8949   -7.3232   -0.3428 C   0  0  0  0  0  0  0  0  0  0  0  0
   -5.1607   -6.1283   -0.3555 C   0  0  0  0  0  0  0  0  0  0  0  0
   -5.7492   -4.9251   -0.1231 O   0  0  0  0  0  0  0  0  0  0  0  0
    5.7516   -2.1798   -0.7275 H   0  0  0  0  0  0  0  0  0  0  0  0
    6.0300    0.0572   -0.5464 H   0  0  0  0  0  0  0  0  0  0  0  0
    4.9046    2.2319   -0.1210 H   0  0  0  0  0  0  0  0  0  0  0  0
    2.4439    2.3029    0.3347 H   0  0  0  0  0  0  0  0  0  0  0  0
    1.1401    0.1539    0.3547 H   0  0  0  0  0  0  0  0  0  0  0  0
    2.6222   -3.2579   -0.2591 H   0  0  0  0  0  0  0  0  0  0  0  0
   -0.3125   -3.7962    1.1611 H   0  0  0  0  0  0  0  0  0  0  0  0
    0.7770   -4.4807   -0.0741 H   0  0  0  0  0  0  0  0  0  0  0  0
   -0.6304   -3.4345   -1.8560 H   0  0  0  0  0  0  0  0  0  0  0  0
   -1.7202   -2.7505   -0.6207 H   0  0  0  0  0  0  0  0  0  0  0  0
   -3.5648   -3.9739   -0.4347 H   0  0  0  0  0  0  0  0  0  0  0  0
   -2.0827   -7.3849   -1.0533 H   0  0  0  0  0  0  0  0  0  0  0  0
   -3.3860   -9.5342   -1.0329 H   0  0  0  0  0  0  0  0  0  0  0  0
   -5.8458   -9.4642   -0.5717 H   0  0  0  0  0  0  0  0  0  0  0  0
   -6.9706   -7.2903   -0.1410 H   0  0  0  0  0  0  0  0  0  0  0  0
   -6.6933   -5.0528    0.0364 H   0  0  0  0  0  0  0  0  0  0  0  0
  1  2  1  0
  1 21  1  0
  2  3  2  0
  2  7  1  0
  3  4  1  0
  3 22  1  0
  4  5  2  0
  4 23  1  0
  5  6  1  0
  5 24  1  0
  6  7  2  0
  6 25  1  0
  7  8  1  0
  8  9  2  0
  8 26  1  0
  9 10  1  0
 10 11  1  0
 10 27  1  0
 10 28  1  0
 11 12  1  0
 11 29  1  0
 11 30  1  0
 12 13  2  0
 13 14  1  0
 13 31  1  0
 14 15  2  0
 14 19  1  0
 15 16  1  0
 15 32  1  0
 16 17  2  0
 16 33  1  0
 17 18  1  0
 17 34  1  0
 18 19  2  0
 18 35  1  0
 19 20  1  0
 20 36  1  0
M  END

