
     RDKit          3D

 64 65  0  0  0  0  0  0  0  0999 V2000
    4.9091    2.5898   -2.9607 C   0  0  0  0  0  0  0  0  0  0  0  0
    5.1089    1.0867   -2.7211 C   0  0  1  0  0  0  0  0  0  0  0  0
    5.8808    0.4520   -3.8878 C   0  0  0  0  0  0  0  0  0  0  0  0
    5.8228    0.7350   -1.3991 C   0  0  0  0  0  0  0  0  0  0  0  0
    5.1791    1.1620   -0.0432 C   0  0  2  0  0  0  0  0  0  0  0  0
    5.6707    0.5409    0.7230 H   0  0  0  0  0  0  0  0  0  0  0  0
    3.7359    0.7716   -0.0304 C   0  0  0  0  0  0  0  0  0  0  0  0
    2.6914    1.5233   -0.0980 N   0  0  0  0  0  0  0  0  0  0  0  0
    1.6332    0.6428   -0.1339 N   0  0  0  0  0  0  0  0  0  0  0  0
    0.2704    1.0934   -0.2737 C   0  0  0  0  0  0  0  0  0  0  0  0
    0.0348    1.9544   -1.5062 C   0  0  0  0  0  0  0  0  0  0  0  0
    0.3555    0.9887   -3.1873 Br  0  0  0  0  0  0  0  0  0  0  0  0
    2.0507   -0.6661   -0.0947 C   0  0  0  0  0  0  0  0  0  0  0  0
    1.4321   -1.6919   -0.0992 O   0  0  0  0  0  0  0  0  0  0  0  0
    3.4385   -0.5573   -0.0242 O   0  0  0  0  0  0  0  0  0  0  0  0
    5.3985    2.6332    0.3797 C   0  0  1  0  0  0  0  0  0  0  0  0
    4.8259    2.9745    1.7925 C   0  0  0  0  0  0  0  0  0  0  0  0
    5.2829    2.0728    2.9039 C   0  0  0  0  0  0  0  0  0  0  0  0
    4.4503    1.4225    3.7365 C   0  0  0  0  0  0  0  0  0  0  0  0
    4.8097    0.5442    4.8627 C   0  0  0  0  0  0  0  0  0  0  0  0
    6.1420    0.2529    5.2220 C   0  0  0  0  0  0  0  0  0  0  0  0
    6.4269   -0.5870    6.2971 C   0  0  0  0  0  0  0  0  0  0  0  0
    5.3904   -1.1598    7.0448 C   0  0  0  0  0  0  0  0  0  0  0  0
    4.0645   -0.8826    6.7034 C   0  0  0  0  0  0  0  0  0  0  0  0
    3.7807   -0.0411    5.6257 C   0  0  0  0  0  0  0  0  0  0  0  0
    6.8877    2.9676    0.3906 C   0  0  0  0  0  0  0  0  0  0  0  0
    7.7505    2.2165    0.7892 O   0  0  0  0  0  0  0  0  0  0  0  0
    7.0937    4.2185   -0.0433 O   0  0  0  0  0  0  0  0  0  0  0  0
    8.4222    4.8584   -0.0460 C   0  0  1  0  0  0  0  0  0  0  0  0
    9.3673    4.0935   -0.9776 C   0  0  0  0  0  0  0  0  0  0  0  0
    8.1245    6.2534   -0.5976 C   0  0  0  0  0  0  0  0  0  0  0  0
    8.9637    4.9421    1.3842 C   0  0  0  0  0  0  0  0  0  0  0  0
    4.5238    2.7698   -3.9773 H   0  0  0  0  0  0  0  0  0  0  0  0
    5.8571    3.1454   -2.8589 H   0  0  0  0  0  0  0  0  0  0  0  0
    4.1816    3.0248   -2.2603 H   0  0  0  0  0  0  0  0  0  0  0  0
    4.1065    0.6208   -2.7036 H   0  0  0  0  0  0  0  0  0  0  0  0
    6.8911    0.8874   -3.9776 H   0  0  0  0  0  0  0  0  0  0  0  0
    5.3608    0.6176   -4.8448 H   0  0  0  0  0  0  0  0  0  0  0  0
    5.9983   -0.6353   -3.7529 H   0  0  0  0  0  0  0  0  0  0  0  0
    6.8550    1.1210   -1.4205 H   0  0  0  0  0  0  0  0  0  0  0  0
    5.9227   -0.3619   -1.3638 H   0  0  0  0  0  0  0  0  0  0  0  0
   -0.0150    1.6912    0.6120 H   0  0  0  0  0  0  0  0  0  0  0  0
   -0.3536    0.1883   -0.2891 H   0  0  0  0  0  0  0  0  0  0  0  0
    0.7090    2.8193   -1.5189 H   0  0  0  0  0  0  0  0  0  0  0  0
   -1.0068    2.2984   -1.5378 H   0  0  0  0  0  0  0  0  0  0  0  0
    4.9151    3.3161   -0.3280 H   0  0  0  0  0  0  0  0  0  0  0  0
    3.7288    2.9751    1.7308 H   0  0  0  0  0  0  0  0  0  0  0  0
    5.1279    4.0153    2.0118 H   0  0  0  0  0  0  0  0  0  0  0  0
    6.3663    1.9622    3.0214 H   0  0  0  0  0  0  0  0  0  0  0  0
    3.3710    1.5499    3.5842 H   0  0  0  0  0  0  0  0  0  0  0  0
    6.9667    0.6868    4.6523 H   0  0  0  0  0  0  0  0  0  0  0  0
    7.4678   -0.7989    6.5553 H   0  0  0  0  0  0  0  0  0  0  0  0
    5.6176   -1.8185    7.8868 H   0  0  0  0  0  0  0  0  0  0  0  0
    3.2459   -1.3244    7.2777 H   0  0  0  0  0  0  0  0  0  0  0  0
    2.7397    0.1695    5.3639 H   0  0  0  0  0  0  0  0  0  0  0  0
    8.9290    4.0064   -1.9841 H   0  0  0  0  0  0  0  0  0  0  0  0
    9.5785    3.0876   -0.5935 H   0  0  0  0  0  0  0  0  0  0  0  0
   10.3176    4.6424   -1.0683 H   0  0  0  0  0  0  0  0  0  0  0  0
    7.6928    6.1875   -1.6076 H   0  0  0  0  0  0  0  0  0  0  0  0
    9.0498    6.8467   -0.6515 H   0  0  0  0  0  0  0  0  0  0  0  0
    7.4081    6.7818    0.0494 H   0  0  0  0  0  0  0  0  0  0  0  0
    9.1749    3.9450    1.7909 H   0  0  0  0  0  0  0  0  0  0  0  0
    8.2407    5.4503    2.0415 H   0  0  0  0  0  0  0  0  0  0  0  0
    9.8962    5.5276    1.3903 H   0  0  0  0  0  0  0  0  0  0  0  0
  1  2  1  0
  1 33  1  0
  1 34  1  0
  1 35  1  0
  2  3  1  0
  2  4  1  0
  2 36  1  1
  3 37  1  0
  3 38  1  0
  3 39  1  0
  4  5  1  0
  4 40  1  0
  4 41  1  0
  5  6  1  1
  5  7  1  0
  5 16  1  0
  7  8  2  0
  7 15  1  0
  8  9  1  0
  9 10  1  0
  9 13  1  0
 10 11  1  0
 10 42  1  0
 10 43  1  0
 11 12  1  0
 11 44  1  0
 11 45  1  0
 13 14  2  0
 13 15  1  0
 16 17  1  0
 16 26  1  0
 16 46  1  6
 17 18  1  0
 17 47  1  0
 17 48  1  0
 18 19  2  0
 18 49  1  0
 19 20  1  0
 19 50  1  0
 20 21  2  0
 20 25  1  0
 21 22  1  0
 21 51  1  0
 22 23  2  0
 22 52  1  0
 23 24  1  0
 23 53  1  0
 24 25  2  0
 24 54  1  0
 25 55  1  0
 26 27  2  0
 26 28  1  0
 29 28  1  1
 29 30  1  0
 29 31  1  0
 29 32  1  0
 30 56  1  0
 30 57  1  0
 30 58  1  0
 31 59  1  0
 31 60  1  0
 31 61  1  0
 32 62  1  0
 32 63  1  0
 32 64  1  0
M  END

