
     RDKit          3D

 51 54  0  0  0  0  0  0  0  0999 V2000
   -0.3580  -13.2170    5.0976 C   0  0  0  0  0  0  0  0  0  0  0  0
    0.8769  -12.8891    5.6920 O   0  0  0  0  0  0  0  0  0  0  0  0
    1.6694  -11.9553    5.1055 C   0  0  0  0  0  0  0  0  0  0  0  0
    2.8840  -11.6749    5.7538 C   0  0  0  0  0  0  0  0  0  0  0  0
    3.7620  -10.7352    5.2211 C   0  0  0  0  0  0  0  0  0  0  0  0
    3.4603  -10.0418    4.0373 C   0  0  0  0  0  0  0  0  0  0  0  0
    4.4064   -8.9923    3.4864 C   0  0  0  0  0  0  0  0  0  0  0  0
    4.5927   -9.0849    2.0495 N   0  0  0  0  0  0  0  0  0  0  0  0
    4.3626   -8.0444    1.2077 C   0  0  0  0  0  0  0  0  0  0  0  0
    4.0451   -6.9241    1.5670 O   0  0  0  0  0  0  0  0  0  0  0  0
    4.5673   -8.3025   -0.2926 C   0  0  0  0  0  0  0  0  0  0  0  0
    4.7813  -10.0153   -0.8849 S   0  0  0  0  0  0  0  0  0  0  0  0
    3.0959  -10.5992   -0.9072 C   0  0  0  0  0  0  0  0  0  0  0  0
    2.1413   -9.7682   -0.5070 N   0  0  0  0  0  0  0  0  0  0  0  0
    0.8655  -10.1798   -0.5458 C   0  0  0  0  0  0  0  0  0  0  0  0
    0.4356  -11.3668   -0.9521 N   0  0  0  0  0  0  0  0  0  0  0  0
    1.3958  -12.1989   -1.3488 C   0  0  0  0  0  0  0  0  0  0  0  0
    1.0743  -13.8127   -1.9406 S   0  0  0  0  0  0  0  0  0  0  0  0
    2.7901  -14.0902   -2.1934 C   0  0  0  0  0  0  0  0  0  0  0  0
    3.5772  -13.0233   -1.8433 C   0  0  0  0  0  0  0  0  0  0  0  0
    2.7870  -11.9096   -1.3600 C   0  0  0  0  0  0  0  0  0  0  0  0
    5.0810  -13.0814   -1.9836 C   0  0  0  0  0  0  0  0  0  0  0  0
    5.5850  -14.5138   -2.2130 C   0  0  0  0  0  0  0  0  0  0  0  0
    4.7415  -15.2785   -3.2442 C   0  0  1  0  0  0  0  0  0  0  0  0
    4.7214  -14.6771   -4.1727 H   0  0  0  0  0  0  0  0  0  0  0  0
    5.3303  -16.6512   -3.5755 C   0  0  0  0  0  0  0  0  0  0  0  0
    3.2906  -15.3969   -2.7403 C   0  0  0  0  0  0  0  0  0  0  0  0
    2.2475  -10.3315    3.4000 C   0  0  0  0  0  0  0  0  0  0  0  0
    1.3554  -11.2765    3.9173 C   0  0  0  0  0  0  0  0  0  0  0  0
   -0.8210  -13.9807    5.7372 H   0  0  0  0  0  0  0  0  0  0  0  0
   -0.2302  -13.6322    4.0813 H   0  0  0  0  0  0  0  0  0  0  0  0
   -1.0330  -12.3438    5.0396 H   0  0  0  0  0  0  0  0  0  0  0  0
    3.1183  -12.2150    6.6734 H   0  0  0  0  0  0  0  0  0  0  0  0
    4.7056  -10.5352    5.7380 H   0  0  0  0  0  0  0  0  0  0  0  0
    5.3782   -9.0670    4.0062 H   0  0  0  0  0  0  0  0  0  0  0  0
    4.0243   -7.9753    3.6713 H   0  0  0  0  0  0  0  0  0  0  0  0
    4.8309   -9.9841    1.6426 H   0  0  0  0  0  0  0  0  0  0  0  0
    5.4862   -7.7819   -0.6045 H   0  0  0  0  0  0  0  0  0  0  0  0
    3.7185   -7.8446   -0.8150 H   0  0  0  0  0  0  0  0  0  0  0  0
    0.1111   -9.4603   -0.2081 H   0  0  0  0  0  0  0  0  0  0  0  0
    5.5612  -12.6589   -1.0869 H   0  0  0  0  0  0  0  0  0  0  0  0
    5.3951  -12.4313   -2.8207 H   0  0  0  0  0  0  0  0  0  0  0  0
    5.5647  -15.0698   -1.2576 H   0  0  0  0  0  0  0  0  0  0  0  0
    6.6395  -14.4846   -2.5329 H   0  0  0  0  0  0  0  0  0  0  0  0
    5.4026  -17.2804   -2.6720 H   0  0  0  0  0  0  0  0  0  0  0  0
    6.3429  -16.5589   -3.9995 H   0  0  0  0  0  0  0  0  0  0  0  0
    4.7080  -17.1903   -4.3082 H   0  0  0  0  0  0  0  0  0  0  0  0
    3.2362  -16.1734   -1.9527 H   0  0  0  0  0  0  0  0  0  0  0  0
    2.6324  -15.7488   -3.5532 H   0  0  0  0  0  0  0  0  0  0  0  0
    1.9923   -9.8134    2.4720 H   0  0  0  0  0  0  0  0  0  0  0  0
    0.4238  -11.4733    3.3863 H   0  0  0  0  0  0  0  0  0  0  0  0
  1  2  1  0
  1 30  1  0
  1 31  1  0
  1 32  1  0
  2  3  1  0
  3  4  2  0
  3 29  1  0
  4  5  1  0
  4 33  1  0
  5  6  2  0
  5 34  1  0
  6  7  1  0
  6 28  1  0
  7  8  1  0
  7 35  1  0
  7 36  1  0
  8  9  1  0
  8 37  1  0
  9 10  2  0
  9 11  1  0
 11 12  1  0
 11 38  1  0
 11 39  1  0
 12 13  1  0
 13 14  2  0
 13 21  1  0
 14 15  1  0
 15 16  2  0
 15 40  1  0
 16 17  1  0
 17 18  1  0
 17 21  2  0
 18 19  1  0
 19 20  2  0
 19 27  1  0
 20 21  1  0
 20 22  1  0
 22 23  1  0
 22 41  1  0
 22 42  1  0
 23 24  1  0
 23 43  1  0
 23 44  1  0
 24 25  1  6
 24 26  1  0
 24 27  1  0
 26 45  1  0
 26 46  1  0
 26 47  1  0
 27 48  1  0
 27 49  1  0
 28 29  2  0
 28 50  1  0
 29 51  1  0
M  END

