
     RDKit          3D

 28 29  0  0  0  0  0  0  0  0999 V2000
    2.9741   -0.5212    1.2706 C   0  0  0  0  0  0  0  0  0  0  0  0
    2.5665   -0.0436   -0.1071 C   0  0  0  0  0  0  0  0  0  0  0  0
    1.6599   -0.5519   -0.7254 O   0  0  0  0  0  0  0  0  0  0  0  0
    3.4028    1.1041   -0.7394 C   0  0  1  0  0  0  0  0  0  0  0  0
    2.6808    1.7820   -1.9158 C   0  0  0  0  0  0  0  0  0  0  0  0
    1.5907    2.7505   -1.4422 C   0  0  0  0  0  0  0  0  0  0  0  0
    2.1572    3.7563   -0.4344 C   0  0  0  0  0  0  0  0  0  0  0  0
    2.8411    3.0379    0.7306 C   0  0  0  0  0  0  0  0  0  0  0  0
    3.8455    2.0827    0.2483 N   0  0  0  0  0  0  0  0  0  0  0  0
    5.1308    2.1611    0.6987 C   0  0  0  0  0  0  0  0  0  0  0  0
    5.5539    3.0436    1.5676 N   0  0  0  0  0  0  0  0  0  0  0  0
    6.8823    2.8836    1.8136 C   0  0  0  0  0  0  0  0  0  0  0  0
    7.7354    4.0525    3.0389 Br  0  0  0  0  0  0  0  0  0  0  0  0
    7.5379    1.8805    1.1632 C   0  0  0  0  0  0  0  0  0  0  0  0
    6.3949    1.0427    0.1357 S   0  0  0  0  0  0  0  0  0  0  0  0
    2.4304   -1.4449    1.5073 H   0  0  0  0  0  0  0  0  0  0  0  0
    2.7383    0.2438    2.0284 H   0  0  0  0  0  0  0  0  0  0  0  0
    4.0612   -0.6927    1.3237 H   0  0  0  0  0  0  0  0  0  0  0  0
    4.2984    0.5954   -1.1386 H   0  0  0  0  0  0  0  0  0  0  0  0
    2.2542    0.9986   -2.5576 H   0  0  0  0  0  0  0  0  0  0  0  0
    3.4337    2.3308   -2.5061 H   0  0  0  0  0  0  0  0  0  0  0  0
    0.7696    2.1780   -0.9763 H   0  0  0  0  0  0  0  0  0  0  0  0
    1.1532    3.2735   -2.3079 H   0  0  0  0  0  0  0  0  0  0  0  0
    1.3607    4.4065   -0.0364 H   0  0  0  0  0  0  0  0  0  0  0  0
    2.8918    4.4145   -0.9308 H   0  0  0  0  0  0  0  0  0  0  0  0
    2.0828    2.4954    1.3295 H   0  0  0  0  0  0  0  0  0  0  0  0
    3.3509    3.7385    1.4024 H   0  0  0  0  0  0  0  0  0  0  0  0
    8.5824    1.5860    1.2168 H   0  0  0  0  0  0  0  0  0  0  0  0
  1  2  1  0
  1 16  1  0
  1 17  1  0
  1 18  1  0
  2  3  2  0
  2  4  1  0
  4  5  1  0
  4  9  1  0
  4 19  1  6
  5  6  1  0
  5 20  1  0
  5 21  1  0
  6  7  1  0
  6 22  1  0
  6 23  1  0
  7  8  1  0
  7 24  1  0
  7 25  1  0
  8  9  1  0
  8 26  1  0
  8 27  1  0
  9 10  1  0
 10 11  2  0
 10 15  1  0
 11 12  1  0
 12 13  1  0
 12 14  2  0
 14 15  1  0
 14 28  1  0
M  END

