
     RDKit          3D

 48 50  0  0  0  0  0  0  0  0999 V2000
    0.4935   -0.4629    1.2534 C   0  0  0  0  0  0  0  0  0  0  0  0
    1.9459   -0.2589    0.8978 C   0  0  0  0  0  0  0  0  0  0  0  0
    2.3279    0.3652   -0.2963 C   0  0  0  0  0  0  0  0  0  0  0  0
    3.6784    0.5323   -0.6237 C   0  0  0  0  0  0  0  0  0  0  0  0
    4.6883    0.0780    0.2314 C   0  0  0  0  0  0  0  0  0  0  0  0
    6.1594    0.3073   -0.1137 C   0  0  1  0  0  0  0  0  0  0  0  0
    6.7613    1.3020    0.7534 N   0  0  0  0  0  0  0  0  0  0  0  0
    7.8345    0.8635    1.4646 C   0  0  0  0  0  0  0  0  0  0  0  0
    8.4384    1.5104    2.3032 O   0  0  0  0  0  0  0  0  0  0  0  0
    8.0797   -0.5642    0.9880 C   0  0  0  0  0  0  0  0  0  0  0  0
    7.0893   -0.8886    0.0759 C   0  0  0  0  0  0  0  0  0  0  0  0
    6.9134   -2.1210   -0.7050 C   0  0  0  0  0  0  0  0  0  0  0  0
    6.2327   -2.0164   -2.0606 C   0  0  0  0  0  0  0  0  0  0  0  0
    7.1031   -1.3934   -3.1788 C   0  0  1  0  0  0  0  0  0  0  0  0
    8.3229   -2.2621   -3.5076 C   0  0  0  0  0  0  0  0  0  0  0  0
    6.2573   -1.1377   -4.4330 C   0  0  0  0  0  0  0  0  0  0  0  0
    7.3128   -3.2936   -0.3528 N   0  0  0  0  0  0  0  0  0  0  0  0
    7.9425   -3.4658    0.9327 C   0  0  0  0  0  0  0  0  0  0  0  0
    9.2714   -2.7098    1.0979 C   0  0  0  0  0  0  0  0  0  0  0  0
    9.1164   -1.3071    1.4587 N   0  0  0  0  0  0  0  0  0  0  0  0
   10.2475   -0.7497    2.1930 C   0  0  0  0  0  0  0  0  0  0  0  0
    4.3104   -0.5450    1.4316 C   0  0  0  0  0  0  0  0  0  0  0  0
    2.9658   -0.7080    1.7571 C   0  0  0  0  0  0  0  0  0  0  0  0
   -0.1723    0.0830    0.5688 H   0  0  0  0  0  0  0  0  0  0  0  0
    0.2789   -0.1230    2.2797 H   0  0  0  0  0  0  0  0  0  0  0  0
    0.2181   -1.5306    1.2051 H   0  0  0  0  0  0  0  0  0  0  0  0
    1.5594    0.7283   -0.9848 H   0  0  0  0  0  0  0  0  0  0  0  0
    3.9468    1.0256   -1.5630 H   0  0  0  0  0  0  0  0  0  0  0  0
    6.2029    0.6601   -1.1603 H   0  0  0  0  0  0  0  0  0  0  0  0
    6.3269    2.1912    0.9693 H   0  0  0  0  0  0  0  0  0  0  0  0
    5.3004   -1.4366   -1.9668 H   0  0  0  0  0  0  0  0  0  0  0  0
    5.9476   -3.0389   -2.3519 H   0  0  0  0  0  0  0  0  0  0  0  0
    7.4746   -0.4152   -2.8191 H   0  0  0  0  0  0  0  0  0  0  0  0
    8.0091   -3.2430   -3.9031 H   0  0  0  0  0  0  0  0  0  0  0  0
    8.9416   -2.4535   -2.6183 H   0  0  0  0  0  0  0  0  0  0  0  0
    8.9578   -1.7793   -4.2686 H   0  0  0  0  0  0  0  0  0  0  0  0
    5.8416   -2.0815   -4.8257 H   0  0  0  0  0  0  0  0  0  0  0  0
    6.8582   -0.6797   -5.2355 H   0  0  0  0  0  0  0  0  0  0  0  0
    5.4094   -0.4653   -4.2218 H   0  0  0  0  0  0  0  0  0  0  0  0
    8.1534   -4.5385    1.0729 H   0  0  0  0  0  0  0  0  0  0  0  0
    7.2675   -3.1625    1.7576 H   0  0  0  0  0  0  0  0  0  0  0  0
    9.8632   -2.8203    0.1692 H   0  0  0  0  0  0  0  0  0  0  0  0
    9.8611   -3.1795    1.9033 H   0  0  0  0  0  0  0  0  0  0  0  0
   10.4276   -1.3457    3.1044 H   0  0  0  0  0  0  0  0  0  0  0  0
   10.0452    0.2853    2.4805 H   0  0  0  0  0  0  0  0  0  0  0  0
   11.1663   -0.7913    1.5785 H   0  0  0  0  0  0  0  0  0  0  0  0
    5.0820   -0.9078    2.1158 H   0  0  0  0  0  0  0  0  0  0  0  0
    2.6973   -1.1976    2.6981 H   0  0  0  0  0  0  0  0  0  0  0  0
  1  2  1  0
  1 24  1  0
  1 25  1  0
  1 26  1  0
  2  3  2  0
  2 23  1  0
  3  4  1  0
  3 27  1  0
  4  5  2  0
  4 28  1  0
  5  6  1  0
  5 22  1  0
  6  7  1  0
  6 11  1  0
  6 29  1  6
  7  8  1  0
  7 30  1  0
  8  9  2  0
  8 10  1  0
 10 11  2  0
 10 20  1  0
 11 12  1  0
 12 13  1  0
 12 17  2  0
 13 14  1  0
 13 31  1  0
 13 32  1  0
 14 15  1  0
 14 16  1  0
 14 33  1  1
 15 34  1  0
 15 35  1  0
 15 36  1  0
 16 37  1  0
 16 38  1  0
 16 39  1  0
 17 18  1  0
 18 19  1  0
 18 40  1  0
 18 41  1  0
 19 20  1  0
 19 42  1  0
 19 43  1  0
 20 21  1  0
 21 44  1  0
 21 45  1  0
 21 46  1  0
 22 23  2  0
 22 47  1  0
 23 48  1  0
M  END

