
     RDKit          3D

 50 50  0  0  0  0  0  0  0  0999 V2000
    4.6737   -1.1655    4.1954 C   0  0  0  0  0  0  0  0  0  0  0  0
    4.4097    0.3338    4.0494 C   0  0  0  0  0  0  0  0  0  0  0  0
    4.7689    0.8830    2.6649 C   0  0  0  0  0  0  0  0  0  0  0  0
    4.4826    2.3805    2.5183 C   0  0  0  0  0  0  0  0  0  0  0  0
    4.8390    2.9767    1.1352 C   0  0  2  0  0  0  0  0  0  0  0  0
    4.4965    4.0233    1.1308 H   0  0  0  0  0  0  0  0  0  0  0  0
    4.1211    2.2795    0.0759 N   0  0  0  0  0  0  0  0  0  0  0  0
    6.3714    2.9282    0.9034 C   0  0  0  0  0  0  0  0  0  0  0  0
    6.8380    2.0181    0.2256 O   0  0  0  0  0  0  0  0  0  0  0  0
    7.1730    3.8749    1.4889 N   0  0  0  0  0  0  0  0  0  0  0  0
    8.6239    3.7827    1.3249 C   0  0  0  0  0  0  0  0  0  0  0  0
    9.2026    5.0931    0.7823 C   0  0  0  0  0  0  0  0  0  0  0  0
    8.8315    6.3217    1.6387 C   0  0  2  0  0  0  0  0  0  0  0  0
    9.4618    6.3114    2.9683 N   0  0  0  0  0  0  0  0  0  0  0  0
   10.8529    5.8679    3.0573 C   0  0  0  0  0  0  0  0  0  0  0  0
   11.8993    6.7016    2.2992 C   0  0  0  0  0  0  0  0  0  0  0  0
    9.2048    7.4955    3.7946 C   0  0  0  0  0  0  0  0  0  0  0  0
    8.7689    7.1520    5.2202 C   0  0  0  0  0  0  0  0  0  0  0  0
    7.2898    6.3271    1.7577 C   0  0  0  0  0  0  0  0  0  0  0  0
    6.7389    5.0044    2.3048 C   0  0  0  0  0  0  0  0  0  0  0  0
    4.4054   -1.5296    5.2003 H   0  0  0  0  0  0  0  0  0  0  0  0
    5.7377   -1.4027    4.0276 H   0  0  0  0  0  0  0  0  0  0  0  0
    4.0892   -1.7472    3.4630 H   0  0  0  0  0  0  0  0  0  0  0  0
    4.9795    0.8848    4.8205 H   0  0  0  0  0  0  0  0  0  0  0  0
    3.3446    0.5431    4.2589 H   0  0  0  0  0  0  0  0  0  0  0  0
    4.1936    0.3354    1.8985 H   0  0  0  0  0  0  0  0  0  0  0  0
    5.8331    0.6777    2.4527 H   0  0  0  0  0  0  0  0  0  0  0  0
    5.0175    2.9356    3.3093 H   0  0  0  0  0  0  0  0  0  0  0  0
    3.4055    2.5588    2.6786 H   0  0  0  0  0  0  0  0  0  0  0  0
    4.6729    1.4550   -0.1749 H   0  0  0  0  0  0  0  0  0  0  0  0
    4.1290    2.8529   -0.7683 H   0  0  0  0  0  0  0  0  0  0  0  0
    8.8215    2.9490    0.6406 H   0  0  0  0  0  0  0  0  0  0  0  0
    9.0802    3.5389    2.3015 H   0  0  0  0  0  0  0  0  0  0  0  0
    8.7968    5.2634   -0.2287 H   0  0  0  0  0  0  0  0  0  0  0  0
   10.2906    4.9931    0.6594 H   0  0  0  0  0  0  0  0  0  0  0  0
    9.1276    7.2296    1.0658 H   0  0  0  0  0  0  0  0  0  0  0  0
   10.9255    4.8167    2.7364 H   0  0  0  0  0  0  0  0  0  0  0  0
   11.1182    5.8538    4.1277 H   0  0  0  0  0  0  0  0  0  0  0  0
   11.7300    6.6891    1.2108 H   0  0  0  0  0  0  0  0  0  0  0  0
   12.9097    6.3004    2.4812 H   0  0  0  0  0  0  0  0  0  0  0  0
   11.9011    7.7549    2.6220 H   0  0  0  0  0  0  0  0  0  0  0  0
    8.4282    8.1145    3.3210 H   0  0  0  0  0  0  0  0  0  0  0  0
   10.0984    8.1502    3.8366 H   0  0  0  0  0  0  0  0  0  0  0  0
    7.8202    6.5925    5.2200 H   0  0  0  0  0  0  0  0  0  0  0  0
    8.6313    8.0663    5.8212 H   0  0  0  0  0  0  0  0  0  0  0  0
    9.5206    6.5284    5.7303 H   0  0  0  0  0  0  0  0  0  0  0  0
    6.8667    6.5081    0.7549 H   0  0  0  0  0  0  0  0  0  0  0  0
    6.9392    7.1515    2.3966 H   0  0  0  0  0  0  0  0  0  0  0  0
    5.6452    5.0458    2.3458 H   0  0  0  0  0  0  0  0  0  0  0  0
    7.1016    4.8633    3.3387 H   0  0  0  0  0  0  0  0  0  0  0  0
  1  2  1  0
  1 21  1  0
  1 22  1  0
  1 23  1  0
  2  3  1  0
  2 24  1  0
  2 25  1  0
  3  4  1  0
  3 26  1  0
  3 27  1  0
  4  5  1  0
  4 28  1  0
  4 29  1  0
  5  6  1  1
  5  7  1  0
  5  8  1  0
  7 30  1  0
  7 31  1  0
  8  9  2  0
  8 10  1  0
 10 11  1  0
 10 20  1  0
 11 12  1  0
 11 32  1  0
 11 33  1  0
 12 13  1  0
 12 34  1  0
 12 35  1  0
 13 14  1  0
 13 19  1  0
 13 36  1  6
 14 15  1  0
 14 17  1  0
 15 16  1  0
 15 37  1  0
 15 38  1  0
 16 39  1  0
 16 40  1  0
 16 41  1  0
 17 18  1  0
 17 42  1  0
 17 43  1  0
 18 44  1  0
 18 45  1  0
 18 46  1  0
 19 20  1  0
 19 47  1  0
 19 48  1  0
 20 49  1  0
 20 50  1  0
M  END

