
     RDKit          3D

 49 49  0  0  0  0  0  0  0  0999 V2000
    8.6443    2.4534    2.6538 C   0  0  0  0  0  0  0  0  0  0  0  0
    8.5352    1.1310    1.8933 C   0  0  0  0  0  0  0  0  0  0  0  0
    7.1203    0.8347    1.3878 C   0  0  0  0  0  0  0  0  0  0  0  0
    6.9818   -0.4813    0.6113 C   0  0  0  0  0  0  0  0  0  0  0  0
    7.2706   -1.6712    1.3953 N   0  0  0  0  0  0  0  0  0  0  0  0
    6.2955   -2.4186    1.9736 C   0  0  0  0  0  0  0  0  0  0  0  0
    5.1008   -2.1855    1.9015 O   0  0  0  0  0  0  0  0  0  0  0  0
    6.7864   -3.6291    2.7671 C   0  0  0  0  0  0  0  0  0  0  0  0
    8.1937   -3.7975    2.6431 O   0  0  0  0  0  0  0  0  0  0  0  0
    8.7858   -4.7468    3.4660 C   0  0  0  0  0  0  0  0  0  0  0  0
    9.1668   -4.3834    4.7708 C   0  0  0  0  0  0  0  0  0  0  0  0
    8.9113   -2.9939    5.3005 C   0  0  0  0  0  0  0  0  0  0  0  0
    9.8018   -5.3557    5.5595 C   0  0  0  0  0  0  0  0  0  0  0  0
   10.0480   -6.6370    5.0660 C   0  0  0  0  0  0  0  0  0  0  0  0
    9.6727   -6.9643    3.7606 C   0  0  0  0  0  0  0  0  0  0  0  0
    9.0364   -6.0270    2.9370 C   0  0  0  0  0  0  0  0  0  0  0  0
    8.6618   -6.3572    1.4950 C   0  0  0  0  0  0  0  0  0  0  0  0
    9.3788   -5.6343    0.4542 N   0  0  0  0  0  0  0  0  0  0  0  0
   10.8152   -5.8531    0.3978 C   0  0  0  0  0  0  0  0  0  0  0  0
   11.4435   -5.1050   -0.7782 C   0  0  0  0  0  0  0  0  0  0  0  0
   12.9472   -5.3429   -0.9155 C   0  0  0  0  0  0  0  0  0  0  0  0
    9.6726    2.6358    3.0045 H   0  0  0  0  0  0  0  0  0  0  0  0
    7.9841    2.4619    3.5372 H   0  0  0  0  0  0  0  0  0  0  0  0
    8.3530    3.3063    2.0182 H   0  0  0  0  0  0  0  0  0  0  0  0
    8.8689    0.3065    2.5490 H   0  0  0  0  0  0  0  0  0  0  0  0
    9.2338    1.1394    1.0358 H   0  0  0  0  0  0  0  0  0  0  0  0
    6.7885    1.6551    0.7257 H   0  0  0  0  0  0  0  0  0  0  0  0
    6.4134    0.8188    2.2359 H   0  0  0  0  0  0  0  0  0  0  0  0
    7.6492   -0.4725   -0.2681 H   0  0  0  0  0  0  0  0  0  0  0  0
    5.9495   -0.5858    0.2474 H   0  0  0  0  0  0  0  0  0  0  0  0
    8.2273   -1.9701    1.5474 H   0  0  0  0  0  0  0  0  0  0  0  0
    6.2399   -4.5141    2.3968 H   0  0  0  0  0  0  0  0  0  0  0  0
    6.4904   -3.4790    3.8198 H   0  0  0  0  0  0  0  0  0  0  0  0
    9.0085   -2.2385    4.5069 H   0  0  0  0  0  0  0  0  0  0  0  0
    9.6153   -2.7456    6.1083 H   0  0  0  0  0  0  0  0  0  0  0  0
    7.8933   -2.8951    5.7166 H   0  0  0  0  0  0  0  0  0  0  0  0
   10.1132   -5.0935    6.5747 H   0  0  0  0  0  0  0  0  0  0  0  0
   10.5453   -7.3789    5.6958 H   0  0  0  0  0  0  0  0  0  0  0  0
    9.8766   -7.9646    3.3676 H   0  0  0  0  0  0  0  0  0  0  0  0
    7.5843   -6.1761    1.3444 H   0  0  0  0  0  0  0  0  0  0  0  0
    8.8155   -7.4381    1.3362 H   0  0  0  0  0  0  0  0  0  0  0  0
    9.1743   -4.6394    0.5368 H   0  0  0  0  0  0  0  0  0  0  0  0
   10.9908   -6.9383    0.2726 H   0  0  0  0  0  0  0  0  0  0  0  0
   11.3460   -5.5686    1.3348 H   0  0  0  0  0  0  0  0  0  0  0  0
   11.2516   -4.0222   -0.6564 H   0  0  0  0  0  0  0  0  0  0  0  0
   10.9185   -5.4042   -1.7012 H   0  0  0  0  0  0  0  0  0  0  0  0
   13.4912   -5.0276   -0.0093 H   0  0  0  0  0  0  0  0  0  0  0  0
   13.3669   -4.7831   -1.7661 H   0  0  0  0  0  0  0  0  0  0  0  0
   13.1710   -6.4105   -1.0790 H   0  0  0  0  0  0  0  0  0  0  0  0
  1  2  1  0
  1 22  1  0
  1 23  1  0
  1 24  1  0
  2  3  1  0
  2 25  1  0
  2 26  1  0
  3  4  1  0
  3 27  1  0
  3 28  1  0
  4  5  1  0
  4 29  1  0
  4 30  1  0
  5  6  1  0
  5 31  1  0
  6  7  2  0
  6  8  1  0
  8  9  1  0
  8 32  1  0
  8 33  1  0
  9 10  1  0
 10 11  2  0
 10 16  1  0
 11 12  1  0
 11 13  1  0
 12 34  1  0
 12 35  1  0
 12 36  1  0
 13 14  2  0
 13 37  1  0
 14 15  1  0
 14 38  1  0
 15 16  2  0
 15 39  1  0
 16 17  1  0
 17 18  1  0
 17 40  1  0
 17 41  1  0
 18 19  1  0
 18 42  1  0
 19 20  1  0
 19 43  1  0
 19 44  1  0
 20 21  1  0
 20 45  1  0
 20 46  1  0
 21 47  1  0
 21 48  1  0
 21 49  1  0
M  END

