
     RDKit          3D

 40 41  0  0  0  0  0  0  0  0999 V2000
    4.3126   -0.8037   -3.1545 O   0  0  0  0  0  0  0  0  0  0  0  0
    4.3249   -1.3172   -2.0417 C   0  0  0  0  0  0  0  0  0  0  0  0
    3.1032   -1.3812   -1.1300 C   0  0  0  0  0  0  0  0  0  0  0  0
    1.8818   -2.1542   -1.7266 C   0  0  1  0  0  0  0  0  0  0  0  0
    0.9308   -2.3445   -0.5103 C   0  0  0  0  0  0  0  0  0  0  0  0
    1.1840   -3.0946    0.3948 O   0  0  0  0  0  0  0  0  0  0  0  0
   -0.1934   -1.5998   -0.4718 O   0  0  0  0  0  0  0  0  0  0  0  0
    1.2580   -1.3248   -2.8754 C   0  0  0  0  0  0  0  0  0  0  0  0
    0.1450   -1.9634   -3.7277 C   0  0  0  0  0  0  0  0  0  0  0  0
    0.6432   -3.0661   -4.6761 C   0  0  0  0  0  0  0  0  0  0  0  0
    0.7779   -4.4731   -4.0635 C   0  0  0  0  0  0  0  0  0  0  0  0
    1.2258   -4.5381   -2.5930 C   0  0  0  0  0  0  0  0  0  0  0  0
    2.3441   -3.5690   -2.1708 C   0  0  0  0  0  0  0  0  0  0  0  0
    5.4571   -1.8690   -1.5304 N   0  0  0  0  0  0  0  0  0  0  0  0
    6.6930   -1.8513   -2.2774 C   0  0  0  0  0  0  0  0  0  0  0  0
    7.7832   -2.4297   -1.4272 C   0  0  0  0  0  0  0  0  0  0  0  0
    7.6267   -2.9246   -0.2132 N   0  0  0  0  0  0  0  0  0  0  0  0
    8.8840   -3.3250    0.1304 C   0  0  0  0  0  0  0  0  0  0  0  0
    9.8022   -3.1087   -0.7930 N   0  0  0  0  0  0  0  0  0  0  0  0
    9.0848   -2.5356   -1.7835 N   0  0  0  0  0  0  0  0  0  0  0  0
    9.5399   -2.2519   -2.6442 H   0  0  0  0  0  0  0  0  0  0  0  0
    2.8059   -0.3400   -0.9189 H   0  0  0  0  0  0  0  0  0  0  0  0
    3.3700   -1.8459   -0.1699 H   0  0  0  0  0  0  0  0  0  0  0  0
   -0.2486   -1.0419   -1.2608 H   0  0  0  0  0  0  0  0  0  0  0  0
    2.0824   -1.0273   -3.5405 H   0  0  0  0  0  0  0  0  0  0  0  0
    0.9027   -0.3602   -2.4595 H   0  0  0  0  0  0  0  0  0  0  0  0
   -0.2940   -1.1547   -4.3359 H   0  0  0  0  0  0  0  0  0  0  0  0
   -0.6799   -2.3443   -3.0982 H   0  0  0  0  0  0  0  0  0  0  0  0
    1.6153   -2.7420   -5.0866 H   0  0  0  0  0  0  0  0  0  0  0  0
   -0.0336   -3.1316   -5.5444 H   0  0  0  0  0  0  0  0  0  0  0  0
    1.4814   -5.0522   -4.6870 H   0  0  0  0  0  0  0  0  0  0  0  0
   -0.1882   -5.0012   -4.1440 H   0  0  0  0  0  0  0  0  0  0  0  0
    1.5607   -5.5676   -2.3855 H   0  0  0  0  0  0  0  0  0  0  0  0
    0.3565   -4.3930   -1.9303 H   0  0  0  0  0  0  0  0  0  0  0  0
    3.0777   -3.4593   -2.9868 H   0  0  0  0  0  0  0  0  0  0  0  0
    2.8805   -4.0082   -1.3169 H   0  0  0  0  0  0  0  0  0  0  0  0
    5.4895   -2.2970   -0.6088 H   0  0  0  0  0  0  0  0  0  0  0  0
    6.9410   -0.8193   -2.5867 H   0  0  0  0  0  0  0  0  0  0  0  0
    6.5921   -2.4252   -3.2183 H   0  0  0  0  0  0  0  0  0  0  0  0
    9.1259   -3.7875    1.0866 H   0  0  0  0  0  0  0  0  0  0  0  0
  1  2  2  0
  2  3  1  0
  2 14  1  0
  3  4  1  0
  3 22  1  0
  3 23  1  0
  4  5  1  1
  4  8  1  0
  4 13  1  0
  5  6  2  0
  5  7  1  0
  7 24  1  0
  8  9  1  0
  8 25  1  0
  8 26  1  0
  9 10  1  0
  9 27  1  0
  9 28  1  0
 10 11  1  0
 10 29  1  0
 10 30  1  0
 11 12  1  0
 11 31  1  0
 11 32  1  0
 12 13  1  0
 12 33  1  0
 12 34  1  0
 13 35  1  0
 13 36  1  0
 14 15  1  0
 14 37  1  0
 15 16  1  0
 15 38  1  0
 15 39  1  0
 16 17  2  0
 16 20  1  0
 17 18  1  0
 18 19  2  0
 18 40  1  0
 19 20  1  0
 20 21  1  0
M  END

