
     RDKit          3D

 85 84  0  0  0  0  0  0  0  0999 V2000
    2.0971    1.4049    0.9930 C   0  0  0  0  0  0  0  0  0  0  0  0
    3.3956    0.5998    0.9359 C   0  0  1  0  0  0  0  0  0  0  0  0
    3.2488   -0.7041    1.5689 N   0  0  0  0  0  0  0  0  0  0  0  0
    4.1888   -1.2277    2.3949 C   0  0  0  0  0  0  0  0  0  0  0  0
    5.2063   -0.6294    2.7192 O   0  0  0  0  0  0  0  0  0  0  0  0
    3.9756   -2.6747    2.9225 C   0  0  1  0  0  0  0  0  0  0  0  0
    2.7127   -3.4052    2.4572 C   0  0  0  0  0  0  0  0  0  0  0  0
    2.5217   -4.7734    3.1092 C   0  0  0  0  0  0  0  0  0  0  0  0
    1.1410   -5.3558    2.7965 C   0  0  0  0  0  0  0  0  0  0  0  0
    1.0618   -6.7158    2.8414 N   0  0  0  0  0  0  0  0  0  0  0  0
    0.1784   -4.6501    2.5541 O   0  0  0  0  0  0  0  0  0  0  0  0
    5.2227   -3.4025    2.6459 N   0  0  0  0  0  0  0  0  0  0  0  0
    5.7517   -3.3747    1.3875 C   0  0  0  0  0  0  0  0  0  0  0  0
    5.0504   -3.1400    0.4056 O   0  0  0  0  0  0  0  0  0  0  0  0
    7.2754   -3.4600    1.2587 C   0  0  1  0  0  0  0  0  0  0  0  0
    7.8083   -2.0965    1.4830 N   0  0  0  0  0  0  0  0  0  0  0  0
    7.9998   -4.4865    2.1329 C   0  0  0  0  0  0  0  0  0  0  0  0
    7.5286   -5.9434    2.0093 C   0  0  0  0  0  0  0  0  0  0  0  0
    7.4006   -6.5022    0.5806 C   0  0  0  0  0  0  0  0  0  0  0  0
    8.6009   -6.2652   -0.3468 C   0  0  0  0  0  0  0  0  0  0  0  0
    9.8852   -6.5605    0.2778 N   0  0  0  0  0  0  0  0  0  0  0  0
    3.9397    0.5465   -0.5138 C   0  0  0  0  0  0  0  0  0  0  0  0
    3.9204    1.5533   -1.2049 O   0  0  0  0  0  0  0  0  0  0  0  0
    4.4261   -0.6479   -0.9482 N   0  0  0  0  0  0  0  0  0  0  0  0
    5.0648   -0.7593   -2.2290 C   0  0  0  0  0  0  0  0  0  0  0  0
    6.5978   -0.6664   -2.1612 C   0  0  0  0  0  0  0  0  0  0  0  0
    7.2208   -0.6313   -1.1068 O   0  0  0  0  0  0  0  0  0  0  0  0
    7.2162   -0.6520   -3.3704 N   0  0  0  0  0  0  0  0  0  0  0  0
    8.6668   -0.5910   -3.5391 C   0  0  1  0  0  0  0  0  0  0  0  0
    9.1957    0.8500   -3.3999 C   0  0  0  0  0  0  0  0  0  0  0  0
   10.6156    1.0705   -3.9316 C   0  0  0  0  0  0  0  0  0  0  0  0
   10.7149    0.9533   -5.4495 C   0  0  0  0  0  0  0  0  0  0  0  0
    9.7830    0.7281   -6.1747 O   0  0  0  0  0  0  0  0  0  0  0  0
   11.9513    1.1252   -5.9615 O   0  0  0  0  0  0  0  0  0  0  0  0
    9.3123   -1.6745   -2.6433 C   0  0  0  0  0  0  0  0  0  0  0  0
    9.0196   -2.8552   -2.8229 O   0  0  0  0  0  0  0  0  0  0  0  0
   10.1919   -1.2816   -1.6961 N   0  0  0  0  0  0  0  0  0  0  0  0
   10.5140   -2.1386   -0.5538 C   0  0  1  0  0  0  0  0  0  0  0  0
   11.5669   -3.2220   -0.8574 C   0  0  0  0  0  0  0  0  0  0  0  0
   11.0394   -4.3103   -1.5748 O   0  0  0  0  0  0  0  0  0  0  0  0
   10.9993   -1.2208    0.5786 C   0  0  0  0  0  0  0  0  0  0  0  0
   11.8843   -0.4197    0.3796 O   0  0  0  0  0  0  0  0  0  0  0  0
   10.4170   -1.3895    1.7522 O   0  0  0  0  0  0  0  0  0  0  0  0
    1.8019    1.5895    2.0364 H   0  0  0  0  0  0  0  0  0  0  0  0
    1.2751    0.8724    0.4855 H   0  0  0  0  0  0  0  0  0  0  0  0
    2.2422    2.3639    0.4792 H   0  0  0  0  0  0  0  0  0  0  0  0
    4.1794    1.1203    1.5086 H   0  0  0  0  0  0  0  0  0  0  0  0
    2.4599   -1.2790    1.2964 H   0  0  0  0  0  0  0  0  0  0  0  0
    3.9307   -2.5638    4.0184 H   0  0  0  0  0  0  0  0  0  0  0  0
    2.7382   -3.5229    1.3637 H   0  0  0  0  0  0  0  0  0  0  0  0
    1.8289   -2.7962    2.7046 H   0  0  0  0  0  0  0  0  0  0  0  0
    2.5886   -4.6834    4.2098 H   0  0  0  0  0  0  0  0  0  0  0  0
    3.3194   -5.4706    2.8063 H   0  0  0  0  0  0  0  0  0  0  0  0
    1.8648   -7.3029    3.0206 H   0  0  0  0  0  0  0  0  0  0  0  0
    0.1611   -7.1513    2.6794 H   0  0  0  0  0  0  0  0  0  0  0  0
    5.8782   -3.4821    3.4146 H   0  0  0  0  0  0  0  0  0  0  0  0
    7.4491   -3.6968    0.2007 H   0  0  0  0  0  0  0  0  0  0  0  0
    7.3908   -1.6813    2.3227 H   0  0  0  0  0  0  0  0  0  0  0  0
    7.5051   -1.4874    0.7109 H   0  0  0  0  0  0  0  0  0  0  0  0
    7.9502   -4.1723    3.1935 H   0  0  0  0  0  0  0  0  0  0  0  0
    9.0666   -4.4398    1.8647 H   0  0  0  0  0  0  0  0  0  0  0  0
    6.5560   -6.0694    2.5181 H   0  0  0  0  0  0  0  0  0  0  0  0
    8.2518   -6.5593    2.5660 H   0  0  0  0  0  0  0  0  0  0  0  0
    6.5041   -6.0885    0.0843 H   0  0  0  0  0  0  0  0  0  0  0  0
    7.2113   -7.5882    0.6645 H   0  0  0  0  0  0  0  0  0  0  0  0
    8.6354   -5.2076   -0.6490 H   0  0  0  0  0  0  0  0  0  0  0  0
    8.4156   -6.8237   -1.2901 H   0  0  0  0  0  0  0  0  0  0  0  0
   10.0571   -7.5660    0.3081 H   0  0  0  0  0  0  0  0  0  0  0  0
   10.6208   -6.1412   -0.2947 H   0  0  0  0  0  0  0  0  0  0  0  0
    4.5125   -1.4468   -0.3206 H   0  0  0  0  0  0  0  0  0  0  0  0
    4.6889    0.0509   -2.8731 H   0  0  0  0  0  0  0  0  0  0  0  0
    4.8068   -1.7240   -2.6987 H   0  0  0  0  0  0  0  0  0  0  0  0
    6.6517   -0.6808   -4.2113 H   0  0  0  0  0  0  0  0  0  0  0  0
    8.8600   -0.9255   -4.5682 H   0  0  0  0  0  0  0  0  0  0  0  0
    9.1223    1.1767   -2.3503 H   0  0  0  0  0  0  0  0  0  0  0  0
    8.5135    1.4963   -3.9713 H   0  0  0  0  0  0  0  0  0  0  0  0
   11.3404    0.3685   -3.4821 H   0  0  0  0  0  0  0  0  0  0  0  0
   10.9645    2.0800   -3.6503 H   0  0  0  0  0  0  0  0  0  0  0  0
   12.5964    1.2952   -5.2595 H   0  0  0  0  0  0  0  0  0  0  0  0
   10.3569   -0.2930   -1.5473 H   0  0  0  0  0  0  0  0  0  0  0  0
    9.5936   -2.6580   -0.2520 H   0  0  0  0  0  0  0  0  0  0  0  0
   11.9535   -3.6123    0.0998 H   0  0  0  0  0  0  0  0  0  0  0  0
   12.4144   -2.7381   -1.3813 H   0  0  0  0  0  0  0  0  0  0  0  0
   10.3327   -3.9766   -2.1663 H   0  0  0  0  0  0  0  0  0  0  0  0
    9.4945   -1.8044    1.6623 H   0  0  0  0  0  0  0  0  0  0  0  0
  1  2  1  0
  1 44  1  0
  1 45  1  0
  1 46  1  0
  2  3  1  0
  2 22  1  0
  2 47  1  1
  3  4  1  0
  3 48  1  0
  4  5  2  0
  4  6  1  0
  6  7  1  0
  6 12  1  0
  6 49  1  1
  7  8  1  0
  7 50  1  0
  7 51  1  0
  8  9  1  0
  8 52  1  0
  8 53  1  0
  9 10  1  0
  9 11  2  0
 10 54  1  0
 10 55  1  0
 12 13  1  0
 12 56  1  0
 13 14  2  0
 13 15  1  0
 15 16  1  0
 15 17  1  0
 15 57  1  6
 16 58  1  0
 16 59  1  0
 17 18  1  0
 17 60  1  0
 17 61  1  0
 18 19  1  0
 18 62  1  0
 18 63  1  0
 19 20  1  0
 19 64  1  0
 19 65  1  0
 20 21  1  0
 20 66  1  0
 20 67  1  0
 21 68  1  0
 21 69  1  0
 22 23  2  0
 22 24  1  0
 24 25  1  0
 24 70  1  0
 25 26  1  0
 25 71  1  0
 25 72  1  0
 26 27  2  0
 26 28  1  0
 28 29  1  0
 28 73  1  0
 29 30  1  0
 29 35  1  0
 29 74  1  6
 30 31  1  0
 30 75  1  0
 30 76  1  0
 31 32  1  0
 31 77  1  0
 31 78  1  0
 32 33  2  0
 32 34  1  0
 34 79  1  0
 35 36  2  0
 35 37  1  0
 37 38  1  0
 37 80  1  0
 38 39  1  0
 38 41  1  0
 38 81  1  1
 39 40  1  0
 39 82  1  0
 39 83  1  0
 40 84  1  0
 41 42  2  0
 41 43  1  0
 43 85  1  0
M  END

