
     RDKit          3D

 62 65  0  0  0  0  0  0  0  0999 V2000
    2.0433    1.4263    0.6155 O   0  0  0  0  0  0  0  0  0  0  0  0
    2.5706    0.4131    0.2565 C   0  0  0  0  0  0  0  0  0  0  0  0
    3.8864    0.1365    0.3317 O   0  0  0  0  0  0  0  0  0  0  0  0
    4.7467    1.1065    0.9254 C   0  0  0  0  0  0  0  0  0  0  0  0
    4.9680    2.2617    0.0800 N   0  0  0  0  0  0  0  0  0  0  0  0
    4.5023    3.5406    0.4853 C   0  0  0  0  0  0  0  0  0  0  0  0
    3.9838    3.7511    1.5553 O   0  0  0  0  0  0  0  0  0  0  0  0
    4.7881    4.5401   -0.5772 C   0  0  0  0  0  0  0  0  0  0  0  0
    4.3792    5.8258   -0.4239 C   0  0  0  0  0  0  0  0  0  0  0  0
    4.5203    6.9931   -1.2767 C   0  0  0  0  0  0  0  0  0  0  0  0
    5.1539    6.9975   -2.5359 C   0  0  0  0  0  0  0  0  0  0  0  0
    5.2430    8.1621   -3.2969 C   0  0  0  0  0  0  0  0  0  0  0  0
    4.7067    9.3686   -2.8223 C   0  0  0  0  0  0  0  0  0  0  0  0
    4.7575   10.5459   -3.4884 O   0  0  0  0  0  0  0  0  0  0  0  0
    5.5100   10.6566   -4.6965 C   0  0  0  0  0  0  0  0  0  0  0  0
    5.4787   12.1183   -5.1396 C   0  0  0  0  0  0  0  0  0  0  0  0
    6.3004   12.3461   -6.3897 C   0  0  0  0  0  0  0  0  0  0  0  0
    5.7474   12.1354   -7.6633 C   0  0  0  0  0  0  0  0  0  0  0  0
    6.5160   12.3111   -8.8172 C   0  0  0  0  0  0  0  0  0  0  0  0
    7.8546   12.7018   -8.7155 C   0  0  0  0  0  0  0  0  0  0  0  0
    8.4170   12.9173   -7.4540 C   0  0  0  0  0  0  0  0  0  0  0  0
    7.6451   12.7401   -6.3023 C   0  0  0  0  0  0  0  0  0  0  0  0
    4.0611    9.3872   -1.5587 C   0  0  0  0  0  0  0  0  0  0  0  0
    3.4842   10.5455   -1.1272 O   0  0  0  0  0  0  0  0  0  0  0  0
    4.1284   11.2927   -0.0723 C   0  0  1  0  0  0  0  0  0  0  0  0
    5.2811   12.1142   -0.6853 C   0  0  0  0  0  0  0  0  0  0  0  0
    4.8559   12.9056   -1.7607 O   0  0  0  0  0  0  0  0  0  0  0  0
    3.0842   12.1422    0.6158 C   0  0  0  0  0  0  0  0  0  0  0  0
    3.1638   12.3558    1.9994 C   0  0  0  0  0  0  0  0  0  0  0  0
    2.2436   13.1837    2.6489 C   0  0  0  0  0  0  0  0  0  0  0  0
    1.2268   13.8047    1.9187 C   0  0  0  0  0  0  0  0  0  0  0  0
    1.1376   13.5920    0.5393 C   0  0  0  0  0  0  0  0  0  0  0  0
    2.0604   12.7686   -0.1099 C   0  0  0  0  0  0  0  0  0  0  0  0
    3.9748    8.2155   -0.8169 C   0  0  0  0  0  0  0  0  0  0  0  0
    5.6820    3.7775   -1.8954 S   0  0  0  0  0  0  0  0  0  0  0  0
    5.6764    2.1882   -1.1035 C   0  0  0  0  0  0  0  0  0  0  0  0
    6.4306    0.8760   -1.7312 S   0  0  0  0  0  0  0  0  0  0  0  0
    2.0533   -0.4581   -0.1976 H   0  0  0  0  0  0  0  0  0  0  0  0
    5.6948    0.5777    1.0781 H   0  0  0  0  0  0  0  0  0  0  0  0
    4.3224    1.4876    1.8639 H   0  0  0  0  0  0  0  0  0  0  0  0
    3.8499    5.9908    0.5212 H   0  0  0  0  0  0  0  0  0  0  0  0
    5.5859    6.0847   -2.9464 H   0  0  0  0  0  0  0  0  0  0  0  0
    5.7386    8.1238   -4.2667 H   0  0  0  0  0  0  0  0  0  0  0  0
    5.0743   10.0020   -5.4721 H   0  0  0  0  0  0  0  0  0  0  0  0
    6.5496   10.3274   -4.5199 H   0  0  0  0  0  0  0  0  0  0  0  0
    5.8517   12.7378   -4.3089 H   0  0  0  0  0  0  0  0  0  0  0  0
    4.4292   12.4078   -5.3121 H   0  0  0  0  0  0  0  0  0  0  0  0
    4.6978   11.8392   -7.7529 H   0  0  0  0  0  0  0  0  0  0  0  0
    6.0660   12.1476   -9.7998 H   0  0  0  0  0  0  0  0  0  0  0  0
    8.4559   12.8433   -9.6171 H   0  0  0  0  0  0  0  0  0  0  0  0
    9.4606   13.2302   -7.3654 H   0  0  0  0  0  0  0  0  0  0  0  0
    8.0896   12.9196   -5.3189 H   0  0  0  0  0  0  0  0  0  0  0  0
    4.5606   10.5886    0.6619 H   0  0  0  0  0  0  0  0  0  0  0  0
    6.0897   11.4134   -0.9822 H   0  0  0  0  0  0  0  0  0  0  0  0
    5.6959   12.7792    0.0890 H   0  0  0  0  0  0  0  0  0  0  0  0
    4.4914   12.2874   -2.4152 H   0  0  0  0  0  0  0  0  0  0  0  0
    3.9520   11.8658    2.5794 H   0  0  0  0  0  0  0  0  0  0  0  0
    2.3174   13.3366    3.7287 H   0  0  0  0  0  0  0  0  0  0  0  0
    0.5026   14.4492    2.4237 H   0  0  0  0  0  0  0  0  0  0  0  0
    0.3423   14.0722   -0.0369 H   0  0  0  0  0  0  0  0  0  0  0  0
    1.9858   12.6011   -1.1846 H   0  0  0  0  0  0  0  0  0  0  0  0
    3.4545    8.2532    0.1430 H   0  0  0  0  0  0  0  0  0  0  0  0
  1  2  2  0
  2  3  1  0
  2 38  1  0
  3  4  1  0
  4  5  1  0
  4 39  1  0
  4 40  1  0
  5  6  1  0
  5 36  1  0
  6  7  2  0
  6  8  1  0
  8  9  2  0
  8 35  1  0
  9 10  1  0
  9 41  1  0
 10 11  2  0
 10 34  1  0
 11 12  1  0
 11 42  1  0
 12 13  2  0
 12 43  1  0
 13 14  1  0
 13 23  1  0
 14 15  1  0
 15 16  1  0
 15 44  1  0
 15 45  1  0
 16 17  1  0
 16 46  1  0
 16 47  1  0
 17 18  2  0
 17 22  1  0
 18 19  1  0
 18 48  1  0
 19 20  2  0
 19 49  1  0
 20 21  1  0
 20 50  1  0
 21 22  2  0
 21 51  1  0
 22 52  1  0
 23 24  1  0
 23 34  2  0
 24 25  1  0
 25 26  1  0
 25 28  1  0
 25 53  1  1
 26 27  1  0
 26 54  1  0
 26 55  1  0
 27 56  1  0
 28 29  2  0
 28 33  1  0
 29 30  1  0
 29 57  1  0
 30 31  2  0
 30 58  1  0
 31 32  1  0
 31 59  1  0
 32 33  2  0
 32 60  1  0
 33 61  1  0
 34 62  1  0
 35 36  1  0
 36 37  2  0
M  END

