
     RDKit          3D

 76 82  0  0  0  0  0  0  0  0999 V2000
    3.8214   -0.2898    2.7837 O   0  0  0  0  0  0  0  0  0  0  0  0
    4.6975   -0.2358    1.9297 C   0  0  0  0  0  0  0  0  0  0  0  0
    5.3401    0.9976    1.4048 C   0  0  0  0  0  0  0  0  0  0  0  0
    5.0199    2.2242    1.8949 C   0  0  0  0  0  0  0  0  0  0  0  0
    5.5606    3.4857    1.4694 C   0  0  0  0  0  0  0  0  0  0  0  0
    5.1833    4.6759    2.0155 C   0  0  0  0  0  0  0  0  0  0  0  0
    5.6484    6.0109    1.6772 C   0  0  0  0  0  0  0  0  0  0  0  0
    6.6124    6.2788    0.6811 C   0  0  0  0  0  0  0  0  0  0  0  0
    7.0478    7.5650    0.3889 C   0  0  0  0  0  0  0  0  0  0  0  0
    6.4938    8.6766    1.0893 C   0  0  0  0  0  0  0  0  0  0  0  0
    5.5118    8.4333    2.0887 C   0  0  0  0  0  0  0  0  0  0  0  0
    5.1266    7.1255    2.3656 C   0  0  0  0  0  0  0  0  0  0  0  0
    4.9172    9.6072    2.8328 C   0  0  0  0  0  0  0  0  0  0  0  0
    5.9509   10.7263    2.9622 C   0  0  0  0  0  0  0  0  0  0  0  0
    6.4710   11.1166    1.5832 C   0  0  0  0  0  0  0  0  0  0  0  0
    6.9058    9.9673    0.8015 N   0  0  0  0  0  0  0  0  0  0  0  0
    7.7974   10.2755   -0.3079 C   0  0  0  0  0  0  0  0  0  0  0  0
    7.8434    9.1643   -1.3505 C   0  0  0  0  0  0  0  0  0  0  0  0
    8.0981    7.8202   -0.6682 C   0  0  0  0  0  0  0  0  0  0  0  0
    6.3138    0.6439    0.3048 C   0  0  0  0  0  0  0  0  0  0  0  0
    6.4128   -0.9099    0.3080 C   0  0  0  0  0  0  0  0  0  0  0  0
    5.3134   -1.3913    1.2261 C   0  0  0  0  0  0  0  0  0  0  0  0
    4.8912   -2.6630    1.4534 C   0  0  0  0  0  0  0  0  0  0  0  0
    5.4048   -3.8593    0.8451 C   0  0  0  0  0  0  0  0  0  0  0  0
    4.9199   -5.1010    1.1278 C   0  0  0  0  0  0  0  0  0  0  0  0
    5.3470   -6.3809    0.5868 C   0  0  0  0  0  0  0  0  0  0  0  0
    4.7085   -7.5642    1.0118 C   0  0  0  0  0  0  0  0  0  0  0  0
    5.0693   -8.8258    0.5497 C   0  0  0  0  0  0  0  0  0  0  0  0
    6.1078   -8.9470   -0.4143 C   0  0  0  0  0  0  0  0  0  0  0  0
    6.7598   -7.7640   -0.8707 C   0  0  0  0  0  0  0  0  0  0  0  0
    6.3833   -6.5281   -0.3606 C   0  0  0  0  0  0  0  0  0  0  0  0
    7.8591   -7.8890   -1.9012 C   0  0  0  0  0  0  0  0  0  0  0  0
    8.6070   -9.2095   -1.7172 C   0  0  0  0  0  0  0  0  0  0  0  0
    7.6262  -10.3749   -1.7789 C   0  0  0  0  0  0  0  0  0  0  0  0
    6.4793  -10.1895   -0.9009 N   0  0  0  0  0  0  0  0  0  0  0  0
    5.7503  -11.4062   -0.5702 C   0  0  0  0  0  0  0  0  0  0  0  0
    4.3379  -11.1270   -0.0687 C   0  0  0  0  0  0  0  0  0  0  0  0
    4.3762  -10.0761    1.0411 C   0  0  0  0  0  0  0  0  0  0  0  0
    4.2700    2.2331    2.6958 H   0  0  0  0  0  0  0  0  0  0  0  0
    6.3064    3.4696    0.6678 H   0  0  0  0  0  0  0  0  0  0  0  0
    4.4316    4.6363    2.8134 H   0  0  0  0  0  0  0  0  0  0  0  0
    7.0483    5.4511    0.1154 H   0  0  0  0  0  0  0  0  0  0  0  0
    4.3790    6.9583    3.1475 H   0  0  0  0  0  0  0  0  0  0  0  0
    4.5572    9.2856    3.8227 H   0  0  0  0  0  0  0  0  0  0  0  0
    4.0321    9.9931    2.2918 H   0  0  0  0  0  0  0  0  0  0  0  0
    6.7903   10.3824    3.5906 H   0  0  0  0  0  0  0  0  0  0  0  0
    5.5221   11.6157    3.4505 H   0  0  0  0  0  0  0  0  0  0  0  0
    7.3270   11.8077    1.6883 H   0  0  0  0  0  0  0  0  0  0  0  0
    5.6876   11.6781    1.0315 H   0  0  0  0  0  0  0  0  0  0  0  0
    8.8215   10.4770    0.0712 H   0  0  0  0  0  0  0  0  0  0  0  0
    7.4540   11.2151   -0.7777 H   0  0  0  0  0  0  0  0  0  0  0  0
    8.6270    9.3954   -2.0894 H   0  0  0  0  0  0  0  0  0  0  0  0
    6.8839    9.1262   -1.8942 H   0  0  0  0  0  0  0  0  0  0  0  0
    9.1049    7.8337   -0.2084 H   0  0  0  0  0  0  0  0  0  0  0  0
    8.1048    6.9989   -1.4019 H   0  0  0  0  0  0  0  0  0  0  0  0
    7.2999    1.1152    0.4508 H   0  0  0  0  0  0  0  0  0  0  0  0
    5.9427    1.0061   -0.6708 H   0  0  0  0  0  0  0  0  0  0  0  0
    7.3998   -1.2340    0.6842 H   0  0  0  0  0  0  0  0  0  0  0  0
    6.3215   -1.3261   -0.7089 H   0  0  0  0  0  0  0  0  0  0  0  0
    4.0740   -2.7682    2.1779 H   0  0  0  0  0  0  0  0  0  0  0  0
    6.2230   -3.7479    0.1259 H   0  0  0  0  0  0  0  0  0  0  0  0
    4.1015   -5.1569    1.8562 H   0  0  0  0  0  0  0  0  0  0  0  0
    3.8978   -7.4910    1.7438 H   0  0  0  0  0  0  0  0  0  0  0  0
    6.9135   -5.6432   -0.7222 H   0  0  0  0  0  0  0  0  0  0  0  0
    8.5463   -7.0316   -1.8281 H   0  0  0  0  0  0  0  0  0  0  0  0
    7.4297   -7.8562   -2.9209 H   0  0  0  0  0  0  0  0  0  0  0  0
    9.1215   -9.2096   -0.7410 H   0  0  0  0  0  0  0  0  0  0  0  0
    9.3784   -9.3461   -2.4916 H   0  0  0  0  0  0  0  0  0  0  0  0
    8.1378  -11.3101   -1.4875 H   0  0  0  0  0  0  0  0  0  0  0  0
    7.2852  -10.5235   -2.8253 H   0  0  0  0  0  0  0  0  0  0  0  0
    6.3102  -11.9905    0.1902 H   0  0  0  0  0  0  0  0  0  0  0  0
    5.7075  -12.0406   -1.4741 H   0  0  0  0  0  0  0  0  0  0  0  0
    3.8880  -12.0686    0.2839 H   0  0  0  0  0  0  0  0  0  0  0  0
    3.7149  -10.7604   -0.9024 H   0  0  0  0  0  0  0  0  0  0  0  0
    4.9136  -10.4920    1.9149 H   0  0  0  0  0  0  0  0  0  0  0  0
    3.3604   -9.8338    1.3910 H   0  0  0  0  0  0  0  0  0  0  0  0
  1  2  2  0
  2  3  1  0
  2 22  1  0
  3  4  2  0
  3 20  1  0
  4  5  1  0
  4 39  1  0
  5  6  2  0
  5 40  1  0
  6  7  1  0
  6 41  1  0
  7  8  2  0
  7 12  1  0
  8  9  1  0
  8 42  1  0
  9 10  2  0
  9 19  1  0
 10 11  1  0
 10 16  1  0
 11 12  2  0
 11 13  1  0
 12 43  1  0
 13 14  1  0
 13 44  1  0
 13 45  1  0
 14 15  1  0
 14 46  1  0
 14 47  1  0
 15 16  1  0
 15 48  1  0
 15 49  1  0
 16 17  1  0
 17 18  1  0
 17 50  1  0
 17 51  1  0
 18 19  1  0
 18 52  1  0
 18 53  1  0
 19 54  1  0
 19 55  1  0
 20 21  1  0
 20 56  1  0
 20 57  1  0
 21 22  1  0
 21 58  1  0
 21 59  1  0
 22 23  2  0
 23 24  1  0
 23 60  1  0
 24 25  2  0
 24 61  1  0
 25 26  1  0
 25 62  1  0
 26 27  2  0
 26 31  1  0
 27 28  1  0
 27 63  1  0
 28 29  2  0
 28 38  1  0
 29 30  1  0
 29 35  1  0
 30 31  2  0
 30 32  1  0
 31 64  1  0
 32 33  1  0
 32 65  1  0
 32 66  1  0
 33 34  1  0
 33 67  1  0
 33 68  1  0
 34 35  1  0
 34 69  1  0
 34 70  1  0
 35 36  1  0
 36 37  1  0
 36 71  1  0
 36 72  1  0
 37 38  1  0
 37 73  1  0
 37 74  1  0
 38 75  1  0
 38 76  1  0
M  END

