
     RDKit          3D

 25 25  0  0  0  0  0  0  0  0999 V2000
    1.1536   -0.0058   -0.2916 C   0  0  0  0  0  0  0  0  0  0  0  0
    2.6491    0.1525   -0.0352 C   0  0  1  0  0  0  0  0  0  0  0  0
    3.0590    1.2747    0.9530 C   0  0  1  0  0  0  0  0  0  0  0  0
    2.1321    1.3627    2.1738 C   0  0  0  0  0  0  0  0  0  0  0  0
    2.1101    0.1839    2.9446 O   0  0  0  0  0  0  0  0  0  0  0  0
    4.5037    0.8741    1.3542 C   0  0  0  0  0  0  0  0  0  0  0  0
    4.6387   -0.6108    0.9553 C   0  0  0  0  0  0  0  0  0  0  0  0
    3.2723   -1.0261    0.6035 N   0  0  0  0  0  0  0  0  0  0  0  0
    3.2026   -2.2615   -0.1551 C   0  0  0  0  0  0  0  0  0  0  0  0
    3.6872   -3.4177    0.6144 C   0  0  0  0  0  0  0  0  0  0  0  0
    4.0801   -4.3304    1.2090 N   0  0  0  0  0  0  0  0  0  0  0  0
    0.7247    0.9533   -0.6207 H   0  0  0  0  0  0  0  0  0  0  0  0
    0.6211   -0.3279    0.6160 H   0  0  0  0  0  0  0  0  0  0  0  0
    0.9491   -0.7363   -1.0899 H   0  0  0  0  0  0  0  0  0  0  0  0
    3.1484    0.3545   -1.0119 H   0  0  0  0  0  0  0  0  0  0  0  0
    3.0363    2.2495    0.4392 H   0  0  0  0  0  0  0  0  0  0  0  0
    1.1120    1.6454    1.8405 H   0  0  0  0  0  0  0  0  0  0  0  0
    2.4812    2.1871    2.8220 H   0  0  0  0  0  0  0  0  0  0  0  0
    2.3201   -0.5589    2.3495 H   0  0  0  0  0  0  0  0  0  0  0  0
    4.6598    1.0127    2.4332 H   0  0  0  0  0  0  0  0  0  0  0  0
    5.2518    1.4846    0.8282 H   0  0  0  0  0  0  0  0  0  0  0  0
    5.0377   -1.2473    1.7594 H   0  0  0  0  0  0  0  0  0  0  0  0
    5.3124   -0.7213    0.0786 H   0  0  0  0  0  0  0  0  0  0  0  0
    3.7887   -2.2143   -1.1020 H   0  0  0  0  0  0  0  0  0  0  0  0
    2.1584   -2.4680   -0.4367 H   0  0  0  0  0  0  0  0  0  0  0  0
  1  2  1  0
  1 12  1  0
  1 13  1  0
  1 14  1  0
  2  3  1  0
  2  8  1  0
  2 15  1  6
  3  4  1  0
  3  6  1  0
  3 16  1  6
  4  5  1  0
  4 17  1  0
  4 18  1  0
  5 19  1  0
  6  7  1  0
  6 20  1  0
  6 21  1  0
  7  8  1  0
  7 22  1  0
  7 23  1  0
  8  9  1  0
  9 10  1  0
  9 24  1  0
  9 25  1  0
 10 11  3  0
M  END

