
     RDKit          3D

 44 45  0  0  0  0  0  0  0  0999 V2000
    5.2459    3.1546    0.7649 C   0  0  0  0  0  0  0  0  0  0  0  0
    5.5052    1.6577    0.9536 C   0  0  0  0  0  0  0  0  0  0  0  0
    4.2667    0.8184    1.3424 C   0  0  1  0  0  0  0  0  0  0  0  0
    3.2116    0.7865    0.2323 C   0  0  0  0  0  0  0  0  0  0  0  0
    4.5809   -0.5634    1.7171 N   0  0  0  0  0  0  0  0  0  0  0  0
    5.3152   -0.7862    2.9551 C   0  0  1  0  0  0  0  0  0  0  0  0
    4.5096   -0.4220    4.2208 C   0  0  0  0  0  0  0  0  0  0  0  0
    5.0088   -1.4354    5.2489 C   0  0  0  0  0  0  0  0  0  0  0  0
    5.1188   -2.6544    4.4632 N   0  0  0  0  0  0  0  0  0  0  0  0
    5.7525   -3.7992    5.0851 C   0  0  0  0  0  0  0  0  0  0  0  0
    4.9771   -4.3740    6.2707 C   0  0  1  0  0  0  0  0  0  0  0  0
    3.5523   -4.8540    5.9530 C   0  0  0  0  0  0  0  0  0  0  0  0
    3.1692   -5.6877    7.1863 C   0  0  0  0  0  0  0  0  0  0  0  0
    4.4904   -6.3653    7.6452 C   0  0  0  0  0  0  0  0  0  0  0  0
    5.6308   -5.6259    6.8932 C   0  0  0  0  0  0  0  0  0  0  0  0
    5.6485   -2.2896    3.1508 C   0  0  0  0  0  0  0  0  0  0  0  0
    6.1827    3.6981    0.5622 H   0  0  0  0  0  0  0  0  0  0  0  0
    4.7969    3.5988    1.6696 H   0  0  0  0  0  0  0  0  0  0  0  0
    4.5633    3.3567   -0.0756 H   0  0  0  0  0  0  0  0  0  0  0  0
    6.2754    1.5300    1.7333 H   0  0  0  0  0  0  0  0  0  0  0  0
    5.9375    1.2332    0.0274 H   0  0  0  0  0  0  0  0  0  0  0  0
    3.8071    1.2904    2.2301 H   0  0  0  0  0  0  0  0  0  0  0  0
    3.6222    0.3193   -0.6805 H   0  0  0  0  0  0  0  0  0  0  0  0
    2.8635    1.7949   -0.0380 H   0  0  0  0  0  0  0  0  0  0  0  0
    2.3445    0.1905    0.5527 H   0  0  0  0  0  0  0  0  0  0  0  0
    5.0589   -1.0222    0.9410 H   0  0  0  0  0  0  0  0  0  0  0  0
    6.2717   -0.2213    2.9915 H   0  0  0  0  0  0  0  0  0  0  0  0
    3.4405   -0.5920    4.0192 H   0  0  0  0  0  0  0  0  0  0  0  0
    4.6482    0.6206    4.5449 H   0  0  0  0  0  0  0  0  0  0  0  0
    4.3123   -1.5588    6.0936 H   0  0  0  0  0  0  0  0  0  0  0  0
    5.9894   -1.1138    5.6784 H   0  0  0  0  0  0  0  0  0  0  0  0
    6.7968   -3.5616    5.4079 H   0  0  0  0  0  0  0  0  0  0  0  0
    5.8435   -4.5894    4.3183 H   0  0  0  0  0  0  0  0  0  0  0  0
    4.9071   -3.6011    7.0593 H   0  0  0  0  0  0  0  0  0  0  0  0
    3.5799   -5.4905    5.0491 H   0  0  0  0  0  0  0  0  0  0  0  0
    2.8544   -4.0303    5.7411 H   0  0  0  0  0  0  0  0  0  0  0  0
    2.3664   -6.4130    6.9806 H   0  0  0  0  0  0  0  0  0  0  0  0
    2.7936   -5.0187    7.9788 H   0  0  0  0  0  0  0  0  0  0  0  0
    4.4960   -7.4400    7.4041 H   0  0  0  0  0  0  0  0  0  0  0  0
    4.6128   -6.2942    8.7374 H   0  0  0  0  0  0  0  0  0  0  0  0
    6.0288   -6.2639    6.0845 H   0  0  0  0  0  0  0  0  0  0  0  0
    6.4828   -5.3774    7.5456 H   0  0  0  0  0  0  0  0  0  0  0  0
    5.1818   -2.9043    2.3605 H   0  0  0  0  0  0  0  0  0  0  0  0
    6.7481   -2.4475    3.0904 H   0  0  0  0  0  0  0  0  0  0  0  0
  1  2  1  0
  1 17  1  0
  1 18  1  0
  1 19  1  0
  2  3  1  0
  2 20  1  0
  2 21  1  0
  3  4  1  0
  3  5  1  0
  3 22  1  1
  4 23  1  0
  4 24  1  0
  4 25  1  0
  5  6  1  0
  5 26  1  0
  6  7  1  0
  6 16  1  0
  6 27  1  6
  7  8  1  0
  7 28  1  0
  7 29  1  0
  8  9  1  0
  8 30  1  0
  8 31  1  0
  9 10  1  0
  9 16  1  0
 10 11  1  0
 10 32  1  0
 10 33  1  0
 11 12  1  0
 11 15  1  0
 11 34  1  1
 12 13  1  0
 12 35  1  0
 12 36  1  0
 13 14  1  0
 13 37  1  0
 13 38  1  0
 14 15  1  0
 14 39  1  0
 14 40  1  0
 15 41  1  0
 15 42  1  0
 16 43  1  0
 16 44  1  0
M  END

