
     RDKit          3D

 31 32  0  0  0  0  0  0  0  0999 V2000
    1.2018    0.1621   -0.6784 C   0  0  0  0  0  0  0  0  0  0  0  0
    2.4869   -0.0185   -0.0894 O   0  0  0  0  0  0  0  0  0  0  0  0
    2.9449   -1.1881    0.3515 C   0  0  0  0  0  0  0  0  0  0  0  0
    2.5260   -2.4502   -0.0038 C   0  0  0  0  0  0  0  0  0  0  0  0
    1.7588   -2.7633   -1.2388 C   0  0  0  0  0  0  0  0  0  0  0  0
    1.8087   -2.1140   -2.2565 O   0  0  0  0  0  0  0  0  0  0  0  0
    1.0205   -3.9007   -1.2116 O   0  0  0  0  0  0  0  0  0  0  0  0
    3.0975   -3.6091    0.7978 C   0  0  2  0  0  0  0  0  0  0  0  0
    2.2464   -3.9902    2.0297 C   0  0  1  0  0  0  0  0  0  0  0  0
    0.9904   -4.3299    1.6158 F   0  0  0  0  0  0  0  0  0  0  0  0
    2.7493   -5.0467    2.6674 F   0  0  0  0  0  0  0  0  0  0  0  0
    2.1151   -2.9938    2.9075 F   0  0  0  0  0  0  0  0  0  0  0  0
    4.4335   -3.4191    1.2231 O   0  0  0  0  0  0  0  0  0  0  0  0
    4.7851   -2.1794    1.6715 C   0  0  0  0  0  0  0  0  0  0  0  0
    5.9188   -2.0668    2.4742 C   0  0  0  0  0  0  0  0  0  0  0  0
    6.3070   -0.8103    2.9425 C   0  0  0  0  0  0  0  0  0  0  0  0
    5.5833    0.3514    2.6235 C   0  0  0  0  0  0  0  0  0  0  0  0
    6.0031    1.7087    3.1356 C   0  0  0  0  0  0  0  0  0  0  0  0
    4.4584    0.2152    1.8018 C   0  0  0  0  0  0  0  0  0  0  0  0
    4.0499   -1.0345    1.3095 C   0  0  0  0  0  0  0  0  0  0  0  0
    0.9500    1.2195   -0.5212 H   0  0  0  0  0  0  0  0  0  0  0  0
    0.4558   -0.4755   -0.1758 H   0  0  0  0  0  0  0  0  0  0  0  0
    1.2214   -0.0822   -1.7476 H   0  0  0  0  0  0  0  0  0  0  0  0
    0.8579   -4.1889   -0.3002 H   0  0  0  0  0  0  0  0  0  0  0  0
    3.1154   -4.5184    0.1781 H   0  0  0  0  0  0  0  0  0  0  0  0
    6.4746   -2.9701    2.7312 H   0  0  0  0  0  0  0  0  0  0  0  0
    7.1916   -0.7335    3.5807 H   0  0  0  0  0  0  0  0  0  0  0  0
    6.8701    1.6353    3.8086 H   0  0  0  0  0  0  0  0  0  0  0  0
    5.1873    2.1995    3.6914 H   0  0  0  0  0  0  0  0  0  0  0  0
    6.2795    2.3826    2.3073 H   0  0  0  0  0  0  0  0  0  0  0  0
    3.8793    1.0941    1.5140 H   0  0  0  0  0  0  0  0  0  0  0  0
  1  2  1  0
  1 21  1  0
  1 22  1  0
  1 23  1  0
  2  3  1  0
  3  4  2  0
  3 20  1  0
  4  5  1  0
  4  8  1  0
  5  6  2  0
  5  7  1  0
  7 24  1  0
  8  9  1  0
  8 13  1  0
  8 25  1  6
  9 10  1  6
  9 11  1  0
  9 12  1  0
 13 14  1  0
 14 15  1  0
 14 20  2  0
 15 16  2  0
 15 26  1  0
 16 17  1  0
 16 27  1  0
 17 18  1  0
 17 19  2  0
 18 28  1  0
 18 29  1  0
 18 30  1  0
 19 20  1  0
 19 31  1  0
M  END

