
     RDKit          3D

 41 44  0  0  0  0  0  0  0  0999 V2000
    9.2531   -1.2740   -3.4884 C   0  0  0  0  0  0  0  0  0  0  0  0
    8.3260   -0.7137   -2.4439 C   0  0  0  0  0  0  0  0  0  0  0  0
    8.1502    0.6576   -2.2474 C   0  0  0  0  0  0  0  0  0  0  0  0
    7.2788    1.1668   -1.2661 C   0  0  0  0  0  0  0  0  0  0  0  0
    6.5478    0.3144   -0.4412 C   0  0  0  0  0  0  0  0  0  0  0  0
    6.7116   -1.0631   -0.6244 C   0  0  0  0  0  0  0  0  0  0  0  0
    5.9439   -2.3844    0.2466 S   0  0  0  0  0  0  0  0  0  0  0  0
    6.8551   -3.4933   -0.7850 C   0  0  0  0  0  0  0  0  0  0  0  0
    6.7505   -4.8708   -0.6712 N   0  0  0  0  0  0  0  0  0  0  0  0
    5.9680   -5.5502    0.2344 C   0  0  0  0  0  0  0  0  0  0  0  0
    5.2839   -4.9636    1.0559 O   0  0  0  0  0  0  0  0  0  0  0  0
    6.0178   -7.0528    0.1596 C   0  0  0  0  0  0  0  0  0  0  0  0
    6.5955   -7.7870   -0.8897 C   0  0  0  0  0  0  0  0  0  0  0  0
    6.5575   -9.1804   -0.8097 C   0  0  0  0  0  0  0  0  0  0  0  0
    6.0141   -9.8548    0.2019 N   0  0  0  0  0  0  0  0  0  0  0  0
    5.4445   -9.1630    1.1876 C   0  0  0  0  0  0  0  0  0  0  0  0
    4.8712   -9.8475    2.2639 N   0  0  0  0  0  0  0  0  0  0  0  0
    4.4188  -11.1722    2.3169 C   0  0  0  0  0  0  0  0  0  0  0  0
    4.4114  -11.9200    1.3682 O   0  0  0  0  0  0  0  0  0  0  0  0
    3.9317  -11.6228    3.6700 C   0  0  1  0  0  0  0  0  0  0  0  0
    4.6546  -11.2580    4.9539 C   0  0  0  0  0  0  0  0  0  0  0  0
    3.2879  -10.7057    4.6918 C   0  0  0  0  0  0  0  0  0  0  0  0
    5.4206   -7.7533    1.2061 C   0  0  0  0  0  0  0  0  0  0  0  0
    7.6397   -2.9633   -1.6691 N   0  0  0  0  0  0  0  0  0  0  0  0
    7.5864   -1.5835   -1.6094 C   0  0  0  0  0  0  0  0  0  0  0  0
    9.7534   -0.4724   -4.0507 H   0  0  0  0  0  0  0  0  0  0  0  0
    8.7067   -1.9119   -4.2023 H   0  0  0  0  0  0  0  0  0  0  0  0
   10.0254   -1.9137   -3.0310 H   0  0  0  0  0  0  0  0  0  0  0  0
    8.7080    1.3564   -2.8769 H   0  0  0  0  0  0  0  0  0  0  0  0
    7.1746    2.2485   -1.1502 H   0  0  0  0  0  0  0  0  0  0  0  0
    5.8719    0.7103    0.3198 H   0  0  0  0  0  0  0  0  0  0  0  0
    7.3514   -5.3748   -1.3149 H   0  0  0  0  0  0  0  0  0  0  0  0
    7.0494   -7.3166   -1.7643 H   0  0  0  0  0  0  0  0  0  0  0  0
    7.0006   -9.7851   -1.6097 H   0  0  0  0  0  0  0  0  0  0  0  0
    4.6581   -9.2637    3.0631 H   0  0  0  0  0  0  0  0  0  0  0  0
    3.5338  -12.6373    3.5961 H   0  0  0  0  0  0  0  0  0  0  0  0
    5.5163  -10.5881    4.8776 H   0  0  0  0  0  0  0  0  0  0  0  0
    4.7695  -12.0444    5.7047 H   0  0  0  0  0  0  0  0  0  0  0  0
    3.1776   -9.6422    4.4548 H   0  0  0  0  0  0  0  0  0  0  0  0
    2.4411  -11.1091    5.2535 H   0  0  0  0  0  0  0  0  0  0  0  0
    4.9434   -7.1907    2.0112 H   0  0  0  0  0  0  0  0  0  0  0  0
  1  2  1  0
  1 26  1  0
  1 27  1  0
  1 28  1  0
  2  3  2  0
  2 25  1  0
  3  4  1  0
  3 29  1  0
  4  5  2  0
  4 30  1  0
  5  6  1  0
  5 31  1  0
  6  7  1  0
  6 25  2  0
  7  8  1  0
  8  9  1  0
  8 24  2  0
  9 10  1  0
  9 32  1  0
 10 11  2  0
 10 12  1  0
 12 13  2  0
 12 23  1  0
 13 14  1  0
 13 33  1  0
 14 15  2  0
 14 34  1  0
 15 16  1  0
 16 17  1  0
 16 23  2  0
 17 18  1  0
 17 35  1  0
 18 19  2  0
 18 20  1  0
 20 21  1  0
 20 22  1  0
 20 36  1  6
 21 22  1  0
 21 37  1  0
 21 38  1  0
 22 39  1  0
 22 40  1  0
 23 41  1  0
 24 25  1  0
M  END

