
     RDKit          3D

 40 41  0  0  0  0  0  0  0  0999 V2000
    0.7679    0.2746   -0.0140 C   0  0  0  0  0  0  0  0  0  0  0  0
    2.2989    0.1955   -0.0539 C   0  0  1  0  0  0  0  0  0  0  0  0
    2.8251   -1.2442   -0.2324 C   0  0  0  0  0  0  0  0  0  0  0  0
    2.6074   -1.7716   -1.6673 C   0  0  2  0  0  0  0  0  0  0  0  0
    3.1925   -3.1646   -1.8943 C   0  0  0  0  0  0  0  0  0  0  0  0
    3.9139   -3.4472   -2.8127 O   0  0  0  0  0  0  0  0  0  0  0  0
    2.8358   -4.1086   -0.9943 O   0  0  0  0  0  0  0  0  0  0  0  0
    3.1749   -0.7844   -2.7048 C   0  0  0  0  0  0  0  0  0  0  0  0
    2.6573    0.5551   -2.4856 N   0  0  0  0  0  0  0  0  0  0  0  0
    1.8691    1.2839   -3.3676 C   0  0  0  0  0  0  0  0  0  0  0  0
    1.2596    2.2852   -3.0149 O   0  0  0  0  0  0  0  0  0  0  0  0
    1.8136    0.8051   -4.6607 N   0  0  0  0  0  0  0  0  0  0  0  0
    1.0276    1.4872   -5.6719 C   0  0  0  0  0  0  0  0  0  0  0  0
    0.1252    0.5493   -6.4520 C   0  0  0  0  0  0  0  0  0  0  0  0
    0.6783   -0.5537   -7.1165 C   0  0  0  0  0  0  0  0  0  0  0  0
    2.0149   -0.7334   -7.0209 F   0  0  0  0  0  0  0  0  0  0  0  0
   -0.0585   -1.4665   -7.8599 C   0  0  0  0  0  0  0  0  0  0  0  0
   -1.4383   -1.2722   -7.9620 C   0  0  0  0  0  0  0  0  0  0  0  0
   -2.0450   -0.1866   -7.3305 C   0  0  0  0  0  0  0  0  0  0  0  0
   -1.2650    0.7088   -6.5875 C   0  0  0  0  0  0  0  0  0  0  0  0
   -2.0772    2.0602   -5.8262 Cl  0  0  0  0  0  0  0  0  0  0  0  0
    2.9002    1.0908   -1.1526 C   0  0  0  0  0  0  0  0  0  0  0  0
    0.3562   -0.3769    0.7746 H   0  0  0  0  0  0  0  0  0  0  0  0
    0.3119   -0.0199   -0.9720 H   0  0  0  0  0  0  0  0  0  0  0  0
    0.4367    1.3041    0.1897 H   0  0  0  0  0  0  0  0  0  0  0  0
    2.6836    0.5665    0.9125 H   0  0  0  0  0  0  0  0  0  0  0  0
    2.3410   -1.9025    0.5120 H   0  0  0  0  0  0  0  0  0  0  0  0
    3.9067   -1.2676   -0.0096 H   0  0  0  0  0  0  0  0  0  0  0  0
    1.5190   -1.8604   -1.8454 H   0  0  0  0  0  0  0  0  0  0  0  0
    2.2606   -3.7300   -0.3142 H   0  0  0  0  0  0  0  0  0  0  0  0
    2.9267   -1.1522   -3.7057 H   0  0  0  0  0  0  0  0  0  0  0  0
    4.2786   -0.7884   -2.6327 H   0  0  0  0  0  0  0  0  0  0  0  0
    2.5215    0.1633   -4.9901 H   0  0  0  0  0  0  0  0  0  0  0  0
    1.6862    2.0198   -6.3840 H   0  0  0  0  0  0  0  0  0  0  0  0
    0.4317    2.2461   -5.1536 H   0  0  0  0  0  0  0  0  0  0  0  0
    0.4513   -2.3019   -8.3425 H   0  0  0  0  0  0  0  0  0  0  0  0
   -2.0458   -1.9723   -8.5399 H   0  0  0  0  0  0  0  0  0  0  0  0
   -3.1205   -0.0224   -7.4051 H   0  0  0  0  0  0  0  0  0  0  0  0
    2.4719    2.0995   -1.1161 H   0  0  0  0  0  0  0  0  0  0  0  0
    3.9936    1.1710   -0.9959 H   0  0  0  0  0  0  0  0  0  0  0  0
  1  2  1  0
  1 23  1  0
  1 24  1  0
  1 25  1  0
  2  3  1  0
  2 22  1  0
  2 26  1  1
  3  4  1  0
  3 27  1  0
  3 28  1  0
  4  5  1  0
  4  8  1  0
  4 29  1  6
  5  6  2  0
  5  7  1  0
  7 30  1  0
  8  9  1  0
  8 31  1  0
  8 32  1  0
  9 10  1  0
  9 22  1  0
 10 11  2  0
 10 12  1  0
 12 13  1  0
 12 33  1  0
 13 14  1  0
 13 34  1  0
 13 35  1  0
 14 15  2  0
 14 20  1  0
 15 16  1  0
 15 17  1  0
 17 18  2  0
 17 36  1  0
 18 19  1  0
 18 37  1  0
 19 20  2  0
 19 38  1  0
 20 21  1  0
 22 39  1  0
 22 40  1  0
M  END

