
     RDKit          3D

 55 56  0  0  0  0  0  0  0  0999 V2000
    3.8308    4.0635    2.6363 C   0  0  0  0  0  0  0  0  0  0  0  0
    2.9080    2.9891    2.0527 C   0  0  1  0  0  0  0  0  0  0  0  0
    2.8001    1.7594    2.9597 C   0  0  0  0  0  0  0  0  0  0  0  0
    1.5246    3.5652    1.7474 C   0  0  0  0  0  0  0  0  0  0  0  0
    3.3899    2.5867    0.7217 O   0  0  0  0  0  0  0  0  0  0  0  0
    4.5826    2.0227    0.5099 C   0  0  0  0  0  0  0  0  0  0  0  0
    5.3947    1.7826    1.3797 O   0  0  0  0  0  0  0  0  0  0  0  0
    4.7596    1.7366   -0.9489 C   0  0  0  0  0  0  0  0  0  0  0  0
    3.6533    2.0967   -1.7978 C   0  0  0  0  0  0  0  0  0  0  0  0
    2.7871    2.3704   -2.5224 N   0  0  0  0  0  0  0  0  0  0  0  0
    5.8401    1.1762   -1.5902 C   0  0  0  0  0  0  0  0  0  0  0  0
    7.1508    0.6596   -1.2332 C   0  0  0  0  0  0  0  0  0  0  0  0
    7.9353    0.1738   -2.3137 C   0  0  0  0  0  0  0  0  0  0  0  0
    9.2057   -0.3443   -2.1247 C   0  0  0  0  0  0  0  0  0  0  0  0
    9.7481   -0.3976   -0.8293 C   0  0  0  0  0  0  0  0  0  0  0  0
   10.9904   -0.9368   -0.7208 O   0  0  0  0  0  0  0  0  0  0  0  0
   11.7019   -0.8842    0.4665 C   0  0  0  0  0  0  0  0  0  0  0  0
   11.9105   -2.0598    1.1829 C   0  0  0  0  0  0  0  0  0  0  0  0
   12.6922   -2.0355    2.3434 C   0  0  0  0  0  0  0  0  0  0  0  0
   13.2764   -0.8493    2.8148 C   0  0  0  0  0  0  0  0  0  0  0  0
   14.1408   -0.7886    4.0895 C   0  0  1  0  0  0  0  0  0  0  0  0
   14.2738   -2.1641    4.7676 C   0  0  0  0  0  0  0  0  0  0  0  0
   15.5588   -0.2904    3.7252 C   0  0  0  0  0  0  0  0  0  0  0  0
   13.4965    0.1882    5.1005 C   0  0  0  0  0  0  0  0  0  0  0  0
   13.0466    0.3207    2.0640 C   0  0  0  0  0  0  0  0  0  0  0  0
   12.2750    0.3140    0.9030 C   0  0  0  0  0  0  0  0  0  0  0  0
    8.9958    0.0697    0.2608 C   0  0  0  0  0  0  0  0  0  0  0  0
    7.7208    0.5886    0.0604 C   0  0  0  0  0  0  0  0  0  0  0  0
    3.3989    4.4471    3.5738 H   0  0  0  0  0  0  0  0  0  0  0  0
    3.9273    4.9078    1.9360 H   0  0  0  0  0  0  0  0  0  0  0  0
    4.8299    3.6624    2.8490 H   0  0  0  0  0  0  0  0  0  0  0  0
    2.3263    2.0469    3.9113 H   0  0  0  0  0  0  0  0  0  0  0  0
    3.7874    1.3314    3.1751 H   0  0  0  0  0  0  0  0  0  0  0  0
    2.1727    0.9880    2.4868 H   0  0  0  0  0  0  0  0  0  0  0  0
    1.0441    3.9098    2.6757 H   0  0  0  0  0  0  0  0  0  0  0  0
    0.8827    2.8037    1.2802 H   0  0  0  0  0  0  0  0  0  0  0  0
    1.6038    4.4162    1.0549 H   0  0  0  0  0  0  0  0  0  0  0  0
    5.6690    1.0971   -2.6692 H   0  0  0  0  0  0  0  0  0  0  0  0
    7.5262    0.2111   -3.3269 H   0  0  0  0  0  0  0  0  0  0  0  0
    9.8023   -0.7150   -2.9601 H   0  0  0  0  0  0  0  0  0  0  0  0
   11.4652   -2.9900    0.8241 H   0  0  0  0  0  0  0  0  0  0  0  0
   12.8384   -2.9728    2.8800 H   0  0  0  0  0  0  0  0  0  0  0  0
   14.7557   -2.9034    4.1087 H   0  0  0  0  0  0  0  0  0  0  0  0
   13.2968   -2.5663    5.0784 H   0  0  0  0  0  0  0  0  0  0  0  0
   14.8958   -2.0744    5.6720 H   0  0  0  0  0  0  0  0  0  0  0  0
   16.0445   -0.9705    3.0074 H   0  0  0  0  0  0  0  0  0  0  0  0
   16.1913   -0.2384    4.6266 H   0  0  0  0  0  0  0  0  0  0  0  0
   15.5398    0.7137    3.2747 H   0  0  0  0  0  0  0  0  0  0  0  0
   12.4850   -0.1449    5.3827 H   0  0  0  0  0  0  0  0  0  0  0  0
   13.4118    1.2070    4.6925 H   0  0  0  0  0  0  0  0  0  0  0  0
   14.1038    0.2473    6.0186 H   0  0  0  0  0  0  0  0  0  0  0  0
   13.4854    1.2682    2.3848 H   0  0  0  0  0  0  0  0  0  0  0  0
   12.1188    1.2301    0.3293 H   0  0  0  0  0  0  0  0  0  0  0  0
    9.4079    0.0226    1.2695 H   0  0  0  0  0  0  0  0  0  0  0  0
    7.1427    0.9460    0.9093 H   0  0  0  0  0  0  0  0  0  0  0  0
  1  2  1  0
  1 29  1  0
  1 30  1  0
  1 31  1  0
  2  3  1  0
  2  4  1  0
  2  5  1  6
  3 32  1  0
  3 33  1  0
  3 34  1  0
  4 35  1  0
  4 36  1  0
  4 37  1  0
  5  6  1  0
  6  7  2  0
  6  8  1  0
  8  9  1  0
  8 11  2  0
  9 10  3  0
 11 12  1  0
 11 38  1  0
 12 13  2  0
 12 28  1  0
 13 14  1  0
 13 39  1  0
 14 15  2  0
 14 40  1  0
 15 16  1  0
 15 27  1  0
 16 17  1  0
 17 18  2  0
 17 26  1  0
 18 19  1  0
 18 41  1  0
 19 20  2  0
 19 42  1  0
 20 21  1  0
 20 25  1  0
 21 22  1  1
 21 23  1  0
 21 24  1  0
 22 43  1  0
 22 44  1  0
 22 45  1  0
 23 46  1  0
 23 47  1  0
 23 48  1  0
 24 49  1  0
 24 50  1  0
 24 51  1  0
 25 26  2  0
 25 52  1  0
 26 53  1  0
 27 28  2  0
 27 54  1  0
 28 55  1  0
M  END

