
     RDKit          3D

 51 53  0  0  0  0  0  0  0  0999 V2000
    1.1167    0.4551    0.0144 C   0  0  0  0  0  0  0  0  0  0  0  0
    2.4825    0.4720   -0.6660 C   0  0  0  0  0  0  0  0  0  0  0  0
    3.0226   -0.8380   -1.0367 N   0  0  0  0  0  0  0  0  0  0  0  0
    2.1012   -1.9307   -1.3317 C   0  0  0  0  0  0  0  0  0  0  0  0
    1.5759   -1.9521   -2.7717 C   0  0  0  0  0  0  0  0  0  0  0  0
    4.3467   -0.9185   -1.4476 C   0  0  0  0  0  0  0  0  0  0  0  0
    5.2011    0.2234   -1.4215 C   0  0  0  0  0  0  0  0  0  0  0  0
    6.5297    0.1137   -1.7987 C   0  0  0  0  0  0  0  0  0  0  0  0
    7.1014   -1.0972   -2.2323 C   0  0  0  0  0  0  0  0  0  0  0  0
    8.4919   -1.1692   -2.6219 C   0  0  0  0  0  0  0  0  0  0  0  0
    9.0218   -2.2757   -3.0255 N   0  0  0  0  0  0  0  0  0  0  0  0
   10.3247   -2.3007   -3.3805 N   0  0  0  0  0  0  0  0  0  0  0  0
   10.8935   -3.4793   -3.8136 C   0  0  0  0  0  0  0  0  0  0  0  0
   10.2592   -4.5168   -3.8894 O   0  0  0  0  0  0  0  0  0  0  0  0
   12.3565   -3.4311   -4.1939 C   0  0  0  0  0  0  0  0  0  0  0  0
   12.8951   -4.6775   -4.6260 C   0  0  0  0  0  0  0  0  0  0  0  0
   14.2030   -4.8137   -5.0166 C   0  0  0  0  0  0  0  0  0  0  0  0
   15.0802   -3.6944   -4.9943 C   0  0  0  0  0  0  0  0  0  0  0  0
   16.4430   -3.7938   -5.3884 C   0  0  0  0  0  0  0  0  0  0  0  0
   17.2801   -2.6985   -5.3530 C   0  0  0  0  0  0  0  0  0  0  0  0
   16.7888   -1.4453   -4.9145 C   0  0  0  0  0  0  0  0  0  0  0  0
   15.4710   -1.3154   -4.5260 C   0  0  0  0  0  0  0  0  0  0  0  0
   14.5778   -2.4238   -4.5583 C   0  0  0  0  0  0  0  0  0  0  0  0
   13.2002   -2.3210   -4.1689 C   0  0  0  0  0  0  0  0  0  0  0  0
   12.7080   -1.1129   -3.7639 O   0  0  0  0  0  0  0  0  0  0  0  0
    6.2489   -2.2429   -2.2810 C   0  0  0  0  0  0  0  0  0  0  0  0
    6.6903   -3.4368   -2.6859 O   0  0  0  0  0  0  0  0  0  0  0  0
    4.9073   -2.1341   -1.9018 C   0  0  0  0  0  0  0  0  0  0  0  0
    0.8697    1.4808    0.3295 H   0  0  0  0  0  0  0  0  0  0  0  0
    1.1168   -0.1791    0.9150 H   0  0  0  0  0  0  0  0  0  0  0  0
    0.3069    0.1159   -0.6493 H   0  0  0  0  0  0  0  0  0  0  0  0
    3.1916    0.9424    0.0332 H   0  0  0  0  0  0  0  0  0  0  0  0
    2.4376    1.1425   -1.5495 H   0  0  0  0  0  0  0  0  0  0  0  0
    1.2576   -1.8715   -0.6316 H   0  0  0  0  0  0  0  0  0  0  0  0
    2.5962   -2.8838   -1.0966 H   0  0  0  0  0  0  0  0  0  0  0  0
    1.0187   -1.0308   -3.0081 H   0  0  0  0  0  0  0  0  0  0  0  0
    0.8947   -2.8056   -2.9216 H   0  0  0  0  0  0  0  0  0  0  0  0
    2.3997   -2.0431   -3.4961 H   0  0  0  0  0  0  0  0  0  0  0  0
    4.8293    1.1974   -1.1134 H   0  0  0  0  0  0  0  0  0  0  0  0
    7.1619    1.0068   -1.7656 H   0  0  0  0  0  0  0  0  0  0  0  0
    9.0884   -0.2398   -2.5612 H   0  0  0  0  0  0  0  0  0  0  0  0
   10.8902   -1.4528   -3.3351 H   0  0  0  0  0  0  0  0  0  0  0  0
   12.2047   -5.5221   -4.6335 H   0  0  0  0  0  0  0  0  0  0  0  0
   14.5858   -5.7821   -5.3473 H   0  0  0  0  0  0  0  0  0  0  0  0
   16.8177   -4.7651   -5.7218 H   0  0  0  0  0  0  0  0  0  0  0  0
   18.3246   -2.7941   -5.6595 H   0  0  0  0  0  0  0  0  0  0  0  0
   17.4550   -0.5802   -4.8798 H   0  0  0  0  0  0  0  0  0  0  0  0
   15.1392   -0.3299   -4.1823 H   0  0  0  0  0  0  0  0  0  0  0  0
   13.3750   -0.4235   -3.8705 H   0  0  0  0  0  0  0  0  0  0  0  0
    7.6516   -3.3631   -2.9220 H   0  0  0  0  0  0  0  0  0  0  0  0
    4.3240   -3.0493   -1.9727 H   0  0  0  0  0  0  0  0  0  0  0  0
  1  2  1  0
  1 29  1  0
  1 30  1  0
  1 31  1  0
  2  3  1  0
  2 32  1  0
  2 33  1  0
  3  4  1  0
  3  6  1  0
  4  5  1  0
  4 34  1  0
  4 35  1  0
  5 36  1  0
  5 37  1  0
  5 38  1  0
  6  7  2  0
  6 28  1  0
  7  8  1  0
  7 39  1  0
  8  9  2  0
  8 40  1  0
  9 10  1  0
  9 26  1  0
 10 11  2  0
 10 41  1  0
 11 12  1  0
 12 13  1  0
 12 42  1  0
 13 14  2  0
 13 15  1  0
 15 16  2  0
 15 24  1  0
 16 17  1  0
 16 43  1  0
 17 18  2  0
 17 44  1  0
 18 19  1  0
 18 23  1  0
 19 20  2  0
 19 45  1  0
 20 21  1  0
 20 46  1  0
 21 22  2  0
 21 47  1  0
 22 23  1  0
 22 48  1  0
 23 24  2  0
 24 25  1  0
 25 49  1  0
 26 27  1  0
 26 28  2  0
 27 50  1  0
 28 51  1  0
M  END

