
     RDKit          3D

 37 38  0  0  0  0  0  0  0  0999 V2000
    6.2921    0.1470   -2.4194 C   0  0  0  0  0  0  0  0  0  0  0  0
    5.9178   -0.5741   -1.1307 C   0  0  1  0  0  0  0  0  0  0  0  0
    6.1880   -2.0786   -1.2053 C   0  0  0  0  0  0  0  0  0  0  0  0
    6.6611    0.0488   -0.0881 O   0  0  0  0  0  0  0  0  0  0  0  0
    6.2203   -0.1890    1.2212 C   0  0  0  0  0  0  0  0  0  0  0  0
    6.9747    0.7137    2.1712 C   0  0  0  0  0  0  0  0  0  0  0  0
    6.5638    2.0610    1.9373 O   0  0  0  0  0  0  0  0  0  0  0  0
    7.1269    3.0443    2.6487 C   0  0  0  0  0  0  0  0  0  0  0  0
    8.0108    2.7771    3.5763 N   0  0  0  0  0  0  0  0  0  0  0  0
    8.5577    3.8079    4.2891 C   0  0  0  0  0  0  0  0  0  0  0  0
    9.5674    3.4032    5.3355 C   0  0  0  0  0  0  0  0  0  0  0  0
   10.1375    4.1866    6.0513 O   0  0  0  0  0  0  0  0  0  0  0  0
    9.7654    2.0806    5.3877 O   0  0  0  0  0  0  0  0  0  0  0  0
    8.2306    5.1257    4.0912 C   0  0  0  0  0  0  0  0  0  0  0  0
    7.2731    5.4506    3.0863 C   0  0  0  0  0  0  0  0  0  0  0  0
    6.8688    6.7815    2.7997 C   0  0  0  0  0  0  0  0  0  0  0  0
    5.9391    7.0328    1.8088 C   0  0  0  0  0  0  0  0  0  0  0  0
    5.3759    5.9702    1.0627 C   0  0  0  0  0  0  0  0  0  0  0  0
    5.7482    4.6631    1.3182 C   0  0  0  0  0  0  0  0  0  0  0  0
    6.6968    4.3844    2.3309 C   0  0  0  0  0  0  0  0  0  0  0  0
    5.7200   -0.2496   -3.2722 H   0  0  0  0  0  0  0  0  0  0  0  0
    7.3660    0.0190   -2.6297 H   0  0  0  0  0  0  0  0  0  0  0  0
    6.0889    1.2244   -2.3276 H   0  0  0  0  0  0  0  0  0  0  0  0
    4.8357   -0.4173   -0.9335 H   0  0  0  0  0  0  0  0  0  0  0  0
    7.2602   -2.2650   -1.3785 H   0  0  0  0  0  0  0  0  0  0  0  0
    5.6187   -2.5336   -2.0312 H   0  0  0  0  0  0  0  0  0  0  0  0
    5.8943   -2.5975   -0.2794 H   0  0  0  0  0  0  0  0  0  0  0  0
    6.3997   -1.2359    1.5413 H   0  0  0  0  0  0  0  0  0  0  0  0
    5.1309    0.0003    1.3176 H   0  0  0  0  0  0  0  0  0  0  0  0
    8.0602    0.6221    2.0059 H   0  0  0  0  0  0  0  0  0  0  0  0
    6.7617    0.4343    3.2167 H   0  0  0  0  0  0  0  0  0  0  0  0
    9.1778    1.6969    4.7023 H   0  0  0  0  0  0  0  0  0  0  0  0
    8.7077    5.8943    4.7008 H   0  0  0  0  0  0  0  0  0  0  0  0
    7.3056    7.6017    3.3746 H   0  0  0  0  0  0  0  0  0  0  0  0
    5.6352    8.0609    1.5961 H   0  0  0  0  0  0  0  0  0  0  0  0
    4.6445    6.1870    0.2804 H   0  0  0  0  0  0  0  0  0  0  0  0
    5.3263    3.8341    0.7488 H   0  0  0  0  0  0  0  0  0  0  0  0
  1  2  1  0
  1 21  1  0
  1 22  1  0
  1 23  1  0
  2  3  1  0
  2  4  1  0
  2 24  1  1
  3 25  1  0
  3 26  1  0
  3 27  1  0
  4  5  1  0
  5  6  1  0
  5 28  1  0
  5 29  1  0
  6  7  1  0
  6 30  1  0
  6 31  1  0
  7  8  1  0
  8  9  2  0
  8 20  1  0
  9 10  1  0
 10 11  1  0
 10 14  2  0
 11 12  2  0
 11 13  1  0
 13 32  1  0
 14 15  1  0
 14 33  1  0
 15 16  1  0
 15 20  2  0
 16 17  2  0
 16 34  1  0
 17 18  1  0
 17 35  1  0
 18 19  2  0
 18 36  1  0
 19 20  1  0
 19 37  1  0
M  END

