
     RDKit          3D

 23 24  0  0  0  0  0  0  0  0999 V2000
    1.0285   -0.2429   -0.1021 O   0  0  0  0  0  0  0  0  0  0  0  0
    2.2439   -0.1457   -0.0651 C   0  0  0  0  0  0  0  0  0  0  0  0
    3.0120    1.0651   -0.2571 C   0  0  0  0  0  0  0  0  0  0  0  0
    4.3731    1.0319   -0.1883 C   0  0  0  0  0  0  0  0  0  0  0  0
    5.0945   -0.1012    0.0499 N   0  0  0  0  0  0  0  0  0  0  0  0
    4.4349   -1.2159    0.2315 C   0  0  0  0  0  0  0  0  0  0  0  0
    3.0655   -1.2973    0.1930 N   0  0  0  0  0  0  0  0  0  0  0  0
    2.3532   -2.5654    0.4191 C   0  0  0  0  0  0  0  0  0  0  0  0
    2.6244   -3.6460   -0.6297 C   0  0  0  0  0  0  0  0  0  0  0  0
    3.8694   -4.3587   -0.3990 N   0  0  0  0  0  0  0  0  0  0  0  0
    5.0818   -3.5780   -0.5782 C   0  0  0  0  0  0  0  0  0  0  0  0
    5.2368   -2.4714    0.4802 C   0  0  0  0  0  0  0  0  0  0  0  0
    2.4543    1.9812   -0.4540 H   0  0  0  0  0  0  0  0  0  0  0  0
    4.9606    1.9461   -0.3297 H   0  0  0  0  0  0  0  0  0  0  0  0
    1.2914   -2.2918    0.4028 H   0  0  0  0  0  0  0  0  0  0  0  0
    2.6016   -2.9545    1.4191 H   0  0  0  0  0  0  0  0  0  0  0  0
    2.5562   -3.1757   -1.6370 H   0  0  0  0  0  0  0  0  0  0  0  0
    1.8028   -4.3774   -0.5641 H   0  0  0  0  0  0  0  0  0  0  0  0
    3.9048   -5.1975   -0.9738 H   0  0  0  0  0  0  0  0  0  0  0  0
    5.1657   -3.1147   -1.5880 H   0  0  0  0  0  0  0  0  0  0  0  0
    5.9382   -4.2628   -0.4732 H   0  0  0  0  0  0  0  0  0  0  0  0
    6.2817   -2.1374    0.5118 H   0  0  0  0  0  0  0  0  0  0  0  0
    4.9864   -2.8988    1.4666 H   0  0  0  0  0  0  0  0  0  0  0  0
  1  2  2  0
  2  3  1  0
  2  7  1  0
  3  4  2  0
  3 13  1  0
  4  5  1  0
  4 14  1  0
  5  6  2  0
  6  7  1  0
  6 12  1  0
  7  8  1  0
  8  9  1  0
  8 15  1  0
  8 16  1  0
  9 10  1  0
  9 17  1  0
  9 18  1  0
 10 11  1  0
 10 19  1  0
 11 12  1  0
 11 20  1  0
 11 21  1  0
 12 22  1  0
 12 23  1  0
M  END

