
     RDKit          3D

 33 36  0  0  0  0  0  0  0  0999 V2000
    5.9211    2.8658    4.9500 Cl  0  0  0  0  0  0  0  0  0  0  0  0
    6.1476    2.0199    3.4385 C   0  0  0  0  0  0  0  0  0  0  0  0
    7.0014    2.5500    2.4690 C   0  0  0  0  0  0  0  0  0  0  0  0
    7.1758    1.8654    1.2630 C   0  0  0  0  0  0  0  0  0  0  0  0
    6.5077    0.6602    1.0112 C   0  0  0  0  0  0  0  0  0  0  0  0
    6.6906   -0.0760   -0.3063 C   0  0  0  0  0  0  0  0  0  0  0  0
    7.2518   -1.4611   -0.1578 C   0  0  0  0  0  0  0  0  0  0  0  0
    6.5748   -2.5287   -0.4354 N   0  0  0  0  0  0  0  0  0  0  0  0
    7.3358   -3.6273   -0.1973 N   0  0  0  0  0  0  0  0  0  0  0  0
    7.1909   -5.0001   -0.2972 C   0  0  0  0  0  0  0  0  0  0  0  0
    6.0058   -5.7333   -0.7501 C   0  0  0  0  0  0  0  0  0  0  0  0
    4.8281   -5.0845   -1.1634 C   0  0  0  0  0  0  0  0  0  0  0  0
    3.7274   -5.8342   -1.5862 C   0  0  0  0  0  0  0  0  0  0  0  0
    3.7859   -7.2301   -1.6024 C   0  0  0  0  0  0  0  0  0  0  0  0
    4.9567   -7.8796   -1.1920 C   0  0  0  0  0  0  0  0  0  0  0  0
    6.0594   -7.1412   -0.7687 C   0  0  0  0  0  0  0  0  0  0  0  0
    8.3299   -5.5480    0.0953 N   0  0  0  0  0  0  0  0  0  0  0  0
    9.2306   -4.5769    0.4538 N   0  0  0  0  0  0  0  0  0  0  0  0
    8.6182   -3.4404    0.2722 C   0  0  0  0  0  0  0  0  0  0  0  0
    8.9139   -1.7246    0.4394 S   0  0  0  0  0  0  0  0  0  0  0  0
    5.6550    0.1465    2.0014 C   0  0  0  0  0  0  0  0  0  0  0  0
    5.4704    0.8168    3.2103 C   0  0  0  0  0  0  0  0  0  0  0  0
    7.5236    3.4891    2.6588 H   0  0  0  0  0  0  0  0  0  0  0  0
    7.8438    2.2858    0.5059 H   0  0  0  0  0  0  0  0  0  0  0  0
    7.3484    0.5086   -0.9689 H   0  0  0  0  0  0  0  0  0  0  0  0
    5.7255   -0.1903   -0.8245 H   0  0  0  0  0  0  0  0  0  0  0  0
    4.7759   -3.9953   -1.1541 H   0  0  0  0  0  0  0  0  0  0  0  0
    2.8171   -5.3205   -1.9057 H   0  0  0  0  0  0  0  0  0  0  0  0
    2.9223   -7.8122   -1.9340 H   0  0  0  0  0  0  0  0  0  0  0  0
    5.0093   -8.9712   -1.2023 H   0  0  0  0  0  0  0  0  0  0  0  0
    6.9783   -7.6332   -0.4462 H   0  0  0  0  0  0  0  0  0  0  0  0
    5.1252   -0.7941    1.8266 H   0  0  0  0  0  0  0  0  0  0  0  0
    4.8058    0.4145    3.9765 H   0  0  0  0  0  0  0  0  0  0  0  0
  1  2  1  0
  2  3  2  0
  2 22  1  0
  3  4  1  0
  3 23  1  0
  4  5  2  0
  4 24  1  0
  5  6  1  0
  5 21  1  0
  6  7  1  0
  6 25  1  0
  6 26  1  0
  7  8  2  0
  7 20  1  0
  8  9  1  0
  9 10  1  0
  9 19  1  0
 10 11  1  0
 10 17  2  0
 11 12  2  0
 11 16  1  0
 12 13  1  0
 12 27  1  0
 13 14  2  0
 13 28  1  0
 14 15  1  0
 14 29  1  0
 15 16  2  0
 15 30  1  0
 16 31  1  0
 17 18  1  0
 18 19  2  0
 19 20  1  0
 21 22  2  0
 21 32  1  0
 22 33  1  0
M  END

