
     RDKit          3D

 25 26  0  0  0  0  0  0  0  0999 V2000
    1.2243    0.3662    0.4225 O   0  0  0  0  0  0  0  0  0  0  0  0
    2.3837    0.1245    0.1432 C   0  0  0  0  0  0  0  0  0  0  0  0
    3.1507    0.9618   -0.6267 N   0  0  0  0  0  0  0  0  0  0  0  0
    2.5672    2.1570   -1.2208 C   0  0  0  0  0  0  0  0  0  0  0  0
    1.9024    1.9108   -2.5420 C   0  0  0  0  0  0  0  0  0  0  0  0
    0.6497    1.4999   -2.9035 C   0  0  0  0  0  0  0  0  0  0  0  0
    0.7287    1.4283   -4.3241 C   0  0  0  0  0  0  0  0  0  0  0  0
    1.9156    1.7637   -4.7708 N   0  0  0  0  0  0  0  0  0  0  0  0
    2.6591    2.0666   -3.6465 O   0  0  0  0  0  0  0  0  0  0  0  0
    3.1181   -1.0887    0.6696 C   0  0  0  0  0  0  0  0  0  0  0  0
    4.3634   -0.9001    1.2927 C   0  0  0  0  0  0  0  0  0  0  0  0
    5.0496   -1.9768    1.8557 C   0  0  0  0  0  0  0  0  0  0  0  0
    6.7264   -1.6819    2.7084 Br  0  0  0  0  0  0  0  0  0  0  0  0
    4.5139   -3.2648    1.7989 C   0  0  0  0  0  0  0  0  0  0  0  0
    3.2828   -3.4643    1.1720 C   0  0  0  0  0  0  0  0  0  0  0  0
    2.5832   -2.3889    0.6152 C   0  0  0  0  0  0  0  0  0  0  0  0
    0.9321   -2.7674   -0.2526 Br  0  0  0  0  0  0  0  0  0  0  0  0
    4.0300    0.6187   -0.9967 H   0  0  0  0  0  0  0  0  0  0  0  0
    3.3551    2.9139   -1.3491 H   0  0  0  0  0  0  0  0  0  0  0  0
    1.8207    2.5402   -0.5132 H   0  0  0  0  0  0  0  0  0  0  0  0
   -0.1852    1.2712   -2.2471 H   0  0  0  0  0  0  0  0  0  0  0  0
   -0.0449    1.1444   -5.0385 H   0  0  0  0  0  0  0  0  0  0  0  0
    4.7841    0.1047    1.3557 H   0  0  0  0  0  0  0  0  0  0  0  0
    5.0497   -4.1083    2.2371 H   0  0  0  0  0  0  0  0  0  0  0  0
    2.8608   -4.4689    1.1122 H   0  0  0  0  0  0  0  0  0  0  0  0
  1  2  2  0
  2  3  1  0
  2 10  1  0
  3  4  1  0
  3 18  1  0
  4  5  1  0
  4 19  1  0
  4 20  1  0
  5  6  2  0
  5  9  1  0
  6  7  1  0
  6 21  1  0
  7  8  2  0
  7 22  1  0
  8  9  1  0
 10 11  2  0
 10 16  1  0
 11 12  1  0
 11 23  1  0
 12 13  1  0
 12 14  2  0
 14 15  1  0
 14 24  1  0
 15 16  2  0
 15 25  1  0
 16 17  1  0
M  END

