
     RDKit          3D

 31 32  0  0  0  0  0  0  0  0999 V2000
    1.4657   -0.5287    1.1318 O   0  0  0  0  0  0  0  0  0  0  0  0
    2.5375   -0.2892    0.6203 C   0  0  0  0  0  0  0  0  0  0  0  0
    3.3494   -1.3520   -0.1082 C   0  0  0  0  0  0  0  0  0  0  0  0
    3.8579   -0.8524   -1.4712 C   0  0  0  0  0  0  0  0  0  0  0  0
    4.5977    0.4825   -1.3416 C   0  0  0  0  0  0  0  0  0  0  0  0
    3.7151    1.5674   -0.6860 C   0  0  2  0  0  0  0  0  0  0  0  0
    4.5407    2.8467   -0.4905 C   0  0  0  0  0  0  0  0  0  0  0  0
    5.3003    2.9597    0.4636 O   0  0  0  0  0  0  0  0  0  0  0  0
    4.4271    3.8300   -1.4284 N   0  0  0  0  0  0  0  0  0  0  0  0
    3.5724    3.8422   -2.6224 C   0  0  0  0  0  0  0  0  0  0  0  0
    4.0619    5.0741   -3.3982 C   0  0  0  0  0  0  0  0  0  0  0  0
    4.5376    6.0227   -2.2889 C   0  0  0  0  0  0  0  0  0  0  0  0
    5.1946    5.0746   -1.2806 C   0  0  0  0  0  0  0  0  0  0  0  0
    3.1764    1.0888    0.6775 C   0  0  0  0  0  0  0  0  0  0  0  0
    2.7340   -2.2591   -0.1961 H   0  0  0  0  0  0  0  0  0  0  0  0
    4.2170   -1.5953    0.5337 H   0  0  0  0  0  0  0  0  0  0  0  0
    2.9999   -0.7328   -2.1569 H   0  0  0  0  0  0  0  0  0  0  0  0
    4.5156   -1.6101   -1.9276 H   0  0  0  0  0  0  0  0  0  0  0  0
    4.9407    0.8254   -2.3325 H   0  0  0  0  0  0  0  0  0  0  0  0
    5.5040    0.3562   -0.7238 H   0  0  0  0  0  0  0  0  0  0  0  0
    2.8574    1.7616   -1.3498 H   0  0  0  0  0  0  0  0  0  0  0  0
    2.5057    3.9464   -2.3486 H   0  0  0  0  0  0  0  0  0  0  0  0
    3.6745    2.9164   -3.2098 H   0  0  0  0  0  0  0  0  0  0  0  0
    3.2791    5.5023   -4.0418 H   0  0  0  0  0  0  0  0  0  0  0  0
    4.9101    4.7956   -4.0458 H   0  0  0  0  0  0  0  0  0  0  0  0
    3.6730    6.5280   -1.8264 H   0  0  0  0  0  0  0  0  0  0  0  0
    5.2249    6.8028   -2.6480 H   0  0  0  0  0  0  0  0  0  0  0  0
    5.1528    5.4246   -0.2390 H   0  0  0  0  0  0  0  0  0  0  0  0
    6.2603    4.8980   -1.5151 H   0  0  0  0  0  0  0  0  0  0  0  0
    2.4427    1.7929    1.0966 H   0  0  0  0  0  0  0  0  0  0  0  0
    4.0324    1.0501    1.3747 H   0  0  0  0  0  0  0  0  0  0  0  0
  1  2  2  0
  2  3  1  0
  2 14  1  0
  3  4  1  0
  3 15  1  0
  3 16  1  0
  4  5  1  0
  4 17  1  0
  4 18  1  0
  5  6  1  0
  5 19  1  0
  5 20  1  0
  6  7  1  0
  6 14  1  0
  6 21  1  6
  7  8  2  0
  7  9  1  0
  9 10  1  0
  9 13  1  0
 10 11  1  0
 10 22  1  0
 10 23  1  0
 11 12  1  0
 11 24  1  0
 11 25  1  0
 12 13  1  0
 12 26  1  0
 12 27  1  0
 13 28  1  0
 13 29  1  0
 14 30  1  0
 14 31  1  0
M  END

