
     RDKit          3D

 45 46  0  0  0  0  0  0  0  0999 V2000
    4.9888   -1.7786    2.9381 C   0  0  0  0  0  0  0  0  0  0  0  0
    3.9267   -0.7683    2.5039 C   0  0  0  0  0  0  0  0  0  0  0  0
    4.4071    0.6026    2.5135 N   0  0  0  0  0  0  0  0  0  0  0  0
    4.4966    1.3685    1.3825 C   0  0  0  0  0  0  0  0  0  0  0  0
    4.1427    0.9675    0.2828 O   0  0  0  0  0  0  0  0  0  0  0  0
    5.0450    2.7608    1.5697 C   0  0  0  0  0  0  0  0  0  0  0  0
    5.8482    3.1497    2.6517 C   0  0  0  0  0  0  0  0  0  0  0  0
    6.3342    4.4558    2.7538 C   0  0  0  0  0  0  0  0  0  0  0  0
    6.0301    5.4056    1.7686 C   0  0  0  0  0  0  0  0  0  0  0  0
    6.4971    6.8477    1.8670 C   0  0  0  0  0  0  0  0  0  0  0  0
    7.6976    7.0313    2.6599 N   0  0  0  0  0  0  0  0  0  0  0  0
    7.7094    7.7748    3.7971 C   0  0  0  0  0  0  0  0  0  0  0  0
    6.7757    8.4345    4.2118 O   0  0  0  0  0  0  0  0  0  0  0  0
    9.0457    7.7850    4.5647 C   0  0  0  0  0  0  0  0  0  0  0  0
    9.7689    6.1211    4.7405 S   0  0  1  0  0  0  0  0  0  0  0  0
    8.8094    5.2907    5.4833 O   0  0  0  0  0  0  0  0  0  0  0  0
   10.2299    5.7189    3.3941 O   0  0  0  0  0  0  0  0  0  0  0  0
   11.2209    6.3539    5.7682 C   0  0  0  0  0  0  0  0  0  0  0  0
   11.0937    6.2489    7.1568 C   0  0  0  0  0  0  0  0  0  0  0  0
   12.2212    6.4243    7.9589 C   0  0  0  0  0  0  0  0  0  0  0  0
   13.4573    6.6938    7.3579 C   0  0  0  0  0  0  0  0  0  0  0  0
   14.8648    6.9126    8.3593 Cl  0  0  0  0  0  0  0  0  0  0  0  0
   13.5835    6.7824    5.9659 C   0  0  0  0  0  0  0  0  0  0  0  0
   12.4557    6.6084    5.1637 C   0  0  0  0  0  0  0  0  0  0  0  0
    5.2452    5.0086    0.6733 C   0  0  0  0  0  0  0  0  0  0  0  0
    4.7626    3.7065    0.5718 C   0  0  0  0  0  0  0  0  0  0  0  0
    4.5772   -2.8007    2.9257 H   0  0  0  0  0  0  0  0  0  0  0  0
    5.3460   -1.5762    3.9620 H   0  0  0  0  0  0  0  0  0  0  0  0
    5.8586   -1.7495    2.2634 H   0  0  0  0  0  0  0  0  0  0  0  0
    3.0371   -0.8519    3.1544 H   0  0  0  0  0  0  0  0  0  0  0  0
    3.5969   -0.9679    1.4747 H   0  0  0  0  0  0  0  0  0  0  0  0
    4.6200    1.0298    3.4058 H   0  0  0  0  0  0  0  0  0  0  0  0
    6.1359    2.4282    3.4209 H   0  0  0  0  0  0  0  0  0  0  0  0
    6.9687    4.7224    3.6017 H   0  0  0  0  0  0  0  0  0  0  0  0
    5.7191    7.4675    2.3410 H   0  0  0  0  0  0  0  0  0  0  0  0
    6.6495    7.2514    0.8509 H   0  0  0  0  0  0  0  0  0  0  0  0
    8.5274    6.4840    2.4323 H   0  0  0  0  0  0  0  0  0  0  0  0
    8.8539    8.1812    5.5692 H   0  0  0  0  0  0  0  0  0  0  0  0
    9.7973    8.4021    4.0494 H   0  0  0  0  0  0  0  0  0  0  0  0
   10.1234    6.0151    7.5993 H   0  0  0  0  0  0  0  0  0  0  0  0
   12.1512    6.3456    9.0448 H   0  0  0  0  0  0  0  0  0  0  0  0
   14.5602    6.9781    5.5209 H   0  0  0  0  0  0  0  0  0  0  0  0
   12.5310    6.6501    4.0754 H   0  0  0  0  0  0  0  0  0  0  0  0
    5.0133    5.7319   -0.1145 H   0  0  0  0  0  0  0  0  0  0  0  0
    4.1647    3.3891   -0.2845 H   0  0  0  0  0  0  0  0  0  0  0  0
  1  2  1  0
  1 27  1  0
  1 28  1  0
  1 29  1  0
  2  3  1  0
  2 30  1  0
  2 31  1  0
  3  4  1  0
  3 32  1  0
  4  5  2  0
  4  6  1  0
  6  7  2  0
  6 26  1  0
  7  8  1  0
  7 33  1  0
  8  9  2  0
  8 34  1  0
  9 10  1  0
  9 25  1  0
 10 11  1  0
 10 35  1  0
 10 36  1  0
 11 12  1  0
 11 37  1  0
 12 13  2  0
 12 14  1  0
 15 14  1  6
 14 38  1  0
 14 39  1  0
 15 16  2  0
 15 17  2  0
 15 18  1  0
 18 19  2  0
 18 24  1  0
 19 20  1  0
 19 40  1  0
 20 21  2  0
 20 41  1  0
 21 22  1  0
 21 23  1  0
 23 24  2  0
 23 42  1  0
 24 43  1  0
 25 26  2  0
 25 44  1  0
 26 45  1  0
M  END

