
     RDKit          3D

 35 36  0  0  0  0  0  0  0  0999 V2000
    1.6240   -0.7085    0.9904 O   0  0  0  0  0  0  0  0  0  0  0  0
    2.5909   -0.3037    0.3636 C   0  0  0  0  0  0  0  0  0  0  0  0
    3.2277    0.9885    0.8257 C   0  0  0  0  0  0  0  0  0  0  0  0
    4.4347    0.9809    1.5384 C   0  0  0  0  0  0  0  0  0  0  0  0
    4.9285    2.1722    2.0745 C   0  0  0  0  0  0  0  0  0  0  0  0
    4.3049    3.3445    1.9407 N   0  0  0  0  0  0  0  0  0  0  0  0
    3.1469    3.3640    1.2837 C   0  0  0  0  0  0  0  0  0  0  0  0
    2.5614    2.2195    0.7243 C   0  0  0  0  0  0  0  0  0  0  0  0
    1.0234    2.3738   -0.0714 Cl  0  0  0  0  0  0  0  0  0  0  0  0
    3.1360   -1.0032   -0.6862 N   0  0  0  0  0  0  0  0  0  0  0  0
    2.5047   -2.2931   -1.0033 C   0  0  0  0  0  0  0  0  0  0  0  0
    3.2629   -3.5040   -0.4504 C   0  0  0  0  0  0  0  0  0  0  0  0
    4.7466   -3.6050   -0.8377 C   0  0  0  0  0  0  0  0  0  0  0  0
    5.6317   -2.4842   -0.2616 C   0  0  0  0  0  0  0  0  0  0  0  0
    5.6491   -1.1560   -1.0371 C   0  0  0  0  0  0  0  0  0  0  0  0
    4.2798   -0.6548   -1.5499 C   0  0  2  0  0  0  0  0  0  0  0  0
    4.3695    0.8139   -2.0022 C   0  0  0  0  0  0  0  0  0  0  0  0
    3.1498    1.3629   -2.4258 O   0  0  0  0  0  0  0  0  0  0  0  0
    4.9793    0.0464    1.6880 H   0  0  0  0  0  0  0  0  0  0  0  0
    5.8698    2.1748    2.6363 H   0  0  0  0  0  0  0  0  0  0  0  0
    2.6343    4.3270    1.1844 H   0  0  0  0  0  0  0  0  0  0  0  0
    2.4235   -2.3670   -2.1016 H   0  0  0  0  0  0  0  0  0  0  0  0
    1.4897   -2.2743   -0.5880 H   0  0  0  0  0  0  0  0  0  0  0  0
    2.7327   -4.4121   -0.7871 H   0  0  0  0  0  0  0  0  0  0  0  0
    3.1817   -3.4915    0.6506 H   0  0  0  0  0  0  0  0  0  0  0  0
    4.8554   -3.6490   -1.9380 H   0  0  0  0  0  0  0  0  0  0  0  0
    5.1254   -4.5715   -0.4658 H   0  0  0  0  0  0  0  0  0  0  0  0
    6.6732   -2.8401   -0.1938 H   0  0  0  0  0  0  0  0  0  0  0  0
    5.3154   -2.2995    0.7802 H   0  0  0  0  0  0  0  0  0  0  0  0
    6.3069   -1.2551   -1.9182 H   0  0  0  0  0  0  0  0  0  0  0  0
    6.1147   -0.3820   -0.4036 H   0  0  0  0  0  0  0  0  0  0  0  0
    4.0695   -1.2226   -2.4725 H   0  0  0  0  0  0  0  0  0  0  0  0
    5.1458    0.8482   -2.7944 H   0  0  0  0  0  0  0  0  0  0  0  0
    4.7323    1.4579   -1.1903 H   0  0  0  0  0  0  0  0  0  0  0  0
    2.7863    0.8226   -3.1395 H   0  0  0  0  0  0  0  0  0  0  0  0
  1  2  2  0
  2  3  1  0
  2 10  1  0
  3  4  2  0
  3  8  1  0
  4  5  1  0
  4 19  1  0
  5  6  2  0
  5 20  1  0
  6  7  1  0
  7  8  2  0
  7 21  1  0
  8  9  1  0
 10 11  1  0
 10 16  1  0
 11 12  1  0
 11 22  1  0
 11 23  1  0
 12 13  1  0
 12 24  1  0
 12 25  1  0
 13 14  1  0
 13 26  1  0
 13 27  1  0
 14 15  1  0
 14 28  1  0
 14 29  1  0
 15 16  1  0
 15 30  1  0
 15 31  1  0
 16 17  1  0
 16 32  1  6
 17 18  1  0
 17 33  1  0
 17 34  1  0
 18 35  1  0
M  END

