
     RDKit          3D

 24 24  0  0  0  0  0  0  0  0999 V2000
    4.1823    3.2054   -2.1836 C   0  0  0  0  0  0  0  0  0  0  0  0
    4.8438    2.4033   -1.5629 C   0  0  0  0  0  0  0  0  0  0  0  0
    5.6649    1.4468   -0.8123 C   0  0  0  0  0  0  0  0  0  0  0  0
    6.0374    0.2746   -1.5862 N   0  0  0  0  0  0  0  0  0  0  0  0
    5.7047   -0.9823   -1.1845 C   0  0  0  0  0  0  0  0  0  0  0  0
    5.0761   -1.2410   -0.1708 O   0  0  0  0  0  0  0  0  0  0  0  0
    6.1976   -2.1010   -2.1248 C   0  0  0  0  0  0  0  0  0  0  0  0
    7.6360   -2.3264   -2.1061 N   0  0  0  0  0  0  0  0  0  0  0  0
    8.4823   -1.5129   -2.7770 C   0  0  0  0  0  0  0  0  0  0  0  0
    8.1943   -0.4589   -3.4902 N   0  0  0  0  0  0  0  0  0  0  0  0
    9.4011   -0.0209   -4.0260 N   0  0  0  0  0  0  0  0  0  0  0  0
   10.3218   -0.8099   -3.5936 C   0  0  0  0  0  0  0  0  0  0  0  0
   11.7838   -0.7824   -3.8379 C   0  0  0  0  0  0  0  0  0  0  0  0
    9.8024   -1.8002   -2.7810 O   0  0  0  0  0  0  0  0  0  0  0  0
    3.5907    3.9116   -2.7351 H   0  0  0  0  0  0  0  0  0  0  0  0
    5.1138    1.0781    0.0675 H   0  0  0  0  0  0  0  0  0  0  0  0
    6.5672    1.9641   -0.4362 H   0  0  0  0  0  0  0  0  0  0  0  0
    6.6071    0.3857   -2.4299 H   0  0  0  0  0  0  0  0  0  0  0  0
    5.9007   -1.8755   -3.1615 H   0  0  0  0  0  0  0  0  0  0  0  0
    5.6960   -3.0226   -1.8038 H   0  0  0  0  0  0  0  0  0  0  0  0
    8.0312   -2.9065   -1.3758 H   0  0  0  0  0  0  0  0  0  0  0  0
   12.0114    0.0593   -4.5040 H   0  0  0  0  0  0  0  0  0  0  0  0
   12.1268   -1.7178   -4.3084 H   0  0  0  0  0  0  0  0  0  0  0  0
   12.3418   -0.6566   -2.8959 H   0  0  0  0  0  0  0  0  0  0  0  0
  1  2  3  0
  1 15  1  0
  2  3  1  0
  3  4  1  0
  3 16  1  0
  3 17  1  0
  4  5  1  0
  4 18  1  0
  5  6  2  0
  5  7  1  0
  7  8  1  0
  7 19  1  0
  7 20  1  0
  8  9  1  0
  8 21  1  0
  9 10  2  0
  9 14  1  0
 10 11  1  0
 11 12  2  0
 12 13  1  0
 12 14  1  0
 13 22  1  0
 13 23  1  0
 13 24  1  0
M  END

