
     RDKit          3D

 52 56  0  0  0  0  0  0  0  0999 V2000
    0.6719    1.5351    2.9656 O   0  0  0  0  0  0  0  0  0  0  0  0
    1.8239    1.2115    2.9901 C   0  0  0  0  0  0  0  0  0  0  0  0
    2.2445   -0.0582    3.4169 O   0  0  0  0  0  0  0  0  0  0  0  0
    3.6099   -0.0687    3.3104 C   0  0  0  0  0  0  0  0  0  0  0  0
    4.3016   -1.2960    3.6977 C   0  0  0  0  0  0  0  0  0  0  0  0
    3.5805   -2.4126    4.1594 C   0  0  0  0  0  0  0  0  0  0  0  0
    4.2565   -3.5773    4.5251 C   0  0  0  0  0  0  0  0  0  0  0  0
    5.6507   -3.6393    4.4345 C   0  0  0  0  0  0  0  0  0  0  0  0
    6.3724   -2.5298    3.9754 C   0  0  0  0  0  0  0  0  0  0  0  0
    5.7052   -1.3635    3.6084 C   0  0  0  0  0  0  0  0  0  0  0  0
    4.1449    1.0248    2.8714 N   0  0  0  0  0  0  0  0  0  0  0  0
    3.0889    1.9010    2.6392 C   0  0  0  0  0  0  0  0  0  0  0  0
    3.1127    3.1850    2.1737 C   0  0  0  0  0  0  0  0  0  0  0  0
    4.2308    4.0130    1.7856 C   0  0  0  0  0  0  0  0  0  0  0  0
    5.5819    3.5892    1.8358 C   0  0  0  0  0  0  0  0  0  0  0  0
    6.6132    4.4322    1.4512 C   0  0  0  0  0  0  0  0  0  0  0  0
    6.3523    5.7438    0.9896 C   0  0  0  0  0  0  0  0  0  0  0  0
    7.4006    6.5940    0.5995 N   0  0  0  0  0  0  0  0  0  0  0  0
    8.5889    6.0658    0.0160 C   0  0  0  0  0  0  0  0  0  0  0  0
    8.5184    5.1116   -1.0141 C   0  0  0  0  0  0  0  0  0  0  0  0
    9.6873    4.6027   -1.5827 C   0  0  0  0  0  0  0  0  0  0  0  0
   10.9401    5.0479   -1.1483 C   0  0  0  0  0  0  0  0  0  0  0  0
   11.0132    6.0055   -0.1317 C   0  0  0  0  0  0  0  0  0  0  0  0
    9.8494    6.5079    0.4531 C   0  0  0  0  0  0  0  0  0  0  0  0
    7.2957    8.0051    0.7730 C   0  0  0  0  0  0  0  0  0  0  0  0
    6.8625    8.5455    1.9964 C   0  0  0  0  0  0  0  0  0  0  0  0
    6.7656    9.9285    2.1593 C   0  0  0  0  0  0  0  0  0  0  0  0
    7.1144   10.7922    1.1158 C   0  0  0  0  0  0  0  0  0  0  0  0
    7.5564   10.2578   -0.0986 C   0  0  0  0  0  0  0  0  0  0  0  0
    7.6412    8.8754   -0.2749 C   0  0  0  0  0  0  0  0  0  0  0  0
    5.0082    6.1744    0.9347 C   0  0  0  0  0  0  0  0  0  0  0  0
    3.9811    5.3278    1.3264 C   0  0  0  0  0  0  0  0  0  0  0  0
    2.4931   -2.3563    4.2272 H   0  0  0  0  0  0  0  0  0  0  0  0
    3.6920   -4.4418    4.8829 H   0  0  0  0  0  0  0  0  0  0  0  0
    6.1773   -4.5530    4.7217 H   0  0  0  0  0  0  0  0  0  0  0  0
    7.4618   -2.5775    3.9044 H   0  0  0  0  0  0  0  0  0  0  0  0
    6.2529   -0.4909    3.2489 H   0  0  0  0  0  0  0  0  0  0  0  0
    2.1212    3.6419    2.0875 H   0  0  0  0  0  0  0  0  0  0  0  0
    5.8024    2.5852    2.1984 H   0  0  0  0  0  0  0  0  0  0  0  0
    7.6446    4.0824    1.5148 H   0  0  0  0  0  0  0  0  0  0  0  0
    7.5425    4.7722   -1.3666 H   0  0  0  0  0  0  0  0  0  0  0  0
    9.6163    3.8612   -2.3827 H   0  0  0  0  0  0  0  0  0  0  0  0
   11.8529    4.6525   -1.6002 H   0  0  0  0  0  0  0  0  0  0  0  0
   11.9862    6.3585    0.2197 H   0  0  0  0  0  0  0  0  0  0  0  0
    9.9102    7.2476    1.2537 H   0  0  0  0  0  0  0  0  0  0  0  0
    6.6035    7.8750    2.8182 H   0  0  0  0  0  0  0  0  0  0  0  0
    6.4274   10.3339    3.1164 H   0  0  0  0  0  0  0  0  0  0  0  0
    7.0437   11.8743    1.2489 H   0  0  0  0  0  0  0  0  0  0  0  0
    7.8280   10.9220   -0.9230 H   0  0  0  0  0  0  0  0  0  0  0  0
    7.9767    8.4610   -1.2276 H   0  0  0  0  0  0  0  0  0  0  0  0
    4.7765    7.1769    0.5729 H   0  0  0  0  0  0  0  0  0  0  0  0
    2.9484    5.6821    1.2656 H   0  0  0  0  0  0  0  0  0  0  0  0
  1  2  2  0
  2  3  1  0
  2 12  1  0
  3  4  1  0
  4  5  1  0
  4 11  2  0
  5  6  2  0
  5 10  1  0
  6  7  1  0
  6 33  1  0
  7  8  2  0
  7 34  1  0
  8  9  1  0
  8 35  1  0
  9 10  2  0
  9 36  1  0
 10 37  1  0
 11 12  1  0
 12 13  2  0
 13 14  1  0
 13 38  1  0
 14 15  2  0
 14 32  1  0
 15 16  1  0
 15 39  1  0
 16 17  2  0
 16 40  1  0
 17 18  1  0
 17 31  1  0
 18 19  1  0
 18 25  1  0
 19 20  2  0
 19 24  1  0
 20 21  1  0
 20 41  1  0
 21 22  2  0
 21 42  1  0
 22 23  1  0
 22 43  1  0
 23 24  2  0
 23 44  1  0
 24 45  1  0
 25 26  2  0
 25 30  1  0
 26 27  1  0
 26 46  1  0
 27 28  2  0
 27 47  1  0
 28 29  1  0
 28 48  1  0
 29 30  2  0
 29 49  1  0
 30 50  1  0
 31 32  2  0
 31 51  1  0
 32 52  1  0
M  END

