
     RDKit          3D

 43 44  0  0  0  0  0  0  0  0999 V2000
    7.2341   -4.4325    1.3333 N   0  0  0  0  0  0  0  0  0  0  0  0
    6.7066   -3.5811    0.7415 C   0  0  0  0  0  0  0  0  0  0  0  0
    6.0058   -2.5700    0.0158 C   0  0  0  0  0  0  0  0  0  0  0  0
    6.6271   -1.3793   -0.3790 C   0  0  0  0  0  0  0  0  0  0  0  0
    5.9013   -0.4270   -1.0932 C   0  0  0  0  0  0  0  0  0  0  0  0
    4.5639   -0.7174   -1.3817 C   0  0  0  0  0  0  0  0  0  0  0  0
    3.9438   -1.8363   -1.0150 N   0  0  0  0  0  0  0  0  0  0  0  0
    4.6253   -2.7679   -0.3295 C   0  0  0  0  0  0  0  0  0  0  0  0
    3.9747   -3.9090    0.0173 N   0  0  0  0  0  0  0  0  0  0  0  0
    2.5852   -4.1792   -0.3049 C   0  0  0  0  0  0  0  0  0  0  0  0
    1.5946   -3.5268    0.6781 C   0  0  0  0  0  0  0  0  0  0  0  0
    0.2090   -3.8024    0.3551 N   0  0  0  0  0  0  0  0  0  0  0  0
   -0.3482   -5.0295    0.6509 C   0  0  0  0  0  0  0  0  0  0  0  0
    0.2636   -5.9005    1.2602 O   0  0  0  0  0  0  0  0  0  0  0  0
   -1.6390   -5.2023    0.2159 N   0  0  0  0  0  0  0  0  0  0  0  0
   -2.3716   -6.4111    0.4889 C   0  0  1  0  0  0  0  0  0  0  0  0
   -1.7087   -7.2765    0.3227 H   0  0  0  0  0  0  0  0  0  0  0  0
   -2.9178   -6.4720    1.9552 C   0  0  0  0  0  0  0  0  0  0  0  0
   -3.9510   -7.5659    2.3128 C   0  0  0  0  0  0  0  0  0  0  0  0
   -5.3529   -7.4334    1.6664 C   0  0  0  0  0  0  0  0  0  0  0  0
   -5.4373   -7.9274    0.1999 C   0  0  0  0  0  0  0  0  0  0  0  0
   -4.1511   -7.7507   -0.4882 N   0  0  0  0  0  0  0  0  0  0  0  0
   -3.6090   -6.4770   -0.3941 C   0  0  0  0  0  0  0  0  0  0  0  0
   -4.1745   -5.4733   -0.7816 O   0  0  0  0  0  0  0  0  0  0  0  0
    7.6760   -1.2151   -0.1223 H   0  0  0  0  0  0  0  0  0  0  0  0
    6.3537    0.5114   -1.4161 H   0  0  0  0  0  0  0  0  0  0  0  0
    3.9572    0.0045   -1.9422 H   0  0  0  0  0  0  0  0  0  0  0  0
    4.4821   -4.5892    0.5707 H   0  0  0  0  0  0  0  0  0  0  0  0
    2.4346   -5.2681   -0.2834 H   0  0  0  0  0  0  0  0  0  0  0  0
    2.3804   -3.8168   -1.3236 H   0  0  0  0  0  0  0  0  0  0  0  0
    1.7457   -2.4371    0.6780 H   0  0  0  0  0  0  0  0  0  0  0  0
    1.7940   -3.9030    1.6925 H   0  0  0  0  0  0  0  0  0  0  0  0
   -0.2477   -3.2090   -0.3272 H   0  0  0  0  0  0  0  0  0  0  0  0
   -2.1924   -4.4410   -0.1669 H   0  0  0  0  0  0  0  0  0  0  0  0
   -3.3658   -5.4850    2.1636 H   0  0  0  0  0  0  0  0  0  0  0  0
   -2.0369   -6.5704    2.6077 H   0  0  0  0  0  0  0  0  0  0  0  0
   -4.0823   -7.5227    3.4063 H   0  0  0  0  0  0  0  0  0  0  0  0
   -3.5310   -8.5709    2.1173 H   0  0  0  0  0  0  0  0  0  0  0  0
   -5.6552   -6.3735    1.7122 H   0  0  0  0  0  0  0  0  0  0  0  0
   -6.0898   -7.9869    2.2714 H   0  0  0  0  0  0  0  0  0  0  0  0
   -6.2225   -7.3906   -0.3514 H   0  0  0  0  0  0  0  0  0  0  0  0
   -5.6852   -8.9992    0.1566 H   0  0  0  0  0  0  0  0  0  0  0  0
   -3.4847   -8.4580   -0.1922 H   0  0  0  0  0  0  0  0  0  0  0  0
  1  2  3  0
  2  3  1  0
  3  4  2  0
  3  8  1  0
  4  5  1  0
  4 25  1  0
  5  6  2  0
  5 26  1  0
  6  7  1  0
  6 27  1  0
  7  8  2  0
  8  9  1  0
  9 10  1  0
  9 28  1  0
 10 11  1  0
 10 29  1  0
 10 30  1  0
 11 12  1  0
 11 31  1  0
 11 32  1  0
 12 13  1  0
 12 33  1  0
 13 14  2  0
 13 15  1  0
 15 16  1  0
 15 34  1  0
 16 17  1  6
 16 18  1  0
 16 23  1  0
 18 19  1  0
 18 35  1  0
 18 36  1  0
 19 20  1  0
 19 37  1  0
 19 38  1  0
 20 21  1  0
 20 39  1  0
 20 40  1  0
 21 22  1  0
 21 41  1  0
 21 42  1  0
 22 23  1  0
 22 43  1  0
 23 24  2  0
M  END

