
     RDKit          3D

 54 59  0  0  0  0  0  0  0  0999 V2000
    3.4893    1.2362   -5.4665 C   0  0  0  0  0  0  0  0  0  0  0  0
    3.3608    0.4499   -4.2964 O   0  0  0  0  0  0  0  0  0  0  0  0
    3.1516    1.0684   -3.0882 C   0  0  0  0  0  0  0  0  0  0  0  0
    2.7155    2.3942   -2.9713 C   0  0  0  0  0  0  0  0  0  0  0  0
    2.4761    2.9367   -1.7051 C   0  0  0  0  0  0  0  0  0  0  0  0
    2.6670    2.1627   -0.5602 C   0  0  0  0  0  0  0  0  0  0  0  0
    3.1125    0.8443   -0.6879 C   0  0  0  0  0  0  0  0  0  0  0  0
    3.3721    0.2812   -1.9402 C   0  0  0  0  0  0  0  0  0  0  0  0
    3.8783   -1.1557   -2.0801 C   0  0  2  0  0  0  0  0  0  0  0  0
    2.8151   -2.2159   -1.9180 C   0  0  0  0  0  0  0  0  0  0  0  0
    3.0694   -2.9997   -0.7905 C   0  0  0  0  0  0  0  0  0  0  0  0
    2.3374   -3.9998   -0.3538 N   0  0  0  0  0  0  0  0  0  0  0  0
    1.2311   -4.2763   -1.0734 C   0  0  0  0  0  0  0  0  0  0  0  0
    0.8478   -3.5722   -2.2256 C   0  0  0  0  0  0  0  0  0  0  0  0
    1.6821   -2.5087   -2.6885 C   0  0  0  0  0  0  0  0  0  0  0  0
    1.3832   -1.8037   -3.8183 N   0  0  0  0  0  0  0  0  0  0  0  0
   -0.4072   -3.9221   -3.0008 C   0  0  0  0  0  0  0  0  0  0  0  0
   -1.3615   -4.8501   -2.2399 C   0  0  0  0  0  0  0  0  0  0  0  0
   -0.5937   -5.9869   -1.5645 C   0  0  0  0  0  0  0  0  0  0  0  0
    0.3941   -5.4228   -0.5425 C   0  0  0  0  0  0  0  0  0  0  0  0
    4.2835   -2.5714   -0.1946 N   0  0  0  0  0  0  0  0  0  0  0  0
    4.9472   -3.0697    0.9228 C   0  0  0  0  0  0  0  0  0  0  0  0
    4.4660   -3.9162    1.6491 O   0  0  0  0  0  0  0  0  0  0  0  0
    6.3094   -2.4928    1.1244 C   0  0  0  0  0  0  0  0  0  0  0  0
    7.0629   -2.9398    2.2210 C   0  0  0  0  0  0  0  0  0  0  0  0
    8.3497   -2.4496    2.4277 C   0  0  0  0  0  0  0  0  0  0  0  0
    8.9002   -1.5106    1.5406 C   0  0  0  0  0  0  0  0  0  0  0  0
    8.1607   -1.0628    0.4493 C   0  0  0  0  0  0  0  0  0  0  0  0
    6.8622   -1.5499    0.2384 C   0  0  0  0  0  0  0  0  0  0  0  0
    6.0831   -1.0480   -0.9215 C   0  0  0  0  0  0  0  0  0  0  0  0
    6.4970   -0.2389   -1.7413 O   0  0  0  0  0  0  0  0  0  0  0  0
    4.8043   -1.5350   -0.9989 N   0  0  0  0  0  0  0  0  0  0  0  0
    3.7977    0.5534   -6.2696 H   0  0  0  0  0  0  0  0  0  0  0  0
    4.2588    2.0160   -5.3393 H   0  0  0  0  0  0  0  0  0  0  0  0
    2.5344    1.7135   -5.7494 H   0  0  0  0  0  0  0  0  0  0  0  0
    2.5551    3.0067   -3.8588 H   0  0  0  0  0  0  0  0  0  0  0  0
    2.1358    3.9718   -1.6214 H   0  0  0  0  0  0  0  0  0  0  0  0
    2.4788    2.5832    0.4301 H   0  0  0  0  0  0  0  0  0  0  0  0
    3.2827    0.2415    0.2073 H   0  0  0  0  0  0  0  0  0  0  0  0
    4.4170   -1.2286   -3.0384 H   0  0  0  0  0  0  0  0  0  0  0  0
    0.6250   -2.1000   -4.4138 H   0  0  0  0  0  0  0  0  0  0  0  0
    2.0264   -1.1048   -4.1770 H   0  0  0  0  0  0  0  0  0  0  0  0
   -0.1239   -4.3987   -3.9613 H   0  0  0  0  0  0  0  0  0  0  0  0
   -0.9437   -2.9949   -3.2752 H   0  0  0  0  0  0  0  0  0  0  0  0
   -1.8991   -4.2703   -1.4683 H   0  0  0  0  0  0  0  0  0  0  0  0
   -2.1280   -5.2411   -2.9289 H   0  0  0  0  0  0  0  0  0  0  0  0
   -0.0493   -6.5678   -2.3315 H   0  0  0  0  0  0  0  0  0  0  0  0
   -1.2869   -6.6896   -1.0742 H   0  0  0  0  0  0  0  0  0  0  0  0
    1.0835   -6.1946   -0.1668 H   0  0  0  0  0  0  0  0  0  0  0  0
   -0.1522   -5.0585    0.3476 H   0  0  0  0  0  0  0  0  0  0  0  0
    6.6110   -3.6753    2.8890 H   0  0  0  0  0  0  0  0  0  0  0  0
    8.9340   -2.7988    3.2828 H   0  0  0  0  0  0  0  0  0  0  0  0
    9.9110   -1.1299    1.7077 H   0  0  0  0  0  0  0  0  0  0  0  0
    8.5578   -0.3323   -0.2580 H   0  0  0  0  0  0  0  0  0  0  0  0
  1  2  1  0
  1 33  1  0
  1 34  1  0
  1 35  1  0
  2  3  1  0
  3  4  2  0
  3  8  1  0
  4  5  1  0
  4 36  1  0
  5  6  2  0
  5 37  1  0
  6  7  1  0
  6 38  1  0
  7  8  2  0
  7 39  1  0
  8  9  1  0
  9 10  1  0
  9 32  1  0
  9 40  1  6
 10 11  1  0
 10 15  2  0
 11 12  2  0
 11 21  1  0
 12 13  1  0
 13 14  2  0
 13 20  1  0
 14 15  1  0
 14 17  1  0
 15 16  1  0
 16 41  1  0
 16 42  1  0
 17 18  1  0
 17 43  1  0
 17 44  1  0
 18 19  1  0
 18 45  1  0
 18 46  1  0
 19 20  1  0
 19 47  1  0
 19 48  1  0
 20 49  1  0
 20 50  1  0
 21 22  1  0
 21 32  1  0
 22 23  2  0
 22 24  1  0
 24 25  2  0
 24 29  1  0
 25 26  1  0
 25 51  1  0
 26 27  2  0
 26 52  1  0
 27 28  1  0
 27 53  1  0
 28 29  2  0
 28 54  1  0
 29 30  1  0
 30 31  2  0
 30 32  1  0
M  END

