
     RDKit          3D

 40 44  0  0  0  0  0  0  0  0999 V2000
    2.8053   -1.2398    3.1161 F   0  0  0  0  0  0  0  0  0  0  0  0
    3.8607   -0.3804    3.3327 B   0  0  1  0  0  0  0  0  0  0  0  0
    4.5921   -0.7078    4.4539 F   0  0  0  0  0  0  0  0  0  0  0  0
    4.7552   -0.4295    2.1608 O   0  0  0  0  0  0  0  0  0  0  0  0
    5.0321    0.5670    1.3701 C   0  0  0  0  0  0  0  0  0  0  0  0
    5.9479    0.2446    0.2492 C   0  0  0  0  0  0  0  0  0  0  0  0
    6.5161    1.2382   -0.5710 C   0  0  0  0  0  0  0  0  0  0  0  0
    7.3693    0.8924   -1.6180 C   0  0  0  0  0  0  0  0  0  0  0  0
    7.6712   -0.4515   -1.8651 C   0  0  0  0  0  0  0  0  0  0  0  0
    7.1176   -1.4464   -1.0537 C   0  0  0  0  0  0  0  0  0  0  0  0
    6.2662   -1.1031   -0.0033 C   0  0  0  0  0  0  0  0  0  0  0  0
    4.4859    1.8175    1.5790 C   0  0  0  0  0  0  0  0  0  0  0  0
    3.6064    2.0948    2.6640 C   0  0  0  0  0  0  0  0  0  0  0  0
    3.0636    3.4439    2.8442 C   0  0  0  0  0  0  0  0  0  0  0  0
    3.4054    4.5051    1.9698 C   0  0  0  0  0  0  0  0  0  0  0  0
    2.8865    5.7765    2.1415 C   0  0  0  0  0  0  0  0  0  0  0  0
    2.0013    6.0291    3.2039 C   0  0  0  0  0  0  0  0  0  0  0  0
    1.6551    5.0097    4.0738 C   0  0  0  0  0  0  0  0  0  0  0  0
    2.1733    3.7016    3.9200 C   0  0  0  0  0  0  0  0  0  0  0  0
    1.8307    2.6132    4.8240 C   0  0  0  0  0  0  0  0  0  0  0  0
    0.9526    2.7851    5.9190 C   0  0  0  0  0  0  0  0  0  0  0  0
    0.6429    1.7383    6.7695 C   0  0  0  0  0  0  0  0  0  0  0  0
    1.2133    0.4749    6.5426 C   0  0  0  0  0  0  0  0  0  0  0  0
    2.0769    0.2708    5.4799 C   0  0  0  0  0  0  0  0  0  0  0  0
    2.4021    1.3318    4.5997 C   0  0  0  0  0  0  0  0  0  0  0  0
    3.2732    1.1118    3.5222 N   0  0  0  0  0  0  0  0  0  0  0  0
    6.3089    2.2933   -0.3852 H   0  0  0  0  0  0  0  0  0  0  0  0
    7.8059    1.6761   -2.2419 H   0  0  0  0  0  0  0  0  0  0  0  0
    8.3401   -0.7206   -2.6865 H   0  0  0  0  0  0  0  0  0  0  0  0
    7.3512   -2.4976   -1.2394 H   0  0  0  0  0  0  0  0  0  0  0  0
    5.8323   -1.8730    0.6354 H   0  0  0  0  0  0  0  0  0  0  0  0
    4.7207    2.6069    0.8782 H   0  0  0  0  0  0  0  0  0  0  0  0
    4.0913    4.3358    1.1423 H   0  0  0  0  0  0  0  0  0  0  0  0
    3.1662    6.5776    1.4537 H   0  0  0  0  0  0  0  0  0  0  0  0
    1.5864    7.0300    3.3461 H   0  0  0  0  0  0  0  0  0  0  0  0
    0.9695    5.2282    4.8917 H   0  0  0  0  0  0  0  0  0  0  0  0
    0.5062    3.7620    6.1033 H   0  0  0  0  0  0  0  0  0  0  0  0
   -0.0385    1.8964    7.6085 H   0  0  0  0  0  0  0  0  0  0  0  0
    0.9789   -0.3607    7.2063 H   0  0  0  0  0  0  0  0  0  0  0  0
    2.5075   -0.7127    5.3236 H   0  0  0  0  0  0  0  0  0  0  0  0
  2  1  1  6
  2  3  1  0
  2  4  1  0
  2 26  1  0
  4  5  1  0
  5  6  1  0
  5 12  2  0
  6  7  2  0
  6 11  1  0
  7  8  1  0
  7 27  1  0
  8  9  2  0
  8 28  1  0
  9 10  1  0
  9 29  1  0
 10 11  2  0
 10 30  1  0
 11 31  1  0
 12 13  1  0
 12 32  1  0
 13 14  1  0
 13 26  2  0
 14 15  2  0
 14 19  1  0
 15 16  1  0
 15 33  1  0
 16 17  2  0
 16 34  1  0
 17 18  1  0
 17 35  1  0
 18 19  2  0
 18 36  1  0
 19 20  1  0
 20 21  1  0
 20 25  2  0
 21 22  2  0
 21 37  1  0
 22 23  1  0
 22 38  1  0
 23 24  2  0
 23 39  1  0
 24 25  1  0
 24 40  1  0
 25 26  1  0
M  CHG  2   2  -1  26   1
M  END

