
     RDKit          3D

 39 40  0  0  0  0  0  0  0  0999 V2000
   -2.5717   -2.2426    3.4393 C   0  0  0  0  0  0  0  0  0  0  0  0
   -1.3822   -2.2897    2.6789 O   0  0  0  0  0  0  0  0  0  0  0  0
   -1.1175   -3.3662    1.9093 C   0  0  0  0  0  0  0  0  0  0  0  0
   -1.9834   -4.4609    1.7599 C   0  0  0  0  0  0  0  0  0  0  0  0
   -1.6278   -5.5307    0.9309 C   0  0  0  0  0  0  0  0  0  0  0  0
   -0.4171   -5.5271    0.2380 C   0  0  0  0  0  0  0  0  0  0  0  0
    0.4461   -4.4356    0.3798 C   0  0  0  0  0  0  0  0  0  0  0  0
    0.1115   -3.3541    1.2017 C   0  0  0  0  0  0  0  0  0  0  0  0
    1.3380   -2.0820    1.5011 S   0  0  0  0  0  0  0  0  0  0  0  0
    0.6592   -0.6703    0.6665 C   0  0  0  0  0  0  0  0  0  0  0  0
   -0.4764   -0.7695   -0.1610 C   0  0  0  0  0  0  0  0  0  0  0  0
   -1.0425    0.3158   -0.8299 C   0  0  0  0  0  0  0  0  0  0  0  0
   -2.2551    0.0899   -1.6988 C   0  0  0  0  0  0  0  0  0  0  0  0
   -0.4604    1.6094   -0.6822 C   0  0  0  0  0  0  0  0  0  0  0  0
   -1.0309    2.7707   -1.3644 C   0  0  0  0  0  0  0  0  0  0  0  0
   -0.5928    4.0465   -1.3451 C   0  0  0  0  0  0  0  0  0  0  0  0
   -1.3287    5.0889   -2.1133 C   0  0  0  0  0  0  0  0  0  0  0  0
   -2.3170    4.8798   -2.7705 O   0  0  0  0  0  0  0  0  0  0  0  0
   -0.8147    6.3403   -2.0372 O   0  0  0  0  0  0  0  0  0  0  0  0
    0.6712    1.7224    0.1323 C   0  0  0  0  0  0  0  0  0  0  0  0
    1.2239    0.6237    0.7851 C   0  0  0  0  0  0  0  0  0  0  0  0
    2.4222    0.8751    1.5928 N   0  0  0  0  0  0  0  0  0  0  0  0
    3.0090   -0.1006    2.0426 O   0  0  0  0  0  0  0  0  0  0  0  0
    2.7733    2.0321    1.7699 O   0  0  0  0  0  0  0  0  0  0  0  0
   -2.5477   -1.2944    3.9918 H   0  0  0  0  0  0  0  0  0  0  0  0
   -2.6284   -3.0774    4.1598 H   0  0  0  0  0  0  0  0  0  0  0  0
   -3.4695   -2.2615    2.7963 H   0  0  0  0  0  0  0  0  0  0  0  0
   -2.9341   -4.4897    2.2923 H   0  0  0  0  0  0  0  0  0  0  0  0
   -2.3140   -6.3757    0.8315 H   0  0  0  0  0  0  0  0  0  0  0  0
   -0.1421   -6.3644   -0.4066 H   0  0  0  0  0  0  0  0  0  0  0  0
    1.4015   -4.4131   -0.1496 H   0  0  0  0  0  0  0  0  0  0  0  0
   -0.9325   -1.7505   -0.2930 H   0  0  0  0  0  0  0  0  0  0  0  0
   -2.5528   -0.9677   -1.6920 H   0  0  0  0  0  0  0  0  0  0  0  0
   -2.0644    0.3794   -2.7450 H   0  0  0  0  0  0  0  0  0  0  0  0
   -3.1170    0.6851   -1.3555 H   0  0  0  0  0  0  0  0  0  0  0  0
   -1.9259    2.6066   -1.9706 H   0  0  0  0  0  0  0  0  0  0  0  0
    0.2958    4.3419   -0.7776 H   0  0  0  0  0  0  0  0  0  0  0  0
   -0.0258    6.3522   -1.4776 H   0  0  0  0  0  0  0  0  0  0  0  0
    1.1643    2.6803    0.2896 H   0  0  0  0  0  0  0  0  0  0  0  0
  1  2  1  0
  1 25  1  0
  1 26  1  0
  1 27  1  0
  2  3  1  0
  3  4  2  0
  3  8  1  0
  4  5  1  0
  4 28  1  0
  5  6  2  0
  5 29  1  0
  6  7  1  0
  6 30  1  0
  7  8  2  0
  7 31  1  0
  8  9  1  0
  9 10  2  0
 10 11  1  0
 10 21  1  0
 11 12  2  0
 11 32  1  0
 12 13  1  0
 12 14  1  0
 13 33  1  0
 13 34  1  0
 13 35  1  0
 14 15  1  0
 14 20  2  0
 15 16  2  0
 15 36  1  0
 16 17  1  0
 16 37  1  0
 17 18  2  0
 17 19  1  0
 19 38  1  0
 20 21  1  0
 20 39  1  0
 21 22  2  0
 22 23  1  0
 22 24  1  0
M  CHG  4   9   1  22   1  23  -1  24  -1
M  END

