
     RDKit          3D

 36 37  0  0  0  0  0  0  0  0999 V2000
    1.2117   -0.1015    0.9980 C   0  0  0  0  0  0  0  0  0  0  0  0
    2.5987   -0.0552    0.4118 C   0  0  0  0  0  0  0  0  0  0  0  0
    3.2843    1.1528    0.2723 C   0  0  0  0  0  0  0  0  0  0  0  0
    4.5877    1.1663   -0.2711 C   0  0  0  0  0  0  0  0  0  0  0  0
    5.3044    2.3470   -0.4977 N   0  0  0  0  0  0  0  0  0  0  0  0
    6.7638    2.2719   -0.5576 C   0  0  0  0  0  0  0  0  0  0  0  0
    7.3366    3.4604   -1.3362 C   0  0  0  0  0  0  0  0  0  0  0  0
    6.8785    4.7574   -0.8501 N   0  0  0  0  0  0  0  0  0  0  0  0
    7.5314    5.2349    0.3541 C   0  0  0  0  0  0  0  0  0  0  0  0
    5.4251    4.7847   -0.8233 C   0  0  0  0  0  0  0  0  0  0  0  0
    4.7783    3.6243   -0.0448 C   0  0  0  0  0  0  0  0  0  0  0  0
    5.1877    0.0193   -0.6102 N   0  0  0  0  0  0  0  0  0  0  0  0
    4.5566   -1.1488   -0.4808 C   0  0  0  0  0  0  0  0  0  0  0  0
    5.3151   -2.3922   -0.8761 C   0  0  0  0  0  0  0  0  0  0  0  0
    3.2374   -1.2484    0.0114 C   0  0  0  0  0  0  0  0  0  0  0  0
    2.6166   -2.4949    0.1819 N   0  0  0  0  0  0  0  0  0  0  0  0
    0.8751    0.8943    1.3191 H   0  0  0  0  0  0  0  0  0  0  0  0
    1.1697   -0.7764    1.8704 H   0  0  0  0  0  0  0  0  0  0  0  0
    0.4727   -0.4785    0.2668 H   0  0  0  0  0  0  0  0  0  0  0  0
    2.7954    2.0682    0.6038 H   0  0  0  0  0  0  0  0  0  0  0  0
    7.0364    1.3259   -1.0395 H   0  0  0  0  0  0  0  0  0  0  0  0
    7.1918    2.2448    0.4687 H   0  0  0  0  0  0  0  0  0  0  0  0
    7.0330    3.3645   -2.3946 H   0  0  0  0  0  0  0  0  0  0  0  0
    8.4381    3.4278   -1.3059 H   0  0  0  0  0  0  0  0  0  0  0  0
    8.6209    5.2757    0.1906 H   0  0  0  0  0  0  0  0  0  0  0  0
    7.3593    4.6262    1.2691 H   0  0  0  0  0  0  0  0  0  0  0  0
    7.1922    6.2604    0.5757 H   0  0  0  0  0  0  0  0  0  0  0  0
    5.0626    4.7347   -1.8664 H   0  0  0  0  0  0  0  0  0  0  0  0
    5.0823    5.7441   -0.4020 H   0  0  0  0  0  0  0  0  0  0  0  0
    3.6949    3.6636   -0.2276 H   0  0  0  0  0  0  0  0  0  0  0  0
    4.9241    3.7598    1.0504 H   0  0  0  0  0  0  0  0  0  0  0  0
    6.3251   -2.1157   -1.2036 H   0  0  0  0  0  0  0  0  0  0  0  0
    4.8203   -2.9283   -1.7075 H   0  0  0  0  0  0  0  0  0  0  0  0
    5.3964   -3.1032   -0.0351 H   0  0  0  0  0  0  0  0  0  0  0  0
    2.9854   -3.2374   -0.4024 H   0  0  0  0  0  0  0  0  0  0  0  0
    1.6028   -2.4778    0.1406 H   0  0  0  0  0  0  0  0  0  0  0  0
  1  2  1  0
  1 17  1  0
  1 18  1  0
  1 19  1  0
  2  3  2  0
  2 15  1  0
  3  4  1  0
  3 20  1  0
  4  5  1  0
  4 12  2  0
  5  6  1  0
  5 11  1  0
  6  7  1  0
  6 21  1  0
  6 22  1  0
  7  8  1  0
  7 23  1  0
  7 24  1  0
  8  9  1  0
  8 10  1  0
  9 25  1  0
  9 26  1  0
  9 27  1  0
 10 11  1  0
 10 28  1  0
 10 29  1  0
 11 30  1  0
 11 31  1  0
 12 13  1  0
 13 14  1  0
 13 15  2  0
 14 32  1  0
 14 33  1  0
 14 34  1  0
 15 16  1  0
 16 35  1  0
 16 36  1  0
M  END

