
     RDKit          3D

 52 54  0  0  0  0  0  0  0  0999 V2000
    3.1879   -3.4620    2.8418 C   0  0  0  0  0  0  0  0  0  0  0  0
    3.5393   -2.6192    1.7390 O   0  0  0  0  0  0  0  0  0  0  0  0
    4.0221   -1.3776    2.0694 C   0  0  0  0  0  0  0  0  0  0  0  0
    4.1360   -1.0441    3.2233 O   0  0  0  0  0  0  0  0  0  0  0  0
    4.3702   -0.5548    0.8942 C   0  0  0  0  0  0  0  0  0  0  0  0
    4.7902    0.8299    1.0107 C   0  0  0  0  0  0  0  0  0  0  0  0
    4.9117    1.6416    2.2598 C   0  0  0  0  0  0  0  0  0  0  0  0
    3.9224    2.6022    2.5251 C   0  0  0  0  0  0  0  0  0  0  0  0
    3.9796    3.4459    3.6419 C   0  0  0  0  0  0  0  0  0  0  0  0
    2.9051    4.4724    3.9096 C   0  0  0  0  0  0  0  0  0  0  0  0
    5.0790    3.3093    4.5008 C   0  0  0  0  0  0  0  0  0  0  0  0
    6.0735    2.3659    4.2424 C   0  0  0  0  0  0  0  0  0  0  0  0
    6.0165    1.5149    3.1294 C   0  0  0  0  0  0  0  0  0  0  0  0
    7.1006    0.4942    2.8916 C   0  0  0  0  0  0  0  0  0  0  0  0
    5.0430    1.3787   -0.2183 C   0  0  0  0  0  0  0  0  0  0  0  0
    4.8023    0.2811   -1.5399 S   0  0  0  0  0  0  0  0  0  0  0  0
    4.3272   -0.9749   -0.4392 C   0  0  0  0  0  0  0  0  0  0  0  0
    3.9457   -2.2364   -0.8808 N   0  0  0  0  0  0  0  0  0  0  0  0
    3.9319   -2.6577   -2.1726 C   0  0  0  0  0  0  0  0  0  0  0  0
    4.2695   -1.9064   -3.0911 O   0  0  0  0  0  0  0  0  0  0  0  0
    3.4912   -4.0867   -2.4829 C   0  0  1  0  0  0  0  0  0  0  0  0
    4.3879   -4.5370   -2.9425 H   0  0  0  0  0  0  0  0  0  0  0  0
    3.1056   -4.9727   -1.2713 C   0  0  0  0  0  0  0  0  0  0  0  0
    1.6528   -4.8457   -0.8867 C   0  0  0  0  0  0  0  0  0  0  0  0
    0.7371   -4.8821   -1.8633 C   0  0  0  0  0  0  0  0  0  0  0  0
    1.1999   -5.0026   -3.2909 C   0  0  0  0  0  0  0  0  0  0  0  0
    2.3555   -4.0233   -3.5723 C   0  0  2  0  0  0  0  0  0  0  0  0
    1.9275   -3.0067   -3.5432 H   0  0  0  0  0  0  0  0  0  0  0  0
    2.9181   -4.2051   -4.9931 C   0  0  0  0  0  0  0  0  0  0  0  0
    2.5176   -5.0555   -5.7475 O   0  0  0  0  0  0  0  0  0  0  0  0
    3.8824   -3.3508   -5.3404 O   0  0  0  0  0  0  0  0  0  0  0  0
    2.8401   -4.4071    2.4065 H   0  0  0  0  0  0  0  0  0  0  0  0
    2.3906   -3.0015    3.4427 H   0  0  0  0  0  0  0  0  0  0  0  0
    4.0582   -3.6368    3.4908 H   0  0  0  0  0  0  0  0  0  0  0  0
    3.0783    2.6864    1.8348 H   0  0  0  0  0  0  0  0  0  0  0  0
    2.0896    4.4066    3.1742 H   0  0  0  0  0  0  0  0  0  0  0  0
    3.3097    5.4981    3.8696 H   0  0  0  0  0  0  0  0  0  0  0  0
    2.4651    4.3409    4.9123 H   0  0  0  0  0  0  0  0  0  0  0  0
    5.1622    3.9521    5.3824 H   0  0  0  0  0  0  0  0  0  0  0  0
    6.9246    2.2853    4.9248 H   0  0  0  0  0  0  0  0  0  0  0  0
    7.9793    0.6935    3.5227 H   0  0  0  0  0  0  0  0  0  0  0  0
    7.4299    0.4819    1.8407 H   0  0  0  0  0  0  0  0  0  0  0  0
    6.7377   -0.5185    3.1331 H   0  0  0  0  0  0  0  0  0  0  0  0
    5.3760    2.3959   -0.4198 H   0  0  0  0  0  0  0  0  0  0  0  0
    3.6265   -2.8488   -0.1313 H   0  0  0  0  0  0  0  0  0  0  0  0
    3.7861   -4.7920   -0.4245 H   0  0  0  0  0  0  0  0  0  0  0  0
    3.3020   -6.0186   -1.5687 H   0  0  0  0  0  0  0  0  0  0  0  0
    1.3687   -4.7636    0.1663 H   0  0  0  0  0  0  0  0  0  0  0  0
   -0.3327   -4.8245   -1.6413 H   0  0  0  0  0  0  0  0  0  0  0  0
    0.3876   -4.8130   -4.0059 H   0  0  0  0  0  0  0  0  0  0  0  0
    1.5458   -6.0303   -3.5043 H   0  0  0  0  0  0  0  0  0  0  0  0
    4.0775   -2.7110   -4.6099 H   0  0  0  0  0  0  0  0  0  0  0  0
  1  2  1  0
  1 32  1  0
  1 33  1  0
  1 34  1  0
  2  3  1  0
  3  4  2  0
  3  5  1  0
  5  6  1  0
  5 17  2  0
  6  7  1  0
  6 15  2  0
  7  8  2  0
  7 13  1  0
  8  9  1  0
  8 35  1  0
  9 10  1  0
  9 11  2  0
 10 36  1  0
 10 37  1  0
 10 38  1  0
 11 12  1  0
 11 39  1  0
 12 13  2  0
 12 40  1  0
 13 14  1  0
 14 41  1  0
 14 42  1  0
 14 43  1  0
 15 16  1  0
 15 44  1  0
 16 17  1  0
 17 18  1  0
 18 19  1  0
 18 45  1  0
 19 20  2  0
 19 21  1  0
 21 22  1  6
 21 23  1  0
 21 27  1  0
 23 24  1  0
 23 46  1  0
 23 47  1  0
 24 25  2  0
 24 48  1  0
 25 26  1  0
 25 49  1  0
 26 27  1  0
 26 50  1  0
 26 51  1  0
 27 28  1  6
 27 29  1  0
 29 30  2  0
 29 31  1  0
 31 52  1  0
M  END

