
     RDKit          3D

 34 37  0  0  0  0  0  0  0  0999 V2000
    1.0286    0.2008   -0.0846 F   0  0  0  0  0  0  0  0  0  0  0  0
    2.4038    0.1810   -0.1246 B   0  0  1  0  0  0  0  0  0  0  0  0
    2.8894    0.1994   -1.4118 F   0  0  0  0  0  0  0  0  0  0  0  0
    2.9485    1.3201    0.6384 O   0  0  0  0  0  0  0  0  0  0  0  0
    3.7121    1.2411    1.6953 C   0  0  0  0  0  0  0  0  0  0  0  0
    4.1190    2.5530    2.2622 C   0  0  0  0  0  0  0  0  0  0  0  0
    3.6354    3.7326    1.6676 C   0  0  0  0  0  0  0  0  0  0  0  0
    3.9972    4.9794    2.1776 C   0  0  0  0  0  0  0  0  0  0  0  0
    4.8446    5.0807    3.2837 C   0  0  0  0  0  0  0  0  0  0  0  0
    5.3253    3.9062    3.8719 C   0  0  0  0  0  0  0  0  0  0  0  0
    6.4864    4.0201    5.3826 Br  0  0  0  0  0  0  0  0  0  0  0  0
    4.9739    2.6528    3.3761 C   0  0  0  0  0  0  0  0  0  0  0  0
    4.0972    0.0272    2.2302 C   0  0  0  0  0  0  0  0  0  0  0  0
    3.6828   -1.2107    1.6588 C   0  0  0  0  0  0  0  0  0  0  0  0
    4.0734   -2.4988    2.2066 C   0  0  0  0  0  0  0  0  0  0  0  0
    4.8990   -2.6225    3.3532 C   0  0  0  0  0  0  0  0  0  0  0  0
    5.2501   -3.8655    3.8467 C   0  0  0  0  0  0  0  0  0  0  0  0
    4.7885   -5.0400    3.2118 C   0  0  0  0  0  0  0  0  0  0  0  0
    3.9831   -4.9524    2.0932 C   0  0  0  0  0  0  0  0  0  0  0  0
    3.6087   -3.6896    1.5673 C   0  0  0  0  0  0  0  0  0  0  0  0
    2.7772   -3.5661    0.4128 C   0  0  0  0  0  0  0  0  0  0  0  0
    2.4510   -2.3248   -0.0456 C   0  0  0  0  0  0  0  0  0  0  0  0
    2.8926   -1.1809    0.5619 N   0  0  0  0  0  0  0  0  0  0  0  0
    2.9748    3.6530    0.8046 H   0  0  0  0  0  0  0  0  0  0  0  0
    3.6153    5.8896    1.7088 H   0  0  0  0  0  0  0  0  0  0  0  0
    5.1302    6.0542    3.6853 H   0  0  0  0  0  0  0  0  0  0  0  0
    5.3735    1.7636    3.8619 H   0  0  0  0  0  0  0  0  0  0  0  0
    4.7272    0.0124    3.1112 H   0  0  0  0  0  0  0  0  0  0  0  0
    5.2673   -1.7307    3.8598 H   0  0  0  0  0  0  0  0  0  0  0  0
    5.8869   -3.9392    4.7311 H   0  0  0  0  0  0  0  0  0  0  0  0
    5.0709   -6.0183    3.6085 H   0  0  0  0  0  0  0  0  0  0  0  0
    3.6216   -5.8558    1.5957 H   0  0  0  0  0  0  0  0  0  0  0  0
    2.4061   -4.4557   -0.0982 H   0  0  0  0  0  0  0  0  0  0  0  0
    1.8208   -2.1644   -0.9206 H   0  0  0  0  0  0  0  0  0  0  0  0
  2  1  1  6
  2  3  1  0
  2  4  1  0
  2 23  1  0
  4  5  1  0
  5  6  1  0
  5 13  2  0
  6  7  2  0
  6 12  1  0
  7  8  1  0
  7 24  1  0
  8  9  2  0
  8 25  1  0
  9 10  1  0
  9 26  1  0
 10 11  1  0
 10 12  2  0
 12 27  1  0
 13 14  1  0
 13 28  1  0
 14 15  1  0
 14 23  2  0
 15 16  2  0
 15 20  1  0
 16 17  1  0
 16 29  1  0
 17 18  2  0
 17 30  1  0
 18 19  1  0
 18 31  1  0
 19 20  2  0
 19 32  1  0
 20 21  1  0
 21 22  2  0
 21 33  1  0
 22 23  1  0
 22 34  1  0
M  CHG  2   2  -1  23   1
M  END

