
     RDKit          3D

 30 31  0  0  0  0  0  0  0  0999 V2000
    1.3462   -0.3759   -0.4724 C   0  0  0  0  0  0  0  0  0  0  0  0
    2.7726   -0.4175   -0.4424 O   0  0  0  0  0  0  0  0  0  0  0  0
    3.3298   -1.0205    0.6246 C   0  0  0  0  0  0  0  0  0  0  0  0
    2.6681   -1.5033    1.5216 O   0  0  0  0  0  0  0  0  0  0  0  0
    4.8189   -1.0406    0.6082 C   0  0  0  0  0  0  0  0  0  0  0  0
    5.4955   -0.4373   -0.4053 C   0  0  0  0  0  0  0  0  0  0  0  0
    6.9028   -0.2959   -0.6950 C   0  0  0  0  0  0  0  0  0  0  0  0
    8.2195   -1.1632    0.0746 S   0  0  0  0  0  0  0  0  0  0  0  0
    9.3326   -0.2902   -0.9191 C   0  0  0  0  0  0  0  0  0  0  0  0
    8.8023    0.5492   -1.7619 N   0  0  0  0  0  0  0  0  0  0  0  0
    7.4389    0.5633   -1.6610 C   0  0  0  0  0  0  0  0  0  0  0  0
    6.6766    1.4967   -2.5543 C   0  0  0  0  0  0  0  0  0  0  0  0
    5.4189   -1.7602    1.7948 C   0  0  0  0  0  0  0  0  0  0  0  0
    5.4205   -3.2124    1.6541 N   0  0  0  0  0  0  0  0  0  0  0  0
    4.5211   -4.1199    2.1082 C   0  0  0  0  0  0  0  0  0  0  0  0
    4.8653   -5.3331    1.7188 N   0  0  0  0  0  0  0  0  0  0  0  0
    6.0008   -5.1095    1.0056 C   0  0  0  0  0  0  0  0  0  0  0  0
    6.3736   -3.8408    0.9357 N   0  0  0  0  0  0  0  0  0  0  0  0
    1.0753    0.1282   -1.4082 H   0  0  0  0  0  0  0  0  0  0  0  0
    0.9521    0.1828    0.3901 H   0  0  0  0  0  0  0  0  0  0  0  0
    0.9252   -1.3923   -0.4497 H   0  0  0  0  0  0  0  0  0  0  0  0
    4.8583    0.0609   -1.1395 H   0  0  0  0  0  0  0  0  0  0  0  0
   10.4074   -0.4725   -0.8372 H   0  0  0  0  0  0  0  0  0  0  0  0
    6.7617    2.5346   -2.1895 H   0  0  0  0  0  0  0  0  0  0  0  0
    5.6093    1.2500   -2.6244 H   0  0  0  0  0  0  0  0  0  0  0  0
    7.1135    1.4741   -3.5635 H   0  0  0  0  0  0  0  0  0  0  0  0
    4.8210   -1.5287    2.6859 H   0  0  0  0  0  0  0  0  0  0  0  0
    6.4527   -1.4432    1.9799 H   0  0  0  0  0  0  0  0  0  0  0  0
    3.6455   -3.8346    2.6897 H   0  0  0  0  0  0  0  0  0  0  0  0
    6.5753   -5.9026    0.5264 H   0  0  0  0  0  0  0  0  0  0  0  0
  1  2  1  0
  1 19  1  0
  1 20  1  0
  1 21  1  0
  2  3  1  0
  3  4  2  0
  3  5  1  0
  5  6  2  0
  5 13  1  0
  6  7  1  0
  6 22  1  0
  7  8  1  0
  7 11  2  0
  8  9  1  0
  9 10  2  0
  9 23  1  0
 10 11  1  0
 11 12  1  0
 12 24  1  0
 12 25  1  0
 12 26  1  0
 13 14  1  0
 13 27  1  0
 13 28  1  0
 14 15  1  0
 14 18  1  0
 15 16  2  0
 15 29  1  0
 16 17  1  0
 17 18  2  0
 17 30  1  0
M  END

