
     RDKit          3D

 53 56  0  0  0  0  0  0  0  0999 V2000
    6.9050    1.7552   -2.3445 C   0  0  0  0  0  0  0  0  0  0  0  0
    5.7193    1.0763   -1.6664 C   0  0  1  0  0  0  0  0  0  0  0  0
    4.6814    2.2159   -0.6500 S   0  0  0  0  0  0  0  0  0  0  0  0
    3.8196    3.1446   -1.9171 C   0  0  0  0  0  0  0  0  0  0  0  0
    3.9849    2.8087   -3.1483 N   0  0  0  0  0  0  0  0  0  0  0  0
    3.3370    3.5222   -4.1357 C   0  0  0  0  0  0  0  0  0  0  0  0
    3.5081    3.1569   -5.4879 C   0  0  0  0  0  0  0  0  0  0  0  0
    2.8648    3.8792   -6.4839 C   0  0  0  0  0  0  0  0  0  0  0  0
    2.0400    4.9762   -6.1628 C   0  0  0  0  0  0  0  0  0  0  0  0
    1.8598    5.3431   -4.8359 C   0  0  0  0  0  0  0  0  0  0  0  0
    2.5051    4.6199   -3.8159 C   0  0  0  0  0  0  0  0  0  0  0  0
    2.3072    4.9885   -2.4099 C   0  0  0  0  0  0  0  0  0  0  0  0
    1.5961    5.8994   -2.0204 O   0  0  0  0  0  0  0  0  0  0  0  0
    3.0155    4.1809   -1.4787 N   0  0  0  0  0  0  0  0  0  0  0  0
    2.8393    4.5078   -0.0470 C   0  0  0  0  0  0  0  0  0  0  0  0
    1.7662    3.6952    0.6565 C   0  0  0  0  0  0  0  0  0  0  0  0
    2.0962    2.8437    1.7205 C   0  0  0  0  0  0  0  0  0  0  0  0
    1.1071    2.1072    2.3805 C   0  0  0  0  0  0  0  0  0  0  0  0
   -0.2268    2.2107    1.9789 C   0  0  0  0  0  0  0  0  0  0  0  0
   -0.5672    3.0635    0.9229 C   0  0  0  0  0  0  0  0  0  0  0  0
    0.4190    3.8054    0.2698 C   0  0  0  0  0  0  0  0  0  0  0  0
    4.9344    0.1577   -2.6323 C   0  0  0  0  0  0  0  0  0  0  0  0
    5.4487   -0.2342   -3.6591 O   0  0  0  0  0  0  0  0  0  0  0  0
    3.7039   -0.2530   -2.1704 N   0  0  0  0  0  0  0  0  0  0  0  0
    2.7907   -1.1030   -2.7938 C   0  0  0  0  0  0  0  0  0  0  0  0
    3.0712   -1.7989   -3.9826 C   0  0  0  0  0  0  0  0  0  0  0  0
    2.1014   -2.6347   -4.5287 C   0  0  0  0  0  0  0  0  0  0  0  0
    2.4224   -3.3551   -5.7823 N   0  0  0  0  0  0  0  0  0  0  0  0
    3.5231   -3.1748   -6.2739 O   0  0  0  0  0  0  0  0  0  0  0  0
    1.5601   -4.0858   -6.2443 O   0  0  0  0  0  0  0  0  0  0  0  0
    0.8466   -2.8235   -3.9518 C   0  0  0  0  0  0  0  0  0  0  0  0
    0.5610   -2.1357   -2.7746 C   0  0  0  0  0  0  0  0  0  0  0  0
    1.5143   -1.2894   -2.2063 C   0  0  0  0  0  0  0  0  0  0  0  0
    1.1099   -0.4340   -0.7335 Cl  0  0  0  0  0  0  0  0  0  0  0  0
    7.5190    2.2830   -1.6011 H   0  0  0  0  0  0  0  0  0  0  0  0
    6.5621    2.4660   -3.1070 H   0  0  0  0  0  0  0  0  0  0  0  0
    7.5197    0.9932   -2.8442 H   0  0  0  0  0  0  0  0  0  0  0  0
    6.0940    0.4084   -0.8686 H   0  0  0  0  0  0  0  0  0  0  0  0
    4.1488    2.3031   -5.7164 H   0  0  0  0  0  0  0  0  0  0  0  0
    3.0000    3.5929   -7.5301 H   0  0  0  0  0  0  0  0  0  0  0  0
    1.5420    5.5344   -6.9588 H   0  0  0  0  0  0  0  0  0  0  0  0
    1.2243    6.1844   -4.5529 H   0  0  0  0  0  0  0  0  0  0  0  0
    2.5738    5.5728   -0.0277 H   0  0  0  0  0  0  0  0  0  0  0  0
    3.8095    4.3859    0.4542 H   0  0  0  0  0  0  0  0  0  0  0  0
    3.1380    2.7538    2.0390 H   0  0  0  0  0  0  0  0  0  0  0  0
    1.3821    1.4499    3.2094 H   0  0  0  0  0  0  0  0  0  0  0  0
   -1.0014    1.6342    2.4912 H   0  0  0  0  0  0  0  0  0  0  0  0
   -1.6105    3.1589    0.6114 H   0  0  0  0  0  0  0  0  0  0  0  0
    0.1479    4.4888   -0.5378 H   0  0  0  0  0  0  0  0  0  0  0  0
    3.3701    0.1964   -1.3202 H   0  0  0  0  0  0  0  0  0  0  0  0
    4.0348   -1.6803   -4.4700 H   0  0  0  0  0  0  0  0  0  0  0  0
    0.1248   -3.4897   -4.4214 H   0  0  0  0  0  0  0  0  0  0  0  0
   -0.4075   -2.2462   -2.2850 H   0  0  0  0  0  0  0  0  0  0  0  0
  1  2  1  0
  1 35  1  0
  1 36  1  0
  1 37  1  0
  2  3  1  0
  2 22  1  0
  2 38  1  1
  3  4  2  0
  4  5  1  0
  4 14  1  0
  5  6  2  0
  6  7  1  0
  6 11  1  0
  7  8  2  0
  7 39  1  0
  8  9  1  0
  8 40  1  0
  9 10  2  0
  9 41  1  0
 10 11  1  0
 10 42  1  0
 11 12  2  0
 12 13  1  0
 12 14  1  0
 14 15  1  0
 15 16  1  0
 15 43  1  0
 15 44  1  0
 16 17  2  0
 16 21  1  0
 17 18  1  0
 17 45  1  0
 18 19  2  0
 18 46  1  0
 19 20  1  0
 19 47  1  0
 20 21  2  0
 20 48  1  0
 21 49  1  0
 22 23  2  0
 22 24  1  0
 24 25  1  0
 24 50  1  0
 25 26  2  0
 25 33  1  0
 26 27  1  0
 26 51  1  0
 27 28  1  0
 27 31  2  0
 28 29  2  0
 28 30  1  0
 31 32  1  0
 31 52  1  0
 32 33  2  0
 32 53  1  0
 33 34  1  0
M  CHG  4   3   1  13  -1  28   1  30  -1
M  END

