
     RDKit          3D

 34 34  0  0  0  0  0  0  0  0999 V2000
    3.2537    3.1580   -5.4494 C   0  0  0  0  0  0  0  0  0  0  0  0
    2.6505    2.2326   -4.3923 C   0  0  0  0  0  0  0  0  0  0  0  0
    3.4313    0.9279   -4.1805 C   0  0  0  0  0  0  0  0  0  0  0  0
    4.7941    1.1222   -3.7164 N   0  0  0  0  0  0  0  0  0  0  0  0
    5.1364    1.0624   -2.4062 C   0  0  0  0  0  0  0  0  0  0  0  0
    4.3584    0.8230   -1.4957 O   0  0  0  0  0  0  0  0  0  0  0  0
    6.6216    1.3293   -2.0949 C   0  0  1  0  0  0  0  0  0  0  0  0
    7.1978    0.2045   -1.2383 C   0  0  0  0  0  0  0  0  0  0  0  0
    7.3328    1.4974   -3.3165 O   0  0  0  0  0  0  0  0  0  0  0  0
    8.5144    2.1954   -3.3622 C   0  0  0  0  0  0  0  0  0  0  0  0
    9.1691    2.2221   -4.6028 C   0  0  0  0  0  0  0  0  0  0  0  0
   10.3624    2.9188   -4.7659 C   0  0  0  0  0  0  0  0  0  0  0  0
   10.9533    3.6140   -3.6910 C   0  0  0  0  0  0  0  0  0  0  0  0
   12.1207    4.3562   -3.8691 N   0  0  0  0  0  0  0  0  0  0  0  0
   10.2927    3.5742   -2.4521 C   0  0  0  0  0  0  0  0  0  0  0  0
    9.0916    2.8767   -2.2838 C   0  0  0  0  0  0  0  0  0  0  0  0
    2.6573    4.0766   -5.5665 H   0  0  0  0  0  0  0  0  0  0  0  0
    3.3018    2.6663   -6.4364 H   0  0  0  0  0  0  0  0  0  0  0  0
    4.2771    3.4649   -5.1777 H   0  0  0  0  0  0  0  0  0  0  0  0
    1.6168    1.9656   -4.6746 H   0  0  0  0  0  0  0  0  0  0  0  0
    2.5806    2.7572   -3.4242 H   0  0  0  0  0  0  0  0  0  0  0  0
    3.4635    0.3511   -5.1215 H   0  0  0  0  0  0  0  0  0  0  0  0
    2.9206    0.3119   -3.4259 H   0  0  0  0  0  0  0  0  0  0  0  0
    5.5411    1.3304   -4.3691 H   0  0  0  0  0  0  0  0  0  0  0  0
    6.6254    2.2762   -1.5248 H   0  0  0  0  0  0  0  0  0  0  0  0
    7.2152   -0.7339   -1.8141 H   0  0  0  0  0  0  0  0  0  0  0  0
    6.5613    0.0635   -0.3540 H   0  0  0  0  0  0  0  0  0  0  0  0
    8.2236    0.4335   -0.9150 H   0  0  0  0  0  0  0  0  0  0  0  0
    8.7234    1.6827   -5.4417 H   0  0  0  0  0  0  0  0  0  0  0  0
   10.8482    2.9284   -5.7460 H   0  0  0  0  0  0  0  0  0  0  0  0
   12.7139    4.0606   -4.6367 H   0  0  0  0  0  0  0  0  0  0  0  0
   12.6553    4.5392   -3.0270 H   0  0  0  0  0  0  0  0  0  0  0  0
   10.7234    4.1004   -1.5952 H   0  0  0  0  0  0  0  0  0  0  0  0
    8.6243    2.8741   -1.2988 H   0  0  0  0  0  0  0  0  0  0  0  0
  1  2  1  0
  1 17  1  0
  1 18  1  0
  1 19  1  0
  2  3  1  0
  2 20  1  0
  2 21  1  0
  3  4  1  0
  3 22  1  0
  3 23  1  0
  4  5  1  0
  4 24  1  0
  5  6  2  0
  5  7  1  0
  7  8  1  0
  7  9  1  0
  7 25  1  1
  8 26  1  0
  8 27  1  0
  8 28  1  0
  9 10  1  0
 10 11  2  0
 10 16  1  0
 11 12  1  0
 11 29  1  0
 12 13  2  0
 12 30  1  0
 13 14  1  0
 13 15  1  0
 14 31  1  0
 14 32  1  0
 15 16  2  0
 15 33  1  0
 16 34  1  0
M  END

