
     RDKit          3D

 29 29  0  0  0  0  0  0  0  0999 V2000
    3.3726   -1.1752   -0.4148 N   0  0  0  0  0  0  0  0  0  0  0  0
    4.4148   -1.5168    0.3756 C   0  0  0  0  0  0  0  0  0  0  0  0
    4.8121   -2.6414    0.5907 O   0  0  0  0  0  0  0  0  0  0  0  0
    5.0797   -0.4174    1.0102 N   0  0  0  0  0  0  0  0  0  0  0  0
    4.8043    0.9153    0.9105 C   0  0  0  0  0  0  0  0  0  0  0  0
    3.9070    1.4018    0.2442 O   0  0  0  0  0  0  0  0  0  0  0  0
    5.6670    1.8407    1.7827 C   0  0  0  0  0  0  0  0  0  0  0  0
    7.4470    1.4607    1.7159 S   0  0  1  0  0  0  0  0  0  0  0  0
    7.6374    0.1230    2.3003 O   0  0  0  0  0  0  0  0  0  0  0  0
    7.9176    1.7631    0.3630 O   0  0  0  0  0  0  0  0  0  0  0  0
    8.2157    2.6749    2.8286 C   0  0  0  0  0  0  0  0  0  0  0  0
    9.0470    3.6155    2.2295 C   0  0  0  0  0  0  0  0  0  0  0  0
    9.7679    4.5694    2.9686 C   0  0  0  0  0  0  0  0  0  0  0  0
   10.6113    5.5131    2.1151 C   0  0  0  0  0  0  0  0  0  0  0  0
   10.5351    5.4696    0.9158 O   0  0  0  0  0  0  0  0  0  0  0  0
   11.4385    6.3714    2.7165 O   0  0  0  0  0  0  0  0  0  0  0  0
    9.6059    4.5341    4.3671 C   0  0  0  0  0  0  0  0  0  0  0  0
   10.4207    5.6500    5.4543 Cl  0  0  0  0  0  0  0  0  0  0  0  0
    8.7686    3.6030    4.9893 C   0  0  0  0  0  0  0  0  0  0  0  0
    8.0724    2.6657    4.2273 C   0  0  0  0  0  0  0  0  0  0  0  0
    7.0392    1.5458    5.0610 Cl  0  0  0  0  0  0  0  0  0  0  0  0
    2.8879   -1.9261   -0.8882 H   0  0  0  0  0  0  0  0  0  0  0  0
    3.1253   -0.1973   -0.5468 H   0  0  0  0  0  0  0  0  0  0  0  0
    5.8886   -0.7097    1.5640 H   0  0  0  0  0  0  0  0  0  0  0  0
    5.3617    1.7597    2.8370 H   0  0  0  0  0  0  0  0  0  0  0  0
    5.5335    2.8675    1.4207 H   0  0  0  0  0  0  0  0  0  0  0  0
    9.1574    3.6236    1.1430 H   0  0  0  0  0  0  0  0  0  0  0  0
   11.3934    6.3125    3.6852 H   0  0  0  0  0  0  0  0  0  0  0  0
    8.6599    3.6066    6.0737 H   0  0  0  0  0  0  0  0  0  0  0  0
  1  2  1  0
  1 22  1  0
  1 23  1  0
  2  3  2  0
  2  4  1  0
  4  5  1  0
  4 24  1  0
  5  6  2  0
  5  7  1  0
  8  7  1  6
  7 25  1  0
  7 26  1  0
  8  9  2  0
  8 10  2  0
  8 11  1  0
 11 12  2  0
 11 20  1  0
 12 13  1  0
 12 27  1  0
 13 14  1  0
 13 17  2  0
 14 15  2  0
 14 16  1  0
 16 28  1  0
 17 18  1  0
 17 19  1  0
 19 20  2  0
 19 29  1  0
 20 21  1  0
M  END

