
     RDKit          3D

 41 42  0  0  0  0  0  0  0  0999 V2000
    1.4941    0.9146    0.5513 C   0  0  0  0  0  0  0  0  0  0  0  0
    2.9709    0.7449    0.1656 C   0  0  1  0  0  0  0  0  0  0  0  0
    3.6135   -0.1451    1.2520 C   0  0  0  0  0  0  0  0  0  0  0  0
    3.9797    0.3307    2.3169 O   0  0  0  0  0  0  0  0  0  0  0  0
    3.6560   -1.4730    0.9329 N   0  0  0  0  0  0  0  0  0  0  0  0
    4.1337   -2.5867    1.6863 C   0  0  0  0  0  0  0  0  0  0  0  0
    4.1406   -3.6865    1.1718 O   0  0  0  0  0  0  0  0  0  0  0  0
    4.5401   -2.2845    2.9456 N   0  0  0  0  0  0  0  0  0  0  0  0
    5.1188   -3.2740    3.8041 C   0  0  1  0  0  0  0  0  0  0  0  0
    4.8340   -3.1764    5.2791 C   0  0  0  0  0  0  0  0  0  0  0  0
    4.2328   -4.2951    4.4676 C   0  0  0  0  0  0  0  0  0  0  0  0
    3.2137    0.1861   -1.1768 N   0  0  0  0  0  0  0  0  0  0  0  0
    2.2598    0.5944   -2.2087 C   0  0  0  0  0  0  0  0  0  0  0  0
    2.3234   -0.1790   -3.5357 C   0  0  0  0  0  0  0  0  0  0  0  0
    3.4052    0.2565   -4.5224 C   0  0  0  0  0  0  0  0  0  0  0  0
    5.0732   -0.4366   -4.2399 S   0  0  2  0  0  0  0  0  0  0  0  0
    6.0389    0.6282   -4.5542 O   0  0  0  0  0  0  0  0  0  0  0  0
    5.1428   -1.7441   -4.9073 O   0  0  0  0  0  0  0  0  0  0  0  0
    5.1764   -0.7539   -2.4493 C   0  0  0  0  0  0  0  0  0  0  0  0
    4.6252    0.3516   -1.5483 C   0  0  0  0  0  0  0  0  0  0  0  0
    1.4464    1.2180    1.6067 H   0  0  0  0  0  0  0  0  0  0  0  0
    0.9349   -0.0277    0.4390 H   0  0  0  0  0  0  0  0  0  0  0  0
    0.9986    1.6966   -0.0409 H   0  0  0  0  0  0  0  0  0  0  0  0
    3.4593    1.7330    0.2873 H   0  0  0  0  0  0  0  0  0  0  0  0
    3.3486   -1.7060   -0.0100 H   0  0  0  0  0  0  0  0  0  0  0  0
    4.5488   -1.2961    3.2040 H   0  0  0  0  0  0  0  0  0  0  0  0
    6.1185   -3.6159    3.5075 H   0  0  0  0  0  0  0  0  0  0  0  0
    4.1686   -2.3732    5.6092 H   0  0  0  0  0  0  0  0  0  0  0  0
    5.6486   -3.4012    5.9727 H   0  0  0  0  0  0  0  0  0  0  0  0
    3.1648   -4.2466    4.2419 H   0  0  0  0  0  0  0  0  0  0  0  0
    4.6277   -5.3073    4.5867 H   0  0  0  0  0  0  0  0  0  0  0  0
    2.3447    1.6827   -2.4344 H   0  0  0  0  0  0  0  0  0  0  0  0
    1.2520    0.4387   -1.8062 H   0  0  0  0  0  0  0  0  0  0  0  0
    1.3564   -0.0135   -4.0388 H   0  0  0  0  0  0  0  0  0  0  0  0
    2.3794   -1.2644   -3.3489 H   0  0  0  0  0  0  0  0  0  0  0  0
    3.5344    1.3481   -4.5448 H   0  0  0  0  0  0  0  0  0  0  0  0
    3.1911   -0.0936   -5.5431 H   0  0  0  0  0  0  0  0  0  0  0  0
    6.2644   -0.8639   -2.3238 H   0  0  0  0  0  0  0  0  0  0  0  0
    4.7025   -1.7259   -2.2580 H   0  0  0  0  0  0  0  0  0  0  0  0
    4.8243    1.3437   -2.0073 H   0  0  0  0  0  0  0  0  0  0  0  0
    5.2210    0.3349   -0.6246 H   0  0  0  0  0  0  0  0  0  0  0  0
  1  2  1  0
  1 21  1  0
  1 22  1  0
  1 23  1  0
  2  3  1  0
  2 12  1  0
  2 24  1  6
  3  4  2  0
  3  5  1  0
  5  6  1  0
  5 25  1  0
  6  7  2  0
  6  8  1  0
  8  9  1  0
  8 26  1  0
  9 10  1  0
  9 11  1  0
  9 27  1  1
 10 11  1  0
 10 28  1  0
 10 29  1  0
 11 30  1  0
 11 31  1  0
 12 13  1  0
 12 20  1  0
 13 14  1  0
 13 32  1  0
 13 33  1  0
 14 15  1  0
 14 34  1  0
 14 35  1  0
 16 15  1  1
 15 36  1  0
 15 37  1  0
 16 17  2  0
 16 18  2  0
 16 19  1  0
 19 20  1  0
 19 38  1  0
 19 39  1  0
 20 40  1  0
 20 41  1  0
M  END

