
     RDKit          3D

 39 42  0  0  0  0  0  0  0  0999 V2000
    2.2702    0.7665    0.2173 C   0  0  0  0  0  0  0  0  0  0  0  0
    3.6079    0.0694    0.2623 C   0  0  0  0  0  0  0  0  0  0  0  0
    4.3370   -0.0376    1.4555 C   0  0  0  0  0  0  0  0  0  0  0  0
    5.5830   -0.6683    1.4876 C   0  0  0  0  0  0  0  0  0  0  0  0
    6.1333   -1.2189    0.3252 C   0  0  0  0  0  0  0  0  0  0  0  0
    7.4988   -1.8998    0.3746 C   0  0  1  0  0  0  0  0  0  0  0  0
    7.6489   -3.1302   -0.5021 C   0  0  0  0  0  0  0  0  0  0  0  0
    6.9049   -4.3212   -0.3827 C   0  0  0  0  0  0  0  0  0  0  0  0
    6.3101   -5.3213   -0.3116 N   0  0  0  0  0  0  0  0  0  0  0  0
    8.6061   -2.9227   -1.4666 C   0  0  0  0  0  0  0  0  0  0  0  0
    9.0328   -3.7152   -2.4628 N   0  0  0  0  0  0  0  0  0  0  0  0
    9.1769   -1.6494   -1.2986 N   0  0  0  0  0  0  0  0  0  0  0  0
   10.1976   -1.0774   -2.0365 C   0  0  0  0  0  0  0  0  0  0  0  0
   10.6664   -1.6417   -3.0220 O   0  0  0  0  0  0  0  0  0  0  0  0
   10.6740    0.2229   -1.5168 C   0  0  0  0  0  0  0  0  0  0  0  0
   11.6919    0.8975   -2.2101 C   0  0  0  0  0  0  0  0  0  0  0  0
   12.1767    2.1072   -1.7211 C   0  0  0  0  0  0  0  0  0  0  0  0
   11.6559    2.6499   -0.5354 C   0  0  0  0  0  0  0  0  0  0  0  0
   10.6493    1.9839    0.1598 C   0  0  0  0  0  0  0  0  0  0  0  0
   10.1497    0.7686   -0.3284 C   0  0  0  0  0  0  0  0  0  0  0  0
    9.0665    0.0823    0.4271 C   0  0  0  0  0  0  0  0  0  0  0  0
    8.6007    0.4839    1.4819 O   0  0  0  0  0  0  0  0  0  0  0  0
    8.5859   -1.0531   -0.1751 N   0  0  0  0  0  0  0  0  0  0  0  0
    5.4092   -1.1205   -0.8717 C   0  0  0  0  0  0  0  0  0  0  0  0
    4.1689   -0.4843   -0.9013 C   0  0  0  0  0  0  0  0  0  0  0  0
    1.8710    0.9431    1.2270 H   0  0  0  0  0  0  0  0  0  0  0  0
    1.5278    0.1773   -0.3447 H   0  0  0  0  0  0  0  0  0  0  0  0
    2.3497    1.7466   -0.2844 H   0  0  0  0  0  0  0  0  0  0  0  0
    3.9243    0.3816    2.3775 H   0  0  0  0  0  0  0  0  0  0  0  0
    6.1425   -0.7208    2.4243 H   0  0  0  0  0  0  0  0  0  0  0  0
    7.7412   -2.1018    1.4321 H   0  0  0  0  0  0  0  0  0  0  0  0
    8.6161   -4.6296   -2.5764 H   0  0  0  0  0  0  0  0  0  0  0  0
    9.7600   -3.3605   -3.0804 H   0  0  0  0  0  0  0  0  0  0  0  0
   12.0843    0.4487   -3.1243 H   0  0  0  0  0  0  0  0  0  0  0  0
   12.9670    2.6346   -2.2607 H   0  0  0  0  0  0  0  0  0  0  0  0
   12.0423    3.5991   -0.1561 H   0  0  0  0  0  0  0  0  0  0  0  0
   10.2255    2.3806    1.0842 H   0  0  0  0  0  0  0  0  0  0  0  0
    5.8113   -1.5589   -1.7888 H   0  0  0  0  0  0  0  0  0  0  0  0
    3.6183   -0.4254   -1.8449 H   0  0  0  0  0  0  0  0  0  0  0  0
  1  2  1  0
  1 26  1  0
  1 27  1  0
  1 28  1  0
  2  3  2  0
  2 25  1  0
  3  4  1  0
  3 29  1  0
  4  5  2  0
  4 30  1  0
  5  6  1  0
  5 24  1  0
  6  7  1  0
  6 23  1  0
  6 31  1  1
  7  8  1  0
  7 10  2  0
  8  9  3  0
 10 11  1  0
 10 12  1  0
 11 32  1  0
 11 33  1  0
 12 13  1  0
 12 23  1  0
 13 14  2  0
 13 15  1  0
 15 16  1  0
 15 20  2  0
 16 17  2  0
 16 34  1  0
 17 18  1  0
 17 35  1  0
 18 19  2  0
 18 36  1  0
 19 20  1  0
 19 37  1  0
 20 21  1  0
 21 22  2  0
 21 23  1  0
 24 25  2  0
 24 38  1  0
 25 39  1  0
M  END

