
     RDKit          3D

 30 32  0  0  0  0  0  0  0  0999 V2000
    1.7043   -0.0820    1.7528 C   0  0  0  0  0  0  0  0  0  0  0  0
    2.7386    0.0286    0.6611 C   0  0  0  0  0  0  0  0  0  0  0  0
    3.4565    1.2195    0.4748 C   0  0  0  0  0  0  0  0  0  0  0  0
    4.4405    1.3404   -0.5092 C   0  0  0  0  0  0  0  0  0  0  0  0
    5.4034    2.9564   -0.7291 Br  0  0  0  0  0  0  0  0  0  0  0  0
    4.7210    0.2476   -1.3358 C   0  0  0  0  0  0  0  0  0  0  0  0
    5.6580    0.3384   -2.2786 F   0  0  0  0  0  0  0  0  0  0  0  0
    4.0175   -0.9423   -1.1874 C   0  0  0  0  0  0  0  0  0  0  0  0
    3.0312   -1.0545   -0.1979 C   0  0  0  0  0  0  0  0  0  0  0  0
    2.3336   -2.2888   -0.0668 N   0  0  0  0  0  0  0  0  0  0  0  0
    2.8540   -3.5024    0.3876 C   0  0  0  0  0  0  0  0  0  0  0  0
    4.1696   -3.6152    0.7396 N   0  0  0  0  0  0  0  0  0  0  0  0
    1.9869   -4.4820    0.3869 N   0  0  0  0  0  0  0  0  0  0  0  0
    0.8189   -3.9304   -0.1054 C   0  0  0  0  0  0  0  0  0  0  0  0
   -0.4267   -4.5210   -0.3366 C   0  0  0  0  0  0  0  0  0  0  0  0
   -1.4575   -3.7325   -0.8585 C   0  0  0  0  0  0  0  0  0  0  0  0
   -3.0127   -4.4736   -1.1429 Cl  0  0  0  0  0  0  0  0  0  0  0  0
   -1.2521   -2.3667   -1.1562 C   0  0  0  0  0  0  0  0  0  0  0  0
   -2.5387   -1.3910   -1.8187 Cl  0  0  0  0  0  0  0  0  0  0  0  0
   -0.0084   -1.7607   -0.9301 C   0  0  0  0  0  0  0  0  0  0  0  0
    1.0015   -2.5551   -0.3995 C   0  0  0  0  0  0  0  0  0  0  0  0
    1.7811    0.7616    2.4529 H   0  0  0  0  0  0  0  0  0  0  0  0
    1.8204   -1.0170    2.3224 H   0  0  0  0  0  0  0  0  0  0  0  0
    0.6805   -0.0898    1.3446 H   0  0  0  0  0  0  0  0  0  0  0  0
    3.2543    2.0753    1.1216 H   0  0  0  0  0  0  0  0  0  0  0  0
    4.2395   -1.7794   -1.8508 H   0  0  0  0  0  0  0  0  0  0  0  0
    4.6563   -2.7878    1.0631 H   0  0  0  0  0  0  0  0  0  0  0  0
    4.4035   -4.4790    1.2150 H   0  0  0  0  0  0  0  0  0  0  0  0
   -0.5956   -5.5761   -0.1210 H   0  0  0  0  0  0  0  0  0  0  0  0
    0.1372   -0.7093   -1.1797 H   0  0  0  0  0  0  0  0  0  0  0  0
  1  2  1  0
  1 22  1  0
  1 23  1  0
  1 24  1  0
  2  3  2  0
  2  9  1  0
  3  4  1  0
  3 25  1  0
  4  5  1  0
  4  6  2  0
  6  7  1  0
  6  8  1  0
  8  9  2  0
  8 26  1  0
  9 10  1  0
 10 11  1  0
 10 21  1  0
 11 12  1  0
 11 13  2  0
 12 27  1  0
 12 28  1  0
 13 14  1  0
 14 15  1  0
 14 21  2  0
 15 16  2  0
 15 29  1  0
 16 17  1  0
 16 18  1  0
 18 19  1  0
 18 20  2  0
 20 21  1  0
 20 30  1  0
M  END

