
     RDKit          3D

 54 56  0  0  0  0  0  0  0  0999 V2000
    4.9374    1.3525    1.4068 C   0  0  0  0  0  0  0  0  0  0  0  0
    3.9019    0.3669    1.2387 N   0  0  0  0  0  0  0  0  0  0  0  0
    2.6782    0.7437    1.1283 C   0  0  0  0  0  0  0  0  0  0  0  0
    2.2216    2.0528    1.2583 N   0  0  0  0  0  0  0  0  0  0  0  0
    1.0231    2.5608    0.6007 C   0  0  0  0  0  0  0  0  0  0  0  0
    0.8257    4.0382    0.8782 C   0  0  0  0  0  0  0  0  0  0  0  0
    0.9241    4.5389    2.1828 C   0  0  0  0  0  0  0  0  0  0  0  0
    0.7093    5.9014    2.4218 C   0  0  0  0  0  0  0  0  0  0  0  0
    0.3949    6.7676    1.3787 C   0  0  0  0  0  0  0  0  0  0  0  0
    0.2941    6.2740    0.0663 C   0  0  0  0  0  0  0  0  0  0  0  0
   -0.0098    7.1822   -0.8931 O   0  0  0  0  0  0  0  0  0  0  0  0
   -0.1288    6.7716   -2.2457 C   0  0  0  0  0  0  0  0  0  0  0  0
   -0.5201    7.9883   -3.0712 C   0  0  0  0  0  0  0  0  0  0  0  0
   -0.6489    7.6769   -4.5543 C   0  0  0  0  0  0  0  0  0  0  0  0
   -1.6298    6.6827   -4.7351 O   0  0  0  0  0  0  0  0  0  0  0  0
   -1.8360    6.3207   -6.0740 C   0  0  0  0  0  0  0  0  0  0  0  0
    0.5150    4.9091   -0.1785 C   0  0  0  0  0  0  0  0  0  0  0  0
    1.6896   -0.1882    0.8458 N   0  0  0  0  0  0  0  0  0  0  0  0
    2.0145   -1.5926    0.7239 C   0  0  2  0  0  0  0  0  0  0  0  0
    0.8339   -2.4536    0.1828 C   0  0  0  0  0  0  0  0  0  0  0  0
    0.8042   -3.6041    1.2143 C   0  0  2  0  0  0  0  0  0  0  0  0
    0.1509   -3.1173    2.5278 C   0  0  0  0  0  0  0  0  0  0  0  0
    1.2807   -2.2079    3.0966 C   0  0  0  0  0  0  0  0  0  0  0  0
    2.3738   -2.3812    2.0213 C   0  0  1  0  0  0  0  0  0  0  0  0
    2.1821   -3.7309    1.5831 O   0  0  0  0  0  0  0  0  0  0  0  0
    5.9263    0.8842    1.2794 H   0  0  0  0  0  0  0  0  0  0  0  0
    4.9342    1.8121    2.4178 H   0  0  0  0  0  0  0  0  0  0  0  0
    4.8886    2.1914    0.6764 H   0  0  0  0  0  0  0  0  0  0  0  0
    2.9678    2.7356    1.3248 H   0  0  0  0  0  0  0  0  0  0  0  0
    0.1371    2.0190    0.9803 H   0  0  0  0  0  0  0  0  0  0  0  0
    1.0433    2.3857   -0.4918 H   0  0  0  0  0  0  0  0  0  0  0  0
    1.1694    3.8643    3.0058 H   0  0  0  0  0  0  0  0  0  0  0  0
    0.7857    6.2925    3.4398 H   0  0  0  0  0  0  0  0  0  0  0  0
    0.2243    7.8326    1.5480 H   0  0  0  0  0  0  0  0  0  0  0  0
   -0.8946    5.9841   -2.3500 H   0  0  0  0  0  0  0  0  0  0  0  0
    0.8328    6.3537   -2.6031 H   0  0  0  0  0  0  0  0  0  0  0  0
    0.2348    8.7800   -2.9332 H   0  0  0  0  0  0  0  0  0  0  0  0
   -1.4773    8.3831   -2.6933 H   0  0  0  0  0  0  0  0  0  0  0  0
    0.3267    7.3349   -4.9648 H   0  0  0  0  0  0  0  0  0  0  0  0
   -0.9198    8.5991   -5.1098 H   0  0  0  0  0  0  0  0  0  0  0  0
   -2.6166    5.5463   -6.0986 H   0  0  0  0  0  0  0  0  0  0  0  0
   -0.9171    5.9103   -6.5408 H   0  0  0  0  0  0  0  0  0  0  0  0
   -2.1730    7.1801   -6.6891 H   0  0  0  0  0  0  0  0  0  0  0  0
    0.4479    4.5092   -1.1908 H   0  0  0  0  0  0  0  0  0  0  0  0
    0.7569    0.0342    1.1716 H   0  0  0  0  0  0  0  0  0  0  0  0
    2.8886   -1.6621    0.0632 H   0  0  0  0  0  0  0  0  0  0  0  0
    1.0391   -2.8293   -0.8299 H   0  0  0  0  0  0  0  0  0  0  0  0
   -0.1129   -1.8915    0.1434 H   0  0  0  0  0  0  0  0  0  0  0  0
    0.4303   -4.5640    0.8334 H   0  0  0  0  0  0  0  0  0  0  0  0
   -0.0524   -3.9696    3.1928 H   0  0  0  0  0  0  0  0  0  0  0  0
   -0.7996   -2.5877    2.3596 H   0  0  0  0  0  0  0  0  0  0  0  0
    1.6396   -2.5681    4.0713 H   0  0  0  0  0  0  0  0  0  0  0  0
    0.9775   -1.1580    3.2259 H   0  0  0  0  0  0  0  0  0  0  0  0
    3.4046   -2.2227    2.3552 H   0  0  0  0  0  0  0  0  0  0  0  0
  1  2  1  0
  1 26  1  0
  1 27  1  0
  1 28  1  0
  2  3  2  0
  3  4  1  0
  3 18  1  0
  4  5  1  0
  4 29  1  0
  5  6  1  0
  5 30  1  0
  5 31  1  0
  6  7  2  0
  6 17  1  0
  7  8  1  0
  7 32  1  0
  8  9  2  0
  8 33  1  0
  9 10  1  0
  9 34  1  0
 10 11  1  0
 10 17  2  0
 11 12  1  0
 12 13  1  0
 12 35  1  0
 12 36  1  0
 13 14  1  0
 13 37  1  0
 13 38  1  0
 14 15  1  0
 14 39  1  0
 14 40  1  0
 15 16  1  0
 16 41  1  0
 16 42  1  0
 16 43  1  0
 17 44  1  0
 18 19  1  0
 18 45  1  0
 19 20  1  0
 19 24  1  0
 19 46  1  6
 20 21  1  0
 20 47  1  0
 20 48  1  0
 21 22  1  0
 21 25  1  0
 21 49  1  6
 22 23  1  0
 22 50  1  0
 22 51  1  0
 23 24  1  0
 23 52  1  0
 23 53  1  0
 24 25  1  0
 24 54  1  1
M  END

