
     RDKit          3D

 50 54  0  0  0  0  0  0  0  0999 V2000
    1.3667    0.4621   -1.8256 O   0  0  0  0  0  0  0  0  0  0  0  0
    2.3712    0.3991   -1.1391 C   0  0  0  0  0  0  0  0  0  0  0  0
    3.0457    1.5321   -0.5390 C   0  0  0  0  0  0  0  0  0  0  0  0
    2.7657    2.9252   -0.5331 C   0  0  0  0  0  0  0  0  0  0  0  0
    3.6887    3.5876    0.1456 N   0  0  0  0  0  0  0  0  0  0  0  0
    4.5639    2.6514    0.5769 N   0  0  0  0  0  0  0  0  0  0  0  0
    5.3614    2.9430    1.1282 H   0  0  0  0  0  0  0  0  0  0  0  0
    4.2236    1.3952    0.1917 C   0  0  0  0  0  0  0  0  0  0  0  0
    4.8563    0.1245    0.4161 C   0  0  0  0  0  0  0  0  0  0  0  0
    6.0620   -0.0497    1.1206 C   0  0  0  0  0  0  0  0  0  0  0  0
    6.6177   -1.3047    1.3027 C   0  0  0  0  0  0  0  0  0  0  0  0
    5.9614   -2.4405    0.7880 C   0  0  0  0  0  0  0  0  0  0  0  0
    6.5437   -3.7917    1.0214 C   0  0  0  0  0  0  0  0  0  0  0  0
    5.7852   -4.9718    0.8979 C   0  0  0  0  0  0  0  0  0  0  0  0
    6.4020   -6.2004    1.1198 C   0  0  0  0  0  0  0  0  0  0  0  0
    7.7542   -6.2485    1.4799 C   0  0  0  0  0  0  0  0  0  0  0  0
    8.4877   -7.5747    1.6304 C   0  0  1  0  0  0  0  0  0  0  0  0
    9.0762   -7.9517    0.3938 O   0  0  0  0  0  0  0  0  0  0  0  0
    9.4773   -7.6144    2.7965 C   0  0  0  0  0  0  0  0  0  0  0  0
    9.1018   -7.1615    4.0723 C   0  0  0  0  0  0  0  0  0  0  0  0
    9.9891   -7.2436    5.1471 C   0  0  0  0  0  0  0  0  0  0  0  0
   11.2688   -7.7795    4.9639 C   0  0  0  0  0  0  0  0  0  0  0  0
   11.6478   -8.2384    3.7007 C   0  0  0  0  0  0  0  0  0  0  0  0
   10.7554   -8.1616    2.6255 C   0  0  0  0  0  0  0  0  0  0  0  0
    8.4129   -5.0139    1.6040 C   0  0  0  0  0  0  0  0  0  0  0  0
    7.8368   -3.8363    1.3817 N   0  0  0  0  0  0  0  0  0  0  0  0
    4.7697   -2.2761    0.0719 C   0  0  0  0  0  0  0  0  0  0  0  0
    4.1914   -1.0102   -0.1341 C   0  0  0  0  0  0  0  0  0  0  0  0
    3.0001   -0.8557   -0.8723 N   0  0  0  0  0  0  0  0  0  0  0  0
    2.3449   -1.9915   -1.4970 C   0  0  0  0  0  0  0  0  0  0  0  0
    1.3917   -2.7638   -0.5887 C   0  0  1  0  0  0  0  0  0  0  0  0
    0.5254   -1.9592    0.0303 F   0  0  0  0  0  0  0  0  0  0  0  0
    0.6977   -3.6463   -1.3263 F   0  0  0  0  0  0  0  0  0  0  0  0
    2.0334   -3.4707    0.3687 F   0  0  0  0  0  0  0  0  0  0  0  0
    1.9301    3.4476   -0.9960 H   0  0  0  0  0  0  0  0  0  0  0  0
    6.5700    0.8263    1.5323 H   0  0  0  0  0  0  0  0  0  0  0  0
    7.5536   -1.4405    1.8438 H   0  0  0  0  0  0  0  0  0  0  0  0
    4.7218   -4.9330    0.6578 H   0  0  0  0  0  0  0  0  0  0  0  0
    5.8286   -7.1267    1.0213 H   0  0  0  0  0  0  0  0  0  0  0  0
    7.7282   -8.3537    1.8164 H   0  0  0  0  0  0  0  0  0  0  0  0
    9.6475   -7.2273    0.1012 H   0  0  0  0  0  0  0  0  0  0  0  0
    8.1059   -6.7376    4.2279 H   0  0  0  0  0  0  0  0  0  0  0  0
    9.6811   -6.8856    6.1330 H   0  0  0  0  0  0  0  0  0  0  0  0
   11.9646   -7.8408    5.8045 H   0  0  0  0  0  0  0  0  0  0  0  0
   12.6425   -8.6656    3.5484 H   0  0  0  0  0  0  0  0  0  0  0  0
   11.0412   -8.5403    1.6428 H   0  0  0  0  0  0  0  0  0  0  0  0
    9.4656   -4.9858    1.9111 H   0  0  0  0  0  0  0  0  0  0  0  0
    4.2801   -3.1577   -0.3269 H   0  0  0  0  0  0  0  0  0  0  0  0
    3.0722   -2.6960   -1.9218 H   0  0  0  0  0  0  0  0  0  0  0  0
    1.7241   -1.5901   -2.3084 H   0  0  0  0  0  0  0  0  0  0  0  0
  1  2  2  0
  2  3  1  0
  2 29  1  0
  3  4  1  0
  3  8  2  0
  4  5  2  0
  4 35  1  0
  5  6  1  0
  6  7  1  0
  6  8  1  0
  8  9  1  0
  9 10  1  0
  9 28  2  0
 10 11  2  0
 10 36  1  0
 11 12  1  0
 11 37  1  0
 12 13  1  0
 12 27  2  0
 13 14  2  0
 13 26  1  0
 14 15  1  0
 14 38  1  0
 15 16  2  0
 15 39  1  0
 16 17  1  0
 16 25  1  0
 17 18  1  0
 17 19  1  0
 17 40  1  1
 18 41  1  0
 19 20  2  0
 19 24  1  0
 20 21  1  0
 20 42  1  0
 21 22  2  0
 21 43  1  0
 22 23  1  0
 22 44  1  0
 23 24  2  0
 23 45  1  0
 24 46  1  0
 25 26  2  0
 25 47  1  0
 27 28  1  0
 27 48  1  0
 28 29  1  0
 29 30  1  0
 30 31  1  0
 30 49  1  0
 30 50  1  0
 31 32  1  1
 31 33  1  0
 31 34  1  0
M  END

