
     RDKit          3D

 44 45  0  0  0  0  0  0  0  0999 V2000
    4.8308   -0.4034    0.5454 C   0  0  0  0  0  0  0  0  0  0  0  0
    3.5652   -0.2157   -0.2941 C   0  0  0  0  0  0  0  0  0  0  0  0
    2.9643   -1.5031   -0.8987 C   0  0  1  0  0  0  0  0  0  0  0  0
    2.4999   -2.4822    0.1974 C   0  0  0  0  0  0  0  0  0  0  0  0
    2.0407   -3.8672   -0.2724 C   0  0  0  0  0  0  0  0  0  0  0  0
    0.9521   -3.8842   -1.3532 C   0  0  0  0  0  0  0  0  0  0  0  0
    1.4332   -3.5049   -2.6795 N   0  0  0  0  0  0  0  0  0  0  0  0
    1.7492   -4.5355   -3.5504 C   0  0  0  0  0  0  0  0  0  0  0  0
    1.7562   -5.7120   -3.2046 O   0  0  0  0  0  0  0  0  0  0  0  0
    2.0761   -4.1624   -4.8440 N   0  0  0  0  0  0  0  0  0  0  0  0
    2.3108   -5.1990   -5.8548 C   0  0  1  0  0  0  0  0  0  0  0  0
    2.1949   -4.5922   -7.2622 C   0  0  0  0  0  0  0  0  0  0  0  0
    3.3978   -3.7054   -7.6027 C   0  0  0  0  0  0  0  0  0  0  0  0
    4.6177   -4.3933   -7.4408 O   0  0  0  0  0  0  0  0  0  0  0  0
    4.8085   -4.8671   -6.1162 C   0  0  0  0  0  0  0  0  0  0  0  0
    3.7062   -5.8359   -5.6979 C   0  0  0  0  0  0  0  0  0  0  0  0
    1.5936   -2.1013   -3.0410 C   0  0  0  0  0  0  0  0  0  0  0  0
    1.8114   -1.1446   -1.8638 C   0  0  0  0  0  0  0  0  0  0  0  0
    5.2407    0.5701    0.8584 H   0  0  0  0  0  0  0  0  0  0  0  0
    5.6165   -0.9242   -0.0278 H   0  0  0  0  0  0  0  0  0  0  0  0
    4.6472   -0.9866    1.4611 H   0  0  0  0  0  0  0  0  0  0  0  0
    3.7952    0.4768   -1.1231 H   0  0  0  0  0  0  0  0  0  0  0  0
    2.7898    0.2908    0.3110 H   0  0  0  0  0  0  0  0  0  0  0  0
    3.7637   -1.9943   -1.4877 H   0  0  0  0  0  0  0  0  0  0  0  0
    1.6768   -1.9963    0.7563 H   0  0  0  0  0  0  0  0  0  0  0  0
    3.3124   -2.6257    0.9277 H   0  0  0  0  0  0  0  0  0  0  0  0
    1.6647   -4.4235    0.6043 H   0  0  0  0  0  0  0  0  0  0  0  0
    2.8972   -4.4467   -0.6565 H   0  0  0  0  0  0  0  0  0  0  0  0
    0.1094   -3.2292   -1.0709 H   0  0  0  0  0  0  0  0  0  0  0  0
    0.5601   -4.9046   -1.4453 H   0  0  0  0  0  0  0  0  0  0  0  0
    1.7329   -3.2721   -5.1813 H   0  0  0  0  0  0  0  0  0  0  0  0
    1.5531   -5.9891   -5.7223 H   0  0  0  0  0  0  0  0  0  0  0  0
    1.2539   -4.0230   -7.3688 H   0  0  0  0  0  0  0  0  0  0  0  0
    2.1524   -5.4186   -7.9898 H   0  0  0  0  0  0  0  0  0  0  0  0
    3.3894   -2.7870   -6.9754 H   0  0  0  0  0  0  0  0  0  0  0  0
    3.3539   -3.3796   -8.6539 H   0  0  0  0  0  0  0  0  0  0  0  0
    4.8473   -4.0114   -5.4106 H   0  0  0  0  0  0  0  0  0  0  0  0
    5.7940   -5.3570   -6.1010 H   0  0  0  0  0  0  0  0  0  0  0  0
    3.8408   -6.1669   -4.6576 H   0  0  0  0  0  0  0  0  0  0  0  0
    3.7534   -6.7334   -6.3380 H   0  0  0  0  0  0  0  0  0  0  0  0
    0.7216   -1.7335   -3.6236 H   0  0  0  0  0  0  0  0  0  0  0  0
    2.4719   -2.0210   -3.7029 H   0  0  0  0  0  0  0  0  0  0  0  0
    0.8773   -1.0211   -1.2894 H   0  0  0  0  0  0  0  0  0  0  0  0
    2.0053   -0.1573   -2.3165 H   0  0  0  0  0  0  0  0  0  0  0  0
  1  2  1  0
  1 19  1  0
  1 20  1  0
  1 21  1  0
  2  3  1  0
  2 22  1  0
  2 23  1  0
  3  4  1  0
  3 18  1  0
  3 24  1  6
  4  5  1  0
  4 25  1  0
  4 26  1  0
  5  6  1  0
  5 27  1  0
  5 28  1  0
  6  7  1  0
  6 29  1  0
  6 30  1  0
  7  8  1  0
  7 17  1  0
  8  9  2  0
  8 10  1  0
 10 11  1  0
 10 31  1  0
 11 12  1  0
 11 16  1  0
 11 32  1  6
 12 13  1  0
 12 33  1  0
 12 34  1  0
 13 14  1  0
 13 35  1  0
 13 36  1  0
 14 15  1  0
 15 16  1  0
 15 37  1  0
 15 38  1  0
 16 39  1  0
 16 40  1  0
 17 18  1  0
 17 41  1  0
 17 42  1  0
 18 43  1  0
 18 44  1  0
M  END

