
     RDKit          3D

 44 47  0  0  0  0  0  0  0  0999 V2000
    1.1705    0.9012   -0.4756 C   0  0  0  0  0  0  0  0  0  0  0  0
    2.3510    0.1941   -0.0160 N   0  0  0  0  0  0  0  0  0  0  0  0
    2.9906    0.6282    1.2277 C   0  0  1  0  0  0  0  0  0  0  0  0
    2.1377    0.1733    2.4023 C   0  0  0  0  0  0  0  0  0  0  0  0
    2.0835    0.7965    3.5655 N   0  0  0  0  0  0  0  0  0  0  0  0
    1.2539    0.0879    4.3571 N   0  0  0  0  0  0  0  0  0  0  0  0
    0.7950   -0.9388    3.7432 N   0  0  0  0  0  0  0  0  0  0  0  0
    1.3364   -0.9277    2.4945 N   0  0  0  0  0  0  0  0  0  0  0  0
    0.9726   -1.9701    1.5818 C   0  0  0  0  0  0  0  0  0  0  0  0
   -0.3425   -2.0212    1.1178 C   0  0  0  0  0  0  0  0  0  0  0  0
   -0.7689   -3.0563    0.2640 C   0  0  0  0  0  0  0  0  0  0  0  0
    0.1692   -4.0111   -0.0844 C   0  0  0  0  0  0  0  0  0  0  0  0
    1.4819   -3.9625    0.3966 C   0  0  0  0  0  0  0  0  0  0  0  0
    1.9167   -2.9608    1.2415 C   0  0  0  0  0  0  0  0  0  0  0  0
    2.1829   -5.0282   -0.0889 O   0  0  0  0  0  0  0  0  0  0  0  0
    1.2794   -5.7768   -0.8998 C   0  0  0  0  0  0  0  0  0  0  0  0
    0.0208   -5.1057   -0.8844 O   0  0  0  0  0  0  0  0  0  0  0  0
    4.3812   -0.0622    1.3363 C   0  0  0  0  0  0  0  0  0  0  0  0
    5.4131    0.4808    0.3351 C   0  0  0  0  0  0  0  0  0  0  0  0
    5.5906    2.0105    0.4089 C   0  0  2  0  0  0  0  0  0  0  0  0
    6.3771    2.4549    1.6508 C   0  0  0  0  0  0  0  0  0  0  0  0
    4.2087    2.6875    0.3050 C   0  0  0  0  0  0  0  0  0  0  0  0
    3.2069    2.1655    1.3414 C   0  0  0  0  0  0  0  0  0  0  0  0
    0.7431    0.3669   -1.3387 H   0  0  0  0  0  0  0  0  0  0  0  0
    1.3345    1.9560   -0.7772 H   0  0  0  0  0  0  0  0  0  0  0  0
    0.3991    0.9043    0.3115 H   0  0  0  0  0  0  0  0  0  0  0  0
    3.0331    0.0905   -0.7599 H   0  0  0  0  0  0  0  0  0  0  0  0
   -1.0465   -1.2508    1.4347 H   0  0  0  0  0  0  0  0  0  0  0  0
   -1.7947   -3.1087   -0.1025 H   0  0  0  0  0  0  0  0  0  0  0  0
    2.9324   -2.9432    1.6339 H   0  0  0  0  0  0  0  0  0  0  0  0
    1.1634   -6.7947   -0.4857 H   0  0  0  0  0  0  0  0  0  0  0  0
    1.6618   -5.8266   -1.9354 H   0  0  0  0  0  0  0  0  0  0  0  0
    4.2565   -1.1465    1.1912 H   0  0  0  0  0  0  0  0  0  0  0  0
    4.7462    0.0823    2.3647 H   0  0  0  0  0  0  0  0  0  0  0  0
    5.1183    0.2047   -0.6937 H   0  0  0  0  0  0  0  0  0  0  0  0
    6.3783   -0.0252    0.5073 H   0  0  0  0  0  0  0  0  0  0  0  0
    6.1816    2.3178   -0.4721 H   0  0  0  0  0  0  0  0  0  0  0  0
    5.8710    2.1904    2.5925 H   0  0  0  0  0  0  0  0  0  0  0  0
    6.5200    3.5477    1.6534 H   0  0  0  0  0  0  0  0  0  0  0  0
    7.3757    1.9889    1.6714 H   0  0  0  0  0  0  0  0  0  0  0  0
    3.8071    2.5218   -0.7107 H   0  0  0  0  0  0  0  0  0  0  0  0
    4.3143    3.7799    0.4150 H   0  0  0  0  0  0  0  0  0  0  0  0
    2.2407    2.6827    1.2362 H   0  0  0  0  0  0  0  0  0  0  0  0
    3.5458    2.3910    2.3620 H   0  0  0  0  0  0  0  0  0  0  0  0
  1  2  1  0
  1 24  1  0
  1 25  1  0
  1 26  1  0
  3  2  1  6
  2 27  1  0
  3  4  1  0
  3 18  1  0
  3 23  1  0
  4  5  2  0
  4  8  1  0
  5  6  1  0
  6  7  2  0
  7  8  1  0
  8  9  1  0
  9 10  2  0
  9 14  1  0
 10 11  1  0
 10 28  1  0
 11 12  2  0
 11 29  1  0
 12 13  1  0
 12 17  1  0
 13 14  2  0
 13 15  1  0
 14 30  1  0
 15 16  1  0
 16 17  1  0
 16 31  1  0
 16 32  1  0
 18 19  1  0
 18 33  1  0
 18 34  1  0
 19 20  1  0
 19 35  1  0
 19 36  1  0
 20 21  1  0
 20 22  1  0
 20 37  1  6
 21 38  1  0
 21 39  1  0
 21 40  1  0
 22 23  1  0
 22 41  1  0
 22 42  1  0
 23 43  1  0
 23 44  1  0
M  END

