
     RDKit          3D

 45 44  0  0  0  0  0  0  0  0999 V2000
    2.7651   -0.8676   -1.1910 C   0  0  0  0  0  0  0  0  0  0  0  0
    3.4994   -0.2005   -0.0273 C   0  0  0  0  0  0  0  0  0  0  0  0
    4.6227    0.7376   -0.4884 C   0  0  0  0  0  0  0  0  0  0  0  0
    5.3822    1.4575    0.6485 C   0  0  1  0  0  0  0  0  0  0  0  0
    6.4976    0.6186    1.3100 C   0  0  0  0  0  0  0  0  0  0  0  0
    5.9846   -0.5748    1.9762 N   0  0  0  0  0  0  0  0  0  0  0  0
    5.9929    2.7987    0.2169 C   0  0  0  0  0  0  0  0  0  0  0  0
    5.8700    3.8123    0.8899 O   0  0  0  0  0  0  0  0  0  0  0  0
    6.7109    2.7614   -0.9438 N   0  0  0  0  0  0  0  0  0  0  0  0
    7.4080    3.9114   -1.4777 C   0  0  0  0  0  0  0  0  0  0  0  0
    8.9163    3.6768   -1.6220 C   0  0  0  0  0  0  0  0  0  0  0  0
    9.2573    2.5603   -2.6085 C   0  0  0  0  0  0  0  0  0  0  0  0
    8.4865    1.6325   -2.8320 O   0  0  0  0  0  0  0  0  0  0  0  0
   10.4847    2.6525   -3.1928 N   0  0  0  0  0  0  0  0  0  0  0  0
   11.0139    1.6729   -4.1408 C   0  0  1  0  0  0  0  0  0  0  0  0
   11.0488    2.2506   -5.5603 C   0  0  0  0  0  0  0  0  0  0  0  0
   12.3913    1.1572   -3.6906 C   0  0  0  0  0  0  0  0  0  0  0  0
   12.3915    0.4551   -2.3332 C   0  0  0  0  0  0  0  0  0  0  0  0
    1.9566   -1.5256   -0.8334 H   0  0  0  0  0  0  0  0  0  0  0  0
    3.4504   -1.4852   -1.7962 H   0  0  0  0  0  0  0  0  0  0  0  0
    2.3122   -0.1221   -1.8670 H   0  0  0  0  0  0  0  0  0  0  0  0
    3.9272   -0.9615    0.6423 H   0  0  0  0  0  0  0  0  0  0  0  0
    2.7783    0.3795    0.5780 H   0  0  0  0  0  0  0  0  0  0  0  0
    4.1872    1.4983   -1.1609 H   0  0  0  0  0  0  0  0  0  0  0  0
    5.3376    0.1623   -1.1065 H   0  0  0  0  0  0  0  0  0  0  0  0
    4.6637    1.7445    1.4349 H   0  0  0  0  0  0  0  0  0  0  0  0
    7.0672    1.2929    1.9849 H   0  0  0  0  0  0  0  0  0  0  0  0
    7.2055    0.2935    0.5274 H   0  0  0  0  0  0  0  0  0  0  0  0
    5.4224   -0.3112    2.7871 H   0  0  0  0  0  0  0  0  0  0  0  0
    6.7547   -1.1394    2.3347 H   0  0  0  0  0  0  0  0  0  0  0  0
    6.8235    1.8988   -1.4681 H   0  0  0  0  0  0  0  0  0  0  0  0
    7.2223    4.7439   -0.7851 H   0  0  0  0  0  0  0  0  0  0  0  0
    6.9875    4.1918   -2.4605 H   0  0  0  0  0  0  0  0  0  0  0  0
    9.3378    3.3968   -0.6401 H   0  0  0  0  0  0  0  0  0  0  0  0
    9.4118    4.6154   -1.9235 H   0  0  0  0  0  0  0  0  0  0  0  0
   11.0490    3.4721   -2.9964 H   0  0  0  0  0  0  0  0  0  0  0  0
   10.2932    0.8413   -4.1146 H   0  0  0  0  0  0  0  0  0  0  0  0
   11.7326    3.1148   -5.6227 H   0  0  0  0  0  0  0  0  0  0  0  0
   10.0470    2.5830   -5.8715 H   0  0  0  0  0  0  0  0  0  0  0  0
   11.3990    1.4956   -6.2818 H   0  0  0  0  0  0  0  0  0  0  0  0
   13.1048    2.0036   -3.6796 H   0  0  0  0  0  0  0  0  0  0  0  0
   12.7631    0.4669   -4.4671 H   0  0  0  0  0  0  0  0  0  0  0  0
   12.0510    1.1295   -1.5316 H   0  0  0  0  0  0  0  0  0  0  0  0
   13.4006    0.1030   -2.0677 H   0  0  0  0  0  0  0  0  0  0  0  0
   11.7201   -0.4189   -2.3361 H   0  0  0  0  0  0  0  0  0  0  0  0
  1  2  1  0
  1 19  1  0
  1 20  1  0
  1 21  1  0
  2  3  1  0
  2 22  1  0
  2 23  1  0
  3  4  1  0
  3 24  1  0
  3 25  1  0
  4  5  1  0
  4  7  1  0
  4 26  1  1
  5  6  1  0
  5 27  1  0
  5 28  1  0
  6 29  1  0
  6 30  1  0
  7  8  2  0
  7  9  1  0
  9 10  1  0
  9 31  1  0
 10 11  1  0
 10 32  1  0
 10 33  1  0
 11 12  1  0
 11 34  1  0
 11 35  1  0
 12 13  2  0
 12 14  1  0
 14 15  1  0
 14 36  1  0
 15 16  1  0
 15 17  1  0
 15 37  1  6
 16 38  1  0
 16 39  1  0
 16 40  1  0
 17 18  1  0
 17 41  1  0
 17 42  1  0
 18 43  1  0
 18 44  1  0
 18 45  1  0
M  END

