
     RDKit          3D

 46 47  0  0  0  0  0  0  0  0999 V2000
    1.0193    2.6187   -0.0203 C   0  0  0  0  0  0  0  0  0  0  0  0
    2.4750    2.5322   -0.4393 C   0  0  0  0  0  0  0  0  0  0  0  0
    3.1231    1.5579    0.3562 O   0  0  0  0  0  0  0  0  0  0  0  0
    4.4693    1.3479    0.0473 C   0  0  1  0  0  0  0  0  0  0  0  0
    5.5240    2.3411    0.5924 C   0  0  0  0  0  0  0  0  0  0  0  0
    6.4242    1.1407    0.9590 C   0  0  2  0  0  0  0  0  0  0  0  0
    7.0544    1.2773    2.2738 N   0  0  0  0  0  0  0  0  0  0  0  0
    7.6404    0.2903    2.9928 C   0  0  0  0  0  0  0  0  0  0  0  0
    7.8585   -0.8309    2.5128 O   0  0  0  0  0  0  0  0  0  0  0  0
    8.0395    0.6049    4.4012 C   0  0  0  0  0  0  0  0  0  0  0  0
    9.0065   -0.2182    5.0031 C   0  0  0  0  0  0  0  0  0  0  0  0
    9.4222    0.0143    6.3086 C   0  0  0  0  0  0  0  0  0  0  0  0
    8.8604    1.0683    7.0378 C   0  0  0  0  0  0  0  0  0  0  0  0
    9.3428    1.1978    8.3284 O   0  0  0  0  0  0  0  0  0  0  0  0
    9.0249    2.2426    9.1291 C   0  0  1  0  0  0  0  0  0  0  0  0
    9.3480    3.4200    8.5781 F   0  0  0  0  0  0  0  0  0  0  0  0
    7.7152    2.2818    9.4182 F   0  0  0  0  0  0  0  0  0  0  0  0
    9.7005    2.0998   10.2573 F   0  0  0  0  0  0  0  0  0  0  0  0
    7.8787    1.8878    6.4707 C   0  0  0  0  0  0  0  0  0  0  0  0
    7.4789    1.6462    5.1551 C   0  0  0  0  0  0  0  0  0  0  0  0
    7.4504    0.8573   -0.1726 C   0  0  0  0  0  0  0  0  0  0  0  0
    7.4376    1.4778   -1.2078 O   0  0  0  0  0  0  0  0  0  0  0  0
    8.3037   -0.1342    0.0441 O   0  0  0  0  0  0  0  0  0  0  0  0
    5.1405    0.1871    0.8386 C   0  0  1  0  0  0  0  0  0  0  0  0
    4.4619   -0.0493    2.1905 C   0  0  0  0  0  0  0  0  0  0  0  0
    5.2933   -1.1317    0.0815 C   0  0  0  0  0  0  0  0  0  0  0  0
    0.4858    3.3665   -0.6276 H   0  0  0  0  0  0  0  0  0  0  0  0
    0.9362    2.9071    1.0391 H   0  0  0  0  0  0  0  0  0  0  0  0
    0.5219    1.6449   -0.1492 H   0  0  0  0  0  0  0  0  0  0  0  0
    2.9696    3.5184   -0.3232 H   0  0  0  0  0  0  0  0  0  0  0  0
    2.5577    2.2602   -1.5118 H   0  0  0  0  0  0  0  0  0  0  0  0
    4.6030    1.2080   -1.0419 H   0  0  0  0  0  0  0  0  0  0  0  0
    5.1421    2.8469    1.4921 H   0  0  0  0  0  0  0  0  0  0  0  0
    5.9632    3.0627   -0.1070 H   0  0  0  0  0  0  0  0  0  0  0  0
    7.0253    2.2050    2.6787 H   0  0  0  0  0  0  0  0  0  0  0  0
    9.4252   -1.0417    4.4226 H   0  0  0  0  0  0  0  0  0  0  0  0
   10.1805   -0.6094    6.7849 H   0  0  0  0  0  0  0  0  0  0  0  0
    7.4147    2.6940    7.0362 H   0  0  0  0  0  0  0  0  0  0  0  0
    6.6886    2.2750    4.7379 H   0  0  0  0  0  0  0  0  0  0  0  0
    8.1491   -0.5608    0.9323 H   0  0  0  0  0  0  0  0  0  0  0  0
    4.3513    0.8709    2.7815 H   0  0  0  0  0  0  0  0  0  0  0  0
    5.0289   -0.7820    2.7842 H   0  0  0  0  0  0  0  0  0  0  0  0
    3.4508   -0.4473    2.0227 H   0  0  0  0  0  0  0  0  0  0  0  0
    5.7655   -0.9952   -0.9030 H   0  0  0  0  0  0  0  0  0  0  0  0
    4.2966   -1.5712   -0.0878 H   0  0  0  0  0  0  0  0  0  0  0  0
    5.8919   -1.8564    0.6536 H   0  0  0  0  0  0  0  0  0  0  0  0
  1  2  1  0
  1 27  1  0
  1 28  1  0
  1 29  1  0
  2  3  1  0
  2 30  1  0
  2 31  1  0
  3  4  1  0
  4  5  1  0
  4 24  1  0
  4 32  1  6
  5  6  1  0
  5 33  1  0
  5 34  1  0
  6  7  1  0
  6 21  1  6
  6 24  1  0
  7  8  1  0
  7 35  1  0
  8  9  2  0
  8 10  1  0
 10 11  2  0
 10 20  1  0
 11 12  1  0
 11 36  1  0
 12 13  2  0
 12 37  1  0
 13 14  1  0
 13 19  1  0
 14 15  1  0
 15 16  1  6
 15 17  1  0
 15 18  1  0
 19 20  2  0
 19 38  1  0
 20 39  1  0
 21 22  2  0
 21 23  1  0
 23 40  1  0
 24 25  1  1
 24 26  1  0
 25 41  1  0
 25 42  1  0
 25 43  1  0
 26 44  1  0
 26 45  1  0
 26 46  1  0
M  END

