
     RDKit          3D

 23 23  0  0  0  0  0  0  0  0999 V2000
    0.9357    0.1704    0.1841 C   0  0  0  0  0  0  0  0  0  0  0  0
    2.4519    0.0646    0.0011 C   0  0  1  0  0  0  0  0  0  0  0  0
    2.9160   -1.3542   -0.4182 C   0  0  0  0  0  0  0  0  0  0  0  0
    2.5934   -1.6272   -1.8652 C   0  0  0  0  0  0  0  0  0  0  0  0
    1.8994   -2.7260   -2.2376 C   0  0  0  0  0  0  0  0  0  0  0  0
    1.5154   -3.0998   -3.6257 C   0  0  0  0  0  0  0  0  0  0  0  0
    1.7040   -2.4478   -4.6233 O   0  0  0  0  0  0  0  0  0  0  0  0
    0.8906   -4.3014   -3.7294 O   0  0  0  0  0  0  0  0  0  0  0  0
    3.0914   -0.5398   -2.7799 C   0  0  0  0  0  0  0  0  0  0  0  0
    2.6285    0.8321   -2.2595 C   0  0  0  0  0  0  0  0  0  0  0  0
    2.9685    1.0330   -0.9017 O   0  0  0  0  0  0  0  0  0  0  0  0
    0.6087   -0.4599    1.0264 H   0  0  0  0  0  0  0  0  0  0  0  0
    0.3775   -0.1542   -0.7076 H   0  0  0  0  0  0  0  0  0  0  0  0
    0.6584    1.2122    0.4064 H   0  0  0  0  0  0  0  0  0  0  0  0
    2.9308    0.3078    0.9632 H   0  0  0  0  0  0  0  0  0  0  0  0
    2.4795   -2.1145    0.2482 H   0  0  0  0  0  0  0  0  0  0  0  0
    4.0131   -1.3898   -0.2956 H   0  0  0  0  0  0  0  0  0  0  0  0
    1.5979   -3.4215   -1.4448 H   0  0  0  0  0  0  0  0  0  0  0  0
    0.8169   -4.7214   -2.8617 H   0  0  0  0  0  0  0  0  0  0  0  0
    2.7652   -0.7013   -3.8136 H   0  0  0  0  0  0  0  0  0  0  0  0
    4.1965   -0.5568   -2.7554 H   0  0  0  0  0  0  0  0  0  0  0  0
    1.5387    0.9410   -2.4211 H   0  0  0  0  0  0  0  0  0  0  0  0
    3.1246    1.6368   -2.8220 H   0  0  0  0  0  0  0  0  0  0  0  0
  1  2  1  0
  1 12  1  0
  1 13  1  0
  1 14  1  0
  2  3  1  0
  2 11  1  0
  2 15  1  1
  3  4  1  0
  3 16  1  0
  3 17  1  0
  4  5  2  0
  4  9  1  0
  5  6  1  0
  5 18  1  0
  6  7  2  0
  6  8  1  0
  8 19  1  0
  9 10  1  0
  9 20  1  0
  9 21  1  0
 10 11  1  0
 10 22  1  0
 10 23  1  0
M  END

