
     RDKit          3D

 42 45  0  0  0  0  0  0  0  0999 V2000
    1.1115    1.0797   -0.0515 C   0  0  0  0  0  0  0  0  0  0  0  0
    2.5221    0.9372   -0.3167 N   0  0  0  0  0  0  0  0  0  0  0  0
    2.9936    0.0196   -1.0639 C   0  0  0  0  0  0  0  0  0  0  0  0
    1.9231   -1.2945   -1.7364 S   0  0  0  0  0  0  0  0  0  0  0  0
    2.8564   -1.8957   -3.1383 C   0  0  0  0  0  0  0  0  0  0  0  0
    2.1649   -2.4068   -4.1224 N   0  0  0  0  0  0  0  0  0  0  0  0
    2.8241   -2.9152   -5.1997 C   0  0  0  0  0  0  0  0  0  0  0  0
    2.0566   -3.4834   -6.2689 C   0  0  0  0  0  0  0  0  0  0  0  0
    0.5564   -3.5156   -6.1687 C   0  0  0  0  0  0  0  0  0  0  0  0
    2.7359   -3.9838   -7.3674 C   0  0  0  0  0  0  0  0  0  0  0  0
    4.1499   -3.9479   -7.4564 C   0  0  0  0  0  0  0  0  0  0  0  0
    4.9015   -3.4066   -6.4355 C   0  0  0  0  0  0  0  0  0  0  0  0
    4.2550   -2.8808   -5.2857 C   0  0  0  0  0  0  0  0  0  0  0  0
    4.9623   -2.3192   -4.1873 C   0  0  0  0  0  0  0  0  0  0  0  0
    4.2814   -1.8336   -3.0941 C   0  0  0  0  0  0  0  0  0  0  0  0
    4.9323   -1.2864   -1.8523 C   0  0  0  0  0  0  0  0  0  0  0  0
    4.3233   -0.0304   -1.4261 N   0  0  0  0  0  0  0  0  0  0  0  0
    5.2045    1.0840   -1.0708 C   0  0  0  0  0  0  0  0  0  0  0  0
    6.0101    0.8767    0.1971 C   0  0  0  0  0  0  0  0  0  0  0  0
    5.4017    0.8311    1.4621 C   0  0  0  0  0  0  0  0  0  0  0  0
    6.1993    0.6303    2.5876 C   0  0  0  0  0  0  0  0  0  0  0  0
    7.5810    0.4817    2.4153 C   0  0  0  0  0  0  0  0  0  0  0  0
    8.1760    0.5260    1.2225 N   0  0  0  0  0  0  0  0  0  0  0  0
    7.4033    0.7186    0.1508 C   0  0  0  0  0  0  0  0  0  0  0  0
    0.9045    2.1002    0.3073 H   0  0  0  0  0  0  0  0  0  0  0  0
    0.7753    0.3861    0.7431 H   0  0  0  0  0  0  0  0  0  0  0  0
    0.4760    0.8928   -0.9383 H   0  0  0  0  0  0  0  0  0  0  0  0
    0.2317   -4.0772   -5.2783 H   0  0  0  0  0  0  0  0  0  0  0  0
    0.1081   -3.9768   -7.0605 H   0  0  0  0  0  0  0  0  0  0  0  0
    0.1473   -2.4997   -6.0503 H   0  0  0  0  0  0  0  0  0  0  0  0
    2.1644   -4.4191   -8.1919 H   0  0  0  0  0  0  0  0  0  0  0  0
    4.6412   -4.3547   -8.3438 H   0  0  0  0  0  0  0  0  0  0  0  0
    5.9928   -3.3770   -6.4957 H   0  0  0  0  0  0  0  0  0  0  0  0
    6.0565   -2.2931   -4.2142 H   0  0  0  0  0  0  0  0  0  0  0  0
    5.9993   -1.1023   -2.0360 H   0  0  0  0  0  0  0  0  0  0  0  0
    4.8778   -2.0441   -1.0445 H   0  0  0  0  0  0  0  0  0  0  0  0
    4.5621    1.9683   -0.9658 H   0  0  0  0  0  0  0  0  0  0  0  0
    5.8934    1.2557   -1.9151 H   0  0  0  0  0  0  0  0  0  0  0  0
    4.3191    0.9589    1.5392 H   0  0  0  0  0  0  0  0  0  0  0  0
    5.7620    0.5927    3.5883 H   0  0  0  0  0  0  0  0  0  0  0  0
    8.2322    0.3217    3.2833 H   0  0  0  0  0  0  0  0  0  0  0  0
    7.9198    0.7585   -0.8182 H   0  0  0  0  0  0  0  0  0  0  0  0
  1  2  1  0
  1 25  1  0
  1 26  1  0
  1 27  1  0
  2  3  2  0
  3  4  1  0
  3 17  1  0
  4  5  1  0
  5  6  1  0
  5 15  2  0
  6  7  2  0
  7  8  1  0
  7 13  1  0
  8  9  1  0
  8 10  2  0
  9 28  1  0
  9 29  1  0
  9 30  1  0
 10 11  1  0
 10 31  1  0
 11 12  2  0
 11 32  1  0
 12 13  1  0
 12 33  1  0
 13 14  2  0
 14 15  1  0
 14 34  1  0
 15 16  1  0
 16 17  1  0
 16 35  1  0
 16 36  1  0
 17 18  1  0
 18 19  1  0
 18 37  1  0
 18 38  1  0
 19 20  2  0
 19 24  1  0
 20 21  1  0
 20 39  1  0
 21 22  2  0
 21 40  1  0
 22 23  1  0
 22 41  1  0
 23 24  2  0
 24 42  1  0
M  END

