
     RDKit          3D

 38 42  0  0  0  0  0  0  0  0999 V2000
    1.0465    0.0659   -0.0057 C   0  0  0  0  0  0  0  0  0  0  0  0
   -0.1732    0.0857    0.0091 C   0  0  0  0  0  0  0  0  0  0  0  0
   -1.6017    0.1085    0.0266 C   0  0  0  0  0  0  0  0  0  0  0  0
   -2.2953    1.3354    0.0382 C   0  0  0  0  0  0  0  0  0  0  0  0
   -3.6967    1.3792    0.0554 C   0  0  0  0  0  0  0  0  0  0  0  0
   -4.4257    2.6215    0.0677 C   0  0  0  0  0  0  0  0  0  0  0  0
   -5.7897    2.6433    0.0847 C   0  0  0  0  0  0  0  0  0  0  0  0
   -6.5600    1.4271    0.0911 C   0  0  0  0  0  0  0  0  0  0  0  0
   -7.9664    1.4236    0.1088 C   0  0  0  0  0  0  0  0  0  0  0  0
   -8.6775    0.2221    0.1146 C   0  0  0  0  0  0  0  0  0  0  0  0
   -8.0054   -1.0017    0.1028 C   0  0  0  0  0  0  0  0  0  0  0  0
   -6.5998   -1.0503    0.0849 C   0  0  0  0  0  0  0  0  0  0  0  0
   -5.8690   -2.2906    0.0724 C   0  0  0  0  0  0  0  0  0  0  0  0
   -4.5050   -2.3126    0.0554 C   0  0  0  0  0  0  0  0  0  0  0  0
   -3.7365   -1.0943    0.0493 C   0  0  0  0  0  0  0  0  0  0  0  0
   -2.3343   -1.0954    0.0321 C   0  0  0  0  0  0  0  0  0  0  0  0
   -4.4362    0.1540    0.0613 C   0  0  0  0  0  0  0  0  0  0  0  0
   -5.8632    0.1769    0.0791 C   0  0  0  0  0  0  0  0  0  0  0  0
    2.4748    0.0434   -0.0227 C   0  0  0  0  0  0  0  0  0  0  0  0
    3.2144    1.2465   -0.0278 C   0  0  0  0  0  0  0  0  0  0  0  0
    4.6083    1.2196   -0.0449 C   0  0  0  0  0  0  0  0  0  0  0  0
    5.2916   -0.0014   -0.0573 C   0  0  0  0  0  0  0  0  0  0  0  0
    4.5698   -1.2000   -0.0525 C   0  0  0  0  0  0  0  0  0  0  0  0
    3.1757   -1.1826   -0.0355 C   0  0  0  0  0  0  0  0  0  0  0  0
   -1.7280    2.2686    0.0336 H   0  0  0  0  0  0  0  0  0  0  0  0
   -3.8593    3.5566    0.0630 H   0  0  0  0  0  0  0  0  0  0  0  0
   -6.3247    3.5969    0.0937 H   0  0  0  0  0  0  0  0  0  0  0  0
   -8.5009    2.3773    0.1181 H   0  0  0  0  0  0  0  0  0  0  0  0
   -9.7702    0.2396    0.1284 H   0  0  0  0  0  0  0  0  0  0  0  0
   -8.5703   -1.9377    0.1073 H   0  0  0  0  0  0  0  0  0  0  0  0
   -6.4343   -3.2265    0.0767 H   0  0  0  0  0  0  0  0  0  0  0  0
   -3.9689   -3.2653    0.0460 H   0  0  0  0  0  0  0  0  0  0  0  0
   -1.7974   -2.0464    0.0229 H   0  0  0  0  0  0  0  0  0  0  0  0
    2.6804    2.1989   -0.0183 H   0  0  0  0  0  0  0  0  0  0  0  0
    5.1668    2.1591   -0.0486 H   0  0  0  0  0  0  0  0  0  0  0  0
    6.3842   -0.0187   -0.0709 H   0  0  0  0  0  0  0  0  0  0  0  0
    5.0981   -2.1567   -0.0622 H   0  0  0  0  0  0  0  0  0  0  0  0
    2.6117   -2.1176   -0.0319 H   0  0  0  0  0  0  0  0  0  0  0  0
  1  2  3  0
  1 19  1  0
  2  3  1  0
  3  4  2  0
  3 16  1  0
  4  5  1  0
  4 25  1  0
  5  6  2  0
  5 17  1  0
  6  7  1  0
  6 26  1  0
  7  8  2  0
  7 27  1  0
  8  9  1  0
  8 18  1  0
  9 10  2  0
  9 28  1  0
 10 11  1  0
 10 29  1  0
 11 12  2  0
 11 30  1  0
 12 13  1  0
 12 18  1  0
 13 14  2  0
 13 31  1  0
 14 15  1  0
 14 32  1  0
 15 16  2  0
 15 17  1  0
 16 33  1  0
 17 18  2  0
 19 20  2  0
 19 24  1  0
 20 21  1  0
 20 34  1  0
 21 22  2  0
 21 35  1  0
 22 23  1  0
 22 36  1  0
 23 24  2  0
 23 37  1  0
 24 38  1  0
M  END

