
     RDKit          3D

 26 26  0  0  0  0  0  0  0  0999 V2000
    0.6063    0.0185    0.3777 C   0  0  0  0  0  0  0  0  0  0  0  0
    2.1187    0.0251    0.3109 C   0  0  0  0  0  0  0  0  0  0  0  0
    2.7681   -1.0468    1.0483 C   0  0  0  0  0  0  0  0  0  0  0  0
    4.0453   -1.1522    1.5427 C   0  0  0  0  0  0  0  0  0  0  0  0
    5.0505   -0.1313    1.4619 C   0  0  0  0  0  0  0  0  0  0  0  0
    5.8855    0.6756    1.4223 N   0  0  0  0  0  0  0  0  0  0  0  0
    4.4375   -2.3540    2.2259 C   0  0  0  0  0  0  0  0  0  0  0  0
    4.7479   -3.3269    2.7795 N   0  0  0  0  0  0  0  0  0  0  0  0
    2.8546    0.9096   -0.4292 C   0  0  0  0  0  0  0  0  0  0  0  0
    2.4150    2.0654   -1.2026 C   0  0  0  0  0  0  0  0  0  0  0  0
    1.2737    2.8368   -0.8977 C   0  0  0  0  0  0  0  0  0  0  0  0
    0.9439    3.9637   -1.6474 C   0  0  0  0  0  0  0  0  0  0  0  0
   -0.4730    4.8995   -1.2267 Cl  0  0  0  0  0  0  0  0  0  0  0  0
    1.7417    4.3591   -2.7254 C   0  0  0  0  0  0  0  0  0  0  0  0
    2.8803    3.6182   -3.0400 C   0  0  0  0  0  0  0  0  0  0  0  0
    3.2260    2.4856   -2.2940 C   0  0  0  0  0  0  0  0  0  0  0  0
    4.3207    1.7434   -2.5785 O   0  0  0  0  0  0  0  0  0  0  0  0
    0.2304   -1.0077    0.5122 H   0  0  0  0  0  0  0  0  0  0  0  0
    0.1512    0.4294   -0.5341 H   0  0  0  0  0  0  0  0  0  0  0  0
    0.2310    0.6059    1.2340 H   0  0  0  0  0  0  0  0  0  0  0  0
    2.1287   -1.9045    1.2816 H   0  0  0  0  0  0  0  0  0  0  0  0
    3.9264    0.7228   -0.5108 H   0  0  0  0  0  0  0  0  0  0  0  0
    0.6566    2.5843   -0.0383 H   0  0  0  0  0  0  0  0  0  0  0  0
    1.4761    5.2427   -3.3077 H   0  0  0  0  0  0  0  0  0  0  0  0
    3.5104    3.9230   -3.8809 H   0  0  0  0  0  0  0  0  0  0  0  0
    4.8374    2.1633   -3.2791 H   0  0  0  0  0  0  0  0  0  0  0  0
  1  2  1  0
  1 18  1  0
  1 19  1  0
  1 20  1  0
  2  3  1  0
  2  9  2  0
  3  4  2  0
  3 21  1  0
  4  5  1  0
  4  7  1  0
  5  6  3  0
  7  8  3  0
  9 10  1  0
  9 22  1  0
 10 11  2  0
 10 16  1  0
 11 12  1  0
 11 23  1  0
 12 13  1  0
 12 14  2  0
 14 15  1  0
 14 24  1  0
 15 16  2  0
 15 25  1  0
 16 17  1  0
 17 26  1  0
M  END

