
     RDKit          3D

 73 74  0  0  0  0  0  0  0  0999 V2000
    4.5146    3.5255   -1.4731 C   0  0  0  0  0  0  0  0  0  0  0  0
    4.4212    2.1958   -1.5559 C   0  0  0  0  0  0  0  0  0  0  0  0
    4.9709    1.3762   -2.6894 C   0  0  1  0  0  0  0  0  0  0  0  0
    4.1758    0.7177   -3.0811 H   0  0  0  0  0  0  0  0  0  0  0  0
    5.3895    2.2047   -3.7197 F   0  0  0  0  0  0  0  0  0  0  0  0
    6.1663    0.4806   -2.2993 C   0  0  2  0  0  0  0  0  0  0  0  0
    6.5197    0.0052   -3.2264 H   0  0  0  0  0  0  0  0  0  0  0  0
    5.8009   -0.6081   -1.2773 C   0  0  0  0  0  0  0  0  0  0  0  0
    4.7183   -1.4256   -1.6985 O   0  0  0  0  0  0  0  0  0  0  0  0
    5.0876   -2.6130   -2.3774 C   0  0  1  0  0  0  0  0  0  0  0  0
    5.6678   -2.3657   -3.2853 H   0  0  0  0  0  0  0  0  0  0  0  0
    5.9674   -3.3965   -1.6114 O   0  0  0  0  0  0  0  0  0  0  0  0
    5.4270   -3.8577   -0.3692 C   0  0  2  0  0  0  0  0  0  0  0  0
    6.5909   -4.4008    0.4415 C   0  0  0  0  0  0  0  0  0  0  0  0
    7.3558   -3.3088    0.8944 O   0  0  0  0  0  0  0  0  0  0  0  0
    8.5553   -3.6544    1.5402 C   0  0  0  0  0  0  0  0  0  0  0  0
    9.3406   -2.4131    1.9023 C   0  0  0  0  0  0  0  0  0  0  0  0
   10.2461   -2.4395    2.9731 C   0  0  0  0  0  0  0  0  0  0  0  0
   11.0125   -1.3141    3.2884 C   0  0  0  0  0  0  0  0  0  0  0  0
   10.8762   -0.1403    2.5408 C   0  0  0  0  0  0  0  0  0  0  0  0
    9.9697   -0.1027    1.4766 C   0  0  0  0  0  0  0  0  0  0  0  0
    9.2096   -1.2321    1.1585 C   0  0  0  0  0  0  0  0  0  0  0  0
    4.2602   -4.8263   -0.6262 C   0  0  2  0  0  0  0  0  0  0  0  0
    3.7802   -5.0156    0.3520 H   0  0  0  0  0  0  0  0  0  0  0  0
    4.7233   -6.1825   -1.1802 C   0  0  0  0  0  0  0  0  0  0  0  0
    3.2089   -4.0505   -1.4748 C   0  0  2  0  0  0  0  0  0  0  0  0
    2.9087   -3.2046   -0.8320 H   0  0  0  0  0  0  0  0  0  0  0  0
    1.9346   -4.8516   -1.7552 C   0  0  0  0  0  0  0  0  0  0  0  0
    3.8026   -3.3753   -2.7450 C   0  0  2  0  0  0  0  0  0  0  0  0
    4.0590   -4.2901   -3.9514 C   0  0  0  0  0  0  0  0  0  0  0  0
    7.2796    1.2640   -1.8081 N   0  0  0  0  0  0  0  0  0  0  0  0
    8.4575    1.3709   -2.5014 C   0  0  0  0  0  0  0  0  0  0  0  0
    8.7347    0.7285   -3.4927 O   0  0  0  0  0  0  0  0  0  0  0  0
    9.2554    2.2748   -1.8897 O   0  0  0  0  0  0  0  0  0  0  0  0
   10.5775    2.6201   -2.4209 C   0  0  1  0  0  0  0  0  0  0  0  0
   10.4353    3.2253   -3.8216 C   0  0  0  0  0  0  0  0  0  0  0  0
   11.0802    3.6701   -1.4279 C   0  0  0  0  0  0  0  0  0  0  0  0
   11.4879    1.3875   -2.4152 C   0  0  0  0  0  0  0  0  0  0  0  0
    4.0931    4.0728   -0.6258 H   0  0  0  0  0  0  0  0  0  0  0  0
    4.9985    4.1043   -2.2638 H   0  0  0  0  0  0  0  0  0  0  0  0
    3.9137    1.6257   -0.7698 H   0  0  0  0  0  0  0  0  0  0  0  0
    5.5026   -0.1462   -0.3215 H   0  0  0  0  0  0  0  0  0  0  0  0
    6.6910   -1.2224   -1.0762 H   0  0  0  0  0  0  0  0  0  0  0  0
    5.0340   -2.9923    0.1926 H   0  0  0  0  0  0  0  0  0  0  0  0
    7.2054   -5.0784   -0.1833 H   0  0  0  0  0  0  0  0  0  0  0  0
    6.2037   -4.9911    1.2987 H   0  0  0  0  0  0  0  0  0  0  0  0
    9.1702   -4.3028    0.8776 H   0  0  0  0  0  0  0  0  0  0  0  0
    8.3543   -4.2503    2.4557 H   0  0  0  0  0  0  0  0  0  0  0  0
   10.3514   -3.3501    3.5713 H   0  0  0  0  0  0  0  0  0  0  0  0
   11.7131   -1.3521    4.1268 H   0  0  0  0  0  0  0  0  0  0  0  0
   11.4710    0.7423    2.7901 H   0  0  0  0  0  0  0  0  0  0  0  0
    9.8482    0.8081    0.8840 H   0  0  0  0  0  0  0  0  0  0  0  0
    8.5007   -1.1970    0.3313 H   0  0  0  0  0  0  0  0  0  0  0  0
    5.2720   -6.7500   -0.4117 H   0  0  0  0  0  0  0  0  0  0  0  0
    5.3930   -6.0674   -2.0441 H   0  0  0  0  0  0  0  0  0  0  0  0
    3.8731   -6.8078   -1.4908 H   0  0  0  0  0  0  0  0  0  0  0  0
    1.4829   -5.2057   -0.8140 H   0  0  0  0  0  0  0  0  0  0  0  0
    2.1125   -5.7354   -2.3866 H   0  0  0  0  0  0  0  0  0  0  0  0
    1.1854   -4.2271   -2.2688 H   0  0  0  0  0  0  0  0  0  0  0  0
    3.0746   -2.6092   -3.0618 H   0  0  0  0  0  0  0  0  0  0  0  0
    4.8840   -4.9946   -3.7740 H   0  0  0  0  0  0  0  0  0  0  0  0
    4.3285   -3.6872   -4.8337 H   0  0  0  0  0  0  0  0  0  0  0  0
    3.1658   -4.8737   -4.2177 H   0  0  0  0  0  0  0  0  0  0  0  0
    7.1140    1.9458   -1.0750 H   0  0  0  0  0  0  0  0  0  0  0  0
    9.7466    4.0846   -3.8001 H   0  0  0  0  0  0  0  0  0  0  0  0
   10.0530    2.4839   -4.5345 H   0  0  0  0  0  0  0  0  0  0  0  0
   11.4160    3.5822   -4.1735 H   0  0  0  0  0  0  0  0  0  0  0  0
   10.3941    4.5299   -1.3927 H   0  0  0  0  0  0  0  0  0  0  0  0
   12.0765    4.0302   -1.7263 H   0  0  0  0  0  0  0  0  0  0  0  0
   11.1537    3.2452   -0.4152 H   0  0  0  0  0  0  0  0  0  0  0  0
   11.1231    0.6255   -3.1153 H   0  0  0  0  0  0  0  0  0  0  0  0
   11.5347    0.9473   -1.4068 H   0  0  0  0  0  0  0  0  0  0  0  0
   12.5087    1.6794   -2.7079 H   0  0  0  0  0  0  0  0  0  0  0  0
  1  2  2  0
  1 39  1  0
  1 40  1  0
  2  3  1  0
  2 41  1  0
  3  4  1  6
  3  5  1  0
  3  6  1  0
  6  7  1  6
  6  8  1  0
  6 31  1  0
  8  9  1  0
  8 42  1  0
  8 43  1  0
  9 10  1  0
 10 11  1  6
 10 12  1  0
 10 29  1  0
 12 13  1  0
 13 14  1  0
 13 23  1  0
 13 44  1  1
 14 15  1  0
 14 45  1  0
 14 46  1  0
 15 16  1  0
 16 17  1  0
 16 47  1  0
 16 48  1  0
 17 18  2  0
 17 22  1  0
 18 19  1  0
 18 49  1  0
 19 20  2  0
 19 50  1  0
 20 21  1  0
 20 51  1  0
 21 22  2  0
 21 52  1  0
 22 53  1  0
 23 24  1  1
 23 25  1  0
 23 26  1  0
 25 54  1  0
 25 55  1  0
 25 56  1  0
 26 27  1  1
 26 28  1  0
 26 29  1  0
 28 57  1  0
 28 58  1  0
 28 59  1  0
 29 30  1  0
 29 60  1  6
 30 61  1  0
 30 62  1  0
 30 63  1  0
 31 32  1  0
 31 64  1  0
 32 33  2  0
 32 34  1  0
 35 34  1  1
 35 36  1  0
 35 37  1  0
 35 38  1  0
 36 65  1  0
 36 66  1  0
 36 67  1  0
 37 68  1  0
 37 69  1  0
 37 70  1  0
 38 71  1  0
 38 72  1  0
 38 73  1  0
M  END

