
     RDKit          3D

 34 36  0  0  0  0  0  0  0  0999 V2000
    1.2871    0.1950    0.6905 C   0  0  0  0  0  0  0  0  0  0  0  0
    2.6183    0.1674    0.2346 O   0  0  0  0  0  0  0  0  0  0  0  0
    3.2144    1.3198   -0.1784 C   0  0  0  0  0  0  0  0  0  0  0  0
    2.5654    2.5781   -0.1713 C   0  0  0  0  0  0  0  0  0  0  0  0
    3.2220    3.7296   -0.6162 C   0  0  0  0  0  0  0  0  0  0  0  0
    4.5299    3.5820   -1.0570 C   0  0  0  0  0  0  0  0  0  0  0  0
    5.3488    4.5674   -1.5463 O   0  0  0  0  0  0  0  0  0  0  0  0
    6.5309    3.9771   -1.8450 C   0  0  0  0  0  0  0  0  0  0  0  0
    6.5326    2.6341   -1.5680 C   0  0  0  0  0  0  0  0  0  0  0  0
    7.5593    1.6077   -1.8983 C   0  0  0  0  0  0  0  0  0  0  0  0
    7.2108    0.4954   -2.2664 O   0  0  0  0  0  0  0  0  0  0  0  0
    8.9014    1.9407   -1.7935 N   0  0  0  0  0  0  0  0  0  0  0  0
    9.8862    1.1740   -2.5571 C   0  0  0  0  0  0  0  0  0  0  0  0
   10.4260    2.0679   -3.6866 C   0  0  0  0  0  0  0  0  0  0  0  0
   10.8566    3.4361   -3.1427 C   0  0  0  0  0  0  0  0  0  0  0  0
    9.8395    4.0381   -2.3491 O   0  0  0  0  0  0  0  0  0  0  0  0
    9.4435    3.1819   -1.2999 C   0  0  0  0  0  0  0  0  0  0  0  0
    5.2010    2.3436   -1.0636 C   0  0  0  0  0  0  0  0  0  0  0  0
    4.5358    1.1930   -0.6278 C   0  0  0  0  0  0  0  0  0  0  0  0
    1.0278   -0.8378    0.9610 H   0  0  0  0  0  0  0  0  0  0  0  0
    0.5872    0.5430   -0.0915 H   0  0  0  0  0  0  0  0  0  0  0  0
    1.1668    0.8362    1.5834 H   0  0  0  0  0  0  0  0  0  0  0  0
    1.5372    2.6656    0.1787 H   0  0  0  0  0  0  0  0  0  0  0  0
    2.7263    4.7019   -0.6195 H   0  0  0  0  0  0  0  0  0  0  0  0
    7.2877    4.6221   -2.2875 H   0  0  0  0  0  0  0  0  0  0  0  0
    9.3983    0.2690   -2.9385 H   0  0  0  0  0  0  0  0  0  0  0  0
   10.7055    0.8625   -1.8829 H   0  0  0  0  0  0  0  0  0  0  0  0
    9.6318    2.2091   -4.4388 H   0  0  0  0  0  0  0  0  0  0  0  0
   11.2787    1.5843   -4.1923 H   0  0  0  0  0  0  0  0  0  0  0  0
   11.0803    4.1404   -3.9575 H   0  0  0  0  0  0  0  0  0  0  0  0
   11.7773    3.3248   -2.5316 H   0  0  0  0  0  0  0  0  0  0  0  0
    8.7107    3.7125   -0.6846 H   0  0  0  0  0  0  0  0  0  0  0  0
   10.3257    2.9414   -0.6711 H   0  0  0  0  0  0  0  0  0  0  0  0
    5.0135    0.2138   -0.6473 H   0  0  0  0  0  0  0  0  0  0  0  0
  1  2  1  0
  1 20  1  0
  1 21  1  0
  1 22  1  0
  2  3  1  0
  3  4  2  0
  3 19  1  0
  4  5  1  0
  4 23  1  0
  5  6  2  0
  5 24  1  0
  6  7  1  0
  6 18  1  0
  7  8  1  0
  8  9  2  0
  8 25  1  0
  9 10  1  0
  9 18  1  0
 10 11  2  0
 10 12  1  0
 12 13  1  0
 12 17  1  0
 13 14  1  0
 13 26  1  0
 13 27  1  0
 14 15  1  0
 14 28  1  0
 14 29  1  0
 15 16  1  0
 15 30  1  0
 15 31  1  0
 16 17  1  0
 17 32  1  0
 17 33  1  0
 18 19  2  0
 19 34  1  0
M  END

