
     RDKit          3D

 36 38  0  0  0  0  0  0  0  0999 V2000
    1.2828    0.2602   -0.2060 C   0  0  0  0  0  0  0  0  0  0  0  0
    2.7986    0.2718    0.0370 C   0  0  1  0  0  0  0  0  0  0  0  0
    3.0605    1.1477    1.2891 C   0  0  0  0  0  0  0  0  0  0  0  0
    3.1444    2.3501    1.2096 O   0  0  0  0  0  0  0  0  0  0  0  0
    3.1030    0.3916    2.4486 N   0  0  0  0  0  0  0  0  0  0  0  0
    3.2352    0.7671    3.7785 C   0  0  0  0  0  0  0  0  0  0  0  0
    3.2869   -0.2717    4.6316 N   0  0  0  0  0  0  0  0  0  0  0  0
    3.4117    0.0260    5.9215 C   0  0  0  0  0  0  0  0  0  0  0  0
    3.4869    1.3436    6.3822 C   0  0  0  0  0  0  0  0  0  0  0  0
    3.4196    2.3351    5.4012 C   0  0  0  0  0  0  0  0  0  0  0  0
    3.2934    2.0596    4.1045 N   0  0  0  0  0  0  0  0  0  0  0  0
    3.3612   -1.0632    0.1888 N   0  0  0  0  0  0  0  0  0  0  0  0
    2.8522   -2.1447   -0.6677 C   0  0  0  0  0  0  0  0  0  0  0  0
    3.9524   -3.1743   -0.6054 C   0  0  0  0  0  0  0  0  0  0  0  0
    3.9414   -4.5182   -0.9732 C   0  0  0  0  0  0  0  0  0  0  0  0
    5.1244   -5.2572   -0.8459 C   0  0  0  0  0  0  0  0  0  0  0  0
    6.2956   -4.6619   -0.3651 C   0  0  0  0  0  0  0  0  0  0  0  0
    6.2871   -3.3092   -0.0030 C   0  0  0  0  0  0  0  0  0  0  0  0
    7.8849   -2.4903    0.6453 Br  0  0  0  0  0  0  0  0  0  0  0  0
    5.1155   -2.5646   -0.1171 C   0  0  0  0  0  0  0  0  0  0  0  0
    4.8329   -1.1187    0.1820 C   0  0  0  0  0  0  0  0  0  0  0  0
    0.9155    1.2960   -0.2285 H   0  0  0  0  0  0  0  0  0  0  0  0
    0.7562   -0.2780    0.5979 H   0  0  0  0  0  0  0  0  0  0  0  0
    1.0283   -0.2092   -1.1674 H   0  0  0  0  0  0  0  0  0  0  0  0
    3.2801    0.8277   -0.7955 H   0  0  0  0  0  0  0  0  0  0  0  0
    3.0626   -0.6157    2.2893 H   0  0  0  0  0  0  0  0  0  0  0  0
    3.4540   -0.8198    6.6185 H   0  0  0  0  0  0  0  0  0  0  0  0
    3.5904    1.5817    7.4418 H   0  0  0  0  0  0  0  0  0  0  0  0
    3.4683    3.3975    5.6701 H   0  0  0  0  0  0  0  0  0  0  0  0
    2.7029   -1.8238   -1.7240 H   0  0  0  0  0  0  0  0  0  0  0  0
    1.8829   -2.5267   -0.3081 H   0  0  0  0  0  0  0  0  0  0  0  0
    3.0315   -4.9916   -1.3507 H   0  0  0  0  0  0  0  0  0  0  0  0
    5.1397   -6.3144   -1.1219 H   0  0  0  0  0  0  0  0  0  0  0  0
    7.2135   -5.2438   -0.2675 H   0  0  0  0  0  0  0  0  0  0  0  0
    5.2756   -0.4653   -0.6047 H   0  0  0  0  0  0  0  0  0  0  0  0
    5.2589   -0.7845    1.1426 H   0  0  0  0  0  0  0  0  0  0  0  0
  1  2  1  0
  1 22  1  0
  1 23  1  0
  1 24  1  0
  2  3  1  0
  2 12  1  0
  2 25  1  6
  3  4  2  0
  3  5  1  0
  5  6  1  0
  5 26  1  0
  6  7  2  0
  6 11  1  0
  7  8  1  0
  8  9  2  0
  8 27  1  0
  9 10  1  0
  9 28  1  0
 10 11  2  0
 10 29  1  0
 12 13  1  0
 12 21  1  0
 13 14  1  0
 13 30  1  0
 13 31  1  0
 14 15  1  0
 14 20  2  0
 15 16  2  0
 15 32  1  0
 16 17  1  0
 16 33  1  0
 17 18  2  0
 17 34  1  0
 18 19  1  0
 18 20  1  0
 20 21  1  0
 21 35  1  0
 21 36  1  0
M  END

