
     RDKit          3D

 47 49  0  0  0  0  0  0  0  0999 V2000
    1.8917    0.4790    0.7529 C   0  0  0  0  0  0  0  0  0  0  0  0
    3.3689    0.8185    0.6464 C   0  0  0  0  0  0  0  0  0  0  0  0
    3.9207    0.4135   -0.6207 O   0  0  0  0  0  0  0  0  0  0  0  0
    4.3676   -0.8522   -0.7361 C   0  0  0  0  0  0  0  0  0  0  0  0
    4.3253   -1.6549    0.1672 O   0  0  0  0  0  0  0  0  0  0  0  0
    4.9529   -1.1087   -2.1232 C   0  0  1  0  0  0  0  0  0  0  0  0
    5.4740   -2.5505   -2.2567 C   0  0  0  0  0  0  0  0  0  0  0  0
    4.3206   -3.5554   -2.4304 C   0  0  0  0  0  0  0  0  0  0  0  0
    3.4024   -3.2224   -3.5201 N   0  0  0  0  0  0  0  0  0  0  0  0
    3.8796   -3.5413   -4.8480 C   0  0  0  0  0  0  0  0  0  0  0  0
    2.7666   -3.7533   -5.7689 N   0  0  0  0  0  0  0  0  0  0  0  0
    1.7687   -4.6972   -5.5807 C   0  0  0  0  0  0  0  0  0  0  0  0
    0.9342   -4.6229   -6.6433 C   0  0  0  0  0  0  0  0  0  0  0  0
    1.4157   -3.6163   -7.4878 N   0  0  0  0  0  0  0  0  0  0  0  0
    0.8076   -3.2849   -8.7314 C   0  0  0  0  0  0  0  0  0  0  0  0
    0.3718   -4.3180   -9.5736 C   0  0  0  0  0  0  0  0  0  0  0  0
   -0.2663   -4.0090  -10.7766 C   0  0  0  0  0  0  0  0  0  0  0  0
   -0.4645   -2.6809  -11.1582 C   0  0  0  0  0  0  0  0  0  0  0  0
   -0.0170   -1.6631  -10.3100 C   0  0  0  0  0  0  0  0  0  0  0  0
   -0.2642    0.0059  -10.7692 Cl  0  0  0  0  0  0  0  0  0  0  0  0
    0.6142   -1.9462   -9.0979 C   0  0  0  0  0  0  0  0  0  0  0  0
    2.5693   -3.0563   -6.9445 C   0  0  0  0  0  0  0  0  0  0  0  0
    3.5299   -1.8313   -7.5641 S   0  0  0  0  0  0  0  0  0  0  0  0
    2.8642   -1.8660   -3.3758 C   0  0  0  0  0  0  0  0  0  0  0  0
    3.9488   -0.7841   -3.2547 C   0  0  0  0  0  0  0  0  0  0  0  0
    1.4854    0.8682    1.7003 H   0  0  0  0  0  0  0  0  0  0  0  0
    1.7394   -0.6104    0.7392 H   0  0  0  0  0  0  0  0  0  0  0  0
    1.3218    0.9290   -0.0751 H   0  0  0  0  0  0  0  0  0  0  0  0
    3.9414    0.3380    1.4535 H   0  0  0  0  0  0  0  0  0  0  0  0
    3.5324    1.9052    0.6867 H   0  0  0  0  0  0  0  0  0  0  0  0
    5.7961   -0.4001   -2.2057 H   0  0  0  0  0  0  0  0  0  0  0  0
    6.0700   -2.8227   -1.3723 H   0  0  0  0  0  0  0  0  0  0  0  0
    6.1460   -2.5985   -3.1308 H   0  0  0  0  0  0  0  0  0  0  0  0
    3.7400   -3.5910   -1.4941 H   0  0  0  0  0  0  0  0  0  0  0  0
    4.7191   -4.5697   -2.5973 H   0  0  0  0  0  0  0  0  0  0  0  0
    4.4679   -4.4718   -4.7876 H   0  0  0  0  0  0  0  0  0  0  0  0
    4.5051   -2.7728   -5.3373 H   0  0  0  0  0  0  0  0  0  0  0  0
    1.7269   -5.3047   -4.6819 H   0  0  0  0  0  0  0  0  0  0  0  0
    0.0161   -5.1585   -6.8622 H   0  0  0  0  0  0  0  0  0  0  0  0
    0.5485   -5.3585   -9.2959 H   0  0  0  0  0  0  0  0  0  0  0  0
   -0.6026   -4.8153  -11.4327 H   0  0  0  0  0  0  0  0  0  0  0  0
   -0.9542   -2.4296  -12.1000 H   0  0  0  0  0  0  0  0  0  0  0  0
    0.9634   -1.1422   -8.4535 H   0  0  0  0  0  0  0  0  0  0  0  0
    2.2200   -1.8548   -2.4778 H   0  0  0  0  0  0  0  0  0  0  0  0
    2.2097   -1.6478   -4.2335 H   0  0  0  0  0  0  0  0  0  0  0  0
    3.4870    0.1994   -3.0822 H   0  0  0  0  0  0  0  0  0  0  0  0
    4.4979   -0.7097   -4.2078 H   0  0  0  0  0  0  0  0  0  0  0  0
  1  2  1  0
  1 26  1  0
  1 27  1  0
  1 28  1  0
  2  3  1  0
  2 29  1  0
  2 30  1  0
  3  4  1  0
  4  5  2  0
  4  6  1  0
  6  7  1  0
  6 25  1  0
  6 31  1  6
  7  8  1  0
  7 32  1  0
  7 33  1  0
  8  9  1  0
  8 34  1  0
  8 35  1  0
  9 10  1  0
  9 24  1  0
 10 11  1  0
 10 36  1  0
 10 37  1  0
 11 12  1  0
 11 22  1  0
 12 13  2  0
 12 38  1  0
 13 14  1  0
 13 39  1  0
 14 15  1  0
 14 22  1  0
 15 16  2  0
 15 21  1  0
 16 17  1  0
 16 40  1  0
 17 18  2  0
 17 41  1  0
 18 19  1  0
 18 42  1  0
 19 20  1  0
 19 21  2  0
 21 43  1  0
 22 23  2  0
 24 25  1  0
 24 44  1  0
 24 45  1  0
 25 46  1  0
 25 47  1  0
M  END

