
     RDKit          3D

 66 66  0  0  0  0  0  0  0  0999 V2000
    0.7663    1.5027   -1.9779 C   0  0  0  0  0  0  0  0  0  0  0  0
    1.8226    2.6011   -2.1065 C   0  0  0  0  0  0  0  0  0  0  0  0
    3.2387    2.0662   -2.3419 C   0  0  0  0  0  0  0  0  0  0  0  0
    4.3019    3.1604   -2.4721 C   0  0  0  0  0  0  0  0  0  0  0  0
    5.7177    2.6255   -2.7086 C   0  0  0  0  0  0  0  0  0  0  0  0
    6.7758    3.7232   -2.8551 C   0  0  0  0  0  0  0  0  0  0  0  0
    8.2038    3.1976   -3.0529 C   0  0  1  0  0  0  0  0  0  0  0  0
    8.4859    2.6127   -2.1513 H   0  0  0  0  0  0  0  0  0  0  0  0
    8.3064    2.3818   -4.2132 O   0  0  0  0  0  0  0  0  0  0  0  0
    9.2492    4.3106   -3.2368 C   0  0  0  0  0  0  0  0  0  0  0  0
    9.3723    5.2631   -2.0783 C   0  0  0  0  0  0  0  0  0  0  0  0
   10.3645    5.3278   -1.1752 C   0  0  0  0  0  0  0  0  0  0  0  0
   11.6044    4.4757   -1.1068 C   0  0  0  0  0  0  0  0  0  0  0  0
   12.9187    5.2333   -1.3910 C   0  0  0  0  0  0  0  0  0  0  0  0
   13.2624    6.3385   -0.3871 C   0  0  0  0  0  0  0  0  0  0  0  0
   14.6087    7.0157   -0.6617 C   0  0  0  0  0  0  0  0  0  0  0  0
   14.9601    8.1254    0.3338 C   0  0  0  0  0  0  0  0  0  0  0  0
   16.3080    8.7950    0.0544 C   0  0  0  0  0  0  0  0  0  0  0  0
   16.6501    9.9029    1.0483 C   0  0  0  0  0  0  0  0  0  0  0  0
   17.9918   10.5732    0.7551 C   0  0  0  0  0  0  0  0  0  0  0  0
   18.6749   10.2733   -0.2144 O   0  0  0  0  0  0  0  0  0  0  0  0
   18.3967   11.5353    1.6394 N   0  0  0  0  0  0  0  0  0  0  0  0
   19.6905   12.2052    1.4667 C   0  0  0  0  0  0  0  0  0  0  0  0
   19.9223   12.8887    2.8195 C   0  0  0  0  0  0  0  0  0  0  0  0
   18.4982   13.1998    3.3035 C   0  0  0  0  0  0  0  0  0  0  0  0
   17.6945   11.9727    2.8477 C   0  0  0  0  0  0  0  0  0  0  0  0
   -0.2381    1.9234   -1.8099 H   0  0  0  0  0  0  0  0  0  0  0  0
    0.9894    0.8282   -1.1340 H   0  0  0  0  0  0  0  0  0  0  0  0
    0.7188    0.8832   -2.8893 H   0  0  0  0  0  0  0  0  0  0  0  0
    1.8183    3.2258   -1.1946 H   0  0  0  0  0  0  0  0  0  0  0  0
    1.5497    3.2804   -2.9346 H   0  0  0  0  0  0  0  0  0  0  0  0
    3.2446    1.4414   -3.2548 H   0  0  0  0  0  0  0  0  0  0  0  0
    3.5132    1.3863   -1.5135 H   0  0  0  0  0  0  0  0  0  0  0  0
    4.2977    3.7853   -1.5597 H   0  0  0  0  0  0  0  0  0  0  0  0
    4.0283    3.8396   -3.3006 H   0  0  0  0  0  0  0  0  0  0  0  0
    5.7105    1.9994   -3.6201 H   0  0  0  0  0  0  0  0  0  0  0  0
    5.9967    1.9542   -1.8740 H   0  0  0  0  0  0  0  0  0  0  0  0
    6.7556    4.3641   -1.9567 H   0  0  0  0  0  0  0  0  0  0  0  0
    6.5202    4.3698   -3.7143 H   0  0  0  0  0  0  0  0  0  0  0  0
    7.7754    1.5877   -4.0770 H   0  0  0  0  0  0  0  0  0  0  0  0
    8.9737    4.8683   -4.1499 H   0  0  0  0  0  0  0  0  0  0  0  0
   10.2067    3.8152   -3.4546 H   0  0  0  0  0  0  0  0  0  0  0  0
    8.5508    5.9809   -1.9645 H   0  0  0  0  0  0  0  0  0  0  0  0
   10.2763    6.0963   -0.3975 H   0  0  0  0  0  0  0  0  0  0  0  0
   11.5262    3.6292   -1.8062 H   0  0  0  0  0  0  0  0  0  0  0  0
   11.6711    4.0314   -0.0954 H   0  0  0  0  0  0  0  0  0  0  0  0
   12.8725    5.6633   -2.4077 H   0  0  0  0  0  0  0  0  0  0  0  0
   13.7440    4.4988   -1.4080 H   0  0  0  0  0  0  0  0  0  0  0  0
   13.2695    5.9135    0.6346 H   0  0  0  0  0  0  0  0  0  0  0  0
   12.4685    7.1066   -0.3885 H   0  0  0  0  0  0  0  0  0  0  0  0
   14.6049    7.4341   -1.6851 H   0  0  0  0  0  0  0  0  0  0  0  0
   15.4104    6.2541   -0.6548 H   0  0  0  0  0  0  0  0  0  0  0  0
   14.9596    7.7080    1.3586 H   0  0  0  0  0  0  0  0  0  0  0  0
   14.1593    8.8890    0.3241 H   0  0  0  0  0  0  0  0  0  0  0  0
   16.3202    9.2141   -0.9653 H   0  0  0  0  0  0  0  0  0  0  0  0
   17.1141    8.0422    0.0652 H   0  0  0  0  0  0  0  0  0  0  0  0
   16.6632    9.5071    2.0805 H   0  0  0  0  0  0  0  0  0  0  0  0
   15.8609   10.6775    1.0463 H   0  0  0  0  0  0  0  0  0  0  0  0
   19.6403   12.9373    0.6395 H   0  0  0  0  0  0  0  0  0  0  0  0
   20.4656   11.4736    1.1948 H   0  0  0  0  0  0  0  0  0  0  0  0
   20.5592   13.7821    2.7403 H   0  0  0  0  0  0  0  0  0  0  0  0
   20.4145   12.1901    3.5170 H   0  0  0  0  0  0  0  0  0  0  0  0
   18.1174   14.1039    2.7994 H   0  0  0  0  0  0  0  0  0  0  0  0
   18.4273   13.3698    4.3882 H   0  0  0  0  0  0  0  0  0  0  0  0
   16.6398   12.2175    2.6430 H   0  0  0  0  0  0  0  0  0  0  0  0
   17.7006   11.1832    3.6240 H   0  0  0  0  0  0  0  0  0  0  0  0
  1  2  1  0
  1 27  1  0
  1 28  1  0
  1 29  1  0
  2  3  1  0
  2 30  1  0
  2 31  1  0
  3  4  1  0
  3 32  1  0
  3 33  1  0
  4  5  1  0
  4 34  1  0
  4 35  1  0
  5  6  1  0
  5 36  1  0
  5 37  1  0
  6  7  1  0
  6 38  1  0
  6 39  1  0
  7  8  1  1
  7  9  1  0
  7 10  1  0
  9 40  1  0
 10 11  1  0
 10 41  1  0
 10 42  1  0
 11 12  2  0
 11 43  1  0
 12 13  1  0
 12 44  1  0
 13 14  1  0
 13 45  1  0
 13 46  1  0
 14 15  1  0
 14 47  1  0
 14 48  1  0
 15 16  1  0
 15 49  1  0
 15 50  1  0
 16 17  1  0
 16 51  1  0
 16 52  1  0
 17 18  1  0
 17 53  1  0
 17 54  1  0
 18 19  1  0
 18 55  1  0
 18 56  1  0
 19 20  1  0
 19 57  1  0
 19 58  1  0
 20 21  2  0
 20 22  1  0
 22 23  1  0
 22 26  1  0
 23 24  1  0
 23 59  1  0
 23 60  1  0
 24 25  1  0
 24 61  1  0
 24 62  1  0
 25 26  1  0
 25 63  1  0
 25 64  1  0
 26 65  1  0
 26 66  1  0
M  END

