
     RDKit          3D

 25 25  0  0  0  0  0  0  0  0999 V2000
    0.9688   -0.3334   -0.4931 C   0  0  0  0  0  0  0  0  0  0  0  0
    2.4494   -0.1871   -0.2584 C   0  0  0  0  0  0  0  0  0  0  0  0
    3.1300    0.9972   -0.5743 C   0  0  0  0  0  0  0  0  0  0  0  0
    4.5030    1.1849   -0.3749 C   0  0  0  0  0  0  0  0  0  0  0  0
    5.2001    2.5037   -0.6945 C   0  0  1  0  0  0  0  0  0  0  0  0
    4.5260    3.4136   -1.6162 N   0  0  0  0  0  0  0  0  0  0  0  0
    5.5198    3.3303    0.5711 C   0  0  0  0  0  0  0  0  0  0  0  0
    6.2489    4.4780    0.2401 O   0  0  0  0  0  0  0  0  0  0  0  0
    5.2384    0.1108    0.1705 C   0  0  0  0  0  0  0  0  0  0  0  0
    6.5768    0.1697    0.4087 O   0  0  0  0  0  0  0  0  0  0  0  0
    4.5979   -1.0903    0.4941 C   0  0  0  0  0  0  0  0  0  0  0  0
    3.2274   -1.2246    0.2842 C   0  0  0  0  0  0  0  0  0  0  0  0
    2.4679   -2.7470    0.7098 Cl  0  0  0  0  0  0  0  0  0  0  0  0
    0.5470    0.5842   -0.9284 H   0  0  0  0  0  0  0  0  0  0  0  0
    0.4319   -0.5473    0.4457 H   0  0  0  0  0  0  0  0  0  0  0  0
    0.7497   -1.1713   -1.1751 H   0  0  0  0  0  0  0  0  0  0  0  0
    2.5495    1.8127   -1.0130 H   0  0  0  0  0  0  0  0  0  0  0  0
    6.1767    2.2768   -1.1672 H   0  0  0  0  0  0  0  0  0  0  0  0
    3.5851    3.6388   -1.2909 H   0  0  0  0  0  0  0  0  0  0  0  0
    4.4366    3.0147   -2.5496 H   0  0  0  0  0  0  0  0  0  0  0  0
    6.1106    2.7340    1.2861 H   0  0  0  0  0  0  0  0  0  0  0  0
    4.5570    3.5650    1.0775 H   0  0  0  0  0  0  0  0  0  0  0  0
    5.8461    4.7938   -0.5879 H   0  0  0  0  0  0  0  0  0  0  0  0
    6.9432    1.0046    0.0922 H   0  0  0  0  0  0  0  0  0  0  0  0
    5.1845   -1.9100    0.9095 H   0  0  0  0  0  0  0  0  0  0  0  0
  1  2  1  0
  1 14  1  0
  1 15  1  0
  1 16  1  0
  2  3  2  0
  2 12  1  0
  3  4  1  0
  3 17  1  0
  4  5  1  0
  4  9  2  0
  5  6  1  0
  5  7  1  0
  5 18  1  6
  6 19  1  0
  6 20  1  0
  7  8  1  0
  7 21  1  0
  7 22  1  0
  8 23  1  0
  9 10  1  0
  9 11  1  0
 10 24  1  0
 11 12  2  0
 11 25  1  0
 12 13  1  0
M  END

