
     RDKit          3D

 41 43  0  0  0  0  0  0  0  0999 V2000
   -1.7088    1.5774    7.4515 O   0  0  0  0  0  0  0  0  0  0  0  0
   -1.1369    1.6369    6.1662 C   0  0  0  0  0  0  0  0  0  0  0  0
    0.2998    1.2435    6.2761 C   0  0  0  0  0  0  0  0  0  0  0  0
    1.0575    0.7602    7.3027 C   0  0  0  0  0  0  0  0  0  0  0  0
    2.3763    0.5629    6.7653 C   0  0  0  0  0  0  0  0  0  0  0  0
    2.3202    0.9372    5.4525 C   0  0  0  0  0  0  0  0  0  0  0  0
    3.3379    1.0225    4.3549 C   0  0  0  0  0  0  0  0  0  0  0  0
    4.4078    0.0523    4.5281 N   0  0  0  0  0  0  0  0  0  0  0  0
    4.0476   -1.3355    4.2391 C   0  0  0  0  0  0  0  0  0  0  0  0
    3.9897   -1.6459    2.7303 C   0  0  0  0  0  0  0  0  0  0  0  0
    5.2672   -1.2241    1.9735 C   0  0  2  0  0  0  0  0  0  0  0  0
    6.3484   -2.2144    2.1009 N   0  0  0  0  0  0  0  0  0  0  0  0
    6.9076   -2.9323    1.0863 C   0  0  0  0  0  0  0  0  0  0  0  0
    7.8818   -3.7406    1.6477 C   0  0  0  0  0  0  0  0  0  0  0  0
    7.8247   -3.4257    3.0227 C   0  0  0  0  0  0  0  0  0  0  0  0
    8.6533   -3.9972    4.1344 C   0  0  1  0  0  0  0  0  0  0  0  0
    9.5398   -4.8849    3.6464 F   0  0  0  0  0  0  0  0  0  0  0  0
    9.3463   -3.0501    4.7876 F   0  0  0  0  0  0  0  0  0  0  0  0
    7.9034   -4.6362    5.0479 F   0  0  0  0  0  0  0  0  0  0  0  0
    6.8981   -2.5065    3.2825 N   0  0  0  0  0  0  0  0  0  0  0  0
    5.7157    0.1923    2.3911 C   0  0  0  0  0  0  0  0  0  0  0  0
    5.6861    0.4027    3.9180 C   0  0  0  0  0  0  0  0  0  0  0  0
    1.0534    1.3523    5.1473 O   0  0  0  0  0  0  0  0  0  0  0  0
   -2.6532    1.7553    7.3723 H   0  0  0  0  0  0  0  0  0  0  0  0
   -1.1980    2.6541    5.7229 H   0  0  0  0  0  0  0  0  0  0  0  0
   -1.6486    0.9565    5.4512 H   0  0  0  0  0  0  0  0  0  0  0  0
    0.7073    0.5725    8.3141 H   0  0  0  0  0  0  0  0  0  0  0  0
    3.2600    0.1918    7.2784 H   0  0  0  0  0  0  0  0  0  0  0  0
    3.7968    2.0283    4.3602 H   0  0  0  0  0  0  0  0  0  0  0  0
    2.7922    0.9533    3.3868 H   0  0  0  0  0  0  0  0  0  0  0  0
    3.0746   -1.5570    4.7036 H   0  0  0  0  0  0  0  0  0  0  0  0
    4.7928   -1.9908    4.7153 H   0  0  0  0  0  0  0  0  0  0  0  0
    3.1469   -1.1001    2.2724 H   0  0  0  0  0  0  0  0  0  0  0  0
    3.7947   -2.7178    2.5637 H   0  0  0  0  0  0  0  0  0  0  0  0
    5.0491   -1.2187    0.8947 H   0  0  0  0  0  0  0  0  0  0  0  0
    6.5766   -2.8161    0.0566 H   0  0  0  0  0  0  0  0  0  0  0  0
    8.5359   -4.4492    1.1479 H   0  0  0  0  0  0  0  0  0  0  0  0
    5.0283    0.9083    1.9080 H   0  0  0  0  0  0  0  0  0  0  0  0
    6.7210    0.3988    1.9885 H   0  0  0  0  0  0  0  0  0  0  0  0
    5.9219    1.4533    4.1526 H   0  0  0  0  0  0  0  0  0  0  0  0
    6.4684   -0.2185    4.3804 H   0  0  0  0  0  0  0  0  0  0  0  0
  1  2  1  0
  1 24  1  0
  2  3  1  0
  2 25  1  0
  2 26  1  0
  3  4  2  0
  3 23  1  0
  4  5  1  0
  4 27  1  0
  5  6  2  0
  5 28  1  0
  6  7  1  0
  6 23  1  0
  7  8  1  0
  7 29  1  0
  7 30  1  0
  8  9  1  0
  8 22  1  0
  9 10  1  0
  9 31  1  0
  9 32  1  0
 10 11  1  0
 10 33  1  0
 10 34  1  0
 11 12  1  0
 11 21  1  0
 11 35  1  6
 12 13  1  0
 12 20  1  0
 13 14  2  0
 13 36  1  0
 14 15  1  0
 14 37  1  0
 15 16  1  0
 15 20  2  0
 16 17  1  6
 16 18  1  0
 16 19  1  0
 21 22  1  0
 21 38  1  0
 21 39  1  0
 22 40  1  0
 22 41  1  0
M  END

