
     RDKit          3D

 37 40  0  0  0  0  0  0  0  0999 V2000
    3.2673    1.3115    1.0901 F   0  0  0  0  0  0  0  0  0  0  0  0
    2.7663    0.4417    0.1937 C   0  0  1  0  0  0  0  0  0  0  0  0
    3.4677   -0.7030    0.3202 F   0  0  0  0  0  0  0  0  0  0  0  0
    1.5044    0.1668    0.5894 F   0  0  0  0  0  0  0  0  0  0  0  0
    2.8076    0.9855   -1.2150 C   0  0  0  0  0  0  0  0  0  0  0  0
    2.7622    2.3768   -1.3819 C   0  0  0  0  0  0  0  0  0  0  0  0
    2.7493    2.9319   -2.6612 C   0  0  0  0  0  0  0  0  0  0  0  0
    2.7892    2.0890   -3.7745 C   0  0  0  0  0  0  0  0  0  0  0  0
    2.8448    0.7042   -3.6001 C   0  0  0  0  0  0  0  0  0  0  0  0
    2.8491    0.1095   -2.3218 C   0  0  0  0  0  0  0  0  0  0  0  0
    2.9009   -1.4777   -2.2493 B   0  0  0  0  0  0  0  0  0  0  0  0
    4.1988   -2.2517   -2.5539 C   0  0  0  0  0  0  0  0  0  0  0  0
    5.4493   -1.6375   -2.8174 C   0  0  0  0  0  0  0  0  0  0  0  0
    6.5970   -2.3729   -3.0723 C   0  0  0  0  0  0  0  0  0  0  0  0
    6.5294   -3.7801   -3.0708 C   0  0  0  0  0  0  0  0  0  0  0  0
    5.3314   -4.4285   -2.8171 C   0  0  0  0  0  0  0  0  0  0  0  0
    4.1630   -3.6748   -2.5577 C   0  0  0  0  0  0  0  0  0  0  0  0
    2.9818   -4.3388   -2.3076 N   0  0  0  0  0  0  0  0  0  0  0  0
    1.7615   -3.7519   -2.0503 C   0  0  0  0  0  0  0  0  0  0  0  0
    0.6354   -4.5804   -1.8373 C   0  0  0  0  0  0  0  0  0  0  0  0
   -0.6029   -4.0114   -1.5870 C   0  0  0  0  0  0  0  0  0  0  0  0
   -0.7533   -2.6115   -1.5433 C   0  0  0  0  0  0  0  0  0  0  0  0
    0.3532   -1.8020   -1.7503 C   0  0  0  0  0  0  0  0  0  0  0  0
    1.6428   -2.3335   -2.0064 C   0  0  0  0  0  0  0  0  0  0  0  0
    2.7444    3.0239   -0.5031 H   0  0  0  0  0  0  0  0  0  0  0  0
    2.7142    4.0168   -2.7866 H   0  0  0  0  0  0  0  0  0  0  0  0
    2.7836    2.5107   -4.7832 H   0  0  0  0  0  0  0  0  0  0  0  0
    2.8862    0.0617   -4.4844 H   0  0  0  0  0  0  0  0  0  0  0  0
    5.4996   -0.5456   -2.8145 H   0  0  0  0  0  0  0  0  0  0  0  0
    7.5469   -1.8709   -3.2700 H   0  0  0  0  0  0  0  0  0  0  0  0
    7.4280   -4.3703   -3.2699 H   0  0  0  0  0  0  0  0  0  0  0  0
    5.2840   -5.5217   -2.8158 H   0  0  0  0  0  0  0  0  0  0  0  0
    3.0108   -5.3519   -2.3231 H   0  0  0  0  0  0  0  0  0  0  0  0
    0.7471   -5.6684   -1.8728 H   0  0  0  0  0  0  0  0  0  0  0  0
   -1.4686   -4.6591   -1.4237 H   0  0  0  0  0  0  0  0  0  0  0  0
   -1.7337   -2.1723   -1.3457 H   0  0  0  0  0  0  0  0  0  0  0  0
    0.2385   -0.7165   -1.7103 H   0  0  0  0  0  0  0  0  0  0  0  0
  2  1  1  1
  2  3  1  0
  2  4  1  0
  2  5  1  0
  5  6  2  0
  5 10  1  0
  6  7  1  0
  6 25  1  0
  7  8  2  0
  7 26  1  0
  8  9  1  0
  8 27  1  0
  9 10  2  0
  9 28  1  0
 10 11  1  0
 11 12  1  0
 11 24  1  0
 12 13  2  0
 12 17  1  0
 13 14  1  0
 13 29  1  0
 14 15  2  0
 14 30  1  0
 15 16  1  0
 15 31  1  0
 16 17  2  0
 16 32  1  0
 17 18  1  0
 18 19  1  0
 18 33  1  0
 19 20  2  0
 19 24  1  0
 20 21  1  0
 20 34  1  0
 21 22  2  0
 21 35  1  0
 22 23  1  0
 22 36  1  0
 23 24  2  0
 23 37  1  0
M  END

