
     RDKit          3D

 74 78  0  0  0  0  0  0  0  0999 V2000
    4.9435   -1.6203    0.5022 C   0  0  0  0  0  0  0  0  0  0  0  0
    5.1144   -0.2864    1.2365 C   0  0  1  0  0  0  0  0  0  0  0  0
    3.9405    0.0142    2.1743 C   0  0  0  0  0  0  0  0  0  0  0  0
    6.4415   -0.2525    1.9971 C   0  0  0  0  0  0  0  0  0  0  0  0
    5.2713    0.8001    0.2664 O   0  0  0  0  0  0  0  0  0  0  0  0
    4.3436    1.0583   -0.6655 C   0  0  0  0  0  0  0  0  0  0  0  0
    3.2341    0.5796   -0.7223 O   0  0  0  0  0  0  0  0  0  0  0  0
    4.8103    2.0220   -1.5630 N   0  0  0  0  0  0  0  0  0  0  0  0
    3.9064    2.5860   -2.5239 C   0  0  0  0  0  0  0  0  0  0  0  0
    2.7663    3.2864   -2.1260 C   0  0  0  0  0  0  0  0  0  0  0  0
    1.8990    3.8292   -3.0716 C   0  0  0  0  0  0  0  0  0  0  0  0
    2.1450    3.6968   -4.4567 C   0  0  0  0  0  0  0  0  0  0  0  0
    1.2615    4.2079   -5.4226 N   0  0  0  0  0  0  0  0  0  0  0  0
    1.8093    4.8695   -6.6057 C   0  0  0  0  0  0  0  0  0  0  0  0
    0.7621    4.9438   -7.7123 C   0  0  0  0  0  0  0  0  0  0  0  0
   -0.4191    5.5736   -7.2648 O   0  0  0  0  0  0  0  0  0  0  0  0
   -0.9724    4.8839   -6.1651 C   0  0  0  0  0  0  0  0  0  0  0  0
    0.0033    4.7996   -4.9919 C   0  0  0  0  0  0  0  0  0  0  0  0
    3.3090    2.9949   -4.8412 C   0  0  0  0  0  0  0  0  0  0  0  0
    4.1661    2.4447   -3.8922 C   0  0  0  0  0  0  0  0  0  0  0  0
    6.1790    2.3679   -1.6507 C   0  0  0  0  0  0  0  0  0  0  0  0
    7.0715    1.4336   -1.8900 N   0  0  0  0  0  0  0  0  0  0  0  0
    8.3753    1.7926   -1.9853 C   0  0  0  0  0  0  0  0  0  0  0  0
    8.8605    3.0820   -1.8776 C   0  0  0  0  0  0  0  0  0  0  0  0
   10.3748    3.4038   -2.0243 B   0  0  0  0  0  0  0  0  0  0  0  0
   11.3006    2.4410   -2.3131 O   0  0  0  0  0  0  0  0  0  0  0  0
   12.6195    3.0270   -2.1528 C   0  0  2  0  0  0  0  0  0  0  0  0
   13.5395    2.4537   -3.2268 C   0  0  0  0  0  0  0  0  0  0  0  0
   13.1186    2.6230   -0.7607 C   0  0  0  0  0  0  0  0  0  0  0  0
   12.3160    4.5777   -2.2870 C   0  0  2  0  0  0  0  0  0  0  0  0
   12.3828    5.0887   -3.7304 C   0  0  0  0  0  0  0  0  0  0  0  0
   13.1372    5.4798   -1.3707 C   0  0  0  0  0  0  0  0  0  0  0  0
   10.9204    4.6514   -1.8801 O   0  0  0  0  0  0  0  0  0  0  0  0
    7.9047    4.0629   -1.6300 N   0  0  0  0  0  0  0  0  0  0  0  0
    7.9977    5.4153   -1.4289 C   0  0  0  0  0  0  0  0  0  0  0  0
    6.6967    5.8407   -1.1835 C   0  0  0  0  0  0  0  0  0  0  0  0
    5.8142    4.8146   -1.2220 N   0  0  0  0  0  0  0  0  0  0  0  0
    6.5438    3.7398   -1.4941 C   0  0  0  0  0  0  0  0  0  0  0  0
    4.9575   -2.4481    1.2284 H   0  0  0  0  0  0  0  0  0  0  0  0
    5.7705   -1.7697   -0.2091 H   0  0  0  0  0  0  0  0  0  0  0  0
    3.9944   -1.6515   -0.0481 H   0  0  0  0  0  0  0  0  0  0  0  0
    3.8938   -0.7489    2.9673 H   0  0  0  0  0  0  0  0  0  0  0  0
    2.9900    0.0155    1.6262 H   0  0  0  0  0  0  0  0  0  0  0  0
    4.0753    0.9968    2.6530 H   0  0  0  0  0  0  0  0  0  0  0  0
    6.4555   -1.0313    2.7748 H   0  0  0  0  0  0  0  0  0  0  0  0
    6.5847    0.7263    2.4795 H   0  0  0  0  0  0  0  0  0  0  0  0
    7.2832   -0.4245    1.3098 H   0  0  0  0  0  0  0  0  0  0  0  0
    2.5636    3.4235   -1.0632 H   0  0  0  0  0  0  0  0  0  0  0  0
    1.0328    4.3852   -2.7148 H   0  0  0  0  0  0  0  0  0  0  0  0
    2.6835    4.3221   -6.9802 H   0  0  0  0  0  0  0  0  0  0  0  0
    2.1454    5.8995   -6.3560 H   0  0  0  0  0  0  0  0  0  0  0  0
    0.5377    3.9188   -8.0745 H   0  0  0  0  0  0  0  0  0  0  0  0
    1.1450    5.5354   -8.5581 H   0  0  0  0  0  0  0  0  0  0  0  0
   -1.2670    3.8570   -6.4660 H   0  0  0  0  0  0  0  0  0  0  0  0
   -1.8792    5.4296   -5.8627 H   0  0  0  0  0  0  0  0  0  0  0  0
   -0.4490    4.1719   -4.2101 H   0  0  0  0  0  0  0  0  0  0  0  0
    0.1510    5.8156   -4.5642 H   0  0  0  0  0  0  0  0  0  0  0  0
    3.5311    2.8380   -5.8976 H   0  0  0  0  0  0  0  0  0  0  0  0
    5.0426    1.8788   -4.2163 H   0  0  0  0  0  0  0  0  0  0  0  0
    9.0887    0.9867   -2.1781 H   0  0  0  0  0  0  0  0  0  0  0  0
   13.6717    1.3742   -3.0600 H   0  0  0  0  0  0  0  0  0  0  0  0
   14.5326    2.9281   -3.1871 H   0  0  0  0  0  0  0  0  0  0  0  0
   13.1250    2.5888   -4.2342 H   0  0  0  0  0  0  0  0  0  0  0  0
   13.1055    1.5257   -0.6836 H   0  0  0  0  0  0  0  0  0  0  0  0
   12.4717    3.0241    0.0334 H   0  0  0  0  0  0  0  0  0  0  0  0
   14.1470    2.9695   -0.5804 H   0  0  0  0  0  0  0  0  0  0  0  0
   13.4186    5.1291   -4.0986 H   0  0  0  0  0  0  0  0  0  0  0  0
   11.9637    6.1051   -3.7696 H   0  0  0  0  0  0  0  0  0  0  0  0
   11.7960    4.4546   -4.4112 H   0  0  0  0  0  0  0  0  0  0  0  0
   14.2116    5.3915   -1.5954 H   0  0  0  0  0  0  0  0  0  0  0  0
   12.9791    5.2386   -0.3116 H   0  0  0  0  0  0  0  0  0  0  0  0
   12.8443    6.5292   -1.5249 H   0  0  0  0  0  0  0  0  0  0  0  0
    8.9498    5.9339   -1.4693 H   0  0  0  0  0  0  0  0  0  0  0  0
    6.3763    6.8625   -0.9772 H   0  0  0  0  0  0  0  0  0  0  0  0
  1  2  1  0
  1 39  1  0
  1 40  1  0
  1 41  1  0
  2  3  1  0
  2  4  1  0
  2  5  1  6
  3 42  1  0
  3 43  1  0
  3 44  1  0
  4 45  1  0
  4 46  1  0
  4 47  1  0
  5  6  1  0
  6  7  2  0
  6  8  1  0
  8  9  1  0
  8 21  1  0
  9 10  2  0
  9 20  1  0
 10 11  1  0
 10 48  1  0
 11 12  2  0
 11 49  1  0
 12 13  1  0
 12 19  1  0
 13 14  1  0
 13 18  1  0
 14 15  1  0
 14 50  1  0
 14 51  1  0
 15 16  1  0
 15 52  1  0
 15 53  1  0
 16 17  1  0
 17 18  1  0
 17 54  1  0
 17 55  1  0
 18 56  1  0
 18 57  1  0
 19 20  2  0
 19 58  1  0
 20 59  1  0
 21 22  2  0
 21 38  1  0
 22 23  1  0
 23 24  2  0
 23 60  1  0
 24 25  1  0
 24 34  1  0
 25 26  1  0
 25 33  1  0
 26 27  1  0
 27 28  1  6
 27 29  1  0
 27 30  1  0
 28 61  1  0
 28 62  1  0
 28 63  1  0
 29 64  1  0
 29 65  1  0
 29 66  1  0
 30 31  1  6
 30 32  1  0
 30 33  1  0
 31 67  1  0
 31 68  1  0
 31 69  1  0
 32 70  1  0
 32 71  1  0
 32 72  1  0
 34 35  1  0
 34 38  1  0
 35 36  2  0
 35 73  1  0
 36 37  1  0
 36 74  1  0
 37 38  2  0
M  END

