
     RDKit          3D

 27 28  0  0  0  0  0  0  0  0999 V2000
    1.5074    0.2007    0.7236 O   0  0  0  0  0  0  0  0  0  0  0  0
    2.8794    0.0531    0.2377 S   0  0  1  0  0  0  0  0  0  0  0  0
    4.0468    0.1661    1.1091 O   0  0  0  0  0  0  0  0  0  0  0  0
    3.0179   -1.4781   -0.4331 N   0  0  0  0  0  0  0  0  0  0  0  0
    2.1122   -2.0676   -1.3816 C   0  0  1  0  0  0  0  0  0  0  0  0
    2.3430   -1.7410   -2.8367 C   0  0  0  0  0  0  0  0  0  0  0  0
    4.1323   -2.3440   -3.4517 Br  0  0  0  0  0  0  0  0  0  0  0  0
    1.6235   -3.4599   -1.0316 C   0  0  0  0  0  0  0  0  0  0  0  0
    0.6824   -2.2987   -0.9256 C   0  0  0  0  0  0  0  0  0  0  0  0
    3.0865    1.2642   -1.0822 C   0  0  0  0  0  0  0  0  0  0  0  0
    4.3715    1.5637   -1.5445 C   0  0  0  0  0  0  0  0  0  0  0  0
    4.5254    2.5002   -2.5686 C   0  0  0  0  0  0  0  0  0  0  0  0
    3.4037    3.1277   -3.1052 C   0  0  0  0  0  0  0  0  0  0  0  0
    3.5337    4.0253   -4.0793 F   0  0  0  0  0  0  0  0  0  0  0  0
    2.1224    2.8298   -2.6221 C   0  0  0  0  0  0  0  0  0  0  0  0
    1.0706    3.4584   -3.1461 F   0  0  0  0  0  0  0  0  0  0  0  0
    1.9540    1.8981   -1.6044 C   0  0  0  0  0  0  0  0  0  0  0  0
    3.9944   -1.7598   -0.5133 H   0  0  0  0  0  0  0  0  0  0  0  0
    2.3245   -0.6630   -3.0358 H   0  0  0  0  0  0  0  0  0  0  0  0
    1.6210   -2.2468   -3.4882 H   0  0  0  0  0  0  0  0  0  0  0  0
    2.0125   -3.8901   -0.1060 H   0  0  0  0  0  0  0  0  0  0  0  0
    1.5031   -4.1679   -1.8563 H   0  0  0  0  0  0  0  0  0  0  0  0
    0.4280   -1.9128    0.0623 H   0  0  0  0  0  0  0  0  0  0  0  0
   -0.1044   -2.1896   -1.6771 H   0  0  0  0  0  0  0  0  0  0  0  0
    5.2420    1.0817   -1.0974 H   0  0  0  0  0  0  0  0  0  0  0  0
    5.5099    2.7646   -2.9596 H   0  0  0  0  0  0  0  0  0  0  0  0
    0.9581    1.6845   -1.2137 H   0  0  0  0  0  0  0  0  0  0  0  0
  1  2  2  0
  2  3  2  0
  2  4  1  6
  2 10  1  0
  5  4  1  1
  4 18  1  0
  5  6  1  0
  5  8  1  0
  5  9  1  0
  6  7  1  0
  6 19  1  0
  6 20  1  0
  8  9  1  0
  8 21  1  0
  8 22  1  0
  9 23  1  0
  9 24  1  0
 10 11  2  0
 10 17  1  0
 11 12  1  0
 11 25  1  0
 12 13  2  0
 12 26  1  0
 13 14  1  0
 13 15  1  0
 15 16  1  0
 15 17  2  0
 17 27  1  0
M  END

