
     RDKit          3D

 43 44  0  0  0  0  0  0  0  0999 V2000
   -3.0802    0.3462   -5.5156 C   0  0  0  0  0  0  0  0  0  0  0  0
   -1.6102    0.6138   -5.3057 C   0  0  0  0  0  0  0  0  0  0  0  0
   -1.0093    1.8397   -5.6365 C   0  0  0  0  0  0  0  0  0  0  0  0
   -1.9672    3.1447   -6.3255 Cl  0  0  0  0  0  0  0  0  0  0  0  0
    0.3527    2.0856   -5.4409 C   0  0  0  0  0  0  0  0  0  0  0  0
    1.1466    1.0783   -4.8971 C   0  0  0  0  0  0  0  0  0  0  0  0
    0.6003   -0.1570   -4.5511 C   0  0  0  0  0  0  0  0  0  0  0  0
   -0.7694   -0.3905   -4.7540 C   0  0  0  0  0  0  0  0  0  0  0  0
   -1.3705   -1.6229   -4.4216 N   0  0  0  0  0  0  0  0  0  0  0  0
   -0.8091   -2.7591   -3.8831 C   0  0  0  0  0  0  0  0  0  0  0  0
    0.3617   -2.8710   -3.5641 O   0  0  0  0  0  0  0  0  0  0  0  0
   -1.7784   -3.9597   -3.7562 C   0  0  1  0  0  0  0  0  0  0  0  0
   -2.8054   -3.5840   -3.5954 H   0  0  0  0  0  0  0  0  0  0  0  0
   -1.7475   -4.7502   -5.0773 C   0  0  0  0  0  0  0  0  0  0  0  0
   -1.4361   -4.8283   -2.6485 N   0  0  0  0  0  0  0  0  0  0  0  0
   -1.9485   -4.4784   -1.3166 C   0  0  2  0  0  0  0  0  0  0  0  0
   -3.0502   -4.5097   -1.3941 H   0  0  0  0  0  0  0  0  0  0  0  0
   -1.5676   -3.0779   -0.7935 C   0  0  0  0  0  0  0  0  0  0  0  0
   -1.5426   -5.5764   -0.3404 C   0  0  0  0  0  0  0  0  0  0  0  0
   -2.4917   -6.4812    0.1561 C   0  0  0  0  0  0  0  0  0  0  0  0
   -2.1235   -7.5006    1.0393 C   0  0  0  0  0  0  0  0  0  0  0  0
   -0.7910   -7.6349    1.4381 C   0  0  0  0  0  0  0  0  0  0  0  0
    0.1669   -6.7415    0.9488 C   0  0  0  0  0  0  0  0  0  0  0  0
   -0.2073   -5.7206    0.0710 C   0  0  0  0  0  0  0  0  0  0  0  0
   -3.5837    1.2175   -5.9484 H   0  0  0  0  0  0  0  0  0  0  0  0
   -3.5901    0.1106   -4.5645 H   0  0  0  0  0  0  0  0  0  0  0  0
   -3.2451   -0.5030   -6.2025 H   0  0  0  0  0  0  0  0  0  0  0  0
    0.7704    3.0551   -5.7142 H   0  0  0  0  0  0  0  0  0  0  0  0
    2.2129    1.2570   -4.7382 H   0  0  0  0  0  0  0  0  0  0  0  0
    1.2121   -0.9475   -4.1245 H   0  0  0  0  0  0  0  0  0  0  0  0
   -2.3616   -1.6856   -4.6157 H   0  0  0  0  0  0  0  0  0  0  0  0
   -2.0320   -4.1246   -5.9388 H   0  0  0  0  0  0  0  0  0  0  0  0
   -2.4343   -5.6059   -5.0093 H   0  0  0  0  0  0  0  0  0  0  0  0
   -0.7324   -5.1369   -5.2588 H   0  0  0  0  0  0  0  0  0  0  0  0
   -0.4222   -4.9451   -2.6245 H   0  0  0  0  0  0  0  0  0  0  0  0
   -1.9862   -2.9152    0.2124 H   0  0  0  0  0  0  0  0  0  0  0  0
   -1.9640   -2.2858   -1.4488 H   0  0  0  0  0  0  0  0  0  0  0  0
   -0.4765   -2.9459   -0.7413 H   0  0  0  0  0  0  0  0  0  0  0  0
   -3.5358   -6.3877   -0.1567 H   0  0  0  0  0  0  0  0  0  0  0  0
   -2.8809   -8.1936    1.4152 H   0  0  0  0  0  0  0  0  0  0  0  0
   -0.4996   -8.4315    2.1275 H   0  0  0  0  0  0  0  0  0  0  0  0
    1.2121   -6.8375    1.2547 H   0  0  0  0  0  0  0  0  0  0  0  0
    0.5556   -5.0278   -0.2953 H   0  0  0  0  0  0  0  0  0  0  0  0
  1  2  1  0
  1 25  1  0
  1 26  1  0
  1 27  1  0
  2  3  2  0
  2  8  1  0
  3  4  1  0
  3  5  1  0
  5  6  2  0
  5 28  1  0
  6  7  1  0
  6 29  1  0
  7  8  2  0
  7 30  1  0
  8  9  1  0
  9 10  1  0
  9 31  1  0
 10 11  2  0
 10 12  1  0
 12 13  1  1
 12 14  1  0
 12 15  1  0
 14 32  1  0
 14 33  1  0
 14 34  1  0
 15 16  1  0
 15 35  1  0
 16 17  1  6
 16 18  1  0
 16 19  1  0
 18 36  1  0
 18 37  1  0
 18 38  1  0
 19 20  2  0
 19 24  1  0
 20 21  1  0
 20 39  1  0
 21 22  2  0
 21 40  1  0
 22 23  1  0
 22 41  1  0
 23 24  2  0
 23 42  1  0
 24 43  1  0
M  END

