
     RDKit          3D

 41 43  0  0  0  0  0  0  0  0999 V2000
    1.0439   -0.6060   -0.0444 C   0  0  0  0  0  0  0  0  0  0  0  0
    2.5245   -0.6136    0.2033 C   0  0  0  0  0  0  0  0  0  0  0  0
    3.1368    0.2400    1.0848 C   0  0  0  0  0  0  0  0  0  0  0  0
    4.5574    0.1940    1.2695 C   0  0  0  0  0  0  0  0  0  0  0  0
    5.2069    0.9450    2.0011 O   0  0  0  0  0  0  0  0  0  0  0  0
    5.2333   -0.8050    0.5076 N   0  0  0  0  0  0  0  0  0  0  0  0
    6.7040   -0.7572    0.5976 C   0  0  0  0  0  0  0  0  0  0  0  0
    7.3099   -1.4413    1.8495 C   0  0  0  0  0  0  0  0  0  0  0  0
    7.8925   -2.5114    1.7559 O   0  0  0  0  0  0  0  0  0  0  0  0
    7.1463   -0.7291    2.9990 N   0  0  0  0  0  0  0  0  0  0  0  0
    7.5519   -1.0601    4.3041 C   0  0  0  0  0  0  0  0  0  0  0  0
    8.3231   -2.1938    4.6184 C   0  0  0  0  0  0  0  0  0  0  0  0
    8.6801   -2.4293    5.9480 C   0  0  0  0  0  0  0  0  0  0  0  0
    8.2917   -1.5684    6.9767 C   0  0  0  0  0  0  0  0  0  0  0  0
    7.5245   -0.4470    6.6480 C   0  0  0  0  0  0  0  0  0  0  0  0
    7.0167    0.6539    7.9113 Cl  0  0  0  0  0  0  0  0  0  0  0  0
    7.1516   -0.1847    5.3314 C   0  0  0  0  0  0  0  0  0  0  0  0
    4.5327   -1.6310   -0.3563 C   0  0  0  0  0  0  0  0  0  0  0  0
    5.2146   -2.6520   -1.2090 C   0  0  0  0  0  0  0  0  0  0  0  0
    6.2090   -3.5333   -0.7479 C   0  0  0  0  0  0  0  0  0  0  0  0
    6.7319   -4.5094   -1.6016 C   0  0  0  0  0  0  0  0  0  0  0  0
    6.2808   -4.6176   -2.9185 C   0  0  0  0  0  0  0  0  0  0  0  0
    5.2868   -3.7489   -3.3826 C   0  0  0  0  0  0  0  0  0  0  0  0
    4.7497   -2.7841   -2.5329 C   0  0  0  0  0  0  0  0  0  0  0  0
    3.2365   -1.5352   -0.5072 N   0  0  0  0  0  0  0  0  0  0  0  0
    0.5283    0.1616    0.5482 H   0  0  0  0  0  0  0  0  0  0  0  0
    0.6214   -1.5949    0.1966 H   0  0  0  0  0  0  0  0  0  0  0  0
    0.8456   -0.4326   -1.1146 H   0  0  0  0  0  0  0  0  0  0  0  0
    2.5909    0.9868    1.6616 H   0  0  0  0  0  0  0  0  0  0  0  0
    6.9838    0.3059    0.6004 H   0  0  0  0  0  0  0  0  0  0  0  0
    7.1349   -1.2450   -0.2797 H   0  0  0  0  0  0  0  0  0  0  0  0
    6.5682    0.1129    2.8882 H   0  0  0  0  0  0  0  0  0  0  0  0
    8.6273   -2.8706    3.8242 H   0  0  0  0  0  0  0  0  0  0  0  0
    9.2798   -3.3112    6.1877 H   0  0  0  0  0  0  0  0  0  0  0  0
    8.5733   -1.7553    8.0136 H   0  0  0  0  0  0  0  0  0  0  0  0
    6.5482    0.6958    5.1021 H   0  0  0  0  0  0  0  0  0  0  0  0
    6.5895   -3.4766    0.2720 H   0  0  0  0  0  0  0  0  0  0  0  0
    7.4994   -5.1896   -1.2246 H   0  0  0  0  0  0  0  0  0  0  0  0
    6.6984   -5.3793   -3.5819 H   0  0  0  0  0  0  0  0  0  0  0  0
    4.9238   -3.8278   -4.4104 H   0  0  0  0  0  0  0  0  0  0  0  0
    3.9566   -2.1207   -2.8799 H   0  0  0  0  0  0  0  0  0  0  0  0
  1  2  1  0
  1 26  1  0
  1 27  1  0
  1 28  1  0
  2  3  2  0
  2 25  1  0
  3  4  1  0
  3 29  1  0
  4  5  2  0
  4  6  1  0
  6  7  1  0
  6 18  1  0
  7  8  1  0
  7 30  1  0
  7 31  1  0
  8  9  2  0
  8 10  1  0
 10 11  1  0
 10 32  1  0
 11 12  2  0
 11 17  1  0
 12 13  1  0
 12 33  1  0
 13 14  2  0
 13 34  1  0
 14 15  1  0
 14 35  1  0
 15 16  1  0
 15 17  2  0
 17 36  1  0
 18 19  1  0
 18 25  2  0
 19 20  2  0
 19 24  1  0
 20 21  1  0
 20 37  1  0
 21 22  2  0
 21 38  1  0
 22 23  1  0
 22 39  1  0
 23 24  2  0
 23 40  1  0
 24 41  1  0
M  END

