
     RDKit          3D

 50 54  0  0  0  0  0  0  0  0999 V2000
    1.0287   -0.2176   -0.6093 C   0  0  0  0  0  0  0  0  0  0  0  0
    0.0400    0.6054   -1.0287 C   0  0  0  0  0  0  0  0  0  0  0  0
   -1.3892    0.4290   -0.7469 C   0  0  0  0  0  0  0  0  0  0  0  0
   -1.8368   -0.2785    0.3637 C   0  0  0  0  0  0  0  0  0  0  0  0
   -3.2208   -0.4173    0.6116 C   0  0  0  0  0  0  0  0  0  0  0  0
   -4.1621    0.1011   -0.1463 N   0  0  0  0  0  0  0  0  0  0  0  0
   -3.7753    0.8076   -1.2437 C   0  0  0  0  0  0  0  0  0  0  0  0
   -4.7952    1.3672   -2.0647 C   0  0  0  0  0  0  0  0  0  0  0  0
   -4.4778    2.0814   -3.1990 C   0  0  0  0  0  0  0  0  0  0  0  0
   -3.1213    2.2630   -3.5653 C   0  0  0  0  0  0  0  0  0  0  0  0
   -2.1089    1.7351   -2.7897 C   0  0  0  0  0  0  0  0  0  0  0  0
   -2.3968    1.0029   -1.6035 C   0  0  0  0  0  0  0  0  0  0  0  0
    2.4654   -0.0626   -0.8409 C   0  0  0  0  0  0  0  0  0  0  0  0
    3.0424    1.0684   -1.4563 C   0  0  0  0  0  0  0  0  0  0  0  0
    4.4149    1.1542   -1.6534 C   0  0  0  0  0  0  0  0  0  0  0  0
    5.2900    0.1216   -1.2488 C   0  0  0  0  0  0  0  0  0  0  0  0
    6.7256    0.2724   -1.4901 C   0  0  0  0  0  0  0  0  0  0  0  0
    7.6928   -0.6471   -1.2671 C   0  0  0  0  0  0  0  0  0  0  0  0
    9.1280   -0.4428   -1.4946 C   0  0  0  0  0  0  0  0  0  0  0  0
    9.7015    0.8240   -1.4749 C   0  0  0  0  0  0  0  0  0  0  0  0
   11.0896    0.9827   -1.6850 C   0  0  0  0  0  0  0  0  0  0  0  0
   11.9232   -0.0128   -1.8934 N   0  0  0  0  0  0  0  0  0  0  0  0
   11.4114   -1.2740   -1.9170 C   0  0  0  0  0  0  0  0  0  0  0  0
   12.3144   -2.3512   -2.1446 C   0  0  0  0  0  0  0  0  0  0  0  0
   11.8648   -3.6522   -2.1963 C   0  0  0  0  0  0  0  0  0  0  0  0
   10.4863   -3.9326   -2.0272 C   0  0  0  0  0  0  0  0  0  0  0  0
    9.5855   -2.9111   -1.8029 C   0  0  0  0  0  0  0  0  0  0  0  0
   10.0138   -1.5558   -1.7294 C   0  0  0  0  0  0  0  0  0  0  0  0
    4.7141   -1.0045   -0.6235 C   0  0  0  0  0  0  0  0  0  0  0  0
    3.3415   -1.0907   -0.4274 C   0  0  0  0  0  0  0  0  0  0  0  0
    0.7520   -1.1199   -0.0535 H   0  0  0  0  0  0  0  0  0  0  0  0
    0.3075    1.4756   -1.6326 H   0  0  0  0  0  0  0  0  0  0  0  0
   -1.1264   -0.7060    1.0739 H   0  0  0  0  0  0  0  0  0  0  0  0
   -3.5507   -0.9791    1.4951 H   0  0  0  0  0  0  0  0  0  0  0  0
   -5.8285    1.1999   -1.7549 H   0  0  0  0  0  0  0  0  0  0  0  0
   -5.2692    2.5055   -3.8221 H   0  0  0  0  0  0  0  0  0  0  0  0
   -2.8752    2.8217   -4.4718 H   0  0  0  0  0  0  0  0  0  0  0  0
   -1.0733    1.8749   -3.1029 H   0  0  0  0  0  0  0  0  0  0  0  0
    2.4100    1.8979   -1.7794 H   0  0  0  0  0  0  0  0  0  0  0  0
    4.8320    2.0441   -2.1328 H   0  0  0  0  0  0  0  0  0  0  0  0
    7.0157    1.2367   -1.9205 H   0  0  0  0  0  0  0  0  0  0  0  0
    7.4004   -1.6305   -0.8915 H   0  0  0  0  0  0  0  0  0  0  0  0
    9.0939    1.7063   -1.2646 H   0  0  0  0  0  0  0  0  0  0  0  0
   11.5204    1.9921   -1.6636 H   0  0  0  0  0  0  0  0  0  0  0  0
   13.3674   -2.0957   -2.2779 H   0  0  0  0  0  0  0  0  0  0  0  0
   12.5670   -4.4709   -2.3727 H   0  0  0  0  0  0  0  0  0  0  0  0
   10.1334   -4.9656   -2.0794 H   0  0  0  0  0  0  0  0  0  0  0  0
    8.5273   -3.1524   -1.6926 H   0  0  0  0  0  0  0  0  0  0  0  0
    5.3490   -1.8229   -0.2780 H   0  0  0  0  0  0  0  0  0  0  0  0
    2.9253   -1.9763    0.0608 H   0  0  0  0  0  0  0  0  0  0  0  0
  1  2  2  0
  1 13  1  0
  1 31  1  0
  2  3  1  0
  2 32  1  0
  3  4  2  0
  3 12  1  0
  4  5  1  0
  4 33  1  0
  5  6  2  0
  5 34  1  0
  6  7  1  0
  7  8  1  0
  7 12  2  0
  8  9  2  0
  8 35  1  0
  9 10  1  0
  9 36  1  0
 10 11  2  0
 10 37  1  0
 11 12  1  0
 11 38  1  0
 13 14  2  0
 13 30  1  0
 14 15  1  0
 14 39  1  0
 15 16  2  0
 15 40  1  0
 16 17  1  0
 16 29  1  0
 17 18  2  0
 17 41  1  0
 18 19  1  0
 18 42  1  0
 19 20  2  0
 19 28  1  0
 20 21  1  0
 20 43  1  0
 21 22  2  0
 21 44  1  0
 22 23  1  0
 23 24  1  0
 23 28  2  0
 24 25  2  0
 24 45  1  0
 25 26  1  0
 25 46  1  0
 26 27  2  0
 26 47  1  0
 27 28  1  0
 27 48  1  0
 29 30  2  0
 29 49  1  0
 30 50  1  0
M  END

