
     RDKit          3D

 33 34  0  0  0  0  0  0  0  0999 V2000
    0.9136   -0.0078    0.3352 C   0  0  0  0  0  0  0  0  0  0  0  0
    2.3743    0.0039   -0.1479 C   0  0  1  0  0  0  0  0  0  0  0  0
    3.3543   -0.0228    1.0379 C   0  0  0  0  0  0  0  0  0  0  0  0
    2.6549   -1.1134   -1.1452 C   0  0  0  0  0  0  0  0  0  0  0  0
    3.0407   -0.8197   -2.4629 C   0  0  0  0  0  0  0  0  0  0  0  0
    3.2980   -1.8332   -3.3879 C   0  0  0  0  0  0  0  0  0  0  0  0
    3.1817   -3.1781   -3.0147 C   0  0  0  0  0  0  0  0  0  0  0  0
    3.4427   -4.2630   -4.0324 C   0  0  1  0  0  0  0  0  0  0  0  0
    2.6182   -4.2840   -4.7839 H   0  0  0  0  0  0  0  0  0  0  0  0
    4.6637   -4.0415   -4.7010 O   0  0  0  0  0  0  0  0  0  0  0  0
    5.0245   -5.3070   -5.2173 C   0  0  0  0  0  0  0  0  0  0  0  0
    4.5807   -6.2794   -4.1016 C   0  0  1  0  0  0  0  0  0  0  0  0
    4.1453   -7.1991   -4.5320 H   0  0  0  0  0  0  0  0  0  0  0  0
    5.6767   -6.6346   -3.1070 C   0  0  0  0  0  0  0  0  0  0  0  0
    3.5426   -5.5454   -3.4429 O   0  0  0  0  0  0  0  0  0  0  0  0
    2.8003   -3.4861   -1.7040 C   0  0  0  0  0  0  0  0  0  0  0  0
    2.5402   -2.4660   -0.7859 C   0  0  0  0  0  0  0  0  0  0  0  0
    0.7156    0.8469    1.0029 H   0  0  0  0  0  0  0  0  0  0  0  0
    0.6831   -0.9280    0.8971 H   0  0  0  0  0  0  0  0  0  0  0  0
    0.2114    0.0507   -0.5111 H   0  0  0  0  0  0  0  0  0  0  0  0
    2.5347    0.9553   -0.6845 H   0  0  0  0  0  0  0  0  0  0  0  0
    3.2399   -0.9435    1.6335 H   0  0  0  0  0  0  0  0  0  0  0  0
    3.1771    0.8321    1.7112 H   0  0  0  0  0  0  0  0  0  0  0  0
    4.3996    0.0242    0.6945 H   0  0  0  0  0  0  0  0  0  0  0  0
    3.1433    0.2254   -2.7701 H   0  0  0  0  0  0  0  0  0  0  0  0
    3.6046   -1.5789   -4.4055 H   0  0  0  0  0  0  0  0  0  0  0  0
    6.1071   -5.3175   -5.4087 H   0  0  0  0  0  0  0  0  0  0  0  0
    4.4887   -5.5174   -6.1644 H   0  0  0  0  0  0  0  0  0  0  0  0
    6.1607   -5.7199   -2.7305 H   0  0  0  0  0  0  0  0  0  0  0  0
    6.4414   -7.2748   -3.5768 H   0  0  0  0  0  0  0  0  0  0  0  0
    5.2519   -7.1783   -2.2496 H   0  0  0  0  0  0  0  0  0  0  0  0
    2.7138   -4.5328   -1.4089 H   0  0  0  0  0  0  0  0  0  0  0  0
    2.2444   -2.7360    0.2318 H   0  0  0  0  0  0  0  0  0  0  0  0
  1  2  1  0
  1 18  1  0
  1 19  1  0
  1 20  1  0
  2  3  1  0
  2  4  1  0
  2 21  1  6
  3 22  1  0
  3 23  1  0
  3 24  1  0
  4  5  2  0
  4 17  1  0
  5  6  1  0
  5 25  1  0
  6  7  2  0
  6 26  1  0
  7  8  1  0
  7 16  1  0
  8  9  1  6
  8 10  1  0
  8 15  1  0
 10 11  1  0
 11 12  1  0
 11 27  1  0
 11 28  1  0
 12 13  1  6
 12 14  1  0
 12 15  1  0
 14 29  1  0
 14 30  1  0
 14 31  1  0
 16 17  2  0
 16 32  1  0
 17 33  1  0
M  END

