
     RDKit          3D

 51 52  0  0  0  0  0  0  0  0999 V2000
    0.4515   -0.2220    0.3447 C   0  0  0  0  0  0  0  0  0  0  0  0
    1.8535   -0.4422    0.0218 N   0  0  0  0  0  0  0  0  0  0  0  0
    2.3713    0.2839   -1.1093 C   0  0  0  0  0  0  0  0  0  0  0  0
    2.7893    1.7314   -0.7845 C   0  0  0  0  0  0  0  0  0  0  0  0
    2.7857    2.1249    0.3643 O   0  0  0  0  0  0  0  0  0  0  0  0
    3.2072    2.6228   -1.9117 C   0  0  0  0  0  0  0  0  0  0  0  0
    3.2534    2.2105   -3.2581 C   0  0  0  0  0  0  0  0  0  0  0  0
    3.6568    3.0868   -4.2590 C   0  0  0  0  0  0  0  0  0  0  0  0
    4.0233    4.4028   -3.9331 C   0  0  0  0  0  0  0  0  0  0  0  0
    4.4042    5.1968   -4.9717 O   0  0  0  0  0  0  0  0  0  0  0  0
    4.7916    6.5429   -4.7530 C   0  0  0  0  0  0  0  0  0  0  0  0
    5.1632    7.1866   -6.0919 C   0  0  0  0  0  0  0  0  0  0  0  0
    5.5233    8.3282   -6.1525 O   0  0  0  0  0  0  0  0  0  0  0  0
    5.0557    6.3890   -7.1588 O   0  0  0  0  0  0  0  0  0  0  0  0
    3.9842    4.8327   -2.5972 C   0  0  0  0  0  0  0  0  0  0  0  0
    3.5794    3.9416   -1.6056 C   0  0  0  0  0  0  0  0  0  0  0  0
    2.6488   -1.1057    0.9414 C   0  0  0  0  0  0  0  0  0  0  0  0
    2.1768   -1.6109    1.9453 O   0  0  0  0  0  0  0  0  0  0  0  0
    4.1437   -1.1953    0.6339 C   0  0  0  0  0  0  0  0  0  0  0  0
    4.9112   -2.0089    1.6742 C   0  0  0  0  0  0  0  0  0  0  0  0
    6.4195   -2.0628    1.3856 C   0  0  0  0  0  0  0  0  0  0  0  0
    7.1708   -2.9421    2.3605 C   0  0  0  0  0  0  0  0  0  0  0  0
    8.0576   -2.4077    3.3030 C   0  0  0  0  0  0  0  0  0  0  0  0
    8.7014   -3.2893    4.1813 C   0  0  0  0  0  0  0  0  0  0  0  0
    8.4455   -4.6507    4.1032 C   0  0  0  0  0  0  0  0  0  0  0  0
    7.5310   -5.0994    3.1196 C   0  0  0  0  0  0  0  0  0  0  0  0
    7.1980   -6.4288    3.0068 N   0  0  0  0  0  0  0  0  0  0  0  0
    6.9247   -4.2573    2.2755 N   0  0  0  0  0  0  0  0  0  0  0  0
   -0.1882   -0.4913   -0.5132 H   0  0  0  0  0  0  0  0  0  0  0  0
    0.2637    0.8324    0.6118 H   0  0  0  0  0  0  0  0  0  0  0  0
    0.1947   -0.8529    1.2031 H   0  0  0  0  0  0  0  0  0  0  0  0
    1.6020    0.3068   -1.9005 H   0  0  0  0  0  0  0  0  0  0  0  0
    3.2365   -0.2316   -1.5541 H   0  0  0  0  0  0  0  0  0  0  0  0
    2.9749    1.1940   -3.5419 H   0  0  0  0  0  0  0  0  0  0  0  0
    3.6950    2.7715   -5.3034 H   0  0  0  0  0  0  0  0  0  0  0  0
    5.6686    6.6109   -4.0863 H   0  0  0  0  0  0  0  0  0  0  0  0
    3.9741    7.1340   -4.3051 H   0  0  0  0  0  0  0  0  0  0  0  0
    4.7475    5.5151   -6.8581 H   0  0  0  0  0  0  0  0  0  0  0  0
    4.2651    5.8498   -2.3235 H   0  0  0  0  0  0  0  0  0  0  0  0
    3.5437    4.2548   -0.5603 H   0  0  0  0  0  0  0  0  0  0  0  0
    4.5503   -0.1702    0.5739 H   0  0  0  0  0  0  0  0  0  0  0  0
    4.2875   -1.6381   -0.3686 H   0  0  0  0  0  0  0  0  0  0  0  0
    4.5160   -3.0353    1.7106 H   0  0  0  0  0  0  0  0  0  0  0  0
    4.7317   -1.5824    2.6737 H   0  0  0  0  0  0  0  0  0  0  0  0
    6.8448   -1.0453    1.3992 H   0  0  0  0  0  0  0  0  0  0  0  0
    6.5788   -2.4676    0.3704 H   0  0  0  0  0  0  0  0  0  0  0  0
    8.2414   -1.3326    3.3466 H   0  0  0  0  0  0  0  0  0  0  0  0
    9.4030   -2.9086    4.9288 H   0  0  0  0  0  0  0  0  0  0  0  0
    8.9274   -5.3599    4.7804 H   0  0  0  0  0  0  0  0  0  0  0  0
    7.8198   -7.1261    3.3930 H   0  0  0  0  0  0  0  0  0  0  0  0
    6.6899   -6.6846    2.1686 H   0  0  0  0  0  0  0  0  0  0  0  0
  1  2  1  0
  1 29  1  0
  1 30  1  0
  1 31  1  0
  2  3  1  0
  2 17  1  0
  3  4  1  0
  3 32  1  0
  3 33  1  0
  4  5  2  0
  4  6  1  0
  6  7  2  0
  6 16  1  0
  7  8  1  0
  7 34  1  0
  8  9  2  0
  8 35  1  0
  9 10  1  0
  9 15  1  0
 10 11  1  0
 11 12  1  0
 11 36  1  0
 11 37  1  0
 12 13  2  0
 12 14  1  0
 14 38  1  0
 15 16  2  0
 15 39  1  0
 16 40  1  0
 17 18  2  0
 17 19  1  0
 19 20  1  0
 19 41  1  0
 19 42  1  0
 20 21  1  0
 20 43  1  0
 20 44  1  0
 21 22  1  0
 21 45  1  0
 21 46  1  0
 22 23  2  0
 22 28  1  0
 23 24  1  0
 23 47  1  0
 24 25  2  0
 24 48  1  0
 25 26  1  0
 25 49  1  0
 26 27  1  0
 26 28  2  0
 27 50  1  0
 27 51  1  0
M  END

