
     RDKit          3D

 27 27  0  0  0  0  0  0  0  0999 V2000
    0.6798    0.0036    0.1654 C   0  0  0  0  0  0  0  0  0  0  0  0
    2.2054   -0.0755    0.2437 C   0  0  0  0  0  0  0  0  0  0  0  0
    2.8981   -0.6934   -0.9867 C   0  0  1  0  0  0  0  0  0  0  0  0
    2.5120   -0.0338   -2.2340 N   0  0  0  0  0  0  0  0  0  0  0  0
    1.4145   -0.5865   -2.9344 N   0  0  0  0  0  0  0  0  0  0  0  0
    4.4399   -0.6037   -0.8424 C   0  0  1  0  0  0  0  0  0  0  0  0
    5.0248   -1.4987    0.2559 C   0  0  0  0  0  0  0  0  0  0  0  0
    4.9480   -2.8660   -0.1002 O   0  0  0  0  0  0  0  0  0  0  0  0
    5.6638   -3.1195   -1.2942 C   0  0  0  0  0  0  0  0  0  0  0  0
    5.1179   -2.2666   -2.4314 C   0  0  0  0  0  0  0  0  0  0  0  0
    5.1119   -0.8919   -2.0745 O   0  0  0  0  0  0  0  0  0  0  0  0
    0.2609    0.3757    1.1141 H   0  0  0  0  0  0  0  0  0  0  0  0
    0.2265   -0.9824   -0.0316 H   0  0  0  0  0  0  0  0  0  0  0  0
    0.3575    0.6966   -0.6267 H   0  0  0  0  0  0  0  0  0  0  0  0
    2.4808   -0.6566    1.1403 H   0  0  0  0  0  0  0  0  0  0  0  0
    2.6073    0.9430    0.3898 H   0  0  0  0  0  0  0  0  0  0  0  0
    2.6213   -1.7716   -1.0258 H   0  0  0  0  0  0  0  0  0  0  0  0
    3.3105   -0.0317   -2.8643 H   0  0  0  0  0  0  0  0  0  0  0  0
    0.5484   -0.1973   -2.5670 H   0  0  0  0  0  0  0  0  0  0  0  0
    1.3571   -1.6038   -2.7957 H   0  0  0  0  0  0  0  0  0  0  0  0
    4.7015    0.4456   -0.6264 H   0  0  0  0  0  0  0  0  0  0  0  0
    4.4884   -1.3798    1.2074 H   0  0  0  0  0  0  0  0  0  0  0  0
    6.0824   -1.2075    0.4181 H   0  0  0  0  0  0  0  0  0  0  0  0
    5.5586   -4.1918   -1.5221 H   0  0  0  0  0  0  0  0  0  0  0  0
    6.7412   -2.8972   -1.1468 H   0  0  0  0  0  0  0  0  0  0  0  0
    4.1002   -2.6100   -2.7005 H   0  0  0  0  0  0  0  0  0  0  0  0
    5.7520   -2.3560   -3.3275 H   0  0  0  0  0  0  0  0  0  0  0  0
  1  2  1  0
  1 12  1  0
  1 13  1  0
  1 14  1  0
  2  3  1  0
  2 15  1  0
  2 16  1  0
  3  4  1  0
  3  6  1  0
  3 17  1  6
  4  5  1  0
  4 18  1  0
  5 19  1  0
  5 20  1  0
  6  7  1  0
  6 11  1  0
  6 21  1  1
  7  8  1  0
  7 22  1  0
  7 23  1  0
  8  9  1  0
  9 10  1  0
  9 24  1  0
  9 25  1  0
 10 11  1  0
 10 26  1  0
 10 27  1  0
M  END

