
     RDKit          3D

 38 40  0  0  0  0  0  0  0  0999 V2000
    1.0340   -0.4390    0.6857 C   0  0  0  0  0  0  0  0  0  0  0  0
    2.2076    0.4231    0.2626 C   0  0  0  0  0  0  0  0  0  0  0  0
    2.5132    0.5372   -0.9071 O   0  0  0  0  0  0  0  0  0  0  0  0
    2.9986    1.1442    1.3264 C   0  0  0  0  0  0  0  0  0  0  0  0
    2.7034    1.0451    2.6969 C   0  0  0  0  0  0  0  0  0  0  0  0
    3.4690    1.7326    3.6399 C   0  0  0  0  0  0  0  0  0  0  0  0
    4.5391    2.5200    3.2045 C   0  0  0  0  0  0  0  0  0  0  0  0
    5.5482    3.3814    4.4281 S   0  0  1  0  0  0  0  0  0  0  0  0
    6.2122    4.4868    3.7376 O   0  0  0  0  0  0  0  0  0  0  0  0
    4.7204    3.5598    5.6179 O   0  0  0  0  0  0  0  0  0  0  0  0
    6.7604    2.3240    4.8784 N   0  0  0  0  0  0  0  0  0  0  0  0
    7.8642    2.0117    3.9693 C   0  0  0  0  0  0  0  0  0  0  0  0
    8.9678    1.3320    4.7042 C   0  0  0  0  0  0  0  0  0  0  0  0
   10.2671    1.6602    4.9443 C   0  0  0  0  0  0  0  0  0  0  0  0
   10.8247    0.5737    5.7164 C   0  0  0  0  0  0  0  0  0  0  0  0
   12.0772    0.2764    6.2814 C   0  0  0  0  0  0  0  0  0  0  0  0
   12.2205   -0.9175    6.9868 C   0  0  0  0  0  0  0  0  0  0  0  0
   11.1429   -1.8142    7.1373 C   0  0  0  0  0  0  0  0  0  0  0  0
    9.8894   -1.5409    6.5857 C   0  0  0  0  0  0  0  0  0  0  0  0
    9.7667   -0.3441    5.8850 C   0  0  0  0  0  0  0  0  0  0  0  0
    8.6421    0.1200    5.2656 O   0  0  0  0  0  0  0  0  0  0  0  0
    4.8395    2.6484    1.8431 C   0  0  0  0  0  0  0  0  0  0  0  0
    4.0695    1.9545    0.9120 C   0  0  0  0  0  0  0  0  0  0  0  0
    0.5809   -0.8817   -0.2101 H   0  0  0  0  0  0  0  0  0  0  0  0
    0.2780    0.1581    1.2211 H   0  0  0  0  0  0  0  0  0  0  0  0
    1.3585   -1.2425    1.3666 H   0  0  0  0  0  0  0  0  0  0  0  0
    1.8662    0.4355    3.0414 H   0  0  0  0  0  0  0  0  0  0  0  0
    3.2323    1.6808    4.7042 H   0  0  0  0  0  0  0  0  0  0  0  0
    6.4243    1.5583    5.4601 H   0  0  0  0  0  0  0  0  0  0  0  0
    8.2383    2.9559    3.5528 H   0  0  0  0  0  0  0  0  0  0  0  0
    7.5378    1.3709    3.1248 H   0  0  0  0  0  0  0  0  0  0  0  0
   10.7672    2.5686    4.6151 H   0  0  0  0  0  0  0  0  0  0  0  0
   12.9182    0.9651    6.1716 H   0  0  0  0  0  0  0  0  0  0  0  0
   13.1859   -1.1663    7.4339 H   0  0  0  0  0  0  0  0  0  0  0  0
   11.2908   -2.7413    7.6964 H   0  0  0  0  0  0  0  0  0  0  0  0
    9.0455   -2.2246    6.6932 H   0  0  0  0  0  0  0  0  0  0  0  0
    5.6535    3.3035    1.5278 H   0  0  0  0  0  0  0  0  0  0  0  0
    4.2728    2.0301   -0.1579 H   0  0  0  0  0  0  0  0  0  0  0  0
  1  2  1  0
  1 24  1  0
  1 25  1  0
  1 26  1  0
  2  3  2  0
  2  4  1  0
  4  5  2  0
  4 23  1  0
  5  6  1  0
  5 27  1  0
  6  7  2  0
  6 28  1  0
  7  8  1  0
  7 22  1  0
  8  9  2  0
  8 10  2  0
  8 11  1  1
 11 12  1  0
 11 29  1  0
 12 13  1  0
 12 30  1  0
 12 31  1  0
 13 14  2  0
 13 21  1  0
 14 15  1  0
 14 32  1  0
 15 16  2  0
 15 20  1  0
 16 17  1  0
 16 33  1  0
 17 18  2  0
 17 34  1  0
 18 19  1  0
 18 35  1  0
 19 20  2  0
 19 36  1  0
 20 21  1  0
 22 23  2  0
 22 37  1  0
 23 38  1  0
M  END

