
     RDKit          3D

 35 35  0  0  0  0  0  0  0  0999 V2000
    4.3061   -1.7334    4.8476 C   0  0  0  0  0  0  0  0  0  0  0  0
    3.9879   -1.0028    3.5550 C   0  0  0  0  0  0  0  0  0  0  0  0
    3.0813   -0.1896    3.4676 O   0  0  0  0  0  0  0  0  0  0  0  0
    4.7885   -1.3079    2.4899 N   0  0  0  0  0  0  0  0  0  0  0  0
    4.5839   -0.7012    1.1941 C   0  0  1  0  0  0  0  0  0  0  0  0
    5.2847    0.6829    1.0963 C   0  0  0  0  0  0  0  0  0  0  0  0
    4.9905    1.4762   -0.1787 C   0  0  0  0  0  0  0  0  0  0  0  0
    5.7124    3.1604   -0.1970 S   0  0  0  0  0  0  0  0  0  0  0  0
    7.4567    2.7604   -0.6584 C   0  0  0  0  0  0  0  0  0  0  0  0
    8.2900    4.0123   -0.6131 C   0  0  0  0  0  0  0  0  0  0  0  0
    8.3606    4.8400   -1.7483 C   0  0  0  0  0  0  0  0  0  0  0  0
    9.0958    6.0239   -1.7644 C   0  0  0  0  0  0  0  0  0  0  0  0
    9.7781    6.3947   -0.6085 C   0  0  0  0  0  0  0  0  0  0  0  0
   10.4934    7.5257   -0.6001 F   0  0  0  0  0  0  0  0  0  0  0  0
    9.7390    5.6165    0.5448 C   0  0  0  0  0  0  0  0  0  0  0  0
    8.9909    4.4361    0.5323 C   0  0  0  0  0  0  0  0  0  0  0  0
    8.9649    3.4051    2.1407 Br  0  0  0  0  0  0  0  0  0  0  0  0
    5.1084   -1.6771    0.1369 C   0  0  0  0  0  0  0  0  0  0  0  0
    5.9605   -2.4934    0.3659 O   0  0  0  0  0  0  0  0  0  0  0  0
    4.5949   -1.5469   -1.1027 O   0  0  0  0  0  0  0  0  0  0  0  0
    4.6042   -0.9932    5.6060 H   0  0  0  0  0  0  0  0  0  0  0  0
    5.1011   -2.4863    4.7475 H   0  0  0  0  0  0  0  0  0  0  0  0
    3.3881   -2.2174    5.2124 H   0  0  0  0  0  0  0  0  0  0  0  0
    5.5175   -2.0125    2.5456 H   0  0  0  0  0  0  0  0  0  0  0  0
    3.4978   -0.5428    1.0663 H   0  0  0  0  0  0  0  0  0  0  0  0
    6.3695    0.5283    1.2160 H   0  0  0  0  0  0  0  0  0  0  0  0
    4.9403    1.2651    1.9633 H   0  0  0  0  0  0  0  0  0  0  0  0
    3.9048    1.6445   -0.2845 H   0  0  0  0  0  0  0  0  0  0  0  0
    5.3306    0.9507   -1.0858 H   0  0  0  0  0  0  0  0  0  0  0  0
    7.4620    2.3385   -1.6752 H   0  0  0  0  0  0  0  0  0  0  0  0
    7.8496    2.0068    0.0373 H   0  0  0  0  0  0  0  0  0  0  0  0
    7.8161    4.5388   -2.6469 H   0  0  0  0  0  0  0  0  0  0  0  0
    9.1477    6.6577   -2.6511 H   0  0  0  0  0  0  0  0  0  0  0  0
   10.2857    5.9358    1.4322 H   0  0  0  0  0  0  0  0  0  0  0  0
    3.8728   -0.9019   -1.1089 H   0  0  0  0  0  0  0  0  0  0  0  0
  1  2  1  0
  1 21  1  0
  1 22  1  0
  1 23  1  0
  2  3  2  0
  2  4  1  0
  4  5  1  0
  4 24  1  0
  5  6  1  0
  5 18  1  0
  5 25  1  6
  6  7  1  0
  6 26  1  0
  6 27  1  0
  7  8  1  0
  7 28  1  0
  7 29  1  0
  8  9  1  0
  9 10  1  0
  9 30  1  0
  9 31  1  0
 10 11  2  0
 10 16  1  0
 11 12  1  0
 11 32  1  0
 12 13  2  0
 12 33  1  0
 13 14  1  0
 13 15  1  0
 15 16  2  0
 15 34  1  0
 16 17  1  0
 18 19  2  0
 18 20  1  0
 20 35  1  0
M  END

