
     RDKit          3D

 67 71  0  0  0  0  0  0  0  0999 V2000
   -1.4428    1.9570   -2.7166 C   0  0  0  0  0  0  0  0  0  0  0  0
   -0.9143    1.0441   -1.6163 C   0  0  1  0  0  0  0  0  0  0  0  0
    0.6141    1.1214   -1.4077 C   0  0  0  0  0  0  0  0  0  0  0  0
    1.4041    0.6000   -2.5875 C   0  0  0  0  0  0  0  0  0  0  0  0
    1.4519   -0.7987   -2.8415 C   0  0  0  0  0  0  0  0  0  0  0  0
    2.1360   -1.3547   -3.9131 C   0  0  0  0  0  0  0  0  0  0  0  0
    2.1456   -2.8330   -4.0972 C   0  0  0  0  0  0  0  0  0  0  0  0
    1.8950   -3.4287   -5.3472 C   0  0  0  0  0  0  0  0  0  0  0  0
    1.8486   -4.8176   -5.4656 C   0  0  0  0  0  0  0  0  0  0  0  0
    2.0618   -5.6363   -4.3547 C   0  0  0  0  0  0  0  0  0  0  0  0
    2.3260   -5.0724   -3.0943 C   0  0  0  0  0  0  0  0  0  0  0  0
    2.5716   -5.9340   -1.9048 C   0  0  0  0  0  0  0  0  0  0  0  0
    1.8350   -7.1201   -1.7079 C   0  0  0  0  0  0  0  0  0  0  0  0
    2.0690   -7.9259   -0.5936 C   0  0  0  0  0  0  0  0  0  0  0  0
    3.0386   -7.5672    0.3434 C   0  0  0  0  0  0  0  0  0  0  0  0
    3.7936   -6.3900    0.1785 C   0  0  0  0  0  0  0  0  0  0  0  0
    4.8084   -6.0585    1.1842 C   0  0  0  0  0  0  0  0  0  0  0  0
    5.6298   -4.9927    1.2219 C   0  0  0  0  0  0  0  0  0  0  0  0
    6.6011   -4.8385    2.3459 C   0  0  0  0  0  0  0  0  0  0  0  0
    6.6908   -5.6320    3.2699 O   0  0  0  0  0  0  0  0  0  0  0  0
    7.3887   -3.7132    2.2633 N   0  0  0  0  0  0  0  0  0  0  0  0
    8.4356   -3.4444    3.2014 C   0  0  1  0  0  0  0  0  0  0  0  0
    8.7271   -2.0067    3.5441 C   0  0  0  0  0  0  0  0  0  0  0  0
    8.0844   -2.9108    4.5644 C   0  0  0  0  0  0  0  0  0  0  0  0
    3.5422   -5.5900   -0.9533 C   0  0  0  0  0  0  0  0  0  0  0  0
    2.3587   -3.6708   -2.9893 C   0  0  0  0  0  0  0  0  0  0  0  0
    2.8398   -0.4685   -4.8063 C   0  0  0  0  0  0  0  0  0  0  0  0
    3.5390   -0.9847   -5.8513 N   0  0  0  0  0  0  0  0  0  0  0  0
    4.1901   -0.1708   -6.6524 C   0  0  0  0  0  0  0  0  0  0  0  0
    4.2137    1.2387   -6.4952 C   0  0  0  0  0  0  0  0  0  0  0  0
    3.5195    1.7900   -5.4420 C   0  0  0  0  0  0  0  0  0  0  0  0
    2.8036    0.9443   -4.5524 C   0  0  0  0  0  0  0  0  0  0  0  0
    2.0773    1.4512   -3.4421 C   0  0  0  0  0  0  0  0  0  0  0  0
   -1.6689    1.4672    0.0152 S   0  0  1  0  0  0  0  0  0  0  0  0
   -3.4325    1.1049   -0.1500 C   0  0  0  0  0  0  0  0  0  0  0  0
   -1.1337    0.5208    1.0075 O   0  0  0  0  0  0  0  0  0  0  0  0
   -1.5265    2.9192    0.2138 O   0  0  0  0  0  0  0  0  0  0  0  0
   -0.9271    1.7367   -3.6636 H   0  0  0  0  0  0  0  0  0  0  0  0
   -1.2643    3.0113   -2.4567 H   0  0  0  0  0  0  0  0  0  0  0  0
   -2.5211    1.8192   -2.8887 H   0  0  0  0  0  0  0  0  0  0  0  0
   -1.2117   -0.0048   -1.7817 H   0  0  0  0  0  0  0  0  0  0  0  0
    0.8619    0.5385   -0.5070 H   0  0  0  0  0  0  0  0  0  0  0  0
    0.8847    2.1682   -1.1999 H   0  0  0  0  0  0  0  0  0  0  0  0
    0.9128   -1.4678   -2.1652 H   0  0  0  0  0  0  0  0  0  0  0  0
    1.7348   -2.7999   -6.2221 H   0  0  0  0  0  0  0  0  0  0  0  0
    1.6525   -5.2701   -6.4412 H   0  0  0  0  0  0  0  0  0  0  0  0
    2.0523   -6.7223   -4.4720 H   0  0  0  0  0  0  0  0  0  0  0  0
    1.0578   -7.3976   -2.4236 H   0  0  0  0  0  0  0  0  0  0  0  0
    1.4840   -8.8379   -0.4505 H   0  0  0  0  0  0  0  0  0  0  0  0
    3.2198   -8.2000    1.2160 H   0  0  0  0  0  0  0  0  0  0  0  0
    4.9160   -6.7642    2.0158 H   0  0  0  0  0  0  0  0  0  0  0  0
    5.6075   -4.2210    0.4456 H   0  0  0  0  0  0  0  0  0  0  0  0
    7.3668   -3.1704    1.4075 H   0  0  0  0  0  0  0  0  0  0  0  0
    9.2882   -4.1344    3.1557 H   0  0  0  0  0  0  0  0  0  0  0  0
    8.0993   -1.2403    3.0789 H   0  0  0  0  0  0  0  0  0  0  0  0
    9.7721   -1.7136    3.6765 H   0  0  0  0  0  0  0  0  0  0  0  0
    7.0232   -2.7660    4.7798 H   0  0  0  0  0  0  0  0  0  0  0  0
    8.6793   -3.2589    5.4126 H   0  0  0  0  0  0  0  0  0  0  0  0
    4.1353   -4.6875   -1.1125 H   0  0  0  0  0  0  0  0  0  0  0  0
    2.5538   -3.2179   -2.0148 H   0  0  0  0  0  0  0  0  0  0  0  0
    4.7422   -0.6321   -7.4813 H   0  0  0  0  0  0  0  0  0  0  0  0
    4.7755    1.8593   -7.1969 H   0  0  0  0  0  0  0  0  0  0  0  0
    3.5105    2.8709   -5.2748 H   0  0  0  0  0  0  0  0  0  0  0  0
    2.0633    2.5314   -3.2699 H   0  0  0  0  0  0  0  0  0  0  0  0
   -3.5664    0.0445   -0.4004 H   0  0  0  0  0  0  0  0  0  0  0  0
   -3.8882    1.7670   -0.8964 H   0  0  0  0  0  0  0  0  0  0  0  0
   -3.8440    1.3145    0.8470 H   0  0  0  0  0  0  0  0  0  0  0  0
  1  2  1  0
  1 38  1  0
  1 39  1  0
  1 40  1  0
  2  3  1  0
  2 34  1  0
  2 41  1  6
  3  4  1  0
  3 42  1  0
  3 43  1  0
  4  5  2  0
  4 33  1  0
  5  6  1  0
  5 44  1  0
  6  7  1  0
  6 27  2  0
  7  8  2  0
  7 26  1  0
  8  9  1  0
  8 45  1  0
  9 10  2  0
  9 46  1  0
 10 11  1  0
 10 47  1  0
 11 12  1  0
 11 26  2  0
 12 13  2  0
 12 25  1  0
 13 14  1  0
 13 48  1  0
 14 15  2  0
 14 49  1  0
 15 16  1  0
 15 50  1  0
 16 17  1  0
 16 25  2  0
 17 18  2  0
 17 51  1  0
 18 19  1  0
 18 52  1  0
 19 20  2  0
 19 21  1  0
 21 22  1  0
 21 53  1  0
 22 23  1  0
 22 24  1  0
 22 54  1  1
 23 24  1  0
 23 55  1  0
 23 56  1  0
 24 57  1  0
 24 58  1  0
 25 59  1  0
 26 60  1  0
 27 28  1  0
 27 32  1  0
 28 29  2  0
 29 30  1  0
 29 61  1  0
 30 31  2  0
 30 62  1  0
 31 32  1  0
 31 63  1  0
 32 33  2  0
 33 64  1  0
 34 35  1  6
 34 36  2  0
 34 37  2  0
 35 65  1  0
 35 66  1  0
 35 67  1  0
M  END

