
     RDKit          3D

 32 33  0  0  0  0  0  0  0  0999 V2000
    1.9941    0.0597    0.9425 C   0  0  0  0  0  0  0  0  0  0  0  0
    2.7826    0.4503   -0.2082 N   0  0  0  0  0  0  0  0  0  0  0  0
    3.2843    1.8148   -0.2655 C   0  0  0  0  0  0  0  0  0  0  0  0
    3.2633   -0.4787   -1.0741 C   0  0  0  0  0  0  0  0  0  0  0  0
    4.0529   -0.2068   -2.0834 N   0  0  0  0  0  0  0  0  0  0  0  0
    4.3556   -1.3272   -2.8045 C   0  0  0  0  0  0  0  0  0  0  0  0
    5.1518   -1.2261   -3.8863 N   0  0  0  0  0  0  0  0  0  0  0  0
    3.7964   -2.5325   -2.3470 C   0  0  0  0  0  0  0  0  0  0  0  0
    3.9982   -3.8150   -2.9882 C   0  0  0  0  0  0  0  0  0  0  0  0
    4.7077   -3.9268   -3.9960 O   0  0  0  0  0  0  0  0  0  0  0  0
    3.3540   -4.9047   -2.4134 N   0  0  0  0  0  0  0  0  0  0  0  0
    3.3654   -6.2497   -2.8038 C   0  0  0  0  0  0  0  0  0  0  0  0
    4.0875   -6.7401   -3.9098 C   0  0  0  0  0  0  0  0  0  0  0  0
    4.0336   -8.1012   -4.2145 C   0  0  0  0  0  0  0  0  0  0  0  0
    3.2822   -9.0014   -3.4545 C   0  0  0  0  0  0  0  0  0  0  0  0
    2.5713   -8.5016   -2.3611 C   0  0  0  0  0  0  0  0  0  0  0  0
    1.6140   -9.5917   -1.3770 Cl  0  0  0  0  0  0  0  0  0  0  0  0
    2.6039   -7.1487   -2.0301 C   0  0  0  0  0  0  0  0  0  0  0  0
    2.8380   -2.1868   -0.8943 S   0  0  0  0  0  0  0  0  0  0  0  0
    1.4153    0.9257    1.2948 H   0  0  0  0  0  0  0  0  0  0  0  0
    2.6163   -0.3075    1.7812 H   0  0  0  0  0  0  0  0  0  0  0  0
    1.2786   -0.7318    0.6686 H   0  0  0  0  0  0  0  0  0  0  0  0
    2.4502    2.5264   -0.1545 H   0  0  0  0  0  0  0  0  0  0  0  0
    3.7729    1.9735   -1.2333 H   0  0  0  0  0  0  0  0  0  0  0  0
    4.0192    2.0096    0.5378 H   0  0  0  0  0  0  0  0  0  0  0  0
    5.5007   -0.3199   -4.1625 H   0  0  0  0  0  0  0  0  0  0  0  0
    5.3478   -2.0845   -4.3964 H   0  0  0  0  0  0  0  0  0  0  0  0
    2.7854   -4.7103   -1.5978 H   0  0  0  0  0  0  0  0  0  0  0  0
    4.6740   -6.0476   -4.5072 H   0  0  0  0  0  0  0  0  0  0  0  0
    4.5975   -8.4716   -5.0747 H   0  0  0  0  0  0  0  0  0  0  0  0
    3.2440  -10.0638   -3.6976 H   0  0  0  0  0  0  0  0  0  0  0  0
    2.0349   -6.7946   -1.1674 H   0  0  0  0  0  0  0  0  0  0  0  0
  1  2  1  0
  1 20  1  0
  1 21  1  0
  1 22  1  0
  2  3  1  0
  2  4  1  0
  3 23  1  0
  3 24  1  0
  3 25  1  0
  4  5  2  0
  4 19  1  0
  5  6  1  0
  6  7  1  0
  6  8  2  0
  7 26  1  0
  7 27  1  0
  8  9  1  0
  8 19  1  0
  9 10  2  0
  9 11  1  0
 11 12  1  0
 11 28  1  0
 12 13  2  0
 12 18  1  0
 13 14  1  0
 13 29  1  0
 14 15  2  0
 14 30  1  0
 15 16  1  0
 15 31  1  0
 16 17  1  0
 16 18  2  0
 18 32  1  0
M  END

