
     RDKit          3D

 26 26  0  0  0  0  0  0  0  0999 V2000
    0.8159    0.2316    0.1042 C   0  0  0  0  0  0  0  0  0  0  0  0
    2.3152    0.0676    0.1512 C   0  0  0  0  0  0  0  0  0  0  0  0
    3.1385    1.2009    0.1571 C   0  0  0  0  0  0  0  0  0  0  0  0
    4.5224    1.0723    0.1978 C   0  0  0  0  0  0  0  0  0  0  0  0
    5.1125   -0.1985    0.2339 C   0  0  0  0  0  0  0  0  0  0  0  0
    6.9125   -0.2570    0.2554 S   0  0  0  0  0  0  0  0  0  0  0  0
    7.2530   -0.1494    2.0693 C   0  0  0  0  0  0  0  0  0  0  0  0
    6.8975   -1.3490    2.8220 C   0  0  0  0  0  0  0  0  0  0  0  0
    6.5974   -2.3060    3.4035 N   0  0  0  0  0  0  0  0  0  0  0  0
    4.3125   -1.3668    0.2057 C   0  0  0  0  0  0  0  0  0  0  0  0
    4.9293   -2.7471    0.1937 C   0  0  0  0  0  0  0  0  0  0  0  0
    2.9028   -1.2184    0.1810 C   0  0  0  0  0  0  0  0  0  0  0  0
    1.9924   -2.4263    0.1762 C   0  0  0  0  0  0  0  0  0  0  0  0
    0.5336    1.2925    0.0439 H   0  0  0  0  0  0  0  0  0  0  0  0
    0.3310   -0.1940    0.9994 H   0  0  0  0  0  0  0  0  0  0  0  0
    0.3750   -0.2852   -0.7646 H   0  0  0  0  0  0  0  0  0  0  0  0
    2.6872    2.1963    0.1251 H   0  0  0  0  0  0  0  0  0  0  0  0
    5.1608    1.9586    0.1952 H   0  0  0  0  0  0  0  0  0  0  0  0
    6.7304    0.7227    2.4910 H   0  0  0  0  0  0  0  0  0  0  0  0
    8.3365    0.0306    2.1537 H   0  0  0  0  0  0  0  0  0  0  0  0
    6.0192   -2.6920    0.0920 H   0  0  0  0  0  0  0  0  0  0  0  0
    4.5387   -3.3509   -0.6407 H   0  0  0  0  0  0  0  0  0  0  0  0
    4.7134   -3.2919    1.1270 H   0  0  0  0  0  0  0  0  0  0  0  0
    2.5239   -3.3619    0.3819 H   0  0  0  0  0  0  0  0  0  0  0  0
    1.4843   -2.5413   -0.7980 H   0  0  0  0  0  0  0  0  0  0  0  0
    1.1968   -2.3282    0.9317 H   0  0  0  0  0  0  0  0  0  0  0  0
  1  2  1  0
  1 14  1  0
  1 15  1  0
  1 16  1  0
  2  3  2  0
  2 12  1  0
  3  4  1  0
  3 17  1  0
  4  5  2  0
  4 18  1  0
  5  6  1  0
  5 10  1  0
  6  7  1  0
  7  8  1  0
  7 19  1  0
  7 20  1  0
  8  9  3  0
 10 11  1  0
 10 12  2  0
 11 21  1  0
 11 22  1  0
 11 23  1  0
 12 13  1  0
 13 24  1  0
 13 25  1  0
 13 26  1  0
M  END

