
     RDKit          3D

 61 62  0  0  0  0  0  0  0  0999 V2000
    6.7810   -5.8196   -5.9942 C   0  0  0  0  0  0  0  0  0  0  0  0
    8.1537   -5.3017   -6.4537 C   0  0  0  0  0  0  0  0  0  0  0  0
    8.0834   -3.9690   -7.1654 C   0  0  0  0  0  0  0  0  0  0  0  0
    8.0306   -3.8976   -8.5619 C   0  0  0  0  0  0  0  0  0  0  0  0
    7.9234   -2.6781   -9.2389 C   0  0  0  0  0  0  0  0  0  0  0  0
    7.8678   -1.4961   -8.5025 C   0  0  0  0  0  0  0  0  0  0  0  0
    7.9227   -1.5305   -7.1048 C   0  0  0  0  0  0  0  0  0  0  0  0
    8.0269   -2.7581   -6.4356 C   0  0  0  0  0  0  0  0  0  0  0  0
    8.0753   -2.8807   -5.0721 O   0  0  0  0  0  0  0  0  0  0  0  0
    8.0908   -1.7366   -4.2207 C   0  0  2  0  0  0  0  0  0  0  0  0
    7.3606   -0.9909   -4.5791 H   0  0  0  0  0  0  0  0  0  0  0  0
    9.4805   -1.1082   -4.1234 C   0  0  0  0  0  0  0  0  0  0  0  0
    7.5966   -2.1316   -2.8174 C   0  0  0  0  0  0  0  0  0  0  0  0
    7.4317   -1.2611   -1.9751 O   0  0  0  0  0  0  0  0  0  0  0  0
    7.3996   -3.4537   -2.6012 N   0  0  0  0  0  0  0  0  0  0  0  0
    6.8424   -3.9654   -1.3389 C   0  0  2  0  0  0  0  0  0  0  0  0
    6.0055   -3.2950   -1.0830 H   0  0  0  0  0  0  0  0  0  0  0  0
    7.8422   -3.8499   -0.1756 C   0  0  0  0  0  0  0  0  0  0  0  0
    6.2574   -5.3596   -1.5394 C   0  0  0  0  0  0  0  0  0  0  0  0
    4.8684   -5.5127   -1.3648 C   0  0  0  0  0  0  0  0  0  0  0  0
    4.1931   -6.7253   -1.5015 C   0  0  0  0  0  0  0  0  0  0  0  0
    2.6856   -6.8680   -1.3319 C   0  0  1  0  0  0  0  0  0  0  0  0
    2.0558   -5.7933   -0.4378 C   0  0  0  0  0  0  0  0  0  0  0  0
    1.9806   -6.9248   -2.7017 C   0  0  0  0  0  0  0  0  0  0  0  0
    4.9730   -7.8542   -1.8444 C   0  0  0  0  0  0  0  0  0  0  0  0
    4.2994   -9.0302   -1.9819 O   0  0  0  0  0  0  0  0  0  0  0  0
    5.0057  -10.2110   -2.2838 C   0  0  0  0  0  0  0  0  0  0  0  0
    6.3536   -7.7292   -2.0263 C   0  0  0  0  0  0  0  0  0  0  0  0
    7.0179   -6.4981   -1.8768 C   0  0  0  0  0  0  0  0  0  0  0  0
    8.5221   -6.4886   -2.0600 C   0  0  0  0  0  0  0  0  0  0  0  0
    6.8740   -6.7811   -5.4640 H   0  0  0  0  0  0  0  0  0  0  0  0
    6.1081   -5.9686   -6.8537 H   0  0  0  0  0  0  0  0  0  0  0  0
    6.2894   -5.1078   -5.3128 H   0  0  0  0  0  0  0  0  0  0  0  0
    8.6116   -6.0410   -7.1312 H   0  0  0  0  0  0  0  0  0  0  0  0
    8.8238   -5.2168   -5.5829 H   0  0  0  0  0  0  0  0  0  0  0  0
    8.0780   -4.8299   -9.1328 H   0  0  0  0  0  0  0  0  0  0  0  0
    7.8875   -2.6552  -10.3304 H   0  0  0  0  0  0  0  0  0  0  0  0
    7.7862   -0.5313   -9.0095 H   0  0  0  0  0  0  0  0  0  0  0  0
    7.8847   -0.5936   -6.5496 H   0  0  0  0  0  0  0  0  0  0  0  0
    9.4475   -0.2727   -3.4103 H   0  0  0  0  0  0  0  0  0  0  0  0
    9.8233   -0.7359   -5.0994 H   0  0  0  0  0  0  0  0  0  0  0  0
   10.2046   -1.8543   -3.7609 H   0  0  0  0  0  0  0  0  0  0  0  0
    7.4564   -4.0646   -3.4080 H   0  0  0  0  0  0  0  0  0  0  0  0
    7.3673   -4.1922    0.7570 H   0  0  0  0  0  0  0  0  0  0  0  0
    8.1343   -2.7976   -0.0516 H   0  0  0  0  0  0  0  0  0  0  0  0
    8.7488   -4.4482   -0.3403 H   0  0  0  0  0  0  0  0  0  0  0  0
    4.2916   -4.6229   -1.1039 H   0  0  0  0  0  0  0  0  0  0  0  0
    2.5218   -7.8450   -0.8471 H   0  0  0  0  0  0  0  0  0  0  0  0
    2.0902   -4.7946   -0.9038 H   0  0  0  0  0  0  0  0  0  0  0  0
    2.5585   -5.7275    0.5400 H   0  0  0  0  0  0  0  0  0  0  0  0
    0.9943   -6.0264   -0.2573 H   0  0  0  0  0  0  0  0  0  0  0  0
    2.1094   -5.9756   -3.2482 H   0  0  0  0  0  0  0  0  0  0  0  0
    0.8991   -7.1004   -2.5778 H   0  0  0  0  0  0  0  0  0  0  0  0
    2.3871   -7.7357   -3.3235 H   0  0  0  0  0  0  0  0  0  0  0  0
    4.2625  -11.0188   -2.3245 H   0  0  0  0  0  0  0  0  0  0  0  0
    5.7546  -10.4528   -1.5081 H   0  0  0  0  0  0  0  0  0  0  0  0
    5.5169  -10.1477   -3.2615 H   0  0  0  0  0  0  0  0  0  0  0  0
    6.9486   -8.6044   -2.2898 H   0  0  0  0  0  0  0  0  0  0  0  0
    8.8333   -7.2777   -2.7615 H   0  0  0  0  0  0  0  0  0  0  0  0
    9.0392   -6.6857   -1.1050 H   0  0  0  0  0  0  0  0  0  0  0  0
    8.9046   -5.5318   -2.4385 H   0  0  0  0  0  0  0  0  0  0  0  0
  1  2  1  0
  1 31  1  0
  1 32  1  0
  1 33  1  0
  2  3  1  0
  2 34  1  0
  2 35  1  0
  3  4  2  0
  3  8  1  0
  4  5  1  0
  4 36  1  0
  5  6  2  0
  5 37  1  0
  6  7  1  0
  6 38  1  0
  7  8  2  0
  7 39  1  0
  8  9  1  0
  9 10  1  0
 10 11  1  6
 10 12  1  0
 10 13  1  0
 12 40  1  0
 12 41  1  0
 12 42  1  0
 13 14  2  0
 13 15  1  0
 15 16  1  0
 15 43  1  0
 16 17  1  1
 16 18  1  0
 16 19  1  0
 18 44  1  0
 18 45  1  0
 18 46  1  0
 19 20  2  0
 19 29  1  0
 20 21  1  0
 20 47  1  0
 21 22  1  0
 21 25  2  0
 22 23  1  0
 22 24  1  0
 22 48  1  1
 23 49  1  0
 23 50  1  0
 23 51  1  0
 24 52  1  0
 24 53  1  0
 24 54  1  0
 25 26  1  0
 25 28  1  0
 26 27  1  0
 27 55  1  0
 27 56  1  0
 27 57  1  0
 28 29  2  0
 28 58  1  0
 29 30  1  0
 30 59  1  0
 30 60  1  0
 30 61  1  0
M  END

