
     RDKit          3D

 36 38  0  0  0  0  0  0  0  0999 V2000
    3.3778   -1.7874    0.7672 C   0  0  0  0  0  0  0  0  0  0  0  0
    2.6662   -1.0501   -0.3590 C   0  0  0  0  0  0  0  0  0  0  0  0
    1.5433   -1.4262   -0.6701 O   0  0  0  0  0  0  0  0  0  0  0  0
    3.2660    0.0713   -1.1259 C   0  0  0  0  0  0  0  0  0  0  0  0
    4.4358    0.7648   -0.8949 C   0  0  0  0  0  0  0  0  0  0  0  0
    5.3280    0.5699    0.2571 C   0  0  0  0  0  0  0  0  0  0  0  0
    6.5642    1.0999    0.3194 C   0  0  0  0  0  0  0  0  0  0  0  0
    7.0851    1.9964   -0.7635 C   0  0  0  0  0  0  0  0  0  0  0  0
    5.9128    2.6856   -1.4501 C   0  0  0  0  0  0  0  0  0  0  0  0
    4.8624    1.7279   -1.8129 N   0  0  0  0  0  0  0  0  0  0  0  0
    4.3779    1.7821   -3.1419 C   0  0  0  0  0  0  0  0  0  0  0  0
    4.9062    2.4805   -3.9884 O   0  0  0  0  0  0  0  0  0  0  0  0
    3.3215    0.9592   -3.3781 N   0  0  0  0  0  0  0  0  0  0  0  0
    2.4307    0.4798   -2.3248 C   0  0  2  0  0  0  0  0  0  0  0  0
    1.3116    1.4901   -2.0151 C   0  0  0  0  0  0  0  0  0  0  0  0
    1.3226    2.2777   -0.8541 C   0  0  0  0  0  0  0  0  0  0  0  0
    0.3216    3.2143   -0.5868 C   0  0  0  0  0  0  0  0  0  0  0  0
   -0.7310    3.3838   -1.4875 C   0  0  0  0  0  0  0  0  0  0  0  0
   -0.7742    2.6154   -2.6529 C   0  0  0  0  0  0  0  0  0  0  0  0
    0.2387    1.6870   -2.9029 C   0  0  0  0  0  0  0  0  0  0  0  0
    0.1135    0.6764   -4.5336 Br  0  0  0  0  0  0  0  0  0  0  0  0
    2.8004   -2.6990    0.9686 H   0  0  0  0  0  0  0  0  0  0  0  0
    3.3908   -1.1853    1.6904 H   0  0  0  0  0  0  0  0  0  0  0  0
    4.4144   -2.0541    0.5161 H   0  0  0  0  0  0  0  0  0  0  0  0
    4.9745   -0.0525    1.0714 H   0  0  0  0  0  0  0  0  0  0  0  0
    7.2020    0.8723    1.1790 H   0  0  0  0  0  0  0  0  0  0  0  0
    7.6771    1.4085   -1.4912 H   0  0  0  0  0  0  0  0  0  0  0  0
    7.7715    2.7533   -0.3502 H   0  0  0  0  0  0  0  0  0  0  0  0
    6.2103    3.1854   -2.3784 H   0  0  0  0  0  0  0  0  0  0  0  0
    5.4855    3.4448   -0.7698 H   0  0  0  0  0  0  0  0  0  0  0  0
    2.9423    1.0295   -4.3173 H   0  0  0  0  0  0  0  0  0  0  0  0
    1.9325   -0.4226   -2.6998 H   0  0  0  0  0  0  0  0  0  0  0  0
    2.1338    2.1393   -0.1367 H   0  0  0  0  0  0  0  0  0  0  0  0
    0.3641    3.8084    0.3292 H   0  0  0  0  0  0  0  0  0  0  0  0
   -1.5230    4.1101   -1.2889 H   0  0  0  0  0  0  0  0  0  0  0  0
   -1.5907    2.7326   -3.3672 H   0  0  0  0  0  0  0  0  0  0  0  0
  1  2  1  0
  1 22  1  0
  1 23  1  0
  1 24  1  0
  2  3  2  0
  2  4  1  0
  4  5  2  0
  4 14  1  0
  5  6  1  0
  5 10  1  0
  6  7  2  0
  6 25  1  0
  7  8  1  0
  7 26  1  0
  8  9  1  0
  8 27  1  0
  8 28  1  0
  9 10  1  0
  9 29  1  0
  9 30  1  0
 10 11  1  0
 11 12  2  0
 11 13  1  0
 13 14  1  0
 13 31  1  0
 14 15  1  0
 14 32  1  6
 15 16  2  0
 15 20  1  0
 16 17  1  0
 16 33  1  0
 17 18  2  0
 17 34  1  0
 18 19  1  0
 18 35  1  0
 19 20  2  0
 19 36  1  0
 20 21  1  0
M  END

