
     RDKit          3D

 71 73  0  0  0  0  0  0  0  0999 V2000
    2.3876   -0.8815   -1.1180 C   0  0  0  0  0  0  0  0  0  0  0  0
    2.9600   -0.1959    0.1320 C   0  0  1  0  0  0  0  0  0  0  0  0
    2.0105    0.9146    0.6363 C   0  0  0  0  0  0  0  0  0  0  0  0
    1.8508    2.1624   -0.2771 C   0  0  1  0  0  0  0  0  0  0  0  0
    0.3552    2.5319   -0.4073 C   0  0  0  0  0  0  0  0  0  0  0  0
   -0.0183    3.6955   -1.3407 C   0  0  0  0  0  0  0  0  0  0  0  0
    0.4226    3.5676   -2.8150 C   0  0  1  0  0  0  0  0  0  0  0  0
   -0.1385    2.3210   -3.5352 C   0  0  0  0  0  0  0  0  0  0  0  0
   -1.6409    2.4248   -3.8372 C   0  0  0  0  0  0  0  0  0  0  0  0
   -1.9646    3.6923   -4.6399 C   0  0  0  0  0  0  0  0  0  0  0  0
   -1.4335    4.9518   -3.9425 C   0  0  0  0  0  0  0  0  0  0  0  0
    0.0659    4.8324   -3.6289 C   0  0  0  0  0  0  0  0  0  0  0  0
    2.6864    3.3636    0.2123 C   0  0  0  0  0  0  0  0  0  0  0  0
    4.2052    3.1520    0.2371 C   0  0  0  0  0  0  0  0  0  0  0  0
    5.0259    4.4204    0.5566 C   0  0  1  0  0  0  0  0  0  0  0  0
    4.7956    4.9781    1.9795 C   0  0  0  0  0  0  0  0  0  0  0  0
    5.4379    4.1156    3.0763 C   0  0  0  0  0  0  0  0  0  0  0  0
    6.9368    3.9067    2.8213 C   0  0  0  0  0  0  0  0  0  0  0  0
    7.1953    3.3381    1.4196 C   0  0  0  0  0  0  0  0  0  0  0  0
    6.5391    4.2031    0.3327 C   0  0  0  0  0  0  0  0  0  0  0  0
    3.2632   -1.2223    1.2441 C   0  0  1  0  0  0  0  0  0  0  0  0
    4.1663   -2.4037    0.8318 C   0  0  0  0  0  0  0  0  0  0  0  0
    4.6207   -2.9969    2.1696 C   0  0  0  0  0  0  0  0  0  0  0  0
    4.9135   -1.7584    3.0393 C   0  0  0  0  0  0  0  0  0  0  0  0
    3.9747   -0.6418    2.5016 C   0  0  0  0  0  0  0  0  0  0  0  0
    2.1203   -0.1515   -1.8977 H   0  0  0  0  0  0  0  0  0  0  0  0
    1.4737   -1.4489   -0.8691 H   0  0  0  0  0  0  0  0  0  0  0  0
    3.1052   -1.5849   -1.5666 H   0  0  0  0  0  0  0  0  0  0  0  0
    3.9229    0.2713   -0.1488 H   0  0  0  0  0  0  0  0  0  0  0  0
    2.3344    1.2495    1.6355 H   0  0  0  0  0  0  0  0  0  0  0  0
    1.0207    0.4492    0.7955 H   0  0  0  0  0  0  0  0  0  0  0  0
    2.2187    1.8989   -1.2850 H   0  0  0  0  0  0  0  0  0  0  0  0
   -0.0311    2.7653    0.6025 H   0  0  0  0  0  0  0  0  0  0  0  0
   -0.1920    1.6265   -0.7219 H   0  0  0  0  0  0  0  0  0  0  0  0
    0.3982    4.6376   -0.9439 H   0  0  0  0  0  0  0  0  0  0  0  0
   -1.1126    3.8244   -1.2870 H   0  0  0  0  0  0  0  0  0  0  0  0
    1.5237    3.4826   -2.8190 H   0  0  0  0  0  0  0  0  0  0  0  0
    0.0721    1.4076   -2.9552 H   0  0  0  0  0  0  0  0  0  0  0  0
    0.4034    2.2023   -4.4914 H   0  0  0  0  0  0  0  0  0  0  0  0
   -2.2156    2.4321   -2.8934 H   0  0  0  0  0  0  0  0  0  0  0  0
   -1.9747    1.5289   -4.3880 H   0  0  0  0  0  0  0  0  0  0  0  0
   -3.0518    3.7750   -4.8089 H   0  0  0  0  0  0  0  0  0  0  0  0
   -1.5009    3.6114   -5.6411 H   0  0  0  0  0  0  0  0  0  0  0  0
   -2.0013    5.1197   -3.0099 H   0  0  0  0  0  0  0  0  0  0  0  0
   -1.6141    5.8408   -4.5706 H   0  0  0  0  0  0  0  0  0  0  0  0
    0.4171    5.7333   -3.0966 H   0  0  0  0  0  0  0  0  0  0  0  0
    0.6222    4.8027   -4.5837 H   0  0  0  0  0  0  0  0  0  0  0  0
    2.3266    3.6456    1.2188 H   0  0  0  0  0  0  0  0  0  0  0  0
    2.4781    4.2338   -0.4339 H   0  0  0  0  0  0  0  0  0  0  0  0
    4.5249    2.7843   -0.7552 H   0  0  0  0  0  0  0  0  0  0  0  0
    4.4594    2.3479    0.9462 H   0  0  0  0  0  0  0  0  0  0  0  0
    4.6955    5.1954   -0.1596 H   0  0  0  0  0  0  0  0  0  0  0  0
    3.7190    5.1084    2.1764 H   0  0  0  0  0  0  0  0  0  0  0  0
    5.2353    5.9911    2.0276 H   0  0  0  0  0  0  0  0  0  0  0  0
    4.9351    3.1328    3.1261 H   0  0  0  0  0  0  0  0  0  0  0  0
    5.2803    4.5858    4.0619 H   0  0  0  0  0  0  0  0  0  0  0  0
    7.3709    3.2464    3.5913 H   0  0  0  0  0  0  0  0  0  0  0  0
    7.4568    4.8784    2.9175 H   0  0  0  0  0  0  0  0  0  0  0  0
    6.8042    2.3061    1.3660 H   0  0  0  0  0  0  0  0  0  0  0  0
    8.2800    3.2610    1.2327 H   0  0  0  0  0  0  0  0  0  0  0  0
    6.7120    3.7610   -0.6637 H   0  0  0  0  0  0  0  0  0  0  0  0
    7.0369    5.1900    0.3224 H   0  0  0  0  0  0  0  0  0  0  0  0
    2.2954   -1.6524    1.5684 H   0  0  0  0  0  0  0  0  0  0  0  0
    5.0406   -2.0251    0.2692 H   0  0  0  0  0  0  0  0  0  0  0  0
    3.6576   -3.1371    0.1875 H   0  0  0  0  0  0  0  0  0  0  0  0
    5.4840   -3.6752    2.0785 H   0  0  0  0  0  0  0  0  0  0  0  0
    3.7947   -3.5837    2.6082 H   0  0  0  0  0  0  0  0  0  0  0  0
    5.9673   -1.4581    2.9197 H   0  0  0  0  0  0  0  0  0  0  0  0
    4.7656   -1.9557    4.1125 H   0  0  0  0  0  0  0  0  0  0  0  0
    4.5593    0.2521    2.2273 H   0  0  0  0  0  0  0  0  0  0  0  0
    3.2491   -0.3155    3.2622 H   0  0  0  0  0  0  0  0  0  0  0  0
  1  2  1  0
  1 26  1  0
  1 27  1  0
  1 28  1  0
  2  3  1  0
  2 21  1  0
  2 29  1  6
  3  4  1  0
  3 30  1  0
  3 31  1  0
  4  5  1  0
  4 13  1  0
  4 32  1  6
  5  6  1  0
  5 33  1  0
  5 34  1  0
  6  7  1  0
  6 35  1  0
  6 36  1  0
  7  8  1  0
  7 12  1  0
  7 37  1  1
  8  9  1  0
  8 38  1  0
  8 39  1  0
  9 10  1  0
  9 40  1  0
  9 41  1  0
 10 11  1  0
 10 42  1  0
 10 43  1  0
 11 12  1  0
 11 44  1  0
 11 45  1  0
 12 46  1  0
 12 47  1  0
 13 14  1  0
 13 48  1  0
 13 49  1  0
 14 15  1  0
 14 50  1  0
 14 51  1  0
 15 16  1  0
 15 20  1  0
 15 52  1  6
 16 17  1  0
 16 53  1  0
 16 54  1  0
 17 18  1  0
 17 55  1  0
 17 56  1  0
 18 19  1  0
 18 57  1  0
 18 58  1  0
 19 20  1  0
 19 59  1  0
 19 60  1  0
 20 61  1  0
 20 62  1  0
 21 22  1  0
 21 25  1  0
 21 63  1  1
 22 23  1  0
 22 64  1  0
 22 65  1  0
 23 24  1  0
 23 66  1  0
 23 67  1  0
 24 25  1  0
 24 68  1  0
 24 69  1  0
 25 70  1  0
 25 71  1  0
M  END

