
     RDKit          3D

 35 35  0  0  0  0  0  0  0  0999 V2000
    1.0195    0.6440   -0.3181 C   0  0  0  0  0  0  0  0  0  0  0  0
    2.5315    0.5152   -0.1254 C   0  0  0  0  0  0  0  0  0  0  0  0
    2.9666    0.5641    1.3436 C   0  0  0  0  0  0  0  0  0  0  0  0
    4.4815    0.4320    1.5302 C   0  0  0  0  0  0  0  0  0  0  0  0
    4.9767    0.5581    2.9927 C   0  0  1  0  0  0  0  0  0  0  0  0
    4.4507   -0.5683    3.8959 C   0  0  0  0  0  0  0  0  0  0  0  0
    6.4821    0.5859    3.0263 C   0  0  0  0  0  0  0  0  0  0  0  0
    7.2527   -0.4776    2.9694 N   0  0  0  0  0  0  0  0  0  0  0  0
    8.5582   -0.0635    2.9757 N   0  0  0  0  0  0  0  0  0  0  0  0
    8.5473    1.2416    3.0364 C   0  0  0  0  0  0  0  0  0  0  0  0
    7.2623    1.7226    3.0600 N   0  0  0  0  0  0  0  0  0  0  0  0
    6.8646    3.1149    3.2218 C   0  0  0  0  0  0  0  0  0  0  0  0
    6.6004    3.5181    4.6769 C   0  0  0  0  0  0  0  0  0  0  0  0
    6.2058    4.9894    4.8085 C   0  0  0  0  0  0  0  0  0  0  0  0
    0.7431    0.6057   -1.3839 H   0  0  0  0  0  0  0  0  0  0  0  0
    0.6427    1.5975    0.0895 H   0  0  0  0  0  0  0  0  0  0  0  0
    0.4795   -0.1695    0.1951 H   0  0  0  0  0  0  0  0  0  0  0  0
    3.0448    1.3192   -0.6843 H   0  0  0  0  0  0  0  0  0  0  0  0
    2.8819   -0.4318   -0.5742 H   0  0  0  0  0  0  0  0  0  0  0  0
    2.4458   -0.2364    1.8969 H   0  0  0  0  0  0  0  0  0  0  0  0
    2.6230    1.5156    1.7931 H   0  0  0  0  0  0  0  0  0  0  0  0
    4.9813    1.2031    0.9174 H   0  0  0  0  0  0  0  0  0  0  0  0
    4.8305   -0.5368    1.1318 H   0  0  0  0  0  0  0  0  0  0  0  0
    4.6056    1.5199    3.3905 H   0  0  0  0  0  0  0  0  0  0  0  0
    4.7919   -1.5460    3.5239 H   0  0  0  0  0  0  0  0  0  0  0  0
    3.3512   -0.5666    3.9369 H   0  0  0  0  0  0  0  0  0  0  0  0
    4.8303   -0.4598    4.9233 H   0  0  0  0  0  0  0  0  0  0  0  0
    9.4240    1.8890    3.0565 H   0  0  0  0  0  0  0  0  0  0  0  0
    5.9723    3.3019    2.6034 H   0  0  0  0  0  0  0  0  0  0  0  0
    7.6705    3.7372    2.8004 H   0  0  0  0  0  0  0  0  0  0  0  0
    7.5069    3.3115    5.2714 H   0  0  0  0  0  0  0  0  0  0  0  0
    5.8064    2.8749    5.0932 H   0  0  0  0  0  0  0  0  0  0  0  0
    6.9978    5.6561    4.4280 H   0  0  0  0  0  0  0  0  0  0  0  0
    6.0237    5.2575    5.8605 H   0  0  0  0  0  0  0  0  0  0  0  0
    5.2846    5.2129    4.2445 H   0  0  0  0  0  0  0  0  0  0  0  0
  1  2  1  0
  1 15  1  0
  1 16  1  0
  1 17  1  0
  2  3  1  0
  2 18  1  0
  2 19  1  0
  3  4  1  0
  3 20  1  0
  3 21  1  0
  4  5  1  0
  4 22  1  0
  4 23  1  0
  5  6  1  0
  5  7  1  0
  5 24  1  1
  6 25  1  0
  6 26  1  0
  6 27  1  0
  7  8  2  0
  7 11  1  0
  8  9  1  0
  9 10  2  0
 10 11  1  0
 10 28  1  0
 11 12  1  0
 12 13  1  0
 12 29  1  0
 12 30  1  0
 13 14  1  0
 13 31  1  0
 13 32  1  0
 14 33  1  0
 14 34  1  0
 14 35  1  0
M  END

