
     RDKit          3D

 86 87  0  0  0  0  0  0  0  0999 V2000
    5.2690   -3.5203    2.9815 C   0  0  0  0  0  0  0  0  0  0  0  0
    4.9036   -2.4722    1.9707 C   0  0  0  0  0  0  0  0  0  0  0  0
    5.6866   -1.4626    1.4877 C   0  0  0  0  0  0  0  0  0  0  0  0
    7.0941   -1.1448    1.9048 C   0  0  0  0  0  0  0  0  0  0  0  0
    4.9060   -0.6862    0.4453 C   0  0  1  0  0  0  0  0  0  0  0  0
    4.8484    0.8312    0.7237 C   0  0  0  0  0  0  0  0  0  0  0  0
    5.7399   -1.0343   -1.3004 Si  0  0  1  0  0  4  0  0  0  0  0  0
    4.6506   -0.3856   -2.7134 C   0  0  0  0  0  0  0  0  0  0  0  0
    7.3667   -0.0584   -1.4154 C   0  0  0  0  0  0  0  0  0  0  0  0
    6.0086   -2.9149   -1.4603 C   0  0  0  0  0  0  0  0  0  0  0  0
    5.9951   -3.5640   -2.8668 C   0  0  1  0  0  0  0  0  0  0  0  0
    7.2491   -3.1466   -3.6498 C   0  0  0  0  0  0  0  0  0  0  0  0
    5.8110   -5.1168   -2.7720 C   0  0  1  0  0  0  0  0  0  0  0  0
    4.4031   -5.4646   -2.2620 C   0  0  0  0  0  0  0  0  0  0  0  0
    6.1051   -5.8519   -4.1023 C   0  0  0  0  0  0  0  0  0  0  0  0
    6.1067   -7.7678   -4.1240 Si  0  0  1  0  0  4  0  0  0  0  0  0
    6.8147   -8.3514   -2.4603 C   0  0  0  0  0  0  0  0  0  0  0  0
    4.3715   -8.4758   -4.3820 C   0  0  0  0  0  0  0  0  0  0  0  0
    7.2628   -8.4038   -5.5844 C   0  0  2  0  0  0  0  0  0  0  0  0
    8.7390   -8.0511   -5.3050 C   0  0  0  0  0  0  0  0  0  0  0  0
    6.7466   -7.8416   -6.8954 C   0  0  0  0  0  0  0  0  0  0  0  0
    6.8859   -6.4076   -7.3252 C   0  0  0  0  0  0  0  0  0  0  0  0
    6.2008   -8.8547   -7.6308 C   0  0  0  0  0  0  0  0  0  0  0  0
    5.5417   -8.7645   -8.9767 C   0  0  0  0  0  0  0  0  0  0  0  0
    6.3652  -10.1234   -6.9102 C   0  0  0  0  0  0  0  0  0  0  0  0
    5.8717  -11.4346   -7.4495 C   0  0  0  0  0  0  0  0  0  0  0  0
    7.0156   -9.8933   -5.7322 C   0  0  0  0  0  0  0  0  0  0  0  0
    7.4276  -10.9295   -4.7258 C   0  0  0  0  0  0  0  0  0  0  0  0
    3.5448   -1.3502    0.4719 C   0  0  0  0  0  0  0  0  0  0  0  0
    2.3473   -0.8786   -0.3067 C   0  0  0  0  0  0  0  0  0  0  0  0
    3.5781   -2.4012    1.3433 C   0  0  0  0  0  0  0  0  0  0  0  0
    2.4665   -3.3572    1.6667 C   0  0  0  0  0  0  0  0  0  0  0  0
    6.2760   -3.3678    3.3953 H   0  0  0  0  0  0  0  0  0  0  0  0
    5.2461   -4.5326    2.5398 H   0  0  0  0  0  0  0  0  0  0  0  0
    4.5586   -3.5342    3.8262 H   0  0  0  0  0  0  0  0  0  0  0  0
    7.3084   -1.5291    2.9133 H   0  0  0  0  0  0  0  0  0  0  0  0
    7.2834   -0.0591    1.9219 H   0  0  0  0  0  0  0  0  0  0  0  0
    7.8518   -1.5851    1.2313 H   0  0  0  0  0  0  0  0  0  0  0  0
    5.8529    1.2790    0.7646 H   0  0  0  0  0  0  0  0  0  0  0  0
    4.3557    1.0243    1.6913 H   0  0  0  0  0  0  0  0  0  0  0  0
    4.2851    1.3740   -0.0521 H   0  0  0  0  0  0  0  0  0  0  0  0
    4.3540    0.6628   -2.5472 H   0  0  0  0  0  0  0  0  0  0  0  0
    3.7341   -0.9763   -2.8578 H   0  0  0  0  0  0  0  0  0  0  0  0
    5.2180   -0.4176   -3.6585 H   0  0  0  0  0  0  0  0  0  0  0  0
    7.1961    1.0198   -1.2622 H   0  0  0  0  0  0  0  0  0  0  0  0
    7.8078   -0.1771   -2.4184 H   0  0  0  0  0  0  0  0  0  0  0  0
    8.1184   -0.3876   -0.6829 H   0  0  0  0  0  0  0  0  0  0  0  0
    5.2229   -3.3567   -0.8279 H   0  0  0  0  0  0  0  0  0  0  0  0
    6.9597   -3.1706   -0.9570 H   0  0  0  0  0  0  0  0  0  0  0  0
    5.1175   -3.1813   -3.4228 H   0  0  0  0  0  0  0  0  0  0  0  0
    8.1605   -3.5785   -3.2002 H   0  0  0  0  0  0  0  0  0  0  0  0
    7.3723   -2.0531   -3.6424 H   0  0  0  0  0  0  0  0  0  0  0  0
    7.2134   -3.4564   -4.7038 H   0  0  0  0  0  0  0  0  0  0  0  0
    6.5435   -5.4690   -2.0208 H   0  0  0  0  0  0  0  0  0  0  0  0
    3.6422   -5.2120   -3.0207 H   0  0  0  0  0  0  0  0  0  0  0  0
    4.1438   -4.9231   -1.3409 H   0  0  0  0  0  0  0  0  0  0  0  0
    4.3020   -6.5373   -2.0396 H   0  0  0  0  0  0  0  0  0  0  0  0
    7.1023   -5.5584   -4.4644 H   0  0  0  0  0  0  0  0  0  0  0  0
    5.3970   -5.4972   -4.8736 H   0  0  0  0  0  0  0  0  0  0  0  0
    6.1674   -8.0154   -1.6340 H   0  0  0  0  0  0  0  0  0  0  0  0
    7.8175   -7.9306   -2.2799 H   0  0  0  0  0  0  0  0  0  0  0  0
    6.8921   -9.4459   -2.3924 H   0  0  0  0  0  0  0  0  0  0  0  0
    3.6526   -8.0503   -3.6651 H   0  0  0  0  0  0  0  0  0  0  0  0
    4.3658   -9.5703   -4.2607 H   0  0  0  0  0  0  0  0  0  0  0  0
    4.0103   -8.2515   -5.3983 H   0  0  0  0  0  0  0  0  0  0  0  0
    8.8925   -6.9662   -5.1897 H   0  0  0  0  0  0  0  0  0  0  0  0
    9.3788   -8.3912   -6.1366 H   0  0  0  0  0  0  0  0  0  0  0  0
    9.1072   -8.5271   -4.3832 H   0  0  0  0  0  0  0  0  0  0  0  0
    7.8252   -5.9611   -6.9610 H   0  0  0  0  0  0  0  0  0  0  0  0
    6.0697   -5.7611   -6.9600 H   0  0  0  0  0  0  0  0  0  0  0  0
    6.8914   -6.3218   -8.4224 H   0  0  0  0  0  0  0  0  0  0  0  0
    5.5630   -7.7437   -9.3839 H   0  0  0  0  0  0  0  0  0  0  0  0
    4.4832   -9.0767   -8.9297 H   0  0  0  0  0  0  0  0  0  0  0  0
    6.0280   -9.4290   -9.7121 H   0  0  0  0  0  0  0  0  0  0  0  0
    6.2673  -11.6329   -8.4607 H   0  0  0  0  0  0  0  0  0  0  0  0
    4.7706  -11.4450   -7.5396 H   0  0  0  0  0  0  0  0  0  0  0  0
    6.1545  -12.2819   -6.8088 H   0  0  0  0  0  0  0  0  0  0  0  0
    7.5612  -11.9138   -5.1992 H   0  0  0  0  0  0  0  0  0  0  0  0
    6.6841  -11.0656   -3.9191 H   0  0  0  0  0  0  0  0  0  0  0  0
    8.3798  -10.6720   -4.2346 H   0  0  0  0  0  0  0  0  0  0  0  0
    2.4214    0.1877   -0.5687 H   0  0  0  0  0  0  0  0  0  0  0  0
    1.4194   -1.0076    0.2726 H   0  0  0  0  0  0  0  0  0  0  0  0
    2.2056   -1.4269   -1.2549 H   0  0  0  0  0  0  0  0  0  0  0  0
    1.5341   -3.1009    1.1437 H   0  0  0  0  0  0  0  0  0  0  0  0
    2.2497   -3.3770    2.7490 H   0  0  0  0  0  0  0  0  0  0  0  0
    2.7272   -4.3928    1.3841 H   0  0  0  0  0  0  0  0  0  0  0  0
  1  2  1  0
  1 33  1  0
  1 34  1  0
  1 35  1  0
  2  3  2  0
  2 31  1  0
  3  4  1  0
  3  5  1  0
  4 36  1  0
  4 37  1  0
  4 38  1  0
  5  6  1  1
  5  7  1  0
  5 29  1  0
  6 39  1  0
  6 40  1  0
  6 41  1  0
  7  8  1  6
  7  9  1  0
  7 10  1  0
  8 42  1  0
  8 43  1  0
  8 44  1  0
  9 45  1  0
  9 46  1  0
  9 47  1  0
 10 11  1  0
 10 48  1  0
 10 49  1  0
 11 12  1  0
 11 13  1  0
 11 50  1  6
 12 51  1  0
 12 52  1  0
 12 53  1  0
 13 14  1  0
 13 15  1  0
 13 54  1  1
 14 55  1  0
 14 56  1  0
 14 57  1  0
 16 15  1  1
 15 58  1  0
 15 59  1  0
 16 17  1  0
 16 18  1  0
 16 19  1  0
 17 60  1  0
 17 61  1  0
 17 62  1  0
 18 63  1  0
 18 64  1  0
 18 65  1  0
 19 20  1  1
 19 21  1  0
 19 27  1  0
 20 66  1  0
 20 67  1  0
 20 68  1  0
 21 22  1  0
 21 23  2  0
 22 69  1  0
 22 70  1  0
 22 71  1  0
 23 24  1  0
 23 25  1  0
 24 72  1  0
 24 73  1  0
 24 74  1  0
 25 26  1  0
 25 27  2  0
 26 75  1  0
 26 76  1  0
 26 77  1  0
 27 28  1  0
 28 78  1  0
 28 79  1  0
 28 80  1  0
 29 30  1  0
 29 31  2  0
 30 81  1  0
 30 82  1  0
 30 83  1  0
 31 32  1  0
 32 84  1  0
 32 85  1  0
 32 86  1  0
M  END

