
     RDKit          3D

 42 42  0  0  0  0  0  0  0  0999 V2000
    2.4254   -0.8378    1.6779 C   0  0  0  0  0  0  0  0  0  0  0  0
    3.1420   -0.4414    0.7846 C   0  0  0  0  0  0  0  0  0  0  0  0
    4.0216    0.0679   -0.2807 C   0  0  1  0  0  0  0  0  0  0  0  0
    4.3629    1.4631   -0.0129 N   0  0  0  0  0  0  0  0  0  0  0  0
    3.9985    2.4653   -0.8934 C   0  0  0  0  0  0  0  0  0  0  0  0
    3.5110    2.2301   -1.9878 O   0  0  0  0  0  0  0  0  0  0  0  0
    4.2688    3.7374   -0.4116 N   0  0  0  0  0  0  0  0  0  0  0  0
    4.0455    4.9796   -1.0385 C   0  0  0  0  0  0  0  0  0  0  0  0
    3.5785    5.0816   -2.3582 C   0  0  0  0  0  0  0  0  0  0  0  0
    3.3680    6.3357   -2.9456 C   0  0  0  0  0  0  0  0  0  0  0  0
    2.8638    6.5005   -4.3585 C   0  0  0  0  0  0  0  0  0  0  0  0
    2.3446    5.3837   -4.9513 N   0  0  0  0  0  0  0  0  0  0  0  0
    2.9229    7.5728   -4.9388 O   0  0  0  0  0  0  0  0  0  0  0  0
    3.6478    7.4983   -2.2188 C   0  0  0  0  0  0  0  0  0  0  0  0
    4.1125    7.3946   -0.9096 C   0  0  0  0  0  0  0  0  0  0  0  0
    4.3173    6.1538   -0.2921 C   0  0  0  0  0  0  0  0  0  0  0  0
    4.8175    6.0760    1.1296 C   0  0  0  0  0  0  0  0  0  0  0  0
    5.2782   -0.8401   -0.5402 C   0  0  1  0  0  0  0  0  0  0  0  0
    4.7938   -2.2509   -0.9182 C   0  0  0  0  0  0  0  0  0  0  0  0
    6.0761   -0.2443   -1.7130 C   0  0  0  0  0  0  0  0  0  0  0  0
    6.1664   -0.9079    0.7134 C   0  0  0  0  0  0  0  0  0  0  0  0
    1.7804   -1.1922    2.4600 H   0  0  0  0  0  0  0  0  0  0  0  0
    3.4447    0.0933   -1.2200 H   0  0  0  0  0  0  0  0  0  0  0  0
    4.5852    1.7005    0.9466 H   0  0  0  0  0  0  0  0  0  0  0  0
    4.6964    3.7911    0.5033 H   0  0  0  0  0  0  0  0  0  0  0  0
    3.4103    4.1571   -2.9038 H   0  0  0  0  0  0  0  0  0  0  0  0
    2.1249    4.5454   -4.4314 H   0  0  0  0  0  0  0  0  0  0  0  0
    1.9520    5.4947   -5.8782 H   0  0  0  0  0  0  0  0  0  0  0  0
    3.4945    8.4657   -2.6991 H   0  0  0  0  0  0  0  0  0  0  0  0
    4.3250    8.3031   -0.3390 H   0  0  0  0  0  0  0  0  0  0  0  0
    4.9556    7.0803    1.5533 H   0  0  0  0  0  0  0  0  0  0  0  0
    5.7932    5.5604    1.2007 H   0  0  0  0  0  0  0  0  0  0  0  0
    4.1119    5.5379    1.7882 H   0  0  0  0  0  0  0  0  0  0  0  0
    4.1503   -2.2245   -1.8131 H   0  0  0  0  0  0  0  0  0  0  0  0
    4.2209   -2.7174   -0.1026 H   0  0  0  0  0  0  0  0  0  0  0  0
    5.6532   -2.9019   -1.1446 H   0  0  0  0  0  0  0  0  0  0  0  0
    5.4547   -0.1509   -2.6172 H   0  0  0  0  0  0  0  0  0  0  0  0
    6.9362   -0.8895   -1.9533 H   0  0  0  0  0  0  0  0  0  0  0  0
    6.4639    0.7561   -1.4697 H   0  0  0  0  0  0  0  0  0  0  0  0
    5.6220   -1.3310    1.5723 H   0  0  0  0  0  0  0  0  0  0  0  0
    6.5371    0.0909    0.9968 H   0  0  0  0  0  0  0  0  0  0  0  0
    7.0481   -1.5417    0.5271 H   0  0  0  0  0  0  0  0  0  0  0  0
  1  2  3  0
  1 22  1  0
  2  3  1  0
  3  4  1  0
  3 18  1  0
  3 23  1  6
  4  5  1  0
  4 24  1  0
  5  6  2  0
  5  7  1  0
  7  8  1  0
  7 25  1  0
  8  9  2  0
  8 16  1  0
  9 10  1  0
  9 26  1  0
 10 11  1  0
 10 14  2  0
 11 12  1  0
 11 13  2  0
 12 27  1  0
 12 28  1  0
 14 15  1  0
 14 29  1  0
 15 16  2  0
 15 30  1  0
 16 17  1  0
 17 31  1  0
 17 32  1  0
 17 33  1  0
 18 19  1  6
 18 20  1  0
 18 21  1  0
 19 34  1  0
 19 35  1  0
 19 36  1  0
 20 37  1  0
 20 38  1  0
 20 39  1  0
 21 40  1  0
 21 41  1  0
 21 42  1  0
M  END

