
     RDKit          3D

 54 57  0  0  0  0  0  0  0  0999 V2000
    1.7807    0.9017    0.3426 C   0  0  0  0  0  0  0  0  0  0  0  0
    2.8499    0.0362    0.0279 O   0  0  0  0  0  0  0  0  0  0  0  0
    3.2756   -0.0617   -1.2523 C   0  0  0  0  0  0  0  0  0  0  0  0
    2.7224    0.6464   -2.3329 C   0  0  0  0  0  0  0  0  0  0  0  0
    3.2375    0.4665   -3.6171 C   0  0  0  0  0  0  0  0  0  0  0  0
    4.3024   -0.4152   -3.8649 C   0  0  0  0  0  0  0  0  0  0  0  0
    4.8276   -0.5666   -5.2325 C   0  0  0  0  0  0  0  0  0  0  0  0
    4.8690    0.4719   -6.0568 N   0  0  0  0  0  0  0  0  0  0  0  0
    5.3940    0.0181   -7.2198 N   0  0  0  0  0  0  0  0  0  0  0  0
    5.5712    0.9075   -8.3168 C   0  0  0  0  0  0  0  0  0  0  0  0
    4.8628    2.1168   -8.3395 C   0  0  0  0  0  0  0  0  0  0  0  0
    5.0227    2.9858   -9.4192 C   0  0  0  0  0  0  0  0  0  0  0  0
    5.8788    2.6596  -10.4759 C   0  0  0  0  0  0  0  0  0  0  0  0
    6.5875    1.4553  -10.4416 C   0  0  0  0  0  0  0  0  0  0  0  0
    6.4442    0.5796   -9.3638 C   0  0  0  0  0  0  0  0  0  0  0  0
    5.6942   -1.2997   -7.1631 C   0  0  0  0  0  0  0  0  0  0  0  0
    5.3401   -1.7516   -5.8873 C   0  0  0  0  0  0  0  0  0  0  0  0
    5.3680   -3.0855   -5.3627 C   0  0  0  0  0  0  0  0  0  0  0  0
    5.9367   -4.2072   -5.8873 C   0  0  0  0  0  0  0  0  0  0  0  0
    6.8650   -4.3850   -7.3753 S   0  0  0  0  0  0  0  0  0  0  0  0
    7.1352   -6.1052   -7.0921 C   0  0  0  0  0  0  0  0  0  0  0  0
    7.9931   -7.0424   -8.1318 S   0  0  0  0  0  0  0  0  0  0  0  0
    6.5363   -6.4986   -5.8942 N   0  0  0  0  0  0  0  0  0  0  0  0
    6.8221   -7.8523   -5.3690 C   0  0  1  0  0  0  0  0  0  0  0  0
    8.1223   -7.8800   -4.5281 C   0  0  0  0  0  0  0  0  0  0  0  0
    7.9704   -7.3029   -3.1237 C   0  0  0  0  0  0  0  0  0  0  0  0
    8.3425   -6.2021   -2.8182 O   0  0  0  0  0  0  0  0  0  0  0  0
    7.3637   -8.1078   -2.2281 O   0  0  0  0  0  0  0  0  0  0  0  0
    5.7142   -8.6774   -4.6643 C   0  0  0  0  0  0  0  0  0  0  0  0
    6.0181   -9.8036   -4.3373 O   0  0  0  0  0  0  0  0  0  0  0  0
    4.5150   -8.1763   -4.4634 O   0  0  0  0  0  0  0  0  0  0  0  0
    5.8365   -5.5011   -5.2053 C   0  0  0  0  0  0  0  0  0  0  0  0
    5.1951   -5.7166   -4.1811 O   0  0  0  0  0  0  0  0  0  0  0  0
    4.8563   -1.1070   -2.7669 C   0  0  0  0  0  0  0  0  0  0  0  0
    4.3519   -0.9368   -1.4837 C   0  0  0  0  0  0  0  0  0  0  0  0
    1.6170    0.8143    1.4248 H   0  0  0  0  0  0  0  0  0  0  0  0
    0.8524    0.6155   -0.1837 H   0  0  0  0  0  0  0  0  0  0  0  0
    2.0185    1.9530    0.1002 H   0  0  0  0  0  0  0  0  0  0  0  0
    1.8897    1.3343   -2.1860 H   0  0  0  0  0  0  0  0  0  0  0  0
    2.8017    1.0166   -4.4532 H   0  0  0  0  0  0  0  0  0  0  0  0
    4.2015    2.3572   -7.5080 H   0  0  0  0  0  0  0  0  0  0  0  0
    4.4683    3.9273   -9.4342 H   0  0  0  0  0  0  0  0  0  0  0  0
    5.9984    3.3435  -11.3192 H   0  0  0  0  0  0  0  0  0  0  0  0
    7.2700    1.1958  -11.2544 H   0  0  0  0  0  0  0  0  0  0  0  0
    7.0286   -0.3413   -9.3363 H   0  0  0  0  0  0  0  0  0  0  0  0
    6.0728   -1.8364   -8.0275 H   0  0  0  0  0  0  0  0  0  0  0  0
    4.8593   -3.2518   -4.4086 H   0  0  0  0  0  0  0  0  0  0  0  0
    7.0365   -8.4387   -6.2759 H   0  0  0  0  0  0  0  0  0  0  0  0
    8.9006   -7.3120   -5.0527 H   0  0  0  0  0  0  0  0  0  0  0  0
    8.4388   -8.9317   -4.4715 H   0  0  0  0  0  0  0  0  0  0  0  0
    7.1007   -8.9540   -2.6313 H   0  0  0  0  0  0  0  0  0  0  0  0
    4.5832   -7.1880   -4.3472 H   0  0  0  0  0  0  0  0  0  0  0  0
    5.7181   -1.7624   -2.9079 H   0  0  0  0  0  0  0  0  0  0  0  0
    4.7842   -1.4656   -0.6323 H   0  0  0  0  0  0  0  0  0  0  0  0
  1  2  1  0
  1 36  1  0
  1 37  1  0
  1 38  1  0
  2  3  1  0
  3  4  2  0
  3 35  1  0
  4  5  1  0
  4 39  1  0
  5  6  2  0
  5 40  1  0
  6  7  1  0
  6 34  1  0
  7  8  2  0
  7 17  1  0
  8  9  1  0
  9 10  1  0
  9 16  1  0
 10 11  2  0
 10 15  1  0
 11 12  1  0
 11 41  1  0
 12 13  2  0
 12 42  1  0
 13 14  1  0
 13 43  1  0
 14 15  2  0
 14 44  1  0
 15 45  1  0
 16 17  2  0
 16 46  1  0
 17 18  1  0
 18 19  2  0
 18 47  1  0
 19 20  1  0
 19 32  1  0
 20 21  1  0
 21 22  2  0
 21 23  1  0
 23 24  1  0
 23 32  1  0
 24 25  1  0
 24 29  1  0
 24 48  1  6
 25 26  1  0
 25 49  1  0
 25 50  1  0
 26 27  2  0
 26 28  1  0
 28 51  1  0
 29 30  2  0
 29 31  1  0
 31 52  1  0
 32 33  2  0
 34 35  2  0
 34 53  1  0
 35 54  1  0
M  END

