
     RDKit          3D

 55 59  0  0  0  0  0  0  0  0999 V2000
    1.5768    0.4604   -0.2045 C   0  0  0  0  0  0  0  0  0  0  0  0
    2.4312    0.2413   -1.3548 N   0  0  0  0  0  0  0  0  0  0  0  0
    2.7767    1.3552   -2.2155 C   0  0  0  0  0  0  0  0  0  0  0  0
    2.9144   -1.0198   -1.6303 C   0  0  0  0  0  0  0  0  0  0  0  0
    3.7520   -1.2674   -2.7483 C   0  0  0  0  0  0  0  0  0  0  0  0
    4.2304   -2.5446   -3.0114 C   0  0  0  0  0  0  0  0  0  0  0  0
    3.9161   -3.6523   -2.1965 C   0  0  0  0  0  0  0  0  0  0  0  0
    4.4516   -4.9617   -2.5326 C   0  0  0  0  0  0  0  0  0  0  0  0
    4.2487   -6.1322   -1.8791 C   0  0  0  0  0  0  0  0  0  0  0  0
    4.8602   -7.3858   -2.3279 C   0  0  0  0  0  0  0  0  0  0  0  0
    5.6519   -7.3886   -3.3623 N   0  0  0  0  0  0  0  0  0  0  0  0
    6.2320   -8.5596   -3.7770 C   0  0  0  0  0  0  0  0  0  0  0  0
    7.0903   -8.5517   -4.9030 C   0  0  0  0  0  0  0  0  0  0  0  0
    7.6890   -9.7255   -5.3359 C   0  0  0  0  0  0  0  0  0  0  0  0
    7.4560  -10.9445   -4.6665 C   0  0  0  0  0  0  0  0  0  0  0  0
    6.6170  -10.9730   -3.5605 C   0  0  0  0  0  0  0  0  0  0  0  0
    6.0040   -9.7894   -3.1117 C   0  0  0  0  0  0  0  0  0  0  0  0
    5.1117   -9.8192   -1.9471 C   0  0  0  0  0  0  0  0  0  0  0  0
    4.8326  -10.8109   -1.2997 O   0  0  0  0  0  0  0  0  0  0  0  0
    4.5643   -8.5528   -1.6056 N   0  0  0  0  0  0  0  0  0  0  0  0
    3.6587   -8.5448   -0.4831 C   0  0  0  0  0  0  0  0  0  0  0  0
    2.3115   -8.7461   -0.7006 C   0  0  0  0  0  0  0  0  0  0  0  0
    1.4013   -8.7550    0.3831 C   0  0  0  0  0  0  0  0  0  0  0  0
    1.8554   -8.5673    1.6705 C   0  0  0  0  0  0  0  0  0  0  0  0
    3.2388   -8.3637    1.9330 C   0  0  0  0  0  0  0  0  0  0  0  0
    3.7313   -8.1703    3.2545 C   0  0  0  0  0  0  0  0  0  0  0  0
    5.0756   -7.9761    3.4890 C   0  0  0  0  0  0  0  0  0  0  0  0
    5.9915   -7.9664    2.4074 C   0  0  0  0  0  0  0  0  0  0  0  0
    5.5497   -8.1500    1.1138 C   0  0  0  0  0  0  0  0  0  0  0  0
    4.1689   -8.3537    0.8384 C   0  0  0  0  0  0  0  0  0  0  0  0
    3.0823   -3.3999   -1.0844 C   0  0  0  0  0  0  0  0  0  0  0  0
    2.5947   -2.1328   -0.8042 C   0  0  0  0  0  0  0  0  0  0  0  0
    1.2968    1.5203   -0.1555 H   0  0  0  0  0  0  0  0  0  0  0  0
    2.0806    0.2017    0.7450 H   0  0  0  0  0  0  0  0  0  0  0  0
    0.6444   -0.1312   -0.2585 H   0  0  0  0  0  0  0  0  0  0  0  0
    2.3040    2.2698   -1.8359 H   0  0  0  0  0  0  0  0  0  0  0  0
    2.4295    1.2029   -3.2541 H   0  0  0  0  0  0  0  0  0  0  0  0
    3.8677    1.5305   -2.2521 H   0  0  0  0  0  0  0  0  0  0  0  0
    4.0331   -0.4563   -3.4186 H   0  0  0  0  0  0  0  0  0  0  0  0
    4.8740   -2.6970   -3.8826 H   0  0  0  0  0  0  0  0  0  0  0  0
    5.0938   -5.0088   -3.4181 H   0  0  0  0  0  0  0  0  0  0  0  0
    3.6189   -6.1721   -0.9918 H   0  0  0  0  0  0  0  0  0  0  0  0
    7.2603   -7.5996   -5.4094 H   0  0  0  0  0  0  0  0  0  0  0  0
    8.3499   -9.7055   -6.2069 H   0  0  0  0  0  0  0  0  0  0  0  0
    7.9346  -11.8614   -5.0186 H   0  0  0  0  0  0  0  0  0  0  0  0
    6.4115  -11.8974   -3.0169 H   0  0  0  0  0  0  0  0  0  0  0  0
    1.9544   -8.9015   -1.7206 H   0  0  0  0  0  0  0  0  0  0  0  0
    0.3382   -8.9159    0.1897 H   0  0  0  0  0  0  0  0  0  0  0  0
    1.1565   -8.5757    2.5112 H   0  0  0  0  0  0  0  0  0  0  0  0
    3.0199   -8.1807    4.0849 H   0  0  0  0  0  0  0  0  0  0  0  0
    5.4398   -7.8307    4.5091 H   0  0  0  0  0  0  0  0  0  0  0  0
    7.0562   -7.8146    2.6014 H   0  0  0  0  0  0  0  0  0  0  0  0
    6.2621   -8.1445    0.2874 H   0  0  0  0  0  0  0  0  0  0  0  0
    2.8068   -4.2187   -0.4158 H   0  0  0  0  0  0  0  0  0  0  0  0
    1.9570   -2.0033    0.0693 H   0  0  0  0  0  0  0  0  0  0  0  0
  1  2  1  0
  1 33  1  0
  1 34  1  0
  1 35  1  0
  2  3  1  0
  2  4  1  0
  3 36  1  0
  3 37  1  0
  3 38  1  0
  4  5  2  0
  4 32  1  0
  5  6  1  0
  5 39  1  0
  6  7  2  0
  6 40  1  0
  7  8  1  0
  7 31  1  0
  8  9  2  0
  8 41  1  0
  9 10  1  0
  9 42  1  0
 10 11  2  0
 10 20  1  0
 11 12  1  0
 12 13  2  0
 12 17  1  0
 13 14  1  0
 13 43  1  0
 14 15  2  0
 14 44  1  0
 15 16  1  0
 15 45  1  0
 16 17  2  0
 16 46  1  0
 17 18  1  0
 18 19  2  0
 18 20  1  0
 20 21  1  0
 21 22  2  0
 21 30  1  0
 22 23  1  0
 22 47  1  0
 23 24  2  0
 23 48  1  0
 24 25  1  0
 24 49  1  0
 25 26  1  0
 25 30  2  0
 26 27  2  0
 26 50  1  0
 27 28  1  0
 27 51  1  0
 28 29  2  0
 28 52  1  0
 29 30  1  0
 29 53  1  0
 31 32  2  0
 31 54  1  0
 32 55  1  0
M  END

