
     RDKit          3D

 36 37  0  0  0  0  0  0  0  0999 V2000
    6.9138   -2.4296    1.5899 C   0  0  0  0  0  0  0  0  0  0  0  0
    6.8266   -2.9727    0.1620 C   0  0  0  0  0  0  0  0  0  0  0  0
    5.9070   -2.1794   -0.7792 C   0  0  0  0  0  0  0  0  0  0  0  0
    6.3607   -0.7599   -1.0669 C   0  0  1  0  0  0  0  0  0  0  0  0
    5.4053    0.2526   -1.6522 C   0  0  0  0  0  0  0  0  0  0  0  0
    5.9023    0.4149   -0.2360 C   0  0  2  0  0  0  0  0  0  0  0  0
    6.8592    1.5264    0.1562 C   0  0  0  0  0  0  0  0  0  0  0  0
    6.1680    2.8038    0.6032 C   0  0  1  0  0  0  0  0  0  0  0  0
    6.9179    4.1066    0.7511 C   0  0  0  0  0  0  0  0  0  0  0  0
    5.8351    3.9736   -0.3033 C   0  0  1  0  0  0  0  0  0  0  0  0
    6.2386    3.9754   -1.7674 C   0  0  0  0  0  0  0  0  0  0  0  0
    4.5165    4.6883   -0.0310 C   0  0  0  0  0  0  0  0  0  0  0  0
    4.5716    6.0885   -0.4411 N   0  0  0  0  0  0  0  0  0  0  0  0
    7.5575   -3.0654    2.2190 H   0  0  0  0  0  0  0  0  0  0  0  0
    5.9189   -2.3921    2.0656 H   0  0  0  0  0  0  0  0  0  0  0  0
    7.3298   -1.4101    1.6151 H   0  0  0  0  0  0  0  0  0  0  0  0
    6.4763   -4.0196    0.1933 H   0  0  0  0  0  0  0  0  0  0  0  0
    7.8404   -3.0113   -0.2774 H   0  0  0  0  0  0  0  0  0  0  0  0
    4.8835   -2.1546   -0.3612 H   0  0  0  0  0  0  0  0  0  0  0  0
    5.8275   -2.7268   -1.7363 H   0  0  0  0  0  0  0  0  0  0  0  0
    7.3930   -0.6922   -1.4359 H   0  0  0  0  0  0  0  0  0  0  0  0
    4.3656   -0.0543   -1.8051 H   0  0  0  0  0  0  0  0  0  0  0  0
    5.7835    0.9405   -2.4137 H   0  0  0  0  0  0  0  0  0  0  0  0
    5.1697    0.1711    0.5439 H   0  0  0  0  0  0  0  0  0  0  0  0
    7.5511    1.7308   -0.6772 H   0  0  0  0  0  0  0  0  0  0  0  0
    7.4940    1.1695    0.9895 H   0  0  0  0  0  0  0  0  0  0  0  0
    5.4203    2.6202    1.3858 H   0  0  0  0  0  0  0  0  0  0  0  0
    7.9569    4.1354    0.4065 H   0  0  0  0  0  0  0  0  0  0  0  0
    6.7282    4.7208    1.6379 H   0  0  0  0  0  0  0  0  0  0  0  0
    7.2341    3.5370   -1.9292 H   0  0  0  0  0  0  0  0  0  0  0  0
    6.2507    5.0092   -2.1436 H   0  0  0  0  0  0  0  0  0  0  0  0
    5.5138    3.4089   -2.3763 H   0  0  0  0  0  0  0  0  0  0  0  0
    4.2517    4.5411    1.0390 H   0  0  0  0  0  0  0  0  0  0  0  0
    3.7184    4.1946   -0.6151 H   0  0  0  0  0  0  0  0  0  0  0  0
    5.2334    6.5998    0.1443 H   0  0  0  0  0  0  0  0  0  0  0  0
    3.6650    6.5376   -0.3159 H   0  0  0  0  0  0  0  0  0  0  0  0
  1  2  1  0
  1 14  1  0
  1 15  1  0
  1 16  1  0
  2  3  1  0
  2 17  1  0
  2 18  1  0
  3  4  1  0
  3 19  1  0
  3 20  1  0
  4  5  1  0
  4  6  1  0
  4 21  1  6
  5  6  1  0
  5 22  1  0
  5 23  1  0
  6  7  1  0
  6 24  1  1
  7  8  1  0
  7 25  1  0
  7 26  1  0
  8  9  1  0
  8 10  1  0
  8 27  1  1
  9 10  1  0
  9 28  1  0
  9 29  1  0
 10 11  1  6
 10 12  1  0
 11 30  1  0
 11 31  1  0
 11 32  1  0
 12 13  1  0
 12 33  1  0
 12 34  1  0
 13 35  1  0
 13 36  1  0
M  END

