
     RDKit          3D

 34 36  0  0  0  0  0  0  0  0999 V2000
    1.0694    0.4703    0.1701 C   0  0  0  0  0  0  0  0  0  0  0  0
    2.5892    0.1889    0.1298 C   0  0  1  0  0  0  0  0  0  0  0  0
    3.1177    0.3231   -1.3207 C   0  0  0  0  0  0  0  0  0  0  0  0
    3.6541   -0.7707   -1.9828 C   0  0  0  0  0  0  0  0  0  0  0  0
    4.1196   -0.7117   -3.3186 C   0  0  0  0  0  0  0  0  0  0  0  0
    4.0539    0.4647   -4.0215 C   0  0  0  0  0  0  0  0  0  0  0  0
    3.5307    1.6335   -3.4041 C   0  0  0  0  0  0  0  0  0  0  0  0
    3.4780    2.8571   -4.1304 C   0  0  0  0  0  0  0  0  0  0  0  0
    2.9896    4.0110   -3.5601 C   0  0  0  0  0  0  0  0  0  0  0  0
    2.5317    3.9787   -2.2231 C   0  0  0  0  0  0  0  0  0  0  0  0
    2.5657    2.8066   -1.4943 C   0  0  0  0  0  0  0  0  0  0  0  0
    3.0587    1.5813   -2.0419 C   0  0  0  0  0  0  0  0  0  0  0  0
    3.4362    1.0592    1.1145 C   0  0  0  0  0  0  0  0  0  0  0  0
    4.7108    0.2372    1.3502 C   0  0  0  0  0  0  0  0  0  0  0  0
    4.2068   -1.2117    1.4533 C   0  0  2  0  0  0  0  0  0  0  0  0
    5.3866   -2.4116    0.7428 Cl  0  0  0  0  0  0  0  0  0  0  0  0
    2.8213   -1.2156    0.7690 C   0  0  0  0  0  0  0  0  0  0  0  0
    0.7859    1.4279   -0.2828 H   0  0  0  0  0  0  0  0  0  0  0  0
    0.7043    0.4651    1.2104 H   0  0  0  0  0  0  0  0  0  0  0  0
    0.5295   -0.3177   -0.3794 H   0  0  0  0  0  0  0  0  0  0  0  0
    3.7562   -1.7237   -1.4681 H   0  0  0  0  0  0  0  0  0  0  0  0
    4.5329   -1.6130   -3.7783 H   0  0  0  0  0  0  0  0  0  0  0  0
    4.4064    0.5248   -5.0546 H   0  0  0  0  0  0  0  0  0  0  0  0
    3.8406    2.8608   -5.1621 H   0  0  0  0  0  0  0  0  0  0  0  0
    2.9568    4.9425   -4.1306 H   0  0  0  0  0  0  0  0  0  0  0  0
    2.1466    4.8900   -1.7581 H   0  0  0  0  0  0  0  0  0  0  0  0
    2.2030    2.8381   -0.4704 H   0  0  0  0  0  0  0  0  0  0  0  0
    2.8736    1.1756    2.0579 H   0  0  0  0  0  0  0  0  0  0  0  0
    3.6673    2.0666    0.7469 H   0  0  0  0  0  0  0  0  0  0  0  0
    5.2799    0.5512    2.2381 H   0  0  0  0  0  0  0  0  0  0  0  0
    5.3784    0.3276    0.4803 H   0  0  0  0  0  0  0  0  0  0  0  0
    4.1211   -1.5332    2.4986 H   0  0  0  0  0  0  0  0  0  0  0  0
    2.0626   -1.3390    1.5579 H   0  0  0  0  0  0  0  0  0  0  0  0
    2.6777   -2.0592    0.0836 H   0  0  0  0  0  0  0  0  0  0  0  0
  2  1  1  6
  1 18  1  0
  1 19  1  0
  1 20  1  0
  2  3  1  0
  2 13  1  0
  2 17  1  0
  3  4  2  0
  3 12  1  0
  4  5  1  0
  4 21  1  0
  5  6  2  0
  5 22  1  0
  6  7  1  0
  6 23  1  0
  7  8  1  0
  7 12  2  0
  8  9  2  0
  8 24  1  0
  9 10  1  0
  9 25  1  0
 10 11  2  0
 10 26  1  0
 11 12  1  0
 11 27  1  0
 13 14  1  0
 13 28  1  0
 13 29  1  0
 14 15  1  0
 14 30  1  0
 14 31  1  0
 15 16  1  0
 15 17  1  0
 15 32  1  1
 17 33  1  0
 17 34  1  0
M  END

