
     RDKit          3D

 66 69  0  0  0  0  0  0  0  0999 V2000
    5.3780   -1.2857    0.9743 C   0  0  0  0  0  0  0  0  0  0  0  0
    4.4699   -0.2409    1.6291 C   0  0  1  0  0  0  0  0  0  0  0  0
    3.4209   -0.5553    1.4224 H   0  0  0  0  0  0  0  0  0  0  0  0
    4.5986   -0.2132    3.1683 C   0  0  0  0  0  0  0  0  0  0  0  0
    5.9749    0.0964    3.7696 C   0  0  1  0  0  0  0  0  0  0  0  0
    6.4648    1.5530    3.6755 C   0  0  0  0  0  0  0  0  0  0  0  0
    7.6452    1.6172    4.6620 C   0  0  0  0  0  0  0  0  0  0  0  0
    7.3131    0.5826    5.7771 C   0  0  0  0  0  0  0  0  0  0  0  0
    6.0505   -0.1678    5.2881 C   0  0  0  0  0  0  0  0  0  0  0  0
    4.7305    1.0640    1.0143 N   0  0  0  0  0  0  0  0  0  0  0  0
    3.6098    1.9979    1.0773 C   0  0  0  0  0  0  0  0  0  0  0  0
    3.8902    3.3099    0.3677 C   0  0  0  0  0  0  0  0  0  0  0  0
    3.7695    4.5194    1.0688 C   0  0  0  0  0  0  0  0  0  0  0  0
    4.0273    5.7550    0.4701 C   0  0  0  0  0  0  0  0  0  0  0  0
    4.4213    5.8100   -0.8681 C   0  0  0  0  0  0  0  0  0  0  0  0
    4.5333    4.6241   -1.5943 C   0  0  0  0  0  0  0  0  0  0  0  0
    4.2690    3.3842   -0.9925 C   0  0  0  0  0  0  0  0  0  0  0  0
    4.4445    2.1862   -1.7605 N   0  0  0  0  0  0  0  0  0  0  0  0
    3.1670    1.4059   -2.5678 S   0  0  1  0  0  0  0  0  0  0  0  0
    3.7734    0.1831   -3.0930 O   0  0  0  0  0  0  0  0  0  0  0  0
    2.0316    1.3972   -1.6468 O   0  0  0  0  0  0  0  0  0  0  0  0
    2.7177    2.4343   -3.9630 C   0  0  0  0  0  0  0  0  0  0  0  0
    3.3570    2.2487   -5.1939 C   0  0  0  0  0  0  0  0  0  0  0  0
    3.0322    3.0592   -6.2792 C   0  0  0  0  0  0  0  0  0  0  0  0
    2.0390    4.0501   -6.1435 C   0  0  0  0  0  0  0  0  0  0  0  0
    1.6918    4.9104   -7.1973 N   0  0  0  0  0  0  0  0  0  0  0  0
    1.6070    4.5454   -8.8557 S   0  0  1  0  0  0  0  0  0  0  0  0
    1.2301    5.8185   -9.4608 O   0  0  0  0  0  0  0  0  0  0  0  0
    2.8239    3.8221   -9.2097 O   0  0  0  0  0  0  0  0  0  0  0  0
    0.2376    3.4270   -9.0446 C   0  0  0  0  0  0  0  0  0  0  0  0
    0.3062    2.0165   -8.8159 C   0  0  0  0  0  0  0  0  0  0  0  0
   -0.9044    1.4166   -9.0407 C   0  0  0  0  0  0  0  0  0  0  0  0
   -2.1116    2.5569   -9.5375 S   0  0  0  0  0  0  0  0  0  0  0  0
   -1.0021    3.8685   -9.4437 C   0  0  0  0  0  0  0  0  0  0  0  0
    1.3935    4.2138   -4.9020 C   0  0  0  0  0  0  0  0  0  0  0  0
    1.7333    3.4166   -3.8126 C   0  0  0  0  0  0  0  0  0  0  0  0
    5.2393   -2.2771    1.4329 H   0  0  0  0  0  0  0  0  0  0  0  0
    6.4401   -1.0088    1.0678 H   0  0  0  0  0  0  0  0  0  0  0  0
    5.1457   -1.3758   -0.0999 H   0  0  0  0  0  0  0  0  0  0  0  0
    4.2675   -1.2023    3.5340 H   0  0  0  0  0  0  0  0  0  0  0  0
    3.8663    0.5061    3.5791 H   0  0  0  0  0  0  0  0  0  0  0  0
    6.7317   -0.5462    3.2812 H   0  0  0  0  0  0  0  0  0  0  0  0
    5.6503    2.2217    4.0115 H   0  0  0  0  0  0  0  0  0  0  0  0
    6.7176    1.8537    2.6501 H   0  0  0  0  0  0  0  0  0  0  0  0
    7.8077    2.6317    5.0591 H   0  0  0  0  0  0  0  0  0  0  0  0
    8.5773    1.3315    4.1466 H   0  0  0  0  0  0  0  0  0  0  0  0
    7.1400    1.0667    6.7513 H   0  0  0  0  0  0  0  0  0  0  0  0
    8.1538   -0.1142    5.9243 H   0  0  0  0  0  0  0  0  0  0  0  0
    5.1474    0.2532    5.7658 H   0  0  0  0  0  0  0  0  0  0  0  0
    6.0658   -1.2423    5.5331 H   0  0  0  0  0  0  0  0  0  0  0  0
    4.9610    0.9246    0.0325 H   0  0  0  0  0  0  0  0  0  0  0  0
    3.3972    2.2282    2.1329 H   0  0  0  0  0  0  0  0  0  0  0  0
    2.6791    1.5631    0.6569 H   0  0  0  0  0  0  0  0  0  0  0  0
    3.4812    4.4845    2.1227 H   0  0  0  0  0  0  0  0  0  0  0  0
    3.9318    6.6733    1.0549 H   0  0  0  0  0  0  0  0  0  0  0  0
    4.6380    6.7680   -1.3469 H   0  0  0  0  0  0  0  0  0  0  0  0
    4.8337    4.6492   -2.6451 H   0  0  0  0  0  0  0  0  0  0  0  0
    5.2810    2.1583   -2.3420 H   0  0  0  0  0  0  0  0  0  0  0  0
    4.1075    1.4628   -5.3002 H   0  0  0  0  0  0  0  0  0  0  0  0
    3.5433    2.9381   -7.2334 H   0  0  0  0  0  0  0  0  0  0  0  0
    1.0450    5.6628   -6.9739 H   0  0  0  0  0  0  0  0  0  0  0  0
    1.2101    1.4873   -8.5165 H   0  0  0  0  0  0  0  0  0  0  0  0
   -1.1553    0.3603   -8.9521 H   0  0  0  0  0  0  0  0  0  0  0  0
   -1.2896    4.8868   -9.6997 H   0  0  0  0  0  0  0  0  0  0  0  0
    0.6122    4.9710   -4.7952 H   0  0  0  0  0  0  0  0  0  0  0  0
    1.2219    3.5329   -2.8559 H   0  0  0  0  0  0  0  0  0  0  0  0
  1  2  1  0
  1 37  1  0
  1 38  1  0
  1 39  1  0
  2  3  1  1
  2  4  1  0
  2 10  1  0
  4  5  1  0
  4 40  1  0
  4 41  1  0
  5  6  1  0
  5  9  1  0
  5 42  1  6
  6  7  1  0
  6 43  1  0
  6 44  1  0
  7  8  1  0
  7 45  1  0
  7 46  1  0
  8  9  1  0
  8 47  1  0
  8 48  1  0
  9 49  1  0
  9 50  1  0
 10 11  1  0
 10 51  1  0
 11 12  1  0
 11 52  1  0
 11 53  1  0
 12 13  2  0
 12 17  1  0
 13 14  1  0
 13 54  1  0
 14 15  2  0
 14 55  1  0
 15 16  1  0
 15 56  1  0
 16 17  2  0
 16 57  1  0
 17 18  1  0
 19 18  1  1
 18 58  1  0
 19 20  2  0
 19 21  2  0
 19 22  1  0
 22 23  2  0
 22 36  1  0
 23 24  1  0
 23 59  1  0
 24 25  2  0
 24 60  1  0
 25 26  1  0
 25 35  1  0
 27 26  1  1
 26 61  1  0
 27 28  2  0
 27 29  2  0
 27 30  1  0
 30 31  1  0
 30 34  2  0
 31 32  2  0
 31 62  1  0
 32 33  1  0
 32 63  1  0
 33 34  1  0
 34 64  1  0
 35 36  2  0
 35 65  1  0
 36 66  1  0
M  END

