
     RDKit          3D

 28 30  0  0  0  0  0  0  0  0999 V2000
    1.2337    0.4992    0.5878 N   0  0  0  0  0  0  0  0  0  0  0  0
    2.0814    0.2643   -0.4877 N   0  0  0  0  0  0  0  0  0  0  0  0
    2.9395    1.1845   -1.0172 C   0  0  0  0  0  0  0  0  0  0  0  0
    2.9469    2.4077   -0.4338 N   0  0  0  0  0  0  0  0  0  0  0  0
    3.7650    3.3236   -0.9196 C   0  0  0  0  0  0  0  0  0  0  0  0
    3.8280    4.9571   -0.2019 S   0  0  0  0  0  0  0  0  0  0  0  0
    2.6255    4.8483    1.1174 C   0  0  0  0  0  0  0  0  0  0  0  0
    3.0308    4.4810    2.4082 C   0  0  0  0  0  0  0  0  0  0  0  0
    2.1056    4.4411    3.4532 C   0  0  0  0  0  0  0  0  0  0  0  0
    0.7781    4.7752    3.1897 C   0  0  0  0  0  0  0  0  0  0  0  0
   -0.1124    4.7404    4.1886 F   0  0  0  0  0  0  0  0  0  0  0  0
    0.3528    5.1482    1.9153 C   0  0  0  0  0  0  0  0  0  0  0  0
    1.2858    5.1854    0.8775 C   0  0  0  0  0  0  0  0  0  0  0  0
    4.6018    3.0308   -2.0117 C   0  0  0  0  0  0  0  0  0  0  0  0
    5.7714    4.0133   -2.8646 S   0  0  0  0  0  0  0  0  0  0  0  0
    6.1342    2.6756   -3.9244 C   0  0  0  0  0  0  0  0  0  0  0  0
    5.4196    1.5455   -3.6596 C   0  0  0  0  0  0  0  0  0  0  0  0
    4.5155    1.7185   -2.5489 C   0  0  0  0  0  0  0  0  0  0  0  0
    3.6850    0.7915   -2.0542 N   0  0  0  0  0  0  0  0  0  0  0  0
    0.6289    1.2945    0.3689 H   0  0  0  0  0  0  0  0  0  0  0  0
    1.7901    0.7987    1.3922 H   0  0  0  0  0  0  0  0  0  0  0  0
    2.0620   -0.6552   -0.9118 H   0  0  0  0  0  0  0  0  0  0  0  0
    4.0758    4.2249    2.5934 H   0  0  0  0  0  0  0  0  0  0  0  0
    2.3973    4.1593    4.4667 H   0  0  0  0  0  0  0  0  0  0  0  0
   -0.6953    5.4070    1.7536 H   0  0  0  0  0  0  0  0  0  0  0  0
    0.9744    5.4775   -0.1272 H   0  0  0  0  0  0  0  0  0  0  0  0
    6.8815    2.8157   -4.7055 H   0  0  0  0  0  0  0  0  0  0  0  0
    5.5080    0.6105   -4.2124 H   0  0  0  0  0  0  0  0  0  0  0  0
  1  2  1  0
  1 20  1  0
  1 21  1  0
  2  3  1  0
  2 22  1  0
  3  4  2  0
  3 19  1  0
  4  5  1  0
  5  6  1  0
  5 14  2  0
  6  7  1  0
  7  8  2  0
  7 13  1  0
  8  9  1  0
  8 23  1  0
  9 10  2  0
  9 24  1  0
 10 11  1  0
 10 12  1  0
 12 13  2  0
 12 25  1  0
 13 26  1  0
 14 15  1  0
 14 18  1  0
 15 16  1  0
 16 17  2  0
 16 27  1  0
 17 18  1  0
 17 28  1  0
 18 19  2  0
M  END

