
     RDKit          3D

 54 57  0  0  0  0  0  0  0  0999 V2000
    1.2045    0.2832   -0.3434 C   0  0  0  0  0  0  0  0  0  0  0  0
    0.3399    1.3123   -0.2117 C   0  0  0  0  0  0  0  0  0  0  0  0
   -1.1211    1.2334   -0.0809 C   0  0  0  0  0  0  0  0  0  0  0  0
   -1.8315    0.0150   -0.0800 C   0  0  0  0  0  0  0  0  0  0  0  0
   -3.2279   -0.0271    0.0474 C   0  0  0  0  0  0  0  0  0  0  0  0
   -3.8963   -1.3351    0.0397 C   0  0  0  0  0  0  0  0  0  0  0  0
   -5.2209   -1.5757    0.1477 C   0  0  0  0  0  0  0  0  0  0  0  0
   -5.8895   -2.8824    0.1401 C   0  0  0  0  0  0  0  0  0  0  0  0
   -5.2024   -4.1089    0.0124 C   0  0  0  0  0  0  0  0  0  0  0  0
   -5.8907   -5.3202    0.0115 C   0  0  0  0  0  0  0  0  0  0  0  0
   -7.2855   -5.3452    0.1381 C   0  0  0  0  0  0  0  0  0  0  0  0
   -7.9837   -4.1416    0.2657 C   0  0  0  0  0  0  0  0  0  0  0  0
   -7.2932   -2.9285    0.2664 C   0  0  0  0  0  0  0  0  0  0  0  0
   -3.9218    1.1939    0.1769 C   0  0  0  0  0  0  0  0  0  0  0  0
   -3.2540    2.4276    0.1802 C   0  0  0  0  0  0  0  0  0  0  0  0
   -4.0465    3.6567    0.3188 C   0  0  0  0  0  0  0  0  0  0  0  0
   -3.5870    4.9265    0.3379 C   0  0  0  0  0  0  0  0  0  0  0  0
   -4.3782    6.1551    0.4767 C   0  0  0  0  0  0  0  0  0  0  0  0
   -5.7826    6.1660    0.6189 C   0  0  0  0  0  0  0  0  0  0  0  0
   -6.4815    7.3644    0.7468 C   0  0  0  0  0  0  0  0  0  0  0  0
   -5.8009    8.5886    0.7368 C   0  0  0  0  0  0  0  0  0  0  0  0
   -4.4107    8.5988    0.5971 C   0  0  0  0  0  0  0  0  0  0  0  0
   -3.7113    7.3975    0.4691 C   0  0  0  0  0  0  0  0  0  0  0  0
   -1.8497    2.4250    0.0497 C   0  0  0  0  0  0  0  0  0  0  0  0
    2.6645    0.3613   -0.4740 C   0  0  0  0  0  0  0  0  0  0  0  0
    3.3828    1.5766   -0.4788 C   0  0  0  0  0  0  0  0  0  0  0  0
    4.7702    1.5895   -0.6060 C   0  0  0  0  0  0  0  0  0  0  0  0
    5.4834    0.3907   -0.7323 C   0  0  0  0  0  0  0  0  0  0  0  0
    4.7905   -0.8227   -0.7297 C   0  0  0  0  0  0  0  0  0  0  0  0
    3.4005   -0.8346   -0.6022 C   0  0  0  0  0  0  0  0  0  0  0  0
    0.8075   -0.7371   -0.3582 H   0  0  0  0  0  0  0  0  0  0  0  0
    0.7370    2.3325   -0.1966 H   0  0  0  0  0  0  0  0  0  0  0  0
   -1.2906   -0.9284   -0.1806 H   0  0  0  0  0  0  0  0  0  0  0  0
   -3.2155   -2.1859   -0.0669 H   0  0  0  0  0  0  0  0  0  0  0  0
   -5.9018   -0.7248    0.2542 H   0  0  0  0  0  0  0  0  0  0  0  0
   -4.1150   -4.1168   -0.0878 H   0  0  0  0  0  0  0  0  0  0  0  0
   -5.3353   -6.2565   -0.0888 H   0  0  0  0  0  0  0  0  0  0  0  0
   -7.8217   -6.2974    0.1371 H   0  0  0  0  0  0  0  0  0  0  0  0
   -9.0723   -4.1465    0.3652 H   0  0  0  0  0  0  0  0  0  0  0  0
   -7.8475   -1.9910    0.3667 H   0  0  0  0  0  0  0  0  0  0  0  0
   -5.0092    1.1919    0.2781 H   0  0  0  0  0  0  0  0  0  0  0  0
   -5.1239    3.4871    0.4144 H   0  0  0  0  0  0  0  0  0  0  0  0
   -2.5096    5.0962    0.2410 H   0  0  0  0  0  0  0  0  0  0  0  0
   -6.3367    5.2250    0.6302 H   0  0  0  0  0  0  0  0  0  0  0  0
   -7.5691    7.3458    0.8557 H   0  0  0  0  0  0  0  0  0  0  0  0
   -6.3528    9.5265    0.8374 H   0  0  0  0  0  0  0  0  0  0  0  0
   -3.8670    9.5470    0.5878 H   0  0  0  0  0  0  0  0  0  0  0  0
   -2.6231    7.4145    0.3603 H   0  0  0  0  0  0  0  0  0  0  0  0
   -1.3031    3.3704    0.0497 H   0  0  0  0  0  0  0  0  0  0  0  0
    2.8503    2.5250   -0.3817 H   0  0  0  0  0  0  0  0  0  0  0  0
    5.3031    2.5440   -0.6068 H   0  0  0  0  0  0  0  0  0  0  0  0
    6.5717    0.4051   -0.8318 H   0  0  0  0  0  0  0  0  0  0  0  0
    5.3346   -1.7656   -0.8275 H   0  0  0  0  0  0  0  0  0  0  0  0
    2.8659   -1.7888   -0.6011 H   0  0  0  0  0  0  0  0  0  0  0  0
  1  2  2  0
  1 25  1  0
  1 31  1  0
  2  3  1  0
  2 32  1  0
  3  4  2  0
  3 24  1  0
  4  5  1  0
  4 33  1  0
  5  6  1  0
  5 14  2  0
  6  7  2  0
  6 34  1  0
  7  8  1  0
  7 35  1  0
  8  9  2  0
  8 13  1  0
  9 10  1  0
  9 36  1  0
 10 11  2  0
 10 37  1  0
 11 12  1  0
 11 38  1  0
 12 13  2  0
 12 39  1  0
 13 40  1  0
 14 15  1  0
 14 41  1  0
 15 16  1  0
 15 24  2  0
 16 17  2  0
 16 42  1  0
 17 18  1  0
 17 43  1  0
 18 19  2  0
 18 23  1  0
 19 20  1  0
 19 44  1  0
 20 21  2  0
 20 45  1  0
 21 22  1  0
 21 46  1  0
 22 23  2  0
 22 47  1  0
 23 48  1  0
 24 49  1  0
 25 26  2  0
 25 30  1  0
 26 27  1  0
 26 50  1  0
 27 28  2  0
 27 51  1  0
 28 29  1  0
 28 52  1  0
 29 30  2  0
 29 53  1  0
 30 54  1  0
M  END

