
     RDKit          3D

 32 34  0  0  0  0  0  0  0  0999 V2000
    2.9441    1.0847    0.1072 O   0  0  0  0  0  0  0  0  0  0  0  0
    2.3594    0.0556    0.4074 N   0  0  0  0  0  0  0  0  0  0  0  0
    1.2584    0.0050    0.9332 O   0  0  0  0  0  0  0  0  0  0  0  0
    3.0337   -1.2227    0.1128 C   0  0  0  0  0  0  0  0  0  0  0  0
    4.2943   -1.2026   -0.4886 C   0  0  0  0  0  0  0  0  0  0  0  0
    4.9277   -2.4091   -0.7654 C   0  0  0  0  0  0  0  0  0  0  0  0
    4.3089   -3.6402   -0.4447 C   0  0  0  0  0  0  0  0  0  0  0  0
    4.9600   -4.8747   -0.7298 C   0  0  0  0  0  0  0  0  0  0  0  0
    5.5209   -5.9305   -0.9755 C   0  0  0  0  0  0  0  0  0  0  0  0
    6.1665   -7.1704   -1.2586 C   0  0  0  0  0  0  0  0  0  0  0  0
    5.5217   -8.4067   -0.9298 C   0  0  0  0  0  0  0  0  0  0  0  0
    6.1337   -9.6075   -1.1979 C   0  0  0  0  0  0  0  0  0  0  0  0
    7.4203   -9.6615   -1.8075 C   0  0  0  0  0  0  0  0  0  0  0  0
    8.0766  -10.8888   -2.0962 C   0  0  0  0  0  0  0  0  0  0  0  0
    9.3234  -10.9009   -2.6877 C   0  0  0  0  0  0  0  0  0  0  0  0
    9.9719   -9.6833   -3.0181 C   0  0  0  0  0  0  0  0  0  0  0  0
    9.3625   -8.4758   -2.7512 C   0  0  0  0  0  0  0  0  0  0  0  0
    8.0757   -8.4280   -2.1414 C   0  0  0  0  0  0  0  0  0  0  0  0
    7.4247   -7.2011   -1.8552 C   0  0  0  0  0  0  0  0  0  0  0  0
    3.0318   -3.6234    0.1637 C   0  0  0  0  0  0  0  0  0  0  0  0
    2.3940   -2.4198    0.4427 C   0  0  0  0  0  0  0  0  0  0  0  0
    4.7547   -0.2445   -0.7281 H   0  0  0  0  0  0  0  0  0  0  0  0
    5.9128   -2.4139   -1.2350 H   0  0  0  0  0  0  0  0  0  0  0  0
    4.5355   -8.3781   -0.4624 H   0  0  0  0  0  0  0  0  0  0  0  0
    5.6327  -10.5452   -0.9428 H   0  0  0  0  0  0  0  0  0  0  0  0
    7.5761  -11.8269   -1.8413 H   0  0  0  0  0  0  0  0  0  0  0  0
    9.8172  -11.8515   -2.9043 H   0  0  0  0  0  0  0  0  0  0  0  0
   10.9591   -9.7071   -3.4862 H   0  0  0  0  0  0  0  0  0  0  0  0
    9.8603   -7.5360   -3.0050 H   0  0  0  0  0  0  0  0  0  0  0  0
    7.9231   -6.2629   -2.1092 H   0  0  0  0  0  0  0  0  0  0  0  0
    2.5479   -4.5690    0.4139 H   0  0  0  0  0  0  0  0  0  0  0  0
    1.4105   -2.3864    0.9107 H   0  0  0  0  0  0  0  0  0  0  0  0
  1  2  2  0
  2  3  1  0
  2  4  1  0
  4  5  2  0
  4 21  1  0
  5  6  1  0
  5 22  1  0
  6  7  2  0
  6 23  1  0
  7  8  1  0
  7 20  1  0
  8  9  3  0
  9 10  1  0
 10 11  2  0
 10 19  1  0
 11 12  1  0
 11 24  1  0
 12 13  2  0
 12 25  1  0
 13 14  1  0
 13 18  1  0
 14 15  2  0
 14 26  1  0
 15 16  1  0
 15 27  1  0
 16 17  2  0
 16 28  1  0
 17 18  1  0
 17 29  1  0
 18 19  2  0
 19 30  1  0
 20 21  2  0
 20 31  1  0
 21 32  1  0
M  CHG  2   2   1   3  -1
M  END

