
     RDKit          3D

 43 44  0  0  0  0  0  0  0  0999 V2000
    4.1969    2.9016    1.5104 C   0  0  0  0  0  0  0  0  0  0  0  0
    3.1916    2.2297    0.9285 C   0  0  0  0  0  0  0  0  0  0  0  0
    1.9707    2.9547    0.4118 C   0  0  0  0  0  0  0  0  0  0  0  0
    3.3000    0.6989    0.7921 C   0  0  1  0  0  0  0  0  0  0  0  0
    2.6432   -0.0887    1.8601 N   0  0  0  0  0  0  0  0  0  0  0  0
    1.4354    0.4091    2.5397 C   0  0  1  0  0  0  0  0  0  0  0  0
    0.1367    0.1459    1.7496 C   0  0  0  0  0  0  0  0  0  0  0  0
   -0.3170   -1.3223    1.7456 C   0  0  0  0  0  0  0  0  0  0  0  0
   -0.3688   -1.9540    3.1455 C   0  0  2  0  0  0  0  0  0  0  0  0
   -1.5655   -1.4510    3.9614 C   0  0  0  0  0  0  0  0  0  0  0  0
   -2.3454   -0.6125    3.5985 O   0  0  0  0  0  0  0  0  0  0  0  0
   -1.7210   -2.0314    5.1774 O   0  0  0  0  0  0  0  0  0  0  0  0
    0.9721   -1.7280    3.8826 C   0  0  0  0  0  0  0  0  0  0  0  0
    1.3364   -0.2400    3.9336 C   0  0  0  0  0  0  0  0  0  0  0  0
    2.9979    0.1894   -0.6249 C   0  0  0  0  0  0  0  0  0  0  0  0
    2.4077   -1.0605   -0.8443 C   0  0  0  0  0  0  0  0  0  0  0  0
    2.2229   -1.5569   -2.1395 C   0  0  0  0  0  0  0  0  0  0  0  0
    2.6416   -0.8087   -3.2325 C   0  0  0  0  0  0  0  0  0  0  0  0
    2.4754   -1.2606   -4.4798 F   0  0  0  0  0  0  0  0  0  0  0  0
    3.2531    0.4325   -3.0268 C   0  0  0  0  0  0  0  0  0  0  0  0
    3.6654    1.1394   -4.0850 F   0  0  0  0  0  0  0  0  0  0  0  0
    3.4328    0.9263   -1.7407 C   0  0  0  0  0  0  0  0  0  0  0  0
    4.1585    3.9864    1.6484 H   0  0  0  0  0  0  0  0  0  0  0  0
    5.0955    2.3918    1.8727 H   0  0  0  0  0  0  0  0  0  0  0  0
    2.0841    4.0426    0.5281 H   0  0  0  0  0  0  0  0  0  0  0  0
    1.0539    2.6549    0.9420 H   0  0  0  0  0  0  0  0  0  0  0  0
    1.7930    2.7416   -0.6539 H   0  0  0  0  0  0  0  0  0  0  0  0
    4.3728    0.4825    0.9291 H   0  0  0  0  0  0  0  0  0  0  0  0
    3.3476   -0.2587    2.5725 H   0  0  0  0  0  0  0  0  0  0  0  0
    1.5119    1.4992    2.7144 H   0  0  0  0  0  0  0  0  0  0  0  0
    0.2516    0.4881    0.7094 H   0  0  0  0  0  0  0  0  0  0  0  0
   -0.6629    0.7580    2.1958 H   0  0  0  0  0  0  0  0  0  0  0  0
    0.3719   -1.9252    1.1347 H   0  0  0  0  0  0  0  0  0  0  0  0
   -1.3081   -1.3937    1.2729 H   0  0  0  0  0  0  0  0  0  0  0  0
   -0.5232   -3.0445    3.0362 H   0  0  0  0  0  0  0  0  0  0  0  0
   -1.0370   -2.7001    5.3232 H   0  0  0  0  0  0  0  0  0  0  0  0
    1.7562   -2.2846    3.3448 H   0  0  0  0  0  0  0  0  0  0  0  0
    0.9462   -2.1433    4.9053 H   0  0  0  0  0  0  0  0  0  0  0  0
    2.2878   -0.0987    4.4764 H   0  0  0  0  0  0  0  0  0  0  0  0
    0.5738    0.3070    4.5139 H   0  0  0  0  0  0  0  0  0  0  0  0
    2.1089   -1.6503    0.0207 H   0  0  0  0  0  0  0  0  0  0  0  0
    1.7584   -2.5291   -2.3185 H   0  0  0  0  0  0  0  0  0  0  0  0
    3.9285    1.8931   -1.6291 H   0  0  0  0  0  0  0  0  0  0  0  0
  1  2  2  0
  1 23  1  0
  1 24  1  0
  2  3  1  0
  2  4  1  0
  3 25  1  0
  3 26  1  0
  3 27  1  0
  4  5  1  0
  4 15  1  0
  4 28  1  1
  5  6  1  0
  5 29  1  0
  6  7  1  0
  6 14  1  0
  6 30  1  1
  7  8  1  0
  7 31  1  0
  7 32  1  0
  8  9  1  0
  8 33  1  0
  8 34  1  0
  9 10  1  0
  9 13  1  0
  9 35  1  6
 10 11  2  0
 10 12  1  0
 12 36  1  0
 13 14  1  0
 13 37  1  0
 13 38  1  0
 14 39  1  0
 14 40  1  0
 15 16  2  0
 15 22  1  0
 16 17  1  0
 16 41  1  0
 17 18  2  0
 17 42  1  0
 18 19  1  0
 18 20  1  0
 20 21  1  0
 20 22  2  0
 22 43  1  0
M  END

