
     RDKit          3D

 41 40  0  0  0  0  0  0  0  0999 V2000
    4.5074    3.0920   -3.0441 N   0  0  0  0  0  0  0  0  0  0  0  0
    4.2619    2.0005   -2.2024 N   0  0  0  0  0  0  0  0  0  0  0  0
    5.0162    1.7587   -1.1059 C   0  0  0  0  0  0  0  0  0  0  0  0
    5.9696    2.4641   -0.7809 O   0  0  0  0  0  0  0  0  0  0  0  0
    4.6056    0.5106   -0.3045 C   0  0  1  0  0  0  0  0  0  0  0  0
    5.1134   -0.7780   -0.9869 C   0  0  0  0  0  0  0  0  0  0  0  0
    4.6406   -2.0754   -0.3107 C   0  0  0  0  0  0  0  0  0  0  0  0
    3.1150   -2.2394   -0.2155 C   0  0  0  0  0  0  0  0  0  0  0  0
    2.4082   -2.3480   -1.5848 C   0  0  0  0  0  0  0  0  0  0  0  0
    1.0904   -1.7313   -1.6206 N   0  0  0  0  0  0  0  0  0  0  0  0
    0.9244   -0.4290   -1.9246 C   0  0  0  0  0  0  0  0  0  0  0  0
    1.8409    0.3134   -2.2717 O   0  0  0  0  0  0  0  0  0  0  0  0
   -0.4872    0.1500   -1.7977 C   0  0  0  0  0  0  0  0  0  0  0  0
   -1.8993   -1.0103   -1.6568 S   0  0  0  0  0  0  0  0  0  0  0  0
    5.0908    0.6548    1.0515 N   0  0  0  0  0  0  0  0  0  0  0  0
    4.2472    0.8280    2.1078 C   0  0  0  0  0  0  0  0  0  0  0  0
    3.0570    0.5532    2.0815 O   0  0  0  0  0  0  0  0  0  0  0  0
    4.8937    1.3698    3.3898 C   0  0  0  0  0  0  0  0  0  0  0  0
    6.3473    2.4485    3.1400 S   0  0  0  0  0  0  0  0  0  0  0  0
    5.6344    3.6505    2.1339 N   0  0  0  0  0  0  0  0  0  0  0  0
    5.4436    2.9835   -3.4424 H   0  0  0  0  0  0  0  0  0  0  0  0
    4.5672    3.9332   -2.4637 H   0  0  0  0  0  0  0  0  0  0  0  0
    3.4057    1.4702   -2.3771 H   0  0  0  0  0  0  0  0  0  0  0  0
    3.5088    0.4859   -0.2555 H   0  0  0  0  0  0  0  0  0  0  0  0
    6.2169   -0.7571   -1.0024 H   0  0  0  0  0  0  0  0  0  0  0  0
    4.7943   -0.7508   -2.0408 H   0  0  0  0  0  0  0  0  0  0  0  0
    5.0585   -2.1161    0.7085 H   0  0  0  0  0  0  0  0  0  0  0  0
    5.0794   -2.9320   -0.8540 H   0  0  0  0  0  0  0  0  0  0  0  0
    2.6950   -1.3894    0.3452 H   0  0  0  0  0  0  0  0  0  0  0  0
    2.8856   -3.1328    0.3896 H   0  0  0  0  0  0  0  0  0  0  0  0
    2.3040   -3.4011   -1.8906 H   0  0  0  0  0  0  0  0  0  0  0  0
    3.0015   -1.8460   -2.3614 H   0  0  0  0  0  0  0  0  0  0  0  0
    0.2710   -2.2386   -1.2956 H   0  0  0  0  0  0  0  0  0  0  0  0
   -0.6344    0.8522   -2.6298 H   0  0  0  0  0  0  0  0  0  0  0  0
   -0.5093    0.7503   -0.8738 H   0  0  0  0  0  0  0  0  0  0  0  0
   -1.8784   -1.4420   -2.9399 H   0  0  0  0  0  0  0  0  0  0  0  0
    6.0186    1.0673    1.1425 H   0  0  0  0  0  0  0  0  0  0  0  0
    5.2497    0.5262    4.0067 H   0  0  0  0  0  0  0  0  0  0  0  0
    4.1047    1.8913    3.9499 H   0  0  0  0  0  0  0  0  0  0  0  0
    5.9698    3.5813    1.1698 H   0  0  0  0  0  0  0  0  0  0  0  0
    5.7775    4.5840    2.5135 H   0  0  0  0  0  0  0  0  0  0  0  0
  1  2  1  0
  1 21  1  0
  1 22  1  0
  2  3  1  0
  2 23  1  0
  3  4  2  0
  3  5  1  0
  5  6  1  0
  5 15  1  0
  5 24  1  1
  6  7  1  0
  6 25  1  0
  6 26  1  0
  7  8  1  0
  7 27  1  0
  7 28  1  0
  8  9  1  0
  8 29  1  0
  8 30  1  0
  9 10  1  0
  9 31  1  0
  9 32  1  0
 10 11  1  0
 10 33  1  0
 11 12  2  0
 11 13  1  0
 13 14  1  0
 13 34  1  0
 13 35  1  0
 14 36  1  0
 15 16  1  0
 15 37  1  0
 16 17  2  0
 16 18  1  0
 18 19  1  0
 18 38  1  0
 18 39  1  0
 19 20  1  0
 20 40  1  0
 20 41  1  0
M  END

