
     RDKit          3D

 46 48  0  0  0  0  0  0  0  0999 V2000
    2.5408   -0.6855    0.0593 N   0  0  0  0  0  0  0  0  0  0  0  0
    2.3380   -0.2606   -1.2159 C   0  0  0  0  0  0  0  0  0  0  0  0
    1.3060   -0.4248   -1.8389 O   0  0  0  0  0  0  0  0  0  0  0  0
    3.5211    0.5191   -1.8100 C   0  0  0  0  0  0  0  0  0  0  0  0
    4.8106    0.2205   -1.1973 N   0  0  0  0  0  0  0  0  0  0  0  0
    5.3457   -1.0571   -1.6754 C   0  0  0  0  0  0  0  0  0  0  0  0
    6.4754   -1.6290   -0.8088 C   0  0  0  0  0  0  0  0  0  0  0  0
    7.8870   -1.1341   -1.1178 C   0  0  0  0  0  0  0  0  0  0  0  0
    8.0482    0.3276   -1.1092 N   0  0  0  0  0  0  0  0  0  0  0  0
    9.1807    0.7972   -1.7132 C   0  0  0  0  0  0  0  0  0  0  0  0
   10.0166    0.0403   -2.1892 O   0  0  0  0  0  0  0  0  0  0  0  0
    9.4090    2.3284   -1.7602 C   0  0  1  0  0  0  0  0  0  0  0  0
   10.5746    2.7140   -2.6719 C   0  0  0  0  0  0  0  0  0  0  0  0
    9.8479    3.4708   -3.7598 C   0  0  0  0  0  0  0  0  0  0  0  0
   10.4742    4.0257   -4.9694 C   0  0  0  0  0  0  0  0  0  0  0  0
   11.8436    3.8267   -5.2190 C   0  0  0  0  0  0  0  0  0  0  0  0
   12.4420    4.3560   -6.3659 C   0  0  0  0  0  0  0  0  0  0  0  0
   11.6818    5.0900   -7.2788 C   0  0  0  0  0  0  0  0  0  0  0  0
   10.3160    5.2928   -7.0394 C   0  0  0  0  0  0  0  0  0  0  0  0
    9.7159    4.7679   -5.8979 C   0  0  0  0  0  0  0  0  0  0  0  0
    8.5895    3.6020   -3.5297 N   0  0  0  0  0  0  0  0  0  0  0  0
    8.2544    3.0101   -2.3262 O   0  0  0  0  0  0  0  0  0  0  0  0
    7.0331    1.1646   -0.4767 C   0  0  0  0  0  0  0  0  0  0  0  0
    5.7438    1.3414   -1.2896 C   0  0  0  0  0  0  0  0  0  0  0  0
    1.8011   -1.1793    0.5427 H   0  0  0  0  0  0  0  0  0  0  0  0
    3.4362   -0.5045    0.4984 H   0  0  0  0  0  0  0  0  0  0  0  0
    3.2885    1.5858   -1.6543 H   0  0  0  0  0  0  0  0  0  0  0  0
    3.4958    0.3541   -2.9058 H   0  0  0  0  0  0  0  0  0  0  0  0
    5.6845   -0.9834   -2.7339 H   0  0  0  0  0  0  0  0  0  0  0  0
    4.5128   -1.7763   -1.6683 H   0  0  0  0  0  0  0  0  0  0  0  0
    6.5042   -2.7213   -0.9568 H   0  0  0  0  0  0  0  0  0  0  0  0
    6.2171   -1.4790    0.2525 H   0  0  0  0  0  0  0  0  0  0  0  0
    8.1989   -1.4889   -2.1119 H   0  0  0  0  0  0  0  0  0  0  0  0
    8.6022   -1.5883   -0.4076 H   0  0  0  0  0  0  0  0  0  0  0  0
    9.5359    2.7038   -0.7316 H   0  0  0  0  0  0  0  0  0  0  0  0
   11.0807    1.8106   -3.0448 H   0  0  0  0  0  0  0  0  0  0  0  0
   11.3237    3.3500   -2.1745 H   0  0  0  0  0  0  0  0  0  0  0  0
   12.4491    3.2495   -4.5171 H   0  0  0  0  0  0  0  0  0  0  0  0
   13.5072    4.1910   -6.5457 H   0  0  0  0  0  0  0  0  0  0  0  0
   12.1494    5.5036   -8.1760 H   0  0  0  0  0  0  0  0  0  0  0  0
    9.7162    5.8660   -7.7510 H   0  0  0  0  0  0  0  0  0  0  0  0
    8.6530    4.9225   -5.7048 H   0  0  0  0  0  0  0  0  0  0  0  0
    7.4529    2.1609   -0.3063 H   0  0  0  0  0  0  0  0  0  0  0  0
    6.7877    0.7532    0.5163 H   0  0  0  0  0  0  0  0  0  0  0  0
    6.0308    1.5743   -2.3357 H   0  0  0  0  0  0  0  0  0  0  0  0
    5.2273    2.2325   -0.8973 H   0  0  0  0  0  0  0  0  0  0  0  0
  1  2  1  0
  1 25  1  0
  1 26  1  0
  2  3  2  0
  2  4  1  0
  4  5  1  0
  4 27  1  0
  4 28  1  0
  5  6  1  0
  5 24  1  0
  6  7  1  0
  6 29  1  0
  6 30  1  0
  7  8  1  0
  7 31  1  0
  7 32  1  0
  8  9  1  0
  8 33  1  0
  8 34  1  0
  9 10  1  0
  9 23  1  0
 10 11  2  0
 10 12  1  0
 12 13  1  0
 12 22  1  0
 12 35  1  1
 13 14  1  0
 13 36  1  0
 13 37  1  0
 14 15  1  0
 14 21  2  0
 15 16  2  0
 15 20  1  0
 16 17  1  0
 16 38  1  0
 17 18  2  0
 17 39  1  0
 18 19  1  0
 18 40  1  0
 19 20  2  0
 19 41  1  0
 20 42  1  0
 21 22  1  0
 23 24  1  0
 23 43  1  0
 23 44  1  0
 24 45  1  0
 24 46  1  0
M  END

