
     RDKit          3D

 39 39  0  0  0  0  0  0  0  0999 V2000
    5.9093    2.4982    0.8176 C   0  0  0  0  0  0  0  0  0  0  0  0
    5.9603    1.7040   -0.2580 C   0  0  0  0  0  0  0  0  0  0  0  0
    6.3842    2.1937   -1.6187 C   0  0  0  0  0  0  0  0  0  0  0  0
    5.6421    0.2182   -0.2098 C   0  0  0  0  0  0  0  0  0  0  0  0
    4.8835   -0.2618    0.9381 N   0  0  0  0  0  0  0  0  0  0  0  0
    3.4231   -0.0558    0.9243 C   0  0  0  0  0  0  0  0  0  0  0  0
    2.8842    0.8235    2.0516 C   0  0  0  0  0  0  0  0  0  0  0  0
    5.3623   -1.1271    1.8859 C   0  0  0  0  0  0  0  0  0  0  0  0
    4.6285   -1.6854    2.6875 O   0  0  0  0  0  0  0  0  0  0  0  0
    6.8621   -1.4454    1.9301 C   0  0  0  0  0  0  0  0  0  0  0  0
    7.6385   -0.2629    1.8821 O   0  0  0  0  0  0  0  0  0  0  0  0
    8.9887   -0.3381    1.9651 C   0  0  0  0  0  0  0  0  0  0  0  0
    9.7084   -1.5341    2.1270 C   0  0  0  0  0  0  0  0  0  0  0  0
   11.1007   -1.4957    2.1955 C   0  0  0  0  0  0  0  0  0  0  0  0
   11.8010   -0.2838    2.1257 C   0  0  0  0  0  0  0  0  0  0  0  0
   13.2976   -0.3333    2.1984 C   0  0  0  0  0  0  0  0  0  0  0  0
   13.9355   -1.3403    2.0322 O   0  0  0  0  0  0  0  0  0  0  0  0
   13.9298    0.8335    2.4726 O   0  0  0  0  0  0  0  0  0  0  0  0
   11.0665    0.9048    1.9525 C   0  0  0  0  0  0  0  0  0  0  0  0
    9.6797    0.8840    1.8728 C   0  0  0  0  0  0  0  0  0  0  0  0
    6.1628    3.5598    0.7482 H   0  0  0  0  0  0  0  0  0  0  0  0
    5.6226    2.1111    1.7969 H   0  0  0  0  0  0  0  0  0  0  0  0
    6.6704    3.2549   -1.5993 H   0  0  0  0  0  0  0  0  0  0  0  0
    5.5738    2.0691   -2.3588 H   0  0  0  0  0  0  0  0  0  0  0  0
    7.2454    1.6153   -1.9990 H   0  0  0  0  0  0  0  0  0  0  0  0
    6.5905   -0.3339   -0.2879 H   0  0  0  0  0  0  0  0  0  0  0  0
    5.0785   -0.0454   -1.1251 H   0  0  0  0  0  0  0  0  0  0  0  0
    2.9412   -1.0456    0.9798 H   0  0  0  0  0  0  0  0  0  0  0  0
    3.1720    0.3864   -0.0512 H   0  0  0  0  0  0  0  0  0  0  0  0
    3.1359    0.3917    3.0302 H   0  0  0  0  0  0  0  0  0  0  0  0
    1.7860    0.8811    1.9795 H   0  0  0  0  0  0  0  0  0  0  0  0
    3.2827    1.8469    1.9945 H   0  0  0  0  0  0  0  0  0  0  0  0
    7.1287   -2.1235    1.0954 H   0  0  0  0  0  0  0  0  0  0  0  0
    7.0165   -1.9886    2.8750 H   0  0  0  0  0  0  0  0  0  0  0  0
    9.1960   -2.4933    2.2000 H   0  0  0  0  0  0  0  0  0  0  0  0
   11.6747   -2.4174    2.3085 H   0  0  0  0  0  0  0  0  0  0  0  0
   13.2907    1.5132    2.7267 H   0  0  0  0  0  0  0  0  0  0  0  0
   11.5747    1.8680    1.8441 H   0  0  0  0  0  0  0  0  0  0  0  0
    9.1015    1.7981    1.7271 H   0  0  0  0  0  0  0  0  0  0  0  0
  1  2  2  0
  1 21  1  0
  1 22  1  0
  2  3  1  0
  2  4  1  0
  3 23  1  0
  3 24  1  0
  3 25  1  0
  4  5  1  0
  4 26  1  0
  4 27  1  0
  5  6  1  0
  5  8  1  0
  6  7  1  0
  6 28  1  0
  6 29  1  0
  7 30  1  0
  7 31  1  0
  7 32  1  0
  8  9  2  0
  8 10  1  0
 10 11  1  0
 10 33  1  0
 10 34  1  0
 11 12  1  0
 12 13  2  0
 12 20  1  0
 13 14  1  0
 13 35  1  0
 14 15  2  0
 14 36  1  0
 15 16  1  0
 15 19  1  0
 16 17  2  0
 16 18  1  0
 18 37  1  0
 19 20  2  0
 19 38  1  0
 20 39  1  0
M  END

