
     RDKit          3D

 39 41  0  0  0  0  0  0  0  0999 V2000
    2.7963   -0.4148    0.0363 O   0  0  0  0  0  0  0  0  0  0  0  0
    2.3304    0.6707   -0.3107 C   0  0  0  0  0  0  0  0  0  0  0  0
    1.3965    1.4164    0.6001 C   0  0  0  0  0  0  0  0  0  0  0  0
    1.4949    1.1089    1.9688 C   0  0  0  0  0  0  0  0  0  0  0  0
    0.6369    1.6983    2.8934 C   0  0  0  0  0  0  0  0  0  0  0  0
   -0.3376    2.5817    2.4280 C   0  0  0  0  0  0  0  0  0  0  0  0
   -1.2593    3.2109    3.4021 N   0  0  0  0  0  0  0  0  0  0  0  0
   -1.1134    2.9259    4.5790 O   0  0  0  0  0  0  0  0  0  0  0  0
   -2.1045    3.9742    2.9649 O   0  0  0  0  0  0  0  0  0  0  0  0
   -0.4748    2.8879    1.0744 C   0  0  0  0  0  0  0  0  0  0  0  0
    0.4015    2.3059    0.1595 C   0  0  0  0  0  0  0  0  0  0  0  0
    2.6563    1.1920   -1.5423 N   0  0  0  0  0  0  0  0  0  0  0  0
    2.5317    2.5402   -1.8463 N   0  0  0  0  0  0  0  0  0  0  0  0
    3.2382    2.7943   -2.8830 C   0  0  0  0  0  0  0  0  0  0  0  0
    3.4005    4.1561   -3.4882 C   0  0  0  0  0  0  0  0  0  0  0  0
    4.7664    4.2587   -4.2038 C   0  0  0  0  0  0  0  0  0  0  0  0
    5.8336    3.4484   -3.4556 C   0  0  0  0  0  0  0  0  0  0  0  0
    5.5432    1.9317   -3.4767 C   0  0  0  0  0  0  0  0  0  0  0  0
    4.0216    1.6246   -3.4285 C   0  0  1  0  0  0  0  0  0  0  0  0
    3.6715    1.4239   -4.4524 H   0  0  0  0  0  0  0  0  0  0  0  0
    3.5640    0.4686   -2.4898 C   0  0  1  0  0  0  0  0  0  0  0  0
    4.6091   -0.1688   -1.8591 O   0  0  0  0  0  0  0  0  0  0  0  0
    2.7213   -0.5551   -3.2977 C   0  0  1  0  0  0  0  0  0  0  0  0
    1.6699    0.0490   -3.8820 F   0  0  0  0  0  0  0  0  0  0  0  0
    3.4701   -1.0987   -4.2672 F   0  0  0  0  0  0  0  0  0  0  0  0
    2.2538   -1.5450   -2.5341 F   0  0  0  0  0  0  0  0  0  0  0  0
    2.2528    0.3939    2.2917 H   0  0  0  0  0  0  0  0  0  0  0  0
    0.7022    1.4844    3.9597 H   0  0  0  0  0  0  0  0  0  0  0  0
   -1.2595    3.5744    0.7586 H   0  0  0  0  0  0  0  0  0  0  0  0
    0.3126    2.5464   -0.8980 H   0  0  0  0  0  0  0  0  0  0  0  0
    3.3050    4.9085   -2.6894 H   0  0  0  0  0  0  0  0  0  0  0  0
    2.5761    4.3492   -4.1980 H   0  0  0  0  0  0  0  0  0  0  0  0
    5.0608    5.3163   -4.2870 H   0  0  0  0  0  0  0  0  0  0  0  0
    4.6798    3.8819   -5.2383 H   0  0  0  0  0  0  0  0  0  0  0  0
    5.8769    3.8044   -2.4107 H   0  0  0  0  0  0  0  0  0  0  0  0
    6.8312    3.6343   -3.8836 H   0  0  0  0  0  0  0  0  0  0  0  0
    6.0361    1.4370   -2.6294 H   0  0  0  0  0  0  0  0  0  0  0  0
    5.9604    1.4807   -4.3902 H   0  0  0  0  0  0  0  0  0  0  0  0
    4.2062   -0.6376   -1.0929 H   0  0  0  0  0  0  0  0  0  0  0  0
  1  2  2  0
  2  3  1  0
  2 12  1  0
  3  4  2  0
  3 11  1  0
  4  5  1  0
  4 27  1  0
  5  6  2  0
  5 28  1  0
  6  7  1  0
  6 10  1  0
  7  8  2  0
  7  9  1  0
 10 11  2  0
 10 29  1  0
 11 30  1  0
 12 13  1  0
 12 21  1  0
 13 14  2  0
 14 15  1  0
 14 19  1  0
 15 16  1  0
 15 31  1  0
 15 32  1  0
 16 17  1  0
 16 33  1  0
 16 34  1  0
 17 18  1  0
 17 35  1  0
 17 36  1  0
 18 19  1  0
 18 37  1  0
 18 38  1  0
 19 20  1  6
 19 21  1  0
 21 22  1  1
 21 23  1  0
 22 39  1  0
 23 24  1  6
 23 25  1  0
 23 26  1  0
M  CHG  2   7   1   9  -1
M  END

