
     RDKit          3D

 31 32  0  0  0  0  0  0  0  0999 V2000
    4.3609   -0.5240    0.4365 C   0  0  0  0  0  0  0  0  0  0  0  0
    2.7856    0.1904   -0.0914 S   0  0  1  0  0  0  0  0  0  0  0  0
    2.1358   -0.7956   -0.9661 O   0  0  0  0  0  0  0  0  0  0  0  0
    2.1179    0.7003    1.1142 O   0  0  0  0  0  0  0  0  0  0  0  0
    3.2617    1.6087   -1.1052 C   0  0  0  0  0  0  0  0  0  0  0  0
    3.4145    2.8540   -0.4949 C   0  0  0  0  0  0  0  0  0  0  0  0
    3.7818    3.9397   -1.2978 C   0  0  0  0  0  0  0  0  0  0  0  0
    3.9761    3.7751   -2.6684 C   0  0  0  0  0  0  0  0  0  0  0  0
    3.8029    2.5144   -3.2635 C   0  0  0  0  0  0  0  0  0  0  0  0
    4.0370    2.4481   -4.6082 O   0  0  0  0  0  0  0  0  0  0  0  0
    3.6511    1.3439   -5.3609 C   0  0  0  0  0  0  0  0  0  0  0  0
    2.3117    0.9861   -5.5031 C   0  0  0  0  0  0  0  0  0  0  0  0
    1.9588   -0.1051   -6.3016 C   0  0  0  0  0  0  0  0  0  0  0  0
    2.9643   -0.8202   -6.9607 C   0  0  0  0  0  0  0  0  0  0  0  0
    4.3026   -0.4486   -6.8343 C   0  0  0  0  0  0  0  0  0  0  0  0
    4.6805    0.6467   -6.0322 C   0  0  0  0  0  0  0  0  0  0  0  0
    5.9889    1.0742   -5.9351 N   0  0  0  0  0  0  0  0  0  0  0  0
    3.4383    1.4134   -2.4776 C   0  0  0  0  0  0  0  0  0  0  0  0
    4.0851   -1.3889    1.0564 H   0  0  0  0  0  0  0  0  0  0  0  0
    4.9146    0.2157    1.0286 H   0  0  0  0  0  0  0  0  0  0  0  0
    4.9279   -0.8463   -0.4462 H   0  0  0  0  0  0  0  0  0  0  0  0
    3.2273    2.9654    0.5741 H   0  0  0  0  0  0  0  0  0  0  0  0
    3.9054    4.9295   -0.8515 H   0  0  0  0  0  0  0  0  0  0  0  0
    4.2545    4.6152   -3.3078 H   0  0  0  0  0  0  0  0  0  0  0  0
    1.5499    1.5657   -4.9769 H   0  0  0  0  0  0  0  0  0  0  0  0
    0.9103   -0.3902   -6.4065 H   0  0  0  0  0  0  0  0  0  0  0  0
    2.7048   -1.6771   -7.5874 H   0  0  0  0  0  0  0  0  0  0  0  0
    5.0793   -1.0055   -7.3659 H   0  0  0  0  0  0  0  0  0  0  0  0
    6.7196    0.4049   -6.1388 H   0  0  0  0  0  0  0  0  0  0  0  0
    6.1982    1.7407   -5.2032 H   0  0  0  0  0  0  0  0  0  0  0  0
    3.2686    0.4296   -2.9160 H   0  0  0  0  0  0  0  0  0  0  0  0
  2  1  1  1
  1 19  1  0
  1 20  1  0
  1 21  1  0
  2  3  2  0
  2  4  2  0
  2  5  1  0
  5  6  2  0
  5 18  1  0
  6  7  1  0
  6 22  1  0
  7  8  2  0
  7 23  1  0
  8  9  1  0
  8 24  1  0
  9 10  1  0
  9 18  2  0
 10 11  1  0
 11 12  2  0
 11 16  1  0
 12 13  1  0
 12 25  1  0
 13 14  2  0
 13 26  1  0
 14 15  1  0
 14 27  1  0
 15 16  2  0
 15 28  1  0
 16 17  1  0
 17 29  1  0
 17 30  1  0
 18 31  1  0
M  END

