
     RDKit          3D

 86 92  0  0  0  0  0  0  0  0999 V2000
    6.0450    1.9799   -8.9296 O   0  0  0  0  0  0  0  0  0  0  0  0
    6.0304    1.5247   -7.8020 C   0  0  0  0  0  0  0  0  0  0  0  0
    6.3145    0.0176   -7.6322 C   0  0  0  0  0  0  0  0  0  0  0  0
    7.7240   -0.2175   -7.3494 N   0  0  0  0  0  0  0  0  0  0  0  0
    8.7987    0.0354   -8.1405 C   0  0  0  0  0  0  0  0  0  0  0  0
    9.8782   -0.3507   -7.3700 C   0  0  0  0  0  0  0  0  0  0  0  0
    9.4120   -0.8050   -6.1766 N   0  0  0  0  0  0  0  0  0  0  0  0
    8.1165   -0.7210   -6.1664 N   0  0  0  0  0  0  0  0  0  0  0  0
    5.7977    2.3755   -6.6002 C   0  0  0  0  0  0  0  0  0  0  0  0
    5.6226    3.7552   -6.8132 C   0  0  0  0  0  0  0  0  0  0  0  0
    5.4192    4.6022   -5.7281 C   0  0  0  0  0  0  0  0  0  0  0  0
    5.3926    4.0817   -4.4307 C   0  0  0  0  0  0  0  0  0  0  0  0
    5.5597    2.7081   -4.1918 C   0  0  0  0  0  0  0  0  0  0  0  0
    5.4529    2.2015   -2.7616 C   0  0  0  0  0  0  0  0  0  0  0  0
    6.0203    0.8861   -2.4647 N   0  0  0  0  0  0  0  0  0  0  0  0
    5.0503   -0.0962   -2.1442 C   0  0  0  0  0  0  0  0  0  0  0  0
    3.8686    0.2055   -2.0203 O   0  0  0  0  0  0  0  0  0  0  0  0
    5.4631   -1.4025   -1.9866 N   0  0  0  0  0  0  0  0  0  0  0  0
    4.5036   -2.2855   -1.2995 C   0  0  0  0  0  0  0  0  0  0  0  0
    4.2455   -1.9474    0.1618 C   0  0  0  0  0  0  0  0  0  0  0  0
    3.0357   -1.3005    0.5360 C   0  0  0  0  0  0  0  0  0  0  0  0
    2.7310   -1.0002    1.8564 C   0  0  0  0  0  0  0  0  0  0  0  0
    3.6786   -1.3564    2.8317 C   0  0  0  0  0  0  0  0  0  0  0  0
    3.7067   -1.2161    4.1929 N   0  0  0  0  0  0  0  0  0  0  0  0
    3.0038   -0.8021    4.7909 H   0  0  0  0  0  0  0  0  0  0  0  0
    4.8355   -1.7109    4.7451 N   0  0  0  0  0  0  0  0  0  0  0  0
    5.5599   -2.1815    3.7481 C   0  0  0  0  0  0  0  0  0  0  0  0
    4.8990   -1.9970    2.4887 C   0  0  0  0  0  0  0  0  0  0  0  0
    5.1767   -2.2939    1.1397 C   0  0  0  0  0  0  0  0  0  0  0  0
    6.7266   -1.8893   -2.5651 C   0  0  2  0  0  0  0  0  0  0  0  0
    6.8898   -1.2904   -3.4738 H   0  0  0  0  0  0  0  0  0  0  0  0
    6.7274   -3.3687   -3.0049 C   0  0  0  0  0  0  0  0  0  0  0  0
    5.6866   -3.7776   -4.0288 C   0  0  0  0  0  0  0  0  0  0  0  0
    5.6798   -3.2074   -5.3134 C   0  0  0  0  0  0  0  0  0  0  0  0
    4.7409   -3.6033   -6.2695 C   0  0  0  0  0  0  0  0  0  0  0  0
    3.7893   -4.5818   -5.9636 C   0  0  0  0  0  0  0  0  0  0  0  0
    3.7939   -5.1674   -4.6958 C   0  0  0  0  0  0  0  0  0  0  0  0
    4.7358   -4.7689   -3.7416 C   0  0  0  0  0  0  0  0  0  0  0  0
    7.9241   -1.5939   -1.6508 C   0  0  2  0  0  0  0  0  0  0  0  0
    8.8347   -1.5707   -2.2839 H   0  0  0  0  0  0  0  0  0  0  0  0
    8.0652   -2.5916   -0.6558 O   0  0  0  0  0  0  0  0  0  0  0  0
    7.7454   -0.2348   -0.9760 C   0  0  1  0  0  0  0  0  0  0  0  0
    6.9082   -0.3381   -0.2710 H   0  0  0  0  0  0  0  0  0  0  0  0
    8.8664    0.0465   -0.1520 O   0  0  0  0  0  0  0  0  0  0  0  0
    7.4068    0.9371   -1.9224 C   0  0  1  0  0  0  0  0  0  0  0  0
    7.4388    1.8157   -1.2523 H   0  0  0  0  0  0  0  0  0  0  0  0
    8.4277    1.1914   -3.0641 C   0  0  0  0  0  0  0  0  0  0  0  0
    9.8680    1.4267   -2.6475 C   0  0  0  0  0  0  0  0  0  0  0  0
   10.8891    0.5700   -3.0962 C   0  0  0  0  0  0  0  0  0  0  0  0
   12.2232    0.7927   -2.7355 C   0  0  0  0  0  0  0  0  0  0  0  0
   12.5616    1.8768   -1.9221 C   0  0  0  0  0  0  0  0  0  0  0  0
   11.5574    2.7443   -1.4778 C   0  0  0  0  0  0  0  0  0  0  0  0
   10.2269    2.5227   -1.8397 C   0  0  0  0  0  0  0  0  0  0  0  0
    5.7585    1.8627   -5.2893 C   0  0  0  0  0  0  0  0  0  0  0  0
    6.0511   -0.4650   -8.5834 H   0  0  0  0  0  0  0  0  0  0  0  0
    5.7432   -0.4445   -6.8194 H   0  0  0  0  0  0  0  0  0  0  0  0
    8.7016    0.4555   -9.1380 H   0  0  0  0  0  0  0  0  0  0  0  0
   10.9403   -0.3272   -7.6032 H   0  0  0  0  0  0  0  0  0  0  0  0
    5.6557    4.1337   -7.8360 H   0  0  0  0  0  0  0  0  0  0  0  0
    5.2862    5.6752   -5.8870 H   0  0  0  0  0  0  0  0  0  0  0  0
    5.2374    4.7567   -3.5832 H   0  0  0  0  0  0  0  0  0  0  0  0
    4.3860    2.1471   -2.4957 H   0  0  0  0  0  0  0  0  0  0  0  0
    5.9055    2.9513   -2.0896 H   0  0  0  0  0  0  0  0  0  0  0  0
    4.9058   -3.3002   -1.3541 H   0  0  0  0  0  0  0  0  0  0  0  0
    3.5522   -2.2763   -1.8509 H   0  0  0  0  0  0  0  0  0  0  0  0
    2.3367   -1.0204   -0.2541 H   0  0  0  0  0  0  0  0  0  0  0  0
    1.7944   -0.5030    2.1194 H   0  0  0  0  0  0  0  0  0  0  0  0
    6.5296   -2.6380    3.9464 H   0  0  0  0  0  0  0  0  0  0  0  0
    6.1146   -2.7757    0.8528 H   0  0  0  0  0  0  0  0  0  0  0  0
    6.6764   -4.0210   -2.1226 H   0  0  0  0  0  0  0  0  0  0  0  0
    7.7301   -3.5400   -3.4325 H   0  0  0  0  0  0  0  0  0  0  0  0
    6.4361   -2.4600   -5.5673 H   0  0  0  0  0  0  0  0  0  0  0  0
    4.7568   -3.1537   -7.2665 H   0  0  0  0  0  0  0  0  0  0  0  0
    3.0552   -4.8911   -6.7119 H   0  0  0  0  0  0  0  0  0  0  0  0
    3.0632   -5.9412   -4.4458 H   0  0  0  0  0  0  0  0  0  0  0  0
    4.7342   -5.2452   -2.7570 H   0  0  0  0  0  0  0  0  0  0  0  0
    8.6435   -2.2076    0.0224 H   0  0  0  0  0  0  0  0  0  0  0  0
    9.6254    0.2576   -0.7163 H   0  0  0  0  0  0  0  0  0  0  0  0
    8.3870    0.3664   -3.7878 H   0  0  0  0  0  0  0  0  0  0  0  0
    8.0824    2.0829   -3.6110 H   0  0  0  0  0  0  0  0  0  0  0  0
   10.6339   -0.2606   -3.7608 H   0  0  0  0  0  0  0  0  0  0  0  0
   13.0011    0.1156   -3.0982 H   0  0  0  0  0  0  0  0  0  0  0  0
   13.6028    2.0502   -1.6388 H   0  0  0  0  0  0  0  0  0  0  0  0
   11.8126    3.6004   -0.8478 H   0  0  0  0  0  0  0  0  0  0  0  0
    9.4547    3.2130   -1.4887 H   0  0  0  0  0  0  0  0  0  0  0  0
    5.9036    0.7994   -5.0968 H   0  0  0  0  0  0  0  0  0  0  0  0
  1  2  2  0
  2  3  1  0
  2  9  1  0
  3  4  1  0
  3 55  1  0
  3 56  1  0
  4  5  1  0
  4  8  1  0
  5  6  2  0
  5 57  1  0
  6  7  1  0
  6 58  1  0
  7  8  2  0
  9 10  2  0
  9 54  1  0
 10 11  1  0
 10 59  1  0
 11 12  2  0
 11 60  1  0
 12 13  1  0
 12 61  1  0
 13 14  1  0
 13 54  2  0
 14 15  1  0
 14 62  1  0
 14 63  1  0
 15 16  1  0
 15 45  1  0
 16 17  2  0
 16 18  1  0
 18 19  1  0
 18 30  1  0
 19 20  1  0
 19 64  1  0
 19 65  1  0
 20 21  2  0
 20 29  1  0
 21 22  1  0
 21 66  1  0
 22 23  2  0
 22 67  1  0
 23 24  1  0
 23 28  1  0
 24 25  1  0
 24 26  1  0
 26 27  2  0
 27 28  1  0
 27 68  1  0
 28 29  2  0
 29 69  1  0
 30 31  1  6
 30 32  1  0
 30 39  1  0
 32 33  1  0
 32 70  1  0
 32 71  1  0
 33 34  2  0
 33 38  1  0
 34 35  1  0
 34 72  1  0
 35 36  2  0
 35 73  1  0
 36 37  1  0
 36 74  1  0
 37 38  2  0
 37 75  1  0
 38 76  1  0
 39 40  1  6
 39 41  1  0
 39 42  1  0
 41 77  1  0
 42 43  1  1
 42 44  1  0
 42 45  1  0
 44 78  1  0
 45 46  1  1
 45 47  1  0
 47 48  1  0
 47 79  1  0
 47 80  1  0
 48 49  2  0
 48 53  1  0
 49 50  1  0
 49 81  1  0
 50 51  2  0
 50 82  1  0
 51 52  1  0
 51 83  1  0
 52 53  2  0
 52 84  1  0
 53 85  1  0
 54 86  1  0
M  END

