
     RDKit          3D

 17 18  0  0  0  0  0  0  0  0999 V2000
    0.8999    0.1185    0.2979 O   0  0  0  0  0  0  0  0  0  0  0  0
    2.0877   -0.0355    0.2065 C   0  0  0  0  0  0  0  0  0  0  0  0
    2.7935   -1.3175    0.1400 C   0  0  0  0  0  0  0  0  0  0  0  0
    4.1413   -1.3834    0.0243 C   0  0  0  0  0  0  0  0  0  0  0  0
    4.9360   -0.1798   -0.0405 C   0  0  0  0  0  0  0  0  0  0  0  0
    6.3404   -0.1628   -0.1610 C   0  0  0  0  0  0  0  0  0  0  0  0
    7.0321    1.0414   -0.2179 C   0  0  0  0  0  0  0  0  0  0  0  0
    6.3264    2.2553   -0.1553 C   0  0  0  0  0  0  0  0  0  0  0  0
    4.9389    2.2675   -0.0363 C   0  0  0  0  0  0  0  0  0  0  0  0
    4.2469    1.0518    0.0210 C   0  0  0  0  0  0  0  0  0  0  0  0
    2.8960    1.0958    0.1374 O   0  0  0  0  0  0  0  0  0  0  0  0
    2.1613   -2.2048    0.1900 H   0  0  0  0  0  0  0  0  0  0  0  0
    4.6483   -2.3518   -0.0228 H   0  0  0  0  0  0  0  0  0  0  0  0
    6.8765   -1.1145   -0.2091 H   0  0  0  0  0  0  0  0  0  0  0  0
    8.1202    1.0455   -0.3112 H   0  0  0  0  0  0  0  0  0  0  0  0
    6.8692    3.2027   -0.2002 H   0  0  0  0  0  0  0  0  0  0  0  0
    4.3708    3.1979    0.0140 H   0  0  0  0  0  0  0  0  0  0  0  0
  1  2  2  0
  2  3  1  0
  2 11  1  0
  3  4  2  0
  3 12  1  0
  4  5  1  0
  4 13  1  0
  5  6  1  0
  5 10  2  0
  6  7  2  0
  6 14  1  0
  7  8  1  0
  7 15  1  0
  8  9  2  0
  8 16  1  0
  9 10  1  0
  9 17  1  0
 10 11  1  0
M  END

