
     RDKit          3D

 41 43  0  0  0  0  0  0  0  0999 V2000
    0.9687    0.1931   -1.8186 C   0  0  0  0  0  0  0  0  0  0  0  0
    2.3739    0.0237   -2.3663 C   0  0  0  0  0  0  0  0  0  0  0  0
    3.0419   -0.9656   -1.6174 O   0  0  0  0  0  0  0  0  0  0  0  0
    4.3636   -1.2167   -2.0374 C   0  0  0  0  0  0  0  0  0  0  0  0
    4.8711   -2.3876   -1.1848 C   0  0  1  0  0  0  0  0  0  0  0  0
    4.2528   -3.7340   -1.5603 C   0  0  0  0  0  0  0  0  0  0  0  0
    6.3599   -2.4455   -1.1251 N   0  0  0  0  0  0  0  0  0  0  0  0
    6.9702   -2.4087    0.1239 C   0  0  0  0  0  0  0  0  0  0  0  0
    6.2031   -2.2842    1.6022 S   0  0  0  0  0  0  0  0  0  0  0  0
    8.3477   -2.4884    0.1146 N   0  0  0  0  0  0  0  0  0  0  0  0
    8.7726   -2.4565    1.0357 H   0  0  0  0  0  0  0  0  0  0  0  0
    9.0924   -2.6178   -1.0226 C   0  0  0  0  0  0  0  0  0  0  0  0
   10.8207   -2.7286   -1.0920 S   0  0  0  0  0  0  0  0  0  0  0  0
   10.7574   -2.8614   -2.8527 C   0  0  0  0  0  0  0  0  0  0  0  0
    9.4744   -2.8146   -3.3310 C   0  0  0  0  0  0  0  0  0  0  0  0
    8.5048   -2.6788   -2.2691 C   0  0  0  0  0  0  0  0  0  0  0  0
    7.0544   -2.5955   -2.3668 C   0  0  0  0  0  0  0  0  0  0  0  0
    6.4362   -2.6426   -3.4166 O   0  0  0  0  0  0  0  0  0  0  0  0
    9.1732   -2.9121   -4.8062 C   0  0  0  0  0  0  0  0  0  0  0  0
   10.4343   -2.6969   -5.6560 C   0  0  0  0  0  0  0  0  0  0  0  0
   11.6379   -3.4682   -5.1008 C   0  0  0  0  0  0  0  0  0  0  0  0
   12.0032   -2.9958   -3.6827 C   0  0  0  0  0  0  0  0  0  0  0  0
    0.4231    0.9649   -2.3840 H   0  0  0  0  0  0  0  0  0  0  0  0
    1.0004    0.4925   -0.7596 H   0  0  0  0  0  0  0  0  0  0  0  0
    0.4088   -0.7524   -1.8894 H   0  0  0  0  0  0  0  0  0  0  0  0
    2.9280    0.9852   -2.3122 H   0  0  0  0  0  0  0  0  0  0  0  0
    2.3427   -0.2616   -3.4392 H   0  0  0  0  0  0  0  0  0  0  0  0
    5.0058   -0.3270   -1.8665 H   0  0  0  0  0  0  0  0  0  0  0  0
    4.3978   -1.4513   -3.1151 H   0  0  0  0  0  0  0  0  0  0  0  0
    4.5701   -2.1460   -0.1588 H   0  0  0  0  0  0  0  0  0  0  0  0
    4.5584   -4.0572   -2.5650 H   0  0  0  0  0  0  0  0  0  0  0  0
    3.1585   -3.6258   -1.5422 H   0  0  0  0  0  0  0  0  0  0  0  0
    4.5324   -4.5067   -0.8275 H   0  0  0  0  0  0  0  0  0  0  0  0
    8.3838   -2.1933   -5.0712 H   0  0  0  0  0  0  0  0  0  0  0  0
    8.7330   -3.9044   -5.0141 H   0  0  0  0  0  0  0  0  0  0  0  0
   10.6784   -1.6195   -5.6835 H   0  0  0  0  0  0  0  0  0  0  0  0
   10.2353   -2.9973   -6.6971 H   0  0  0  0  0  0  0  0  0  0  0  0
   12.5118   -3.3543   -5.7622 H   0  0  0  0  0  0  0  0  0  0  0  0
   11.3995   -4.5462   -5.0739 H   0  0  0  0  0  0  0  0  0  0  0  0
   12.5294   -2.0237   -3.7342 H   0  0  0  0  0  0  0  0  0  0  0  0
   12.7123   -3.6998   -3.2147 H   0  0  0  0  0  0  0  0  0  0  0  0
  1  2  1  0
  1 23  1  0
  1 24  1  0
  1 25  1  0
  2  3  1  0
  2 26  1  0
  2 27  1  0
  3  4  1  0
  4  5  1  0
  4 28  1  0
  4 29  1  0
  5  6  1  0
  5  7  1  0
  5 30  1  1
  6 31  1  0
  6 32  1  0
  6 33  1  0
  7  8  1  0
  7 17  1  0
  8  9  2  0
  8 10  1  0
 10 11  1  0
 10 12  1  0
 12 13  2  0
 12 16  1  0
 13 14  1  0
 14 15  2  0
 14 22  1  0
 15 16  1  0
 15 19  1  0
 16 17  2  0
 17 18  1  0
 19 20  1  0
 19 34  1  0
 19 35  1  0
 20 21  1  0
 20 36  1  0
 20 37  1  0
 21 22  1  0
 21 38  1  0
 21 39  1  0
 22 40  1  0
 22 41  1  0
M  CHG  2  13   1  18  -1
M  END

