
     RDKit          3D

 37 38  0  0  0  0  0  0  0  0999 V2000
    0.7523   -0.4015   -0.0361 C   0  0  0  0  0  0  0  0  0  0  0  0
    2.1681    0.1935   -0.0895 C   0  0  1  0  0  0  0  0  0  0  0  0
    3.2696   -0.8875   -0.0780 C   0  0  0  0  0  0  0  0  0  0  0  0
    3.3896   -1.6281   -1.4167 C   0  0  0  0  0  0  0  0  0  0  0  0
    3.6009   -0.6477   -2.5783 C   0  0  0  0  0  0  0  0  0  0  0  0
    2.4930    0.4099   -2.6297 C   0  0  2  0  0  0  0  0  0  0  0  0
    2.7661    1.3986   -3.6322 O   0  0  0  0  0  0  0  0  0  0  0  0
    2.4303    1.0489   -4.9559 C   0  0  0  0  0  0  0  0  0  0  0  0
    1.0393    1.5341   -5.4080 C   0  0  0  0  0  0  0  0  0  0  0  0
    0.5364    1.1215   -6.4252 O   0  0  0  0  0  0  0  0  0  0  0  0
    0.5215    2.4889   -4.5487 N   0  0  0  0  0  0  0  0  0  0  0  0
   -0.6714    3.2044   -4.6106 C   0  0  0  0  0  0  0  0  0  0  0  0
   -0.8969    4.2255   -3.6530 C   0  0  0  0  0  0  0  0  0  0  0  0
   -2.0101    4.9409   -3.6472 N   0  0  0  0  0  0  0  0  0  0  0  0
   -2.9204    4.6647   -4.5898 C   0  0  0  0  0  0  0  0  0  0  0  0
   -2.6952    3.6592   -5.5317 C   0  0  0  0  0  0  0  0  0  0  0  0
   -1.5789    2.9290   -5.5431 N   0  0  0  0  0  0  0  0  0  0  0  0
    2.3716    1.1408   -1.2916 C   0  0  0  0  0  0  0  0  0  0  0  0
    0.6204   -1.0154    0.8694 H   0  0  0  0  0  0  0  0  0  0  0  0
    0.5259   -1.0446   -0.9015 H   0  0  0  0  0  0  0  0  0  0  0  0
   -0.0098    0.3943   -0.0118 H   0  0  0  0  0  0  0  0  0  0  0  0
    2.2915    0.8028    0.8229 H   0  0  0  0  0  0  0  0  0  0  0  0
    3.0844   -1.6029    0.7410 H   0  0  0  0  0  0  0  0  0  0  0  0
    4.2376   -0.4040    0.1454 H   0  0  0  0  0  0  0  0  0  0  0  0
    2.4817   -2.2294   -1.6006 H   0  0  0  0  0  0  0  0  0  0  0  0
    4.2245   -2.3467   -1.3782 H   0  0  0  0  0  0  0  0  0  0  0  0
    3.6573   -1.1911   -3.5361 H   0  0  0  0  0  0  0  0  0  0  0  0
    4.5622   -0.1177   -2.4557 H   0  0  0  0  0  0  0  0  0  0  0  0
    1.5300   -0.0833   -2.8683 H   0  0  0  0  0  0  0  0  0  0  0  0
    2.4676   -0.0376   -5.1404 H   0  0  0  0  0  0  0  0  0  0  0  0
    3.1685    1.5145   -5.6316 H   0  0  0  0  0  0  0  0  0  0  0  0
    1.1486    2.7063   -3.7765 H   0  0  0  0  0  0  0  0  0  0  0  0
   -0.1427    4.4474   -2.8867 H   0  0  0  0  0  0  0  0  0  0  0  0
   -3.8439    5.2528   -4.5949 H   0  0  0  0  0  0  0  0  0  0  0  0
   -3.4429    3.4340   -6.3013 H   0  0  0  0  0  0  0  0  0  0  0  0
    1.5449    1.8698   -1.3452 H   0  0  0  0  0  0  0  0  0  0  0  0
    3.2987    1.7235   -1.1518 H   0  0  0  0  0  0  0  0  0  0  0  0
  1  2  1  0
  1 19  1  0
  1 20  1  0
  1 21  1  0
  2  3  1  0
  2 18  1  0
  2 22  1  1
  3  4  1  0
  3 23  1  0
  3 24  1  0
  4  5  1  0
  4 25  1  0
  4 26  1  0
  5  6  1  0
  5 27  1  0
  5 28  1  0
  6  7  1  0
  6 18  1  0
  6 29  1  6
  7  8  1  0
  8  9  1  0
  8 30  1  0
  8 31  1  0
  9 10  2  0
  9 11  1  0
 11 12  1  0
 11 32  1  0
 12 13  2  0
 12 17  1  0
 13 14  1  0
 13 33  1  0
 14 15  2  0
 15 16  1  0
 15 34  1  0
 16 17  2  0
 16 35  1  0
 18 36  1  0
 18 37  1  0
M  END

