
     RDKit          3D

 30 31  0  0  0  0  0  0  0  0999 V2000
    2.4680    2.0106   -0.2853 N   0  0  0  0  0  0  0  0  0  0  0  0
    3.3341    1.2412   -0.2942 C   0  0  0  0  0  0  0  0  0  0  0  0
    4.4086    0.2159   -0.2851 C   0  0  1  0  0  0  0  0  0  0  0  0
    3.8091   -1.2070   -0.2013 C   0  0  0  0  0  0  0  0  0  0  0  0
    3.1397   -1.6149   -1.5187 C   0  0  0  0  0  0  0  0  0  0  0  0
    4.1078   -1.4615   -2.6991 C   0  0  0  0  0  0  0  0  0  0  0  0
    4.6923   -0.0478   -2.7601 C   0  0  0  0  0  0  0  0  0  0  0  0
    5.2737    0.3057   -1.4590 N   0  0  0  0  0  0  0  0  0  0  0  0
    6.7852    0.9937   -1.3421 S   0  0  1  0  0  0  0  0  0  0  0  0
    7.2058    0.8804    0.0550 O   0  0  0  0  0  0  0  0  0  0  0  0
    7.5986    0.4697   -2.4368 O   0  0  0  0  0  0  0  0  0  0  0  0
    6.5338    2.7698   -1.6751 C   0  0  0  0  0  0  0  0  0  0  0  0
    5.3294    3.1491   -2.0604 N   0  0  0  0  0  0  0  0  0  0  0  0
    5.1009    4.4416   -2.3057 C   0  0  0  0  0  0  0  0  0  0  0  0
    6.0992    5.4121   -2.1764 C   0  0  0  0  0  0  0  0  0  0  0  0
    7.3788    5.0169   -1.7786 C   0  0  0  0  0  0  0  0  0  0  0  0
    7.5993    3.6671   -1.5243 C   0  0  0  0  0  0  0  0  0  0  0  0
    8.7990    3.2411   -1.1465 F   0  0  0  0  0  0  0  0  0  0  0  0
    5.0335    0.4002    0.6009 H   0  0  0  0  0  0  0  0  0  0  0  0
    3.0990   -1.2534    0.6392 H   0  0  0  0  0  0  0  0  0  0  0  0
    4.6436   -1.8892    0.0290 H   0  0  0  0  0  0  0  0  0  0  0  0
    2.2469   -0.9863   -1.6861 H   0  0  0  0  0  0  0  0  0  0  0  0
    2.7808   -2.6542   -1.4472 H   0  0  0  0  0  0  0  0  0  0  0  0
    3.5972   -1.6825   -3.6507 H   0  0  0  0  0  0  0  0  0  0  0  0
    4.9370   -2.1827   -2.5984 H   0  0  0  0  0  0  0  0  0  0  0  0
    3.9141    0.6908   -3.0248 H   0  0  0  0  0  0  0  0  0  0  0  0
    5.4886    0.0153   -3.5122 H   0  0  0  0  0  0  0  0  0  0  0  0
    4.0851    4.7110   -2.6105 H   0  0  0  0  0  0  0  0  0  0  0  0
    5.8802    6.4620   -2.3823 H   0  0  0  0  0  0  0  0  0  0  0  0
    8.2005    5.7265   -1.6604 H   0  0  0  0  0  0  0  0  0  0  0  0
  1  2  3  0
  2  3  1  0
  3  4  1  0
  3  8  1  0
  3 19  1  1
  4  5  1  0
  4 20  1  0
  4 21  1  0
  5  6  1  0
  5 22  1  0
  5 23  1  0
  6  7  1  0
  6 24  1  0
  6 25  1  0
  7  8  1  0
  7 26  1  0
  7 27  1  0
  8  9  1  0
  9 10  2  0
  9 11  2  0
  9 12  1  6
 12 13  2  0
 12 17  1  0
 13 14  1  0
 14 15  2  0
 14 28  1  0
 15 16  1  0
 15 29  1  0
 16 17  2  0
 16 30  1  0
 17 18  1  0
M  END

