
     RDKit          3D

 54 56  0  0  0  0  0  0  0  0999 V2000
    2.0181   -1.0597   -0.3333 C   0  0  0  0  0  0  0  0  0  0  0  0
    3.2771   -0.3077    0.0990 C   0  0  0  0  0  0  0  0  0  0  0  0
    3.0110    0.8681    1.0601 C   0  0  1  0  0  0  0  0  0  0  0  0
    2.4128    0.3610    2.2914 N   0  0  0  0  0  0  0  0  0  0  0  0
    1.2339    0.8573    2.8019 C   0  0  0  0  0  0  0  0  0  0  0  0
    0.6373    1.7879    2.2709 O   0  0  0  0  0  0  0  0  0  0  0  0
    0.7421    0.2384    3.9456 N   0  0  0  0  0  0  0  0  0  0  0  0
   -0.3241    0.9088    4.6850 C   0  0  0  0  0  0  0  0  0  0  0  0
   -1.3668   -0.0911    5.1781 C   0  0  0  0  0  0  0  0  0  0  0  0
   -0.7293   -1.1717    5.9335 N   0  0  0  0  0  0  0  0  0  0  0  0
   -1.0641   -1.3290    7.2552 C   0  0  0  0  0  0  0  0  0  0  0  0
   -1.8544   -0.5698    7.8067 O   0  0  0  0  0  0  0  0  0  0  0  0
   -0.4784   -2.4551    8.1011 C   0  0  0  0  0  0  0  0  0  0  0  0
   -0.6153   -2.3095    9.4930 C   0  0  0  0  0  0  0  0  0  0  0  0
   -0.1556   -3.3284   10.3245 C   0  0  0  0  0  0  0  0  0  0  0  0
    0.4114   -4.4667    9.7464 C   0  0  0  0  0  0  0  0  0  0  0  0
    0.4974   -4.5246    8.3532 C   0  0  0  0  0  0  0  0  0  0  0  0
    0.0694   -3.5461    7.5527 N   0  0  0  0  0  0  0  0  0  0  0  0
    0.2884   -1.8654    5.1538 C   0  0  0  0  0  0  0  0  0  0  0  0
    1.3522   -0.8842    4.6385 C   0  0  0  0  0  0  0  0  0  0  0  0
    4.2971    1.7051    1.3367 C   0  0  1  0  0  0  0  0  0  0  0  0
    4.8043    2.4692    0.0909 C   0  0  0  0  0  0  0  0  0  0  0  0
    3.9682    3.7196   -0.2006 C   0  0  0  0  0  0  0  0  0  0  0  0
    3.9143    4.5867    0.9110 O   0  0  0  0  0  0  0  0  0  0  0  0
    3.3424    3.9658    2.0513 C   0  0  0  0  0  0  0  0  0  0  0  0
    4.1458    2.7348    2.4783 C   0  0  0  0  0  0  0  0  0  0  0  0
    2.2659   -1.8942   -1.0084 H   0  0  0  0  0  0  0  0  0  0  0  0
    1.3189   -0.3939   -0.8651 H   0  0  0  0  0  0  0  0  0  0  0  0
    1.4804   -1.4754    0.5329 H   0  0  0  0  0  0  0  0  0  0  0  0
    3.7983    0.0670   -0.7955 H   0  0  0  0  0  0  0  0  0  0  0  0
    3.9858   -1.0063    0.5842 H   0  0  0  0  0  0  0  0  0  0  0  0
    2.2397    1.5175    0.6216 H   0  0  0  0  0  0  0  0  0  0  0  0
    2.9685   -0.2822    2.8392 H   0  0  0  0  0  0  0  0  0  0  0  0
   -0.7779    1.6494    4.0156 H   0  0  0  0  0  0  0  0  0  0  0  0
    0.0996    1.4458    5.5574 H   0  0  0  0  0  0  0  0  0  0  0  0
   -1.8960   -0.5306    4.3132 H   0  0  0  0  0  0  0  0  0  0  0  0
   -2.0958    0.4005    5.8316 H   0  0  0  0  0  0  0  0  0  0  0  0
   -1.0904   -1.4093    9.8819 H   0  0  0  0  0  0  0  0  0  0  0  0
   -0.2444   -3.2389   11.4103 H   0  0  0  0  0  0  0  0  0  0  0  0
    0.7791   -5.2942   10.3574 H   0  0  0  0  0  0  0  0  0  0  0  0
    0.9323   -5.4022    7.8608 H   0  0  0  0  0  0  0  0  0  0  0  0
   -0.2013   -2.3407    4.2834 H   0  0  0  0  0  0  0  0  0  0  0  0
    0.7425   -2.6587    5.7524 H   0  0  0  0  0  0  0  0  0  0  0  0
    2.0031   -1.4467    3.9550 H   0  0  0  0  0  0  0  0  0  0  0  0
    1.9708   -0.5380    5.4927 H   0  0  0  0  0  0  0  0  0  0  0  0
    5.0807    0.9824    1.6350 H   0  0  0  0  0  0  0  0  0  0  0  0
    4.8336    1.8270   -0.8037 H   0  0  0  0  0  0  0  0  0  0  0  0
    5.8428    2.7906    0.2790 H   0  0  0  0  0  0  0  0  0  0  0  0
    2.9417    3.4356   -0.5162 H   0  0  0  0  0  0  0  0  0  0  0  0
    4.4143    4.2936   -1.0281 H   0  0  0  0  0  0  0  0  0  0  0  0
    2.2882    3.6876    1.8581 H   0  0  0  0  0  0  0  0  0  0  0  0
    3.3461    4.7235    2.8503 H   0  0  0  0  0  0  0  0  0  0  0  0
    3.6838    2.2773    3.3668 H   0  0  0  0  0  0  0  0  0  0  0  0
    5.1547    3.0673    2.7781 H   0  0  0  0  0  0  0  0  0  0  0  0
  1  2  1  0
  1 27  1  0
  1 28  1  0
  1 29  1  0
  2  3  1  0
  2 30  1  0
  2 31  1  0
  3  4  1  0
  3 21  1  0
  3 32  1  6
  4  5  1  0
  4 33  1  0
  5  6  2  0
  5  7  1  0
  7  8  1  0
  7 20  1  0
  8  9  1  0
  8 34  1  0
  8 35  1  0
  9 10  1  0
  9 36  1  0
  9 37  1  0
 10 11  1  0
 10 19  1  0
 11 12  2  0
 11 13  1  0
 13 14  2  0
 13 18  1  0
 14 15  1  0
 14 38  1  0
 15 16  2  0
 15 39  1  0
 16 17  1  0
 16 40  1  0
 17 18  2  0
 17 41  1  0
 19 20  1  0
 19 42  1  0
 19 43  1  0
 20 44  1  0
 20 45  1  0
 21 22  1  0
 21 26  1  0
 21 46  1  1
 22 23  1  0
 22 47  1  0
 22 48  1  0
 23 24  1  0
 23 49  1  0
 23 50  1  0
 24 25  1  0
 25 26  1  0
 25 51  1  0
 25 52  1  0
 26 53  1  0
 26 54  1  0
M  END

