
     RDKit          3D

 35 35  0  0  0  0  0  0  0  0999 V2000
    2.2552    1.1137   -2.0839 C   0  0  0  0  0  0  0  0  0  0  0  0
    2.3743    0.3743   -0.7483 C   0  0  1  0  0  0  0  0  0  0  0  0
    1.0188   -0.1453   -0.2435 C   0  0  0  0  0  0  0  0  0  0  0  0
    1.0526   -0.7975    1.1391 C   0  0  0  0  0  0  0  0  0  0  0  0
   -0.3150   -1.2948    1.6081 C   0  0  0  0  0  0  0  0  0  0  0  0
   -0.2819   -1.8569    2.9020 O   0  0  0  0  0  0  0  0  0  0  0  0
    3.3281   -0.7474   -0.8174 N   0  0  0  0  0  0  0  0  0  0  0  0
    4.9694   -0.5334   -0.6601 S   0  0  1  0  0  0  0  0  0  0  0  0
    5.5986   -1.5907   -1.4461 O   0  0  0  0  0  0  0  0  0  0  0  0
    5.3140    0.8803   -0.8291 O   0  0  0  0  0  0  0  0  0  0  0  0
    5.2874   -0.8937    1.0794 C   0  0  0  0  0  0  0  0  0  0  0  0
    5.9471    0.0505    1.8587 C   0  0  0  0  0  0  0  0  0  0  0  0
    6.2842   -0.2328    3.1841 C   0  0  0  0  0  0  0  0  0  0  0  0
    6.9974    0.8029    3.9547 N   0  0  0  0  0  0  0  0  0  0  0  0
    6.9595    1.9392    3.5131 O   0  0  0  0  0  0  0  0  0  0  0  0
    7.5805    0.4535    4.9642 O   0  0  0  0  0  0  0  0  0  0  0  0
    5.9481   -1.4799    3.7395 C   0  0  0  0  0  0  0  0  0  0  0  0
    6.2192   -1.7892    4.9935 F   0  0  0  0  0  0  0  0  0  0  0  0
    5.2774   -2.4290    2.9667 C   0  0  0  0  0  0  0  0  0  0  0  0
    4.9618   -2.1347    1.6459 C   0  0  0  0  0  0  0  0  0  0  0  0
    4.3129   -3.0446    0.9281 F   0  0  0  0  0  0  0  0  0  0  0  0
    1.5670    1.9692   -1.9972 H   0  0  0  0  0  0  0  0  0  0  0  0
    1.8635    0.4445   -2.8688 H   0  0  0  0  0  0  0  0  0  0  0  0
    3.2377    1.4903   -2.4015 H   0  0  0  0  0  0  0  0  0  0  0  0
    2.7825    1.0706    0.0026 H   0  0  0  0  0  0  0  0  0  0  0  0
    0.6158   -0.8596   -0.9866 H   0  0  0  0  0  0  0  0  0  0  0  0
    0.3165    0.7062   -0.2373 H   0  0  0  0  0  0  0  0  0  0  0  0
    1.4372   -0.0838    1.8887 H   0  0  0  0  0  0  0  0  0  0  0  0
    1.7596   -1.6462    1.1236 H   0  0  0  0  0  0  0  0  0  0  0  0
   -0.7298   -2.0060    0.8625 H   0  0  0  0  0  0  0  0  0  0  0  0
   -1.0232   -0.4507    1.6600 H   0  0  0  0  0  0  0  0  0  0  0  0
    0.2723   -2.6477    2.8715 H   0  0  0  0  0  0  0  0  0  0  0  0
    3.1404   -1.4809   -1.5000 H   0  0  0  0  0  0  0  0  0  0  0  0
    6.2039    1.0235    1.4387 H   0  0  0  0  0  0  0  0  0  0  0  0
    5.0059   -3.3911    3.4029 H   0  0  0  0  0  0  0  0  0  0  0  0
  1  2  1  0
  1 22  1  0
  1 23  1  0
  1 24  1  0
  2  3  1  0
  2  7  1  0
  2 25  1  1
  3  4  1  0
  3 26  1  0
  3 27  1  0
  4  5  1  0
  4 28  1  0
  4 29  1  0
  5  6  1  0
  5 30  1  0
  5 31  1  0
  6 32  1  0
  8  7  1  1
  7 33  1  0
  8  9  2  0
  8 10  2  0
  8 11  1  0
 11 12  2  0
 11 20  1  0
 12 13  1  0
 12 34  1  0
 13 14  1  0
 13 17  2  0
 14 15  2  0
 14 16  1  0
 17 18  1  0
 17 19  1  0
 19 20  2  0
 19 35  1  0
 20 21  1  0
M  CHG  2  14   1  16  -1
M  END

