
     RDKit          3D

 29 30  0  0  0  0  0  0  0  0999 V2000
    3.3442   -0.3001    1.3264 C   0  0  0  0  0  0  0  0  0  0  0  0
    2.5025   -0.0581    0.0524 C   0  0  1  0  0  0  0  0  0  0  0  0
    0.9985   -0.1111    0.4073 C   0  0  0  0  0  0  0  0  0  0  0  0
    2.8370    1.3300   -0.5154 C   0  0  0  0  0  0  0  0  0  0  0  0
    2.8165   -1.1541   -0.9789 C   0  0  0  0  0  0  0  0  0  0  0  0
    2.5863   -2.5251   -0.6508 C   0  0  0  0  0  0  0  0  0  0  0  0
    2.8708   -3.4939   -1.5815 C   0  0  0  0  0  0  0  0  0  0  0  0
    2.5893   -5.1711   -1.1796 Cl  0  0  0  0  0  0  0  0  0  0  0  0
    3.3904   -3.1442   -2.8645 C   0  0  0  0  0  0  0  0  0  0  0  0
    3.7092   -4.0833   -3.8782 C   0  0  0  0  0  0  0  0  0  0  0  0
    4.2068   -3.6501   -5.0888 C   0  0  0  0  0  0  0  0  0  0  0  0
    4.4049   -2.2709   -5.3353 C   0  0  0  0  0  0  0  0  0  0  0  0
    4.1015   -1.3389   -4.3626 C   0  0  0  0  0  0  0  0  0  0  0  0
    4.4108    0.7208   -4.7669 I   0  0  0  0  0  0  0  0  0  0  0  0
    3.5830   -1.7364   -3.0895 C   0  0  0  0  0  0  0  0  0  0  0  0
    3.2941   -0.8011   -2.1524 N   0  0  0  0  0  0  0  0  0  0  0  0
    3.1373    0.4861    2.0703 H   0  0  0  0  0  0  0  0  0  0  0  0
    4.4220   -0.2755    1.0998 H   0  0  0  0  0  0  0  0  0  0  0  0
    3.1194   -1.2691    1.7992 H   0  0  0  0  0  0  0  0  0  0  0  0
    0.7549    0.6772    1.1378 H   0  0  0  0  0  0  0  0  0  0  0  0
    0.7075   -1.0756    0.8526 H   0  0  0  0  0  0  0  0  0  0  0  0
    0.3749    0.0516   -0.4861 H   0  0  0  0  0  0  0  0  0  0  0  0
    2.6059    2.1028    0.2352 H   0  0  0  0  0  0  0  0  0  0  0  0
    2.2590    1.5412   -1.4260 H   0  0  0  0  0  0  0  0  0  0  0  0
    3.9000    1.4083   -0.7836 H   0  0  0  0  0  0  0  0  0  0  0  0
    2.1899   -2.8128    0.3225 H   0  0  0  0  0  0  0  0  0  0  0  0
    3.5545   -5.1449   -3.6835 H   0  0  0  0  0  0  0  0  0  0  0  0
    4.4534   -4.3716   -5.8713 H   0  0  0  0  0  0  0  0  0  0  0  0
    4.7993   -1.9460   -6.2996 H   0  0  0  0  0  0  0  0  0  0  0  0
  2  1  1  1
  1 17  1  0
  1 18  1  0
  1 19  1  0
  2  3  1  0
  2  4  1  0
  2  5  1  0
  3 20  1  0
  3 21  1  0
  3 22  1  0
  4 23  1  0
  4 24  1  0
  4 25  1  0
  5  6  2  0
  5 16  1  0
  6  7  1  0
  6 26  1  0
  7  8  1  0
  7  9  2  0
  9 10  1  0
  9 15  1  0
 10 11  2  0
 10 27  1  0
 11 12  1  0
 11 28  1  0
 12 13  2  0
 12 29  1  0
 13 14  1  0
 13 15  1  0
 15 16  2  0
M  END

