
     RDKit          3D

 59 62  0  0  0  0  0  0  0  0999 V2000
    1.2546   -0.2920   -0.5289 C   0  0  0  0  0  0  0  0  0  0  0  0
    2.4029    0.0014   -1.4963 C   0  0  0  0  0  0  0  0  0  0  0  0
    2.3371    1.3805   -2.1787 C   0  0  2  0  0  0  0  0  0  0  0  0
    2.2437    2.1481   -1.3879 H   0  0  0  0  0  0  0  0  0  0  0  0
    1.1462    1.5215   -3.1351 C   0  0  0  0  0  0  0  0  0  0  0  0
    3.6318    1.6892   -2.9311 C   0  0  0  0  0  0  0  0  0  0  0  0
    4.7093    1.7286   -2.0075 O   0  0  0  0  0  0  0  0  0  0  0  0
    5.9678    1.9765   -2.4412 C   0  0  0  0  0  0  0  0  0  0  0  0
    6.3190    2.2074   -3.7809 C   0  0  0  0  0  0  0  0  0  0  0  0
    7.6551    2.4550   -4.1168 C   0  0  0  0  0  0  0  0  0  0  0  0
    8.6603    2.4788   -3.1437 C   0  0  0  0  0  0  0  0  0  0  0  0
   10.0842    2.7435   -3.5150 C   0  0  0  0  0  0  0  0  0  0  0  0
   10.5645    4.0671   -3.5316 C   0  0  0  0  0  0  0  0  0  0  0  0
    9.9216    5.3209   -3.2424 C   0  0  0  0  0  0  0  0  0  0  0  0
    8.5073    5.5926   -2.8262 C   0  0  0  0  0  0  0  0  0  0  0  0
   10.8961    6.2996   -3.4257 C   0  0  0  0  0  0  0  0  0  0  0  0
   12.0983    5.6662   -3.8145 C   0  0  0  0  0  0  0  0  0  0  0  0
   13.4150    6.2983   -4.1215 C   0  0  0  0  0  0  0  0  0  0  0  0
   11.8925    4.3372   -3.8752 N   0  0  0  0  0  0  0  0  0  0  0  0
   12.9669    3.2788   -4.2640 B   0  0  1  0  0  0  0  0  0  0  0  0
   13.4245    3.5150   -5.5598 F   0  0  0  0  0  0  0  0  0  0  0  0
   14.0312    3.3256   -3.3646 F   0  0  0  0  0  0  0  0  0  0  0  0
   12.2651    1.8904   -4.1903 N   0  0  0  0  0  0  0  0  0  0  0  0
   12.8527    0.7085   -4.4548 C   0  0  0  0  0  0  0  0  0  0  0  0
   14.2842    0.5865   -4.8596 C   0  0  0  0  0  0  0  0  0  0  0  0
   11.9036   -0.3246   -4.2833 C   0  0  0  0  0  0  0  0  0  0  0  0
   10.6928    0.2484   -3.9001 C   0  0  0  0  0  0  0  0  0  0  0  0
    9.4362   -0.5199   -3.6213 C   0  0  0  0  0  0  0  0  0  0  0  0
   10.9298    1.6660   -3.8419 C   0  0  0  0  0  0  0  0  0  0  0  0
    8.2957    2.2467   -1.8051 C   0  0  0  0  0  0  0  0  0  0  0  0
    6.9722    1.9996   -1.4560 C   0  0  0  0  0  0  0  0  0  0  0  0
    1.3942   -1.2679   -0.0376 H   0  0  0  0  0  0  0  0  0  0  0  0
    0.2761   -0.3196   -1.0344 H   0  0  0  0  0  0  0  0  0  0  0  0
    1.1966    0.4718    0.2648 H   0  0  0  0  0  0  0  0  0  0  0  0
    2.4403   -0.7801   -2.2788 H   0  0  0  0  0  0  0  0  0  0  0  0
    3.3584   -0.0647   -0.9521 H   0  0  0  0  0  0  0  0  0  0  0  0
    1.1103    2.5241   -3.5917 H   0  0  0  0  0  0  0  0  0  0  0  0
    0.1904    1.3657   -2.6139 H   0  0  0  0  0  0  0  0  0  0  0  0
    1.2020    0.7820   -3.9527 H   0  0  0  0  0  0  0  0  0  0  0  0
    3.5490    2.6629   -3.4494 H   0  0  0  0  0  0  0  0  0  0  0  0
    3.8203    0.9155   -3.7011 H   0  0  0  0  0  0  0  0  0  0  0  0
    5.5662    2.1976   -4.5690 H   0  0  0  0  0  0  0  0  0  0  0  0
    7.9162    2.6332   -5.1631 H   0  0  0  0  0  0  0  0  0  0  0  0
    8.2469    5.0866   -1.8839 H   0  0  0  0  0  0  0  0  0  0  0  0
    7.7801    5.2452   -3.5761 H   0  0  0  0  0  0  0  0  0  0  0  0
    8.3595    6.6733   -2.6841 H   0  0  0  0  0  0  0  0  0  0  0  0
   10.7660    7.3728   -3.2946 H   0  0  0  0  0  0  0  0  0  0  0  0
   13.3539    7.3902   -4.0204 H   0  0  0  0  0  0  0  0  0  0  0  0
   14.1950    5.9137   -3.4457 H   0  0  0  0  0  0  0  0  0  0  0  0
   13.7364    6.0443   -5.1437 H   0  0  0  0  0  0  0  0  0  0  0  0
   14.9420    1.0098   -4.0843 H   0  0  0  0  0  0  0  0  0  0  0  0
   14.4760    1.1621   -5.7786 H   0  0  0  0  0  0  0  0  0  0  0  0
   14.5513   -0.4654   -5.0276 H   0  0  0  0  0  0  0  0  0  0  0  0
   12.0980   -1.3862   -4.4290 H   0  0  0  0  0  0  0  0  0  0  0  0
    9.6156   -1.5959   -3.7629 H   0  0  0  0  0  0  0  0  0  0  0  0
    8.6113   -0.2219   -4.2866 H   0  0  0  0  0  0  0  0  0  0  0  0
    9.0754   -0.3676   -2.5926 H   0  0  0  0  0  0  0  0  0  0  0  0
    9.0641    2.2611   -1.0281 H   0  0  0  0  0  0  0  0  0  0  0  0
    6.6849    1.8200   -0.4180 H   0  0  0  0  0  0  0  0  0  0  0  0
  1  2  1  0
  1 32  1  0
  1 33  1  0
  1 34  1  0
  2  3  1  0
  2 35  1  0
  2 36  1  0
  3  4  1  1
  3  5  1  0
  3  6  1  0
  5 37  1  0
  5 38  1  0
  5 39  1  0
  6  7  1  0
  6 40  1  0
  6 41  1  0
  7  8  1  0
  8  9  2  0
  8 31  1  0
  9 10  1  0
  9 42  1  0
 10 11  2  0
 10 43  1  0
 11 12  1  0
 11 30  1  0
 12 13  1  0
 12 29  2  0
 13 14  2  0
 13 19  1  0
 14 15  1  0
 14 16  1  0
 15 44  1  0
 15 45  1  0
 15 46  1  0
 16 17  2  0
 16 47  1  0
 17 18  1  0
 17 19  1  0
 18 48  1  0
 18 49  1  0
 18 50  1  0
 19 20  1  0
 20 21  1  6
 20 22  1  0
 20 23  1  0
 23 24  2  0
 23 29  1  0
 24 25  1  0
 24 26  1  0
 25 51  1  0
 25 52  1  0
 25 53  1  0
 26 27  2  0
 26 54  1  0
 27 28  1  0
 27 29  1  0
 28 55  1  0
 28 56  1  0
 28 57  1  0
 30 31  2  0
 30 58  1  0
 31 59  1  0
M  CHG  2  20  -1  23   1
M  END

