
     RDKit          3D

 49 49  0  0  0  0  0  0  0  0999 V2000
    2.0446   -0.0372    2.5488 C   0  0  0  0  0  0  0  0  0  0  0  0
    1.9508   -0.6468    1.1600 C   0  0  0  0  0  0  0  0  0  0  0  0
    2.7704   -1.8240    1.0379 O   0  0  0  0  0  0  0  0  0  0  0  0
    4.0687   -1.6532    0.7164 C   0  0  0  0  0  0  0  0  0  0  0  0
    4.5602   -0.5669    0.5198 O   0  0  0  0  0  0  0  0  0  0  0  0
    4.8254   -2.9827    0.6871 C   0  0  1  0  0  0  0  0  0  0  0  0
    4.9549   -3.2354    1.7567 H   0  0  0  0  0  0  0  0  0  0  0  0
    4.0175   -4.1217    0.0305 C   0  0  0  0  0  0  0  0  0  0  0  0
    3.9213   -3.9555   -1.4898 C   0  0  0  0  0  0  0  0  0  0  0  0
    5.3071   -3.8391   -2.1311 C   0  0  1  0  0  0  0  0  0  0  0  0
    5.8423   -4.7956   -1.9700 H   0  0  0  0  0  0  0  0  0  0  0  0
    5.1332   -3.5975   -3.5745 N   0  0  0  0  0  0  0  0  0  0  0  0
    6.3103   -3.6987   -4.3124 N   0  0  0  0  0  0  0  0  0  0  0  0
    6.7839   -4.9139   -4.7355 C   0  0  0  0  0  0  0  0  0  0  0  0
    6.2947   -5.9782   -4.4101 O   0  0  0  0  0  0  0  0  0  0  0  0
    7.8399   -4.7275   -5.5525 O   0  0  0  0  0  0  0  0  0  0  0  0
    8.5630   -5.8512   -6.1536 C   0  0  1  0  0  0  0  0  0  0  0  0
    7.6260   -6.6474   -7.0682 C   0  0  0  0  0  0  0  0  0  0  0  0
    9.6560   -5.1568   -6.9683 C   0  0  0  0  0  0  0  0  0  0  0  0
    9.1767   -6.7266   -5.0557 C   0  0  0  0  0  0  0  0  0  0  0  0
    6.0996   -2.6946   -1.4878 C   0  0  0  0  0  0  0  0  0  0  0  0
    6.2236   -2.8127    0.0459 C   0  0  2  0  0  0  0  0  0  0  0  0
    6.6255   -1.8541    0.4082 H   0  0  0  0  0  0  0  0  0  0  0  0
    7.1970   -3.9157    0.4864 C   0  0  0  0  0  0  0  0  0  0  0  0
    1.3471    0.8116    2.6337 H   0  0  0  0  0  0  0  0  0  0  0  0
    3.0609    0.3360    2.7434 H   0  0  0  0  0  0  0  0  0  0  0  0
    1.7825   -0.7760    3.3223 H   0  0  0  0  0  0  0  0  0  0  0  0
    2.2532    0.0795    0.3912 H   0  0  0  0  0  0  0  0  0  0  0  0
    0.9297   -0.9943    0.9452 H   0  0  0  0  0  0  0  0  0  0  0  0
    3.0144   -4.1705    0.4762 H   0  0  0  0  0  0  0  0  0  0  0  0
    4.5122   -5.0794    0.2624 H   0  0  0  0  0  0  0  0  0  0  0  0
    3.3398   -3.0496   -1.7393 H   0  0  0  0  0  0  0  0  0  0  0  0
    3.3749   -4.8107   -1.9252 H   0  0  0  0  0  0  0  0  0  0  0  0
    4.4702   -4.2800   -3.9468 H   0  0  0  0  0  0  0  0  0  0  0  0
    6.6486   -2.8588   -4.7686 H   0  0  0  0  0  0  0  0  0  0  0  0
    7.1707   -5.9844   -7.8207 H   0  0  0  0  0  0  0  0  0  0  0  0
    6.8272   -7.1291   -6.4903 H   0  0  0  0  0  0  0  0  0  0  0  0
    8.1970   -7.4246   -7.6000 H   0  0  0  0  0  0  0  0  0  0  0  0
    9.2119   -4.4940   -7.7264 H   0  0  0  0  0  0  0  0  0  0  0  0
   10.2825   -5.9027   -7.4805 H   0  0  0  0  0  0  0  0  0  0  0  0
   10.2998   -4.5495   -6.3141 H   0  0  0  0  0  0  0  0  0  0  0  0
    8.3958   -7.2101   -4.4552 H   0  0  0  0  0  0  0  0  0  0  0  0
    9.8110   -6.1188   -4.3914 H   0  0  0  0  0  0  0  0  0  0  0  0
    9.8077   -7.5059   -5.5108 H   0  0  0  0  0  0  0  0  0  0  0  0
    5.5914   -1.7482   -1.7372 H   0  0  0  0  0  0  0  0  0  0  0  0
    7.1054   -2.6423   -1.9363 H   0  0  0  0  0  0  0  0  0  0  0  0
    8.1943   -3.7471    0.0495 H   0  0  0  0  0  0  0  0  0  0  0  0
    6.8736   -4.9226    0.1790 H   0  0  0  0  0  0  0  0  0  0  0  0
    7.3129   -3.9267    1.5828 H   0  0  0  0  0  0  0  0  0  0  0  0
  1  2  1  0
  1 25  1  0
  1 26  1  0
  1 27  1  0
  2  3  1  0
  2 28  1  0
  2 29  1  0
  3  4  1  0
  4  5  2  0
  4  6  1  0
  6  7  1  1
  6  8  1  0
  6 22  1  0
  8  9  1  0
  8 30  1  0
  8 31  1  0
  9 10  1  0
  9 32  1  0
  9 33  1  0
 10 11  1  6
 10 12  1  0
 10 21  1  0
 12 13  1  0
 12 34  1  0
 13 14  1  0
 13 35  1  0
 14 15  2  0
 14 16  1  0
 17 16  1  1
 17 18  1  0
 17 19  1  0
 17 20  1  0
 18 36  1  0
 18 37  1  0
 18 38  1  0
 19 39  1  0
 19 40  1  0
 19 41  1  0
 20 42  1  0
 20 43  1  0
 20 44  1  0
 21 22  1  0
 21 45  1  0
 21 46  1  0
 22 23  1  1
 22 24  1  0
 24 47  1  0
 24 48  1  0
 24 49  1  0
M  END

