
     RDKit          3D

 36 37  0  0  0  0  0  0  0  0999 V2000
    1.0465   -0.8571   -0.2095 C   0  0  0  0  0  0  0  0  0  0  0  0
    2.5411   -0.6897   -0.1019 C   0  0  0  0  0  0  0  0  0  0  0  0
    3.3133   -1.4314    0.8022 C   0  0  0  0  0  0  0  0  0  0  0  0
    4.6904   -1.2248    0.8572 C   0  0  0  0  0  0  0  0  0  0  0  0
    5.2733   -0.2961   -0.0143 C   0  0  0  0  0  0  0  0  0  0  0  0
    6.6589   -0.0274    0.0156 N   0  0  0  0  0  0  0  0  0  0  0  0
    7.8870   -1.2059   -0.0681 S   0  0  1  0  0  0  0  0  0  0  0  0
    9.1130   -0.4077   -0.0432 O   0  0  0  0  0  0  0  0  0  0  0  0
    7.5798   -2.2122    0.9486 O   0  0  0  0  0  0  0  0  0  0  0  0
    7.7592   -1.9840   -1.6649 C   0  0  0  0  0  0  0  0  0  0  0  0
    8.4403   -1.4291   -2.7578 C   0  0  0  0  0  0  0  0  0  0  0  0
    8.3282   -2.0176   -4.0105 C   0  0  0  0  0  0  0  0  0  0  0  0
    7.5333   -3.1732   -4.1972 C   0  0  0  0  0  0  0  0  0  0  0  0
    7.4240   -3.7193   -5.4582 N   0  0  0  0  0  0  0  0  0  0  0  0
    6.7832   -4.9295   -5.6658 N   0  0  0  0  0  0  0  0  0  0  0  0
    6.8665   -3.7288   -3.0839 C   0  0  0  0  0  0  0  0  0  0  0  0
    6.9821   -3.1381   -1.8302 C   0  0  0  0  0  0  0  0  0  0  0  0
    4.4240    0.4111   -0.9018 C   0  0  0  0  0  0  0  0  0  0  0  0
    4.9766    1.4408   -1.8578 C   0  0  0  0  0  0  0  0  0  0  0  0
    3.1057    0.2109   -0.9183 N   0  0  0  0  0  0  0  0  0  0  0  0
    0.6657   -1.6162    0.4887 H   0  0  0  0  0  0  0  0  0  0  0  0
    0.7667   -1.1491   -1.2349 H   0  0  0  0  0  0  0  0  0  0  0  0
    0.5373    0.0983   -0.0030 H   0  0  0  0  0  0  0  0  0  0  0  0
    2.8404   -2.1549    1.4703 H   0  0  0  0  0  0  0  0  0  0  0  0
    5.3217   -1.7681    1.5606 H   0  0  0  0  0  0  0  0  0  0  0  0
    6.9687    0.8187   -0.4535 H   0  0  0  0  0  0  0  0  0  0  0  0
    9.0731   -0.5515   -2.6122 H   0  0  0  0  0  0  0  0  0  0  0  0
    8.8678   -1.5899   -4.8606 H   0  0  0  0  0  0  0  0  0  0  0  0
    8.0349   -3.3454   -6.1796 H   0  0  0  0  0  0  0  0  0  0  0  0
    7.4371   -5.6799   -5.8953 H   0  0  0  0  0  0  0  0  0  0  0  0
    6.0813   -4.8548   -6.4012 H   0  0  0  0  0  0  0  0  0  0  0  0
    6.2704   -4.6292   -3.2283 H   0  0  0  0  0  0  0  0  0  0  0  0
    6.4833   -3.5803   -0.9663 H   0  0  0  0  0  0  0  0  0  0  0  0
    5.7547    1.0145   -2.5134 H   0  0  0  0  0  0  0  0  0  0  0  0
    5.4237    2.3010   -1.3273 H   0  0  0  0  0  0  0  0  0  0  0  0
    4.1573    1.8181   -2.4826 H   0  0  0  0  0  0  0  0  0  0  0  0
  1  2  1  0
  1 21  1  0
  1 22  1  0
  1 23  1  0
  2  3  2  0
  2 20  1  0
  3  4  1  0
  3 24  1  0
  4  5  2  0
  4 25  1  0
  5  6  1  0
  5 18  1  0
  7  6  1  6
  6 26  1  0
  7  8  2  0
  7  9  2  0
  7 10  1  0
 10 11  2  0
 10 17  1  0
 11 12  1  0
 11 27  1  0
 12 13  2  0
 12 28  1  0
 13 14  1  0
 13 16  1  0
 14 15  1  0
 14 29  1  0
 15 30  1  0
 15 31  1  0
 16 17  2  0
 16 32  1  0
 17 33  1  0
 18 19  1  0
 18 20  2  0
 19 34  1  0
 19 35  1  0
 19 36  1  0
M  END

