
     RDKit          3D

 60 61  0  0  0  0  0  0  0  0999 V2000
    9.4765    2.5062   -3.1848 C   0  0  0  0  0  0  0  0  0  0  0  0
    9.9126    2.3366   -1.7292 C   0  0  0  0  0  0  0  0  0  0  0  0
    8.7983    1.8203   -0.8094 C   0  0  0  0  0  0  0  0  0  0  0  0
    9.2691    1.6528    0.6402 C   0  0  0  0  0  0  0  0  0  0  0  0
    8.2513    1.1021    1.6772 C   0  0  1  0  0  0  0  0  0  0  0  0
    7.7216   -0.2757    1.2143 C   0  0  0  0  0  0  0  0  0  0  0  0
    9.0411    0.9053    3.0152 C   0  0  0  0  0  0  0  0  0  0  0  0
   10.2265    1.1098    3.0854 O   0  0  0  0  0  0  0  0  0  0  0  0
    8.3649    0.4253    4.0563 O   0  0  0  0  0  0  0  0  0  0  0  0
    7.0658    2.1345    1.8158 C   0  0  1  0  0  0  0  0  0  0  0  0
    5.8117    1.6413    2.5598 C   0  0  0  0  0  0  0  0  0  0  0  0
    5.7980    0.7449    3.3728 O   0  0  0  0  0  0  0  0  0  0  0  0
    4.2543    2.4465    2.1820 S   0  0  0  0  0  0  0  0  0  0  0  0
    7.4623    3.4518    2.4341 C   0  0  0  0  0  0  0  0  0  0  0  0
    7.4869    3.6777    3.7214 N   0  0  0  0  0  0  0  0  0  0  0  0
    7.9035    4.9912    3.8643 C   0  0  0  0  0  0  0  0  0  0  0  0
    8.1145    5.7300    5.0464 C   0  0  0  0  0  0  0  0  0  0  0  0
    7.8329    5.0456    6.3677 C   0  0  0  0  0  0  0  0  0  0  0  0
    6.3584    5.1415    6.7939 C   0  0  0  0  0  0  0  0  0  0  0  0
    8.5416    7.0659    4.9110 C   0  0  0  0  0  0  0  0  0  0  0  0
    8.8187    7.8936    6.1578 C   0  0  0  0  0  0  0  0  0  0  0  0
   10.2654    7.7745    6.6657 C   0  0  0  0  0  0  0  0  0  0  0  0
    8.7688    7.6343    3.6148 C   0  0  0  0  0  0  0  0  0  0  0  0
    9.1915    9.0841    3.4390 C   0  0  0  0  0  0  0  0  0  0  0  0
    8.0102   10.0662    3.3762 C   0  0  0  0  0  0  0  0  0  0  0  0
    8.5609    6.8836    2.4524 C   0  0  0  0  0  0  0  0  0  0  0  0
    8.1272    5.5660    2.5947 C   0  0  0  0  0  0  0  0  0  0  0  0
    7.8264    4.5585    1.6922 N   0  0  0  0  0  0  0  0  0  0  0  0
    7.9307    4.5991    0.6866 H   0  0  0  0  0  0  0  0  0  0  0  0
   10.3026    2.8750   -3.8130 H   0  0  0  0  0  0  0  0  0  0  0  0
    8.6441    3.2247   -3.2768 H   0  0  0  0  0  0  0  0  0  0  0  0
    9.1333    1.5504   -3.6150 H   0  0  0  0  0  0  0  0  0  0  0  0
   10.2906    3.2993   -1.3391 H   0  0  0  0  0  0  0  0  0  0  0  0
   10.7692    1.6417   -1.6768 H   0  0  0  0  0  0  0  0  0  0  0  0
    8.4276    0.8601   -1.2079 H   0  0  0  0  0  0  0  0  0  0  0  0
    7.9399    2.5171   -0.8796 H   0  0  0  0  0  0  0  0  0  0  0  0
    9.6718    2.6073    1.0140 H   0  0  0  0  0  0  0  0  0  0  0  0
   10.1321    0.9710    0.6565 H   0  0  0  0  0  0  0  0  0  0  0  0
    8.5680   -0.9252    0.9426 H   0  0  0  0  0  0  0  0  0  0  0  0
    7.0747   -0.1782    0.3282 H   0  0  0  0  0  0  0  0  0  0  0  0
    7.1438   -0.7875    1.9932 H   0  0  0  0  0  0  0  0  0  0  0  0
    7.3950    0.4159    3.8939 H   0  0  0  0  0  0  0  0  0  0  0  0
    6.7300    2.3325    0.7869 H   0  0  0  0  0  0  0  0  0  0  0  0
    4.7381    3.3765    1.3274 H   0  0  0  0  0  0  0  0  0  0  0  0
    8.4756    5.4517    7.1623 H   0  0  0  0  0  0  0  0  0  0  0  0
    8.0973    3.9822    6.2624 H   0  0  0  0  0  0  0  0  0  0  0  0
    6.0384    6.1884    6.9226 H   0  0  0  0  0  0  0  0  0  0  0  0
    6.1920    4.6163    7.7484 H   0  0  0  0  0  0  0  0  0  0  0  0
    5.7052    4.6809    6.0369 H   0  0  0  0  0  0  0  0  0  0  0  0
    8.1314    7.5927    6.9623 H   0  0  0  0  0  0  0  0  0  0  0  0
    8.5905    8.9529    5.9689 H   0  0  0  0  0  0  0  0  0  0  0  0
   10.5156    6.7321    6.9180 H   0  0  0  0  0  0  0  0  0  0  0  0
   10.4215    8.3887    7.5678 H   0  0  0  0  0  0  0  0  0  0  0  0
   10.9886    8.1046    5.9029 H   0  0  0  0  0  0  0  0  0  0  0  0
    9.7700    9.1693    2.5043 H   0  0  0  0  0  0  0  0  0  0  0  0
    9.8797    9.3904    4.2411 H   0  0  0  0  0  0  0  0  0  0  0  0
    7.3376    9.8199    2.5390 H   0  0  0  0  0  0  0  0  0  0  0  0
    8.3627   11.1011    3.2353 H   0  0  0  0  0  0  0  0  0  0  0  0
    7.4078   10.0374    4.2981 H   0  0  0  0  0  0  0  0  0  0  0  0
    8.7403    7.3267    1.4694 H   0  0  0  0  0  0  0  0  0  0  0  0
  1  2  1  0
  1 30  1  0
  1 31  1  0
  1 32  1  0
  2  3  1  0
  2 33  1  0
  2 34  1  0
  3  4  1  0
  3 35  1  0
  3 36  1  0
  4  5  1  0
  4 37  1  0
  4 38  1  0
  5  6  1  0
  5  7  1  1
  5 10  1  0
  6 39  1  0
  6 40  1  0
  6 41  1  0
  7  8  2  0
  7  9  1  0
  9 42  1  0
 10 11  1  0
 10 14  1  0
 10 43  1  6
 11 12  2  0
 11 13  1  0
 13 44  1  0
 14 15  2  0
 14 28  1  0
 15 16  1  0
 16 17  2  0
 16 27  1  0
 17 18  1  0
 17 20  1  0
 18 19  1  0
 18 45  1  0
 18 46  1  0
 19 47  1  0
 19 48  1  0
 19 49  1  0
 20 21  1  0
 20 23  2  0
 21 22  1  0
 21 50  1  0
 21 51  1  0
 22 52  1  0
 22 53  1  0
 22 54  1  0
 23 24  1  0
 23 26  1  0
 24 25  1  0
 24 55  1  0
 24 56  1  0
 25 57  1  0
 25 58  1  0
 25 59  1  0
 26 27  2  0
 26 60  1  0
 27 28  1  0
 28 29  1  0
M  END

