
     RDKit          3D

 38 39  0  0  0  0  0  0  0  0999 V2000
    0.8962    0.1883    0.3978 C   0  0  0  0  0  0  0  0  0  0  0  0
    2.3998    0.0961    0.1049 C   0  0  1  0  0  0  0  0  0  0  0  0
    2.8140   -1.2411   -0.5444 C   0  0  0  0  0  0  0  0  0  0  0  0
    4.3291   -1.4346   -0.7306 C   0  0  0  0  0  0  0  0  0  0  0  0
    4.9950   -0.4609   -1.7222 C   0  0  0  0  0  0  0  0  0  0  0  0
    5.3873    0.9244   -1.1732 C   0  0  0  0  0  0  0  0  0  0  0  0
    4.3559    1.5570   -0.2162 C   0  0  0  0  0  0  0  0  0  0  0  0
    2.9621    1.2875   -0.5578 N   0  0  0  0  0  0  0  0  0  0  0  0
    2.4150    1.8888   -1.6960 C   0  0  0  0  0  0  0  0  0  0  0  0
    1.4513    1.2710   -2.5254 C   0  0  0  0  0  0  0  0  0  0  0  0
    0.9158    1.9302   -3.6316 C   0  0  0  0  0  0  0  0  0  0  0  0
    1.3118    3.2185   -4.0115 C   0  0  0  0  0  0  0  0  0  0  0  0
    0.7183    3.9156   -5.2205 C   0  0  0  0  0  0  0  0  0  0  0  0
   -0.0092    2.9967   -6.0894 N   0  0  0  0  0  0  0  0  0  0  0  0
    2.2817    3.8179   -3.1923 C   0  0  0  0  0  0  0  0  0  0  0  0
    2.8427    5.4505   -3.5548 Cl  0  0  0  0  0  0  0  0  0  0  0  0
    2.8229    3.1906   -2.0736 C   0  0  0  0  0  0  0  0  0  0  0  0
    0.6239   -0.5866    1.1315 H   0  0  0  0  0  0  0  0  0  0  0  0
    0.2605    0.0410   -0.4850 H   0  0  0  0  0  0  0  0  0  0  0  0
    0.6506    1.1697    0.8311 H   0  0  0  0  0  0  0  0  0  0  0  0
    2.8804    0.1047    1.0984 H   0  0  0  0  0  0  0  0  0  0  0  0
    2.3188   -1.3550   -1.5242 H   0  0  0  0  0  0  0  0  0  0  0  0
    2.4231   -2.0572    0.0889 H   0  0  0  0  0  0  0  0  0  0  0  0
    4.4891   -2.4636   -1.0945 H   0  0  0  0  0  0  0  0  0  0  0  0
    4.8386   -1.3876    0.2504 H   0  0  0  0  0  0  0  0  0  0  0  0
    4.3182   -0.3302   -2.5843 H   0  0  0  0  0  0  0  0  0  0  0  0
    5.9054   -0.9300   -2.1317 H   0  0  0  0  0  0  0  0  0  0  0  0
    5.5652    1.5972   -2.0286 H   0  0  0  0  0  0  0  0  0  0  0  0
    6.3489    0.8608   -0.6329 H   0  0  0  0  0  0  0  0  0  0  0  0
    4.5405    2.6401   -0.1369 H   0  0  0  0  0  0  0  0  0  0  0  0
    4.5131    1.1656    0.7996 H   0  0  0  0  0  0  0  0  0  0  0  0
    1.1200    0.2555   -2.3234 H   0  0  0  0  0  0  0  0  0  0  0  0
    0.1650    1.4329   -4.2492 H   0  0  0  0  0  0  0  0  0  0  0  0
    1.5263    4.4796   -5.7285 H   0  0  0  0  0  0  0  0  0  0  0  0
    0.0065    4.6864   -4.8706 H   0  0  0  0  0  0  0  0  0  0  0  0
    0.6442    2.3950   -6.5932 H   0  0  0  0  0  0  0  0  0  0  0  0
   -0.5255    3.5176   -6.7966 H   0  0  0  0  0  0  0  0  0  0  0  0
    3.5552    3.7405   -1.4858 H   0  0  0  0  0  0  0  0  0  0  0  0
  1  2  1  0
  1 18  1  0
  1 19  1  0
  1 20  1  0
  2  3  1  0
  2  8  1  0
  2 21  1  1
  3  4  1  0
  3 22  1  0
  3 23  1  0
  4  5  1  0
  4 24  1  0
  4 25  1  0
  5  6  1  0
  5 26  1  0
  5 27  1  0
  6  7  1  0
  6 28  1  0
  6 29  1  0
  7  8  1  0
  7 30  1  0
  7 31  1  0
  8  9  1  0
  9 10  2  0
  9 17  1  0
 10 11  1  0
 10 32  1  0
 11 12  2  0
 11 33  1  0
 12 13  1  0
 12 15  1  0
 13 14  1  0
 13 34  1  0
 13 35  1  0
 14 36  1  0
 14 37  1  0
 15 16  1  0
 15 17  2  0
 17 38  1  0
M  END

