
     RDKit          3D

 72 76  0  0  0  0  0  0  0  0999 V2000
    3.7717   -0.9184   -0.5244 C   0  0  0  0  0  0  0  0  0  0  0  0
    5.0627   -0.6662   -1.2625 C   0  0  0  0  0  0  0  0  0  0  0  0
    6.2024   -0.1894   -0.5959 C   0  0  0  0  0  0  0  0  0  0  0  0
    7.3939    0.0598   -1.2803 C   0  0  0  0  0  0  0  0  0  0  0  0
    7.4510   -0.1864   -2.6547 C   0  0  0  0  0  0  0  0  0  0  0  0
    8.9772    0.1129   -3.5519 S   0  0  1  0  0  0  0  0  0  0  0  0
    8.6575    0.1301   -4.9818 O   0  0  0  0  0  0  0  0  0  0  0  0
    9.6422    1.2422   -2.9058 O   0  0  0  0  0  0  0  0  0  0  0  0
    9.9699   -1.2649   -3.3319 N   0  0  0  0  0  0  0  0  0  0  0  0
    9.8591   -2.3507   -4.3068 C   0  0  0  0  0  0  0  0  0  0  0  0
    8.8950   -3.4481   -3.8674 C   0  0  0  0  0  0  0  0  0  0  0  0
    9.4144   -4.2165   -2.2905 S   0  0  0  0  0  0  0  0  0  0  0  0
   10.2999   -2.8860   -1.5018 C   0  0  0  0  0  0  0  0  0  0  0  0
   10.8724   -3.1773   -0.2561 C   0  0  0  0  0  0  0  0  0  0  0  0
   11.6065   -2.2334    0.4617 C   0  0  0  0  0  0  0  0  0  0  0  0
   11.8033   -0.9549   -0.0846 C   0  0  0  0  0  0  0  0  0  0  0  0
   12.5118    0.0368    0.5120 O   0  0  0  0  0  0  0  0  0  0  0  0
   13.1370   -0.2005    1.7628 C   0  0  0  0  0  0  0  0  0  0  0  0
   13.8868    1.0621    2.1597 C   0  0  0  0  0  0  0  0  0  0  0  0
   14.5831    0.9453    3.5187 C   0  0  0  0  0  0  0  0  0  0  0  0
   15.5366   -0.1467    3.5950 N   0  0  0  0  0  0  0  0  0  0  0  0
   16.7233   -0.0240    2.7532 C   0  0  0  0  0  0  0  0  0  0  0  0
   17.6757   -1.0715    3.3270 C   0  0  0  0  0  0  0  0  0  0  0  0
   17.4384   -0.9308    4.8379 C   0  0  0  0  0  0  0  0  0  0  0  0
   15.9433   -0.5526    4.9561 C   0  0  2  0  0  0  0  0  0  0  0  0
   15.0613   -1.7145    5.4435 C   0  0  0  0  0  0  0  0  0  0  0  0
   15.3677   -2.1609    6.7869 N   0  0  0  0  0  0  0  0  0  0  0  0
   14.9978   -1.2615    7.8740 C   0  0  0  0  0  0  0  0  0  0  0  0
   15.2012   -2.1065    9.1469 C   0  0  0  0  0  0  0  0  0  0  0  0
   15.1051   -3.5771    8.6549 C   0  0  0  0  0  0  0  0  0  0  0  0
   14.7990   -3.4521    7.1536 C   0  0  0  0  0  0  0  0  0  0  0  0
   11.2612   -0.6539   -1.3406 C   0  0  0  0  0  0  0  0  0  0  0  0
   10.4942   -1.5914   -2.0460 C   0  0  0  0  0  0  0  0  0  0  0  0
    6.3275   -0.6486   -3.3496 C   0  0  0  0  0  0  0  0  0  0  0  0
    5.1455   -0.8855   -2.6492 C   0  0  0  0  0  0  0  0  0  0  0  0
    3.9008   -0.8246    0.5635 H   0  0  0  0  0  0  0  0  0  0  0  0
    3.3809   -1.9267   -0.7363 H   0  0  0  0  0  0  0  0  0  0  0  0
    2.9931   -0.2002   -0.8334 H   0  0  0  0  0  0  0  0  0  0  0  0
    6.1569   -0.0015    0.4802 H   0  0  0  0  0  0  0  0  0  0  0  0
    8.2669    0.4525   -0.7572 H   0  0  0  0  0  0  0  0  0  0  0  0
   10.8686   -2.7675   -4.4554 H   0  0  0  0  0  0  0  0  0  0  0  0
    9.5336   -1.9145   -5.2596 H   0  0  0  0  0  0  0  0  0  0  0  0
    8.8713   -4.2621   -4.6079 H   0  0  0  0  0  0  0  0  0  0  0  0
    7.8749   -3.0481   -3.7672 H   0  0  0  0  0  0  0  0  0  0  0  0
   10.7337   -4.1754    0.1685 H   0  0  0  0  0  0  0  0  0  0  0  0
   12.0244   -2.5083    1.4296 H   0  0  0  0  0  0  0  0  0  0  0  0
   13.8320   -1.0558    1.6971 H   0  0  0  0  0  0  0  0  0  0  0  0
   12.3778   -0.4542    2.5286 H   0  0  0  0  0  0  0  0  0  0  0  0
   13.1769    1.9051    2.1926 H   0  0  0  0  0  0  0  0  0  0  0  0
   14.6136    1.3052    1.3669 H   0  0  0  0  0  0  0  0  0  0  0  0
   13.8166    0.7838    4.2955 H   0  0  0  0  0  0  0  0  0  0  0  0
   15.0639    1.9244    3.7555 H   0  0  0  0  0  0  0  0  0  0  0  0
   17.1791    0.9921    2.8225 H   0  0  0  0  0  0  0  0  0  0  0  0
   16.4855   -0.1975    1.6904 H   0  0  0  0  0  0  0  0  0  0  0  0
   18.7228   -0.9051    3.0323 H   0  0  0  0  0  0  0  0  0  0  0  0
   17.3839   -2.0743    2.9745 H   0  0  0  0  0  0  0  0  0  0  0  0
   18.0654   -0.1181    5.2387 H   0  0  0  0  0  0  0  0  0  0  0  0
   17.6707   -1.8352    5.4186 H   0  0  0  0  0  0  0  0  0  0  0  0
   15.8304    0.2976    5.6581 H   0  0  0  0  0  0  0  0  0  0  0  0
   15.2145   -2.5598    4.7522 H   0  0  0  0  0  0  0  0  0  0  0  0
   13.9888   -1.4204    5.3416 H   0  0  0  0  0  0  0  0  0  0  0  0
   13.9310   -0.9438    7.7872 H   0  0  0  0  0  0  0  0  0  0  0  0
   15.6087   -0.3453    7.8685 H   0  0  0  0  0  0  0  0  0  0  0  0
   14.4479   -1.8650    9.9117 H   0  0  0  0  0  0  0  0  0  0  0  0
   16.1885   -1.9094    9.5906 H   0  0  0  0  0  0  0  0  0  0  0  0
   14.3308   -4.1542    9.1821 H   0  0  0  0  0  0  0  0  0  0  0  0
   16.0625   -4.0975    8.8078 H   0  0  0  0  0  0  0  0  0  0  0  0
   13.6961   -3.4750    6.9826 H   0  0  0  0  0  0  0  0  0  0  0  0
   15.2378   -4.2616    6.5476 H   0  0  0  0  0  0  0  0  0  0  0  0
   11.4348    0.3314   -1.7680 H   0  0  0  0  0  0  0  0  0  0  0  0
    6.3839   -0.7976   -4.4292 H   0  0  0  0  0  0  0  0  0  0  0  0
    4.2649   -1.2411   -3.1918 H   0  0  0  0  0  0  0  0  0  0  0  0
  1  2  1  0
  1 36  1  0
  1 37  1  0
  1 38  1  0
  2  3  2  0
  2 35  1  0
  3  4  1  0
  3 39  1  0
  4  5  2  0
  4 40  1  0
  6  5  1  1
  5 34  1  0
  6  7  2  0
  6  8  2  0
  6  9  1  0
  9 10  1  0
  9 33  1  0
 10 11  1  0
 10 41  1  0
 10 42  1  0
 11 12  1  0
 11 43  1  0
 11 44  1  0
 12 13  1  0
 13 14  2  0
 13 33  1  0
 14 15  1  0
 14 45  1  0
 15 16  2  0
 15 46  1  0
 16 17  1  0
 16 32  1  0
 17 18  1  0
 18 19  1  0
 18 47  1  0
 18 48  1  0
 19 20  1  0
 19 49  1  0
 19 50  1  0
 20 21  1  0
 20 51  1  0
 20 52  1  0
 21 22  1  0
 21 25  1  0
 22 23  1  0
 22 53  1  0
 22 54  1  0
 23 24  1  0
 23 55  1  0
 23 56  1  0
 24 25  1  0
 24 57  1  0
 24 58  1  0
 25 26  1  0
 25 59  1  1
 26 27  1  0
 26 60  1  0
 26 61  1  0
 27 28  1  0
 27 31  1  0
 28 29  1  0
 28 62  1  0
 28 63  1  0
 29 30  1  0
 29 64  1  0
 29 65  1  0
 30 31  1  0
 30 66  1  0
 30 67  1  0
 31 68  1  0
 31 69  1  0
 32 33  2  0
 32 70  1  0
 34 35  2  0
 34 71  1  0
 35 72  1  0
M  END

