
     RDKit          3D

 52 54  0  0  0  0  0  0  0  0999 V2000
    2.3887    1.3580   -1.5027 C   0  0  0  0  0  0  0  0  0  0  0  0
    2.7194    0.2723   -0.6637 O   0  0  0  0  0  0  0  0  0  0  0  0
    3.1316    0.4858    0.6059 C   0  0  0  0  0  0  0  0  0  0  0  0
    3.2406    1.7707    1.1623 C   0  0  0  0  0  0  0  0  0  0  0  0
    3.6856    1.9329    2.4747 C   0  0  0  0  0  0  0  0  0  0  0  0
    3.7760    3.1939    2.9699 O   0  0  0  0  0  0  0  0  0  0  0  0
    4.0386    0.8226    3.2904 C   0  0  0  0  0  0  0  0  0  0  0  0
    4.5058    0.8844    4.6936 C   0  0  0  0  0  0  0  0  0  0  0  0
    4.7604   -0.1811    5.2993 O   0  0  0  0  0  0  0  0  0  0  0  0
    4.6912    2.1566    5.4209 C   0  0  0  0  0  0  0  0  0  0  0  0
    5.1249    2.1415    6.7039 C   0  0  0  0  0  0  0  0  0  0  0  0
    5.3666    3.2864    7.5745 C   0  0  0  0  0  0  0  0  0  0  0  0
    5.8188    3.0629    8.8905 C   0  0  0  0  0  0  0  0  0  0  0  0
    6.0664    4.1163    9.7682 C   0  0  0  0  0  0  0  0  0  0  0  0
    5.8656    5.4388    9.3473 C   0  0  0  0  0  0  0  0  0  0  0  0
    6.0869    6.5070   10.1487 O   0  0  0  0  0  0  0  0  0  0  0  0
    5.4149    5.6865    8.0377 C   0  0  0  0  0  0  0  0  0  0  0  0
    5.1721    4.6287    7.1735 C   0  0  0  0  0  0  0  0  0  0  0  0
    3.9220   -0.4859    2.6797 C   0  0  0  0  0  0  0  0  0  0  0  0
    4.2058   -1.5722    3.3683 O   0  0  0  0  0  0  0  0  0  0  0  0
    3.4730   -0.6534    1.3487 C   0  0  0  0  0  0  0  0  0  0  0  0
    3.4231   -2.0352    0.7372 C   0  0  0  0  0  0  0  0  0  0  0  0
    4.4085   -2.7510    0.7378 O   0  0  0  0  0  0  0  0  0  0  0  0
    2.1205   -2.4813    0.1748 C   0  0  0  0  0  0  0  0  0  0  0  0
    1.9857   -3.7257   -0.3327 C   0  0  0  0  0  0  0  0  0  0  0  0
    0.7925   -4.3491   -0.8991 C   0  0  0  0  0  0  0  0  0  0  0  0
    0.8731   -5.6680   -1.3875 C   0  0  0  0  0  0  0  0  0  0  0  0
   -0.2319   -6.3132   -1.9406 C   0  0  0  0  0  0  0  0  0  0  0  0
   -1.4632   -5.6480   -2.0199 C   0  0  0  0  0  0  0  0  0  0  0  0
   -2.5750   -6.2179   -2.5453 O   0  0  0  0  0  0  0  0  0  0  0  0
   -1.5683   -4.3313   -1.5373 C   0  0  0  0  0  0  0  0  0  0  0  0
   -0.4602   -3.7002   -0.9891 C   0  0  0  0  0  0  0  0  0  0  0  0
    2.0966    0.9242   -2.4680 H   0  0  0  0  0  0  0  0  0  0  0  0
    3.2510    2.0295   -1.6588 H   0  0  0  0  0  0  0  0  0  0  0  0
    1.5423    1.9437   -1.1025 H   0  0  0  0  0  0  0  0  0  0  0  0
    2.9912    2.6586    0.5803 H   0  0  0  0  0  0  0  0  0  0  0  0
    3.4999    3.8199    2.2879 H   0  0  0  0  0  0  0  0  0  0  0  0
    4.4746    3.0850    4.9034 H   0  0  0  0  0  0  0  0  0  0  0  0
    5.3175    1.1563    7.1411 H   0  0  0  0  0  0  0  0  0  0  0  0
    5.9790    2.0360    9.2297 H   0  0  0  0  0  0  0  0  0  0  0  0
    6.4173    3.9146   10.7852 H   0  0  0  0  0  0  0  0  0  0  0  0
    6.3915    6.2071   11.0157 H   0  0  0  0  0  0  0  0  0  0  0  0
    5.2640    6.7216    7.7250 H   0  0  0  0  0  0  0  0  0  0  0  0
    4.8233    4.8452    6.1617 H   0  0  0  0  0  0  0  0  0  0  0  0
    4.4891   -1.2557    4.2881 H   0  0  0  0  0  0  0  0  0  0  0  0
    1.2888   -1.7743    0.2048 H   0  0  0  0  0  0  0  0  0  0  0  0
    2.8908   -4.3438   -0.3136 H   0  0  0  0  0  0  0  0  0  0  0  0
    1.8277   -6.1977   -1.3304 H   0  0  0  0  0  0  0  0  0  0  0  0
   -0.1409   -7.3388   -2.3125 H   0  0  0  0  0  0  0  0  0  0  0  0
   -2.3724   -7.1174   -2.8350 H   0  0  0  0  0  0  0  0  0  0  0  0
   -2.5343   -3.8266   -1.6032 H   0  0  0  0  0  0  0  0  0  0  0  0
   -0.5672   -2.6786   -0.6179 H   0  0  0  0  0  0  0  0  0  0  0  0
  1  2  1  0
  1 33  1  0
  1 34  1  0
  1 35  1  0
  2  3  1  0
  3  4  2  0
  3 21  1  0
  4  5  1  0
  4 36  1  0
  5  6  1  0
  5  7  2  0
  6 37  1  0
  7  8  1  0
  7 19  1  0
  8  9  2  0
  8 10  1  0
 10 11  2  0
 10 38  1  0
 11 12  1  0
 11 39  1  0
 12 13  2  0
 12 18  1  0
 13 14  1  0
 13 40  1  0
 14 15  2  0
 14 41  1  0
 15 16  1  0
 15 17  1  0
 16 42  1  0
 17 18  2  0
 17 43  1  0
 18 44  1  0
 19 20  1  0
 19 21  2  0
 20 45  1  0
 21 22  1  0
 22 23  2  0
 22 24  1  0
 24 25  2  0
 24 46  1  0
 25 26  1  0
 25 47  1  0
 26 27  2  0
 26 32  1  0
 27 28  1  0
 27 48  1  0
 28 29  2  0
 28 49  1  0
 29 30  1  0
 29 31  1  0
 30 50  1  0
 31 32  2  0
 31 51  1  0
 32 52  1  0
M  END

