
     RDKit          3D

 55 58  0  0  0  0  0  0  0  0999 V2000
    4.2688    3.4634   -2.4946 C   0  0  0  0  0  0  0  0  0  0  0  0
    5.3001    2.6769   -1.7068 C   0  0  0  0  0  0  0  0  0  0  0  0
    6.4852    2.7762   -1.9582 O   0  0  0  0  0  0  0  0  0  0  0  0
    4.8260    1.7680   -0.6037 C   0  0  0  0  0  0  0  0  0  0  0  0
    3.4714    1.6090   -0.2672 C   0  0  0  0  0  0  0  0  0  0  0  0
    3.1139    0.7453    0.7706 C   0  0  0  0  0  0  0  0  0  0  0  0
    4.0795    0.0336    1.4842 C   0  0  0  0  0  0  0  0  0  0  0  0
    5.4395    0.1896    1.1508 C   0  0  0  0  0  0  0  0  0  0  0  0
    6.4666   -0.4912    1.8226 N   0  0  0  0  0  0  0  0  0  0  0  0
    6.3901   -1.3700    2.8521 C   0  0  0  0  0  0  0  0  0  0  0  0
    5.3853   -1.7649    3.4258 O   0  0  0  0  0  0  0  0  0  0  0  0
    7.8040   -1.8550    3.2581 C   0  0  0  0  0  0  0  0  0  0  0  0
    8.8025   -1.4496    2.6753 O   0  0  0  0  0  0  0  0  0  0  0  0
    7.7622   -2.7310    4.2767 N   0  0  0  0  0  0  0  0  0  0  0  0
    8.9403   -3.3240    4.9045 C   0  0  1  0  0  0  0  0  0  0  0  0
    8.9923   -2.8912    6.3764 C   0  0  0  0  0  0  0  0  0  0  0  0
    9.0214   -4.8626    4.6507 C   0  0  2  0  0  0  0  0  0  0  0  0
    8.9943   -5.1395    3.1247 C   0  0  0  0  0  0  0  0  0  0  0  0
    9.1152   -6.6466    2.8313 C   0  0  1  0  0  0  0  0  0  0  0  0
   10.4444   -7.1764    3.4000 C   0  0  0  0  0  0  0  0  0  0  0  0
   10.4773   -6.9352    4.9202 C   0  0  2  0  0  0  0  0  0  0  0  0
    9.3021   -7.6784    5.5849 C   0  0  0  0  0  0  0  0  0  0  0  0
    7.9718   -7.1511    5.0134 C   0  0  2  0  0  0  0  0  0  0  0  0
    7.9380   -7.3895    3.4918 C   0  0  0  0  0  0  0  0  0  0  0  0
    7.8514   -5.6404    5.3044 C   0  0  0  0  0  0  0  0  0  0  0  0
   10.3530   -5.4262    5.2107 C   0  0  0  0  0  0  0  0  0  0  0  0
    5.7986    1.0554    0.1097 C   0  0  0  0  0  0  0  0  0  0  0  0
    4.7877    4.0698   -3.2475 H   0  0  0  0  0  0  0  0  0  0  0  0
    3.6837    4.1220   -1.8327 H   0  0  0  0  0  0  0  0  0  0  0  0
    3.5565    2.7880   -2.9957 H   0  0  0  0  0  0  0  0  0  0  0  0
    2.6943    2.1521   -0.8072 H   0  0  0  0  0  0  0  0  0  0  0  0
    2.0606    0.6202    1.0338 H   0  0  0  0  0  0  0  0  0  0  0  0
    3.8020   -0.6392    2.2932 H   0  0  0  0  0  0  0  0  0  0  0  0
    7.4289   -0.3265    1.5230 H   0  0  0  0  0  0  0  0  0  0  0  0
    6.8306   -2.9213    4.6406 H   0  0  0  0  0  0  0  0  0  0  0  0
    9.7954   -2.8707    4.3789 H   0  0  0  0  0  0  0  0  0  0  0  0
    8.1201   -3.2556    6.9426 H   0  0  0  0  0  0  0  0  0  0  0  0
    8.9970   -1.7927    6.4404 H   0  0  0  0  0  0  0  0  0  0  0  0
    9.8988   -3.2593    6.8769 H   0  0  0  0  0  0  0  0  0  0  0  0
    9.8142   -4.5867    2.6346 H   0  0  0  0  0  0  0  0  0  0  0  0
    8.0551   -4.7553    2.6949 H   0  0  0  0  0  0  0  0  0  0  0  0
    9.0883   -6.8049    1.7397 H   0  0  0  0  0  0  0  0  0  0  0  0
   11.2951   -6.6666    2.9152 H   0  0  0  0  0  0  0  0  0  0  0  0
   10.5519   -8.2533    3.1828 H   0  0  0  0  0  0  0  0  0  0  0  0
   11.4311   -7.3036    5.3350 H   0  0  0  0  0  0  0  0  0  0  0  0
    9.3303   -7.5336    6.6792 H   0  0  0  0  0  0  0  0  0  0  0  0
    9.3885   -8.7640    5.4055 H   0  0  0  0  0  0  0  0  0  0  0  0
    7.1282   -7.6782    5.4909 H   0  0  0  0  0  0  0  0  0  0  0  0
    6.9808   -7.0339    3.0722 H   0  0  0  0  0  0  0  0  0  0  0  0
    7.9985   -8.4703    3.2758 H   0  0  0  0  0  0  0  0  0  0  0  0
    7.8456   -5.4777    6.3955 H   0  0  0  0  0  0  0  0  0  0  0  0
    6.8857   -5.2684    4.9189 H   0  0  0  0  0  0  0  0  0  0  0  0
   11.2024   -4.8815    4.7612 H   0  0  0  0  0  0  0  0  0  0  0  0
   10.4109   -5.2643    6.2994 H   0  0  0  0  0  0  0  0  0  0  0  0
    6.8450    1.1967   -0.1716 H   0  0  0  0  0  0  0  0  0  0  0  0
  1  2  1  0
  1 28  1  0
  1 29  1  0
  1 30  1  0
  2  3  2  0
  2  4  1  0
  4  5  2  0
  4 27  1  0
  5  6  1  0
  5 31  1  0
  6  7  2  0
  6 32  1  0
  7  8  1  0
  7 33  1  0
  8  9  1  0
  8 27  2  0
  9 10  1  0
  9 34  1  0
 10 11  2  0
 10 12  1  0
 12 13  2  0
 12 14  1  0
 14 15  1  0
 14 35  1  0
 15 16  1  0
 15 17  1  0
 15 36  1  6
 16 37  1  0
 16 38  1  0
 16 39  1  0
 17 18  1  6
 17 25  1  0
 17 26  1  0
 18 19  1  0
 18 40  1  0
 18 41  1  0
 19 20  1  0
 19 24  1  0
 19 42  1  6
 20 21  1  0
 20 43  1  0
 20 44  1  0
 21 22  1  0
 21 26  1  0
 21 45  1  1
 22 23  1  0
 22 46  1  0
 22 47  1  0
 23 24  1  0
 23 25  1  0
 23 48  1  1
 24 49  1  0
 24 50  1  0
 25 51  1  0
 25 52  1  0
 26 53  1  0
 26 54  1  0
 27 55  1  0
M  END

