
     RDKit          3D

 48 51  0  0  0  0  0  0  0  0999 V2000
    1.4519    0.1239    1.1247 O   0  0  0  0  0  0  0  0  0  0  0  0
    2.5806    0.1720    0.6608 C   0  0  0  0  0  0  0  0  0  0  0  0
    3.5408   -1.0140    0.7454 C   0  0  0  0  0  0  0  0  0  0  0  0
    2.8787   -2.2359    1.3958 C   0  0  0  0  0  0  0  0  0  0  0  0
    3.8145   -3.3834    1.5604 C   0  0  0  0  0  0  0  0  0  0  0  0
    3.8335   -4.5184    0.9302 N   0  0  0  0  0  0  0  0  0  0  0  0
    4.9141   -5.2028    1.4467 C   0  0  0  0  0  0  0  0  0  0  0  0
    5.5360   -4.4349    2.4027 C   0  0  0  0  0  0  0  0  0  0  0  0
    6.6717   -4.5482    3.3154 C   0  0  0  0  0  0  0  0  0  0  0  0
    6.8951   -3.5130    4.2532 C   0  0  0  0  0  0  0  0  0  0  0  0
    7.9546   -3.5489    5.1544 C   0  0  0  0  0  0  0  0  0  0  0  0
    8.8387   -4.6319    5.1519 C   0  0  0  0  0  0  0  0  0  0  0  0
    8.6480   -5.6695    4.2403 C   0  0  0  0  0  0  0  0  0  0  0  0
    7.5827   -5.6295    3.3360 C   0  0  0  0  0  0  0  0  0  0  0  0
    7.4414   -6.9810    2.2296 Cl  0  0  0  0  0  0  0  0  0  0  0  0
    4.8174   -3.2613    2.4669 O   0  0  0  0  0  0  0  0  0  0  0  0
    3.0631    1.2966    0.0445 N   0  0  0  0  0  0  0  0  0  0  0  0
    4.3340    1.4038   -0.6823 C   0  0  0  0  0  0  0  0  0  0  0  0
    4.3343    2.8491   -1.1986 C   0  0  0  0  0  0  0  0  0  0  0  0
    2.8419    3.1574   -1.3720 C   0  0  0  0  0  0  0  0  0  0  0  0
    2.1886    2.4621   -0.1535 C   0  0  2  0  0  0  0  0  0  0  0  0
    2.0770    3.3709    1.0677 C   0  0  0  0  0  0  0  0  0  0  0  0
    1.0070    4.2767    1.1454 C   0  0  0  0  0  0  0  0  0  0  0  0
    0.8903    5.1603    2.2200 C   0  0  0  0  0  0  0  0  0  0  0  0
    1.8441    5.1506    3.2434 C   0  0  0  0  0  0  0  0  0  0  0  0
    2.9083    4.2483    3.1812 C   0  0  0  0  0  0  0  0  0  0  0  0
    3.0221    3.3656    2.1017 C   0  0  0  0  0  0  0  0  0  0  0  0
    4.4339   -0.7108    1.3190 H   0  0  0  0  0  0  0  0  0  0  0  0
    3.9070   -1.2715   -0.2632 H   0  0  0  0  0  0  0  0  0  0  0  0
    2.0346   -2.5800    0.7843 H   0  0  0  0  0  0  0  0  0  0  0  0
    2.4646   -1.9423    2.3729 H   0  0  0  0  0  0  0  0  0  0  0  0
    5.1746   -6.1997    1.1085 H   0  0  0  0  0  0  0  0  0  0  0  0
    6.2052   -2.6691    4.2605 H   0  0  0  0  0  0  0  0  0  0  0  0
    8.0887   -2.7285    5.8632 H   0  0  0  0  0  0  0  0  0  0  0  0
    9.6739   -4.6732    5.8548 H   0  0  0  0  0  0  0  0  0  0  0  0
    9.3239   -6.5257    4.2163 H   0  0  0  0  0  0  0  0  0  0  0  0
    4.3701    0.6843   -1.5217 H   0  0  0  0  0  0  0  0  0  0  0  0
    5.1978    1.1894   -0.0319 H   0  0  0  0  0  0  0  0  0  0  0  0
    4.9160    2.9616   -2.1253 H   0  0  0  0  0  0  0  0  0  0  0  0
    4.7743    3.5209   -0.4445 H   0  0  0  0  0  0  0  0  0  0  0  0
    2.4638    2.6982   -2.3007 H   0  0  0  0  0  0  0  0  0  0  0  0
    2.6188    4.2327   -1.4113 H   0  0  0  0  0  0  0  0  0  0  0  0
    1.1756    2.1032   -0.3907 H   0  0  0  0  0  0  0  0  0  0  0  0
    0.2492    4.2838    0.3558 H   0  0  0  0  0  0  0  0  0  0  0  0
    0.0464    5.8539    2.2638 H   0  0  0  0  0  0  0  0  0  0  0  0
    1.7523    5.8378    4.0883 H   0  0  0  0  0  0  0  0  0  0  0  0
    3.6540    4.2252    3.9804 H   0  0  0  0  0  0  0  0  0  0  0  0
    3.8477    2.6510    2.0714 H   0  0  0  0  0  0  0  0  0  0  0  0
  1  2  2  0
  2  3  1  0
  2 17  1  0
  3  4  1  0
  3 28  1  0
  3 29  1  0
  4  5  1  0
  4 30  1  0
  4 31  1  0
  5  6  2  0
  5 16  1  0
  6  7  1  0
  7  8  2  0
  7 32  1  0
  8  9  1  0
  8 16  1  0
  9 10  2  0
  9 14  1  0
 10 11  1  0
 10 33  1  0
 11 12  2  0
 11 34  1  0
 12 13  1  0
 12 35  1  0
 13 14  2  0
 13 36  1  0
 14 15  1  0
 17 18  1  0
 17 21  1  0
 18 19  1  0
 18 37  1  0
 18 38  1  0
 19 20  1  0
 19 39  1  0
 19 40  1  0
 20 21  1  0
 20 41  1  0
 20 42  1  0
 21 22  1  0
 21 43  1  6
 22 23  2  0
 22 27  1  0
 23 24  1  0
 23 44  1  0
 24 25  2  0
 24 45  1  0
 25 26  1  0
 25 46  1  0
 26 27  2  0
 26 47  1  0
 27 48  1  0
M  END

