
     RDKit          3D

 44 47  0  0  0  0  0  0  0  0999 V2000
    1.5288    0.4439    1.0182 O   0  0  0  0  0  0  0  0  0  0  0  0
    2.5569   -0.0125    0.0839 S   0  0  1  0  0  0  0  0  0  0  0  0
    3.7419   -0.7249    0.5553 O   0  0  0  0  0  0  0  0  0  0  0  0
    1.8371   -1.0825   -1.0090 N   0  0  0  0  0  0  0  0  0  0  0  0
    0.6983   -0.7725   -1.7829 C   0  0  0  0  0  0  0  0  0  0  0  0
   -0.4642   -0.1928   -1.2513 C   0  0  0  0  0  0  0  0  0  0  0  0
   -1.5620    0.0609   -2.0777 C   0  0  0  0  0  0  0  0  0  0  0  0
   -1.5298   -0.2768   -3.4339 C   0  0  0  0  0  0  0  0  0  0  0  0
   -0.3838   -0.8678   -3.9751 C   0  0  0  0  0  0  0  0  0  0  0  0
    0.7095   -1.0948   -3.1502 C   0  0  0  0  0  0  0  0  0  0  0  0
    1.8249   -1.6588   -3.6534 F   0  0  0  0  0  0  0  0  0  0  0  0
    3.0240    1.4118   -0.8581 C   0  0  0  0  0  0  0  0  0  0  0  0
    2.5410    2.6687   -0.5424 C   0  0  0  0  0  0  0  0  0  0  0  0
    3.0392    3.5216   -1.4722 N   0  0  0  0  0  0  0  0  0  0  0  0
    2.8431    4.9305   -1.5680 C   0  0  0  0  0  0  0  0  0  0  0  0
    2.1526    5.6238   -0.5641 C   0  0  0  0  0  0  0  0  0  0  0  0
    1.9641    7.0021   -0.6818 C   0  0  0  0  0  0  0  0  0  0  0  0
    2.4625    7.6959   -1.7880 C   0  0  0  0  0  0  0  0  0  0  0  0
    3.1556    6.9972   -2.7808 C   0  0  0  0  0  0  0  0  0  0  0  0
    3.3493    5.6189   -2.6789 C   0  0  0  0  0  0  0  0  0  0  0  0
    3.8059    2.8798   -2.3787 N   0  0  0  0  0  0  0  0  0  0  0  0
    3.8234    1.5949   -2.0378 C   0  0  0  0  0  0  0  0  0  0  0  0
    4.5493    0.6173   -2.8741 C   0  0  0  0  0  0  0  0  0  0  0  0
    5.1342   -0.5396   -2.3273 C   0  0  0  0  0  0  0  0  0  0  0  0
    5.8217   -1.4368   -3.1497 C   0  0  0  0  0  0  0  0  0  0  0  0
    5.9400   -1.1932   -4.5203 C   0  0  0  0  0  0  0  0  0  0  0  0
    5.3691   -0.0397   -5.0691 C   0  0  0  0  0  0  0  0  0  0  0  0
    4.6800    0.8583   -4.2550 C   0  0  0  0  0  0  0  0  0  0  0  0
    2.5461   -1.6339   -1.4903 H   0  0  0  0  0  0  0  0  0  0  0  0
   -0.4888    0.0500   -0.1894 H   0  0  0  0  0  0  0  0  0  0  0  0
   -2.4581    0.5155   -1.6490 H   0  0  0  0  0  0  0  0  0  0  0  0
   -2.3952   -0.0872   -4.0727 H   0  0  0  0  0  0  0  0  0  0  0  0
   -0.3168   -1.1484   -5.0280 H   0  0  0  0  0  0  0  0  0  0  0  0
    1.8797    2.9634    0.2657 H   0  0  0  0  0  0  0  0  0  0  0  0
    1.7655    5.1048    0.3134 H   0  0  0  0  0  0  0  0  0  0  0  0
    1.4253    7.5358    0.1048 H   0  0  0  0  0  0  0  0  0  0  0  0
    2.3139    8.7747   -1.8735 H   0  0  0  0  0  0  0  0  0  0  0  0
    3.5529    7.5287   -3.6491 H   0  0  0  0  0  0  0  0  0  0  0  0
    3.8897    5.0625   -3.4432 H   0  0  0  0  0  0  0  0  0  0  0  0
    5.0720   -0.7267   -1.2542 H   0  0  0  0  0  0  0  0  0  0  0  0
    6.2763   -2.3282   -2.7101 H   0  0  0  0  0  0  0  0  0  0  0  0
    6.4772   -1.8982   -5.1599 H   0  0  0  0  0  0  0  0  0  0  0  0
    5.4574    0.1586   -6.1404 H   0  0  0  0  0  0  0  0  0  0  0  0
    4.2286    1.7564   -4.6799 H   0  0  0  0  0  0  0  0  0  0  0  0
  1  2  2  0
  2  3  2  0
  2  4  1  6
  2 12  1  0
  4  5  1  0
  4 29  1  0
  5  6  2  0
  5 10  1  0
  6  7  1  0
  6 30  1  0
  7  8  2  0
  7 31  1  0
  8  9  1  0
  8 32  1  0
  9 10  2  0
  9 33  1  0
 10 11  1  0
 12 13  2  0
 12 22  1  0
 13 14  1  0
 13 34  1  0
 14 15  1  0
 14 21  1  0
 15 16  2  0
 15 20  1  0
 16 17  1  0
 16 35  1  0
 17 18  2  0
 17 36  1  0
 18 19  1  0
 18 37  1  0
 19 20  2  0
 19 38  1  0
 20 39  1  0
 21 22  2  0
 22 23  1  0
 23 24  2  0
 23 28  1  0
 24 25  1  0
 24 40  1  0
 25 26  2  0
 25 41  1  0
 26 27  1  0
 26 42  1  0
 27 28  2  0
 27 43  1  0
 28 44  1  0
M  END

