
     RDKit          3D

 36 36  0  0  0  0  0  0  0  0999 V2000
    1.0784   -4.2785    2.0739 C   0  0  0  0  0  0  0  0  0  0  0  0
    2.4344   -3.9496    2.1951 O   0  0  0  0  0  0  0  0  0  0  0  0
    2.6714   -2.7289    2.8586 C   0  0  0  0  0  0  0  0  0  0  0  0
    4.1728   -2.4810    2.9275 C   0  0  0  0  0  0  0  0  0  0  0  0
    4.8995   -2.4155    1.5639 C   0  0  1  0  0  0  0  0  0  0  0  0
    4.4544   -1.2169    0.7212 C   0  0  0  0  0  0  0  0  0  0  0  0
    6.3569   -2.3944    1.6825 N   0  0  0  0  0  0  0  0  0  0  0  0
    7.0137   -3.6131    2.1261 C   0  0  0  0  0  0  0  0  0  0  0  0
    8.5351   -3.4834    2.0666 C   0  0  1  0  0  0  0  0  0  0  0  0
    9.3012   -4.7386    2.5199 C   0  0  0  0  0  0  0  0  0  0  0  0
   10.7256   -4.4859    2.0093 C   0  0  0  0  0  0  0  0  0  0  0  0
   10.5199   -3.8432    0.6180 C   0  0  0  0  0  0  0  0  0  0  0  0
    9.1098   -3.1862    0.6585 C   0  0  0  0  0  0  0  0  0  0  0  0
    1.0084   -5.2403    1.5443 H   0  0  0  0  0  0  0  0  0  0  0  0
    0.5138   -3.5173    1.4965 H   0  0  0  0  0  0  0  0  0  0  0  0
    0.5854   -4.3847    3.0625 H   0  0  0  0  0  0  0  0  0  0  0  0
    2.2476   -2.7600    3.8854 H   0  0  0  0  0  0  0  0  0  0  0  0
    2.1539   -1.8991    2.3319 H   0  0  0  0  0  0  0  0  0  0  0  0
    4.6181   -3.2891    3.5311 H   0  0  0  0  0  0  0  0  0  0  0  0
    4.3445   -1.5377    3.4788 H   0  0  0  0  0  0  0  0  0  0  0  0
    4.6401   -3.3374    1.0163 H   0  0  0  0  0  0  0  0  0  0  0  0
    4.6814   -0.2669    1.2373 H   0  0  0  0  0  0  0  0  0  0  0  0
    3.3733   -1.2346    0.5143 H   0  0  0  0  0  0  0  0  0  0  0  0
    4.9917   -1.2133   -0.2385 H   0  0  0  0  0  0  0  0  0  0  0  0
    6.6535   -1.6016    2.2532 H   0  0  0  0  0  0  0  0  0  0  0  0
    6.6983   -4.4317    1.4528 H   0  0  0  0  0  0  0  0  0  0  0  0
    6.7251   -3.9366    3.1524 H   0  0  0  0  0  0  0  0  0  0  0  0
    8.8312   -2.6582    2.7445 H   0  0  0  0  0  0  0  0  0  0  0  0
    8.8736   -5.6315    2.0264 H   0  0  0  0  0  0  0  0  0  0  0  0
    9.2487   -4.9112    3.6072 H   0  0  0  0  0  0  0  0  0  0  0  0
   11.3468   -5.3950    1.9775 H   0  0  0  0  0  0  0  0  0  0  0  0
   11.2324   -3.7750    2.6849 H   0  0  0  0  0  0  0  0  0  0  0  0
   10.5580   -4.6165   -0.1665 H   0  0  0  0  0  0  0  0  0  0  0  0
   11.3157   -3.1204    0.3788 H   0  0  0  0  0  0  0  0  0  0  0  0
    8.4506   -3.6258   -0.1080 H   0  0  0  0  0  0  0  0  0  0  0  0
    9.1362   -2.1067    0.4509 H   0  0  0  0  0  0  0  0  0  0  0  0
  1  2  1  0
  1 14  1  0
  1 15  1  0
  1 16  1  0
  2  3  1  0
  3  4  1  0
  3 17  1  0
  3 18  1  0
  4  5  1  0
  4 19  1  0
  4 20  1  0
  5  6  1  0
  5  7  1  0
  5 21  1  6
  6 22  1  0
  6 23  1  0
  6 24  1  0
  7  8  1  0
  7 25  1  0
  8  9  1  0
  8 26  1  0
  8 27  1  0
  9 10  1  0
  9 13  1  0
  9 28  1  1
 10 11  1  0
 10 29  1  0
 10 30  1  0
 11 12  1  0
 11 31  1  0
 11 32  1  0
 12 13  1  0
 12 33  1  0
 12 34  1  0
 13 35  1  0
 13 36  1  0
M  END

