
     RDKit          3D

 35 36  0  0  0  0  0  0  0  0999 V2000
    1.5338    1.1974   -0.3175 C   0  0  0  0  0  0  0  0  0  0  0  0
    0.4527    0.7208    0.5977 C   0  0  0  0  0  0  0  0  0  0  0  0
   -0.4008    1.5563    1.2554 N   0  0  0  0  0  0  0  0  0  0  0  0
   -0.3997    2.5690    1.2265 H   0  0  0  0  0  0  0  0  0  0  0  0
   -1.3007    0.9288    2.0168 N   0  0  0  0  0  0  0  0  0  0  0  0
   -1.0353   -0.3638    1.8696 C   0  0  0  0  0  0  0  0  0  0  0  0
   -1.8302   -1.4042    2.6075 C   0  0  1  0  0  0  0  0  0  0  0  0
   -0.9667   -2.2747    3.2209 F   0  0  0  0  0  0  0  0  0  0  0  0
   -2.5922   -0.8311    3.5698 F   0  0  0  0  0  0  0  0  0  0  0  0
    0.0592   -0.5603    0.9749 C   0  0  0  0  0  0  0  0  0  0  0  0
    0.6846   -1.7486    0.5636 N   0  0  0  0  0  0  0  0  0  0  0  0
    0.0253   -2.8942    0.2419 C   0  0  0  0  0  0  0  0  0  0  0  0
   -1.1896   -3.0173    0.2705 O   0  0  0  0  0  0  0  0  0  0  0  0
    0.8395   -4.1148   -0.1620 C   0  0  2  0  0  0  0  0  0  0  0  0
    0.3768   -4.9837    0.3159 H   0  0  0  0  0  0  0  0  0  0  0  0
    2.3299   -4.3334   -0.4284 C   0  0  2  0  0  0  0  0  0  0  0  0
    2.6668   -5.3279   -0.1148 H   0  0  0  0  0  0  0  0  0  0  0  0
    3.4260   -3.3207   -0.3831 C   0  0  0  0  0  0  0  0  0  0  0  0
    3.2940   -2.1161   -0.3351 O   0  0  0  0  0  0  0  0  0  0  0  0
    4.6698   -3.8316   -0.4309 O   0  0  0  0  0  0  0  0  0  0  0  0
    1.2960   -4.3666   -1.5746 C   0  0  1  0  0  0  0  0  0  0  0  0
    1.0032   -5.7234   -2.1905 C   0  0  0  0  0  0  0  0  0  0  0  0
    1.2611   -3.2198   -2.5696 C   0  0  0  0  0  0  0  0  0  0  0  0
    2.0811    2.0512    0.1143 H   0  0  0  0  0  0  0  0  0  0  0  0
    1.1316    1.5190   -1.2941 H   0  0  0  0  0  0  0  0  0  0  0  0
    2.2644    0.3984   -0.5055 H   0  0  0  0  0  0  0  0  0  0  0  0
   -2.4718   -1.9992    1.9404 H   0  0  0  0  0  0  0  0  0  0  0  0
    1.6930   -1.7228    0.3921 H   0  0  0  0  0  0  0  0  0  0  0  0
    4.6422   -4.7969   -0.4923 H   0  0  0  0  0  0  0  0  0  0  0  0
    1.0338   -6.5294   -1.4411 H   0  0  0  0  0  0  0  0  0  0  0  0
    1.7280   -5.9632   -2.9863 H   0  0  0  0  0  0  0  0  0  0  0  0
   -0.0028   -5.7242   -2.6410 H   0  0  0  0  0  0  0  0  0  0  0  0
    1.5280   -2.2585   -2.1143 H   0  0  0  0  0  0  0  0  0  0  0  0
    0.2456   -3.1285   -2.9871 H   0  0  0  0  0  0  0  0  0  0  0  0
    1.9559   -3.4076   -3.4046 H   0  0  0  0  0  0  0  0  0  0  0  0
  1  2  1  0
  1 24  1  0
  1 25  1  0
  1 26  1  0
  2  3  1  0
  2 10  2  0
  3  4  1  0
  3  5  1  0
  5  6  2  0
  6  7  1  0
  6 10  1  0
  7  8  1  0
  7  9  1  0
  7 27  1  6
 10 11  1  0
 11 12  1  0
 11 28  1  0
 12 13  2  0
 12 14  1  0
 14 15  1  1
 14 16  1  0
 14 21  1  0
 16 17  1  1
 16 18  1  0
 16 21  1  0
 18 19  2  0
 18 20  1  0
 20 29  1  0
 21 22  1  6
 21 23  1  0
 22 30  1  0
 22 31  1  0
 22 32  1  0
 23 33  1  0
 23 34  1  0
 23 35  1  0
M  END

