
     RDKit          3D

 32 33  0  0  0  0  0  0  0  0999 V2000
    1.0928    0.2618    2.5607 C   0  0  0  0  0  0  0  0  0  0  0  0
    2.6108    0.3819    2.4297 C   0  0  0  0  0  0  0  0  0  0  0  0
    3.0386    0.9762    1.0841 C   0  0  0  0  0  0  0  0  0  0  0  0
    4.4805    1.0603    0.9238 N   0  0  0  0  0  0  0  0  0  0  0  0
    5.2771    2.1583    1.1173 C   0  0  0  0  0  0  0  0  0  0  0  0
    6.5820    1.7166    0.9270 C   0  0  0  0  0  0  0  0  0  0  0  0
    7.7553    2.3891    0.9867 O   0  0  0  0  0  0  0  0  0  0  0  0
    7.6836    3.7711    1.2955 C   0  0  0  0  0  0  0  0  0  0  0  0
    9.0761    4.3546    1.2440 C   0  0  1  0  0  0  0  0  0  0  0  0
    9.7528    4.2870   -0.0995 C   0  0  0  0  0  0  0  0  0  0  0  0
    8.9337    5.5027   -1.4418 Br  0  0  0  0  0  0  0  0  0  0  0  0
    9.3834    5.5180    2.1550 C   0  0  0  0  0  0  0  0  0  0  0  0
    9.9628    4.1644    2.4618 C   0  0  0  0  0  0  0  0  0  0  0  0
    6.4602    0.3362    0.6311 C   0  0  0  0  0  0  0  0  0  0  0  0
    5.1830   -0.0384    0.6386 N   0  0  0  0  0  0  0  0  0  0  0  0
    0.8108   -0.1730    3.5321 H   0  0  0  0  0  0  0  0  0  0  0  0
    0.6708   -0.3847    1.7732 H   0  0  0  0  0  0  0  0  0  0  0  0
    0.5984    1.2449    2.4818 H   0  0  0  0  0  0  0  0  0  0  0  0
    3.0854   -0.6077    2.5315 H   0  0  0  0  0  0  0  0  0  0  0  0
    3.0157    1.0089    3.2431 H   0  0  0  0  0  0  0  0  0  0  0  0
    2.6297    1.9916    0.9583 H   0  0  0  0  0  0  0  0  0  0  0  0
    2.6524    0.3598    0.2568 H   0  0  0  0  0  0  0  0  0  0  0  0
    4.8626    3.1342    1.3542 H   0  0  0  0  0  0  0  0  0  0  0  0
    7.2466    3.9117    2.3027 H   0  0  0  0  0  0  0  0  0  0  0  0
    7.0296    4.2870    0.5668 H   0  0  0  0  0  0  0  0  0  0  0  0
    9.6763    3.2833   -0.5343 H   0  0  0  0  0  0  0  0  0  0  0  0
   10.8046    4.5915   -0.0473 H   0  0  0  0  0  0  0  0  0  0  0  0
    8.5786    5.8977    2.7913 H   0  0  0  0  0  0  0  0  0  0  0  0
   10.0470    6.2959    1.7672 H   0  0  0  0  0  0  0  0  0  0  0  0
    9.5501    3.5905    3.2962 H   0  0  0  0  0  0  0  0  0  0  0  0
   11.0327    4.0067    2.2994 H   0  0  0  0  0  0  0  0  0  0  0  0
    7.2565   -0.3731    0.4101 H   0  0  0  0  0  0  0  0  0  0  0  0
  1  2  1  0
  1 16  1  0
  1 17  1  0
  1 18  1  0
  2  3  1  0
  2 19  1  0
  2 20  1  0
  3  4  1  0
  3 21  1  0
  3 22  1  0
  4  5  1  0
  4 15  1  0
  5  6  2  0
  5 23  1  0
  6  7  1  0
  6 14  1  0
  7  8  1  0
  9  8  1  6
  8 24  1  0
  8 25  1  0
  9 10  1  0
  9 12  1  0
  9 13  1  0
 10 11  1  0
 10 26  1  0
 10 27  1  0
 12 13  1  0
 12 28  1  0
 12 29  1  0
 13 30  1  0
 13 31  1  0
 14 15  2  0
 14 32  1  0
M  END

