
     RDKit          3D

 56 58  0  0  0  0  0  0  0  0999 V2000
    5.7026   -8.0008   -0.5091 C   0  0  0  0  0  0  0  0  0  0  0  0
    6.1121   -6.5795   -0.8037 C   0  0  0  0  0  0  0  0  0  0  0  0
    5.6291   -5.5083   -0.0477 C   0  0  0  0  0  0  0  0  0  0  0  0
    5.9881   -4.1794   -0.3103 C   0  0  0  0  0  0  0  0  0  0  0  0
    5.3800   -3.0999    0.5532 C   0  0  0  0  0  0  0  0  0  0  0  0
    6.8922   -3.9315   -1.3749 C   0  0  0  0  0  0  0  0  0  0  0  0
    7.3346   -2.2065   -1.7246 S   0  0  1  0  0  0  0  0  0  0  0  0
    8.3373   -2.1698   -2.7953 O   0  0  0  0  0  0  0  0  0  0  0  0
    6.1012   -1.4225   -1.8498 O   0  0  0  0  0  0  0  0  0  0  0  0
    8.0594   -1.6560   -0.2890 N   0  0  0  0  0  0  0  0  0  0  0  0
    9.5245   -1.6127   -0.1965 C   0  0  0  0  0  0  0  0  0  0  0  0
   10.1288   -2.9839    0.0911 C   0  0  0  0  0  0  0  0  0  0  0  0
   11.6104   -2.8752    0.4430 C   0  0  0  0  0  0  0  0  0  0  0  0
   12.1400   -1.8010    0.6932 O   0  0  0  0  0  0  0  0  0  0  0  0
   12.3145   -4.0449    0.4798 N   0  0  0  0  0  0  0  0  0  0  0  0
   11.7988   -5.3905    0.1918 C   0  0  0  0  0  0  0  0  0  0  0  0
   12.9662   -6.2573    0.6477 C   0  0  1  0  0  0  0  0  0  0  0  0
   13.0207   -7.5413    0.0895 O   0  0  0  0  0  0  0  0  0  0  0  0
   14.1878   -8.1978    0.5679 C   0  0  0  0  0  0  0  0  0  0  0  0
   15.4648   -7.3973    0.2913 C   0  0  0  0  0  0  0  0  0  0  0  0
   15.3814   -6.0319    0.8127 N   0  0  0  0  0  0  0  0  0  0  0  0
   16.5985   -5.2767    0.5785 C   0  0  0  0  0  0  0  0  0  0  0  0
   14.1856   -5.4129    0.2771 C   0  0  2  0  0  0  0  0  0  0  0  0
   13.7575   -4.0348    0.7798 C   0  0  0  0  0  0  0  0  0  0  0  0
    7.3863   -4.9879   -2.1841 C   0  0  0  0  0  0  0  0  0  0  0  0
    8.3052   -4.8367   -3.3776 C   0  0  0  0  0  0  0  0  0  0  0  0
    6.9786   -6.2913   -1.8623 C   0  0  0  0  0  0  0  0  0  0  0  0
    5.0865   -8.0665    0.3994 H   0  0  0  0  0  0  0  0  0  0  0  0
    6.5831   -8.6497   -0.3722 H   0  0  0  0  0  0  0  0  0  0  0  0
    5.1188   -8.4250   -1.3434 H   0  0  0  0  0  0  0  0  0  0  0  0
    4.9380   -5.7046    0.7767 H   0  0  0  0  0  0  0  0  0  0  0  0
    4.6944   -3.5433    1.2885 H   0  0  0  0  0  0  0  0  0  0  0  0
    4.8291   -2.3701   -0.0563 H   0  0  0  0  0  0  0  0  0  0  0  0
    6.1587   -2.5412    1.0933 H   0  0  0  0  0  0  0  0  0  0  0  0
    7.6088   -0.7648   -0.0824 H   0  0  0  0  0  0  0  0  0  0  0  0
    9.7725   -0.9361    0.6332 H   0  0  0  0  0  0  0  0  0  0  0  0
    9.9791   -1.1848   -1.1050 H   0  0  0  0  0  0  0  0  0  0  0  0
    9.9910   -3.6566   -0.7700 H   0  0  0  0  0  0  0  0  0  0  0  0
    9.5950   -3.4546    0.9358 H   0  0  0  0  0  0  0  0  0  0  0  0
   11.6040   -5.5487   -0.8850 H   0  0  0  0  0  0  0  0  0  0  0  0
   10.8711   -5.6055    0.7427 H   0  0  0  0  0  0  0  0  0  0  0  0
   12.9498   -6.3330    1.7557 H   0  0  0  0  0  0  0  0  0  0  0  0
   14.2379   -9.1732    0.0621 H   0  0  0  0  0  0  0  0  0  0  0  0
   14.0949   -8.3728    1.6583 H   0  0  0  0  0  0  0  0  0  0  0  0
   15.6530   -7.3936   -0.8077 H   0  0  0  0  0  0  0  0  0  0  0  0
   16.3160   -7.9144    0.7650 H   0  0  0  0  0  0  0  0  0  0  0  0
   17.4524   -5.7904    1.0479 H   0  0  0  0  0  0  0  0  0  0  0  0
   16.5222   -4.2763    1.0305 H   0  0  0  0  0  0  0  0  0  0  0  0
   16.8323   -5.1479   -0.5031 H   0  0  0  0  0  0  0  0  0  0  0  0
   14.2264   -5.3730   -0.8389 H   0  0  0  0  0  0  0  0  0  0  0  0
   14.2376   -3.1869    0.2729 H   0  0  0  0  0  0  0  0  0  0  0  0
   13.9441   -3.9287    1.8641 H   0  0  0  0  0  0  0  0  0  0  0  0
    9.2790   -4.4064   -3.1044 H   0  0  0  0  0  0  0  0  0  0  0  0
    7.8875   -4.1604   -4.1353 H   0  0  0  0  0  0  0  0  0  0  0  0
    8.4735   -5.8217   -3.8357 H   0  0  0  0  0  0  0  0  0  0  0  0
    7.3557   -7.1133   -2.4775 H   0  0  0  0  0  0  0  0  0  0  0  0
  1  2  1  0
  1 28  1  0
  1 29  1  0
  1 30  1  0
  2  3  2  0
  2 27  1  0
  3  4  1  0
  3 31  1  0
  4  5  1  0
  4  6  2  0
  5 32  1  0
  5 33  1  0
  5 34  1  0
  6  7  1  0
  6 25  1  0
  7  8  2  0
  7  9  2  0
  7 10  1  1
 10 11  1  0
 10 35  1  0
 11 12  1  0
 11 36  1  0
 11 37  1  0
 12 13  1  0
 12 38  1  0
 12 39  1  0
 13 14  2  0
 13 15  1  0
 15 16  1  0
 15 24  1  0
 16 17  1  0
 16 40  1  0
 16 41  1  0
 17 18  1  0
 17 23  1  0
 17 42  1  1
 18 19  1  0
 19 20  1  0
 19 43  1  0
 19 44  1  0
 20 21  1  0
 20 45  1  0
 20 46  1  0
 21 22  1  0
 21 23  1  0
 22 47  1  0
 22 48  1  0
 22 49  1  0
 23 24  1  0
 23 50  1  6
 24 51  1  0
 24 52  1  0
 25 26  1  0
 25 27  2  0
 26 53  1  0
 26 54  1  0
 26 55  1  0
 27 56  1  0
M  END

