
     RDKit          3D

 34 36  0  0  0  0  0  0  0  0999 V2000
    2.7338   -1.3055   -0.5901 C   0  0  0  0  0  0  0  0  0  0  0  0
    2.6113    0.0936   -0.2262 N   0  0  0  0  0  0  0  0  0  0  0  0
    1.9257    1.0099   -1.1184 C   0  0  0  0  0  0  0  0  0  0  0  0
    3.1452    0.5435    0.9583 C   0  0  0  0  0  0  0  0  0  0  0  0
    3.0389    1.9172    1.3410 C   0  0  0  0  0  0  0  0  0  0  0  0
    3.5756    2.3699    2.5318 C   0  0  0  0  0  0  0  0  0  0  0  0
    4.2475    1.4957    3.4133 C   0  0  0  0  0  0  0  0  0  0  0  0
    4.7818    1.9301    4.5919 N   0  0  0  0  0  0  0  0  0  0  0  0
    5.4012    1.1152    5.4000 C   0  0  0  0  0  0  0  0  0  0  0  0
    5.9562    1.6640    6.6669 C   0  0  0  0  0  0  0  0  0  0  0  0
    5.7753    3.0406    6.9284 C   0  0  0  0  0  0  0  0  0  0  0  0
    6.2681    3.6215    8.0930 C   0  0  0  0  0  0  0  0  0  0  0  0
    6.9573    2.8443    9.0325 C   0  0  0  0  0  0  0  0  0  0  0  0
    7.1440    1.4827    8.7882 C   0  0  0  0  0  0  0  0  0  0  0  0
    6.6517    0.8922    7.6208 C   0  0  0  0  0  0  0  0  0  0  0  0
    5.5481   -0.3363    5.0587 C   0  0  0  0  0  0  0  0  0  0  0  0
    6.0914   -1.1926    5.7061 O   0  0  0  0  0  0  0  0  0  0  0  0
    4.9879   -0.7209    3.8551 O   0  0  0  0  0  0  0  0  0  0  0  0
    4.3470    0.1436    3.0271 C   0  0  0  0  0  0  0  0  0  0  0  0
    3.8177   -0.3402    1.8372 C   0  0  0  0  0  0  0  0  0  0  0  0
    2.2506   -1.4739   -1.5604 H   0  0  0  0  0  0  0  0  0  0  0  0
    2.2492   -1.9692    0.1488 H   0  0  0  0  0  0  0  0  0  0  0  0
    3.7897   -1.6192   -0.6788 H   0  0  0  0  0  0  0  0  0  0  0  0
    1.5774    0.4618   -2.0025 H   0  0  0  0  0  0  0  0  0  0  0  0
    2.5863    1.8244   -1.4666 H   0  0  0  0  0  0  0  0  0  0  0  0
    1.0434    1.4738   -0.6414 H   0  0  0  0  0  0  0  0  0  0  0  0
    2.5293    2.6275    0.6926 H   0  0  0  0  0  0  0  0  0  0  0  0
    3.4925    3.4197    2.8208 H   0  0  0  0  0  0  0  0  0  0  0  0
    5.2382    3.6399    6.1930 H   0  0  0  0  0  0  0  0  0  0  0  0
    6.1145    4.6891    8.2716 H   0  0  0  0  0  0  0  0  0  0  0  0
    7.3448    3.2997    9.9476 H   0  0  0  0  0  0  0  0  0  0  0  0
    7.6802    0.8649    9.5134 H   0  0  0  0  0  0  0  0  0  0  0  0
    6.8042   -0.1696    7.4440 H   0  0  0  0  0  0  0  0  0  0  0  0
    3.9419   -1.3990    1.6211 H   0  0  0  0  0  0  0  0  0  0  0  0
  1  2  1  0
  1 21  1  0
  1 22  1  0
  1 23  1  0
  2  3  1  0
  2  4  1  0
  3 24  1  0
  3 25  1  0
  3 26  1  0
  4  5  2  0
  4 20  1  0
  5  6  1  0
  5 27  1  0
  6  7  2  0
  6 28  1  0
  7  8  1  0
  7 19  1  0
  8  9  2  0
  9 10  1  0
  9 16  1  0
 10 11  2  0
 10 15  1  0
 11 12  1  0
 11 29  1  0
 12 13  2  0
 12 30  1  0
 13 14  1  0
 13 31  1  0
 14 15  2  0
 14 32  1  0
 15 33  1  0
 16 17  2  0
 16 18  1  0
 18 19  1  0
 19 20  2  0
 20 34  1  0
M  END

