
     RDKit          3D

 26 26  0  0  0  0  0  0  0  0999 V2000
    1.0319   -0.0913    0.1146 C   0  0  0  0  0  0  0  0  0  0  0  0
    2.5148   -0.0921   -0.1637 C   0  0  0  0  0  0  0  0  0  0  0  0
    3.2089    1.0779   -0.4982 C   0  0  0  0  0  0  0  0  0  0  0  0
    4.5807    1.0749   -0.7649 C   0  0  0  0  0  0  0  0  0  0  0  0
    5.3261   -0.1104   -0.6885 C   0  0  0  0  0  0  0  0  0  0  0  0
    6.6476   -0.2031   -0.9594 O   0  0  0  0  0  0  0  0  0  0  0  0
    7.4143    0.9409   -1.2540 C   0  0  1  0  0  0  0  0  0  0  0  0
    8.8847    0.5405   -1.1299 C   0  0  0  0  0  0  0  0  0  0  0  0
    7.1090    1.4386   -2.6737 C   0  0  0  0  0  0  0  0  0  0  0  0
    6.5728    0.8430   -3.5403 O   0  0  0  0  0  0  0  0  0  0  0  0
    7.7170    3.1344   -2.9116 Cl  0  0  0  0  0  0  0  0  0  0  0  0
    4.6292   -1.2884   -0.3352 C   0  0  0  0  0  0  0  0  0  0  0  0
    5.3249   -2.5804   -0.1861 N   0  0  0  0  0  0  0  0  0  0  0  0
    6.4643   -2.5718    0.2442 O   0  0  0  0  0  0  0  0  0  0  0  0
    4.6907   -3.5847   -0.4745 O   0  0  0  0  0  0  0  0  0  0  0  0
    3.2562   -1.2783   -0.0993 C   0  0  0  0  0  0  0  0  0  0  0  0
    0.5995    0.9116   -0.0142 H   0  0  0  0  0  0  0  0  0  0  0  0
    0.8167   -0.4204    1.1448 H   0  0  0  0  0  0  0  0  0  0  0  0
    0.4975   -0.7783   -0.5619 H   0  0  0  0  0  0  0  0  0  0  0  0
    2.6664    2.0246   -0.5666 H   0  0  0  0  0  0  0  0  0  0  0  0
    5.0592    2.0126   -1.0486 H   0  0  0  0  0  0  0  0  0  0  0  0
    7.1902    1.7633   -0.5531 H   0  0  0  0  0  0  0  0  0  0  0  0
    9.1089   -0.2828   -1.8234 H   0  0  0  0  0  0  0  0  0  0  0  0
    9.0713    0.1929   -0.1043 H   0  0  0  0  0  0  0  0  0  0  0  0
    9.5381    1.3949   -1.3513 H   0  0  0  0  0  0  0  0  0  0  0  0
    2.7785   -2.2295    0.1403 H   0  0  0  0  0  0  0  0  0  0  0  0
  1  2  1  0
  1 17  1  0
  1 18  1  0
  1 19  1  0
  2  3  2  0
  2 16  1  0
  3  4  1  0
  3 20  1  0
  4  5  2  0
  4 21  1  0
  5  6  1  0
  5 12  1  0
  6  7  1  0
  7  8  1  0
  7  9  1  0
  7 22  1  1
  8 23  1  0
  8 24  1  0
  8 25  1  0
  9 10  2  0
  9 11  1  0
 12 13  1  0
 12 16  2  0
 13 14  2  0
 13 15  1  0
 16 26  1  0
M  CHG  2  13   1  15  -1
M  END

