
     RDKit          3D

 50 53  0  0  0  0  0  0  0  0999 V2000
    4.2184    1.9454    0.8009 C   0  0  0  0  0  0  0  0  0  0  0  0
    3.6242    0.9303    1.5771 O   0  0  0  0  0  0  0  0  0  0  0  0
    4.1056   -0.3366    1.4951 C   0  0  0  0  0  0  0  0  0  0  0  0
    3.4904   -1.2900    2.3240 C   0  0  0  0  0  0  0  0  0  0  0  0
    3.9170   -2.6138    2.3062 C   0  0  0  0  0  0  0  0  0  0  0  0
    4.9563   -3.0455    1.4532 C   0  0  0  0  0  0  0  0  0  0  0  0
    5.4470   -4.4368    1.4703 C   0  0  0  0  0  0  0  0  0  0  0  0
    4.7999   -5.6586    1.4157 C   0  0  0  0  0  0  0  0  0  0  0  0
    3.5246   -5.9783    1.0945 N   0  0  0  0  0  0  0  0  0  0  0  0
    2.9397   -7.3354    1.1393 C   0  0  0  0  0  0  0  0  0  0  0  0
    1.7640   -7.2523    0.1650 C   0  0  0  0  0  0  0  0  0  0  0  0
    1.2894   -5.8030    0.3124 C   0  0  0  0  0  0  0  0  0  0  0  0
    2.5940   -5.0171    0.4820 C   0  0  0  0  0  0  0  0  0  0  0  0
    5.8390   -6.7470    1.6971 C   0  0  0  0  0  0  0  0  0  0  0  0
    5.6697   -7.9482    1.7702 O   0  0  0  0  0  0  0  0  0  0  0  0
    7.0455   -6.1030    1.8407 N   0  0  0  0  0  0  0  0  0  0  0  0
    8.3200   -6.7618    2.0583 C   0  0  0  0  0  0  0  0  0  0  0  0
    8.7472   -6.8083    3.5294 C   0  0  1  0  0  0  0  0  0  0  0  0
    7.8603   -7.6441    4.4651 C   0  0  0  0  0  0  0  0  0  0  0  0
    8.8773   -8.1507    5.4949 C   0  0  0  0  0  0  0  0  0  0  0  0
   10.1113   -8.3826    4.6180 C   0  0  0  0  0  0  0  0  0  0  0  0
   10.0416   -7.4114    3.5796 O   0  0  0  0  0  0  0  0  0  0  0  0
    6.8866   -4.7034    1.6899 C   0  0  0  0  0  0  0  0  0  0  0  0
    7.8136   -3.9245    1.7455 O   0  0  0  0  0  0  0  0  0  0  0  0
    5.5752   -2.0715    0.6509 C   0  0  0  0  0  0  0  0  0  0  0  0
    5.1605   -0.7372    0.6605 C   0  0  0  0  0  0  0  0  0  0  0  0
    3.6820    2.8746    1.0363 H   0  0  0  0  0  0  0  0  0  0  0  0
    4.1255    1.7450   -0.2821 H   0  0  0  0  0  0  0  0  0  0  0  0
    5.2879    2.0786    1.0451 H   0  0  0  0  0  0  0  0  0  0  0  0
    2.6887   -0.9606    2.9882 H   0  0  0  0  0  0  0  0  0  0  0  0
    3.4560   -3.3292    2.9921 H   0  0  0  0  0  0  0  0  0  0  0  0
    2.5945   -7.5643    2.1653 H   0  0  0  0  0  0  0  0  0  0  0  0
    3.6830   -8.0941    0.8750 H   0  0  0  0  0  0  0  0  0  0  0  0
    0.9837   -7.9948    0.3883 H   0  0  0  0  0  0  0  0  0  0  0  0
    2.1156   -7.4357   -0.8644 H   0  0  0  0  0  0  0  0  0  0  0  0
    0.6651   -5.6979    1.2156 H   0  0  0  0  0  0  0  0  0  0  0  0
    0.6973   -5.4432   -0.5417 H   0  0  0  0  0  0  0  0  0  0  0  0
    2.4660   -4.1190    1.1013 H   0  0  0  0  0  0  0  0  0  0  0  0
    3.0049   -4.6771   -0.4869 H   0  0  0  0  0  0  0  0  0  0  0  0
    9.0861   -6.2147    1.4906 H   0  0  0  0  0  0  0  0  0  0  0  0
    8.2473   -7.7861    1.6646 H   0  0  0  0  0  0  0  0  0  0  0  0
    8.8213   -5.7670    3.9001 H   0  0  0  0  0  0  0  0  0  0  0  0
    7.4092   -8.4845    3.9125 H   0  0  0  0  0  0  0  0  0  0  0  0
    7.0419   -7.0587    4.9095 H   0  0  0  0  0  0  0  0  0  0  0  0
    8.5501   -9.0570    6.0266 H   0  0  0  0  0  0  0  0  0  0  0  0
    9.0829   -7.3720    6.2481 H   0  0  0  0  0  0  0  0  0  0  0  0
   10.1043   -9.4019    4.1836 H   0  0  0  0  0  0  0  0  0  0  0  0
   11.0620   -8.2584    5.1634 H   0  0  0  0  0  0  0  0  0  0  0  0
    6.4045   -2.3624    0.0043 H   0  0  0  0  0  0  0  0  0  0  0  0
    5.6689   -0.0205    0.0152 H   0  0  0  0  0  0  0  0  0  0  0  0
  1  2  1  0
  1 27  1  0
  1 28  1  0
  1 29  1  0
  2  3  1  0
  3  4  2  0
  3 26  1  0
  4  5  1  0
  4 30  1  0
  5  6  2  0
  5 31  1  0
  6  7  1  0
  6 25  1  0
  7  8  2  0
  7 23  1  0
  8  9  1  0
  8 14  1  0
  9 10  1  0
  9 13  1  0
 10 11  1  0
 10 32  1  0
 10 33  1  0
 11 12  1  0
 11 34  1  0
 11 35  1  0
 12 13  1  0
 12 36  1  0
 12 37  1  0
 13 38  1  0
 13 39  1  0
 14 15  2  0
 14 16  1  0
 16 17  1  0
 16 23  1  0
 17 18  1  0
 17 40  1  0
 17 41  1  0
 18 19  1  0
 18 22  1  0
 18 42  1  1
 19 20  1  0
 19 43  1  0
 19 44  1  0
 20 21  1  0
 20 45  1  0
 20 46  1  0
 21 22  1  0
 21 47  1  0
 21 48  1  0
 23 24  2  0
 25 26  2  0
 25 49  1  0
 26 50  1  0
M  END

