
     RDKit          3D

 52 56  0  0  0  0  0  0  0  0999 V2000
    1.3506   -0.2362   -0.7280 O   0  0  0  0  0  0  0  0  0  0  0  0
    2.5548   -0.1844   -0.5400 C   0  0  0  0  0  0  0  0  0  0  0  0
    3.2293   -1.2439    0.3739 C   0  0  1  0  0  0  0  0  0  0  0  0
    4.1963   -1.5634   -0.0449 H   0  0  0  0  0  0  0  0  0  0  0  0
    3.4590   -0.6734    1.7808 C   0  0  0  0  0  0  0  0  0  0  0  0
    2.2277   -0.3404    2.3641 O   0  0  0  0  0  0  0  0  0  0  0  0
    1.3877   -1.4607    2.5315 C   0  0  0  0  0  0  0  0  0  0  0  0
    1.3949   -2.5137    1.4209 C   0  0  0  0  0  0  0  0  0  0  0  0
    0.5838   -3.4222    1.4641 O   0  0  0  0  0  0  0  0  0  0  0  0
    2.3849   -2.4222    0.4721 N   0  0  0  0  0  0  0  0  0  0  0  0
    2.3595   -3.3411   -0.6648 C   0  0  0  0  0  0  0  0  0  0  0  0
    3.6747   -4.0629   -0.8809 C   0  0  0  0  0  0  0  0  0  0  0  0
    4.2472   -4.8273    0.1502 C   0  0  0  0  0  0  0  0  0  0  0  0
    5.4493   -5.5083   -0.0500 C   0  0  0  0  0  0  0  0  0  0  0  0
    6.1008   -5.4389   -1.2873 C   0  0  0  0  0  0  0  0  0  0  0  0
    5.5412   -4.6833   -2.3199 C   0  0  0  0  0  0  0  0  0  0  0  0
    4.3378   -3.9986   -2.1144 C   0  0  0  0  0  0  0  0  0  0  0  0
    3.3442    0.7989   -1.0823 N   0  0  0  0  0  0  0  0  0  0  0  0
    2.7065    1.8507   -1.8754 C   0  0  0  0  0  0  0  0  0  0  0  0
    2.9012    3.2302   -1.2238 C   0  0  0  0  0  0  0  0  0  0  0  0
    4.3376    3.3613   -0.8300 C   0  0  0  0  0  0  0  0  0  0  0  0
    4.9897    4.5365   -0.5155 N   0  0  0  0  0  0  0  0  0  0  0  0
    4.5669    5.4550   -0.5104 H   0  0  0  0  0  0  0  0  0  0  0  0
    6.3084    4.2611   -0.2082 C   0  0  0  0  0  0  0  0  0  0  0  0
    7.3520    5.1156    0.1675 C   0  0  0  0  0  0  0  0  0  0  0  0
    8.5983    4.5449    0.4194 C   0  0  0  0  0  0  0  0  0  0  0  0
    8.8023    3.1539    0.2998 C   0  0  0  0  0  0  0  0  0  0  0  0
    7.7642    2.3047   -0.0745 C   0  0  0  0  0  0  0  0  0  0  0  0
    6.4928    2.8508   -0.3350 C   0  0  0  0  0  0  0  0  0  0  0  0
    5.2169    2.3079   -0.7258 C   0  0  0  0  0  0  0  0  0  0  0  0
    4.8047    0.8874   -0.9944 C   0  0  0  0  0  0  0  0  0  0  0  0
    4.0565    0.2485    1.7439 H   0  0  0  0  0  0  0  0  0  0  0  0
    4.0116   -1.4222    2.3855 H   0  0  0  0  0  0  0  0  0  0  0  0
    0.3545   -1.0974    2.6219 H   0  0  0  0  0  0  0  0  0  0  0  0
    1.6318   -2.0046    3.4673 H   0  0  0  0  0  0  0  0  0  0  0  0
    2.0723   -2.7885   -1.5756 H   0  0  0  0  0  0  0  0  0  0  0  0
    1.5542   -4.0579   -0.4490 H   0  0  0  0  0  0  0  0  0  0  0  0
    3.7379   -4.8902    1.1157 H   0  0  0  0  0  0  0  0  0  0  0  0
    5.8789   -6.1023    0.7611 H   0  0  0  0  0  0  0  0  0  0  0  0
    7.0409   -5.9739   -1.4441 H   0  0  0  0  0  0  0  0  0  0  0  0
    6.0422   -4.6231   -3.2897 H   0  0  0  0  0  0  0  0  0  0  0  0
    3.9032   -3.4089   -2.9273 H   0  0  0  0  0  0  0  0  0  0  0  0
    1.6451    1.5952   -1.9657 H   0  0  0  0  0  0  0  0  0  0  0  0
    3.1536    1.8561   -2.8860 H   0  0  0  0  0  0  0  0  0  0  0  0
    2.2397    3.3272   -0.3435 H   0  0  0  0  0  0  0  0  0  0  0  0
    2.6043    4.0214   -1.9344 H   0  0  0  0  0  0  0  0  0  0  0  0
    7.1970    6.1935    0.2613 H   0  0  0  0  0  0  0  0  0  0  0  0
    9.4319    5.1867    0.7148 H   0  0  0  0  0  0  0  0  0  0  0  0
    9.7927    2.7395    0.5043 H   0  0  0  0  0  0  0  0  0  0  0  0
    7.9382    1.2290   -0.1654 H   0  0  0  0  0  0  0  0  0  0  0  0
    5.1798    0.2305   -0.1995 H   0  0  0  0  0  0  0  0  0  0  0  0
    5.2582    0.5171   -1.9374 H   0  0  0  0  0  0  0  0  0  0  0  0
  1  2  2  0
  2  3  1  0
  2 18  1  0
  3  4  1  6
  3  5  1  0
  3 10  1  0
  5  6  1  0
  5 32  1  0
  5 33  1  0
  6  7  1  0
  7  8  1  0
  7 34  1  0
  7 35  1  0
  8  9  2  0
  8 10  1  0
 10 11  1  0
 11 12  1  0
 11 36  1  0
 11 37  1  0
 12 13  2  0
 12 17  1  0
 13 14  1  0
 13 38  1  0
 14 15  2  0
 14 39  1  0
 15 16  1  0
 15 40  1  0
 16 17  2  0
 16 41  1  0
 17 42  1  0
 18 19  1  0
 18 31  1  0
 19 20  1  0
 19 43  1  0
 19 44  1  0
 20 21  1  0
 20 45  1  0
 20 46  1  0
 21 22  1  0
 21 30  2  0
 22 23  1  0
 22 24  1  0
 24 25  2  0
 24 29  1  0
 25 26  1  0
 25 47  1  0
 26 27  2  0
 26 48  1  0
 27 28  1  0
 27 49  1  0
 28 29  2  0
 28 50  1  0
 29 30  1  0
 30 31  1  0
 31 51  1  0
 31 52  1  0
M  END

