
     RDKit          3D

 70 73  0  0  0  0  0  0  0  0999 V2000
    1.3340    1.5243    2.7995 C   0  0  0  0  0  0  0  0  0  0  0  0
    2.4063    2.0165    1.8460 C   0  0  0  0  0  0  0  0  0  0  0  0
    3.3734    0.9929    1.7044 O   0  0  0  0  0  0  0  0  0  0  0  0
    4.4941    1.2258    0.9695 C   0  0  0  0  0  0  0  0  0  0  0  0
    5.4576    0.2035    0.9604 C   0  0  0  0  0  0  0  0  0  0  0  0
    6.6402    0.3292    0.2384 C   0  0  0  0  0  0  0  0  0  0  0  0
    6.8925    1.5045   -0.4957 C   0  0  0  0  0  0  0  0  0  0  0  0
    8.0684    1.7150   -1.2547 N   0  0  0  0  0  0  0  0  0  0  0  0
    9.2256    0.9795   -1.2699 C   0  0  0  0  0  0  0  0  0  0  0  0
    9.3596   -0.1061   -0.7313 O   0  0  0  0  0  0  0  0  0  0  0  0
   10.2611    1.5633   -2.0581 N   0  0  0  0  0  0  0  0  0  0  0  0
   11.1891    0.5464   -2.5669 C   0  0  0  0  0  0  0  0  0  0  0  0
   11.8959    1.0921   -3.7979 C   0  0  0  0  0  0  0  0  0  0  0  0
   12.6441    2.3494   -3.4299 C   0  0  0  0  0  0  0  0  0  0  0  0
   13.8117    2.7267   -4.1183 C   0  0  0  0  0  0  0  0  0  0  0  0
   14.5567    3.8447   -3.7371 C   0  0  0  0  0  0  0  0  0  0  0  0
   15.6675    4.2886   -4.3807 O   0  0  0  0  0  0  0  0  0  0  0  0
   16.1275    3.5925   -5.5182 C   0  0  0  0  0  0  0  0  0  0  0  0
   14.1416    4.5875   -2.6022 C   0  0  0  0  0  0  0  0  0  0  0  0
   14.7977    5.7082   -2.1848 O   0  0  0  0  0  0  0  0  0  0  0  0
   16.1226    5.5490   -1.6952 C   0  0  0  0  0  0  0  0  0  0  0  0
   12.9843    4.2066   -1.9322 C   0  0  0  0  0  0  0  0  0  0  0  0
   12.2016    3.1093   -2.3387 C   0  0  0  0  0  0  0  0  0  0  0  0
   10.9169    2.7961   -1.5585 C   0  0  1  0  0  0  0  0  0  0  0  0
   11.2091    2.6613   -0.4951 H   0  0  0  0  0  0  0  0  0  0  0  0
    9.9882    4.0311   -1.5856 C   0  0  0  0  0  0  0  0  0  0  0  0
    9.4743    4.2858   -2.9203 N   0  0  0  0  0  0  0  0  0  0  0  0
    8.2789    4.8953   -3.1581 C   0  0  0  0  0  0  0  0  0  0  0  0
    7.4696    5.1339   -2.2697 O   0  0  0  0  0  0  0  0  0  0  0  0
    8.0059    5.2676   -4.6172 C   0  0  0  0  0  0  0  0  0  0  0  0
    8.2258    6.7486   -4.8814 C   0  0  0  0  0  0  0  0  0  0  0  0
    9.1041    7.1719   -5.8894 C   0  0  0  0  0  0  0  0  0  0  0  0
    9.3021    8.5330   -6.1425 C   0  0  0  0  0  0  0  0  0  0  0  0
    8.6231    9.4913   -5.3862 C   0  0  0  0  0  0  0  0  0  0  0  0
    7.7463    9.0790   -4.3771 C   0  0  0  0  0  0  0  0  0  0  0  0
    7.5476    7.7200   -4.1255 C   0  0  0  0  0  0  0  0  0  0  0  0
    5.9335    2.5278   -0.4872 C   0  0  0  0  0  0  0  0  0  0  0  0
    4.7410    2.3917    0.2310 C   0  0  0  0  0  0  0  0  0  0  0  0
    0.5721    2.3041    2.9534 H   0  0  0  0  0  0  0  0  0  0  0  0
    1.7763    1.2693    3.7747 H   0  0  0  0  0  0  0  0  0  0  0  0
    0.8376    0.6253    2.4032 H   0  0  0  0  0  0  0  0  0  0  0  0
    2.8799    2.9383    2.2351 H   0  0  0  0  0  0  0  0  0  0  0  0
    1.9677    2.2663    0.8600 H   0  0  0  0  0  0  0  0  0  0  0  0
    5.2509   -0.7035    1.5329 H   0  0  0  0  0  0  0  0  0  0  0  0
    7.3776   -0.4702    0.2370 H   0  0  0  0  0  0  0  0  0  0  0  0
    8.0205    2.4632   -1.9343 H   0  0  0  0  0  0  0  0  0  0  0  0
   10.6065   -0.3518   -2.8053 H   0  0  0  0  0  0  0  0  0  0  0  0
   11.9292    0.2412   -1.8012 H   0  0  0  0  0  0  0  0  0  0  0  0
   11.1436    1.2887   -4.5834 H   0  0  0  0  0  0  0  0  0  0  0  0
   12.5924    0.3408   -4.2036 H   0  0  0  0  0  0  0  0  0  0  0  0
   14.1316    2.1198   -4.9664 H   0  0  0  0  0  0  0  0  0  0  0  0
   17.0206    4.1250   -5.8712 H   0  0  0  0  0  0  0  0  0  0  0  0
   15.3732    3.5857   -6.3252 H   0  0  0  0  0  0  0  0  0  0  0  0
   16.4031    2.5496   -5.2799 H   0  0  0  0  0  0  0  0  0  0  0  0
   16.4439    6.5405   -1.3486 H   0  0  0  0  0  0  0  0  0  0  0  0
   16.8121    5.1918   -2.4749 H   0  0  0  0  0  0  0  0  0  0  0  0
   16.1456    4.8501   -0.8383 H   0  0  0  0  0  0  0  0  0  0  0  0
   12.7075    4.8097   -1.0649 H   0  0  0  0  0  0  0  0  0  0  0  0
    9.1401    3.9137   -0.9045 H   0  0  0  0  0  0  0  0  0  0  0  0
   10.5532    4.9021   -1.2153 H   0  0  0  0  0  0  0  0  0  0  0  0
   10.1181    4.1550   -3.6927 H   0  0  0  0  0  0  0  0  0  0  0  0
    6.9537    5.0022   -4.8091 H   0  0  0  0  0  0  0  0  0  0  0  0
    8.6284    4.6701   -5.3004 H   0  0  0  0  0  0  0  0  0  0  0  0
    9.6369    6.4281   -6.4894 H   0  0  0  0  0  0  0  0  0  0  0  0
    9.9899    8.8435   -6.9333 H   0  0  0  0  0  0  0  0  0  0  0  0
    8.7770   10.5556   -5.5813 H   0  0  0  0  0  0  0  0  0  0  0  0
    7.2112    9.8221   -3.7801 H   0  0  0  0  0  0  0  0  0  0  0  0
    6.8746    7.3959   -3.3288 H   0  0  0  0  0  0  0  0  0  0  0  0
    6.1245    3.4541   -1.0362 H   0  0  0  0  0  0  0  0  0  0  0  0
    4.0202    3.2087    0.2022 H   0  0  0  0  0  0  0  0  0  0  0  0
  1  2  1  0
  1 39  1  0
  1 40  1  0
  1 41  1  0
  2  3  1  0
  2 42  1  0
  2 43  1  0
  3  4  1  0
  4  5  2  0
  4 38  1  0
  5  6  1  0
  5 44  1  0
  6  7  2  0
  6 45  1  0
  7  8  1  0
  7 37  1  0
  8  9  1  0
  8 46  1  0
  9 10  2  0
  9 11  1  0
 11 12  1  0
 11 24  1  0
 12 13  1  0
 12 47  1  0
 12 48  1  0
 13 14  1  0
 13 49  1  0
 13 50  1  0
 14 15  2  0
 14 23  1  0
 15 16  1  0
 15 51  1  0
 16 17  1  0
 16 19  2  0
 17 18  1  0
 18 52  1  0
 18 53  1  0
 18 54  1  0
 19 20  1  0
 19 22  1  0
 20 21  1  0
 21 55  1  0
 21 56  1  0
 21 57  1  0
 22 23  2  0
 22 58  1  0
 23 24  1  0
 24 25  1  1
 24 26  1  0
 26 27  1  0
 26 59  1  0
 26 60  1  0
 27 28  1  0
 27 61  1  0
 28 29  2  0
 28 30  1  0
 30 31  1  0
 30 62  1  0
 30 63  1  0
 31 32  2  0
 31 36  1  0
 32 33  1  0
 32 64  1  0
 33 34  2  0
 33 65  1  0
 34 35  1  0
 34 66  1  0
 35 36  2  0
 35 67  1  0
 36 68  1  0
 37 38  2  0
 37 69  1  0
 38 70  1  0
M  END

