
     RDKit          3D

 31 32  0  0  0  0  0  0  0  0999 V2000
    1.6849    0.4164    0.9908 C   0  0  0  0  0  0  0  0  0  0  0  0
    2.5306   -0.3439   -0.0437 C   0  0  1  0  0  0  0  0  0  0  0  0
    1.9891   -1.6638   -0.3797 N   0  0  0  0  0  0  0  0  0  0  0  0
    2.7970    0.4483   -1.3273 C   0  0  0  0  0  0  0  0  0  0  0  0
    2.7365    1.8484   -1.3741 C   0  0  0  0  0  0  0  0  0  0  0  0
    3.0221    2.5388   -2.5565 C   0  0  0  0  0  0  0  0  0  0  0  0
    3.3703    1.8389   -3.7077 C   0  0  0  0  0  0  0  0  0  0  0  0
    3.4303    0.4282   -3.6986 C   0  0  0  0  0  0  0  0  0  0  0  0
    3.1477   -0.2404   -2.5030 C   0  0  0  0  0  0  0  0  0  0  0  0
    3.8179   -0.3395   -4.9574 C   0  0  0  0  0  0  0  0  0  0  0  0
    2.9215   -0.1696   -6.2095 C   0  0  0  0  0  0  0  0  0  0  0  0
    2.9833    1.2054   -6.9262 C   0  0  0  0  0  0  0  0  0  0  0  0
    2.6059    2.2651   -5.9085 C   0  0  0  0  0  0  0  0  0  0  0  0
    1.4951    2.7211   -5.7935 O   0  0  0  0  0  0  0  0  0  0  0  0
    3.6302    2.5180   -4.9540 N   0  0  0  0  0  0  0  0  0  0  0  0
    1.5102   -0.2233    1.8709 H   0  0  0  0  0  0  0  0  0  0  0  0
    0.7036    0.6976    0.5734 H   0  0  0  0  0  0  0  0  0  0  0  0
    2.1775    1.3337    1.3492 H   0  0  0  0  0  0  0  0  0  0  0  0
    3.5185   -0.5330    0.4197 H   0  0  0  0  0  0  0  0  0  0  0  0
    1.0493   -1.5650   -0.7696 H   0  0  0  0  0  0  0  0  0  0  0  0
    1.8948   -2.2290    0.4643 H   0  0  0  0  0  0  0  0  0  0  0  0
    2.4647    2.4215   -0.4866 H   0  0  0  0  0  0  0  0  0  0  0  0
    2.9694    3.6280   -2.6008 H   0  0  0  0  0  0  0  0  0  0  0  0
    3.1839   -1.3311   -2.4676 H   0  0  0  0  0  0  0  0  0  0  0  0
    3.8393   -1.4107   -4.7045 H   0  0  0  0  0  0  0  0  0  0  0  0
    4.8603   -0.0840   -5.2338 H   0  0  0  0  0  0  0  0  0  0  0  0
    1.8737   -0.3699   -5.9310 H   0  0  0  0  0  0  0  0  0  0  0  0
    3.2066   -0.9454   -6.9394 H   0  0  0  0  0  0  0  0  0  0  0  0
    2.2769    1.2271   -7.7683 H   0  0  0  0  0  0  0  0  0  0  0  0
    4.0011    1.3780   -7.3182 H   0  0  0  0  0  0  0  0  0  0  0  0
    4.5328    2.2188   -5.3193 H   0  0  0  0  0  0  0  0  0  0  0  0
  1  2  1  0
  1 16  1  0
  1 17  1  0
  1 18  1  0
  2  3  1  0
  2  4  1  0
  2 19  1  1
  3 20  1  0
  3 21  1  0
  4  5  2  0
  4  9  1  0
  5  6  1  0
  5 22  1  0
  6  7  2  0
  6 23  1  0
  7  8  1  0
  7 15  1  0
  8  9  2  0
  8 10  1  0
  9 24  1  0
 10 11  1  0
 10 25  1  0
 10 26  1  0
 11 12  1  0
 11 27  1  0
 11 28  1  0
 12 13  1  0
 12 29  1  0
 12 30  1  0
 13 14  2  0
 13 15  1  0
 15 31  1  0
M  END

