
     RDKit          3D

 42 44  0  0  0  0  0  0  0  0999 V2000
    1.1508   -0.5862   -1.1033 C   0  0  0  0  0  0  0  0  0  0  0  0
    2.5554   -0.3534   -0.6119 C   0  0  0  0  0  0  0  0  0  0  0  0
    3.1979    0.8407   -0.4657 C   0  0  0  0  0  0  0  0  0  0  0  0
    2.6440    2.1806   -0.8027 C   0  0  0  0  0  0  0  0  0  0  0  0
    3.3720    3.0274   -1.3085 O   0  0  0  0  0  0  0  0  0  0  0  0
    1.2304    2.5572   -0.4588 C   0  0  0  0  0  0  0  0  0  0  0  0
    0.5662    2.0447    0.6675 C   0  0  0  0  0  0  0  0  0  0  0  0
   -0.7096    2.4940    1.0112 C   0  0  0  0  0  0  0  0  0  0  0  0
   -1.3335    3.4574    0.2122 C   0  0  0  0  0  0  0  0  0  0  0  0
   -2.9362    4.0115    0.6246 Cl  0  0  0  0  0  0  0  0  0  0  0  0
   -0.6859    3.9895   -0.9098 C   0  0  0  0  0  0  0  0  0  0  0  0
    0.5965    3.5488   -1.2276 C   0  0  0  0  0  0  0  0  0  0  0  0
    4.6719    0.8760   -0.0624 C   0  0  1  0  0  0  0  0  0  0  0  0
    5.1662    1.5532   -0.7762 H   0  0  0  0  0  0  0  0  0  0  0  0
    4.8618    1.4748    1.3358 C   0  0  0  0  0  0  0  0  0  0  0  0
    4.6898    0.6980    2.4940 C   0  0  0  0  0  0  0  0  0  0  0  0
    4.8453    1.2547    3.7611 C   0  0  0  0  0  0  0  0  0  0  0  0
    5.1680    2.6111    3.8891 C   0  0  0  0  0  0  0  0  0  0  0  0
    5.2882    3.0895    5.1777 O   0  0  0  0  0  0  0  0  0  0  0  0
    6.1130    4.1495    5.4280 C   0  0  1  0  0  0  0  0  0  0  0  0
    5.5020    5.3230    5.1201 F   0  0  0  0  0  0  0  0  0  0  0  0
    6.3591    4.1564    6.7426 F   0  0  0  0  0  0  0  0  0  0  0  0
    5.3286    3.4084    2.7513 C   0  0  0  0  0  0  0  0  0  0  0  0
    5.1847    2.8290    1.4857 C   0  0  0  0  0  0  0  0  0  0  0  0
    5.2771   -0.4454   -0.1879 N   0  0  0  0  0  0  0  0  0  0  0  0
    4.6291   -1.6436   -0.2142 C   0  0  0  0  0  0  0  0  0  0  0  0
    5.1724   -2.7298   -0.1515 O   0  0  0  0  0  0  0  0  0  0  0  0
    3.2407   -1.5323   -0.3589 N   0  0  0  0  0  0  0  0  0  0  0  0
    0.6710    0.3231   -1.4735 H   0  0  0  0  0  0  0  0  0  0  0  0
    0.5209   -1.0039   -0.2997 H   0  0  0  0  0  0  0  0  0  0  0  0
    1.1720   -1.3244   -1.9224 H   0  0  0  0  0  0  0  0  0  0  0  0
    1.0610    1.3021    1.2968 H   0  0  0  0  0  0  0  0  0  0  0  0
   -1.2206    2.1084    1.8948 H   0  0  0  0  0  0  0  0  0  0  0  0
   -1.1860    4.7472   -1.5153 H   0  0  0  0  0  0  0  0  0  0  0  0
    1.1318    3.9718   -2.0800 H   0  0  0  0  0  0  0  0  0  0  0  0
    4.4465   -0.3639    2.4090 H   0  0  0  0  0  0  0  0  0  0  0  0
    4.7267    0.6550    4.6655 H   0  0  0  0  0  0  0  0  0  0  0  0
    7.0612    4.0952    4.8616 H   0  0  0  0  0  0  0  0  0  0  0  0
    5.5384    4.4745    2.8428 H   0  0  0  0  0  0  0  0  0  0  0  0
    5.3031    3.4537    0.5972 H   0  0  0  0  0  0  0  0  0  0  0  0
    6.2805   -0.5223   -0.0626 H   0  0  0  0  0  0  0  0  0  0  0  0
    2.7772   -2.4224   -0.5018 H   0  0  0  0  0  0  0  0  0  0  0  0
  1  2  1  0
  1 29  1  0
  1 30  1  0
  1 31  1  0
  2  3  2  0
  2 28  1  0
  3  4  1  0
  3 13  1  0
  4  5  2  0
  4  6  1  0
  6  7  2  0
  6 12  1  0
  7  8  1  0
  7 32  1  0
  8  9  2  0
  8 33  1  0
  9 10  1  0
  9 11  1  0
 11 12  2  0
 11 34  1  0
 12 35  1  0
 13 14  1  6
 13 15  1  0
 13 25  1  0
 15 16  2  0
 15 24  1  0
 16 17  1  0
 16 36  1  0
 17 18  2  0
 17 37  1  0
 18 19  1  0
 18 23  1  0
 19 20  1  0
 20 21  1  0
 20 22  1  0
 20 38  1  6
 23 24  2  0
 23 39  1  0
 24 40  1  0
 25 26  1  0
 25 41  1  0
 26 27  2  0
 26 28  1  0
 28 42  1  0
M  END

