
     RDKit          3D

 37 38  0  0  0  0  0  0  0  0999 V2000
    3.6814   -1.3537    2.7398 C   0  0  0  0  0  0  0  0  0  0  0  0
    3.5994   -0.4429    1.5207 C   0  0  0  0  0  0  0  0  0  0  0  0
    4.1357    0.8782    1.8120 N   0  0  0  0  0  0  0  0  0  0  0  0
    4.0968    1.7953    0.6860 C   0  0  0  0  0  0  0  0  0  0  0  0
    4.6290    3.1380    1.0541 C   0  0  0  0  0  0  0  0  0  0  0  0
    4.0771    4.2987    0.9312 N   0  0  0  0  0  0  0  0  0  0  0  0
    4.9985    5.2276    1.4006 N   0  0  0  0  0  0  0  0  0  0  0  0
    6.0428    4.5654    1.7816 C   0  0  0  0  0  0  0  0  0  0  0  0
    7.3121    5.0574    2.4072 C   0  0  1  0  0  0  0  0  0  0  0  0
    8.5360    4.5087    1.6217 C   0  0  0  0  0  0  0  0  0  0  0  0
    8.6237    4.9226    0.1519 C   0  0  0  0  0  0  0  0  0  0  0  0
    7.3160    6.5992    2.5380 C   0  0  0  0  0  0  0  0  0  0  0  0
    8.3399    6.9026    3.6498 C   0  0  0  0  0  0  0  0  0  0  0  0
    8.3544    5.6466    4.5667 C   0  0  0  0  0  0  0  0  0  0  0  0
    7.4009    4.6265    3.9026 C   0  0  0  0  0  0  0  0  0  0  0  0
    5.8812    3.2228    1.5837 O   0  0  0  0  0  0  0  0  0  0  0  0
    3.2416   -2.3401    2.5254 H   0  0  0  0  0  0  0  0  0  0  0  0
    3.1474   -0.9082    3.5932 H   0  0  0  0  0  0  0  0  0  0  0  0
    4.7293   -1.5175    3.0448 H   0  0  0  0  0  0  0  0  0  0  0  0
    2.5433   -0.3220    1.2193 H   0  0  0  0  0  0  0  0  0  0  0  0
    4.1063   -0.9294    0.6546 H   0  0  0  0  0  0  0  0  0  0  0  0
    5.0934    0.7976    2.1545 H   0  0  0  0  0  0  0  0  0  0  0  0
    3.0549    1.9499    0.3658 H   0  0  0  0  0  0  0  0  0  0  0  0
    4.6508    1.4245   -0.2095 H   0  0  0  0  0  0  0  0  0  0  0  0
    8.5118    3.4080    1.6890 H   0  0  0  0  0  0  0  0  0  0  0  0
    9.4532    4.8215    2.1470 H   0  0  0  0  0  0  0  0  0  0  0  0
    7.7357    4.6037   -0.4177 H   0  0  0  0  0  0  0  0  0  0  0  0
    9.5036    4.4638   -0.3262 H   0  0  0  0  0  0  0  0  0  0  0  0
    8.7172    6.0132    0.0322 H   0  0  0  0  0  0  0  0  0  0  0  0
    6.3081    6.9239    2.8363 H   0  0  0  0  0  0  0  0  0  0  0  0
    7.5365    7.1095    1.5892 H   0  0  0  0  0  0  0  0  0  0  0  0
    8.0742    7.8190    4.1984 H   0  0  0  0  0  0  0  0  0  0  0  0
    9.3397    7.0789    3.2222 H   0  0  0  0  0  0  0  0  0  0  0  0
    8.0285    5.8776    5.5923 H   0  0  0  0  0  0  0  0  0  0  0  0
    9.3727    5.2365    4.6524 H   0  0  0  0  0  0  0  0  0  0  0  0
    6.3970    4.6989    4.3512 H   0  0  0  0  0  0  0  0  0  0  0  0
    7.7315    3.5823    4.0159 H   0  0  0  0  0  0  0  0  0  0  0  0
  1  2  1  0
  1 17  1  0
  1 18  1  0
  1 19  1  0
  2  3  1  0
  2 20  1  0
  2 21  1  0
  3  4  1  0
  3 22  1  0
  4  5  1  0
  4 23  1  0
  4 24  1  0
  5  6  2  0
  5 16  1  0
  6  7  1  0
  7  8  2  0
  8  9  1  0
  8 16  1  0
  9 10  1  6
  9 12  1  0
  9 15  1  0
 10 11  1  0
 10 25  1  0
 10 26  1  0
 11 27  1  0
 11 28  1  0
 11 29  1  0
 12 13  1  0
 12 30  1  0
 12 31  1  0
 13 14  1  0
 13 32  1  0
 13 33  1  0
 14 15  1  0
 14 34  1  0
 14 35  1  0
 15 36  1  0
 15 37  1  0
M  END

