
     RDKit          3D

 43 46  0  0  0  0  0  0  0  0999 V2000
    4.3506   -1.5475    2.4730 C   0  0  0  0  0  0  0  0  0  0  0  0
    3.8883   -0.9822    1.5083 C   0  0  0  0  0  0  0  0  0  0  0  0
    3.3164   -0.2931    0.3469 C   0  0  0  0  0  0  0  0  0  0  0  0
    3.9330   -0.6622   -0.9222 N   0  0  0  0  0  0  0  0  0  0  0  0
    4.7931    0.1172   -1.6238 C   0  0  0  0  0  0  0  0  0  0  0  0
    5.2061   -0.5420   -2.7904 C   0  0  0  0  0  0  0  0  0  0  0  0
    6.0856   -0.1432   -3.8353 C   0  0  0  0  0  0  0  0  0  0  0  0
    6.8385    0.9783   -4.1250 C   0  0  0  0  0  0  0  0  0  0  0  0
    6.9085    2.1912   -3.3062 C   0  0  0  0  0  0  0  0  0  0  0  0
    6.3274    2.3922   -2.2484 O   0  0  0  0  0  0  0  0  0  0  0  0
    7.7303    3.1916   -3.8175 N   0  0  0  0  0  0  0  0  0  0  0  0
    8.4807    3.1984   -4.9828 C   0  0  0  0  0  0  0  0  0  0  0  0
    9.1483    4.1548   -5.3035 O   0  0  0  0  0  0  0  0  0  0  0  0
    8.3998    2.0223   -5.7423 N   0  0  0  0  0  0  0  0  0  0  0  0
    9.1621    1.9713   -6.9647 C   0  0  0  0  0  0  0  0  0  0  0  0
    8.8526    2.8350   -8.0188 C   0  0  0  0  0  0  0  0  0  0  0  0
    9.5897    2.7925   -9.2024 C   0  0  0  0  0  0  0  0  0  0  0  0
   10.6338    1.8720   -9.3272 C   0  0  0  0  0  0  0  0  0  0  0  0
   11.5581    1.8095  -10.8102 Cl  0  0  0  0  0  0  0  0  0  0  0  0
   10.9482    1.0007   -8.2804 C   0  0  0  0  0  0  0  0  0  0  0  0
   10.2111    1.0573   -7.0976 C   0  0  0  0  0  0  0  0  0  0  0  0
    7.6198    0.8933   -5.3910 C   0  0  0  0  0  0  0  0  0  0  0  0
    7.6139   -0.0828   -6.1158 O   0  0  0  0  0  0  0  0  0  0  0  0
    4.5262   -1.8368   -2.7681 C   0  0  0  0  0  0  0  0  0  0  0  0
    4.5054   -2.9426   -3.6324 C   0  0  0  0  0  0  0  0  0  0  0  0
    3.7200   -4.0443   -3.2968 C   0  0  0  0  0  0  0  0  0  0  0  0
    2.9560   -4.0635   -2.1130 C   0  0  0  0  0  0  0  0  0  0  0  0
    2.9588   -2.9788   -1.2368 C   0  0  0  0  0  0  0  0  0  0  0  0
    3.7465   -1.8771   -1.5867 C   0  0  0  0  0  0  0  0  0  0  0  0
    4.7696   -2.0473    3.3267 H   0  0  0  0  0  0  0  0  0  0  0  0
    3.4259    0.7960    0.4653 H   0  0  0  0  0  0  0  0  0  0  0  0
    2.2336   -0.4981    0.2865 H   0  0  0  0  0  0  0  0  0  0  0  0
    5.0872    1.1085   -1.2902 H   0  0  0  0  0  0  0  0  0  0  0  0
    6.2072   -0.9058   -4.6127 H   0  0  0  0  0  0  0  0  0  0  0  0
    7.7917    4.0429   -3.2651 H   0  0  0  0  0  0  0  0  0  0  0  0
    8.0366    3.5515   -7.9123 H   0  0  0  0  0  0  0  0  0  0  0  0
    9.3572    3.4675  -10.0274 H   0  0  0  0  0  0  0  0  0  0  0  0
   11.7654    0.2869   -8.3932 H   0  0  0  0  0  0  0  0  0  0  0  0
   10.4485    0.3799   -6.2761 H   0  0  0  0  0  0  0  0  0  0  0  0
    5.0925   -2.9457   -4.5539 H   0  0  0  0  0  0  0  0  0  0  0  0
    3.6969   -4.9110   -3.9617 H   0  0  0  0  0  0  0  0  0  0  0  0
    2.3546   -4.9439   -1.8747 H   0  0  0  0  0  0  0  0  0  0  0  0
    2.3788   -3.0008   -0.3124 H   0  0  0  0  0  0  0  0  0  0  0  0
  1  2  3  0
  1 30  1  0
  2  3  1  0
  3  4  1  0
  3 31  1  0
  3 32  1  0
  4  5  1  0
  4 29  1  0
  5  6  2  0
  5 33  1  0
  6  7  1  0
  6 24  1  0
  7  8  2  0
  7 34  1  0
  8  9  1  0
  8 22  1  0
  9 10  2  0
  9 11  1  0
 11 12  1  0
 11 35  1  0
 12 13  2  0
 12 14  1  0
 14 15  1  0
 14 22  1  0
 15 16  2  0
 15 21  1  0
 16 17  1  0
 16 36  1  0
 17 18  2  0
 17 37  1  0
 18 19  1  0
 18 20  1  0
 20 21  2  0
 20 38  1  0
 21 39  1  0
 22 23  2  0
 24 25  1  0
 24 29  2  0
 25 26  2  0
 25 40  1  0
 26 27  1  0
 26 41  1  0
 27 28  2  0
 27 42  1  0
 28 29  1  0
 28 43  1  0
M  END

