
     RDKit          3D

 41 42  0  0  0  0  0  0  0  0999 V2000
    4.4593    3.0556   -1.0118 C   0  0  0  0  0  0  0  0  0  0  0  0
    5.1000    1.9223   -0.4719 O   0  0  0  0  0  0  0  0  0  0  0  0
    4.3774    1.0422    0.2692 C   0  0  0  0  0  0  0  0  0  0  0  0
    3.0087    1.1721    0.5489 C   0  0  0  0  0  0  0  0  0  0  0  0
    2.3857    0.1898    1.3271 C   0  0  0  0  0  0  0  0  0  0  0  0
    3.0761   -0.9101    1.8324 C   0  0  0  0  0  0  0  0  0  0  0  0
    4.4507   -1.0331    1.5478 C   0  0  0  0  0  0  0  0  0  0  0  0
    5.2418   -2.1042    2.0091 N   0  0  0  0  0  0  0  0  0  0  0  0
    4.8864   -3.1828    2.7886 C   0  0  0  0  0  0  0  0  0  0  0  0
    3.7558   -3.3888    3.1927 O   0  0  0  0  0  0  0  0  0  0  0  0
    6.0510   -4.1103    3.1427 C   0  0  0  0  0  0  0  0  0  0  0  0
    5.6383   -5.5924    3.1397 C   0  0  1  0  0  0  0  0  0  0  0  0
    5.3678   -6.1320    1.7190 C   0  0  0  0  0  0  0  0  0  0  0  0
    6.6504   -6.3367    0.8992 C   0  0  0  0  0  0  0  0  0  0  0  0
    7.6562   -7.2261    1.6434 C   0  0  0  0  0  0  0  0  0  0  0  0
    7.9429   -6.6971    3.0568 C   0  0  0  0  0  0  0  0  0  0  0  0
    6.6621   -6.4948    3.8880 C   0  0  2  0  0  0  0  0  0  0  0  0
    6.1289   -7.7959    4.2960 N   0  0  0  0  0  0  0  0  0  0  0  0
    5.0884   -0.0574    0.7696 C   0  0  0  0  0  0  0  0  0  0  0  0
    5.2262    3.6152   -1.5645 H   0  0  0  0  0  0  0  0  0  0  0  0
    4.0405    3.7073   -0.2237 H   0  0  0  0  0  0  0  0  0  0  0  0
    3.6481    2.7779   -1.7090 H   0  0  0  0  0  0  0  0  0  0  0  0
    2.4300    2.0157    0.1740 H   0  0  0  0  0  0  0  0  0  0  0  0
    1.3191    0.2882    1.5466 H   0  0  0  0  0  0  0  0  0  0  0  0
    2.5816   -1.6672    2.4345 H   0  0  0  0  0  0  0  0  0  0  0  0
    6.2157   -2.0612    1.7344 H   0  0  0  0  0  0  0  0  0  0  0  0
    6.3688   -3.8289    4.1635 H   0  0  0  0  0  0  0  0  0  0  0  0
    6.9167   -3.9207    2.4877 H   0  0  0  0  0  0  0  0  0  0  0  0
    4.6915   -5.6294    3.7040 H   0  0  0  0  0  0  0  0  0  0  0  0
    4.6635   -5.4694    1.1893 H   0  0  0  0  0  0  0  0  0  0  0  0
    4.8474   -7.1023    1.8098 H   0  0  0  0  0  0  0  0  0  0  0  0
    7.1203   -5.3599    0.6819 H   0  0  0  0  0  0  0  0  0  0  0  0
    6.4029   -6.7741   -0.0826 H   0  0  0  0  0  0  0  0  0  0  0  0
    8.5971   -7.3049    1.0732 H   0  0  0  0  0  0  0  0  0  0  0  0
    7.2587   -8.2560    1.7042 H   0  0  0  0  0  0  0  0  0  0  0  0
    8.4771   -5.7337    2.9776 H   0  0  0  0  0  0  0  0  0  0  0  0
    8.6090   -7.3855    3.6007 H   0  0  0  0  0  0  0  0  0  0  0  0
    6.9446   -5.9744    4.8213 H   0  0  0  0  0  0  0  0  0  0  0  0
    5.8502   -8.3492    3.4859 H   0  0  0  0  0  0  0  0  0  0  0  0
    5.2836   -7.6706    4.8539 H   0  0  0  0  0  0  0  0  0  0  0  0
    6.1532   -0.1279    0.5332 H   0  0  0  0  0  0  0  0  0  0  0  0
  1  2  1  0
  1 20  1  0
  1 21  1  0
  1 22  1  0
  2  3  1  0
  3  4  2  0
  3 19  1  0
  4  5  1  0
  4 23  1  0
  5  6  2  0
  5 24  1  0
  6  7  1  0
  6 25  1  0
  7  8  1  0
  7 19  2  0
  8  9  1  0
  8 26  1  0
  9 10  2  0
  9 11  1  0
 11 12  1  0
 11 27  1  0
 11 28  1  0
 12 13  1  0
 12 17  1  0
 12 29  1  1
 13 14  1  0
 13 30  1  0
 13 31  1  0
 14 15  1  0
 14 32  1  0
 14 33  1  0
 15 16  1  0
 15 34  1  0
 15 35  1  0
 16 17  1  0
 16 36  1  0
 16 37  1  0
 17 18  1  0
 17 38  1  1
 18 39  1  0
 18 40  1  0
 19 41  1  0
M  END

