
     RDKit          3D

 55 59  0  0  0  0  0  0  0  0999 V2000
    0.6875    1.8165    0.0296 C   0  0  0  0  0  0  0  0  0  0  0  0
    2.1279    2.1415   -0.3514 C   0  0  0  0  0  0  0  0  0  0  0  0
    2.9201    1.0214   -0.8732 N   0  0  0  0  0  0  0  0  0  0  0  0
    2.2483   -0.1433   -1.4447 C   0  0  0  0  0  0  0  0  0  0  0  0
    1.9160   -0.0184   -2.9355 C   0  0  0  0  0  0  0  0  0  0  0  0
    4.2724    1.2089   -1.0796 C   0  0  0  0  0  0  0  0  0  0  0  0
    4.9280    2.4190   -0.7035 C   0  0  0  0  0  0  0  0  0  0  0  0
    6.2846    2.5981   -0.9133 C   0  0  0  0  0  0  0  0  0  0  0  0
    7.1014    1.6199   -1.5167 C   0  0  0  0  0  0  0  0  0  0  0  0
    6.4562    0.4019   -1.8175 C   0  0  0  0  0  0  0  0  0  0  0  0
    5.0910    0.2018   -1.6416 C   0  0  0  0  0  0  0  0  0  0  0  0
    7.1527   -0.6621   -2.2952 O   0  0  0  0  0  0  0  0  0  0  0  0
    8.5322   -0.7189   -2.3210 C   0  0  0  0  0  0  0  0  0  0  0  0
    9.0186   -1.7824   -2.6110 O   0  0  0  0  0  0  0  0  0  0  0  0
    9.2542    0.5392   -2.0469 C   0  0  0  0  0  0  0  0  0  0  0  0
   10.6920    0.5444   -2.0968 C   0  0  0  0  0  0  0  0  0  0  0  0
   11.5143   -0.7008   -2.3031 C   0  0  0  0  0  0  0  0  0  0  0  0
   11.3898    1.6626   -1.9464 N   0  0  0  0  0  0  0  0  0  0  0  0
   10.7028    2.8000   -1.8228 C   0  0  0  0  0  0  0  0  0  0  0  0
    9.2898    2.9408   -1.7516 C   0  0  0  0  0  0  0  0  0  0  0  0
    9.0875    4.3754   -1.7542 C   0  0  0  0  0  0  0  0  0  0  0  0
    7.8580    5.2336   -1.8357 C   0  0  0  0  0  0  0  0  0  0  0  0
   10.2512    4.9922   -1.7806 N   0  0  0  0  0  0  0  0  0  0  0  0
   11.2415    4.0649   -1.7948 N   0  0  0  0  0  0  0  0  0  0  0  0
   12.5974    4.5028   -1.8320 C   0  0  0  0  0  0  0  0  0  0  0  0
   12.8570    5.8786   -1.9528 C   0  0  0  0  0  0  0  0  0  0  0  0
   14.1741    6.3363   -1.9812 C   0  0  0  0  0  0  0  0  0  0  0  0
   15.2435    5.4398   -1.8914 C   0  0  0  0  0  0  0  0  0  0  0  0
   14.9778    4.0738   -1.7710 C   0  0  0  0  0  0  0  0  0  0  0  0
   13.6653    3.5959   -1.7389 C   0  0  0  0  0  0  0  0  0  0  0  0
    8.5293    1.7346   -1.7720 C   0  0  0  0  0  0  0  0  0  0  0  0
    0.2311    2.7198    0.4628 H   0  0  0  0  0  0  0  0  0  0  0  0
    0.6308    1.0210    0.7890 H   0  0  0  0  0  0  0  0  0  0  0  0
    0.0696    1.5214   -0.8317 H   0  0  0  0  0  0  0  0  0  0  0  0
    2.6312    2.5229    0.5519 H   0  0  0  0  0  0  0  0  0  0  0  0
    2.1286    2.9796   -1.0772 H   0  0  0  0  0  0  0  0  0  0  0  0
    1.3288   -0.3261   -0.8747 H   0  0  0  0  0  0  0  0  0  0  0  0
    2.8708   -1.0327   -1.2680 H   0  0  0  0  0  0  0  0  0  0  0  0
    1.2369    0.8286   -3.1236 H   0  0  0  0  0  0  0  0  0  0  0  0
    1.4214   -0.9345   -3.2968 H   0  0  0  0  0  0  0  0  0  0  0  0
    2.8235    0.1375   -3.5387 H   0  0  0  0  0  0  0  0  0  0  0  0
    4.3755    3.2269   -0.2297 H   0  0  0  0  0  0  0  0  0  0  0  0
    6.7363    3.5203   -0.5622 H   0  0  0  0  0  0  0  0  0  0  0  0
    4.7053   -0.7723   -1.9321 H   0  0  0  0  0  0  0  0  0  0  0  0
   11.2611   -1.4835   -1.5739 H   0  0  0  0  0  0  0  0  0  0  0  0
   12.5750   -0.4323   -2.2182 H   0  0  0  0  0  0  0  0  0  0  0  0
   11.3206   -1.1462   -3.2901 H   0  0  0  0  0  0  0  0  0  0  0  0
    7.1039    4.8099   -2.5141 H   0  0  0  0  0  0  0  0  0  0  0  0
    8.1557    6.2231   -2.2089 H   0  0  0  0  0  0  0  0  0  0  0  0
    7.3811    5.3849   -0.8535 H   0  0  0  0  0  0  0  0  0  0  0  0
   12.0189    6.5699   -2.0198 H   0  0  0  0  0  0  0  0  0  0  0  0
   14.3634    7.4088   -2.0757 H   0  0  0  0  0  0  0  0  0  0  0  0
   16.2737    5.8035   -1.9150 H   0  0  0  0  0  0  0  0  0  0  0  0
   15.8022    3.3597   -1.6989 H   0  0  0  0  0  0  0  0  0  0  0  0
   13.4590    2.5318   -1.6533 H   0  0  0  0  0  0  0  0  0  0  0  0
  1  2  1  0
  1 32  1  0
  1 33  1  0
  1 34  1  0
  2  3  1  0
  2 35  1  0
  2 36  1  0
  3  4  1  0
  3  6  1  0
  4  5  1  0
  4 37  1  0
  4 38  1  0
  5 39  1  0
  5 40  1  0
  5 41  1  0
  6  7  2  0
  6 11  1  0
  7  8  1  0
  7 42  1  0
  8  9  2  0
  8 43  1  0
  9 10  1  0
  9 31  1  0
 10 11  2  0
 10 12  1  0
 11 44  1  0
 12 13  1  0
 13 14  2  0
 13 15  1  0
 15 16  1  0
 15 31  2  0
 16 17  1  0
 16 18  2  0
 17 45  1  0
 17 46  1  0
 17 47  1  0
 18 19  1  0
 19 20  2  0
 19 24  1  0
 20 21  1  0
 20 31  1  0
 21 22  1  0
 21 23  2  0
 22 48  1  0
 22 49  1  0
 22 50  1  0
 23 24  1  0
 24 25  1  0
 25 26  2  0
 25 30  1  0
 26 27  1  0
 26 51  1  0
 27 28  2  0
 27 52  1  0
 28 29  1  0
 28 53  1  0
 29 30  2  0
 29 54  1  0
 30 55  1  0
M  END

