
     RDKit          3D

 39 41  0  0  0  0  0  0  0  0999 V2000
    5.3739   -2.4992   -1.1188 Cl  0  0  0  0  0  0  0  0  0  0  0  0
    4.4883   -1.0168   -0.8228 C   0  0  0  0  0  0  0  0  0  0  0  0
    5.1253    0.1842   -1.1359 C   0  0  0  0  0  0  0  0  0  0  0  0
    4.5245    1.4129   -0.8550 C   0  0  0  0  0  0  0  0  0  0  0  0
    3.2657    1.4083   -0.2560 C   0  0  0  0  0  0  0  0  0  0  0  0
    2.4093    3.0664    0.1491 Br  0  0  0  0  0  0  0  0  0  0  0  0
    2.6090    0.2147    0.0422 C   0  0  0  0  0  0  0  0  0  0  0  0
    3.1983   -1.0382   -0.2327 C   0  0  0  0  0  0  0  0  0  0  0  0
    2.5442   -2.2391    0.0961 N   0  0  0  0  0  0  0  0  0  0  0  0
    1.5299   -2.1884    1.1428 C   0  0  0  0  0  0  0  0  0  0  0  0
    1.2221   -3.6060    1.6382 C   0  0  0  0  0  0  0  0  0  0  0  0
    0.8704   -4.5329    0.5724 N   0  0  0  0  0  0  0  0  0  0  0  0
    1.8250   -4.5521   -0.5521 C   0  0  1  0  0  0  0  0  0  0  0  0
    3.1193   -5.2902   -0.1298 C   0  0  0  0  0  0  0  0  0  0  0  0
    2.8684   -6.7588    0.2288 C   0  0  0  0  0  0  0  0  0  0  0  0
    2.2035   -7.5098   -0.9313 C   0  0  0  0  0  0  0  0  0  0  0  0
    0.9217   -6.8041   -1.3905 C   0  0  0  0  0  0  0  0  0  0  0  0
    1.1770   -5.3268   -1.7191 C   0  0  0  0  0  0  0  0  0  0  0  0
    2.1388   -3.1101   -1.0177 C   0  0  0  0  0  0  0  0  0  0  0  0
    6.1201    0.1498   -1.5834 H   0  0  0  0  0  0  0  0  0  0  0  0
    5.0348    2.3481   -1.0873 H   0  0  0  0  0  0  0  0  0  0  0  0
    1.6143    0.2557    0.4822 H   0  0  0  0  0  0  0  0  0  0  0  0
    0.5851   -1.7242    0.7762 H   0  0  0  0  0  0  0  0  0  0  0  0
    1.8995   -1.5699    1.9753 H   0  0  0  0  0  0  0  0  0  0  0  0
    0.3932   -3.5677    2.3638 H   0  0  0  0  0  0  0  0  0  0  0  0
    2.1004   -3.9927    2.1810 H   0  0  0  0  0  0  0  0  0  0  0  0
   -0.0599   -4.3095    0.2174 H   0  0  0  0  0  0  0  0  0  0  0  0
    3.6066   -4.7567    0.6999 H   0  0  0  0  0  0  0  0  0  0  0  0
    3.8282   -5.2326   -0.9732 H   0  0  0  0  0  0  0  0  0  0  0  0
    2.2178   -6.8083    1.1175 H   0  0  0  0  0  0  0  0  0  0  0  0
    3.8216   -7.2430    0.5010 H   0  0  0  0  0  0  0  0  0  0  0  0
    1.9823   -8.5512   -0.6421 H   0  0  0  0  0  0  0  0  0  0  0  0
    2.9111   -7.5671   -1.7801 H   0  0  0  0  0  0  0  0  0  0  0  0
    0.1649   -6.8705   -0.5914 H   0  0  0  0  0  0  0  0  0  0  0  0
    0.4974   -7.3113   -2.2735 H   0  0  0  0  0  0  0  0  0  0  0  0
    0.2332   -4.8297   -2.0097 H   0  0  0  0  0  0  0  0  0  0  0  0
    1.8450   -5.2525   -2.5956 H   0  0  0  0  0  0  0  0  0  0  0  0
    1.2260   -2.6912   -1.4983 H   0  0  0  0  0  0  0  0  0  0  0  0
    2.9305   -3.1218   -1.7769 H   0  0  0  0  0  0  0  0  0  0  0  0
  1  2  1  0
  2  3  2  0
  2  8  1  0
  3  4  1  0
  3 20  1  0
  4  5  2  0
  4 21  1  0
  5  6  1  0
  5  7  1  0
  7  8  2  0
  7 22  1  0
  8  9  1  0
  9 10  1  0
  9 19  1  0
 10 11  1  0
 10 23  1  0
 10 24  1  0
 11 12  1  0
 11 25  1  0
 11 26  1  0
 13 12  1  1
 12 27  1  0
 13 14  1  0
 13 18  1  0
 13 19  1  0
 14 15  1  0
 14 28  1  0
 14 29  1  0
 15 16  1  0
 15 30  1  0
 15 31  1  0
 16 17  1  0
 16 32  1  0
 16 33  1  0
 17 18  1  0
 17 34  1  0
 17 35  1  0
 18 36  1  0
 18 37  1  0
 19 38  1  0
 19 39  1  0
M  END

