
     RDKit          3D

 52 53  0  0  0  0  0  0  0  0999 V2000
    5.6402    3.2197   -0.0550 C   0  0  0  0  0  0  0  0  0  0  0  0
    4.9769    3.9300    0.8779 C   0  0  0  0  0  0  0  0  0  0  0  0
    5.6053    5.1893    1.4372 C   0  0  0  0  0  0  0  0  0  0  0  0
    5.8489    5.0616    2.8224 O   0  0  0  0  0  0  0  0  0  0  0  0
    6.4558    6.1943    3.3859 C   0  0  0  0  0  0  0  0  0  0  0  0
    3.6436    3.5445    1.3652 C   0  0  0  0  0  0  0  0  0  0  0  0
    3.0549    3.9440    2.5072 C   0  0  0  0  0  0  0  0  0  0  0  0
    1.7357    3.2581    2.6784 C   0  0  0  0  0  0  0  0  0  0  0  0
    1.5632    2.4861    1.5018 O   0  0  0  0  0  0  0  0  0  0  0  0
    2.7220    2.5498    0.6664 C   0  0  1  0  0  0  0  0  0  0  0  0
    2.2892    2.8902   -0.7697 C   0  0  0  0  0  0  0  0  0  0  0  0
    1.6065    4.2490   -0.8988 C   0  0  0  0  0  0  0  0  0  0  0  0
    1.0263    4.6391   -2.2479 C   0  0  0  0  0  0  0  0  0  0  0  0
    1.2369    3.8803   -3.3503 C   0  0  0  0  0  0  0  0  0  0  0  0
    0.8798    4.0531   -4.7701 C   0  0  0  0  0  0  0  0  0  0  0  0
   -0.0802    4.9423   -5.2973 C   0  0  0  0  0  0  0  0  0  0  0  0
   -0.3251    5.0291   -6.6692 C   0  0  0  0  0  0  0  0  0  0  0  0
    0.3789    4.2239   -7.5733 C   0  0  0  0  0  0  0  0  0  0  0  0
    0.1781    4.2703   -8.9164 O   0  0  0  0  0  0  0  0  0  0  0  0
    1.3281    3.3189   -7.0771 C   0  0  0  0  0  0  0  0  0  0  0  0
    1.5605    3.2412   -5.7087 C   0  0  0  0  0  0  0  0  0  0  0  0
    0.2693    5.9538   -2.2292 C   0  0  0  0  0  0  0  0  0  0  0  0
   -1.2600    5.8577   -2.0195 C   0  0  0  0  0  0  0  0  0  0  0  0
   -1.7139    5.2895   -0.6733 C   0  0  0  0  0  0  0  0  0  0  0  0
    6.6370    3.5205   -0.3881 H   0  0  0  0  0  0  0  0  0  0  0  0
    5.2277    2.3143   -0.5046 H   0  0  0  0  0  0  0  0  0  0  0  0
    4.9305    6.0531    1.2513 H   0  0  0  0  0  0  0  0  0  0  0  0
    6.5519    5.3962    0.8992 H   0  0  0  0  0  0  0  0  0  0  0  0
    6.6063    5.9978    4.4574 H   0  0  0  0  0  0  0  0  0  0  0  0
    5.8278    7.1025    3.2768 H   0  0  0  0  0  0  0  0  0  0  0  0
    7.4416    6.4081    2.9247 H   0  0  0  0  0  0  0  0  0  0  0  0
    3.4971    4.6140    3.2435 H   0  0  0  0  0  0  0  0  0  0  0  0
    0.8906    3.9668    2.7939 H   0  0  0  0  0  0  0  0  0  0  0  0
    1.7285    2.6081    3.5796 H   0  0  0  0  0  0  0  0  0  0  0  0
    3.2025    1.5487    0.6432 H   0  0  0  0  0  0  0  0  0  0  0  0
    1.5984    2.0929   -1.0912 H   0  0  0  0  0  0  0  0  0  0  0  0
    3.1686    2.8306   -1.4306 H   0  0  0  0  0  0  0  0  0  0  0  0
    2.3174    5.0455   -0.6041 H   0  0  0  0  0  0  0  0  0  0  0  0
    0.8050    4.2986   -0.1429 H   0  0  0  0  0  0  0  0  0  0  0  0
    1.8303    2.9745   -3.1978 H   0  0  0  0  0  0  0  0  0  0  0  0
   -0.6745    5.5700   -4.6376 H   0  0  0  0  0  0  0  0  0  0  0  0
   -1.0827    5.7274   -7.0402 H   0  0  0  0  0  0  0  0  0  0  0  0
   -0.4998    4.9287   -9.1169 H   0  0  0  0  0  0  0  0  0  0  0  0
    1.8702    2.6844   -7.7813 H   0  0  0  0  0  0  0  0  0  0  0  0
    2.3045    2.5279   -5.3431 H   0  0  0  0  0  0  0  0  0  0  0  0
    0.4586    6.5030   -3.1656 H   0  0  0  0  0  0  0  0  0  0  0  0
    0.6846    6.5848   -1.4228 H   0  0  0  0  0  0  0  0  0  0  0  0
   -1.7020    5.2497   -2.8269 H   0  0  0  0  0  0  0  0  0  0  0  0
   -1.6779    6.8735   -2.1393 H   0  0  0  0  0  0  0  0  0  0  0  0
   -1.4184    4.2360   -0.5494 H   0  0  0  0  0  0  0  0  0  0  0  0
   -2.8113    5.3331   -0.5827 H   0  0  0  0  0  0  0  0  0  0  0  0
   -1.2900    5.8587    0.1713 H   0  0  0  0  0  0  0  0  0  0  0  0
  1  2  2  0
  1 25  1  0
  1 26  1  0
  2  3  1  0
  2  6  1  0
  3  4  1  0
  3 27  1  0
  3 28  1  0
  4  5  1  0
  5 29  1  0
  5 30  1  0
  5 31  1  0
  6  7  2  0
  6 10  1  0
  7  8  1  0
  7 32  1  0
  8  9  1  0
  8 33  1  0
  8 34  1  0
  9 10  1  0
 10 11  1  0
 10 35  1  6
 11 12  1  0
 11 36  1  0
 11 37  1  0
 12 13  1  0
 12 38  1  0
 12 39  1  0
 13 14  2  0
 13 22  1  0
 14 15  1  0
 14 40  1  0
 15 16  2  0
 15 21  1  0
 16 17  1  0
 16 41  1  0
 17 18  2  0
 17 42  1  0
 18 19  1  0
 18 20  1  0
 19 43  1  0
 20 21  2  0
 20 44  1  0
 21 45  1  0
 22 23  1  0
 22 46  1  0
 22 47  1  0
 23 24  1  0
 23 48  1  0
 23 49  1  0
 24 50  1  0
 24 51  1  0
 24 52  1  0
M  END

