
     RDKit          3D

 37 37  0  0  0  0  0  0  0  0999 V2000
    1.7049    0.2287   -1.1965 C   0  0  0  0  0  0  0  0  0  0  0  0
    3.0670   -0.0529   -0.5726 C   0  0  0  0  0  0  0  0  0  0  0  0
    3.5355   -1.3843   -0.9224 N   0  0  0  0  0  0  0  0  0  0  0  0
    4.8260   -1.7584   -0.3670 C   0  0  1  0  0  0  0  0  0  0  0  0
    4.7155   -2.2882    1.0697 C   0  0  0  0  0  0  0  0  0  0  0  0
    5.4708   -2.7609   -1.2842 C   0  0  0  0  0  0  0  0  0  0  0  0
    5.2379   -2.9449   -2.5490 N   0  0  0  0  0  0  0  0  0  0  0  0
    6.1405   -3.9286   -2.8849 C   0  0  0  0  0  0  0  0  0  0  0  0
    6.2412   -4.5467   -4.2599 C   0  0  1  0  0  0  0  0  0  0  0  0
    5.0950   -5.3370   -4.5143 O   0  0  0  0  0  0  0  0  0  0  0  0
    5.0568   -6.5760   -3.8467 C   0  0  0  0  0  0  0  0  0  0  0  0
    6.3560   -3.4896   -5.3734 C   0  0  1  0  0  0  0  0  0  0  0  0
    7.5671   -2.5749   -5.1559 C   0  0  0  0  0  0  0  0  0  0  0  0
    6.4005   -4.1590   -6.7511 C   0  0  0  0  0  0  0  0  0  0  0  0
    6.8852   -4.3291   -1.8859 N   0  0  0  0  0  0  0  0  0  0  0  0
    6.4432   -3.5518   -0.8154 O   0  0  0  0  0  0  0  0  0  0  0  0
    1.3409    1.2291   -0.9150 H   0  0  0  0  0  0  0  0  0  0  0  0
    0.9664   -0.5196   -0.8701 H   0  0  0  0  0  0  0  0  0  0  0  0
    1.7579    0.1912   -2.2978 H   0  0  0  0  0  0  0  0  0  0  0  0
    2.9841    0.0184    0.5259 H   0  0  0  0  0  0  0  0  0  0  0  0
    3.7878    0.7438   -0.8729 H   0  0  0  0  0  0  0  0  0  0  0  0
    3.5551   -1.5037   -1.9350 H   0  0  0  0  0  0  0  0  0  0  0  0
    5.5299   -0.8899   -0.3508 H   0  0  0  0  0  0  0  0  0  0  0  0
    4.0611   -3.1721    1.0977 H   0  0  0  0  0  0  0  0  0  0  0  0
    4.2794   -1.5178    1.7219 H   0  0  0  0  0  0  0  0  0  0  0  0
    5.7031   -2.5579    1.4716 H   0  0  0  0  0  0  0  0  0  0  0  0
    7.1505   -5.1813   -4.2608 H   0  0  0  0  0  0  0  0  0  0  0  0
    4.1194   -7.0728   -4.1356 H   0  0  0  0  0  0  0  0  0  0  0  0
    5.0741   -6.4662   -2.7460 H   0  0  0  0  0  0  0  0  0  0  0  0
    5.9077   -7.2237   -4.1369 H   0  0  0  0  0  0  0  0  0  0  0  0
    5.4381   -2.8798   -5.3081 H   0  0  0  0  0  0  0  0  0  0  0  0
    8.5090   -3.1499   -5.1611 H   0  0  0  0  0  0  0  0  0  0  0  0
    7.5120   -2.0271   -4.2027 H   0  0  0  0  0  0  0  0  0  0  0  0
    7.6322   -1.8274   -5.9620 H   0  0  0  0  0  0  0  0  0  0  0  0
    7.3085   -4.7773   -6.8615 H   0  0  0  0  0  0  0  0  0  0  0  0
    6.4155   -3.4006   -7.5500 H   0  0  0  0  0  0  0  0  0  0  0  0
    5.5268   -4.8069   -6.9034 H   0  0  0  0  0  0  0  0  0  0  0  0
  1  2  1  0
  1 17  1  0
  1 18  1  0
  1 19  1  0
  2  3  1  0
  2 20  1  0
  2 21  1  0
  3  4  1  0
  3 22  1  0
  4  5  1  0
  4  6  1  0
  4 23  1  1
  5 24  1  0
  5 25  1  0
  5 26  1  0
  6  7  2  0
  6 16  1  0
  7  8  1  0
  8  9  1  0
  8 15  2  0
  9 10  1  0
  9 12  1  0
  9 27  1  1
 10 11  1  0
 11 28  1  0
 11 29  1  0
 11 30  1  0
 12 13  1  0
 12 14  1  0
 12 31  1  6
 13 32  1  0
 13 33  1  0
 13 34  1  0
 14 35  1  0
 14 36  1  0
 14 37  1  0
 15 16  1  0
M  END

