
     RDKit          3D

 31 32  0  0  0  0  0  0  0  0999 V2000
    5.4368   -1.7064   -0.6341 C   0  0  0  0  0  0  0  0  0  0  0  0
    4.3781   -0.7041   -0.2479 C   0  0  0  0  0  0  0  0  0  0  0  0
    4.7536    0.6415   -0.0978 C   0  0  0  0  0  0  0  0  0  0  0  0
    3.8484    1.6413    0.2576 C   0  0  0  0  0  0  0  0  0  0  0  0
    2.5196    1.2885    0.4687 C   0  0  0  0  0  0  0  0  0  0  0  0
    1.6296    2.2298    0.8113 F   0  0  0  0  0  0  0  0  0  0  0  0
    2.0968   -0.0252    0.3287 C   0  0  0  0  0  0  0  0  0  0  0  0
    3.0115   -1.0372   -0.0271 C   0  0  0  0  0  0  0  0  0  0  0  0
    2.5262   -2.4483   -0.1591 C   0  0  0  0  0  0  0  0  0  0  0  0
    3.2620   -3.3777   -0.4160 O   0  0  0  0  0  0  0  0  0  0  0  0
    1.0236   -2.7130    0.0742 C   0  0  0  0  0  0  0  0  0  0  0  0
    0.6299   -4.0573   -0.2604 N   0  0  0  0  0  0  0  0  0  0  0  0
    0.9680   -5.2381    0.3213 C   0  0  0  0  0  0  0  0  0  0  0  0
    0.3201   -6.1889   -0.4441 C   0  0  0  0  0  0  0  0  0  0  0  0
    0.2994   -7.6796   -0.2828 C   0  0  0  0  0  0  0  0  0  0  0  0
    1.4792   -8.1357    0.4469 N   0  0  0  0  0  0  0  0  0  0  0  0
   -0.3556   -5.5414   -1.4370 N   0  0  0  0  0  0  0  0  0  0  0  0
   -0.1708   -4.2646   -1.3266 N   0  0  0  0  0  0  0  0  0  0  0  0
    6.4044   -1.2010   -0.7679 H   0  0  0  0  0  0  0  0  0  0  0  0
    5.1794   -2.2337   -1.5645 H   0  0  0  0  0  0  0  0  0  0  0  0
    5.5492   -2.4930    0.1267 H   0  0  0  0  0  0  0  0  0  0  0  0
    5.7982    0.9146   -0.2668 H   0  0  0  0  0  0  0  0  0  0  0  0
    4.1573    2.6823    0.3709 H   0  0  0  0  0  0  0  0  0  0  0  0
    1.0417   -0.2326    0.5043 H   0  0  0  0  0  0  0  0  0  0  0  0
    0.4089   -2.0528   -0.5533 H   0  0  0  0  0  0  0  0  0  0  0  0
    0.7798   -2.4942    1.1279 H   0  0  0  0  0  0  0  0  0  0  0  0
    1.6246   -5.3235    1.1806 H   0  0  0  0  0  0  0  0  0  0  0  0
    0.1572   -8.1240   -1.2895 H   0  0  0  0  0  0  0  0  0  0  0  0
   -0.5935   -7.9683    0.3011 H   0  0  0  0  0  0  0  0  0  0  0  0
    2.3153   -8.0128   -0.1261 H   0  0  0  0  0  0  0  0  0  0  0  0
    1.4089   -9.1325    0.6482 H   0  0  0  0  0  0  0  0  0  0  0  0
  1  2  1  0
  1 19  1  0
  1 20  1  0
  1 21  1  0
  2  3  2  0
  2  8  1  0
  3  4  1  0
  3 22  1  0
  4  5  2  0
  4 23  1  0
  5  6  1  0
  5  7  1  0
  7  8  2  0
  7 24  1  0
  8  9  1  0
  9 10  2  0
  9 11  1  0
 11 12  1  0
 11 25  1  0
 11 26  1  0
 12 13  1  0
 12 18  1  0
 13 14  2  0
 13 27  1  0
 14 15  1  0
 14 17  1  0
 15 16  1  0
 15 28  1  0
 15 29  1  0
 16 30  1  0
 16 31  1  0
 17 18  2  0
M  END

