
     RDKit          3D

 40 41  0  0  0  0  0  0  0  0999 V2000
    1.0432    0.2882   -1.0879 N   0  0  0  0  0  0  0  0  0  0  0  0
    2.1782    0.3419   -0.8458 C   0  0  0  0  0  0  0  0  0  0  0  0
    3.5801    0.4092   -0.5471 C   0  0  0  0  0  0  0  0  0  0  0  0
    4.0219    0.5260    0.7861 C   0  0  0  0  0  0  0  0  0  0  0  0
    5.3812    0.5945    1.0652 C   0  0  0  0  0  0  0  0  0  0  0  0
    6.3512    0.5649    0.0385 C   0  0  0  0  0  0  0  0  0  0  0  0
    7.7730    0.6237    0.4225 C   0  0  0  0  0  0  0  0  0  0  0  0
    8.9784   -1.6241   -2.3617 C   0  0  0  0  0  0  0  0  0  0  0  0
    8.8949   -0.5946   -3.0944 N   0  0  0  0  0  0  0  0  0  0  0  0
   10.1171    0.0616   -3.5223 C   0  0  0  0  0  0  0  0  0  0  0  0
   10.0194    1.6026   -3.4906 C   0  0  2  0  0  0  0  0  0  0  0  0
   11.1908    2.2410   -4.2216 C   0  0  0  0  0  0  0  0  0  0  0  0
   10.9883    2.9455   -5.4189 C   0  0  0  0  0  0  0  0  0  0  0  0
   12.0584    3.5293   -6.1034 C   0  0  0  0  0  0  0  0  0  0  0  0
   13.3570    3.4183   -5.5996 C   0  0  0  0  0  0  0  0  0  0  0  0
   13.5752    2.7206   -4.4079 C   0  0  0  0  0  0  0  0  0  0  0  0
   12.5025    2.1393   -3.7265 C   0  0  0  0  0  0  0  0  0  0  0  0
    9.8763    2.1830   -2.0647 C   0  0  0  0  0  0  0  0  0  0  0  0
    8.6915    1.7199   -1.3806 N   0  0  0  0  0  0  0  0  0  0  0  0
    8.7909    1.1156   -0.2130 N   0  0  0  0  0  0  0  0  0  0  0  0
    5.8945    0.4201   -1.2931 C   0  0  0  0  0  0  0  0  0  0  0  0
    4.5337    0.3457   -1.5803 C   0  0  0  0  0  0  0  0  0  0  0  0
    3.2898    0.5627    1.5952 H   0  0  0  0  0  0  0  0  0  0  0  0
    5.7114    0.6834    2.1035 H   0  0  0  0  0  0  0  0  0  0  0  0
    8.0168    0.2307    1.4163 H   0  0  0  0  0  0  0  0  0  0  0  0
    8.0627   -2.1490   -2.0533 H   0  0  0  0  0  0  0  0  0  0  0  0
    9.9395   -2.0389   -1.9964 H   0  0  0  0  0  0  0  0  0  0  0  0
   10.2857   -0.2284   -4.5744 H   0  0  0  0  0  0  0  0  0  0  0  0
   11.0028   -0.2829   -2.9486 H   0  0  0  0  0  0  0  0  0  0  0  0
    9.1010    1.8639   -4.0447 H   0  0  0  0  0  0  0  0  0  0  0  0
    9.9753    3.0377   -5.8216 H   0  0  0  0  0  0  0  0  0  0  0  0
   11.8753    4.0732   -7.0337 H   0  0  0  0  0  0  0  0  0  0  0  0
   14.1955    3.8740   -6.1323 H   0  0  0  0  0  0  0  0  0  0  0  0
   14.5871    2.6288   -4.0044 H   0  0  0  0  0  0  0  0  0  0  0  0
   12.6954    1.5993   -2.7954 H   0  0  0  0  0  0  0  0  0  0  0  0
    9.8818    3.2870   -2.1372 H   0  0  0  0  0  0  0  0  0  0  0  0
   10.7276    1.8950   -1.4311 H   0  0  0  0  0  0  0  0  0  0  0  0
    7.7870    1.8522   -1.8291 H   0  0  0  0  0  0  0  0  0  0  0  0
    6.6081    0.3032   -2.1126 H   0  0  0  0  0  0  0  0  0  0  0  0
    4.2002    0.2241   -2.6129 H   0  0  0  0  0  0  0  0  0  0  0  0
  1  2  3  0
  2  3  1  0
  3  4  2  0
  3 22  1  0
  4  5  1  0
  4 23  1  0
  5  6  2  0
  5 24  1  0
  6  7  1  0
  6 21  1  0
  7 20  2  0
  7 25  1  0
  8  9  2  0
  8 26  1  0
  8 27  1  0
  9 10  1  0
 10 11  1  0
 10 28  1  0
 10 29  1  0
 11 12  1  0
 11 18  1  0
 11 30  1  6
 12 13  2  0
 12 17  1  0
 13 14  1  0
 13 31  1  0
 14 15  2  0
 14 32  1  0
 15 16  1  0
 15 33  1  0
 16 17  2  0
 16 34  1  0
 17 35  1  0
 18 19  1  0
 18 36  1  0
 18 37  1  0
 19 20  1  0
 19 38  1  0
 21 22  2  0
 21 39  1  0
 22 40  1  0
M  END

