
     RDKit          3D

 25 26  0  0  0  0  0  0  0  0999 V2000
    1.9320    1.0993    1.0556 C   0  0  0  0  0  0  0  0  0  0  0  0
    2.8694    0.2597    0.2611 C   0  0  0  0  0  0  0  0  0  0  0  0
    3.7067    0.9201   -0.5816 O   0  0  0  0  0  0  0  0  0  0  0  0
    4.5100    0.0081   -1.1874 C   0  0  0  0  0  0  0  0  0  0  0  0
    4.2100   -1.2436   -0.7449 C   0  0  0  0  0  0  0  0  0  0  0  0
    3.1324   -1.0920    0.2023 C   0  0  0  0  0  0  0  0  0  0  0  0
    2.4892   -2.2284    0.9270 C   0  0  1  0  0  0  0  0  0  0  0  0
    2.6310   -1.9552    2.9479 Br  0  0  0  0  0  0  0  0  0  0  0  0
    1.0627   -2.5924    0.5751 C   0  0  0  0  0  0  0  0  0  0  0  0
    0.2727   -1.8110   -0.2794 C   0  0  0  0  0  0  0  0  0  0  0  0
   -1.0287   -2.1962   -0.6164 C   0  0  0  0  0  0  0  0  0  0  0  0
   -1.5500   -3.3820   -0.0991 C   0  0  0  0  0  0  0  0  0  0  0  0
   -3.1748   -3.8732   -0.5150 Cl  0  0  0  0  0  0  0  0  0  0  0  0
   -0.7786   -4.1863    0.7487 C   0  0  0  0  0  0  0  0  0  0  0  0
    0.5142   -3.7879    1.0763 C   0  0  0  0  0  0  0  0  0  0  0  0
    2.4875    1.8210    1.6776 H   0  0  0  0  0  0  0  0  0  0  0  0
    1.3228    0.4745    1.7199 H   0  0  0  0  0  0  0  0  0  0  0  0
    1.2615    1.6793    0.3992 H   0  0  0  0  0  0  0  0  0  0  0  0
    5.2344    0.3996   -1.8965 H   0  0  0  0  0  0  0  0  0  0  0  0
    4.6853   -2.1747   -1.0478 H   0  0  0  0  0  0  0  0  0  0  0  0
    3.1187   -3.1182    0.8088 H   0  0  0  0  0  0  0  0  0  0  0  0
    0.6799   -0.8947   -0.7076 H   0  0  0  0  0  0  0  0  0  0  0  0
   -1.6346   -1.5810   -1.2836 H   0  0  0  0  0  0  0  0  0  0  0  0
   -1.1947   -5.1141    1.1444 H   0  0  0  0  0  0  0  0  0  0  0  0
    1.1076   -4.4103    1.7508 H   0  0  0  0  0  0  0  0  0  0  0  0
  1  2  1  0
  1 16  1  0
  1 17  1  0
  1 18  1  0
  2  3  1  0
  2  6  2  0
  3  4  1  0
  4  5  2  0
  4 19  1  0
  5  6  1  0
  5 20  1  0
  6  7  1  0
  7  8  1  0
  7  9  1  0
  7 21  1  1
  9 10  2  0
  9 15  1  0
 10 11  1  0
 10 22  1  0
 11 12  2  0
 11 23  1  0
 12 13  1  0
 12 14  1  0
 14 15  2  0
 14 24  1  0
 15 25  1  0
M  END

