
     RDKit          3D

 47 48  0  0  0  0  0  0  0  0999 V2000
    5.2140    5.8639    3.7559 C   0  0  0  0  0  0  0  0  0  0  0  0
    4.7795    5.8989    2.2853 C   0  0  1  0  0  0  0  0  0  0  0  0
    5.2485    7.1914    1.6059 C   0  0  0  0  0  0  0  0  0  0  0  0
    5.2691    4.6362    1.5538 C   0  0  0  0  0  0  0  0  0  0  0  0
    4.7226    4.4472    0.1208 C   0  0  2  0  0  0  0  0  0  0  0  0
    5.0420    5.3016   -0.4965 H   0  0  0  0  0  0  0  0  0  0  0  0
    3.2669    4.4187    0.1362 N   0  0  0  0  0  0  0  0  0  0  0  0
    5.3081    3.1416   -0.4600 C   0  0  0  0  0  0  0  0  0  0  0  0
    4.6913    2.0880   -0.3517 O   0  0  0  0  0  0  0  0  0  0  0  0
    6.5411    3.1840   -1.0457 N   0  0  0  0  0  0  0  0  0  0  0  0
    7.3694    4.3692   -1.3171 C   0  0  0  0  0  0  0  0  0  0  0  0
    8.5252    3.8116   -2.1620 C   0  0  0  0  0  0  0  0  0  0  0  0
    8.6363    2.3413   -1.7090 C   0  0  1  0  0  0  0  0  0  0  0  0
    9.1562    1.7331   -2.4622 H   0  0  0  0  0  0  0  0  0  0  0  0
    9.3487    2.1904   -0.4462 N   0  0  0  0  0  0  0  0  0  0  0  0
   10.7150    2.2414   -0.3870 C   0  0  0  0  0  0  0  0  0  0  0  0
   11.3946    2.4316   -1.3862 O   0  0  0  0  0  0  0  0  0  0  0  0
   11.3361    2.0573    0.9738 C   0  0  0  0  0  0  0  0  0  0  0  0
   10.6788    1.4428    2.0522 C   0  0  0  0  0  0  0  0  0  0  0  0
   11.3233    1.2968    3.2833 C   0  0  0  0  0  0  0  0  0  0  0  0
   12.6314    1.7618    3.4482 C   0  0  0  0  0  0  0  0  0  0  0  0
   13.2976    2.3628    2.3743 C   0  0  0  0  0  0  0  0  0  0  0  0
   12.6565    2.5025    1.1433 C   0  0  0  0  0  0  0  0  0  0  0  0
    7.1669    1.9501   -1.5376 C   0  0  0  0  0  0  0  0  0  0  0  0
    4.8288    6.7371    4.3072 H   0  0  0  0  0  0  0  0  0  0  0  0
    6.3145    5.8733    3.8491 H   0  0  0  0  0  0  0  0  0  0  0  0
    4.8456    4.9581    4.2646 H   0  0  0  0  0  0  0  0  0  0  0  0
    3.6778    5.8778    2.2448 H   0  0  0  0  0  0  0  0  0  0  0  0
    6.3512    7.2457    1.5652 H   0  0  0  0  0  0  0  0  0  0  0  0
    4.8959    8.0770    2.1589 H   0  0  0  0  0  0  0  0  0  0  0  0
    4.8661    7.2802    0.5769 H   0  0  0  0  0  0  0  0  0  0  0  0
    4.9741    3.7443    2.1352 H   0  0  0  0  0  0  0  0  0  0  0  0
    6.3746    4.6317    1.5291 H   0  0  0  0  0  0  0  0  0  0  0  0
    2.9822    3.4946    0.4721 H   0  0  0  0  0  0  0  0  0  0  0  0
    2.9117    4.4686   -0.8192 H   0  0  0  0  0  0  0  0  0  0  0  0
    7.7388    4.8197   -0.3790 H   0  0  0  0  0  0  0  0  0  0  0  0
    6.8050    5.1483   -1.8536 H   0  0  0  0  0  0  0  0  0  0  0  0
    9.4693    4.3572   -2.0358 H   0  0  0  0  0  0  0  0  0  0  0  0
    8.2630    3.8359   -3.2322 H   0  0  0  0  0  0  0  0  0  0  0  0
    8.8128    2.1824    0.4127 H   0  0  0  0  0  0  0  0  0  0  0  0
    9.6683    1.0431    1.9333 H   0  0  0  0  0  0  0  0  0  0  0  0
   10.8050    0.8100    4.1132 H   0  0  0  0  0  0  0  0  0  0  0  0
   13.1344    1.6487    4.4120 H   0  0  0  0  0  0  0  0  0  0  0  0
   14.3231    2.7200    2.4978 H   0  0  0  0  0  0  0  0  0  0  0  0
   13.1610    2.9544    0.2871 H   0  0  0  0  0  0  0  0  0  0  0  0
    7.0037    1.1252   -0.8291 H   0  0  0  0  0  0  0  0  0  0  0  0
    6.7282    1.6377   -2.5019 H   0  0  0  0  0  0  0  0  0  0  0  0
  1  2  1  0
  1 25  1  0
  1 26  1  0
  1 27  1  0
  2  3  1  0
  2  4  1  0
  2 28  1  1
  3 29  1  0
  3 30  1  0
  3 31  1  0
  4  5  1  0
  4 32  1  0
  4 33  1  0
  5  6  1  6
  5  7  1  0
  5  8  1  0
  7 34  1  0
  7 35  1  0
  8  9  2  0
  8 10  1  0
 10 11  1  0
 10 24  1  0
 11 12  1  0
 11 36  1  0
 11 37  1  0
 12 13  1  0
 12 38  1  0
 12 39  1  0
 13 14  1  6
 13 15  1  0
 13 24  1  0
 15 16  1  0
 15 40  1  0
 16 17  2  0
 16 18  1  0
 18 19  2  0
 18 23  1  0
 19 20  1  0
 19 41  1  0
 20 21  2  0
 20 42  1  0
 21 22  1  0
 21 43  1  0
 22 23  2  0
 22 44  1  0
 23 45  1  0
 24 46  1  0
 24 47  1  0
M  END

