
     RDKit          3D

 32 34  0  0  0  0  0  0  0  0999 V2000
    1.9691   -0.0290   -2.0609 C   0  0  0  0  0  0  0  0  0  0  0  0
    3.2056   -0.2690   -1.2521 C   0  0  0  0  0  0  0  0  0  0  0  0
    4.1626    0.6524   -1.1815 N   0  0  0  0  0  0  0  0  0  0  0  0
    5.1093    0.1591   -0.3599 N   0  0  0  0  0  0  0  0  0  0  0  0
    6.3322    0.9006   -0.1316 C   0  0  0  0  0  0  0  0  0  0  0  0
    4.7643   -1.0765    0.0892 C   0  0  0  0  0  0  0  0  0  0  0  0
    5.7658   -1.9837    1.1634 Cl  0  0  0  0  0  0  0  0  0  0  0  0
    3.5331   -1.4097   -0.4591 C   0  0  0  0  0  0  0  0  0  0  0  0
    2.7660   -2.6803   -0.2489 C   0  0  0  0  0  0  0  0  0  0  0  0
    1.4497   -2.4801    0.3665 N   0  0  0  0  0  0  0  0  0  0  0  0
    1.2716   -1.8412    1.5759 C   0  0  0  0  0  0  0  0  0  0  0  0
   -0.0637   -1.9746    1.8829 C   0  0  0  0  0  0  0  0  0  0  0  0
   -0.7068   -2.6700    0.9035 N   0  0  0  0  0  0  0  0  0  0  0  0
    0.2115   -2.9747   -0.0038 C   0  0  0  0  0  0  0  0  0  0  0  0
   -0.1262   -3.7667   -1.1866 C   0  0  0  0  0  0  0  0  0  0  0  0
   -1.2709   -4.5339   -1.2910 C   0  0  0  0  0  0  0  0  0  0  0  0
   -1.4243   -5.1576   -2.5609 C   0  0  0  0  0  0  0  0  0  0  0  0
   -0.4026   -4.8634   -3.4278 C   0  0  0  0  0  0  0  0  0  0  0  0
    0.7584   -3.8082   -2.6989 S   0  0  0  0  0  0  0  0  0  0  0  0
    2.0862    0.8942   -2.6452 H   0  0  0  0  0  0  0  0  0  0  0  0
    1.0821    0.0790   -1.4151 H   0  0  0  0  0  0  0  0  0  0  0  0
    1.7655   -0.8617   -2.7528 H   0  0  0  0  0  0  0  0  0  0  0  0
    6.0888    1.9704   -0.1478 H   0  0  0  0  0  0  0  0  0  0  0  0
    7.0787    0.6906   -0.9153 H   0  0  0  0  0  0  0  0  0  0  0  0
    6.7528    0.6299    0.8454 H   0  0  0  0  0  0  0  0  0  0  0  0
    3.3573   -3.3550    0.3912 H   0  0  0  0  0  0  0  0  0  0  0  0
    2.6176   -3.2079   -1.1997 H   0  0  0  0  0  0  0  0  0  0  0  0
    2.0981   -1.3548    2.0872 H   0  0  0  0  0  0  0  0  0  0  0  0
   -0.5899   -1.5924    2.7573 H   0  0  0  0  0  0  0  0  0  0  0  0
   -1.9698   -4.6222   -0.4598 H   0  0  0  0  0  0  0  0  0  0  0  0
   -2.2617   -5.8069   -2.8218 H   0  0  0  0  0  0  0  0  0  0  0  0
   -0.2549   -5.2080   -4.4502 H   0  0  0  0  0  0  0  0  0  0  0  0
  1  2  1  0
  1 20  1  0
  1 21  1  0
  1 22  1  0
  2  3  2  0
  2  8  1  0
  3  4  1  0
  4  5  1  0
  4  6  1  0
  5 23  1  0
  5 24  1  0
  5 25  1  0
  6  7  1  0
  6  8  2  0
  8  9  1  0
  9 10  1  0
  9 26  1  0
  9 27  1  0
 10 11  1  0
 10 14  1  0
 11 12  2  0
 11 28  1  0
 12 13  1  0
 12 29  1  0
 13 14  2  0
 14 15  1  0
 15 16  2  0
 15 19  1  0
 16 17  1  0
 16 30  1  0
 17 18  2  0
 17 31  1  0
 18 19  1  0
 18 32  1  0
M  END

