
     RDKit          3D

 44 45  0  0  0  0  0  0  0  0999 V2000
    5.7372    1.5826  -10.4685 C   0  0  0  0  0  0  0  0  0  0  0  0
    5.0579    0.5331   -9.6086 C   0  0  0  0  0  0  0  0  0  0  0  0
    5.7965    0.3736   -8.4119 O   0  0  0  0  0  0  0  0  0  0  0  0
    5.2680   -0.5454   -7.4695 C   0  0  1  0  0  0  0  0  0  0  0  0
    5.6142   -1.9974   -7.7953 C   0  0  0  0  0  0  0  0  0  0  0  0
    5.7696   -0.1782   -6.0602 C   0  0  0  0  0  0  0  0  0  0  0  0
    5.5349   -0.9093   -5.1071 O   0  0  0  0  0  0  0  0  0  0  0  0
    6.4431    0.9933   -5.9794 N   0  0  0  0  0  0  0  0  0  0  0  0
    7.0073    1.4878   -4.7306 C   0  0  0  0  0  0  0  0  0  0  0  0
    8.4471    1.0871   -4.4953 C   0  0  0  0  0  0  0  0  0  0  0  0
    8.8071   -0.2374   -4.1853 C   0  0  0  0  0  0  0  0  0  0  0  0
   10.1376   -0.5741   -3.9847 C   0  0  0  0  0  0  0  0  0  0  0  0
   11.1289    0.4368   -4.1085 C   0  0  0  0  0  0  0  0  0  0  0  0
   12.4844    0.1773   -3.9723 N   0  0  0  0  0  0  0  0  0  0  0  0
   12.9890   -1.1159   -3.5401 C   0  0  0  0  0  0  0  0  0  0  0  0
   14.3968   -1.3467   -4.0945 C   0  0  0  0  0  0  0  0  0  0  0  0
   15.2704   -0.2853   -3.7867 O   0  0  0  0  0  0  0  0  0  0  0  0
   14.7887    0.9377   -4.3112 C   0  0  0  0  0  0  0  0  0  0  0  0
   13.4148    1.2821   -3.7512 C   0  0  0  0  0  0  0  0  0  0  0  0
   10.7807    1.7035   -4.3799 N   0  0  0  0  0  0  0  0  0  0  0  0
    9.4971    2.0054   -4.5672 C   0  0  0  0  0  0  0  0  0  0  0  0
    5.1861    1.7229  -11.4114 H   0  0  0  0  0  0  0  0  0  0  0  0
    6.7673    1.2780  -10.7100 H   0  0  0  0  0  0  0  0  0  0  0  0
    5.7786    2.5506   -9.9447 H   0  0  0  0  0  0  0  0  0  0  0  0
    4.9957   -0.4264  -10.1579 H   0  0  0  0  0  0  0  0  0  0  0  0
    4.0170    0.8361   -9.3717 H   0  0  0  0  0  0  0  0  0  0  0  0
    4.1645   -0.4358   -7.4244 H   0  0  0  0  0  0  0  0  0  0  0  0
    6.7056   -2.1125   -7.8875 H   0  0  0  0  0  0  0  0  0  0  0  0
    5.1464   -2.3220   -8.7370 H   0  0  0  0  0  0  0  0  0  0  0  0
    5.2590   -2.6457   -6.9826 H   0  0  0  0  0  0  0  0  0  0  0  0
    6.6526    1.4521   -6.8601 H   0  0  0  0  0  0  0  0  0  0  0  0
    6.3709    1.0933   -3.9244 H   0  0  0  0  0  0  0  0  0  0  0  0
    6.9213    2.5862   -4.7209 H   0  0  0  0  0  0  0  0  0  0  0  0
    8.0274   -0.9988   -4.0946 H   0  0  0  0  0  0  0  0  0  0  0  0
   10.3955   -1.5992   -3.7227 H   0  0  0  0  0  0  0  0  0  0  0  0
   12.3420   -1.9220   -3.9109 H   0  0  0  0  0  0  0  0  0  0  0  0
   13.0118   -1.1852   -2.4319 H   0  0  0  0  0  0  0  0  0  0  0  0
   14.3322   -1.4840   -5.1945 H   0  0  0  0  0  0  0  0  0  0  0  0
   14.8268   -2.2610   -3.6573 H   0  0  0  0  0  0  0  0  0  0  0  0
   14.7367    0.8832   -5.4185 H   0  0  0  0  0  0  0  0  0  0  0  0
   15.5175    1.7152   -4.0366 H   0  0  0  0  0  0  0  0  0  0  0  0
   13.0061    2.1800   -4.2292 H   0  0  0  0  0  0  0  0  0  0  0  0
   13.5082    1.4896   -2.6647 H   0  0  0  0  0  0  0  0  0  0  0  0
    9.2815    3.0610   -4.7840 H   0  0  0  0  0  0  0  0  0  0  0  0
  1  2  1  0
  1 22  1  0
  1 23  1  0
  1 24  1  0
  2  3  1  0
  2 25  1  0
  2 26  1  0
  3  4  1  0
  4  5  1  0
  4  6  1  0
  4 27  1  1
  5 28  1  0
  5 29  1  0
  5 30  1  0
  6  7  2  0
  6  8  1  0
  8  9  1  0
  8 31  1  0
  9 10  1  0
  9 32  1  0
  9 33  1  0
 10 11  2  0
 10 21  1  0
 11 12  1  0
 11 34  1  0
 12 13  2  0
 12 35  1  0
 13 14  1  0
 13 20  1  0
 14 15  1  0
 14 19  1  0
 15 16  1  0
 15 36  1  0
 15 37  1  0
 16 17  1  0
 16 38  1  0
 16 39  1  0
 17 18  1  0
 18 19  1  0
 18 40  1  0
 18 41  1  0
 19 42  1  0
 19 43  1  0
 20 21  2  0
 21 44  1  0
M  END

