
     RDKit          3D

 60 63  0  0  0  0  0  0  0  0999 V2000
    1.1978   -2.2721    4.5590 C   0  0  0  0  0  0  0  0  0  0  0  0
    1.6648   -1.3600    5.5311 O   0  0  0  0  0  0  0  0  0  0  0  0
    2.5957   -0.4350    5.1809 C   0  0  0  0  0  0  0  0  0  0  0  0
    3.2083   -0.3621    3.9239 C   0  0  0  0  0  0  0  0  0  0  0  0
    4.1969    0.5906    3.6500 C   0  0  0  0  0  0  0  0  0  0  0  0
    4.6080    1.5235    4.6121 C   0  0  0  0  0  0  0  0  0  0  0  0
    5.7224    2.5504    4.3358 C   0  0  1  0  0  0  0  0  0  0  0  0
    5.9852    2.7693    2.8279 C   0  0  0  0  0  0  0  0  0  0  0  0
    4.8178    3.4102    2.0491 C   0  0  0  0  0  0  0  0  0  0  0  0
    4.0011    4.4197    2.9000 C   0  0  1  0  0  0  0  0  0  0  0  0
    3.6285    5.2147    2.2400 H   0  0  0  0  0  0  0  0  0  0  0  0
    2.8075    3.8358    3.5080 N   0  0  0  0  0  0  0  0  0  0  0  0
    1.6331    3.7083    2.8057 C   0  0  0  0  0  0  0  0  0  0  0  0
    1.3771    4.2948    1.7790 O   0  0  0  0  0  0  0  0  0  0  0  0
    0.7530    2.8000    3.4440 N   0  0  0  0  0  0  0  0  0  0  0  0
   -0.5636    2.5573    3.1078 C   0  0  0  0  0  0  0  0  0  0  0  0
   -1.3690    3.3522    2.4834 N   0  0  0  0  0  0  0  0  0  0  0  0
   -2.6201    2.7929    2.3239 C   0  0  0  0  0  0  0  0  0  0  0  0
   -3.6792    3.5812    1.6140 C   0  0  0  0  0  0  0  0  0  0  0  0
   -2.7772    1.5421    2.8594 C   0  0  0  0  0  0  0  0  0  0  0  0
   -1.2847    1.0013    3.5795 S   0  0  0  0  0  0  0  0  0  0  0  0
    4.9036    5.0251    3.9807 C   0  0  0  0  0  0  0  0  0  0  0  0
    5.4503    3.9724    4.9715 C   0  0  2  0  0  0  0  0  0  0  0  0
    4.7099    3.8620    5.7928 H   0  0  0  0  0  0  0  0  0  0  0  0
    6.7439    4.3641    5.5317 N   0  0  0  0  0  0  0  0  0  0  0  0
    6.7230    5.5107    6.4118 C   0  0  0  0  0  0  0  0  0  0  0  0
    7.3146    3.1618    6.1132 C   0  0  0  0  0  0  0  0  0  0  0  0
    7.0471    2.0946    5.0506 C   0  0  0  0  0  0  0  0  0  0  0  0
    3.9821    1.4403    5.8717 C   0  0  0  0  0  0  0  0  0  0  0  0
    2.9917    0.4981    6.1738 C   0  0  0  0  0  0  0  0  0  0  0  0
    2.5114    0.5012    7.4452 O   0  0  0  0  0  0  0  0  0  0  0  0
    1.1164    0.3804    7.6909 C   0  0  0  0  0  0  0  0  0  0  0  0
    0.4469   -2.8995    5.0574 H   0  0  0  0  0  0  0  0  0  0  0  0
    2.0096   -2.9188    4.1815 H   0  0  0  0  0  0  0  0  0  0  0  0
    0.7234   -1.7529    3.7075 H   0  0  0  0  0  0  0  0  0  0  0  0
    2.9282   -1.0666    3.1407 H   0  0  0  0  0  0  0  0  0  0  0  0
    4.6417    0.5864    2.6556 H   0  0  0  0  0  0  0  0  0  0  0  0
    6.3055    1.8309    2.3472 H   0  0  0  0  0  0  0  0  0  0  0  0
    6.8590    3.4374    2.7729 H   0  0  0  0  0  0  0  0  0  0  0  0
    4.1293    2.6540    1.6441 H   0  0  0  0  0  0  0  0  0  0  0  0
    5.2327    3.9387    1.1750 H   0  0  0  0  0  0  0  0  0  0  0  0
    2.9442    3.2381    4.3150 H   0  0  0  0  0  0  0  0  0  0  0  0
    1.1681    2.1493    4.1025 H   0  0  0  0  0  0  0  0  0  0  0  0
   -3.3578    3.8152    0.5860 H   0  0  0  0  0  0  0  0  0  0  0  0
   -3.8481    4.5444    2.1226 H   0  0  0  0  0  0  0  0  0  0  0  0
   -4.6309    3.0329    1.5701 H   0  0  0  0  0  0  0  0  0  0  0  0
   -3.6695    0.9200    2.8828 H   0  0  0  0  0  0  0  0  0  0  0  0
    4.3571    5.8125    4.5223 H   0  0  0  0  0  0  0  0  0  0  0  0
    5.7614    5.5053    3.4838 H   0  0  0  0  0  0  0  0  0  0  0  0
    6.3486    6.4020    5.8860 H   0  0  0  0  0  0  0  0  0  0  0  0
    7.7444    5.7358    6.7577 H   0  0  0  0  0  0  0  0  0  0  0  0
    6.0865    5.3559    7.3152 H   0  0  0  0  0  0  0  0  0  0  0  0
    6.8220    2.8913    7.0776 H   0  0  0  0  0  0  0  0  0  0  0  0
    8.3871    3.3009    6.3293 H   0  0  0  0  0  0  0  0  0  0  0  0
    6.9595    1.0880    5.4817 H   0  0  0  0  0  0  0  0  0  0  0  0
    7.8713    2.0717    4.3215 H   0  0  0  0  0  0  0  0  0  0  0  0
    4.2507    2.1107    6.6892 H   0  0  0  0  0  0  0  0  0  0  0  0
    0.9437    0.7965    8.6939 H   0  0  0  0  0  0  0  0  0  0  0  0
    0.7822   -0.6665    7.6635 H   0  0  0  0  0  0  0  0  0  0  0  0
    0.5251    0.9590    6.9591 H   0  0  0  0  0  0  0  0  0  0  0  0
  1  2  1  0
  1 33  1  0
  1 34  1  0
  1 35  1  0
  2  3  1  0
  3  4  2  0
  3 30  1  0
  4  5  1  0
  4 36  1  0
  5  6  2  0
  5 37  1  0
  7  6  1  6
  6 29  1  0
  7  8  1  0
  7 23  1  0
  7 28  1  0
  8  9  1  0
  8 38  1  0
  8 39  1  0
  9 10  1  0
  9 40  1  0
  9 41  1  0
 10 11  1  6
 10 12  1  0
 10 22  1  0
 12 13  1  0
 12 42  1  0
 13 14  2  0
 13 15  1  0
 15 16  1  0
 15 43  1  0
 16 17  2  0
 16 21  1  0
 17 18  1  0
 18 19  1  0
 18 20  2  0
 19 44  1  0
 19 45  1  0
 19 46  1  0
 20 21  1  0
 20 47  1  0
 22 23  1  0
 22 48  1  0
 22 49  1  0
 23 24  1  1
 23 25  1  0
 25 26  1  0
 25 27  1  0
 26 50  1  0
 26 51  1  0
 26 52  1  0
 27 28  1  0
 27 53  1  0
 27 54  1  0
 28 55  1  0
 28 56  1  0
 29 30  2  0
 29 57  1  0
 30 31  1  0
 31 32  1  0
 32 58  1  0
 32 59  1  0
 32 60  1  0
M  END

