
     RDKit          3D

 45 49  0  0  0  0  0  0  0  0999 V2000
    1.0309    0.2218    0.9331 O   0  0  0  0  0  0  0  0  0  0  0  0
    2.1820    0.1372    0.5377 C   0  0  0  0  0  0  0  0  0  0  0  0
    3.0225    1.3800    0.2673 C   0  0  0  0  0  0  0  0  0  0  0  0
    4.5174    1.1456    0.4879 C   0  0  0  0  0  0  0  0  0  0  0  0
    5.0033   -0.0708   -0.3049 C   0  0  0  0  0  0  0  0  0  0  0  0
    4.1143   -1.2694   -0.0876 C   0  0  0  0  0  0  0  0  0  0  0  0
    2.8026   -1.1748    0.2699 C   0  0  0  0  0  0  0  0  0  0  0  0
    1.9144   -2.4023    0.4027 C   0  0  1  0  0  0  0  0  0  0  0  0
    0.8882   -2.4784   -0.7345 C   0  0  0  0  0  0  0  0  0  0  0  0
    1.3108   -2.5740   -2.0708 C   0  0  0  0  0  0  0  0  0  0  0  0
    0.3896   -2.6436   -3.1142 C   0  0  0  0  0  0  0  0  0  0  0  0
   -0.9710   -2.6172   -2.8052 C   0  0  0  0  0  0  0  0  0  0  0  0
   -1.9557   -2.6885   -3.9027 N   0  0  0  0  0  0  0  0  0  0  0  0
   -1.5264   -2.7650   -5.0441 O   0  0  0  0  0  0  0  0  0  0  0  0
   -3.1393   -2.6660   -3.6051 O   0  0  0  0  0  0  0  0  0  0  0  0
   -1.4238   -2.5250   -1.4882 C   0  0  0  0  0  0  0  0  0  0  0  0
   -0.4867   -2.4562   -0.4589 C   0  0  0  0  0  0  0  0  0  0  0  0
    2.7585   -3.6623    0.4658 C   0  0  0  0  0  0  0  0  0  0  0  0
    4.0752   -3.6836    0.0849 C   0  0  0  0  0  0  0  0  0  0  0  0
    4.8272   -4.9318    0.0851 C   0  0  0  0  0  0  0  0  0  0  0  0
    6.1668   -5.0713   -0.3330 C   0  0  0  0  0  0  0  0  0  0  0  0
    6.8028   -6.3071   -0.3017 C   0  0  0  0  0  0  0  0  0  0  0  0
    6.1073   -7.4391    0.1522 C   0  0  0  0  0  0  0  0  0  0  0  0
    4.7845   -7.3311    0.5678 C   0  0  0  0  0  0  0  0  0  0  0  0
    4.1467   -6.0841    0.5332 C   0  0  0  0  0  0  0  0  0  0  0  0
    2.8612   -6.0358    0.9507 O   0  0  0  0  0  0  0  0  0  0  0  0
    2.1018   -4.8691    0.9525 C   0  0  0  0  0  0  0  0  0  0  0  0
    0.9705   -4.9363    1.3586 O   0  0  0  0  0  0  0  0  0  0  0  0
    4.7044   -2.5071   -0.2801 N   0  0  0  0  0  0  0  0  0  0  0  0
    2.6293    2.1946    0.8929 H   0  0  0  0  0  0  0  0  0  0  0  0
    2.8350    1.6706   -0.7840 H   0  0  0  0  0  0  0  0  0  0  0  0
    4.7069    0.9736    1.5612 H   0  0  0  0  0  0  0  0  0  0  0  0
    5.0980    2.0364    0.2013 H   0  0  0  0  0  0  0  0  0  0  0  0
    6.0421   -0.3230   -0.0283 H   0  0  0  0  0  0  0  0  0  0  0  0
    5.0212    0.1634   -1.3866 H   0  0  0  0  0  0  0  0  0  0  0  0
    1.3372   -2.3163    1.3350 H   0  0  0  0  0  0  0  0  0  0  0  0
    2.3787   -2.5952   -2.3029 H   0  0  0  0  0  0  0  0  0  0  0  0
    0.6993   -2.7180   -4.1561 H   0  0  0  0  0  0  0  0  0  0  0  0
   -2.4954   -2.5084   -1.2918 H   0  0  0  0  0  0  0  0  0  0  0  0
   -0.8228   -2.3830    0.5765 H   0  0  0  0  0  0  0  0  0  0  0  0
    6.7255   -4.2069   -0.7009 H   0  0  0  0  0  0  0  0  0  0  0  0
    7.8397   -6.3950   -0.6324 H   0  0  0  0  0  0  0  0  0  0  0  0
    6.6042   -8.4116    0.1786 H   0  0  0  0  0  0  0  0  0  0  0  0
    4.2179   -8.1930    0.9239 H   0  0  0  0  0  0  0  0  0  0  0  0
    5.6967   -2.5305   -0.4721 H   0  0  0  0  0  0  0  0  0  0  0  0
  1  2  2  0
  2  3  1  0
  2  7  1  0
  3  4  1  0
  3 30  1  0
  3 31  1  0
  4  5  1  0
  4 32  1  0
  4 33  1  0
  5  6  1  0
  5 34  1  0
  5 35  1  0
  6  7  2  0
  6 29  1  0
  7  8  1  0
  8  9  1  0
  8 18  1  0
  8 36  1  1
  9 10  2  0
  9 17  1  0
 10 11  1  0
 10 37  1  0
 11 12  2  0
 11 38  1  0
 12 13  1  0
 12 16  1  0
 13 14  2  0
 13 15  1  0
 16 17  2  0
 16 39  1  0
 17 40  1  0
 18 19  2  0
 18 27  1  0
 19 20  1  0
 19 29  1  0
 20 21  2  0
 20 25  1  0
 21 22  1  0
 21 41  1  0
 22 23  2  0
 22 42  1  0
 23 24  1  0
 23 43  1  0
 24 25  2  0
 24 44  1  0
 25 26  1  0
 26 27  1  0
 27 28  2  0
 29 45  1  0
M  CHG  2  13   1  15  -1
M  END

