
     RDKit          3D

 31 33  0  0  0  0  0  0  0  0999 V2000
   -1.7806    0.9018    0.1372 C   0  0  0  0  0  0  0  0  0  0  0  0
   -1.9073   -0.3211   -0.4748 C   0  0  0  0  0  0  0  0  0  0  0  0
   -3.5462   -0.7982   -1.0056 S   0  0  0  0  0  0  0  0  0  0  0  0
   -3.2604   -1.4649   -2.6409 C   0  0  0  0  0  0  0  0  0  0  0  0
   -3.9981   -2.5926   -3.0355 C   0  0  0  0  0  0  0  0  0  0  0  0
   -3.8616   -3.1036   -4.3290 C   0  0  0  0  0  0  0  0  0  0  0  0
   -2.9762   -2.5096   -5.2335 C   0  0  0  0  0  0  0  0  0  0  0  0
   -2.2365   -1.3893   -4.8399 C   0  0  0  0  0  0  0  0  0  0  0  0
   -2.3842   -0.8591   -3.5558 C   0  0  0  0  0  0  0  0  0  0  0  0
   -0.8051   -1.4724   -0.3777 C   0  0  1  0  0  0  0  0  0  0  0  0
    0.5632   -1.4916   -1.2384 C   0  0  0  0  0  0  0  0  0  0  0  0
    1.5731   -0.4543   -0.5231 C   0  0  0  0  0  0  0  0  0  0  0  0
    0.4339    0.2126    0.2968 C   0  0  2  0  0  0  0  0  0  0  0  0
   -0.4289    1.4127    0.7389 C   0  0  0  0  0  0  0  0  0  0  0  0
   -0.1754   -1.0640    0.9383 C   0  0  0  0  0  0  0  0  0  0  0  0
   -2.6544    1.5599    0.1834 H   0  0  0  0  0  0  0  0  0  0  0  0
   -4.6728   -3.0715   -2.3217 H   0  0  0  0  0  0  0  0  0  0  0  0
   -4.4426   -3.9808   -4.6259 H   0  0  0  0  0  0  0  0  0  0  0  0
   -2.8630   -2.9171   -6.2411 H   0  0  0  0  0  0  0  0  0  0  0  0
   -1.5473   -0.9138   -5.5430 H   0  0  0  0  0  0  0  0  0  0  0  0
   -1.8276    0.0335   -3.2619 H   0  0  0  0  0  0  0  0  0  0  0  0
   -1.3126   -2.4479   -0.4474 H   0  0  0  0  0  0  0  0  0  0  0  0
    0.4055   -1.2120   -2.2912 H   0  0  0  0  0  0  0  0  0  0  0  0
    0.9471   -2.5249   -1.2290 H   0  0  0  0  0  0  0  0  0  0  0  0
    2.0462    0.2085   -1.2628 H   0  0  0  0  0  0  0  0  0  0  0  0
    2.3638   -0.9578    0.0578 H   0  0  0  0  0  0  0  0  0  0  0  0
   -0.0606    0.3098   -0.6660 H   0  0  0  0  0  0  0  0  0  0  0  0
   -0.1616    2.3693    0.2563 H   0  0  0  0  0  0  0  0  0  0  0  0
   -0.5048    1.6012    1.8252 H   0  0  0  0  0  0  0  0  0  0  0  0
   -0.8891   -0.8866    1.7534 H   0  0  0  0  0  0  0  0  0  0  0  0
    0.6058   -1.7545    1.2982 H   0  0  0  0  0  0  0  0  0  0  0  0
  1  2  2  0
  1 14  1  0
  1 16  1  0
  2  3  1  0
  2 10  1  0
  3  4  1  0
  4  5  2  0
  4  9  1  0
  5  6  1  0
  5 17  1  0
  6  7  2  0
  6 18  1  0
  7  8  1  0
  7 19  1  0
  8  9  2  0
  8 20  1  0
  9 21  1  0
 10 11  1  0
 10 15  1  0
 10 22  1  1
 11 12  1  0
 11 23  1  0
 11 24  1  0
 12 13  1  0
 12 25  1  0
 12 26  1  0
 13 14  1  0
 13 15  1  0
 13 27  1  1
 14 28  1  0
 14 29  1  0
 15 30  1  0
 15 31  1  0
M  END

