
     RDKit          3D

 27 28  0  0  0  0  0  0  0  0999 V2000
    3.0455    1.3418    0.5833 N   0  0  0  0  0  0  0  0  0  0  0  0
    2.5250    0.1082    0.0286 C   0  0  1  0  0  0  0  0  0  0  0  0
    2.7523    0.1057   -1.4896 C   0  0  0  0  0  0  0  0  0  0  0  0
    4.2071    0.1006   -1.9290 C   0  0  0  0  0  0  0  0  0  0  0  0
    5.1278    0.1688   -1.1351 O   0  0  0  0  0  0  0  0  0  0  0  0
    4.5063    0.0133   -3.4001 C   0  0  0  0  0  0  0  0  0  0  0  0
    3.5411   -0.0304   -4.4164 C   0  0  0  0  0  0  0  0  0  0  0  0
    3.8667   -0.1037   -5.7082 N   0  0  0  0  0  0  0  0  0  0  0  0
    5.1698   -0.1339   -5.9922 C   0  0  0  0  0  0  0  0  0  0  0  0
    6.1799   -0.0959   -5.1171 N   0  0  0  0  0  0  0  0  0  0  0  0
    5.8439   -0.0215   -3.8313 C   0  0  0  0  0  0  0  0  0  0  0  0
    2.8742   -1.2784    0.6864 C   0  0  0  0  0  0  0  0  0  0  0  0
    1.3760   -1.6639    0.6214 C   0  0  0  0  0  0  0  0  0  0  0  0
    1.0314   -0.1746    0.3677 C   0  0  0  0  0  0  0  0  0  0  0  0
    4.0597    1.3629    0.4693 H   0  0  0  0  0  0  0  0  0  0  0  0
    2.8605    1.3811    1.5856 H   0  0  0  0  0  0  0  0  0  0  0  0
    2.2733    1.0048   -1.9183 H   0  0  0  0  0  0  0  0  0  0  0  0
    2.2495   -0.7604   -1.9542 H   0  0  0  0  0  0  0  0  0  0  0  0
    2.4699   -0.0022   -4.1880 H   0  0  0  0  0  0  0  0  0  0  0  0
    5.4408   -0.1964   -7.0533 H   0  0  0  0  0  0  0  0  0  0  0  0
    6.6482    0.0131   -3.0888 H   0  0  0  0  0  0  0  0  0  0  0  0
    3.2214   -1.1309    1.7208 H   0  0  0  0  0  0  0  0  0  0  0  0
    3.6009   -1.9245    0.1700 H   0  0  0  0  0  0  0  0  0  0  0  0
    0.9391   -2.1267    1.5188 H   0  0  0  0  0  0  0  0  0  0  0  0
    1.1385   -2.3086   -0.2393 H   0  0  0  0  0  0  0  0  0  0  0  0
    0.7394    0.3480    1.2923 H   0  0  0  0  0  0  0  0  0  0  0  0
    0.2858    0.0640   -0.4080 H   0  0  0  0  0  0  0  0  0  0  0  0
  2  1  1  1
  1 15  1  0
  1 16  1  0
  2  3  1  0
  2 12  1  0
  2 14  1  0
  3  4  1  0
  3 17  1  0
  3 18  1  0
  4  5  2  0
  4  6  1  0
  6  7  2  0
  6 11  1  0
  7  8  1  0
  7 19  1  0
  8  9  2  0
  9 10  1  0
  9 20  1  0
 10 11  2  0
 11 21  1  0
 12 13  1  0
 12 22  1  0
 12 23  1  0
 13 14  1  0
 13 24  1  0
 13 25  1  0
 14 26  1  0
 14 27  1  0
M  END

