
     RDKit          3D

 35 37  0  0  0  0  0  0  0  0999 V2000
    1.2128    0.4036    0.5140 C   0  0  0  0  0  0  0  0  0  0  0  0
    2.6716    0.1084    0.3207 C   0  0  0  0  0  0  0  0  0  0  0  0
    3.5045    1.1144    0.4192 N   0  0  0  0  0  0  0  0  0  0  0  0
    5.1087    0.6397    0.2468 S   0  0  0  0  0  0  0  0  0  0  0  0
    4.7006   -1.0412    0.0452 C   0  0  0  0  0  0  0  0  0  0  0  0
    5.5873   -2.1327   -0.0747 C   0  0  0  0  0  0  0  0  0  0  0  0
    6.9196   -1.9837   -0.1263 O   0  0  0  0  0  0  0  0  0  0  0  0
    4.9851   -3.4022   -0.1226 C   0  0  0  0  0  0  0  0  0  0  0  0
    5.7899   -4.6842   -0.1407 C   0  0  0  0  0  0  0  0  0  0  0  0
    6.9950   -4.7292    0.0423 O   0  0  0  0  0  0  0  0  0  0  0  0
    5.0183   -5.7881   -0.3721 N   0  0  0  0  0  0  0  0  0  0  0  0
    5.5286   -7.1113   -0.1797 C   0  0  0  0  0  0  0  0  0  0  0  0
    4.6253   -7.9270    0.7450 C   0  0  0  0  0  0  0  0  0  0  0  0
    3.5574   -7.5490    1.1399 O   0  0  0  0  0  0  0  0  0  0  0  0
    5.0929   -9.1511    1.0649 O   0  0  0  0  0  0  0  0  0  0  0  0
    3.6490   -3.5421   -0.1361 N   0  0  0  0  0  0  0  0  0  0  0  0
    2.7986   -2.5270   -0.0718 C   0  0  0  0  0  0  0  0  0  0  0  0
    1.3659   -2.9214   -0.1964 C   0  0  0  0  0  0  0  0  0  0  0  0
    0.9171   -4.1442    0.3530 C   0  0  0  0  0  0  0  0  0  0  0  0
   -0.3353   -4.5647    0.1994 N   0  0  0  0  0  0  0  0  0  0  0  0
   -1.1562   -3.7836   -0.5077 C   0  0  0  0  0  0  0  0  0  0  0  0
   -0.7216   -2.5717   -1.0507 C   0  0  0  0  0  0  0  0  0  0  0  0
    0.5321   -2.1436   -0.8953 N   0  0  0  0  0  0  0  0  0  0  0  0
    3.2951   -1.1947    0.0760 C   0  0  0  0  0  0  0  0  0  0  0  0
    1.1056    1.4409    0.8563 H   0  0  0  0  0  0  0  0  0  0  0  0
    0.7666   -0.2725    1.2591 H   0  0  0  0  0  0  0  0  0  0  0  0
    0.6608    0.2570   -0.4238 H   0  0  0  0  0  0  0  0  0  0  0  0
    7.1615   -1.0475   -0.1129 H   0  0  0  0  0  0  0  0  0  0  0  0
    4.0107   -5.6473   -0.3623 H   0  0  0  0  0  0  0  0  0  0  0  0
    6.5477   -7.0286    0.2369 H   0  0  0  0  0  0  0  0  0  0  0  0
    5.6218   -7.6712   -1.1329 H   0  0  0  0  0  0  0  0  0  0  0  0
    5.9770   -9.2911    0.6946 H   0  0  0  0  0  0  0  0  0  0  0  0
    1.6016   -4.7805    0.9219 H   0  0  0  0  0  0  0  0  0  0  0  0
   -2.1877   -4.1260   -0.6480 H   0  0  0  0  0  0  0  0  0  0  0  0
   -1.4036   -1.9363   -1.6272 H   0  0  0  0  0  0  0  0  0  0  0  0
  1  2  1  0
  1 25  1  0
  1 26  1  0
  1 27  1  0
  2  3  1  0
  2 24  2  0
  3  4  2  0
  4  5  1  0
  5  6  2  0
  5 24  1  0
  6  7  1  0
  6  8  1  0
  7 28  1  0
  8  9  2  0
  8 16  1  0
  9 10  1  0
  9 11  1  0
 11 12  1  0
 11 29  1  0
 12 13  1  0
 12 30  1  0
 12 31  1  0
 13 14  2  0
 13 15  1  0
 15 32  1  0
 16 17  2  0
 17 18  1  0
 17 24  1  0
 18 19  2  0
 18 23  1  0
 19 20  1  0
 19 33  1  0
 20 21  2  0
 21 22  1  0
 21 34  1  0
 22 23  2  0
 22 35  1  0
M  CHG  2   4   1  10  -1
M  END

