
     RDKit          3D

 34 35  0  0  0  0  0  0  0  0999 V2000
    0.3616   -2.2312    0.2484 N   0  0  0  0  0  0  0  0  0  0  0  0
    0.9319   -0.8998    0.4057 C   0  0  1  0  0  0  0  0  0  0  0  0
    1.0816   -0.4990    1.8962 C   0  0  0  0  0  0  0  0  0  0  0  0
    1.0877   -1.3545    2.7682 O   0  0  0  0  0  0  0  0  0  0  0  0
    1.2281    0.8252    2.2031 N   0  0  0  0  0  0  0  0  0  0  0  0
    1.1778    1.9823    1.3246 C   0  0  0  0  0  0  0  0  0  0  0  0
    2.1072    3.0888    1.7888 C   0  0  0  0  0  0  0  0  0  0  0  0
    3.4545    2.8181    2.0804 C   0  0  0  0  0  0  0  0  0  0  0  0
    4.3098    3.8464    2.4820 C   0  0  0  0  0  0  0  0  0  0  0  0
    3.8425    5.1594    2.5997 C   0  0  0  0  0  0  0  0  0  0  0  0
    2.5056    5.4128    2.3079 C   0  0  0  0  0  0  0  0  0  0  0  0
    2.0359    6.6641    2.4195 F   0  0  0  0  0  0  0  0  0  0  0  0
    1.6331    4.4012    1.9091 C   0  0  0  0  0  0  0  0  0  0  0  0
    2.2773   -0.8191   -0.3121 C   0  0  0  0  0  0  0  0  0  0  0  0
    2.3452   -0.3819   -1.6436 C   0  0  0  0  0  0  0  0  0  0  0  0
    3.5647   -0.3518   -2.3252 C   0  0  0  0  0  0  0  0  0  0  0  0
    4.7363   -0.7669   -1.6846 C   0  0  0  0  0  0  0  0  0  0  0  0
    4.6791   -1.2123   -0.3609 C   0  0  0  0  0  0  0  0  0  0  0  0
    3.4585   -1.2375    0.3210 C   0  0  0  0  0  0  0  0  0  0  0  0
   -0.5590   -2.2520    0.6914 H   0  0  0  0  0  0  0  0  0  0  0  0
    0.9228   -2.8835    0.8001 H   0  0  0  0  0  0  0  0  0  0  0  0
    0.2454   -0.1890   -0.0836 H   0  0  0  0  0  0  0  0  0  0  0  0
    1.2929    1.0049    3.2022 H   0  0  0  0  0  0  0  0  0  0  0  0
    0.1506    2.3844    1.2439 H   0  0  0  0  0  0  0  0  0  0  0  0
    1.4798    1.6708    0.3132 H   0  0  0  0  0  0  0  0  0  0  0  0
    3.8300    1.7965    1.9893 H   0  0  0  0  0  0  0  0  0  0  0  0
    5.3569    3.6268    2.7045 H   0  0  0  0  0  0  0  0  0  0  0  0
    4.4907    5.9799    2.9128 H   0  0  0  0  0  0  0  0  0  0  0  0
    0.5911    4.6537    1.6994 H   0  0  0  0  0  0  0  0  0  0  0  0
    1.4293   -0.0703   -2.1540 H   0  0  0  0  0  0  0  0  0  0  0  0
    3.5996   -0.0060   -3.3616 H   0  0  0  0  0  0  0  0  0  0  0  0
    5.6909   -0.7445   -2.2165 H   0  0  0  0  0  0  0  0  0  0  0  0
    5.5896   -1.5435    0.1455 H   0  0  0  0  0  0  0  0  0  0  0  0
    3.4208   -1.5918    1.3548 H   0  0  0  0  0  0  0  0  0  0  0  0
  1  2  1  0
  1 20  1  0
  1 21  1  0
  2  3  1  0
  2 14  1  0
  2 22  1  6
  3  4  2  0
  3  5  1  0
  5  6  1  0
  5 23  1  0
  6  7  1  0
  6 24  1  0
  6 25  1  0
  7  8  2  0
  7 13  1  0
  8  9  1  0
  8 26  1  0
  9 10  2  0
  9 27  1  0
 10 11  1  0
 10 28  1  0
 11 12  1  0
 11 13  2  0
 13 29  1  0
 14 15  2  0
 14 19  1  0
 15 16  1  0
 15 30  1  0
 16 17  2  0
 16 31  1  0
 17 18  1  0
 17 32  1  0
 18 19  2  0
 18 33  1  0
 19 34  1  0
M  END

