
     RDKit          3D

 29 31  0  0  0  0  0  0  0  0999 V2000
    6.7967    2.1590   -3.3169 C   0  0  0  0  0  0  0  0  0  0  0  0
    6.3250    0.9166   -2.6244 C   0  0  0  0  0  0  0  0  0  0  0  0
    5.6258   -0.1434   -3.1499 C   0  0  0  0  0  0  0  0  0  0  0  0
    5.3325   -1.1641   -2.1970 C   0  0  0  0  0  0  0  0  0  0  0  0
    5.8080   -0.8858   -0.9355 C   0  0  0  0  0  0  0  0  0  0  0  0
    5.7529   -1.7187    0.3010 C   0  0  1  0  0  0  0  0  0  0  0  0
    4.6709   -0.7559    1.7499 Br  0  0  0  0  0  0  0  0  0  0  0  0
    5.2339   -3.1217    0.1202 C   0  0  0  0  0  0  0  0  0  0  0  0
    3.8925   -3.3759   -0.2167 C   0  0  0  0  0  0  0  0  0  0  0  0
    3.4187   -4.6779   -0.4173 C   0  0  0  0  0  0  0  0  0  0  0  0
    4.3171   -5.7318   -0.2727 C   0  0  0  0  0  0  0  0  0  0  0  0
    4.1815   -7.1067   -0.3914 N   0  0  0  0  0  0  0  0  0  0  0  0
    3.3403   -7.6182   -0.6230 H   0  0  0  0  0  0  0  0  0  0  0  0
    5.3892   -7.7620   -0.1358 C   0  0  0  0  0  0  0  0  0  0  0  0
    5.6080   -8.9516   -0.1561 O   0  0  0  0  0  0  0  0  0  0  0  0
    6.2850   -6.7284    0.1474 N   0  0  0  0  0  0  0  0  0  0  0  0
    7.2528   -6.9145    0.3745 H   0  0  0  0  0  0  0  0  0  0  0  0
    5.6665   -5.4879    0.0732 C   0  0  0  0  0  0  0  0  0  0  0  0
    6.1338   -4.1940    0.2747 C   0  0  0  0  0  0  0  0  0  0  0  0
    6.6283    0.6611   -0.9264 S   0  0  0  0  0  0  0  0  0  0  0  0
    6.5072    2.1294   -4.3777 H   0  0  0  0  0  0  0  0  0  0  0  0
    7.8932    2.2665   -3.2682 H   0  0  0  0  0  0  0  0  0  0  0  0
    6.3593    3.0684   -2.8719 H   0  0  0  0  0  0  0  0  0  0  0  0
    5.3281   -0.1920   -4.1992 H   0  0  0  0  0  0  0  0  0  0  0  0
    4.8019   -2.0843   -2.4398 H   0  0  0  0  0  0  0  0  0  0  0  0
    6.7376   -1.7475    0.7818 H   0  0  0  0  0  0  0  0  0  0  0  0
    3.1992   -2.5369   -0.2985 H   0  0  0  0  0  0  0  0  0  0  0  0
    2.3717   -4.8578   -0.6704 H   0  0  0  0  0  0  0  0  0  0  0  0
    7.1766   -4.0114    0.5445 H   0  0  0  0  0  0  0  0  0  0  0  0
  1  2  1  0
  1 21  1  0
  1 22  1  0
  1 23  1  0
  2  3  2  0
  2 20  1  0
  3  4  1  0
  3 24  1  0
  4  5  2  0
  4 25  1  0
  5  6  1  0
  5 20  1  0
  6  7  1  0
  6  8  1  0
  6 26  1  1
  8  9  2  0
  8 19  1  0
  9 10  1  0
  9 27  1  0
 10 11  2  0
 10 28  1  0
 11 12  1  0
 11 18  1  0
 12 13  1  0
 12 14  1  0
 14 15  2  0
 14 16  1  0
 16 17  1  0
 16 18  1  0
 18 19  2  0
 19 29  1  0
M  END

