
     RDKit          3D

 32 32  0  0  0  0  0  0  0  0999 V2000
    5.1302    1.1033    2.6287 C   0  0  0  0  0  0  0  0  0  0  0  0
    4.6831    0.5280    1.3744 N   0  0  0  0  0  0  0  0  0  0  0  0
    4.8749    1.3908    0.2220 C   0  0  0  0  0  0  0  0  0  0  0  0
    4.5327    0.6950   -1.1038 C   0  0  1  0  0  0  0  0  0  0  0  0
    3.0431    0.3500   -1.2190 C   0  0  0  0  0  0  0  0  0  0  0  0
    4.9679    1.5442   -2.3087 C   0  0  0  0  0  0  0  0  0  0  0  0
    6.4067    1.7331   -2.3628 N   0  0  0  0  0  0  0  0  0  0  0  0
    7.0219    2.8452   -2.8731 C   0  0  0  0  0  0  0  0  0  0  0  0
    8.4353    2.8905   -3.0093 C   0  0  0  0  0  0  0  0  0  0  0  0
    9.0076    4.0451   -3.5043 C   0  0  0  0  0  0  0  0  0  0  0  0
   10.4908    4.2092   -3.6950 C   0  0  0  0  0  0  0  0  0  0  0  0
    8.1092    5.0916   -3.8289 C   0  0  0  0  0  0  0  0  0  0  0  0
    6.7972    4.9957   -3.6835 N   0  0  0  0  0  0  0  0  0  0  0  0
    6.2456    3.8851   -3.2183 N   0  0  0  0  0  0  0  0  0  0  0  0
    4.9180    0.4103    3.4584 H   0  0  0  0  0  0  0  0  0  0  0  0
    4.6691    2.0857    2.8796 H   0  0  0  0  0  0  0  0  0  0  0  0
    6.2224    1.2595    2.6031 H   0  0  0  0  0  0  0  0  0  0  0  0
    3.7027    0.2634    1.4533 H   0  0  0  0  0  0  0  0  0  0  0  0
    5.9370    1.6880    0.1963 H   0  0  0  0  0  0  0  0  0  0  0  0
    4.2974    2.3447    0.2847 H   0  0  0  0  0  0  0  0  0  0  0  0
    5.1021   -0.2546   -1.1210 H   0  0  0  0  0  0  0  0  0  0  0  0
    2.4205    1.2595   -1.1634 H   0  0  0  0  0  0  0  0  0  0  0  0
    2.7199   -0.3341   -0.4189 H   0  0  0  0  0  0  0  0  0  0  0  0
    2.8202   -0.1476   -2.1766 H   0  0  0  0  0  0  0  0  0  0  0  0
    4.5106    2.5435   -2.2724 H   0  0  0  0  0  0  0  0  0  0  0  0
    4.5993    1.0690   -3.2395 H   0  0  0  0  0  0  0  0  0  0  0  0
    6.9827    0.9071   -2.2534 H   0  0  0  0  0  0  0  0  0  0  0  0
    9.0476    2.0295   -2.7234 H   0  0  0  0  0  0  0  0  0  0  0  0
   11.0429    3.3081   -3.3903 H   0  0  0  0  0  0  0  0  0  0  0  0
   10.8716    5.0602   -3.1065 H   0  0  0  0  0  0  0  0  0  0  0  0
   10.7310    4.4179   -4.7507 H   0  0  0  0  0  0  0  0  0  0  0  0
    8.4763    6.0447   -4.2249 H   0  0  0  0  0  0  0  0  0  0  0  0
  1  2  1  0
  1 15  1  0
  1 16  1  0
  1 17  1  0
  2  3  1  0
  2 18  1  0
  3  4  1  0
  3 19  1  0
  3 20  1  0
  4  5  1  0
  4  6  1  0
  4 21  1  1
  5 22  1  0
  5 23  1  0
  5 24  1  0
  6  7  1  0
  6 25  1  0
  6 26  1  0
  7  8  1  0
  7 27  1  0
  8  9  2  0
  8 14  1  0
  9 10  1  0
  9 28  1  0
 10 11  1  0
 10 12  2  0
 11 29  1  0
 11 30  1  0
 11 31  1  0
 12 13  1  0
 12 32  1  0
 13 14  2  0
M  END

