
     RDKit          3D

 42 43  0  0  0  0  0  0  0  0999 V2000
   -0.1305   -2.1371    2.5940 C   0  0  0  0  0  0  0  0  0  0  0  0
    0.7772   -1.8110    1.5568 O   0  0  0  0  0  0  0  0  0  0  0  0
    1.3008   -0.5549    1.4991 C   0  0  0  0  0  0  0  0  0  0  0  0
    0.9768    0.4886    2.3672 C   0  0  0  0  0  0  0  0  0  0  0  0
    1.5796    1.7450    2.2235 C   0  0  0  0  0  0  0  0  0  0  0  0
    2.5065    1.9432    1.2041 C   0  0  0  0  0  0  0  0  0  0  0  0
    3.2680    3.5096    1.0181 Cl  0  0  0  0  0  0  0  0  0  0  0  0
    2.8471    0.9149    0.3182 C   0  0  0  0  0  0  0  0  0  0  0  0
    2.2438   -0.3394    0.4594 C   0  0  0  0  0  0  0  0  0  0  0  0
    2.5075   -1.4371   -0.3753 N   0  0  0  0  0  0  0  0  0  0  0  0
    3.4050   -1.5233   -1.3979 C   0  0  0  0  0  0  0  0  0  0  0  0
    4.1496   -0.6369   -1.7753 O   0  0  0  0  0  0  0  0  0  0  0  0
    3.4500   -2.8658   -2.1236 C   0  0  0  0  0  0  0  0  0  0  0  0
    2.5655   -3.8310   -1.5430 O   0  0  0  0  0  0  0  0  0  0  0  0
    2.2335   -4.8909   -2.3164 C   0  0  0  0  0  0  0  0  0  0  0  0
    2.6297   -5.0319   -3.4480 O   0  0  0  0  0  0  0  0  0  0  0  0
    1.3334   -5.8574   -1.6264 C   0  0  0  0  0  0  0  0  0  0  0  0
    0.8681   -6.9650   -2.3575 C   0  0  0  0  0  0  0  0  0  0  0  0
    0.0275   -7.9037   -1.7793 C   0  0  0  0  0  0  0  0  0  0  0  0
   -0.4009   -7.7984   -0.4343 C   0  0  0  0  0  0  0  0  0  0  0  0
   -1.4731   -8.9913    0.2995 S   0  0  0  0  0  0  0  0  0  0  0  0
   -1.7319  -10.1834   -1.0553 C   0  0  0  0  0  0  0  0  0  0  0  0
    0.0896   -6.6729    0.2839 C   0  0  0  0  0  0  0  0  0  0  0  0
   -0.2737   -6.4446    1.6861 N   0  0  0  0  0  0  0  0  0  0  0  0
   -1.0456   -7.2382    2.2052 O   0  0  0  0  0  0  0  0  0  0  0  0
    0.2082   -5.4787    2.2627 O   0  0  0  0  0  0  0  0  0  0  0  0
    0.9372   -5.7263   -0.2972 C   0  0  0  0  0  0  0  0  0  0  0  0
   -0.3564   -3.2047    2.4894 H   0  0  0  0  0  0  0  0  0  0  0  0
   -1.0604   -1.5466    2.5136 H   0  0  0  0  0  0  0  0  0  0  0  0
    0.3190   -1.9650    3.5874 H   0  0  0  0  0  0  0  0  0  0  0  0
    0.2522    0.3362    3.1669 H   0  0  0  0  0  0  0  0  0  0  0  0
    1.3271    2.5600    2.9029 H   0  0  0  0  0  0  0  0  0  0  0  0
    3.5739    1.0716   -0.4745 H   0  0  0  0  0  0  0  0  0  0  0  0
    1.9590   -2.2668   -0.1705 H   0  0  0  0  0  0  0  0  0  0  0  0
    4.4870   -3.2368   -2.0921 H   0  0  0  0  0  0  0  0  0  0  0  0
    3.1954   -2.7030   -3.1813 H   0  0  0  0  0  0  0  0  0  0  0  0
    1.1828   -7.0719   -3.3975 H   0  0  0  0  0  0  0  0  0  0  0  0
   -0.3059   -8.7404   -2.3891 H   0  0  0  0  0  0  0  0  0  0  0  0
   -2.3932  -10.9435   -0.6153 H   0  0  0  0  0  0  0  0  0  0  0  0
   -0.7977  -10.6705   -1.3702 H   0  0  0  0  0  0  0  0  0  0  0  0
   -2.2417   -9.7334   -1.9196 H   0  0  0  0  0  0  0  0  0  0  0  0
    1.2753   -4.8962    0.3201 H   0  0  0  0  0  0  0  0  0  0  0  0
  1  2  1  0
  1 28  1  0
  1 29  1  0
  1 30  1  0
  2  3  1  0
  3  4  2  0
  3  9  1  0
  4  5  1  0
  4 31  1  0
  5  6  2  0
  5 32  1  0
  6  7  1  0
  6  8  1  0
  8  9  2  0
  8 33  1  0
  9 10  1  0
 10 11  1  0
 10 34  1  0
 11 12  2  0
 11 13  1  0
 13 14  1  0
 13 35  1  0
 13 36  1  0
 14 15  1  0
 15 16  2  0
 15 17  1  0
 17 18  1  0
 17 27  2  0
 18 19  2  0
 18 37  1  0
 19 20  1  0
 19 38  1  0
 20 21  2  0
 20 23  1  0
 21 22  1  0
 22 39  1  0
 22 40  1  0
 22 41  1  0
 23 24  2  0
 23 27  1  0
 24 25  1  0
 24 26  1  0
 27 42  1  0
M  CHG  4  21   1  24   1  25  -1  26  -1
M  END

