
     RDKit          3D

 53 57  0  0  0  0  0  0  0  0999 V2000
   -5.0541   -5.0724    2.5429 C   0  0  0  0  0  0  0  0  0  0  0  0
   -4.8668   -4.1145    1.3561 C   0  0  1  0  0  0  0  0  0  0  0  0
   -4.4135   -2.6939    1.7840 C   0  0  0  0  0  0  0  0  0  0  0  0
   -3.2659   -2.3303    1.5833 O   0  0  0  0  0  0  0  0  0  0  0  0
   -5.3375   -1.8962    2.4098 N   0  0  0  0  0  0  0  0  0  0  0  0
   -6.7815   -2.1193    2.4765 C   0  0  0  0  0  0  0  0  0  0  0  0
   -7.3092   -1.7908    3.8856 C   0  0  0  0  0  0  0  0  0  0  0  0
   -6.9339   -0.4627    4.3519 N   0  0  0  0  0  0  0  0  0  0  0  0
   -7.7477    0.6507    3.8744 C   0  0  0  0  0  0  0  0  0  0  0  0
   -9.1611    0.6358    4.4234 C   0  0  1  0  0  0  0  0  0  0  0  0
  -10.2015    1.5469    3.8241 C   0  0  0  0  0  0  0  0  0  0  0  0
  -10.3156    0.0568    3.6369 C   0  0  0  0  0  0  0  0  0  0  0  0
   -5.4906   -0.2790    4.2532 C   0  0  0  0  0  0  0  0  0  0  0  0
   -4.9254   -0.5623    2.8541 C   0  0  0  0  0  0  0  0  0  0  0  0
   -3.9153   -4.6147    0.3716 N   0  0  0  0  0  0  0  0  0  0  0  0
   -4.1769   -4.4781   -0.9910 C   0  0  0  0  0  0  0  0  0  0  0  0
   -5.2118   -4.0538   -1.4523 O   0  0  0  0  0  0  0  0  0  0  0  0
   -2.9608   -4.9554   -1.7705 C   0  0  2  0  0  0  0  0  0  0  0  0
   -3.2000   -6.3072   -2.4956 C   0  0  1  0  0  0  0  0  0  0  0  0
   -1.9717   -6.6369   -3.3723 C   0  0  0  0  0  0  0  0  0  0  0  0
   -0.9332   -7.0504   -2.2871 C   0  0  0  0  0  0  0  0  0  0  0  0
   -1.7675   -6.8811   -0.9984 C   0  0  2  0  0  0  0  0  0  0  0  0
   -3.0859   -7.2475   -1.4230 O   0  0  0  0  0  0  0  0  0  0  0  0
   -1.9385   -5.3715   -0.6892 C   0  0  2  0  0  0  0  0  0  0  0  0
   -2.6431   -5.1305    0.6433 C   0  0  0  0  0  0  0  0  0  0  0  0
   -2.1938   -5.3810    1.7342 O   0  0  0  0  0  0  0  0  0  0  0  0
   -5.8589   -4.7161    3.2013 H   0  0  0  0  0  0  0  0  0  0  0  0
   -4.1295   -5.1616    3.1250 H   0  0  0  0  0  0  0  0  0  0  0  0
   -5.3307   -6.0727    2.1761 H   0  0  0  0  0  0  0  0  0  0  0  0
   -5.8097   -4.0267    0.7956 H   0  0  0  0  0  0  0  0  0  0  0  0
   -7.0289   -3.1563    2.2234 H   0  0  0  0  0  0  0  0  0  0  0  0
   -7.2830   -1.4781    1.7254 H   0  0  0  0  0  0  0  0  0  0  0  0
   -6.8964   -2.5358    4.5905 H   0  0  0  0  0  0  0  0  0  0  0  0
   -8.4033   -1.8949    3.9050 H   0  0  0  0  0  0  0  0  0  0  0  0
   -7.8009    0.7311    2.7636 H   0  0  0  0  0  0  0  0  0  0  0  0
   -7.2506    1.5748    4.2162 H   0  0  0  0  0  0  0  0  0  0  0  0
   -9.1972    0.5002    5.5101 H   0  0  0  0  0  0  0  0  0  0  0  0
   -9.9139    2.1493    2.9563 H   0  0  0  0  0  0  0  0  0  0  0  0
  -10.9035    2.0455    4.4980 H   0  0  0  0  0  0  0  0  0  0  0  0
  -10.1076   -0.3447    2.6396 H   0  0  0  0  0  0  0  0  0  0  0  0
  -11.0986   -0.4808    4.1795 H   0  0  0  0  0  0  0  0  0  0  0  0
   -5.0031   -0.9664    4.9686 H   0  0  0  0  0  0  0  0  0  0  0  0
   -5.2312    0.7473    4.5585 H   0  0  0  0  0  0  0  0  0  0  0  0
   -3.8290   -0.5292    2.8451 H   0  0  0  0  0  0  0  0  0  0  0  0
   -5.2863    0.1945    2.1305 H   0  0  0  0  0  0  0  0  0  0  0  0
   -2.6409   -4.1564   -2.4542 H   0  0  0  0  0  0  0  0  0  0  0  0
   -4.1802   -6.3976   -2.9805 H   0  0  0  0  0  0  0  0  0  0  0  0
   -1.6491   -5.7830   -3.9859 H   0  0  0  0  0  0  0  0  0  0  0  0
   -2.2029   -7.4721   -4.0486 H   0  0  0  0  0  0  0  0  0  0  0  0
   -0.0273   -6.4266   -2.2873 H   0  0  0  0  0  0  0  0  0  0  0  0
   -0.6229   -8.0985   -2.4040 H   0  0  0  0  0  0  0  0  0  0  0  0
   -1.4612   -7.4885   -0.1377 H   0  0  0  0  0  0  0  0  0  0  0  0
   -0.9877   -4.8202   -0.6908 H   0  0  0  0  0  0  0  0  0  0  0  0
  1  2  1  0
  1 27  1  0
  1 28  1  0
  1 29  1  0
  2  3  1  0
  2 15  1  0
  2 30  1  6
  3  4  2  0
  3  5  1  0
  5  6  1  0
  5 14  1  0
  6  7  1  0
  6 31  1  0
  6 32  1  0
  7  8  1  0
  7 33  1  0
  7 34  1  0
  8  9  1  0
  8 13  1  0
  9 10  1  0
  9 35  1  0
  9 36  1  0
 10 11  1  0
 10 12  1  0
 10 37  1  1
 11 12  1  0
 11 38  1  0
 11 39  1  0
 12 40  1  0
 12 41  1  0
 13 14  1  0
 13 42  1  0
 13 43  1  0
 14 44  1  0
 14 45  1  0
 15 16  1  0
 15 25  1  0
 16 17  2  0
 16 18  1  0
 18 19  1  0
 18 24  1  0
 18 46  1  6
 19 20  1  0
 19 23  1  0
 19 47  1  6
 20 21  1  0
 20 48  1  0
 20 49  1  0
 21 22  1  0
 21 50  1  0
 21 51  1  0
 22 23  1  0
 22 24  1  0
 22 52  1  1
 24 25  1  0
 24 53  1  1
 25 26  2  0
M  END

