
     RDKit          3D

 41 44  0  0  0  0  0  0  0  0999 V2000
    3.2859    0.3416   -2.9203 C   0  0  0  0  0  0  0  0  0  0  0  0
    4.2709   -0.0296   -2.0956 C   0  0  0  0  0  0  0  0  0  0  0  0
    4.1524   -1.2665   -1.2788 C   0  0  0  0  0  0  0  0  0  0  0  0
    3.2137   -2.0215   -1.2757 O   0  0  0  0  0  0  0  0  0  0  0  0
    5.2752   -1.4195   -0.5202 O   0  0  0  0  0  0  0  0  0  0  0  0
    5.4697   -2.4775    0.3560 C   0  0  0  0  0  0  0  0  0  0  0  0
    6.1851   -2.1721    1.5177 C   0  0  0  0  0  0  0  0  0  0  0  0
    6.4723   -3.1904    2.4250 C   0  0  0  0  0  0  0  0  0  0  0  0
    6.0526   -4.5018    2.1813 C   0  0  0  0  0  0  0  0  0  0  0  0
    5.3392   -4.8040    1.0128 C   0  0  0  0  0  0  0  0  0  0  0  0
    4.8952   -6.2138    0.6695 C   0  0  1  0  0  0  0  0  0  0  0  0
    5.5855   -6.8413   -0.5611 C   0  0  0  0  0  0  0  0  0  0  0  0
    5.8524   -6.2581   -1.5805 O   0  0  0  0  0  0  0  0  0  0  0  0
    5.8699   -8.3255   -0.3139 C   0  0  2  0  0  0  0  0  0  0  0  0
    4.9666   -9.2896   -1.1345 C   0  0  1  0  0  0  0  0  0  0  0  0
    5.4904  -10.7266   -0.9019 C   0  0  0  0  0  0  0  0  0  0  0  0
    5.0794  -11.0211    0.5777 C   0  0  0  0  0  0  0  0  0  0  0  0
    4.3721   -9.7162    1.0139 C   0  0  2  0  0  0  0  0  0  0  0  0
    3.6693   -9.3043   -0.2975 C   0  0  0  0  0  0  0  0  0  0  0  0
    5.4654   -8.6191    1.1551 C   0  0  2  0  0  0  0  0  0  0  0  0
    4.9641   -7.2990    1.7511 C   0  0  0  0  0  0  0  0  0  0  0  0
    4.6619   -7.1575    2.9105 O   0  0  0  0  0  0  0  0  0  0  0  0
    5.0467   -3.7823    0.0944 C   0  0  0  0  0  0  0  0  0  0  0  0
    3.3581    1.2483   -3.5259 H   0  0  0  0  0  0  0  0  0  0  0  0
    2.3798   -0.2657   -3.0024 H   0  0  0  0  0  0  0  0  0  0  0  0
    5.1914    0.5486   -1.9850 H   0  0  0  0  0  0  0  0  0  0  0  0
    6.5032   -1.1423    1.6901 H   0  0  0  0  0  0  0  0  0  0  0  0
    7.0264   -2.9603    3.3383 H   0  0  0  0  0  0  0  0  0  0  0  0
    6.2636   -5.2793    2.9150 H   0  0  0  0  0  0  0  0  0  0  0  0
    3.8228   -6.1698    0.3877 H   0  0  0  0  0  0  0  0  0  0  0  0
    6.9335   -8.4946   -0.5444 H   0  0  0  0  0  0  0  0  0  0  0  0
    4.8775   -8.9999   -2.1907 H   0  0  0  0  0  0  0  0  0  0  0  0
    6.5754  -10.8031   -1.0701 H   0  0  0  0  0  0  0  0  0  0  0  0
    5.0047  -11.4274   -1.5984 H   0  0  0  0  0  0  0  0  0  0  0  0
    5.9384  -11.2611    1.2227 H   0  0  0  0  0  0  0  0  0  0  0  0
    4.3825  -11.8714    0.6368 H   0  0  0  0  0  0  0  0  0  0  0  0
    3.7431   -9.8138    1.9096 H   0  0  0  0  0  0  0  0  0  0  0  0
    3.1498   -8.3342   -0.2488 H   0  0  0  0  0  0  0  0  0  0  0  0
    2.9444  -10.0561   -0.6473 H   0  0  0  0  0  0  0  0  0  0  0  0
    6.2868   -8.9699    1.7994 H   0  0  0  0  0  0  0  0  0  0  0  0
    4.4994   -4.0063   -0.8172 H   0  0  0  0  0  0  0  0  0  0  0  0
  1  2  2  0
  1 24  1  0
  1 25  1  0
  2  3  1  0
  2 26  1  0
  3  4  2  0
  3  5  1  0
  5  6  1  0
  6  7  2  0
  6 23  1  0
  7  8  1  0
  7 27  1  0
  8  9  2  0
  8 28  1  0
  9 10  1  0
  9 29  1  0
 10 11  1  0
 10 23  2  0
 11 12  1  0
 11 21  1  0
 11 30  1  6
 12 13  2  0
 12 14  1  0
 14 15  1  0
 14 20  1  0
 14 31  1  1
 15 16  1  0
 15 19  1  0
 15 32  1  6
 16 17  1  0
 16 33  1  0
 16 34  1  0
 17 18  1  0
 17 35  1  0
 17 36  1  0
 18 19  1  0
 18 20  1  0
 18 37  1  1
 19 38  1  0
 19 39  1  0
 20 21  1  0
 20 40  1  1
 21 22  2  0
 23 41  1  0
M  END

