
     RDKit          3D

 47 49  0  0  0  0  0  0  0  0999 V2000
    2.3166    1.9307   -0.1736 C   0  0  0  0  0  0  0  0  0  0  0  0
    2.5293    0.4150   -0.1073 C   0  0  1  0  0  0  0  0  0  0  0  0
    1.2454   -0.3350    0.2988 C   0  0  0  0  0  0  0  0  0  0  0  0
    1.4857   -1.7307    0.6400 N   0  0  0  0  0  0  0  0  0  0  0  0
    1.9246   -1.9700    2.0168 C   0  0  0  0  0  0  0  0  0  0  0  0
    0.7502   -2.0626    2.9964 C   0  0  0  0  0  0  0  0  0  0  0  0
   -0.1866   -3.0373    2.5745 O   0  0  0  0  0  0  0  0  0  0  0  0
   -0.6903   -2.7655    1.2799 C   0  0  0  0  0  0  0  0  0  0  0  0
    0.4506   -2.6907    0.2609 C   0  0  0  0  0  0  0  0  0  0  0  0
    3.0423   -0.1193   -1.3747 N   0  0  0  0  0  0  0  0  0  0  0  0
    4.6979   -0.3085   -1.6298 S   0  0  1  0  0  0  0  0  0  0  0  0
    5.0915    0.5515   -2.7517 O   0  0  0  0  0  0  0  0  0  0  0  0
    5.3458   -0.1948   -0.3164 O   0  0  0  0  0  0  0  0  0  0  0  0
    4.8338   -2.0091   -2.1422 C   0  0  0  0  0  0  0  0  0  0  0  0
    5.3711   -2.2886   -3.3440 C   0  0  0  0  0  0  0  0  0  0  0  0
    5.6151   -3.6734   -3.7544 C   0  0  0  0  0  0  0  0  0  0  0  0
    6.4201   -3.9718   -4.8663 C   0  0  0  0  0  0  0  0  0  0  0  0
    6.6755   -5.2966   -5.2247 C   0  0  0  0  0  0  0  0  0  0  0  0
    6.1208   -6.3357   -4.4725 C   0  0  0  0  0  0  0  0  0  0  0  0
    5.3070   -6.0467   -3.3701 C   0  0  0  0  0  0  0  0  0  0  0  0
    5.0416   -4.7263   -2.9995 C   0  0  0  0  0  0  0  0  0  0  0  0
    4.0959   -4.3758   -1.8689 C   0  0  0  0  0  0  0  0  0  0  0  0
    4.4646   -3.0739   -1.1428 C   0  0  0  0  0  0  0  0  0  0  0  0
    1.9875    2.3321    0.7980 H   0  0  0  0  0  0  0  0  0  0  0  0
    1.5484    2.1949   -0.9216 H   0  0  0  0  0  0  0  0  0  0  0  0
    3.2531    2.4353   -0.4541 H   0  0  0  0  0  0  0  0  0  0  0  0
    3.3069    0.2042    0.6415 H   0  0  0  0  0  0  0  0  0  0  0  0
    0.5395   -0.2960   -0.5477 H   0  0  0  0  0  0  0  0  0  0  0  0
    0.7636    0.2357    1.1205 H   0  0  0  0  0  0  0  0  0  0  0  0
    2.6282   -1.1817    2.3282 H   0  0  0  0  0  0  0  0  0  0  0  0
    2.4795   -2.9252    2.0463 H   0  0  0  0  0  0  0  0  0  0  0  0
    0.2515   -1.0750    3.0975 H   0  0  0  0  0  0  0  0  0  0  0  0
    1.0982   -2.3638    3.9971 H   0  0  0  0  0  0  0  0  0  0  0  0
   -1.2655   -1.8144    1.2837 H   0  0  0  0  0  0  0  0  0  0  0  0
   -1.3895   -3.5796    1.0304 H   0  0  0  0  0  0  0  0  0  0  0  0
    0.0651   -2.4421   -0.7409 H   0  0  0  0  0  0  0  0  0  0  0  0
    0.9158   -3.6917    0.1942 H   0  0  0  0  0  0  0  0  0  0  0  0
    2.6185    0.2712   -2.2157 H   0  0  0  0  0  0  0  0  0  0  0  0
    5.6718   -1.4729   -4.0064 H   0  0  0  0  0  0  0  0  0  0  0  0
    6.8559   -3.1522   -5.4445 H   0  0  0  0  0  0  0  0  0  0  0  0
    7.3082   -5.5182   -6.0877 H   0  0  0  0  0  0  0  0  0  0  0  0
    6.3187   -7.3758   -4.7441 H   0  0  0  0  0  0  0  0  0  0  0  0
    4.8681   -6.8648   -2.7914 H   0  0  0  0  0  0  0  0  0  0  0  0
    4.0314   -5.2082   -1.1510 H   0  0  0  0  0  0  0  0  0  0  0  0
    3.0825   -4.2597   -2.2997 H   0  0  0  0  0  0  0  0  0  0  0  0
    5.3221   -3.2269   -0.4617 H   0  0  0  0  0  0  0  0  0  0  0  0
    3.6185   -2.7336   -0.5251 H   0  0  0  0  0  0  0  0  0  0  0  0
  1  2  1  0
  1 24  1  0
  1 25  1  0
  1 26  1  0
  2  3  1  0
  2 10  1  0
  2 27  1  1
  3  4  1  0
  3 28  1  0
  3 29  1  0
  4  5  1  0
  4  9  1  0
  5  6  1  0
  5 30  1  0
  5 31  1  0
  6  7  1  0
  6 32  1  0
  6 33  1  0
  7  8  1  0
  8  9  1  0
  8 34  1  0
  8 35  1  0
  9 36  1  0
  9 37  1  0
 11 10  1  1
 10 38  1  0
 11 12  2  0
 11 13  2  0
 11 14  1  0
 14 15  2  0
 14 23  1  0
 15 16  1  0
 15 39  1  0
 16 17  2  0
 16 21  1  0
 17 18  1  0
 17 40  1  0
 18 19  2  0
 18 41  1  0
 19 20  1  0
 19 42  1  0
 20 21  2  0
 20 43  1  0
 21 22  1  0
 22 23  1  0
 22 44  1  0
 22 45  1  0
 23 46  1  0
 23 47  1  0
M  END

