
     RDKit          3D

 38 40  0  0  0  0  0  0  0  0999 V2000
    3.9460   -1.9108    2.6364 O   0  0  0  0  0  0  0  0  0  0  0  0
    3.6118   -0.9848    1.8976 C   0  0  0  0  0  0  0  0  0  0  0  0
    4.2814    0.3222    1.9313 C   0  0  0  0  0  0  0  0  0  0  0  0
    3.9085    1.3272    1.0932 C   0  0  0  0  0  0  0  0  0  0  0  0
    2.8333    1.1598    0.1437 C   0  0  0  0  0  0  0  0  0  0  0  0
    2.1578   -0.0269    0.0533 C   0  0  0  0  0  0  0  0  0  0  0  0
    2.4992   -1.1265    0.9025 C   0  0  0  0  0  0  0  0  0  0  0  0
    1.8336   -2.3543    0.8496 C   0  0  0  0  0  0  0  0  0  0  0  0
    0.8268   -2.5747    0.0061 N   0  0  0  0  0  0  0  0  0  0  0  0
    0.2980   -3.7751   -0.2102 C   0  0  0  0  0  0  0  0  0  0  0  0
    0.8909   -5.0197    0.2172 C   0  0  0  0  0  0  0  0  0  0  0  0
    0.3217   -6.2224   -0.0967 C   0  0  0  0  0  0  0  0  0  0  0  0
   -0.8936   -6.2829   -0.8546 C   0  0  0  0  0  0  0  0  0  0  0  0
   -1.5050   -5.1396   -1.2884 C   0  0  0  0  0  0  0  0  0  0  0  0
   -0.9582   -3.8375   -0.9913 C   0  0  0  0  0  0  0  0  0  0  0  0
   -1.5280   -2.6841   -1.3273 N   0  0  0  0  0  0  0  0  0  0  0  0
   -2.5492   -2.5874   -2.1772 C   0  0  0  0  0  0  0  0  0  0  0  0
   -3.2458   -1.3899   -2.3613 C   0  0  0  0  0  0  0  0  0  0  0  0
   -2.9238   -0.1927   -1.6470 C   0  0  0  0  0  0  0  0  0  0  0  0
   -3.6298    0.9594   -1.8636 C   0  0  0  0  0  0  0  0  0  0  0  0
   -4.7177    0.9920   -2.8129 C   0  0  0  0  0  0  0  0  0  0  0  0
   -5.0736   -0.1106   -3.5263 C   0  0  0  0  0  0  0  0  0  0  0  0
   -4.3715   -1.3891   -3.3520 C   0  0  0  0  0  0  0  0  0  0  0  0
   -4.6893   -2.4009   -3.9765 O   0  0  0  0  0  0  0  0  0  0  0  0
    5.0920    0.4337    2.6547 H   0  0  0  0  0  0  0  0  0  0  0  0
    4.4254    2.2907    1.1328 H   0  0  0  0  0  0  0  0  0  0  0  0
    2.5609    1.9990   -0.5009 H   0  0  0  0  0  0  0  0  0  0  0  0
    1.3399   -0.1699   -0.6558 H   0  0  0  0  0  0  0  0  0  0  0  0
    2.1819   -3.1120    1.5684 H   0  0  0  0  0  0  0  0  0  0  0  0
    1.8266   -4.9945    0.7766 H   0  0  0  0  0  0  0  0  0  0  0  0
    0.7957   -7.1524    0.2274 H   0  0  0  0  0  0  0  0  0  0  0  0
   -1.3330   -7.2575   -1.0820 H   0  0  0  0  0  0  0  0  0  0  0  0
   -2.4392   -5.2060   -1.8470 H   0  0  0  0  0  0  0  0  0  0  0  0
   -2.8869   -3.4308   -2.7991 H   0  0  0  0  0  0  0  0  0  0  0  0
   -2.0961   -0.2348   -0.9362 H   0  0  0  0  0  0  0  0  0  0  0  0
   -3.3728    1.8728   -1.3217 H   0  0  0  0  0  0  0  0  0  0  0  0
   -5.2585    1.9323   -2.9558 H   0  0  0  0  0  0  0  0  0  0  0  0
   -5.8933   -0.1016   -4.2480 H   0  0  0  0  0  0  0  0  0  0  0  0
  1  2  2  0
  2  3  1  0
  2  7  1  0
  3  4  2  0
  3 25  1  0
  4  5  1  0
  4 26  1  0
  5  6  2  0
  5 27  1  0
  6  7  1  0
  6 28  1  0
  7  8  2  0
  8  9  1  0
  8 29  1  0
  9 10  2  0
 10 11  1  0
 10 15  1  0
 11 12  2  0
 11 30  1  0
 12 13  1  0
 12 31  1  0
 13 14  2  0
 13 32  1  0
 14 15  1  0
 14 33  1  0
 15 16  2  0
 16 17  1  0
 17 18  2  0
 17 34  1  0
 18 19  1  0
 18 23  1  0
 19 20  2  0
 19 35  1  0
 20 21  1  0
 20 36  1  0
 21 22  2  0
 21 37  1  0
 22 23  1  0
 22 38  1  0
 23 24  2  0
M  END

