
     RDKit          3D

 38 40  0  0  0  0  0  0  0  0999 V2000
    6.8182    1.0562   -0.7629 C   0  0  0  0  0  0  0  0  0  0  0  0
    5.7403    0.2527   -1.1816 O   0  0  0  0  0  0  0  0  0  0  0  0
    4.5444    0.8316   -1.4823 C   0  0  0  0  0  0  0  0  0  0  0  0
    4.3416    2.2178   -1.4514 C   0  0  0  0  0  0  0  0  0  0  0  0
    3.0905    2.7679   -1.7473 C   0  0  0  0  0  0  0  0  0  0  0  0
    2.0394    1.9127   -2.0693 C   0  0  0  0  0  0  0  0  0  0  0  0
    0.3162    2.6414   -2.4696 Br  0  0  0  0  0  0  0  0  0  0  0  0
    2.2269    0.5323   -2.1048 C   0  0  0  0  0  0  0  0  0  0  0  0
    3.4795   -0.0411   -1.8238 C   0  0  0  0  0  0  0  0  0  0  0  0
    3.5933   -1.5102   -1.8749 C   0  0  0  0  0  0  0  0  0  0  0  0
    2.4329   -2.2674   -1.9175 N   0  0  0  0  0  0  0  0  0  0  0  0
    2.7829   -3.5352   -1.9791 C   0  0  0  0  0  0  0  0  0  0  0  0
    1.8515   -4.7057   -2.0763 C   0  0  0  0  0  0  0  0  0  0  0  0
    1.4889   -5.0925   -3.5209 C   0  0  0  0  0  0  0  0  0  0  0  0
    2.6808   -5.4080   -4.3105 N   0  0  0  0  0  0  0  0  0  0  0  0
    4.1468   -3.6389   -1.9967 N   0  0  0  0  0  0  0  0  0  0  0  0
    4.6843   -2.3733   -1.9280 C   0  0  0  0  0  0  0  0  0  0  0  0
    6.1852   -2.4804   -1.9500 C   0  0  0  0  0  0  0  0  0  0  0  0
    6.4107   -3.9358   -2.4445 C   0  0  0  0  0  0  0  0  0  0  0  0
    5.1362   -4.7109   -2.0402 C   0  0  0  0  0  0  0  0  0  0  0  0
    7.6527    0.3743   -0.5488 H   0  0  0  0  0  0  0  0  0  0  0  0
    6.5767    1.6235    0.1540 H   0  0  0  0  0  0  0  0  0  0  0  0
    7.1336    1.7684   -1.5470 H   0  0  0  0  0  0  0  0  0  0  0  0
    5.1588    2.8899   -1.1907 H   0  0  0  0  0  0  0  0  0  0  0  0
    2.9448    3.8488   -1.7214 H   0  0  0  0  0  0  0  0  0  0  0  0
    1.4062   -0.1427   -2.3448 H   0  0  0  0  0  0  0  0  0  0  0  0
    0.9295   -4.4447   -1.5351 H   0  0  0  0  0  0  0  0  0  0  0  0
    2.2999   -5.5800   -1.5766 H   0  0  0  0  0  0  0  0  0  0  0  0
    0.8707   -4.2805   -3.9554 H   0  0  0  0  0  0  0  0  0  0  0  0
    0.8513   -5.9918   -3.4862 H   0  0  0  0  0  0  0  0  0  0  0  0
    3.1494   -4.5446   -4.5899 H   0  0  0  0  0  0  0  0  0  0  0  0
    2.4165   -5.8724   -5.1791 H   0  0  0  0  0  0  0  0  0  0  0  0
    6.6017   -2.3291   -0.9391 H   0  0  0  0  0  0  0  0  0  0  0  0
    6.6606   -1.7355   -2.6009 H   0  0  0  0  0  0  0  0  0  0  0  0
    7.3234   -4.3932   -2.0353 H   0  0  0  0  0  0  0  0  0  0  0  0
    6.5034   -3.9410   -3.5426 H   0  0  0  0  0  0  0  0  0  0  0  0
    5.2353   -5.1784   -1.0439 H   0  0  0  0  0  0  0  0  0  0  0  0
    4.8341   -5.4825   -2.7620 H   0  0  0  0  0  0  0  0  0  0  0  0
  1  2  1  0
  1 21  1  0
  1 22  1  0
  1 23  1  0
  2  3  1  0
  3  4  2  0
  3  9  1  0
  4  5  1  0
  4 24  1  0
  5  6  2  0
  5 25  1  0
  6  7  1  0
  6  8  1  0
  8  9  2  0
  8 26  1  0
  9 10  1  0
 10 11  1  0
 10 17  2  0
 11 12  2  0
 12 13  1  0
 12 16  1  0
 13 14  1  0
 13 27  1  0
 13 28  1  0
 14 15  1  0
 14 29  1  0
 14 30  1  0
 15 31  1  0
 15 32  1  0
 16 17  1  0
 16 20  1  0
 17 18  1  0
 18 19  1  0
 18 33  1  0
 18 34  1  0
 19 20  1  0
 19 35  1  0
 19 36  1  0
 20 37  1  0
 20 38  1  0
M  END

