
     RDKit          3D

 51 52  0  0  0  0  0  0  0  0999 V2000
   -0.2607   -2.7925   -1.0160 C   0  0  0  0  0  0  0  0  0  0  0  0
    0.9385   -3.7356   -1.1393 C   0  0  0  0  0  0  0  0  0  0  0  0
    1.4512   -3.9470   -2.5797 C   0  0  1  0  0  0  0  0  0  0  0  0
    2.0110   -2.6676   -3.2401 C   0  0  0  0  0  0  0  0  0  0  0  0
    3.3679   -2.2373   -2.6608 C   0  0  0  0  0  0  0  0  0  0  0  0
    4.4319   -3.3522   -2.7149 C   0  0  2  0  0  0  0  0  0  0  0  0
    4.9822   -3.6037   -4.1363 C   0  0  0  0  0  0  0  0  0  0  0  0
    5.6102   -2.4430   -4.7416 N   0  0  0  0  0  0  0  0  0  0  0  0
    6.9254   -2.1568   -4.5724 C   0  0  0  0  0  0  0  0  0  0  0  0
    7.7125   -2.8414   -3.9391 O   0  0  0  0  0  0  0  0  0  0  0  0
    7.4022   -0.8746   -5.2528 C   0  0  0  0  0  0  0  0  0  0  0  0
    6.3380   -0.2294   -5.9408 O   0  0  0  0  0  0  0  0  0  0  0  0
    6.6524    0.9279   -6.6037 C   0  0  0  0  0  0  0  0  0  0  0  0
    6.8229    2.2294   -6.0579 C   0  0  0  0  0  0  0  0  0  0  0  0
    6.7489    2.6550   -4.6247 C   0  0  0  0  0  0  0  0  0  0  0  0
    7.0622    3.0974   -7.0381 N   0  0  0  0  0  0  0  0  0  0  0  0
    7.0477    2.3879   -8.1830 N   0  0  0  0  0  0  0  0  0  0  0  0
    7.2632    3.0577   -9.4464 C   0  0  0  0  0  0  0  0  0  0  0  0
    6.8029    1.0599   -7.9796 C   0  0  0  0  0  0  0  0  0  0  0  0
    6.7059    0.0396   -9.0634 C   0  0  0  0  0  0  0  0  0  0  0  0
    3.8783   -4.6486   -2.0890 C   0  0  0  0  0  0  0  0  0  0  0  0
    2.5129   -5.0653   -2.6612 C   0  0  0  0  0  0  0  0  0  0  0  0
   -0.6262   -2.7504    0.0225 H   0  0  0  0  0  0  0  0  0  0  0  0
   -1.1001   -3.1266   -1.6494 H   0  0  0  0  0  0  0  0  0  0  0  0
   -0.0130   -1.7612   -1.3144 H   0  0  0  0  0  0  0  0  0  0  0  0
    0.6564   -4.7235   -0.7334 H   0  0  0  0  0  0  0  0  0  0  0  0
    1.7530   -3.3729   -0.4888 H   0  0  0  0  0  0  0  0  0  0  0  0
    0.5787   -4.2744   -3.1751 H   0  0  0  0  0  0  0  0  0  0  0  0
    1.2890   -1.8390   -3.1556 H   0  0  0  0  0  0  0  0  0  0  0  0
    2.1153   -2.8553   -4.3240 H   0  0  0  0  0  0  0  0  0  0  0  0
    3.2372   -1.9289   -1.6091 H   0  0  0  0  0  0  0  0  0  0  0  0
    3.7376   -1.3404   -3.1862 H   0  0  0  0  0  0  0  0  0  0  0  0
    5.3011   -3.0294   -2.1171 H   0  0  0  0  0  0  0  0  0  0  0  0
    4.1911   -3.9571   -4.8166 H   0  0  0  0  0  0  0  0  0  0  0  0
    5.7461   -4.3938   -4.0790 H   0  0  0  0  0  0  0  0  0  0  0  0
    5.0646   -1.7764   -5.2767 H   0  0  0  0  0  0  0  0  0  0  0  0
    8.2218   -1.1411   -5.9442 H   0  0  0  0  0  0  0  0  0  0  0  0
    7.8312   -0.2239   -4.4703 H   0  0  0  0  0  0  0  0  0  0  0  0
    5.8784    2.2052   -4.1211 H   0  0  0  0  0  0  0  0  0  0  0  0
    6.6654    3.7492   -4.5650 H   0  0  0  0  0  0  0  0  0  0  0  0
    7.6466    2.3543   -4.0572 H   0  0  0  0  0  0  0  0  0  0  0  0
    7.4348    4.1179   -9.2250 H   0  0  0  0  0  0  0  0  0  0  0  0
    6.3850    2.9646  -10.1064 H   0  0  0  0  0  0  0  0  0  0  0  0
    8.1431    2.6514   -9.9716 H   0  0  0  0  0  0  0  0  0  0  0  0
    5.9136    0.2815   -9.7924 H   0  0  0  0  0  0  0  0  0  0  0  0
    6.4665   -0.9365   -8.6187 H   0  0  0  0  0  0  0  0  0  0  0  0
    7.6495   -0.0649   -9.6260 H   0  0  0  0  0  0  0  0  0  0  0  0
    3.7880   -4.4999   -0.9994 H   0  0  0  0  0  0  0  0  0  0  0  0
    4.6052   -5.4688   -2.2195 H   0  0  0  0  0  0  0  0  0  0  0  0
    2.1501   -5.9664   -2.1375 H   0  0  0  0  0  0  0  0  0  0  0  0
    2.6319   -5.3615   -3.7185 H   0  0  0  0  0  0  0  0  0  0  0  0
  1  2  1  0
  1 23  1  0
  1 24  1  0
  1 25  1  0
  2  3  1  0
  2 26  1  0
  2 27  1  0
  3  4  1  0
  3 22  1  0
  3 28  1  6
  4  5  1  0
  4 29  1  0
  4 30  1  0
  5  6  1  0
  5 31  1  0
  5 32  1  0
  6  7  1  0
  6 21  1  0
  6 33  1  1
  7  8  1  0
  7 34  1  0
  7 35  1  0
  8  9  1  0
  8 36  1  0
  9 10  2  0
  9 11  1  0
 11 12  1  0
 11 37  1  0
 11 38  1  0
 12 13  1  0
 13 14  1  0
 13 19  2  0
 14 15  1  0
 14 16  2  0
 15 39  1  0
 15 40  1  0
 15 41  1  0
 16 17  1  0
 17 18  1  0
 17 19  1  0
 18 42  1  0
 18 43  1  0
 18 44  1  0
 19 20  1  0
 20 45  1  0
 20 46  1  0
 20 47  1  0
 21 22  1  0
 21 48  1  0
 21 49  1  0
 22 50  1  0
 22 51  1  0
M  END

