
     RDKit          3D

 42 43  0  0  0  0  0  0  0  0999 V2000
    3.7235    2.1698   -2.8971 C   0  0  0  0  0  0  0  0  0  0  0  0
    3.7327    1.3200   -1.6258 C   0  0  0  0  0  0  0  0  0  0  0  0
    4.2068    2.0844   -0.3862 C   0  0  0  0  0  0  0  0  0  0  0  0
    4.2187    1.2135    0.8758 C   0  0  0  0  0  0  0  0  0  0  0  0
    4.6546    1.9310    2.0774 N   0  0  0  0  0  0  0  0  0  0  0  0
    3.6494    2.6877    2.8451 C   0  0  0  0  0  0  0  0  0  0  0  0
    2.3927    1.9339    3.1597 C   0  0  0  0  0  0  0  0  0  0  0  0
    1.1111    2.1363    2.6665 C   0  0  0  0  0  0  0  0  0  0  0  0
    0.2549    1.1789    3.2760 C   0  0  0  0  0  0  0  0  0  0  0  0
    1.0425    0.4205    4.1214 C   0  0  0  0  0  0  0  0  0  0  0  0
    2.3366    0.8774    4.0498 N   0  0  0  0  0  0  0  0  0  0  0  0
    3.4454    0.3658    4.8323 C   0  0  0  0  0  0  0  0  0  0  0  0
    6.0076    1.9979    2.3035 C   0  0  0  0  0  0  0  0  0  0  0  0
    6.8214    1.4092    1.6096 O   0  0  0  0  0  0  0  0  0  0  0  0
    6.5092    2.8812    3.4319 C   0  0  0  0  0  0  0  0  0  0  0  0
    6.5182    4.2764    3.2717 C   0  0  0  0  0  0  0  0  0  0  0  0
    7.1049    5.1128    4.2228 C   0  0  0  0  0  0  0  0  0  0  0  0
    7.6943    4.5597    5.3629 C   0  0  0  0  0  0  0  0  0  0  0  0
    7.6983    3.1755    5.5449 C   0  0  0  0  0  0  0  0  0  0  0  0
    7.1157    2.3480    4.5801 C   0  0  0  0  0  0  0  0  0  0  0  0
    7.1459    0.6154    4.8468 Cl  0  0  0  0  0  0  0  0  0  0  0  0
    3.3814    1.5896   -3.7689 H   0  0  0  0  0  0  0  0  0  0  0  0
    4.7306    2.5553   -3.1278 H   0  0  0  0  0  0  0  0  0  0  0  0
    3.0535    3.0400   -2.7934 H   0  0  0  0  0  0  0  0  0  0  0  0
    4.3820    0.4386   -1.7762 H   0  0  0  0  0  0  0  0  0  0  0  0
    2.7191    0.9192   -1.4419 H   0  0  0  0  0  0  0  0  0  0  0  0
    3.5543    2.9626   -0.2266 H   0  0  0  0  0  0  0  0  0  0  0  0
    5.2260    2.4716   -0.5572 H   0  0  0  0  0  0  0  0  0  0  0  0
    4.9066    0.3691    0.7305 H   0  0  0  0  0  0  0  0  0  0  0  0
    3.2137    0.8093    1.0687 H   0  0  0  0  0  0  0  0  0  0  0  0
    3.3478    3.5933    2.2892 H   0  0  0  0  0  0  0  0  0  0  0  0
    4.1339    3.0373    3.7672 H   0  0  0  0  0  0  0  0  0  0  0  0
    0.8319    2.8987    1.9404 H   0  0  0  0  0  0  0  0  0  0  0  0
   -0.8139    1.0538    3.1141 H   0  0  0  0  0  0  0  0  0  0  0  0
    0.7852   -0.4128    4.7726 H   0  0  0  0  0  0  0  0  0  0  0  0
    3.1182   -0.5319    5.3736 H   0  0  0  0  0  0  0  0  0  0  0  0
    3.7941    1.1057    5.5717 H   0  0  0  0  0  0  0  0  0  0  0  0
    4.2967    0.0982    4.1915 H   0  0  0  0  0  0  0  0  0  0  0  0
    6.0620    4.7072    2.3765 H   0  0  0  0  0  0  0  0  0  0  0  0
    7.1038    6.1948    4.0721 H   0  0  0  0  0  0  0  0  0  0  0  0
    8.1553    5.2040    6.1154 H   0  0  0  0  0  0  0  0  0  0  0  0
    8.1535    2.7261    6.4290 H   0  0  0  0  0  0  0  0  0  0  0  0
  1  2  1  0
  1 22  1  0
  1 23  1  0
  1 24  1  0
  2  3  1  0
  2 25  1  0
  2 26  1  0
  3  4  1  0
  3 27  1  0
  3 28  1  0
  4  5  1  0
  4 29  1  0
  4 30  1  0
  5  6  1  0
  5 13  1  0
  6  7  1  0
  6 31  1  0
  6 32  1  0
  7  8  2  0
  7 11  1  0
  8  9  1  0
  8 33  1  0
  9 10  2  0
  9 34  1  0
 10 11  1  0
 10 35  1  0
 11 12  1  0
 12 36  1  0
 12 37  1  0
 12 38  1  0
 13 14  2  0
 13 15  1  0
 15 16  2  0
 15 20  1  0
 16 17  1  0
 16 39  1  0
 17 18  2  0
 17 40  1  0
 18 19  1  0
 18 41  1  0
 19 20  2  0
 19 42  1  0
 20 21  1  0
M  END

