
     RDKit          3D

 52 55  0  0  0  0  0  0  0  0999 V2000
    3.9872   -4.3176   -2.2614 C   0  0  0  0  0  0  0  0  0  0  0  0
    5.1627   -3.4210   -1.8732 C   0  0  0  0  0  0  0  0  0  0  0  0
    4.7396   -1.9743   -1.5666 C   0  0  0  0  0  0  0  0  0  0  0  0
    5.9016   -1.0666   -1.2527 C   0  0  0  0  0  0  0  0  0  0  0  0
    6.0780   -0.4952   -0.0113 C   0  0  0  0  0  0  0  0  0  0  0  0
    7.1992    0.3518    0.1636 C   0  0  0  0  0  0  0  0  0  0  0  0
    7.6222    1.0467    1.2150 N   0  0  0  0  0  0  0  0  0  0  0  0
    8.7145    1.7457    0.8284 N   0  0  0  0  0  0  0  0  0  0  0  0
    8.9927    1.4850   -0.4297 C   0  0  0  0  0  0  0  0  0  0  0  0
   10.3275    2.2051   -1.3237 S   0  0  0  0  0  0  0  0  0  0  0  0
   11.7411    1.2647   -0.6122 C   0  0  0  0  0  0  0  0  0  0  0  0
   11.6351   -0.2315   -0.9063 C   0  0  0  0  0  0  0  0  0  0  0  0
   11.5046   -0.6455   -2.0495 O   0  0  0  0  0  0  0  0  0  0  0  0
   11.6755   -1.0127    0.2128 N   0  0  0  0  0  0  0  0  0  0  0  0
   11.5975   -2.4198    0.3288 C   0  0  0  0  0  0  0  0  0  0  0  0
   11.7781   -3.2671   -0.7770 C   0  0  0  0  0  0  0  0  0  0  0  0
   11.7586   -4.6520   -0.6057 C   0  0  0  0  0  0  0  0  0  0  0  0
   11.5683   -5.2074    0.6610 C   0  0  0  0  0  0  0  0  0  0  0  0
   11.3800   -4.3642    1.7576 C   0  0  0  0  0  0  0  0  0  0  0  0
   11.3747   -2.9676    1.6198 C   0  0  0  0  0  0  0  0  0  0  0  0
   11.1339   -2.1053    2.8158 C   0  0  0  0  0  0  0  0  0  0  0  0
   11.9484   -2.2166    3.9583 C   0  0  0  0  0  0  0  0  0  0  0  0
   11.7071   -1.4285    5.0868 C   0  0  0  0  0  0  0  0  0  0  0  0
   10.6506   -0.5116    5.0949 C   0  0  0  0  0  0  0  0  0  0  0  0
    9.8301   -0.3912    3.9695 C   0  0  0  0  0  0  0  0  0  0  0  0
   10.0678   -1.1846    2.8442 C   0  0  0  0  0  0  0  0  0  0  0  0
    8.0510    0.5705   -0.9220 N   0  0  0  0  0  0  0  0  0  0  0  0
    7.8334   -0.0999   -2.1279 C   0  0  0  0  0  0  0  0  0  0  0  0
    8.7059    0.0882   -3.1434 N   0  0  0  0  0  0  0  0  0  0  0  0
    6.7894   -0.8726   -2.2741 N   0  0  0  0  0  0  0  0  0  0  0  0
    4.3208   -5.3457   -2.4740 H   0  0  0  0  0  0  0  0  0  0  0  0
    3.4758   -3.9403   -3.1629 H   0  0  0  0  0  0  0  0  0  0  0  0
    3.2360   -4.3723   -1.4555 H   0  0  0  0  0  0  0  0  0  0  0  0
    5.9085   -3.3991   -2.6846 H   0  0  0  0  0  0  0  0  0  0  0  0
    5.6786   -3.8393   -0.9910 H   0  0  0  0  0  0  0  0  0  0  0  0
    4.0240   -1.9587   -0.7287 H   0  0  0  0  0  0  0  0  0  0  0  0
    4.2157   -1.5636   -2.4484 H   0  0  0  0  0  0  0  0  0  0  0  0
    5.3950   -0.6554    0.8216 H   0  0  0  0  0  0  0  0  0  0  0  0
   11.8204    1.5019    0.4579 H   0  0  0  0  0  0  0  0  0  0  0  0
   12.6244    1.6643   -1.1344 H   0  0  0  0  0  0  0  0  0  0  0  0
   11.7074   -0.5210    1.1004 H   0  0  0  0  0  0  0  0  0  0  0  0
   11.9318   -2.8265   -1.7593 H   0  0  0  0  0  0  0  0  0  0  0  0
   11.8989   -5.2988   -1.4754 H   0  0  0  0  0  0  0  0  0  0  0  0
   11.5560   -6.2915    0.7960 H   0  0  0  0  0  0  0  0  0  0  0  0
   11.2063   -4.7893    2.7491 H   0  0  0  0  0  0  0  0  0  0  0  0
   12.7835   -2.9217    3.9537 H   0  0  0  0  0  0  0  0  0  0  0  0
   12.3529   -1.5274    5.9633 H   0  0  0  0  0  0  0  0  0  0  0  0
   10.4675    0.1070    5.9772 H   0  0  0  0  0  0  0  0  0  0  0  0
    8.9957    0.3141    3.9508 H   0  0  0  0  0  0  0  0  0  0  0  0
    9.3986   -1.0954    1.9861 H   0  0  0  0  0  0  0  0  0  0  0  0
    9.6650    0.3691   -2.9444 H   0  0  0  0  0  0  0  0  0  0  0  0
    8.5619   -0.5360   -3.9290 H   0  0  0  0  0  0  0  0  0  0  0  0
  1  2  1  0
  1 31  1  0
  1 32  1  0
  1 33  1  0
  2  3  1  0
  2 34  1  0
  2 35  1  0
  3  4  1  0
  3 36  1  0
  3 37  1  0
  4  5  2  0
  4 30  1  0
  5  6  1  0
  5 38  1  0
  6  7  2  0
  6 27  1  0
  7  8  1  0
  8  9  2  0
  9 10  1  0
  9 27  1  0
 10 11  1  0
 11 12  1  0
 11 39  1  0
 11 40  1  0
 12 13  2  0
 12 14  1  0
 14 15  1  0
 14 41  1  0
 15 16  2  0
 15 20  1  0
 16 17  1  0
 16 42  1  0
 17 18  2  0
 17 43  1  0
 18 19  1  0
 18 44  1  0
 19 20  2  0
 19 45  1  0
 20 21  1  0
 21 22  2  0
 21 26  1  0
 22 23  1  0
 22 46  1  0
 23 24  2  0
 23 47  1  0
 24 25  1  0
 24 48  1  0
 25 26  2  0
 25 49  1  0
 26 50  1  0
 27 28  1  0
 28 29  1  0
 28 30  2  0
 29 51  1  0
 29 52  1  0
M  END

