
     RDKit          3D

 50 52  0  0  0  0  0  0  0  0999 V2000
    3.7571    2.2602   -0.4131 C   0  0  0  0  0  0  0  0  0  0  0  0
    3.6874    0.8699   -0.6376 O   0  0  0  0  0  0  0  0  0  0  0  0
    2.4709    0.2717   -0.7671 C   0  0  0  0  0  0  0  0  0  0  0  0
    1.2538    0.9536   -0.6771 C   0  0  0  0  0  0  0  0  0  0  0  0
    0.0475    0.2734   -0.8797 C   0  0  0  0  0  0  0  0  0  0  0  0
    0.0572   -1.0801   -1.1839 C   0  0  0  0  0  0  0  0  0  0  0  0
    1.2643   -1.7973   -1.2713 C   0  0  0  0  0  0  0  0  0  0  0  0
    1.1120   -3.2585   -1.6587 C   0  0  0  0  0  0  0  0  0  0  0  0
    2.2379   -3.9436   -1.9828 N   0  0  0  0  0  0  0  0  0  0  0  0
    0.0026   -3.7769   -1.6991 O   0  0  0  0  0  0  0  0  0  0  0  0
    2.4822   -1.1262   -1.0249 C   0  0  0  0  0  0  0  0  0  0  0  0
    3.6544   -1.8244   -1.1174 O   0  0  0  0  0  0  0  0  0  0  0  0
    4.7767   -1.5948   -0.2540 C   0  0  0  0  0  0  0  0  0  0  0  0
    5.4840   -2.9402   -0.0286 C   0  0  0  0  0  0  0  0  0  0  0  0
    6.5833   -3.0922   -0.5379 O   0  0  0  0  0  0  0  0  0  0  0  0
    4.8377   -4.0354    0.7146 C   0  0  0  0  0  0  0  0  0  0  0  0
    5.3345   -5.3784    0.6099 C   0  0  0  0  0  0  0  0  0  0  0  0
    4.5649   -6.1876    1.4047 C   0  0  0  0  0  0  0  0  0  0  0  0
    4.6391   -7.6616    1.6406 C   0  0  0  0  0  0  0  0  0  0  0  0
    3.6150   -5.3746    2.0250 N   0  0  0  0  0  0  0  0  0  0  0  0
    2.5765   -5.8608    2.9192 C   0  0  0  0  0  0  0  0  0  0  0  0
    1.2789   -6.1755    2.2110 C   0  0  0  0  0  0  0  0  0  0  0  0
    0.9077   -5.8528    0.9296 C   0  0  0  0  0  0  0  0  0  0  0  0
   -0.4300   -6.2461    0.6114 C   0  0  0  0  0  0  0  0  0  0  0  0
   -1.0551   -6.8724    1.6559 C   0  0  0  0  0  0  0  0  0  0  0  0
   -0.0214   -6.9854    3.0468 S   0  0  0  0  0  0  0  0  0  0  0  0
    3.7598   -4.0671    1.6127 C   0  0  0  0  0  0  0  0  0  0  0  0
    2.8678   -3.0032    2.1724 C   0  0  0  0  0  0  0  0  0  0  0  0
    4.8244    2.5138   -0.3618 H   0  0  0  0  0  0  0  0  0  0  0  0
    3.2740    2.5493    0.5378 H   0  0  0  0  0  0  0  0  0  0  0  0
    3.2922    2.8312   -1.2364 H   0  0  0  0  0  0  0  0  0  0  0  0
    1.2418    2.0232   -0.4673 H   0  0  0  0  0  0  0  0  0  0  0  0
   -0.8970    0.8178   -0.8105 H   0  0  0  0  0  0  0  0  0  0  0  0
   -0.8625   -1.6371   -1.3657 H   0  0  0  0  0  0  0  0  0  0  0  0
    3.1525   -3.5148   -1.9048 H   0  0  0  0  0  0  0  0  0  0  0  0
    2.1320   -4.9072   -2.2747 H   0  0  0  0  0  0  0  0  0  0  0  0
    4.4559   -1.1340    0.6906 H   0  0  0  0  0  0  0  0  0  0  0  0
    5.4966   -0.9283   -0.7450 H   0  0  0  0  0  0  0  0  0  0  0  0
    6.1775   -5.6804   -0.0066 H   0  0  0  0  0  0  0  0  0  0  0  0
    5.4345   -8.0903    1.0156 H   0  0  0  0  0  0  0  0  0  0  0  0
    3.6964   -8.1745    1.3848 H   0  0  0  0  0  0  0  0  0  0  0  0
    4.8761   -7.9106    2.6902 H   0  0  0  0  0  0  0  0  0  0  0  0
    2.4071   -5.1056    3.7038 H   0  0  0  0  0  0  0  0  0  0  0  0
    2.9582   -6.7526    3.4385 H   0  0  0  0  0  0  0  0  0  0  0  0
    1.5703   -5.3436    0.2304 H   0  0  0  0  0  0  0  0  0  0  0  0
   -0.8914   -6.0387   -0.3546 H   0  0  0  0  0  0  0  0  0  0  0  0
   -2.0665   -7.2742    1.7003 H   0  0  0  0  0  0  0  0  0  0  0  0
    1.8078   -3.1925    1.9381 H   0  0  0  0  0  0  0  0  0  0  0  0
    3.1172   -2.0153    1.7754 H   0  0  0  0  0  0  0  0  0  0  0  0
    2.9556   -2.9419    3.2713 H   0  0  0  0  0  0  0  0  0  0  0  0
  1  2  1  0
  1 29  1  0
  1 30  1  0
  1 31  1  0
  2  3  1  0
  3  4  2  0
  3 11  1  0
  4  5  1  0
  4 32  1  0
  5  6  2  0
  5 33  1  0
  6  7  1  0
  6 34  1  0
  7  8  1  0
  7 11  2  0
  8  9  1  0
  8 10  2  0
  9 35  1  0
  9 36  1  0
 11 12  1  0
 12 13  1  0
 13 14  1  0
 13 37  1  0
 13 38  1  0
 14 15  2  0
 14 16  1  0
 16 17  1  0
 16 27  2  0
 17 18  2  0
 17 39  1  0
 18 19  1  0
 18 20  1  0
 19 40  1  0
 19 41  1  0
 19 42  1  0
 20 21  1  0
 20 27  1  0
 21 22  1  0
 21 43  1  0
 21 44  1  0
 22 23  2  0
 22 26  1  0
 23 24  1  0
 23 45  1  0
 24 25  2  0
 24 46  1  0
 25 26  1  0
 25 47  1  0
 27 28  1  0
 28 48  1  0
 28 49  1  0
 28 50  1  0
M  END

