
     RDKit          3D

 50 52  0  0  0  0  0  0  0  0999 V2000
    1.8255   -2.6381   -0.4363 C   0  0  0  0  0  0  0  0  0  0  0  0
    2.4733   -1.3090   -0.0568 C   0  0  0  0  0  0  0  0  0  0  0  0
    3.1177   -0.5947   -1.1764 N   0  0  0  0  0  0  0  0  0  0  0  0
    2.3837    0.0279   -2.1815 C   0  0  0  0  0  0  0  0  0  0  0  0
    2.8716    0.3927   -3.2299 O   0  0  0  0  0  0  0  0  0  0  0  0
    1.1012    0.1557   -1.8172 O   0  0  0  0  0  0  0  0  0  0  0  0
    0.1010    0.7926   -2.6921 C   0  0  1  0  0  0  0  0  0  0  0  0
   -0.0347   -0.0001   -3.9953 C   0  0  0  0  0  0  0  0  0  0  0  0
   -1.1799    0.6991   -1.8617 C   0  0  0  0  0  0  0  0  0  0  0  0
    0.4834    2.2548   -2.9384 C   0  0  0  0  0  0  0  0  0  0  0  0
    4.4893   -0.8370   -1.4207 C   0  0  0  0  0  0  0  0  0  0  0  0
    4.9027   -2.0542   -1.4860 N   0  0  0  0  0  0  0  0  0  0  0  0
    6.2422   -2.3085   -1.6933 C   0  0  0  0  0  0  0  0  0  0  0  0
    6.6549   -3.6560   -1.7027 C   0  0  0  0  0  0  0  0  0  0  0  0
    7.9816   -3.9731   -1.9437 C   0  0  0  0  0  0  0  0  0  0  0  0
    8.9218   -2.9612   -2.1850 C   0  0  0  0  0  0  0  0  0  0  0  0
    8.5326   -1.6230   -2.1777 C   0  0  0  0  0  0  0  0  0  0  0  0
    9.9160   -0.3592   -2.5242 Br  0  0  0  0  0  0  0  0  0  0  0  0
    7.1836   -1.2647   -1.9260 C   0  0  0  0  0  0  0  0  0  0  0  0
    6.7075    0.1332   -1.8534 C   0  0  0  0  0  0  0  0  0  0  0  0
    7.3776    1.1294   -2.0082 O   0  0  0  0  0  0  0  0  0  0  0  0
    5.3222    0.2639   -1.5139 N   0  0  0  0  0  0  0  0  0  0  0  0
    4.8661    1.5969   -1.2014 C   0  0  0  0  0  0  0  0  0  0  0  0
    4.6105    1.9390    0.1311 C   0  0  0  0  0  0  0  0  0  0  0  0
    4.1952    3.2360    0.4435 C   0  0  0  0  0  0  0  0  0  0  0  0
    4.0468    4.1937   -0.5625 C   0  0  0  0  0  0  0  0  0  0  0  0
    4.3203    3.8266   -1.8791 C   0  0  0  0  0  0  0  0  0  0  0  0
    4.1767    4.7380   -2.8516 F   0  0  0  0  0  0  0  0  0  0  0  0
    4.7276    2.5411   -2.2206 C   0  0  0  0  0  0  0  0  0  0  0  0
    1.3754   -3.1030    0.4560 H   0  0  0  0  0  0  0  0  0  0  0  0
    2.5741   -3.3253   -0.8541 H   0  0  0  0  0  0  0  0  0  0  0  0
    1.0265   -2.4881   -1.1777 H   0  0  0  0  0  0  0  0  0  0  0  0
    3.2544   -1.4719    0.6999 H   0  0  0  0  0  0  0  0  0  0  0  0
    1.7317   -0.6246    0.3787 H   0  0  0  0  0  0  0  0  0  0  0  0
   -0.2722   -1.0544   -3.7832 H   0  0  0  0  0  0  0  0  0  0  0  0
    0.8891    0.0439   -4.5856 H   0  0  0  0  0  0  0  0  0  0  0  0
   -0.8573    0.4189   -4.5956 H   0  0  0  0  0  0  0  0  0  0  0  0
   -1.4304   -0.3508   -1.6471 H   0  0  0  0  0  0  0  0  0  0  0  0
   -2.0198    1.1517   -2.4099 H   0  0  0  0  0  0  0  0  0  0  0  0
   -1.0625    1.2301   -0.9049 H   0  0  0  0  0  0  0  0  0  0  0  0
    1.4067    2.3331   -3.5258 H   0  0  0  0  0  0  0  0  0  0  0  0
    0.6264    2.7809   -1.9819 H   0  0  0  0  0  0  0  0  0  0  0  0
   -0.3271    2.7587   -3.4875 H   0  0  0  0  0  0  0  0  0  0  0  0
    5.8994   -4.4223   -1.5243 H   0  0  0  0  0  0  0  0  0  0  0  0
    8.3048   -5.0171   -1.9534 H   0  0  0  0  0  0  0  0  0  0  0  0
    9.9648   -3.2115   -2.3823 H   0  0  0  0  0  0  0  0  0  0  0  0
    4.7446    1.1939    0.9175 H   0  0  0  0  0  0  0  0  0  0  0  0
    3.9933    3.5062    1.4825 H   0  0  0  0  0  0  0  0  0  0  0  0
    3.7299    5.2155   -0.3456 H   0  0  0  0  0  0  0  0  0  0  0  0
    4.9209    2.2824   -3.2600 H   0  0  0  0  0  0  0  0  0  0  0  0
  1  2  1  0
  1 30  1  0
  1 31  1  0
  1 32  1  0
  2  3  1  0
  2 33  1  0
  2 34  1  0
  3  4  1  0
  3 11  1  0
  4  5  2  0
  4  6  1  0
  7  6  1  1
  7  8  1  0
  7  9  1  0
  7 10  1  0
  8 35  1  0
  8 36  1  0
  8 37  1  0
  9 38  1  0
  9 39  1  0
  9 40  1  0
 10 41  1  0
 10 42  1  0
 10 43  1  0
 11 12  2  0
 11 22  1  0
 12 13  1  0
 13 14  2  0
 13 19  1  0
 14 15  1  0
 14 44  1  0
 15 16  2  0
 15 45  1  0
 16 17  1  0
 16 46  1  0
 17 18  1  0
 17 19  2  0
 19 20  1  0
 20 21  2  0
 20 22  1  0
 22 23  1  0
 23 24  2  0
 23 29  1  0
 24 25  1  0
 24 47  1  0
 25 26  2  0
 25 48  1  0
 26 27  1  0
 26 49  1  0
 27 28  1  0
 27 29  2  0
 29 50  1  0
M  END

