
     RDKit          3D

 53 57  0  0  0  0  0  0  0  0999 V2000
    0.6293    1.1657    0.8063 C   0  0  0  0  0  0  0  0  0  0  0  0
    1.9621    0.5639    0.3608 C   0  0  0  0  0  0  0  0  0  0  0  0
    3.2392    1.0293    1.1254 C   0  0  1  0  0  0  0  0  0  0  0  0
    4.4813    0.3139    0.5209 C   0  0  0  0  0  0  0  0  0  0  0  0
    5.7547    1.1442    0.6925 C   0  0  0  0  0  0  0  0  0  0  0  0
    5.6497    2.4782   -0.0772 C   0  0  0  0  0  0  0  0  0  0  0  0
    4.1819    2.9436   -0.1654 C   0  0  0  0  0  0  0  0  0  0  0  0
    3.4435    2.4856    1.0111 N   0  0  0  0  0  0  0  0  0  0  0  0
    2.9025    3.3529    1.9051 C   0  0  0  0  0  0  0  0  0  0  0  0
    2.8034    4.6491    1.6068 N   0  0  0  0  0  0  0  0  0  0  0  0
    2.2218    5.4468    2.4961 C   0  0  0  0  0  0  0  0  0  0  0  0
    2.0601    6.8064    2.1205 N   0  0  0  0  0  0  0  0  0  0  0  0
    2.1147    7.8601    3.0178 C   0  0  0  0  0  0  0  0  0  0  0  0
    2.0595    9.0012    2.2582 C   0  0  0  0  0  0  0  0  0  0  0  0
    1.9545    8.6869    0.9286 N   0  0  0  0  0  0  0  0  0  0  0  0
    1.9457    7.3713    0.8549 C   0  0  0  0  0  0  0  0  0  0  0  0
    1.7846    6.6545   -0.4239 C   0  0  0  0  0  0  0  0  0  0  0  0
    2.4187    7.1604   -1.5753 C   0  0  0  0  0  0  0  0  0  0  0  0
    2.2631    6.5444   -2.8164 C   0  0  0  0  0  0  0  0  0  0  0  0
    1.4649    5.4025   -2.9466 C   0  0  0  0  0  0  0  0  0  0  0  0
    0.8173    4.9091   -1.8198 C   0  0  0  0  0  0  0  0  0  0  0  0
    0.0392    3.8206   -1.9011 F   0  0  0  0  0  0  0  0  0  0  0  0
    0.9531    5.5388   -0.5813 C   0  0  0  0  0  0  0  0  0  0  0  0
    0.2607    5.0396    0.4538 F   0  0  0  0  0  0  0  0  0  0  0  0
    1.7894    5.1167    3.7002 N   0  0  0  0  0  0  0  0  0  0  0  0
    1.9442    3.8262    4.0434 C   0  0  0  0  0  0  0  0  0  0  0  0
    2.4795    2.8760    3.1831 C   0  0  0  0  0  0  0  0  0  0  0  0
    2.6887    1.5318    3.5262 N   0  0  0  0  0  0  0  0  0  0  0  0
    2.4513    1.1016    4.8995 C   0  0  0  0  0  0  0  0  0  0  0  0
    3.0897    0.5865    2.6012 C   0  0  0  0  0  0  0  0  0  0  0  0
    3.2690   -0.5778    2.9090 O   0  0  0  0  0  0  0  0  0  0  0  0
   -0.1911    0.7366    0.2101 H   0  0  0  0  0  0  0  0  0  0  0  0
    0.5937    2.2553    0.6569 H   0  0  0  0  0  0  0  0  0  0  0  0
    0.4060    0.9527    1.8639 H   0  0  0  0  0  0  0  0  0  0  0  0
    2.1207    0.7896   -0.7072 H   0  0  0  0  0  0  0  0  0  0  0  0
    1.9304   -0.5348    0.4435 H   0  0  0  0  0  0  0  0  0  0  0  0
    4.3016    0.1318   -0.5516 H   0  0  0  0  0  0  0  0  0  0  0  0
    4.5658   -0.6699    1.0006 H   0  0  0  0  0  0  0  0  0  0  0  0
    6.6314    0.5695    0.3551 H   0  0  0  0  0  0  0  0  0  0  0  0
    5.9145    1.3403    1.7663 H   0  0  0  0  0  0  0  0  0  0  0  0
    6.0456    2.3680   -1.1006 H   0  0  0  0  0  0  0  0  0  0  0  0
    6.2627    3.2492    0.4162 H   0  0  0  0  0  0  0  0  0  0  0  0
    3.6995    2.5369   -1.0700 H   0  0  0  0  0  0  0  0  0  0  0  0
    4.0941    4.0341   -0.2180 H   0  0  0  0  0  0  0  0  0  0  0  0
    2.1973    7.6755    4.0839 H   0  0  0  0  0  0  0  0  0  0  0  0
    2.0845   10.0343    2.6026 H   0  0  0  0  0  0  0  0  0  0  0  0
    3.0372    8.0519   -1.4651 H   0  0  0  0  0  0  0  0  0  0  0  0
    2.7698    6.9519   -3.6939 H   0  0  0  0  0  0  0  0  0  0  0  0
    1.3286    4.8913   -3.9016 H   0  0  0  0  0  0  0  0  0  0  0  0
    1.6225    3.5541    5.0516 H   0  0  0  0  0  0  0  0  0  0  0  0
    3.0563    1.6994    5.5992 H   0  0  0  0  0  0  0  0  0  0  0  0
    2.7341    0.0465    4.9727 H   0  0  0  0  0  0  0  0  0  0  0  0
    1.3880    1.2115    5.1683 H   0  0  0  0  0  0  0  0  0  0  0  0
  1  2  1  0
  1 32  1  0
  1 33  1  0
  1 34  1  0
  3  2  1  6
  2 35  1  0
  2 36  1  0
  3  4  1  0
  3  8  1  0
  3 30  1  0
  4  5  1  0
  4 37  1  0
  4 38  1  0
  5  6  1  0
  5 39  1  0
  5 40  1  0
  6  7  1  0
  6 41  1  0
  6 42  1  0
  7  8  1  0
  7 43  1  0
  7 44  1  0
  8  9  1  0
  9 10  2  0
  9 27  1  0
 10 11  1  0
 11 12  1  0
 11 25  2  0
 12 13  1  0
 12 16  1  0
 13 14  2  0
 13 45  1  0
 14 15  1  0
 14 46  1  0
 15 16  2  0
 16 17  1  0
 17 18  2  0
 17 23  1  0
 18 19  1  0
 18 47  1  0
 19 20  2  0
 19 48  1  0
 20 21  1  0
 20 49  1  0
 21 22  1  0
 21 23  2  0
 23 24  1  0
 25 26  1  0
 26 27  2  0
 26 50  1  0
 27 28  1  0
 28 29  1  0
 28 30  1  0
 29 51  1  0
 29 52  1  0
 29 53  1  0
 30 31  2  0
M  END

