
     RDKit          3D

 38 40  0  0  0  0  0  0  0  0999 V2000
    1.3784   -1.0511    0.1827 C   0  0  0  0  0  0  0  0  0  0  0  0
    2.5231   -0.0185    0.1756 C   0  0  1  0  0  0  0  0  0  0  0  0
    2.8719    0.3096    1.6110 C   0  0  0  0  0  0  0  0  0  0  0  0
    2.8414    1.5139    2.1196 N   0  0  0  0  0  0  0  0  0  0  0  0
    3.2491    1.3115    3.4405 O   0  0  0  0  0  0  0  0  0  0  0  0
    3.4830    0.0032    3.5880 C   0  0  0  0  0  0  0  0  0  0  0  0
    3.9817   -0.4926    4.9085 C   0  0  0  0  0  0  0  0  0  0  0  0
    5.4921   -0.3733    5.0532 C   0  0  0  0  0  0  0  0  0  0  0  0
    6.0650    0.5304    5.9548 C   0  0  0  0  0  0  0  0  0  0  0  0
    7.4524    0.6406    6.0841 C   0  0  0  0  0  0  0  0  0  0  0  0
    8.2963   -0.1573    5.3008 C   0  0  0  0  0  0  0  0  0  0  0  0
    9.6500   -0.0971    5.3807 O   0  0  0  0  0  0  0  0  0  0  0  0
    7.7339   -1.0648    4.3892 C   0  0  0  0  0  0  0  0  0  0  0  0
    6.3505   -1.1652    4.2711 C   0  0  0  0  0  0  0  0  0  0  0  0
    3.2664   -0.6700    2.4970 N   0  0  0  0  0  0  0  0  0  0  0  0
    3.7979   -0.5576   -0.5275 C   0  0  0  0  0  0  0  0  0  0  0  0
    3.6348   -0.6154   -2.0513 C   0  0  0  0  0  0  0  0  0  0  0  0
    3.1557    0.7411   -2.5789 C   0  0  0  0  0  0  0  0  0  0  0  0
    1.9077    1.1878   -1.8198 C   0  0  0  0  0  0  0  0  0  0  0  0
    2.1136    1.2077   -0.4186 O   0  0  0  0  0  0  0  0  0  0  0  0
    1.6557   -1.9183    0.7983 H   0  0  0  0  0  0  0  0  0  0  0  0
    1.1432   -1.4084   -0.8298 H   0  0  0  0  0  0  0  0  0  0  0  0
    0.4733   -0.5909    0.6066 H   0  0  0  0  0  0  0  0  0  0  0  0
    3.6694   -1.5440    4.9959 H   0  0  0  0  0  0  0  0  0  0  0  0
    3.4837    0.0763    5.7072 H   0  0  0  0  0  0  0  0  0  0  0  0
    5.4218    1.1637    6.5721 H   0  0  0  0  0  0  0  0  0  0  0  0
    7.8808    1.3524    6.7970 H   0  0  0  0  0  0  0  0  0  0  0  0
    9.9067    0.5655    6.0354 H   0  0  0  0  0  0  0  0  0  0  0  0
    8.4012   -1.6813    3.7836 H   0  0  0  0  0  0  0  0  0  0  0  0
    5.9240   -1.8696    3.5515 H   0  0  0  0  0  0  0  0  0  0  0  0
    4.0577   -1.5415   -0.1078 H   0  0  0  0  0  0  0  0  0  0  0  0
    4.6273    0.1272   -0.2838 H   0  0  0  0  0  0  0  0  0  0  0  0
    2.9107   -1.4009   -2.3315 H   0  0  0  0  0  0  0  0  0  0  0  0
    4.5923   -0.9014   -2.5168 H   0  0  0  0  0  0  0  0  0  0  0  0
    2.9388    0.6972   -3.6596 H   0  0  0  0  0  0  0  0  0  0  0  0
    3.9490    1.4956   -2.4357 H   0  0  0  0  0  0  0  0  0  0  0  0
    1.0515    0.5341   -2.0841 H   0  0  0  0  0  0  0  0  0  0  0  0
    1.6240    2.2165   -2.0896 H   0  0  0  0  0  0  0  0  0  0  0  0
  2  1  1  1
  1 21  1  0
  1 22  1  0
  1 23  1  0
  2  3  1  0
  2 16  1  0
  2 20  1  0
  3  4  2  0
  3 15  1  0
  4  5  1  0
  5  6  1  0
  6  7  1  0
  6 15  2  0
  7  8  1  0
  7 24  1  0
  7 25  1  0
  8  9  2  0
  8 14  1  0
  9 10  1  0
  9 26  1  0
 10 11  2  0
 10 27  1  0
 11 12  1  0
 11 13  1  0
 12 28  1  0
 13 14  2  0
 13 29  1  0
 14 30  1  0
 16 17  1  0
 16 31  1  0
 16 32  1  0
 17 18  1  0
 17 33  1  0
 17 34  1  0
 18 19  1  0
 18 35  1  0
 18 36  1  0
 19 20  1  0
 19 37  1  0
 19 38  1  0
M  END

