
     RDKit          3D

 44 45  0  0  0  0  0  0  0  0999 V2000
    1.1182    0.5091   -0.5451 C   0  0  0  0  0  0  0  0  0  0  0  0
    2.5518    0.2151   -0.0628 C   0  0  1  0  0  0  0  0  0  0  0  0
    2.5039   -0.0319    1.4588 C   0  0  0  0  0  0  0  0  0  0  0  0
    3.0579   -1.0500   -0.8005 C   0  0  0  0  0  0  0  0  0  0  0  0
    4.5122   -1.4793   -0.5468 C   0  0  0  0  0  0  0  0  0  0  0  0
    5.5735   -0.7702   -1.3847 C   0  0  0  0  0  0  0  0  0  0  0  0
    5.6966    0.6811   -1.1721 N   0  0  0  0  0  0  0  0  0  0  0  0
    6.5415    1.3166   -2.0417 C   0  0  0  0  0  0  0  0  0  0  0  0
    7.1168    0.7000   -2.9347 O   0  0  0  0  0  0  0  0  0  0  0  0
    6.7629    2.8356   -1.9301 C   0  0  0  0  0  0  0  0  0  0  0  0
    5.7085    3.6034   -2.5779 N   0  0  0  0  0  0  0  0  0  0  0  0
    5.6877    3.5860   -4.0398 C   0  0  0  0  0  0  0  0  0  0  0  0
    4.3320    4.0308   -4.5731 C   0  0  0  0  0  0  0  0  0  0  0  0
    3.9537    5.3739   -3.9584 C   0  0  0  0  0  0  0  0  0  0  0  0
    4.0749    5.2831   -2.5152 N   0  0  0  0  0  0  0  0  0  0  0  0
    4.9763    4.5052   -1.8249 C   0  0  0  0  0  0  0  0  0  0  0  0
    5.0860    4.5937   -0.6047 O   0  0  0  0  0  0  0  0  0  0  0  0
    4.9393    1.3493   -0.1153 C   0  0  0  0  0  0  0  0  0  0  0  0
    3.4270    1.4515   -0.3774 C   0  0  0  0  0  0  0  0  0  0  0  0
    0.4431   -0.3351   -0.3280 H   0  0  0  0  0  0  0  0  0  0  0  0
    1.0922    0.6883   -1.6326 H   0  0  0  0  0  0  0  0  0  0  0  0
    0.7068    1.4031   -0.0483 H   0  0  0  0  0  0  0  0  0  0  0  0
    1.8636   -0.8977    1.6954 H   0  0  0  0  0  0  0  0  0  0  0  0
    2.0890    0.8445    1.9828 H   0  0  0  0  0  0  0  0  0  0  0  0
    3.4962   -0.2306    1.8922 H   0  0  0  0  0  0  0  0  0  0  0  0
    2.9205   -0.9075   -1.8881 H   0  0  0  0  0  0  0  0  0  0  0  0
    2.3905   -1.8844   -0.5225 H   0  0  0  0  0  0  0  0  0  0  0  0
    4.6073   -2.5478   -0.8030 H   0  0  0  0  0  0  0  0  0  0  0  0
    4.7548   -1.4222    0.5270 H   0  0  0  0  0  0  0  0  0  0  0  0
    5.3722   -0.9390   -2.4556 H   0  0  0  0  0  0  0  0  0  0  0  0
    6.5586   -1.2362   -1.2038 H   0  0  0  0  0  0  0  0  0  0  0  0
    7.7198    3.0144   -2.4471 H   0  0  0  0  0  0  0  0  0  0  0  0
    6.8516    3.1916   -0.8979 H   0  0  0  0  0  0  0  0  0  0  0  0
    5.9252    2.5645   -4.3737 H   0  0  0  0  0  0  0  0  0  0  0  0
    6.4886    4.2415   -4.4402 H   0  0  0  0  0  0  0  0  0  0  0  0
    3.5677    3.2787   -4.3159 H   0  0  0  0  0  0  0  0  0  0  0  0
    4.3679    4.1084   -5.6707 H   0  0  0  0  0  0  0  0  0  0  0  0
    2.9159    5.6422   -4.2151 H   0  0  0  0  0  0  0  0  0  0  0  0
    4.6031    6.1714   -4.3734 H   0  0  0  0  0  0  0  0  0  0  0  0
    3.6125    5.9664   -1.9276 H   0  0  0  0  0  0  0  0  0  0  0  0
    5.3150    2.3719   -0.0103 H   0  0  0  0  0  0  0  0  0  0  0  0
    5.1367    0.8495    0.8476 H   0  0  0  0  0  0  0  0  0  0  0  0
    3.2930    1.7363   -1.4354 H   0  0  0  0  0  0  0  0  0  0  0  0
    3.0478    2.3029    0.2136 H   0  0  0  0  0  0  0  0  0  0  0  0
  2  1  1  6
  1 20  1  0
  1 21  1  0
  1 22  1  0
  2  3  1  0
  2  4  1  0
  2 19  1  0
  3 23  1  0
  3 24  1  0
  3 25  1  0
  4  5  1  0
  4 26  1  0
  4 27  1  0
  5  6  1  0
  5 28  1  0
  5 29  1  0
  6  7  1  0
  6 30  1  0
  6 31  1  0
  7  8  1  0
  7 18  1  0
  8  9  2  0
  8 10  1  0
 10 11  1  0
 10 32  1  0
 10 33  1  0
 11 12  1  0
 11 16  1  0
 12 13  1  0
 12 34  1  0
 12 35  1  0
 13 14  1  0
 13 36  1  0
 13 37  1  0
 14 15  1  0
 14 38  1  0
 14 39  1  0
 15 16  1  0
 15 40  1  0
 16 17  2  0
 18 19  1  0
 18 41  1  0
 18 42  1  0
 19 43  1  0
 19 44  1  0
M  END

