
     RDKit          3D

 44 47  0  0  0  0  0  0  0  0999 V2000
    0.5555    0.3639    0.5745 O   0  0  0  0  0  0  0  0  0  0  0  0
    1.8975    0.4717    0.1265 C   0  0  1  0  0  0  0  0  0  0  0  0
    2.2406    1.9618    0.0026 C   0  0  0  0  0  0  0  0  0  0  0  0
    1.4425    2.7255   -1.0642 C   0  0  1  0  0  0  0  0  0  0  0  0
   -0.0192    3.0282   -0.7055 C   0  0  0  0  0  0  0  0  0  0  0  0
   -0.3596    4.2066   -1.6214 C   0  0  0  0  0  0  0  0  0  0  0  0
    0.9457    5.0190   -1.6528 C   0  0  0  0  0  0  0  0  0  0  0  0
    2.0092    4.0622   -1.3023 N   0  0  0  0  0  0  0  0  0  0  0  0
    3.2104    4.1363   -2.1026 C   0  0  0  0  0  0  0  0  0  0  0  0
    4.1081    5.2960   -1.7445 C   0  0  0  0  0  0  0  0  0  0  0  0
    4.0697    6.0057   -0.5719 C   0  0  0  0  0  0  0  0  0  0  0  0
    5.3128    7.2136   -0.5739 S   0  0  0  0  0  0  0  0  0  0  0  0
    5.8021    6.6703   -2.1703 C   0  0  0  0  0  0  0  0  0  0  0  0
    6.9270    7.3104   -2.8882 C   0  0  1  0  0  0  0  0  0  0  0  0
    7.8098    6.4602   -3.7842 C   0  0  0  0  0  0  0  0  0  0  0  0
    6.8604    7.4399   -4.3996 C   0  0  0  0  0  0  0  0  0  0  0  0
    5.0855    5.6845   -2.6304 N   0  0  0  0  0  0  0  0  0  0  0  0
    2.8262   -0.2573    1.0744 C   0  0  0  0  0  0  0  0  0  0  0  0
    2.6326   -0.4974    2.4145 C   0  0  0  0  0  0  0  0  0  0  0  0
    3.7257   -1.1861    3.0264 C   0  0  0  0  0  0  0  0  0  0  0  0
    4.7391   -1.4590    2.1446 C   0  0  0  0  0  0  0  0  0  0  0  0
    4.3664   -0.8847    0.5529 S   0  0  0  0  0  0  0  0  0  0  0  0
    0.3468   -0.5757    0.6664 H   0  0  0  0  0  0  0  0  0  0  0  0
    2.0035    0.0191   -0.8823 H   0  0  0  0  0  0  0  0  0  0  0  0
    3.3143    2.0284   -0.2346 H   0  0  0  0  0  0  0  0  0  0  0  0
    2.1061    2.4448    0.9846 H   0  0  0  0  0  0  0  0  0  0  0  0
    1.4568    2.1187   -2.0013 H   0  0  0  0  0  0  0  0  0  0  0  0
   -0.0795    3.3284    0.3541 H   0  0  0  0  0  0  0  0  0  0  0  0
   -0.6701    2.1541   -0.8333 H   0  0  0  0  0  0  0  0  0  0  0  0
   -1.2230    4.7955   -1.2758 H   0  0  0  0  0  0  0  0  0  0  0  0
   -0.5990    3.8362   -2.6323 H   0  0  0  0  0  0  0  0  0  0  0  0
    0.9156    5.8604   -0.9359 H   0  0  0  0  0  0  0  0  0  0  0  0
    1.1252    5.4650   -2.6492 H   0  0  0  0  0  0  0  0  0  0  0  0
    2.9973    4.1994   -3.1940 H   0  0  0  0  0  0  0  0  0  0  0  0
    3.7916    3.2071   -1.9705 H   0  0  0  0  0  0  0  0  0  0  0  0
    3.3891    5.8657    0.2640 H   0  0  0  0  0  0  0  0  0  0  0  0
    7.4119    8.1238   -2.3417 H   0  0  0  0  0  0  0  0  0  0  0  0
    7.5508    5.3999   -3.8434 H   0  0  0  0  0  0  0  0  0  0  0  0
    8.8808    6.6821   -3.7945 H   0  0  0  0  0  0  0  0  0  0  0  0
    5.9601    7.0414   -4.8745 H   0  0  0  0  0  0  0  0  0  0  0  0
    7.2591    8.3556   -4.8455 H   0  0  0  0  0  0  0  0  0  0  0  0
    1.7281   -0.1833    2.9369 H   0  0  0  0  0  0  0  0  0  0  0  0
    3.7564   -1.4672    4.0806 H   0  0  0  0  0  0  0  0  0  0  0  0
    5.6828   -1.9686    2.3339 H   0  0  0  0  0  0  0  0  0  0  0  0
  1  2  1  0
  1 23  1  0
  2  3  1  0
  2 18  1  0
  2 24  1  6
  3  4  1  0
  3 25  1  0
  3 26  1  0
  4  5  1  0
  4  8  1  0
  4 27  1  6
  5  6  1  0
  5 28  1  0
  5 29  1  0
  6  7  1  0
  6 30  1  0
  6 31  1  0
  7  8  1  0
  7 32  1  0
  7 33  1  0
  8  9  1  0
  9 10  1  0
  9 34  1  0
  9 35  1  0
 10 11  2  0
 10 17  1  0
 11 12  1  0
 11 36  1  0
 12 13  1  0
 13 14  1  0
 13 17  2  0
 14 15  1  0
 14 16  1  0
 14 37  1  1
 15 16  1  0
 15 38  1  0
 15 39  1  0
 16 40  1  0
 16 41  1  0
 18 19  2  0
 18 22  1  0
 19 20  1  0
 19 42  1  0
 20 21  2  0
 20 43  1  0
 21 22  1  0
 21 44  1  0
M  END

