
     RDKit          3D

 63 66  0  0  0  0  0  0  0  0999 V2000
    2.0653    2.4093   -0.1321 C   0  0  0  0  0  0  0  0  0  0  0  0
    3.4392    1.8092    0.1176 C   0  0  0  0  0  0  0  0  0  0  0  0
    4.1163    1.4878   -1.1062 O   0  0  0  0  0  0  0  0  0  0  0  0
    3.8217    0.2879   -1.6676 C   0  0  0  0  0  0  0  0  0  0  0  0
    3.0520   -0.5136   -1.1745 O   0  0  0  0  0  0  0  0  0  0  0  0
    4.4915    0.1010   -2.8456 N   0  0  0  0  0  0  0  0  0  0  0  0
    4.3557   -1.1600   -3.5596 C   0  0  0  0  0  0  0  0  0  0  0  0
    4.1049   -0.9040   -5.0436 C   0  0  0  0  0  0  0  0  0  0  0  0
    5.1343   -0.0293   -5.6051 N   0  0  0  0  0  0  0  0  0  0  0  0
    5.2722   -0.0159   -7.0169 C   0  0  0  0  0  0  0  0  0  0  0  0
    5.1932    1.1544   -7.7843 C   0  0  0  0  0  0  0  0  0  0  0  0
    5.3681    1.1213   -9.1728 C   0  0  0  0  0  0  0  0  0  0  0  0
    5.6255   -0.0797   -9.8503 C   0  0  0  0  0  0  0  0  0  0  0  0
    5.8459   -0.1390  -11.2317 N   0  0  0  0  0  0  0  0  0  0  0  0
    5.6218    1.0087  -12.0830 C   0  0  0  0  0  0  0  0  0  0  0  0
    6.0804    0.7762  -13.5006 C   0  0  0  0  0  0  0  0  0  0  0  0
    6.9522   -0.1993  -13.8798 C   0  0  0  0  0  0  0  0  0  0  0  0
    7.3742   -0.3728  -15.2454 C   0  0  0  0  0  0  0  0  0  0  0  0
    8.2700   -1.3723  -15.6667 C   0  0  0  0  0  0  0  0  0  0  0  0
    8.6524   -1.5021  -16.9968 C   0  0  0  0  0  0  0  0  0  0  0  0
    8.1300   -0.6077  -17.9572 C   0  0  0  0  0  0  0  0  0  0  0  0
    8.4357   -0.6467  -19.2749 O   0  0  0  0  0  0  0  0  0  0  0  0
    9.3304   -1.6260  -19.7578 C   0  0  0  0  0  0  0  0  0  0  0  0
    7.2377    0.3978  -17.5682 C   0  0  0  0  0  0  0  0  0  0  0  0
    6.8600    0.5199  -16.2259 C   0  0  0  0  0  0  0  0  0  0  0  0
    5.9863    1.5011  -15.8065 N   0  0  0  0  0  0  0  0  0  0  0  0
    5.6135    2.1588  -16.4857 H   0  0  0  0  0  0  0  0  0  0  0  0
    5.5512    1.7216  -14.5012 C   0  0  0  0  0  0  0  0  0  0  0  0
    4.7889    2.6440  -14.2476 O   0  0  0  0  0  0  0  0  0  0  0  0
    5.7036   -1.2779   -9.0872 C   0  0  0  0  0  0  0  0  0  0  0  0
    6.0070   -2.5880   -9.7692 C   0  0  0  0  0  0  0  0  0  0  0  0
    5.5334   -1.2191   -7.7053 C   0  0  0  0  0  0  0  0  0  0  0  0
    5.2085    1.2393   -4.9003 C   0  0  0  0  0  0  0  0  0  0  0  0
    5.4732    1.0167   -3.4089 C   0  0  0  0  0  0  0  0  0  0  0  0
    1.6083    2.7143    0.8234 H   0  0  0  0  0  0  0  0  0  0  0  0
    1.4031    1.6714   -0.6082 H   0  0  0  0  0  0  0  0  0  0  0  0
    2.1337    3.2978   -0.7796 H   0  0  0  0  0  0  0  0  0  0  0  0
    3.3616    0.9010    0.7332 H   0  0  0  0  0  0  0  0  0  0  0  0
    4.1020    2.5285    0.6217 H   0  0  0  0  0  0  0  0  0  0  0  0
    3.5269   -1.7208   -3.1105 H   0  0  0  0  0  0  0  0  0  0  0  0
    5.2832   -1.7539   -3.4456 H   0  0  0  0  0  0  0  0  0  0  0  0
    3.0945   -0.4545   -5.1692 H   0  0  0  0  0  0  0  0  0  0  0  0
    4.1023   -1.8633   -5.5779 H   0  0  0  0  0  0  0  0  0  0  0  0
    4.9751    2.1144   -7.3152 H   0  0  0  0  0  0  0  0  0  0  0  0
    5.2833    2.0567   -9.7266 H   0  0  0  0  0  0  0  0  0  0  0  0
    5.5401   -1.0099  -11.6541 H   0  0  0  0  0  0  0  0  0  0  0  0
    6.1820    1.8715  -11.6788 H   0  0  0  0  0  0  0  0  0  0  0  0
    4.5654    1.3437  -12.1087 H   0  0  0  0  0  0  0  0  0  0  0  0
    7.3588   -0.8747  -13.1218 H   0  0  0  0  0  0  0  0  0  0  0  0
    8.6740   -2.0627  -14.9214 H   0  0  0  0  0  0  0  0  0  0  0  0
    9.3489   -2.2893  -17.2826 H   0  0  0  0  0  0  0  0  0  0  0  0
    9.4203   -1.4581  -20.8393 H   0  0  0  0  0  0  0  0  0  0  0  0
    8.9519   -2.6492  -19.5854 H   0  0  0  0  0  0  0  0  0  0  0  0
   10.3299   -1.5320  -19.2973 H   0  0  0  0  0  0  0  0  0  0  0  0
    6.8493    1.0772  -18.3295 H   0  0  0  0  0  0  0  0  0  0  0  0
    6.9517   -2.5366  -10.3384 H   0  0  0  0  0  0  0  0  0  0  0  0
    5.2170   -2.8762  -10.4882 H   0  0  0  0  0  0  0  0  0  0  0  0
    6.0934   -3.4070   -9.0410 H   0  0  0  0  0  0  0  0  0  0  0  0
    5.6370   -2.1437   -7.1317 H   0  0  0  0  0  0  0  0  0  0  0  0
    4.2744    1.8352   -5.0126 H   0  0  0  0  0  0  0  0  0  0  0  0
    6.0337    1.8353   -5.3179 H   0  0  0  0  0  0  0  0  0  0  0  0
    5.4306    1.9690   -2.8697 H   0  0  0  0  0  0  0  0  0  0  0  0
    6.4885    0.5927   -3.2858 H   0  0  0  0  0  0  0  0  0  0  0  0
  1  2  1  0
  1 35  1  0
  1 36  1  0
  1 37  1  0
  2  3  1  0
  2 38  1  0
  2 39  1  0
  3  4  1  0
  4  5  2  0
  4  6  1  0
  6  7  1  0
  6 34  1  0
  7  8  1  0
  7 40  1  0
  7 41  1  0
  8  9  1  0
  8 42  1  0
  8 43  1  0
  9 10  1  0
  9 33  1  0
 10 11  2  0
 10 32  1  0
 11 12  1  0
 11 44  1  0
 12 13  2  0
 12 45  1  0
 13 14  1  0
 13 30  1  0
 14 15  1  0
 14 46  1  0
 15 16  1  0
 15 47  1  0
 15 48  1  0
 16 17  2  0
 16 28  1  0
 17 18  1  0
 17 49  1  0
 18 19  2  0
 18 25  1  0
 19 20  1  0
 19 50  1  0
 20 21  2  0
 20 51  1  0
 21 22  1  0
 21 24  1  0
 22 23  1  0
 23 52  1  0
 23 53  1  0
 23 54  1  0
 24 25  2  0
 24 55  1  0
 25 26  1  0
 26 27  1  0
 26 28  1  0
 28 29  2  0
 30 31  1  0
 30 32  2  0
 31 56  1  0
 31 57  1  0
 31 58  1  0
 32 59  1  0
 33 34  1  0
 33 60  1  0
 33 61  1  0
 34 62  1  0
 34 63  1  0
M  END

