
     RDKit          3D

 36 37  0  0  0  0  0  0  0  0999 V2000
    1.6181    0.1826    1.4782 C   0  0  0  0  0  0  0  0  0  0  0  0
    2.2692   -0.1082    0.2578 O   0  0  0  0  0  0  0  0  0  0  0  0
    2.7378    0.9041   -0.5057 C   0  0  0  0  0  0  0  0  0  0  0  0
    2.6516    2.2607   -0.1628 C   0  0  0  0  0  0  0  0  0  0  0  0
    3.1390    3.2471   -1.0261 C   0  0  0  0  0  0  0  0  0  0  0  0
    3.7127    2.8682   -2.2379 C   0  0  0  0  0  0  0  0  0  0  0  0
    4.3113    4.1161   -3.3721 S   0  0  1  0  0  0  0  0  0  0  0  0
    4.4622    5.3625   -2.6225 O   0  0  0  0  0  0  0  0  0  0  0  0
    5.3946    3.5367   -4.1627 O   0  0  0  0  0  0  0  0  0  0  0  0
    3.0774    4.3608   -4.5120 N   0  0  0  0  0  0  0  0  0  0  0  0
    1.7826    4.8278   -4.2188 C   0  0  0  0  0  0  0  0  0  0  0  0
    1.5374    5.9214   -3.3791 C   0  0  0  0  0  0  0  0  0  0  0  0
    0.2226    6.3394   -3.1528 C   0  0  0  0  0  0  0  0  0  0  0  0
   -0.0685    7.6980   -2.0862 Cl  0  0  0  0  0  0  0  0  0  0  0  0
   -0.8556    5.7050   -3.7694 C   0  0  0  0  0  0  0  0  0  0  0  0
   -0.6079    4.6250   -4.6231 C   0  0  0  0  0  0  0  0  0  0  0  0
    0.6938    4.1761   -4.8441 C   0  0  0  0  0  0  0  0  0  0  0  0
    1.0052    3.1261   -5.6571 O   0  0  0  0  0  0  0  0  0  0  0  0
    3.8299    1.5163   -2.5896 C   0  0  0  0  0  0  0  0  0  0  0  0
    3.3465    0.5289   -1.7363 C   0  0  0  0  0  0  0  0  0  0  0  0
    3.4168   -0.7727   -2.1281 O   0  0  0  0  0  0  0  0  0  0  0  0
    4.2579   -1.6434   -1.3810 C   0  0  0  0  0  0  0  0  0  0  0  0
    1.3126   -0.7820    1.9041 H   0  0  0  0  0  0  0  0  0  0  0  0
    0.7212    0.8068    1.3208 H   0  0  0  0  0  0  0  0  0  0  0  0
    2.2908    0.6932    2.1896 H   0  0  0  0  0  0  0  0  0  0  0  0
    2.1986    2.5626    0.7814 H   0  0  0  0  0  0  0  0  0  0  0  0
    3.0837    4.3013   -0.7533 H   0  0  0  0  0  0  0  0  0  0  0  0
    3.1115    3.6448   -5.2353 H   0  0  0  0  0  0  0  0  0  0  0  0
    2.3765    6.4374   -2.9152 H   0  0  0  0  0  0  0  0  0  0  0  0
   -1.8742    6.0505   -3.5898 H   0  0  0  0  0  0  0  0  0  0  0  0
   -1.4434    4.1170   -5.1146 H   0  0  0  0  0  0  0  0  0  0  0  0
    0.2038    2.7630   -6.0550 H   0  0  0  0  0  0  0  0  0  0  0  0
    4.3047    1.2145   -3.5242 H   0  0  0  0  0  0  0  0  0  0  0  0
    4.2272   -2.6176   -1.8882 H   0  0  0  0  0  0  0  0  0  0  0  0
    3.9064   -1.7630   -0.3445 H   0  0  0  0  0  0  0  0  0  0  0  0
    5.3002   -1.2770   -1.3742 H   0  0  0  0  0  0  0  0  0  0  0  0
  1  2  1  0
  1 23  1  0
  1 24  1  0
  1 25  1  0
  2  3  1  0
  3  4  2  0
  3 20  1  0
  4  5  1  0
  4 26  1  0
  5  6  2  0
  5 27  1  0
  6  7  1  0
  6 19  1  0
  7  8  2  0
  7  9  2  0
  7 10  1  6
 10 11  1  0
 10 28  1  0
 11 12  2  0
 11 17  1  0
 12 13  1  0
 12 29  1  0
 13 14  1  0
 13 15  2  0
 15 16  1  0
 15 30  1  0
 16 17  2  0
 16 31  1  0
 17 18  1  0
 18 32  1  0
 19 20  2  0
 19 33  1  0
 20 21  1  0
 21 22  1  0
 22 34  1  0
 22 35  1  0
 22 36  1  0
M  END

