
     RDKit          3D

 56 59  0  0  0  0  0  0  0  0999 V2000
    2.0352   -2.3590    1.1549 C   0  0  0  0  0  0  0  0  0  0  0  0
    3.0379   -1.3359    0.6727 C   0  0  0  0  0  0  0  0  0  0  0  0
    3.2696   -0.1823    1.3297 C   0  0  0  0  0  0  0  0  0  0  0  0
    2.6571    0.2076    2.5245 N   0  0  0  0  0  0  0  0  0  0  0  0
    2.9406    1.4293    3.1215 C   0  0  0  0  0  0  0  0  0  0  0  0
    3.7644    2.1982    2.6490 O   0  0  0  0  0  0  0  0  0  0  0  0
    2.2270    1.7245    4.2745 N   0  0  0  0  0  0  0  0  0  0  0  0
    2.6981    2.8421    5.0922 C   0  0  0  0  0  0  0  0  0  0  0  0
    1.5146    3.6199    5.6760 C   0  0  0  0  0  0  0  0  0  0  0  0
    0.5599    2.7765    6.3890 N   0  0  0  0  0  0  0  0  0  0  0  0
    0.9424    2.3821    7.7391 C   0  0  0  0  0  0  0  0  0  0  0  0
   -0.2378    1.9567    8.5999 C   0  0  0  0  0  0  0  0  0  0  0  0
   -1.4609    2.6357    8.5174 C   0  0  0  0  0  0  0  0  0  0  0  0
   -2.5540    2.3047    9.3408 C   0  0  0  0  0  0  0  0  0  0  0  0
   -2.3696    1.2773   10.2494 C   0  0  0  0  0  0  0  0  0  0  0  0
   -1.1559    0.5925   10.3391 C   0  0  0  0  0  0  0  0  0  0  0  0
   -0.0787    0.9023    9.5280 C   0  0  0  0  0  0  0  0  0  0  0  0
   -1.2620   -0.3929   11.2836 O   0  0  0  0  0  0  0  0  0  0  0  0
   -2.5168   -0.1858   11.9261 C   0  0  0  0  0  0  0  0  0  0  0  0
   -3.2614    0.7354   11.1359 O   0  0  0  0  0  0  0  0  0  0  0  0
    0.1018    1.6978    5.5253 C   0  0  0  0  0  0  0  0  0  0  0  0
    1.2401    0.8593    4.9091 C   0  0  0  0  0  0  0  0  0  0  0  0
    3.7782   -1.6862   -0.6000 C   0  0  1  0  0  0  0  0  0  0  0  0
    4.7995   -0.6776   -1.1484 C   0  0  0  0  0  0  0  0  0  0  0  0
    5.5478   -1.4602   -2.2447 C   0  0  0  0  0  0  0  0  0  0  0  0
    5.5139   -2.9495   -1.7913 C   0  0  0  0  0  0  0  0  0  0  0  0
    4.6228   -2.9832   -0.5275 C   0  0  0  0  0  0  0  0  0  0  0  0
    1.2487   -1.9208    1.7917 H   0  0  0  0  0  0  0  0  0  0  0  0
    2.5095   -3.1755    1.7298 H   0  0  0  0  0  0  0  0  0  0  0  0
    1.5209   -2.8344    0.3028 H   0  0  0  0  0  0  0  0  0  0  0  0
    3.9738    0.5672    0.9700 H   0  0  0  0  0  0  0  0  0  0  0  0
    2.0872   -0.4686    3.0119 H   0  0  0  0  0  0  0  0  0  0  0  0
    3.3188    3.4817    4.4527 H   0  0  0  0  0  0  0  0  0  0  0  0
    3.3447    2.4633    5.9104 H   0  0  0  0  0  0  0  0  0  0  0  0
    0.9792    4.1192    4.8485 H   0  0  0  0  0  0  0  0  0  0  0  0
    1.8826    4.4075    6.3528 H   0  0  0  0  0  0  0  0  0  0  0  0
    1.4213    3.2619    8.2051 H   0  0  0  0  0  0  0  0  0  0  0  0
    1.7088    1.5773    7.7740 H   0  0  0  0  0  0  0  0  0  0  0  0
   -1.5582    3.4377    7.7831 H   0  0  0  0  0  0  0  0  0  0  0  0
   -3.5073    2.8309    9.2688 H   0  0  0  0  0  0  0  0  0  0  0  0
    0.8586    0.3473    9.6070 H   0  0  0  0  0  0  0  0  0  0  0  0
   -2.3520    0.2374   12.9378 H   0  0  0  0  0  0  0  0  0  0  0  0
   -3.0610   -1.1415   11.9964 H   0  0  0  0  0  0  0  0  0  0  0  0
   -0.4780    2.1427    4.6970 H   0  0  0  0  0  0  0  0  0  0  0  0
   -0.5783    1.0396    6.0873 H   0  0  0  0  0  0  0  0  0  0  0  0
    0.7831    0.1924    4.1643 H   0  0  0  0  0  0  0  0  0  0  0  0
    1.7121    0.2193    5.6831 H   0  0  0  0  0  0  0  0  0  0  0  0
    3.0141   -1.8453   -1.3903 H   0  0  0  0  0  0  0  0  0  0  0  0
    5.4994   -0.3928   -0.3441 H   0  0  0  0  0  0  0  0  0  0  0  0
    4.3362    0.2500   -1.5191 H   0  0  0  0  0  0  0  0  0  0  0  0
    6.5722   -1.0859   -2.3944 H   0  0  0  0  0  0  0  0  0  0  0  0
    5.0286   -1.3450   -3.2102 H   0  0  0  0  0  0  0  0  0  0  0  0
    6.5210   -3.3422   -1.5818 H   0  0  0  0  0  0  0  0  0  0  0  0
    5.0924   -3.5863   -2.5854 H   0  0  0  0  0  0  0  0  0  0  0  0
    5.2429   -2.9437    0.3850 H   0  0  0  0  0  0  0  0  0  0  0  0
    4.0104   -3.8962   -0.4624 H   0  0  0  0  0  0  0  0  0  0  0  0
  1  2  1  0
  1 28  1  0
  1 29  1  0
  1 30  1  0
  2  3  2  0
  2 23  1  0
  3  4  1  0
  3 31  1  0
  4  5  1  0
  4 32  1  0
  5  6  2  0
  5  7  1  0
  7  8  1  0
  7 22  1  0
  8  9  1  0
  8 33  1  0
  8 34  1  0
  9 10  1  0
  9 35  1  0
  9 36  1  0
 10 11  1  0
 10 21  1  0
 11 12  1  0
 11 37  1  0
 11 38  1  0
 12 13  2  0
 12 17  1  0
 13 14  1  0
 13 39  1  0
 14 15  2  0
 14 40  1  0
 15 16  1  0
 15 20  1  0
 16 17  2  0
 16 18  1  0
 17 41  1  0
 18 19  1  0
 19 20  1  0
 19 42  1  0
 19 43  1  0
 21 22  1  0
 21 44  1  0
 21 45  1  0
 22 46  1  0
 22 47  1  0
 23 24  1  0
 23 27  1  0
 23 48  1  6
 24 25  1  0
 24 49  1  0
 24 50  1  0
 25 26  1  0
 25 51  1  0
 25 52  1  0
 26 27  1  0
 26 53  1  0
 26 54  1  0
 27 55  1  0
 27 56  1  0
M  END

