
     RDKit          3D

 32 32  0  0  0  0  0  0  0  0999 V2000
    0.8384    0.0698    0.2125 C   0  0  0  0  0  0  0  0  0  0  0  0
    2.3784    0.0515    0.1438 C   0  0  1  0  0  0  0  0  0  0  0  0
    2.9298    0.4370    1.5266 C   0  0  0  0  0  0  0  0  0  0  0  0
    2.8926   -1.3590   -0.2395 C   0  0  0  0  0  0  0  0  0  0  0  0
    2.5781   -1.7648   -1.6850 C   0  0  0  0  0  0  0  0  0  0  0  0
    3.0800   -0.7557   -2.7446 C   0  0  2  0  0  0  0  0  0  0  0  0
    2.5021   -1.1244   -4.1324 C   0  0  0  0  0  0  0  0  0  0  0  0
    2.7837   -2.4392   -4.5436 O   0  0  0  0  0  0  0  0  0  0  0  0
    4.6250   -0.7543   -2.8414 C   0  0  0  0  0  0  0  0  0  0  0  0
    5.1816   -2.0051   -3.2440 O   0  0  0  0  0  0  0  0  0  0  0  0
    2.5954    0.6630   -2.3644 C   0  0  0  0  0  0  0  0  0  0  0  0
    2.8923    1.0630   -0.9113 C   0  0  0  0  0  0  0  0  0  0  0  0
    0.4732   -0.6458    0.9675 H   0  0  0  0  0  0  0  0  0  0  0  0
    0.3635   -0.1924   -0.7445 H   0  0  0  0  0  0  0  0  0  0  0  0
    0.4735    1.0702    0.4981 H   0  0  0  0  0  0  0  0  0  0  0  0
    2.5904   -0.2701    2.3016 H   0  0  0  0  0  0  0  0  0  0  0  0
    2.5932    1.4445    1.8227 H   0  0  0  0  0  0  0  0  0  0  0  0
    4.0324    0.4374    1.5332 H   0  0  0  0  0  0  0  0  0  0  0  0
    2.4684   -2.1058    0.4543 H   0  0  0  0  0  0  0  0  0  0  0  0
    3.9851   -1.3859   -0.0721 H   0  0  0  0  0  0  0  0  0  0  0  0
    1.4878   -1.8771   -1.8096 H   0  0  0  0  0  0  0  0  0  0  0  0
    2.9843   -2.7658   -1.9035 H   0  0  0  0  0  0  0  0  0  0  0  0
    2.8634   -0.3755   -4.8720 H   0  0  0  0  0  0  0  0  0  0  0  0
    1.4028   -1.0262   -4.0997 H   0  0  0  0  0  0  0  0  0  0  0  0
    3.7394   -2.5642   -4.4167 H   0  0  0  0  0  0  0  0  0  0  0  0
    5.0874   -0.4222   -1.8956 H   0  0  0  0  0  0  0  0  0  0  0  0
    4.9306   -0.0314   -3.6153 H   0  0  0  0  0  0  0  0  0  0  0  0
    5.1389   -2.6173   -2.4975 H   0  0  0  0  0  0  0  0  0  0  0  0
    1.5073    0.7128   -2.5424 H   0  0  0  0  0  0  0  0  0  0  0  0
    3.0418    1.4058   -3.0492 H   0  0  0  0  0  0  0  0  0  0  0  0
    2.4571    2.0573   -0.7093 H   0  0  0  0  0  0  0  0  0  0  0  0
    3.9815    1.1834   -0.7752 H   0  0  0  0  0  0  0  0  0  0  0  0
  2  1  1  1
  1 13  1  0
  1 14  1  0
  1 15  1  0
  2  3  1  0
  2  4  1  0
  2 12  1  0
  3 16  1  0
  3 17  1  0
  3 18  1  0
  4  5  1  0
  4 19  1  0
  4 20  1  0
  5  6  1  0
  5 21  1  0
  5 22  1  0
  6  7  1  6
  6  9  1  0
  6 11  1  0
  7  8  1  0
  7 23  1  0
  7 24  1  0
  8 25  1  0
  9 10  1  0
  9 26  1  0
  9 27  1  0
 10 28  1  0
 11 12  1  0
 11 29  1  0
 11 30  1  0
 12 31  1  0
 12 32  1  0
M  END

