
     RDKit          3D

 40 42  0  0  0  0  0  0  0  0999 V2000
    2.1770    2.5795    1.4228 O   0  0  0  0  0  0  0  0  0  0  0  0
    2.2508    2.0789    0.3333 C   0  0  0  0  0  0  0  0  0  0  0  0
    1.1460    1.7913   -0.3848 O   0  0  0  0  0  0  0  0  0  0  0  0
    3.5928    1.7079   -0.3185 C   0  0  1  0  0  0  0  0  0  0  0  0
    4.0049    0.2566    0.0209 C   0  0  0  0  0  0  0  0  0  0  0  0
    3.1777   -0.7702   -0.7620 C   0  0  0  0  0  0  0  0  0  0  0  0
    3.1653   -0.4651   -2.2617 C   0  0  0  0  0  0  0  0  0  0  0  0
    2.7196    0.9205   -2.4999 N   0  0  0  0  0  0  0  0  0  0  0  0
    2.2342    1.1702   -3.8132 C   0  0  0  0  0  0  0  0  0  0  0  0
    2.2438    0.3116   -4.6731 O   0  0  0  0  0  0  0  0  0  0  0  0
    1.7177    2.4367   -3.9775 N   0  0  0  0  0  0  0  0  0  0  0  0
    1.2205    3.0330   -5.1553 C   0  0  0  0  0  0  0  0  0  0  0  0
    1.1983    2.3889   -6.4060 C   0  0  0  0  0  0  0  0  0  0  0  0
    0.6956    3.0756   -7.5138 C   0  0  0  0  0  0  0  0  0  0  0  0
    0.2122    4.3788   -7.4069 C   0  0  0  0  0  0  0  0  0  0  0  0
    0.2277    5.0261   -6.1590 C   0  0  0  0  0  0  0  0  0  0  0  0
   -0.2665    6.3999   -5.9733 C   0  0  0  0  0  0  0  0  0  0  0  0
   -0.2448    7.0402   -4.8334 N   0  0  0  0  0  0  0  0  0  0  0  0
   -0.7661    8.2967   -4.9429 C   0  0  0  0  0  0  0  0  0  0  0  0
   -1.2055    8.6531   -6.1922 C   0  0  0  0  0  0  0  0  0  0  0  0
   -0.9553    7.3449   -7.2929 S   0  0  0  0  0  0  0  0  0  0  0  0
    0.7354    4.3437   -5.0437 C   0  0  0  0  0  0  0  0  0  0  0  0
    3.6029    1.9056   -1.8426 C   0  0  0  0  0  0  0  0  0  0  0  0
    1.4139    1.3462   -1.2214 H   0  0  0  0  0  0  0  0  0  0  0  0
    4.3233    2.3962    0.1311 H   0  0  0  0  0  0  0  0  0  0  0  0
    3.9223    0.0894    1.1060 H   0  0  0  0  0  0  0  0  0  0  0  0
    5.0721    0.1405   -0.2389 H   0  0  0  0  0  0  0  0  0  0  0  0
    2.1415   -0.7914   -0.3838 H   0  0  0  0  0  0  0  0  0  0  0  0
    3.5856   -1.7822   -0.6083 H   0  0  0  0  0  0  0  0  0  0  0  0
    2.4922   -1.1379   -2.8060 H   0  0  0  0  0  0  0  0  0  0  0  0
    4.1756   -0.6090   -2.6930 H   0  0  0  0  0  0  0  0  0  0  0  0
    1.5869    2.9922   -3.1404 H   0  0  0  0  0  0  0  0  0  0  0  0
    1.5617    1.3682   -6.4936 H   0  0  0  0  0  0  0  0  0  0  0  0
    0.6797    2.5729   -8.4839 H   0  0  0  0  0  0  0  0  0  0  0  0
   -0.1761    4.8889   -8.2916 H   0  0  0  0  0  0  0  0  0  0  0  0
   -0.8100    8.9427   -4.0637 H   0  0  0  0  0  0  0  0  0  0  0  0
   -1.6525    9.5916   -6.5151 H   0  0  0  0  0  0  0  0  0  0  0  0
    0.7417    4.8647   -4.0833 H   0  0  0  0  0  0  0  0  0  0  0  0
    3.2936    2.9267   -2.1022 H   0  0  0  0  0  0  0  0  0  0  0  0
    4.6384    1.7847   -2.2171 H   0  0  0  0  0  0  0  0  0  0  0  0
  1  2  2  0
  2  3  1  0
  2  4  1  0
  3 24  1  0
  4  5  1  0
  4 23  1  0
  4 25  1  1
  5  6  1  0
  5 26  1  0
  5 27  1  0
  6  7  1  0
  6 28  1  0
  6 29  1  0
  7  8  1  0
  7 30  1  0
  7 31  1  0
  8  9  1  0
  8 23  1  0
  9 10  2  0
  9 11  1  0
 11 12  1  0
 11 32  1  0
 12 13  2  0
 12 22  1  0
 13 14  1  0
 13 33  1  0
 14 15  2  0
 14 34  1  0
 15 16  1  0
 15 35  1  0
 16 17  1  0
 16 22  2  0
 17 18  2  0
 17 21  1  0
 18 19  1  0
 19 20  2  0
 19 36  1  0
 20 21  1  0
 20 37  1  0
 22 38  1  0
 23 39  1  0
 23 40  1  0
M  END

