
     RDKit          3D

 39 40  0  0  0  0  0  0  0  0999 V2000
    2.0075    1.8467    1.6296 C   0  0  0  0  0  0  0  0  0  0  0  0
    2.5579    1.2591    0.3282 C   0  0  0  0  0  0  0  0  0  0  0  0
    3.2992    0.0149    0.5087 N   0  0  0  0  0  0  0  0  0  0  0  0
    4.5629   -0.0320    1.0040 C   0  0  0  0  0  0  0  0  0  0  0  0
    5.2195    1.1210    1.1716 N   0  0  0  0  0  0  0  0  0  0  0  0
    6.4453    1.1071    1.7021 C   0  0  0  0  0  0  0  0  0  0  0  0
    7.1099    2.4434    1.9413 C   0  0  1  0  0  0  0  0  0  0  0  0
    6.6704    3.5736    1.0178 C   0  0  0  0  0  0  0  0  0  0  0  0
    6.7589    2.9874    3.6958 S   0  0  1  0  0  0  0  0  0  0  0  0
    7.8182    1.9385    4.7142 C   0  0  0  0  0  0  0  0  0  0  0  0
    7.2443    4.3706    3.8317 O   0  0  0  0  0  0  0  0  0  0  0  0
    5.3596    2.6599    4.0167 O   0  0  0  0  0  0  0  0  0  0  0  0
    7.1296    0.0258    2.0829 N   0  0  0  0  0  0  0  0  0  0  0  0
    6.4927   -1.1302    1.8805 C   0  0  0  0  0  0  0  0  0  0  0  0
    7.1726   -2.6986    2.2765 S   0  0  0  0  0  0  0  0  0  0  0  0
    5.7195   -3.5226    1.7086 C   0  0  0  0  0  0  0  0  0  0  0  0
    5.6326   -5.0222    1.7493 C   0  0  0  0  0  0  0  0  0  0  0  0
    6.6065   -5.7417    0.8034 C   0  0  0  0  0  0  0  0  0  0  0  0
    4.7830   -2.6375    1.2485 C   0  0  0  0  0  0  0  0  0  0  0  0
    5.2007   -1.2661    1.3389 C   0  0  0  0  0  0  0  0  0  0  0  0
    1.4462    2.7720    1.4217 H   0  0  0  0  0  0  0  0  0  0  0  0
    2.8269    2.0904    2.3228 H   0  0  0  0  0  0  0  0  0  0  0  0
    1.3230    1.1412    2.1291 H   0  0  0  0  0  0  0  0  0  0  0  0
    3.2323    1.9823   -0.1516 H   0  0  0  0  0  0  0  0  0  0  0  0
    1.7422    1.0496   -0.3827 H   0  0  0  0  0  0  0  0  0  0  0  0
    2.7719   -0.8482    0.5141 H   0  0  0  0  0  0  0  0  0  0  0  0
    8.2011    2.3057    1.9250 H   0  0  0  0  0  0  0  0  0  0  0  0
    5.5874    3.7372    1.0960 H   0  0  0  0  0  0  0  0  0  0  0  0
    6.8989    3.3063   -0.0251 H   0  0  0  0  0  0  0  0  0  0  0  0
    7.1957    4.5023    1.2768 H   0  0  0  0  0  0  0  0  0  0  0  0
    8.8630    2.2312    4.5501 H   0  0  0  0  0  0  0  0  0  0  0  0
    7.6493    0.8880    4.4484 H   0  0  0  0  0  0  0  0  0  0  0  0
    7.5106    2.1494    5.7475 H   0  0  0  0  0  0  0  0  0  0  0  0
    4.5959   -5.3022    1.4995 H   0  0  0  0  0  0  0  0  0  0  0  0
    5.8037   -5.3727    2.7828 H   0  0  0  0  0  0  0  0  0  0  0  0
    6.4313   -5.4485   -0.2436 H   0  0  0  0  0  0  0  0  0  0  0  0
    6.4855   -6.8338    0.8791 H   0  0  0  0  0  0  0  0  0  0  0  0
    7.6538   -5.5016    1.0462 H   0  0  0  0  0  0  0  0  0  0  0  0
    3.8214   -2.9721    0.8531 H   0  0  0  0  0  0  0  0  0  0  0  0
  1  2  1  0
  1 21  1  0
  1 22  1  0
  1 23  1  0
  2  3  1  0
  2 24  1  0
  2 25  1  0
  3  4  1  0
  3 26  1  0
  4  5  2  0
  4 20  1  0
  5  6  1  0
  6  7  1  0
  6 13  2  0
  7  8  1  0
  7  9  1  0
  7 27  1  1
  8 28  1  0
  8 29  1  0
  8 30  1  0
  9 10  1  1
  9 11  2  0
  9 12  2  0
 10 31  1  0
 10 32  1  0
 10 33  1  0
 13 14  1  0
 14 15  1  0
 14 20  2  0
 15 16  1  0
 16 17  1  0
 16 19  2  0
 17 18  1  0
 17 34  1  0
 17 35  1  0
 18 36  1  0
 18 37  1  0
 18 38  1  0
 19 20  1  0
 19 39  1  0
M  END

