
     RDKit          3D

 38 38  0  0  0  0  0  0  0  0999 V2000
    5.7179    4.1138    0.0010 C   0  0  0  0  0  0  0  0  0  0  0  0
    6.8159    4.3263   -1.0464 C   0  0  1  0  0  0  0  0  0  0  0  0
    6.3396    5.1994   -2.2120 C   0  0  0  0  0  0  0  0  0  0  0  0
    8.0711    4.9190   -0.4030 C   0  0  0  0  0  0  0  0  0  0  0  0
    7.2876    3.0325   -1.5482 O   0  0  0  0  0  0  0  0  0  0  0  0
    6.4703    2.1751   -2.1926 C   0  0  0  0  0  0  0  0  0  0  0  0
    5.2934    2.3552   -2.4449 O   0  0  0  0  0  0  0  0  0  0  0  0
    7.1583    1.0406   -2.5235 N   0  0  0  0  0  0  0  0  0  0  0  0
    6.5550    0.0027   -3.3357 C   0  0  2  0  0  0  0  0  0  0  0  0
    5.4755    0.0348   -3.1057 H   0  0  0  0  0  0  0  0  0  0  0  0
    7.0119   -1.3794   -2.8909 C   0  0  0  0  0  0  0  0  0  0  0  0
    9.1852   -1.7329   -3.0677 I   0  0  0  0  0  0  0  0  0  0  0  0
    6.6996    0.2804   -4.8538 C   0  0  0  0  0  0  0  0  0  0  0  0
    5.8661   -0.6337   -5.7245 C   0  0  0  0  0  0  0  0  0  0  0  0
    4.4746   -0.4492   -5.8108 C   0  0  0  0  0  0  0  0  0  0  0  0
    3.6859   -1.2967   -6.5921 C   0  0  0  0  0  0  0  0  0  0  0  0
    4.2753   -2.3463   -7.3051 C   0  0  0  0  0  0  0  0  0  0  0  0
    5.6571   -2.5395   -7.2306 C   0  0  0  0  0  0  0  0  0  0  0  0
    6.4445   -1.6900   -6.4461 C   0  0  0  0  0  0  0  0  0  0  0  0
    5.4437    5.0797    0.4534 H   0  0  0  0  0  0  0  0  0  0  0  0
    6.0777    3.4512    0.8038 H   0  0  0  0  0  0  0  0  0  0  0  0
    4.8225    3.6686   -0.4511 H   0  0  0  0  0  0  0  0  0  0  0  0
    6.0914    6.2073   -1.8442 H   0  0  0  0  0  0  0  0  0  0  0  0
    5.4506    4.7689   -2.6899 H   0  0  0  0  0  0  0  0  0  0  0  0
    7.1360    5.2988   -2.9664 H   0  0  0  0  0  0  0  0  0  0  0  0
    7.8508    5.9102    0.0213 H   0  0  0  0  0  0  0  0  0  0  0  0
    8.8736    5.0285   -1.1482 H   0  0  0  0  0  0  0  0  0  0  0  0
    8.4376    4.2668    0.4042 H   0  0  0  0  0  0  0  0  0  0  0  0
    8.1610    1.0269   -2.3654 H   0  0  0  0  0  0  0  0  0  0  0  0
    6.5607   -2.1711   -3.4991 H   0  0  0  0  0  0  0  0  0  0  0  0
    6.8069   -1.5485   -1.8278 H   0  0  0  0  0  0  0  0  0  0  0  0
    7.7637    0.2157   -5.1324 H   0  0  0  0  0  0  0  0  0  0  0  0
    6.3839    1.3237   -5.0094 H   0  0  0  0  0  0  0  0  0  0  0  0
    4.0083    0.3758   -5.2635 H   0  0  0  0  0  0  0  0  0  0  0  0
    2.6064   -1.1339   -6.6497 H   0  0  0  0  0  0  0  0  0  0  0  0
    3.6593   -3.0081   -7.9194 H   0  0  0  0  0  0  0  0  0  0  0  0
    6.1277   -3.3538   -7.7880 H   0  0  0  0  0  0  0  0  0  0  0  0
    7.5258   -1.8463   -6.3959 H   0  0  0  0  0  0  0  0  0  0  0  0
  1  2  1  0
  1 20  1  0
  1 21  1  0
  1 22  1  0
  2  3  1  0
  2  4  1  0
  2  5  1  6
  3 23  1  0
  3 24  1  0
  3 25  1  0
  4 26  1  0
  4 27  1  0
  4 28  1  0
  5  6  1  0
  6  7  2  0
  6  8  1  0
  8  9  1  0
  8 29  1  0
  9 10  1  1
  9 11  1  0
  9 13  1  0
 11 12  1  0
 11 30  1  0
 11 31  1  0
 13 14  1  0
 13 32  1  0
 13 33  1  0
 14 15  2  0
 14 19  1  0
 15 16  1  0
 15 34  1  0
 16 17  2  0
 16 35  1  0
 17 18  1  0
 17 36  1  0
 18 19  2  0
 18 37  1  0
 19 38  1  0
M  END

