
     RDKit          3D

 59 66  0  0  0  0  0  0  0  0999 V2000
    1.2203   -0.4990    0.4336 C   0  0  0  0  0  0  0  0  0  0  0  0
    2.3811   -0.4121    0.2510 N   0  0  0  0  0  0  0  0  0  0  0  0
    3.7432   -0.3107    0.0375 C   0  0  0  0  0  0  0  0  0  0  0  0
    4.4342   -1.3365   -0.6278 C   0  0  0  0  0  0  0  0  0  0  0  0
    5.8034   -1.2296   -0.8472 C   0  0  0  0  0  0  0  0  0  0  0  0
    6.5232   -0.1034   -0.3986 C   0  0  0  0  0  0  0  0  0  0  0  0
    7.9148   -0.0091   -0.6130 N   0  0  0  0  0  0  0  0  0  0  0  0
    8.5440    1.2445   -0.8433 C   0  0  0  0  0  0  0  0  0  0  0  0
    9.7803    1.5422   -0.2327 C   0  0  0  0  0  0  0  0  0  0  0  0
   10.4237    2.7532   -0.4559 C   0  0  0  0  0  0  0  0  0  0  0  0
    9.8578    3.7429   -1.2892 C   0  0  0  0  0  0  0  0  0  0  0  0
    8.6111    3.4128   -1.8933 C   0  0  0  0  0  0  0  0  0  0  0  0
    7.9643    2.1922   -1.6932 C   0  0  0  0  0  0  0  0  0  0  0  0
    8.0073    4.6908   -2.9281 S   0  0  0  0  0  0  0  0  0  0  0  0
    9.4076    5.6820   -2.5669 C   0  0  0  0  0  0  0  0  0  0  0  0
    9.5993    6.9688   -3.1226 C   0  0  0  0  0  0  0  0  0  0  0  0
   10.7267    7.6728   -2.7824 C   0  0  0  0  0  0  0  0  0  0  0  0
   11.6913    7.1315   -1.8803 C   0  0  0  0  0  0  0  0  0  0  0  0
   12.8459    7.8859   -1.5388 C   0  0  0  0  0  0  0  0  0  0  0  0
   13.7917    7.3951   -0.6630 C   0  0  0  0  0  0  0  0  0  0  0  0
   13.6067    6.1177   -0.0915 C   0  0  0  0  0  0  0  0  0  0  0  0
   12.4946    5.3582   -0.4055 C   0  0  0  0  0  0  0  0  0  0  0  0
   11.4989    5.8232   -1.3084 C   0  0  0  0  0  0  0  0  0  0  0  0
   10.3165    5.0778   -1.6792 C   0  0  0  0  0  0  0  0  0  0  0  0
    8.7174   -1.1785   -0.5515 C   0  0  0  0  0  0  0  0  0  0  0  0
    8.6577   -2.0727    0.5306 C   0  0  0  0  0  0  0  0  0  0  0  0
    9.4496   -3.2310    0.5761 C   0  0  0  0  0  0  0  0  0  0  0  0
   10.3502   -3.5355   -0.4464 C   0  0  0  0  0  0  0  0  0  0  0  0
   10.4393   -2.6561   -1.5344 C   0  0  0  0  0  0  0  0  0  0  0  0
    9.6193   -1.5085   -1.5737 C   0  0  0  0  0  0  0  0  0  0  0  0
    9.8222   -0.7800   -2.7106 O   0  0  0  0  0  0  0  0  0  0  0  0
   10.7830   -1.4413   -3.4311 C   0  0  0  0  0  0  0  0  0  0  0  0
   11.2885   -1.0349   -4.6617 C   0  0  0  0  0  0  0  0  0  0  0  0
   12.2656   -1.8509   -5.2389 C   0  0  0  0  0  0  0  0  0  0  0  0
   12.7107   -3.0243   -4.6013 C   0  0  0  0  0  0  0  0  0  0  0  0
   12.1904   -3.4147   -3.3663 C   0  0  0  0  0  0  0  0  0  0  0  0
   11.2090   -2.6110   -2.7679 C   0  0  0  0  0  0  0  0  0  0  0  0
    5.8200    0.9162    0.2754 C   0  0  0  0  0  0  0  0  0  0  0  0
    4.4485    0.8185    0.4851 C   0  0  0  0  0  0  0  0  0  0  0  0
    3.8843   -2.2099   -0.9828 H   0  0  0  0  0  0  0  0  0  0  0  0
    6.3263   -2.0269   -1.3771 H   0  0  0  0  0  0  0  0  0  0  0  0
   10.2385    0.8060    0.4298 H   0  0  0  0  0  0  0  0  0  0  0  0
   11.3768    2.9133    0.0415 H   0  0  0  0  0  0  0  0  0  0  0  0
    7.0218    1.9753   -2.1984 H   0  0  0  0  0  0  0  0  0  0  0  0
    8.8601    7.3863   -3.8097 H   0  0  0  0  0  0  0  0  0  0  0  0
   10.9003    8.6681   -3.1992 H   0  0  0  0  0  0  0  0  0  0  0  0
   12.9702    8.8752   -1.9877 H   0  0  0  0  0  0  0  0  0  0  0  0
   14.6740    7.9880   -0.4102 H   0  0  0  0  0  0  0  0  0  0  0  0
   14.3473    5.7223    0.6083 H   0  0  0  0  0  0  0  0  0  0  0  0
   12.3918    4.3851    0.0644 H   0  0  0  0  0  0  0  0  0  0  0  0
    7.9709   -1.8516    1.3499 H   0  0  0  0  0  0  0  0  0  0  0  0
    9.3630   -3.8966    1.4380 H   0  0  0  0  0  0  0  0  0  0  0  0
   10.9670   -4.4355   -0.3992 H   0  0  0  0  0  0  0  0  0  0  0  0
   10.9340   -0.1219   -5.1425 H   0  0  0  0  0  0  0  0  0  0  0  0
   12.6922   -1.5705   -6.2051 H   0  0  0  0  0  0  0  0  0  0  0  0
   13.4760   -3.6375   -5.0828 H   0  0  0  0  0  0  0  0  0  0  0  0
   12.5410   -4.3268   -2.8777 H   0  0  0  0  0  0  0  0  0  0  0  0
    6.3576    1.7913    0.6423 H   0  0  0  0  0  0  0  0  0  0  0  0
    3.9129    1.6101    1.0120 H   0  0  0  0  0  0  0  0  0  0  0  0
  1  2  2  0
  2  3  2  0
  3  4  1  0
  3 39  1  0
  4  5  2  0
  4 40  1  0
  5  6  1  0
  5 41  1  0
  6  7  2  0
  6 38  1  0
  7  8  1  0
  7 25  1  0
  8  9  2  0
  8 13  1  0
  9 10  1  0
  9 42  1  0
 10 11  2  0
 10 43  1  0
 11 12  1  0
 11 24  1  0
 12 13  2  0
 12 14  1  0
 13 44  1  0
 14 15  1  0
 15 16  1  0
 15 24  2  0
 16 17  2  0
 16 45  1  0
 17 18  1  0
 17 46  1  0
 18 19  1  0
 18 23  2  0
 19 20  2  0
 19 47  1  0
 20 21  1  0
 20 48  1  0
 21 22  2  0
 21 49  1  0
 22 23  1  0
 22 50  1  0
 23 24  1  0
 25 26  2  0
 25 30  1  0
 26 27  1  0
 26 51  1  0
 27 28  2  0
 27 52  1  0
 28 29  1  0
 28 53  1  0
 29 30  2  0
 29 37  1  0
 30 31  1  0
 31 32  1  0
 32 33  1  0
 32 37  2  0
 33 34  2  0
 33 54  1  0
 34 35  1  0
 34 55  1  0
 35 36  2  0
 35 56  1  0
 36 37  1  0
 36 57  1  0
 38 39  2  0
 38 58  1  0
 39 59  1  0
M  CHG  3   1  -2   2   1   7   1
M  END

