
     RDKit          3D

 40 44  0  0  0  0  0  0  0  0999 V2000
    3.2755    3.0500   -1.0556 N   0  0  0  0  0  0  0  0  0  0  0  0
    3.8352    1.8493   -0.6447 C   0  0  0  0  0  0  0  0  0  0  0  0
    3.0962    0.9918    0.2218 C   0  0  0  0  0  0  0  0  0  0  0  0
    3.6195   -0.1995    0.7041 C   0  0  0  0  0  0  0  0  0  0  0  0
    4.9206   -0.5632    0.3220 C   0  0  0  0  0  0  0  0  0  0  0  0
    5.6814   -1.6737    0.6330 N   0  0  0  0  0  0  0  0  0  0  0  0
    6.8358   -1.5305    0.0115 C   0  0  0  0  0  0  0  0  0  0  0  0
    8.0282   -2.4035    0.0533 C   0  0  0  0  0  0  0  0  0  0  0  0
    9.2727   -1.7354   -0.0229 C   0  0  0  0  0  0  0  0  0  0  0  0
   10.4858   -2.4135   -0.0572 C   0  0  0  0  0  0  0  0  0  0  0  0
   10.4858   -3.8106   -0.0183 C   0  0  0  0  0  0  0  0  0  0  0  0
    9.2791   -4.4929    0.0745 C   0  0  0  0  0  0  0  0  0  0  0  0
    8.0333   -3.8299    0.1247 C   0  0  0  0  0  0  0  0  0  0  0  0
    6.8676   -4.7350    0.2198 C   0  0  0  0  0  0  0  0  0  0  0  0
    6.9520   -6.0293   -0.0510 N   0  0  0  0  0  0  0  0  0  0  0  0
    5.7022   -6.5367    0.1939 C   0  0  0  0  0  0  0  0  0  0  0  0
    5.2076   -7.8477    0.0726 C   0  0  0  0  0  0  0  0  0  0  0  0
    3.8764   -8.0881    0.3933 C   0  0  0  0  0  0  0  0  0  0  0  0
    3.0405   -7.0348    0.8310 C   0  0  0  0  0  0  0  0  0  0  0  0
    1.3686   -7.3998    1.2207 Cl  0  0  0  0  0  0  0  0  0  0  0  0
    3.4920   -5.7244    0.9634 C   0  0  0  0  0  0  0  0  0  0  0  0
    4.8357   -5.4967    0.6365 C   0  0  0  0  0  0  0  0  0  0  0  0
    5.6131   -4.3678    0.6449 N   0  0  0  0  0  0  0  0  0  0  0  0
    5.3670   -3.3863    0.8718 H   0  0  0  0  0  0  0  0  0  0  0  0
    6.8649   -0.3420   -0.7033 N   0  0  0  0  0  0  0  0  0  0  0  0
    7.6105   -0.0548   -1.3232 H   0  0  0  0  0  0  0  0  0  0  0  0
    5.6544    0.2950   -0.5322 C   0  0  0  0  0  0  0  0  0  0  0  0
    5.1389    1.4945   -1.0309 C   0  0  0  0  0  0  0  0  0  0  0  0
    2.2653    3.1164   -1.0198 H   0  0  0  0  0  0  0  0  0  0  0  0
    3.6755    3.4853   -1.8782 H   0  0  0  0  0  0  0  0  0  0  0  0
    2.0865    1.2932    0.5137 H   0  0  0  0  0  0  0  0  0  0  0  0
    3.0338   -0.8405    1.3661 H   0  0  0  0  0  0  0  0  0  0  0  0
    9.2849   -0.6433   -0.0227 H   0  0  0  0  0  0  0  0  0  0  0  0
   11.4230   -1.8538   -0.1039 H   0  0  0  0  0  0  0  0  0  0  0  0
   11.4253   -4.3679   -0.0485 H   0  0  0  0  0  0  0  0  0  0  0  0
    9.2559   -5.5825    0.1070 H   0  0  0  0  0  0  0  0  0  0  0  0
    5.8610   -8.6540   -0.2666 H   0  0  0  0  0  0  0  0  0  0  0  0
    3.4567   -9.0919    0.3126 H   0  0  0  0  0  0  0  0  0  0  0  0
    2.8252   -4.9314    1.3036 H   0  0  0  0  0  0  0  0  0  0  0  0
    5.7220    2.1416   -1.6906 H   0  0  0  0  0  0  0  0  0  0  0  0
  1  2  1  0
  1 29  1  0
  1 30  1  0
  2  3  2  0
  2 28  1  0
  3  4  1  0
  3 31  1  0
  4  5  2  0
  4 32  1  0
  5  6  1  0
  5 27  1  0
  6  7  2  0
  7  8  1  0
  7 25  1  0
  8  9  2  0
  8 13  1  0
  9 10  1  0
  9 33  1  0
 10 11  2  0
 10 34  1  0
 11 12  1  0
 11 35  1  0
 12 13  2  0
 12 36  1  0
 13 14  1  0
 14 15  2  0
 14 23  1  0
 15 16  1  0
 16 17  2  0
 16 22  1  0
 17 18  1  0
 17 37  1  0
 18 19  2  0
 18 38  1  0
 19 20  1  0
 19 21  1  0
 21 22  2  0
 21 39  1  0
 22 23  1  0
 23 24  1  0
 25 26  1  0
 25 27  1  0
 27 28  2  0
 28 40  1  0
M  END

