
     RDKit          3D

 44 45  0  0  0  0  0  0  0  0999 V2000
    2.4235   -4.1346   -1.3173 C   0  0  0  0  0  0  0  0  0  0  0  0
    3.6357   -3.3485   -1.2315 N   0  0  0  0  0  0  0  0  0  0  0  0
    3.6194   -1.9910   -1.0577 C   0  0  0  0  0  0  0  0  0  0  0  0
    2.5835   -1.3479   -0.9708 O   0  0  0  0  0  0  0  0  0  0  0  0
    4.9683   -1.3213   -0.9702 C   0  0  0  0  0  0  0  0  0  0  0  0
    6.1546   -1.8768   -1.4800 C   0  0  0  0  0  0  0  0  0  0  0  0
    7.3636   -1.1903   -1.3752 C   0  0  0  0  0  0  0  0  0  0  0  0
    7.4221    0.0711   -0.7599 C   0  0  0  0  0  0  0  0  0  0  0  0
    8.7500    0.7930   -0.6365 C   0  0  0  0  0  0  0  0  0  0  0  0
    9.3722    1.0848   -1.9318 N   0  0  0  0  0  0  0  0  0  0  0  0
    8.7221    2.1840   -2.6300 C   0  0  0  0  0  0  0  0  0  0  0  0
   10.8299    1.1842   -1.8747 C   0  0  0  0  0  0  0  0  0  0  0  0
   11.4447   -0.2399   -1.8632 C   0  0  1  0  0  0  0  0  0  0  0  0
   10.7763   -1.0154   -2.8315 O   0  0  0  0  0  0  0  0  0  0  0  0
   12.9380   -0.2096   -2.1336 C   0  0  0  0  0  0  0  0  0  0  0  0
   13.4266   -0.5085   -3.4145 C   0  0  0  0  0  0  0  0  0  0  0  0
   14.7923   -0.4704   -3.7011 C   0  0  0  0  0  0  0  0  0  0  0  0
   15.7067   -0.1318   -2.7000 C   0  0  0  0  0  0  0  0  0  0  0  0
   15.2495    0.1644   -1.4145 C   0  0  0  0  0  0  0  0  0  0  0  0
   13.8789    0.1234   -1.1447 C   0  0  0  0  0  0  0  0  0  0  0  0
   13.3546    0.4918    0.4971 Cl  0  0  0  0  0  0  0  0  0  0  0  0
    6.2349    0.6277   -0.2643 C   0  0  0  0  0  0  0  0  0  0  0  0
    5.0220   -0.0543   -0.3742 C   0  0  0  0  0  0  0  0  0  0  0  0
    2.4371   -4.7930   -2.2019 H   0  0  0  0  0  0  0  0  0  0  0  0
    1.5785   -3.4391   -1.4003 H   0  0  0  0  0  0  0  0  0  0  0  0
    2.2726   -4.7600   -0.4197 H   0  0  0  0  0  0  0  0  0  0  0  0
    4.5196   -3.8337   -1.1531 H   0  0  0  0  0  0  0  0  0  0  0  0
    6.1420   -2.8431   -1.9909 H   0  0  0  0  0  0  0  0  0  0  0  0
    8.2774   -1.6338   -1.7797 H   0  0  0  0  0  0  0  0  0  0  0  0
    9.4416    0.1550   -0.0641 H   0  0  0  0  0  0  0  0  0  0  0  0
    8.6173    1.7201   -0.0395 H   0  0  0  0  0  0  0  0  0  0  0  0
    7.6441    1.9823   -2.7217 H   0  0  0  0  0  0  0  0  0  0  0  0
    9.1349    2.2855   -3.6451 H   0  0  0  0  0  0  0  0  0  0  0  0
    8.8421    3.1584   -2.1081 H   0  0  0  0  0  0  0  0  0  0  0  0
   11.1974    1.7731   -1.0122 H   0  0  0  0  0  0  0  0  0  0  0  0
   11.1697    1.6912   -2.7908 H   0  0  0  0  0  0  0  0  0  0  0  0
   11.3002   -0.6789   -0.8564 H   0  0  0  0  0  0  0  0  0  0  0  0
    9.9055   -0.5753   -2.9095 H   0  0  0  0  0  0  0  0  0  0  0  0
   12.6993   -0.7899   -4.1775 H   0  0  0  0  0  0  0  0  0  0  0  0
   15.1435   -0.7112   -4.7075 H   0  0  0  0  0  0  0  0  0  0  0  0
   16.7782   -0.1020   -2.9125 H   0  0  0  0  0  0  0  0  0  0  0  0
   15.9446    0.4252   -0.6147 H   0  0  0  0  0  0  0  0  0  0  0  0
    6.2599    1.6122    0.2120 H   0  0  0  0  0  0  0  0  0  0  0  0
    4.0915    0.3819   -0.0060 H   0  0  0  0  0  0  0  0  0  0  0  0
  1  2  1  0
  1 24  1  0
  1 25  1  0
  1 26  1  0
  2  3  1  0
  2 27  1  0
  3  4  2  0
  3  5  1  0
  5  6  2  0
  5 23  1  0
  6  7  1  0
  6 28  1  0
  7  8  2  0
  7 29  1  0
  8  9  1  0
  8 22  1  0
  9 10  1  0
  9 30  1  0
  9 31  1  0
 10 11  1  0
 10 12  1  0
 11 32  1  0
 11 33  1  0
 11 34  1  0
 12 13  1  0
 12 35  1  0
 12 36  1  0
 13 14  1  0
 13 15  1  0
 13 37  1  1
 14 38  1  0
 15 16  2  0
 15 20  1  0
 16 17  1  0
 16 39  1  0
 17 18  2  0
 17 40  1  0
 18 19  1  0
 18 41  1  0
 19 20  2  0
 19 42  1  0
 20 21  1  0
 22 23  2  0
 22 43  1  0
 23 44  1  0
M  END

