
     RDKit          3D

 40 40  0  0  0  0  0  0  0  0999 V2000
    4.3246    0.6318    3.8598 C   0  0  0  0  0  0  0  0  0  0  0  0
    5.2856    0.0466    2.8857 C   0  0  0  0  0  0  0  0  0  0  0  0
    6.6480   -0.0779    2.8626 C   0  0  0  0  0  0  0  0  0  0  0  0
    6.9797   -0.7331    1.6291 C   0  0  0  0  0  0  0  0  0  0  0  0
    5.7994   -0.9615    0.9785 C   0  0  0  0  0  0  0  0  0  0  0  0
    5.4671   -1.6318   -0.3180 C   0  0  0  0  0  0  0  0  0  0  0  0
    5.1273   -3.0530   -0.2073 N   0  0  0  0  0  0  0  0  0  0  0  0
    3.7837   -3.5046    0.1431 C   0  0  0  0  0  0  0  0  0  0  0  0
    2.6791   -2.4777   -0.0442 C   0  0  0  0  0  0  0  0  0  0  0  0
    2.5829   -2.1352   -1.4135 O   0  0  0  0  0  0  0  0  0  0  0  0
    6.1856   -3.9429   -0.3005 C   0  0  0  0  0  0  0  0  0  0  0  0
    7.3232   -3.5853   -0.5976 O   0  0  0  0  0  0  0  0  0  0  0  0
    5.8876   -5.2669   -0.0585 N   0  0  0  0  0  0  0  0  0  0  0  0
    6.9435   -6.2598   -0.0552 C   0  0  0  0  0  0  0  0  0  0  0  0
    7.8134   -6.2641    1.2157 C   0  0  0  0  0  0  0  0  0  0  0  0
    7.0112   -6.2189    2.5359 C   0  0  0  0  0  0  0  0  0  0  0  0
    5.9157   -7.2713    2.5958 C   0  0  0  0  0  0  0  0  0  0  0  0
    4.8232   -7.1258    2.1058 O   0  0  0  0  0  0  0  0  0  0  0  0
    6.2329   -8.4434    3.1877 O   0  0  0  0  0  0  0  0  0  0  0  0
    4.7645   -0.4894    1.7436 O   0  0  0  0  0  0  0  0  0  0  0  0
    4.8662    1.0319    4.7283 H   0  0  0  0  0  0  0  0  0  0  0  0
    3.6033   -0.1210    4.2217 H   0  0  0  0  0  0  0  0  0  0  0  0
    3.7417    1.4535    3.4098 H   0  0  0  0  0  0  0  0  0  0  0  0
    7.3339    0.2634    3.6357 H   0  0  0  0  0  0  0  0  0  0  0  0
    7.9645   -1.0129    1.2617 H   0  0  0  0  0  0  0  0  0  0  0  0
    6.3539   -1.5770   -0.9599 H   0  0  0  0  0  0  0  0  0  0  0  0
    4.6454   -1.1143   -0.8299 H   0  0  0  0  0  0  0  0  0  0  0  0
    3.7313   -3.8437    1.1981 H   0  0  0  0  0  0  0  0  0  0  0  0
    3.5310   -4.3733   -0.4883 H   0  0  0  0  0  0  0  0  0  0  0  0
    2.8688   -1.5930    0.5897 H   0  0  0  0  0  0  0  0  0  0  0  0
    1.7453   -2.9489    0.3230 H   0  0  0  0  0  0  0  0  0  0  0  0
    1.9165   -1.4436   -1.5103 H   0  0  0  0  0  0  0  0  0  0  0  0
    5.0445   -5.5287    0.4402 H   0  0  0  0  0  0  0  0  0  0  0  0
    7.5962   -6.0782   -0.9211 H   0  0  0  0  0  0  0  0  0  0  0  0
    6.4695   -7.2437   -0.1967 H   0  0  0  0  0  0  0  0  0  0  0  0
    8.4747   -5.3846    1.1953 H   0  0  0  0  0  0  0  0  0  0  0  0
    8.4612   -7.1583    1.1947 H   0  0  0  0  0  0  0  0  0  0  0  0
    6.5163   -5.2413    2.6240 H   0  0  0  0  0  0  0  0  0  0  0  0
    7.6986   -6.3135    3.3935 H   0  0  0  0  0  0  0  0  0  0  0  0
    7.1337   -8.4093    3.5392 H   0  0  0  0  0  0  0  0  0  0  0  0
  1  2  1  0
  1 21  1  0
  1 22  1  0
  1 23  1  0
  2  3  2  0
  2 20  1  0
  3  4  1  0
  3 24  1  0
  4  5  2  0
  4 25  1  0
  5  6  1  0
  5 20  1  0
  6  7  1  0
  6 26  1  0
  6 27  1  0
  7  8  1  0
  7 11  1  0
  8  9  1  0
  8 28  1  0
  8 29  1  0
  9 10  1  0
  9 30  1  0
  9 31  1  0
 10 32  1  0
 11 12  2  0
 11 13  1  0
 13 14  1  0
 13 33  1  0
 14 15  1  0
 14 34  1  0
 14 35  1  0
 15 16  1  0
 15 36  1  0
 15 37  1  0
 16 17  1  0
 16 38  1  0
 16 39  1  0
 17 18  2  0
 17 19  1  0
 19 40  1  0
M  END

