
     RDKit          3D

 54 57  0  0  0  0  0  0  0  0999 V2000
    7.4879   -1.2087    5.0440 C   0  0  0  0  0  0  0  0  0  0  0  0
    7.7415   -2.1671    3.8913 C   0  0  0  0  0  0  0  0  0  0  0  0
    6.5201   -2.7075    3.3651 O   0  0  0  0  0  0  0  0  0  0  0  0
    6.0135   -3.8147    3.9652 C   0  0  0  0  0  0  0  0  0  0  0  0
    6.5545   -4.3181    4.9314 O   0  0  0  0  0  0  0  0  0  0  0  0
    4.7799   -4.2629    3.2881 C   0  0  0  0  0  0  0  0  0  0  0  0
    4.0148   -5.2939    3.7598 C   0  0  0  0  0  0  0  0  0  0  0  0
    4.2847   -6.1464    4.9677 C   0  0  0  0  0  0  0  0  0  0  0  0
    2.8499   -5.6311    3.0960 N   0  0  0  0  0  0  0  0  0  0  0  0
    2.2276   -4.8581    2.1067 C   0  0  0  0  0  0  0  0  0  0  0  0
    1.1274   -5.1494    1.6772 O   0  0  0  0  0  0  0  0  0  0  0  0
    2.9528   -3.7676    1.7324 N   0  0  0  0  0  0  0  0  0  0  0  0
    4.3819   -3.5527    1.9965 C   0  0  2  0  0  0  0  0  0  0  0  0
    4.5198   -2.4731    2.1500 H   0  0  0  0  0  0  0  0  0  0  0  0
    5.2476   -3.9440    0.7984 C   0  0  0  0  0  0  0  0  0  0  0  0
    5.9205   -2.9713    0.0526 C   0  0  0  0  0  0  0  0  0  0  0  0
    6.6902   -3.3037   -1.0647 C   0  0  0  0  0  0  0  0  0  0  0  0
    6.8051   -4.6482   -1.4712 C   0  0  0  0  0  0  0  0  0  0  0  0
    7.5672   -4.9850   -2.5804 N   0  0  0  0  0  0  0  0  0  0  0  0
    8.3030   -4.0335   -3.4257 C   0  0  0  0  0  0  0  0  0  0  0  0
    8.9451   -4.9544   -4.4826 C   0  0  0  0  0  0  0  0  0  0  0  0
    8.4508   -6.3260   -4.0456 C   0  0  0  0  0  0  0  0  0  0  0  0
    8.7714   -7.5868   -4.7172 C   0  0  0  0  0  0  0  0  0  0  0  0
    9.5961   -7.6039   -5.8590 C   0  0  0  0  0  0  0  0  0  0  0  0
    9.9033   -8.8060   -6.5019 C   0  0  0  0  0  0  0  0  0  0  0  0
    9.3936  -10.0129   -6.0180 C   0  0  0  0  0  0  0  0  0  0  0  0
    8.5715  -10.0088   -4.8825 C   0  0  0  0  0  0  0  0  0  0  0  0
    8.2629   -8.8139   -4.2389 C   0  0  0  0  0  0  0  0  0  0  0  0
    7.6989   -6.2651   -2.9945 N   0  0  0  0  0  0  0  0  0  0  0  0
    6.1292   -5.6392   -0.7233 C   0  0  0  0  0  0  0  0  0  0  0  0
    5.3718   -5.2829    0.3854 C   0  0  0  0  0  0  0  0  0  0  0  0
    8.4373   -0.7533    5.3695 H   0  0  0  0  0  0  0  0  0  0  0  0
    7.0511   -1.7402    5.9020 H   0  0  0  0  0  0  0  0  0  0  0  0
    6.8046   -0.3994    4.7419 H   0  0  0  0  0  0  0  0  0  0  0  0
    8.3919   -2.9954    4.2084 H   0  0  0  0  0  0  0  0  0  0  0  0
    8.2078   -1.6509    3.0390 H   0  0  0  0  0  0  0  0  0  0  0  0
    5.2242   -5.8685    5.4510 H   0  0  0  0  0  0  0  0  0  0  0  0
    4.3296   -7.2071    4.6659 H   0  0  0  0  0  0  0  0  0  0  0  0
    3.4538   -6.0457    5.6870 H   0  0  0  0  0  0  0  0  0  0  0  0
    2.2756   -6.3896    3.4457 H   0  0  0  0  0  0  0  0  0  0  0  0
    2.5437   -3.2571    0.9572 H   0  0  0  0  0  0  0  0  0  0  0  0
    5.8514   -1.9216    0.3529 H   0  0  0  0  0  0  0  0  0  0  0  0
    7.1996   -2.5112   -1.6143 H   0  0  0  0  0  0  0  0  0  0  0  0
    9.0482   -3.4812   -2.8285 H   0  0  0  0  0  0  0  0  0  0  0  0
    7.6136   -3.2922   -3.8643 H   0  0  0  0  0  0  0  0  0  0  0  0
   10.0457   -4.9011   -4.4774 H   0  0  0  0  0  0  0  0  0  0  0  0
    8.6177   -4.7151   -5.5072 H   0  0  0  0  0  0  0  0  0  0  0  0
   10.0044   -6.6704   -6.2528 H   0  0  0  0  0  0  0  0  0  0  0  0
   10.5452   -8.7972   -7.3865 H   0  0  0  0  0  0  0  0  0  0  0  0
    9.6336  -10.9531   -6.5206 H   0  0  0  0  0  0  0  0  0  0  0  0
    8.1685  -10.9494   -4.4978 H   0  0  0  0  0  0  0  0  0  0  0  0
    7.6231   -8.8076   -3.3550 H   0  0  0  0  0  0  0  0  0  0  0  0
    6.2151   -6.6803   -1.0312 H   0  0  0  0  0  0  0  0  0  0  0  0
    4.8639   -6.0720    0.9465 H   0  0  0  0  0  0  0  0  0  0  0  0
  1  2  1  0
  1 32  1  0
  1 33  1  0
  1 34  1  0
  2  3  1  0
  2 35  1  0
  2 36  1  0
  3  4  1  0
  4  5  2  0
  4  6  1  0
  6  7  2  0
  6 13  1  0
  7  8  1  0
  7  9  1  0
  8 37  1  0
  8 38  1  0
  8 39  1  0
  9 10  1  0
  9 40  1  0
 10 11  2  0
 10 12  1  0
 12 13  1  0
 12 41  1  0
 13 14  1  1
 13 15  1  0
 15 16  2  0
 15 31  1  0
 16 17  1  0
 16 42  1  0
 17 18  2  0
 17 43  1  0
 18 19  1  0
 18 30  1  0
 19 20  1  0
 19 29  1  0
 20 21  1  0
 20 44  1  0
 20 45  1  0
 21 22  1  0
 21 46  1  0
 21 47  1  0
 22 23  1  0
 22 29  2  0
 23 24  2  0
 23 28  1  0
 24 25  1  0
 24 48  1  0
 25 26  2  0
 25 49  1  0
 26 27  1  0
 26 50  1  0
 27 28  2  0
 27 51  1  0
 28 52  1  0
 30 31  2  0
 30 53  1  0
 31 54  1  0
M  END

