
     RDKit          3D

 70 71  0  0  0  0  0  0  0  0999 V2000
    2.3391   -5.0586   -2.2653 C   0  0  0  0  0  0  0  0  0  0  0  0
    3.7982   -4.6075   -2.4418 C   0  0  2  0  0  0  0  0  0  0  0  0
    4.0056   -4.6209   -3.5203 H   0  0  0  0  0  0  0  0  0  0  0  0
    4.8236   -5.5631   -1.8171 C   0  0  0  0  0  0  0  0  0  0  0  0
    4.4746   -6.6503   -1.0044 C   0  0  0  0  0  0  0  0  0  0  0  0
    5.4553   -7.4983   -0.4719 C   0  0  0  0  0  0  0  0  0  0  0  0
    6.8040   -7.2766   -0.7495 C   0  0  0  0  0  0  0  0  0  0  0  0
    7.1672   -6.1969   -1.5644 C   0  0  0  0  0  0  0  0  0  0  0  0
    6.1886   -5.3515   -2.0868 C   0  0  0  0  0  0  0  0  0  0  0  0
    4.0683   -3.2292   -1.9968 N   0  0  0  0  0  0  0  0  0  0  0  0
    3.7077   -2.9593   -0.6185 C   0  0  0  0  0  0  0  0  0  0  0  0
    3.8234   -2.0811   -2.8833 C   0  0  2  0  0  0  0  0  0  0  0  0
    2.8912   -1.5800   -2.5585 H   0  0  0  0  0  0  0  0  0  0  0  0
    3.5582   -2.4444   -4.3440 C   0  0  0  0  0  0  0  0  0  0  0  0
    2.2246   -2.4627   -4.7905 C   0  0  0  0  0  0  0  0  0  0  0  0
    1.9015   -2.8022   -6.1071 C   0  0  0  0  0  0  0  0  0  0  0  0
    2.9165   -3.1252   -7.0117 C   0  0  0  0  0  0  0  0  0  0  0  0
    4.2479   -3.0946   -6.5874 C   0  0  0  0  0  0  0  0  0  0  0  0
    4.5690   -2.7549   -5.2695 C   0  0  0  0  0  0  0  0  0  0  0  0
    4.9326   -0.9481   -2.6492 C   0  0  2  0  0  0  0  0  0  0  0  0
    4.5961   -0.4456   -1.7333 H   0  0  0  0  0  0  0  0  0  0  0  0
    4.7971    0.1125   -3.7391 C   0  0  0  0  0  0  0  0  0  0  0  0
    5.5601    0.3128   -4.6511 O   0  0  0  0  0  0  0  0  0  0  0  0
    3.6540    0.8029   -3.5329 O   0  0  0  0  0  0  0  0  0  0  0  0
    3.2019    1.8771   -4.4289 C   0  0  1  0  0  0  0  0  0  0  0  0
    2.9886    1.3407   -5.8481 C   0  0  0  0  0  0  0  0  0  0  0  0
    1.8708    2.3017   -3.8053 C   0  0  0  0  0  0  0  0  0  0  0  0
    4.2081    3.0327   -4.3969 C   0  0  0  0  0  0  0  0  0  0  0  0
    6.3536   -1.4520   -2.3297 C   0  0  1  0  0  0  0  0  0  0  0  0
    6.1850   -2.2711   -1.6076 H   0  0  0  0  0  0  0  0  0  0  0  0
    6.9546   -2.0014   -3.4956 O   0  0  0  0  0  0  0  0  0  0  0  0
    7.3180   -0.4485   -1.5993 C   0  0  1  0  0  0  0  0  0  0  0  0
    6.7001    0.0078   -0.2635 C   0  0  0  0  0  0  0  0  0  0  0  0
    8.6185   -1.2189   -1.2720 C   0  0  0  0  0  0  0  0  0  0  0  0
    7.6813    0.7797   -2.4523 C   0  0  0  0  0  0  0  0  0  0  0  0
    2.0316   -5.0962   -1.2088 H   0  0  0  0  0  0  0  0  0  0  0  0
    2.1839   -6.0605   -2.6947 H   0  0  0  0  0  0  0  0  0  0  0  0
    1.6632   -4.3662   -2.7874 H   0  0  0  0  0  0  0  0  0  0  0  0
    3.4267   -6.8521   -0.7761 H   0  0  0  0  0  0  0  0  0  0  0  0
    5.1567   -8.3376    0.1621 H   0  0  0  0  0  0  0  0  0  0  0  0
    7.5693   -7.9397   -0.3378 H   0  0  0  0  0  0  0  0  0  0  0  0
    8.2213   -6.0181   -1.7950 H   0  0  0  0  0  0  0  0  0  0  0  0
    6.4731   -4.5037   -2.7148 H   0  0  0  0  0  0  0  0  0  0  0  0
    3.9877   -3.8109    0.0195 H   0  0  0  0  0  0  0  0  0  0  0  0
    2.6233   -2.7601   -0.4726 H   0  0  0  0  0  0  0  0  0  0  0  0
    4.2486   -2.0799   -0.2347 H   0  0  0  0  0  0  0  0  0  0  0  0
    1.4236   -2.1996   -4.0933 H   0  0  0  0  0  0  0  0  0  0  0  0
    0.8558   -2.8095   -6.4262 H   0  0  0  0  0  0  0  0  0  0  0  0
    2.6716   -3.3893   -8.0439 H   0  0  0  0  0  0  0  0  0  0  0  0
    5.0507   -3.3295   -7.2913 H   0  0  0  0  0  0  0  0  0  0  0  0
    5.6105   -2.7045   -4.9528 H   0  0  0  0  0  0  0  0  0  0  0  0
    2.3136    0.4717   -5.8356 H   0  0  0  0  0  0  0  0  0  0  0  0
    3.9377    1.0375   -6.3069 H   0  0  0  0  0  0  0  0  0  0  0  0
    2.5291    2.1253   -6.4698 H   0  0  0  0  0  0  0  0  0  0  0  0
    1.1620    1.4599   -3.7956 H   0  0  0  0  0  0  0  0  0  0  0  0
    1.4244    3.1264   -4.3817 H   0  0  0  0  0  0  0  0  0  0  0  0
    2.0183    2.6402   -2.7683 H   0  0  0  0  0  0  0  0  0  0  0  0
    5.1700    2.7323   -4.8314 H   0  0  0  0  0  0  0  0  0  0  0  0
    4.3743    3.3699   -3.3615 H   0  0  0  0  0  0  0  0  0  0  0  0
    3.8128    3.8844   -4.9727 H   0  0  0  0  0  0  0  0  0  0  0  0
    7.7738   -2.4390   -3.2345 H   0  0  0  0  0  0  0  0  0  0  0  0
    6.4201   -0.8500    0.3709 H   0  0  0  0  0  0  0  0  0  0  0  0
    5.8053    0.6330   -0.4076 H   0  0  0  0  0  0  0  0  0  0  0  0
    7.4257    0.6130    0.3035 H   0  0  0  0  0  0  0  0  0  0  0  0
    8.4127   -2.1475   -0.7127 H   0  0  0  0  0  0  0  0  0  0  0  0
    9.2867   -0.5995   -0.6533 H   0  0  0  0  0  0  0  0  0  0  0  0
    9.1879   -1.4765   -2.1807 H   0  0  0  0  0  0  0  0  0  0  0  0
    6.8376    1.4784   -2.5506 H   0  0  0  0  0  0  0  0  0  0  0  0
    7.9802    0.4798   -3.4662 H   0  0  0  0  0  0  0  0  0  0  0  0
    8.5124    1.3338   -1.9850 H   0  0  0  0  0  0  0  0  0  0  0  0
  1  2  1  0
  1 36  1  0
  1 37  1  0
  1 38  1  0
  2  3  1  6
  2  4  1  0
  2 10  1  0
  4  5  2  0
  4  9  1  0
  5  6  1  0
  5 39  1  0
  6  7  2  0
  6 40  1  0
  7  8  1  0
  7 41  1  0
  8  9  2  0
  8 42  1  0
  9 43  1  0
 10 11  1  0
 10 12  1  0
 11 44  1  0
 11 45  1  0
 11 46  1  0
 12 13  1  1
 12 14  1  0
 12 20  1  0
 14 15  2  0
 14 19  1  0
 15 16  1  0
 15 47  1  0
 16 17  2  0
 16 48  1  0
 17 18  1  0
 17 49  1  0
 18 19  2  0
 18 50  1  0
 19 51  1  0
 20 21  1  1
 20 22  1  0
 20 29  1  0
 22 23  2  0
 22 24  1  0
 25 24  1  1
 25 26  1  0
 25 27  1  0
 25 28  1  0
 26 52  1  0
 26 53  1  0
 26 54  1  0
 27 55  1  0
 27 56  1  0
 27 57  1  0
 28 58  1  0
 28 59  1  0
 28 60  1  0
 29 30  1  1
 29 31  1  0
 29 32  1  0
 31 61  1  0
 32 33  1  1
 32 34  1  0
 32 35  1  0
 33 62  1  0
 33 63  1  0
 33 64  1  0
 34 65  1  0
 34 66  1  0
 34 67  1  0
 35 68  1  0
 35 69  1  0
 35 70  1  0
M  END

