
     RDKit          3D

 62 65  0  0  0  0  0  0  0  0999 V2000
    1.8171   -0.8028   -2.2641 O   0  0  0  0  0  0  0  0  0  0  0  0
    2.8036   -0.4035   -1.6593 C   0  0  0  0  0  0  0  0  0  0  0  0
    3.1203    0.9232   -1.5820 N   0  0  0  0  0  0  0  0  0  0  0  0
    2.3104    1.9470   -2.2467 C   0  0  1  0  0  0  0  0  0  0  0  0
    1.0752    2.3311   -1.4051 C   0  0  0  0  0  0  0  0  0  0  0  0
    1.4684    3.1740   -0.1812 C   0  0  0  0  0  0  0  0  0  0  0  0
    2.2232    4.3872   -0.5169 N   0  0  0  0  0  0  0  0  0  0  0  0
    1.4256    5.4991   -1.0727 C   0  0  1  0  0  0  0  0  0  0  0  0
    0.3749    5.9935   -0.0513 C   0  0  0  0  0  0  0  0  0  0  0  0
    1.0181    6.6252    1.1900 C   0  0  0  0  0  0  0  0  0  0  0  0
    1.9442    7.7881    0.8093 C   0  0  0  0  0  0  0  0  0  0  0  0
    2.9758    7.3678   -0.2465 C   0  0  0  0  0  0  0  0  0  0  0  0
    2.2972    6.7138   -1.4581 C   0  0  0  0  0  0  0  0  0  0  0  0
    3.4329    4.0034   -1.2415 C   0  0  0  0  0  0  0  0  0  0  0  0
    3.1632    3.1956   -2.5267 C   0  0  0  0  0  0  0  0  0  0  0  0
    3.7479   -1.3595   -0.9705 C   0  0  0  0  0  0  0  0  0  0  0  0
    4.6231   -0.9808    0.0559 C   0  0  0  0  0  0  0  0  0  0  0  0
    5.4551   -1.9413    0.6446 C   0  0  0  0  0  0  0  0  0  0  0  0
    5.4199   -3.2657    0.2199 C   0  0  0  0  0  0  0  0  0  0  0  0
    4.5328   -3.6532   -0.8018 C   0  0  0  0  0  0  0  0  0  0  0  0
    4.5566   -4.9638   -1.1494 O   0  0  0  0  0  0  0  0  0  0  0  0
    3.7011   -5.4348   -2.1769 C   0  0  0  0  0  0  0  0  0  0  0  0
    3.9591   -6.9255   -2.3432 C   0  0  1  0  0  0  0  0  0  0  0  0
    3.5684   -7.8038   -1.1471 C   0  0  0  0  0  0  0  0  0  0  0  0
    3.1859   -9.1190   -1.8369 C   0  0  0  0  0  0  0  0  0  0  0  0
    2.5225   -8.6117   -3.1213 C   0  0  0  0  0  0  0  0  0  0  0  0
    3.1715   -7.3834   -3.4403 O   0  0  0  0  0  0  0  0  0  0  0  0
    3.6940   -2.6989   -1.3885 C   0  0  0  0  0  0  0  0  0  0  0  0
    4.0173    1.1837   -1.1935 H   0  0  0  0  0  0  0  0  0  0  0  0
    1.9631    1.5010   -3.1921 H   0  0  0  0  0  0  0  0  0  0  0  0
    0.5473    1.4145   -1.0995 H   0  0  0  0  0  0  0  0  0  0  0  0
    0.3771    2.8955   -2.0470 H   0  0  0  0  0  0  0  0  0  0  0  0
    2.1015    2.5599    0.4846 H   0  0  0  0  0  0  0  0  0  0  0  0
    0.5778    3.4325    0.4069 H   0  0  0  0  0  0  0  0  0  0  0  0
    0.8770    5.1867   -1.9890 H   0  0  0  0  0  0  0  0  0  0  0  0
   -0.3129    5.1848    0.2392 H   0  0  0  0  0  0  0  0  0  0  0  0
   -0.2532    6.7434   -0.5640 H   0  0  0  0  0  0  0  0  0  0  0  0
    1.5989    5.8548    1.7243 H   0  0  0  0  0  0  0  0  0  0  0  0
    0.2343    6.9736    1.8838 H   0  0  0  0  0  0  0  0  0  0  0  0
    2.4519    8.1851    1.7048 H   0  0  0  0  0  0  0  0  0  0  0  0
    1.3344    8.6184    0.4058 H   0  0  0  0  0  0  0  0  0  0  0  0
    3.6897    6.6575    0.2042 H   0  0  0  0  0  0  0  0  0  0  0  0
    3.5642    8.2419   -0.5739 H   0  0  0  0  0  0  0  0  0  0  0  0
    3.0375    6.4519   -2.2298 H   0  0  0  0  0  0  0  0  0  0  0  0
    1.6265    7.4487   -1.9367 H   0  0  0  0  0  0  0  0  0  0  0  0
    4.0491    3.3977   -0.5493 H   0  0  0  0  0  0  0  0  0  0  0  0
    4.0425    4.8870   -1.4711 H   0  0  0  0  0  0  0  0  0  0  0  0
    4.1126    2.9071   -3.0109 H   0  0  0  0  0  0  0  0  0  0  0  0
    2.6238    3.8285   -3.2506 H   0  0  0  0  0  0  0  0  0  0  0  0
    4.6429    0.0454    0.4292 H   0  0  0  0  0  0  0  0  0  0  0  0
    6.1339   -1.6519    1.4509 H   0  0  0  0  0  0  0  0  0  0  0  0
    6.0632   -4.0265    0.6668 H   0  0  0  0  0  0  0  0  0  0  0  0
    3.9050   -4.9142   -3.1295 H   0  0  0  0  0  0  0  0  0  0  0  0
    2.6393   -5.2656   -1.9188 H   0  0  0  0  0  0  0  0  0  0  0  0
    5.0342   -7.0636   -2.5768 H   0  0  0  0  0  0  0  0  0  0  0  0
    2.6945   -7.3712   -0.6302 H   0  0  0  0  0  0  0  0  0  0  0  0
    4.3784   -7.9029   -0.4111 H   0  0  0  0  0  0  0  0  0  0  0  0
    2.5224   -9.7562   -1.2329 H   0  0  0  0  0  0  0  0  0  0  0  0
    4.0898   -9.7036   -2.0756 H   0  0  0  0  0  0  0  0  0  0  0  0
    1.4398   -8.4353   -2.9686 H   0  0  0  0  0  0  0  0  0  0  0  0
    2.6313   -9.3066   -3.9707 H   0  0  0  0  0  0  0  0  0  0  0  0
    2.9771   -2.9519   -2.1686 H   0  0  0  0  0  0  0  0  0  0  0  0
  1  2  2  0
  2  3  1  0
  2 16  1  0
  3  4  1  0
  3 29  1  0
  4  5  1  0
  4 15  1  0
  4 30  1  6
  5  6  1  0
  5 31  1  0
  5 32  1  0
  6  7  1  0
  6 33  1  0
  6 34  1  0
  7  8  1  0
  7 14  1  0
  8  9  1  0
  8 13  1  0
  8 35  1  6
  9 10  1  0
  9 36  1  0
  9 37  1  0
 10 11  1  0
 10 38  1  0
 10 39  1  0
 11 12  1  0
 11 40  1  0
 11 41  1  0
 12 13  1  0
 12 42  1  0
 12 43  1  0
 13 44  1  0
 13 45  1  0
 14 15  1  0
 14 46  1  0
 14 47  1  0
 15 48  1  0
 15 49  1  0
 16 17  2  0
 16 28  1  0
 17 18  1  0
 17 50  1  0
 18 19  2  0
 18 51  1  0
 19 20  1  0
 19 52  1  0
 20 21  1  0
 20 28  2  0
 21 22  1  0
 22 23  1  0
 22 53  1  0
 22 54  1  0
 23 24  1  0
 23 27  1  0
 23 55  1  6
 24 25  1  0
 24 56  1  0
 24 57  1  0
 25 26  1  0
 25 58  1  0
 25 59  1  0
 26 27  1  0
 26 60  1  0
 26 61  1  0
 28 62  1  0
M  END

