
     RDKit          3D

 32 33  0  0  0  0  0  0  0  0999 V2000
    2.1309    0.2597    1.6794 C   0  0  0  0  0  0  0  0  0  0  0  0
    3.1724   -0.0018    0.6365 C   0  0  0  0  0  0  0  0  0  0  0  0
    3.9516    0.9740    0.1764 N   0  0  0  0  0  0  0  0  0  0  0  0
    4.7795    0.4037   -0.7209 N   0  0  0  0  0  0  0  0  0  0  0  0
    5.7214    1.2169   -1.4589 C   0  0  0  0  0  0  0  0  0  0  0  0
    4.5176   -0.9273   -0.8437 C   0  0  0  0  0  0  0  0  0  0  0  0
    5.3953   -1.9406   -1.9338 Cl  0  0  0  0  0  0  0  0  0  0  0  0
    3.4842   -1.2507    0.0224 C   0  0  0  0  0  0  0  0  0  0  0  0
    2.8433   -2.5870    0.2571 C   0  0  0  0  0  0  0  0  0  0  0  0
    1.4361   -2.6166   -0.1088 N   0  0  0  0  0  0  0  0  0  0  0  0
    1.1449   -2.4415   -1.5295 C   0  0  0  0  0  0  0  0  0  0  0  0
   -0.3450   -2.8144   -1.6522 C   0  0  0  0  0  0  0  0  0  0  0  0
   -0.6604   -3.6595   -0.3718 C   0  0  1  0  0  0  0  0  0  0  0  0
   -1.2919   -3.0545    0.2986 H   0  0  0  0  0  0  0  0  0  0  0  0
   -1.3229   -4.9436   -0.5365 N   0  0  0  0  0  0  0  0  0  0  0  0
    0.7198   -3.8158    0.2870 C   0  0  0  0  0  0  0  0  0  0  0  0
    1.9943    1.3421    1.8120 H   0  0  0  0  0  0  0  0  0  0  0  0
    2.4227   -0.1701    2.6535 H   0  0  0  0  0  0  0  0  0  0  0  0
    1.1748   -0.2040    1.3939 H   0  0  0  0  0  0  0  0  0  0  0  0
    6.0985    2.0015   -0.7900 H   0  0  0  0  0  0  0  0  0  0  0  0
    5.2423    1.6918   -2.3313 H   0  0  0  0  0  0  0  0  0  0  0  0
    6.5553    0.5931   -1.8055 H   0  0  0  0  0  0  0  0  0  0  0  0
    2.9098   -2.8418    1.3295 H   0  0  0  0  0  0  0  0  0  0  0  0
    3.4254   -3.3672   -0.2855 H   0  0  0  0  0  0  0  0  0  0  0  0
    1.7679   -3.1259   -2.1518 H   0  0  0  0  0  0  0  0  0  0  0  0
    1.3721   -1.4152   -1.8557 H   0  0  0  0  0  0  0  0  0  0  0  0
   -0.5408   -3.4051   -2.5611 H   0  0  0  0  0  0  0  0  0  0  0  0
   -0.9823   -1.9181   -1.7012 H   0  0  0  0  0  0  0  0  0  0  0  0
   -0.8332   -5.5131   -1.2290 H   0  0  0  0  0  0  0  0  0  0  0  0
   -2.2724   -4.8179   -0.8870 H   0  0  0  0  0  0  0  0  0  0  0  0
    1.2065   -4.7446   -0.1016 H   0  0  0  0  0  0  0  0  0  0  0  0
    0.6635   -3.9133    1.3828 H   0  0  0  0  0  0  0  0  0  0  0  0
  1  2  1  0
  1 17  1  0
  1 18  1  0
  1 19  1  0
  2  3  2  0
  2  8  1  0
  3  4  1  0
  4  5  1  0
  4  6  1  0
  5 20  1  0
  5 21  1  0
  5 22  1  0
  6  7  1  0
  6  8  2  0
  8  9  1  0
  9 10  1  0
  9 23  1  0
  9 24  1  0
 10 11  1  0
 10 16  1  0
 11 12  1  0
 11 25  1  0
 11 26  1  0
 12 13  1  0
 12 27  1  0
 12 28  1  0
 13 14  1  1
 13 15  1  0
 13 16  1  0
 15 29  1  0
 15 30  1  0
 16 31  1  0
 16 32  1  0
M  END

