
     RDKit          3D

 44 46  0  0  0  0  0  0  0  0999 V2000
    0.3828    9.8998   -1.1261 C   0  0  0  0  0  0  0  0  0  0  0  0
   -0.4102    8.6631   -0.6748 C   0  0  1  0  0  0  0  0  0  0  0  0
   -1.1029    8.9364    0.6800 C   0  0  0  0  0  0  0  0  0  0  0  0
   -1.4685    8.2873   -1.7371 C   0  0  0  0  0  0  0  0  0  0  0  0
    0.5388    7.5022   -0.5063 C   0  0  0  0  0  0  0  0  0  0  0  0
    1.8282    7.4556   -0.6780 N   0  0  0  0  0  0  0  0  0  0  0  0
    2.1246    6.1468   -0.3836 C   0  0  0  0  0  0  0  0  0  0  0  0
    3.5218    5.5892   -0.4026 C   0  0  0  0  0  0  0  0  0  0  0  0
    4.3446    6.2071   -1.4170 N   0  0  0  0  0  0  0  0  0  0  0  0
    4.1308    6.0271   -2.8049 C   0  0  0  0  0  0  0  0  0  0  0  0
    3.2980    5.2972   -3.2894 O   0  0  0  0  0  0  0  0  0  0  0  0
    5.0462    6.8261   -3.4307 N   0  0  0  0  0  0  0  0  0  0  0  0
    5.8528    7.6312   -2.5167 C   0  0  2  0  0  0  0  0  0  0  0  0
    5.5731    9.1470   -2.6506 C   0  0  0  0  0  0  0  0  0  0  0  0
    6.1593    9.7315   -3.9415 C   0  0  0  0  0  0  0  0  0  0  0  0
    7.6611    9.4427   -4.0615 C   0  0  0  0  0  0  0  0  0  0  0  0
    7.9521    7.9414   -3.9392 C   0  0  0  0  0  0  0  0  0  0  0  0
    7.3663    7.3532   -2.6495 C   0  0  0  0  0  0  0  0  0  0  0  0
    5.3325    7.1339   -1.1558 C   0  0  0  0  0  0  0  0  0  0  0  0
    5.7194    7.4884   -0.0663 O   0  0  0  0  0  0  0  0  0  0  0  0
    1.0918    5.4206   -0.0492 N   0  0  0  0  0  0  0  0  0  0  0  0
    0.0329    6.3195   -0.1230 O   0  0  0  0  0  0  0  0  0  0  0  0
   -0.3008   10.7547   -1.2459 H   0  0  0  0  0  0  0  0  0  0  0  0
    0.8873    9.7208   -2.0870 H   0  0  0  0  0  0  0  0  0  0  0  0
    1.1544   10.1704   -0.3905 H   0  0  0  0  0  0  0  0  0  0  0  0
   -1.8094    9.7747    0.5750 H   0  0  0  0  0  0  0  0  0  0  0  0
   -0.3681    9.2049    1.4553 H   0  0  0  0  0  0  0  0  0  0  0  0
   -1.6629    8.0554    1.0277 H   0  0  0  0  0  0  0  0  0  0  0  0
   -2.1761    9.1209   -1.8691 H   0  0  0  0  0  0  0  0  0  0  0  0
   -2.0382    7.3956   -1.4361 H   0  0  0  0  0  0  0  0  0  0  0  0
   -0.9981    8.0806   -2.7111 H   0  0  0  0  0  0  0  0  0  0  0  0
    3.4708    4.5018   -0.5517 H   0  0  0  0  0  0  0  0  0  0  0  0
    4.0158    5.7950    0.5600 H   0  0  0  0  0  0  0  0  0  0  0  0
    5.0379    6.9170   -4.4380 H   0  0  0  0  0  0  0  0  0  0  0  0
    6.0251    9.6409   -1.7745 H   0  0  0  0  0  0  0  0  0  0  0  0
    4.4861    9.3175   -2.5918 H   0  0  0  0  0  0  0  0  0  0  0  0
    5.9700   10.8170   -3.9740 H   0  0  0  0  0  0  0  0  0  0  0  0
    5.6307    9.3077   -4.8161 H   0  0  0  0  0  0  0  0  0  0  0  0
    8.1978    9.9818   -3.2595 H   0  0  0  0  0  0  0  0  0  0  0  0
    8.0524    9.8330   -5.0155 H   0  0  0  0  0  0  0  0  0  0  0  0
    9.0380    7.7545   -3.9702 H   0  0  0  0  0  0  0  0  0  0  0  0
    7.5292    7.4109   -4.8127 H   0  0  0  0  0  0  0  0  0  0  0  0
    7.8595    7.8011   -1.7708 H   0  0  0  0  0  0  0  0  0  0  0  0
    7.5397    6.2661   -2.5998 H   0  0  0  0  0  0  0  0  0  0  0  0
  2  1  1  6
  1 23  1  0
  1 24  1  0
  1 25  1  0
  2  3  1  0
  2  4  1  0
  2  5  1  0
  3 26  1  0
  3 27  1  0
  3 28  1  0
  4 29  1  0
  4 30  1  0
  4 31  1  0
  5  6  2  0
  5 22  1  0
  6  7  1  0
  7  8  1  0
  7 21  2  0
  8  9  1  0
  8 32  1  0
  8 33  1  0
  9 10  1  0
  9 19  1  0
 10 11  2  0
 10 12  1  0
 12 13  1  0
 12 34  1  0
 13 14  1  0
 13 18  1  0
 13 19  1  1
 14 15  1  0
 14 35  1  0
 14 36  1  0
 15 16  1  0
 15 37  1  0
 15 38  1  0
 16 17  1  0
 16 39  1  0
 16 40  1  0
 17 18  1  0
 17 41  1  0
 17 42  1  0
 18 43  1  0
 18 44  1  0
 19 20  2  0
 21 22  1  0
M  END

