
     RDKit          3D

 70 73  0  0  0  0  0  0  0  0999 V2000
    1.5754    1.0853    1.2951 C   0  0  0  0  0  0  0  0  0  0  0  0
    2.0229   -0.1944    0.9048 O   0  0  0  0  0  0  0  0  0  0  0  0
    2.3737   -1.0968    1.8593 C   0  0  0  0  0  0  0  0  0  0  0  0
    2.3156   -0.8484    3.2340 C   0  0  0  0  0  0  0  0  0  0  0  0
    2.7462   -1.8242    4.1421 C   0  0  0  0  0  0  0  0  0  0  0  0
    3.2372   -3.0404    3.6836 C   0  0  0  0  0  0  0  0  0  0  0  0
    3.2892   -3.3198    2.3076 C   0  0  0  0  0  0  0  0  0  0  0  0
    3.8273   -4.6624    1.8156 C   0  0  1  0  0  0  0  0  0  0  0  0
    3.8901   -4.6124    0.7189 H   0  0  0  0  0  0  0  0  0  0  0  0
    5.1503   -5.0828    2.4287 C   0  0  0  0  0  0  0  0  0  0  0  0
    6.3712   -4.4335    2.5190 C   0  0  0  0  0  0  0  0  0  0  0  0
    7.3443   -4.9993    3.2123 O   0  0  0  0  0  0  0  0  0  0  0  0
    6.7184   -3.0911    1.9848 C   0  0  0  0  0  0  0  0  0  0  0  0
    7.2196   -2.1639    2.9215 C   0  0  0  0  0  0  0  0  0  0  0  0
    7.5782   -0.8647    2.5612 C   0  0  0  0  0  0  0  0  0  0  0  0
    8.0792    0.1291    3.5804 C   0  0  0  0  0  0  0  0  0  0  0  0
    7.4522   -0.5118    1.2065 C   0  0  0  0  0  0  0  0  0  0  0  0
    6.9958   -1.4310    0.2671 C   0  0  0  0  0  0  0  0  0  0  0  0
    6.6190   -2.7385    0.6222 C   0  0  0  0  0  0  0  0  0  0  0  0
    6.1817   -3.6898   -0.4661 C   0  0  0  0  0  0  0  0  0  0  0  0
    4.9915   -6.3558    3.0752 C   0  0  0  0  0  0  0  0  0  0  0  0
    5.8440   -6.9807    3.7175 O   0  0  0  0  0  0  0  0  0  0  0  0
    3.5594   -6.8254    2.8267 C   0  0  0  0  0  0  0  0  0  0  0  0
    3.0839   -7.9016    3.1329 O   0  0  0  0  0  0  0  0  0  0  0  0
    2.9387   -5.7931    2.1727 N   0  0  0  0  0  0  0  0  0  0  0  0
    1.6083   -5.9165    1.5803 C   0  0  0  0  0  0  0  0  0  0  0  0
    0.4985   -6.3545    2.5429 C   0  0  0  0  0  0  0  0  0  0  0  0
    0.2326   -5.3844    3.6982 C   0  0  0  0  0  0  0  0  0  0  0  0
   -0.7815   -5.9044    4.6127 N   0  0  0  0  0  0  0  0  0  0  0  0
   -0.2973   -6.8955    5.5767 C   0  0  0  0  0  0  0  0  0  0  0  0
    0.3309   -6.2496    6.8165 C   0  0  0  0  0  0  0  0  0  0  0  0
   -0.5583   -5.3259    7.4220 O   0  0  0  0  0  0  0  0  0  0  0  0
   -0.9608   -4.3099    6.5230 C   0  0  0  0  0  0  0  0  0  0  0  0
   -1.6229   -4.9172    5.2821 C   0  0  0  0  0  0  0  0  0  0  0  0
    2.8387   -2.3555    1.3910 C   0  0  0  0  0  0  0  0  0  0  0  0
    2.9313   -2.6280    0.0530 O   0  0  0  0  0  0  0  0  0  0  0  0
    1.7784   -2.5029   -0.7721 C   0  0  0  0  0  0  0  0  0  0  0  0
    1.3637    1.6375    0.3697 H   0  0  0  0  0  0  0  0  0  0  0  0
    2.3460    1.6300    1.8690 H   0  0  0  0  0  0  0  0  0  0  0  0
    0.6522    1.0323    1.8997 H   0  0  0  0  0  0  0  0  0  0  0  0
    1.9536    0.1101    3.6057 H   0  0  0  0  0  0  0  0  0  0  0  0
    2.7046   -1.6163    5.2139 H   0  0  0  0  0  0  0  0  0  0  0  0
    3.5913   -3.7911    4.3932 H   0  0  0  0  0  0  0  0  0  0  0  0
    6.9931   -5.8809    3.5690 H   0  0  0  0  0  0  0  0  0  0  0  0
    7.3192   -2.4806    3.9622 H   0  0  0  0  0  0  0  0  0  0  0  0
    8.2510   -0.3456    4.5576 H   0  0  0  0  0  0  0  0  0  0  0  0
    7.3543    0.9477    3.7296 H   0  0  0  0  0  0  0  0  0  0  0  0
    9.0258    0.5927    3.2578 H   0  0  0  0  0  0  0  0  0  0  0  0
    7.7322    0.4949    0.8817 H   0  0  0  0  0  0  0  0  0  0  0  0
    6.9390   -1.1372   -0.7849 H   0  0  0  0  0  0  0  0  0  0  0  0
    6.8109   -3.5618   -1.3606 H   0  0  0  0  0  0  0  0  0  0  0  0
    5.1417   -3.4802   -0.7645 H   0  0  0  0  0  0  0  0  0  0  0  0
    6.2460   -4.7422   -0.1580 H   0  0  0  0  0  0  0  0  0  0  0  0
    1.6558   -6.6385    0.7437 H   0  0  0  0  0  0  0  0  0  0  0  0
    1.3622   -4.9362    1.1445 H   0  0  0  0  0  0  0  0  0  0  0  0
    0.7529   -7.3484    2.9351 H   0  0  0  0  0  0  0  0  0  0  0  0
   -0.4298   -6.4703    1.9588 H   0  0  0  0  0  0  0  0  0  0  0  0
   -0.1340   -4.4277    3.2891 H   0  0  0  0  0  0  0  0  0  0  0  0
    1.1909   -5.1426    4.2016 H   0  0  0  0  0  0  0  0  0  0  0  0
    0.4283   -7.5675    5.0927 H   0  0  0  0  0  0  0  0  0  0  0  0
   -1.1529   -7.5155    5.9015 H   0  0  0  0  0  0  0  0  0  0  0  0
    1.2796   -5.7395    6.5455 H   0  0  0  0  0  0  0  0  0  0  0  0
    0.5686   -7.0103    7.5767 H   0  0  0  0  0  0  0  0  0  0  0  0
   -0.0868   -3.6902    6.2259 H   0  0  0  0  0  0  0  0  0  0  0  0
   -1.6642   -3.6596    7.0684 H   0  0  0  0  0  0  0  0  0  0  0  0
   -1.9068   -4.1263    4.5682 H   0  0  0  0  0  0  0  0  0  0  0  0
   -2.5547   -5.4182    5.6051 H   0  0  0  0  0  0  0  0  0  0  0  0
    1.9971   -3.0570   -1.6961 H   0  0  0  0  0  0  0  0  0  0  0  0
    1.5615   -1.4530   -1.0132 H   0  0  0  0  0  0  0  0  0  0  0  0
    0.8916   -2.9512   -0.2900 H   0  0  0  0  0  0  0  0  0  0  0  0
  1  2  1  0
  1 38  1  0
  1 39  1  0
  1 40  1  0
  2  3  1  0
  3  4  2  0
  3 35  1  0
  4  5  1  0
  4 41  1  0
  5  6  2  0
  5 42  1  0
  6  7  1  0
  6 43  1  0
  7  8  1  0
  7 35  2  0
  8  9  1  6
  8 10  1  0
  8 25  1  0
 10 11  2  0
 10 21  1  0
 11 12  1  0
 11 13  1  0
 12 44  1  0
 13 14  2  0
 13 19  1  0
 14 15  1  0
 14 45  1  0
 15 16  1  0
 15 17  2  0
 16 46  1  0
 16 47  1  0
 16 48  1  0
 17 18  1  0
 17 49  1  0
 18 19  2  0
 18 50  1  0
 19 20  1  0
 20 51  1  0
 20 52  1  0
 20 53  1  0
 21 22  2  0
 21 23  1  0
 23 24  2  0
 23 25  1  0
 25 26  1  0
 26 27  1  0
 26 54  1  0
 26 55  1  0
 27 28  1  0
 27 56  1  0
 27 57  1  0
 28 29  1  0
 28 58  1  0
 28 59  1  0
 29 30  1  0
 29 34  1  0
 30 31  1  0
 30 60  1  0
 30 61  1  0
 31 32  1  0
 31 62  1  0
 31 63  1  0
 32 33  1  0
 33 34  1  0
 33 64  1  0
 33 65  1  0
 34 66  1  0
 34 67  1  0
 35 36  1  0
 36 37  1  0
 37 68  1  0
 37 69  1  0
 37 70  1  0
M  END

