
     RDKit          3D

 33 34  0  0  0  0  0  0  0  0999 V2000
    1.1885    0.1192   -1.4382 C   0  0  0  0  0  0  0  0  0  0  0  0
    2.6181    0.2121   -1.8990 C   0  0  0  0  0  0  0  0  0  0  0  0
    2.9913    0.3393   -3.0307 O   0  0  0  0  0  0  0  0  0  0  0  0
    3.4614    0.1166   -0.8189 O   0  0  0  0  0  0  0  0  0  0  0  0
    4.8204   -0.0727   -0.9771 C   0  0  0  0  0  0  0  0  0  0  0  0
    5.6073    0.6920   -1.8327 C   0  0  0  0  0  0  0  0  0  0  0  0
    6.9893    0.4518   -1.8675 C   0  0  0  0  0  0  0  0  0  0  0  0
    8.0695    1.0460   -2.6208 C   0  0  0  0  0  0  0  0  0  0  0  0
    9.2192    0.4196   -2.2469 C   0  0  0  0  0  0  0  0  0  0  0  0
    8.9446   -0.5614   -1.2790 N   0  0  0  0  0  0  0  0  0  0  0  0
    9.8749   -1.4100   -0.6574 C   0  0  0  0  0  0  0  0  0  0  0  0
   11.3211   -1.2473   -1.0812 C   0  0  0  0  0  0  0  0  0  0  0  0
    9.5252   -2.2224    0.1702 O   0  0  0  0  0  0  0  0  0  0  0  0
    7.5586   -0.5477   -1.0390 C   0  0  0  0  0  0  0  0  0  0  0  0
    6.7752   -1.3192   -0.1760 C   0  0  0  0  0  0  0  0  0  0  0  0
    5.4062   -1.0722   -0.1641 C   0  0  0  0  0  0  0  0  0  0  0  0
    4.6381   -1.7828    0.7454 O   0  0  0  0  0  0  0  0  0  0  0  0
    3.6119   -2.5779    0.3211 C   0  0  0  0  0  0  0  0  0  0  0  0
    2.9134   -3.1881    1.5084 C   0  0  0  0  0  0  0  0  0  0  0  0
    3.3284   -2.7466   -0.8334 O   0  0  0  0  0  0  0  0  0  0  0  0
    0.5203    0.4682   -2.2346 H   0  0  0  0  0  0  0  0  0  0  0  0
    1.0340    0.6966   -0.5157 H   0  0  0  0  0  0  0  0  0  0  0  0
    0.9693   -0.9378   -1.2167 H   0  0  0  0  0  0  0  0  0  0  0  0
    5.1500    1.4516   -2.4634 H   0  0  0  0  0  0  0  0  0  0  0  0
    7.9884    1.8445   -3.3556 H   0  0  0  0  0  0  0  0  0  0  0  0
   10.2348    0.5865   -2.5921 H   0  0  0  0  0  0  0  0  0  0  0  0
   11.4474   -1.4384   -2.1584 H   0  0  0  0  0  0  0  0  0  0  0  0
   11.9170   -1.9713   -0.5134 H   0  0  0  0  0  0  0  0  0  0  0  0
   11.6890   -0.2306   -0.8722 H   0  0  0  0  0  0  0  0  0  0  0  0
    7.2037   -2.0839    0.4662 H   0  0  0  0  0  0  0  0  0  0  0  0
    2.4412   -2.3913    2.1043 H   0  0  0  0  0  0  0  0  0  0  0  0
    3.6416   -3.6929    2.1605 H   0  0  0  0  0  0  0  0  0  0  0  0
    2.1526   -3.8979    1.1631 H   0  0  0  0  0  0  0  0  0  0  0  0
  1  2  1  0
  1 21  1  0
  1 22  1  0
  1 23  1  0
  2  3  2  0
  2  4  1  0
  4  5  1  0
  5  6  2  0
  5 16  1  0
  6  7  1  0
  6 24  1  0
  7  8  1  0
  7 14  2  0
  8  9  2  0
  8 25  1  0
  9 10  1  0
  9 26  1  0
 10 11  1  0
 10 14  1  0
 11 12  1  0
 11 13  2  0
 12 27  1  0
 12 28  1  0
 12 29  1  0
 14 15  1  0
 15 16  2  0
 15 30  1  0
 16 17  1  0
 17 18  1  0
 18 19  1  0
 18 20  2  0
 19 31  1  0
 19 32  1  0
 19 33  1  0
M  END

