
     RDKit          3D

 32 33  0  0  0  0  0  0  0  0999 V2000
    0.7629    0.1737    0.0274 C   0  0  0  0  0  0  0  0  0  0  0  0
    2.0939    0.0787    0.4892 O   0  0  0  0  0  0  0  0  0  0  0  0
    2.8139    1.2089    0.6850 C   0  0  0  0  0  0  0  0  0  0  0  0
    2.3421    2.5056    0.4288 C   0  0  0  0  0  0  0  0  0  0  0  0
    3.1430    3.6182    0.6861 C   0  0  0  0  0  0  0  0  0  0  0  0
    4.4353    3.4539    1.2048 C   0  0  0  0  0  0  0  0  0  0  0  0
    5.2585    4.6231    1.4760 C   0  0  0  0  0  0  0  0  0  0  0  0
    4.9865    5.8831    1.3154 N   0  0  0  0  0  0  0  0  0  0  0  0
    6.0995    6.5968    1.7179 N   0  0  0  0  0  0  0  0  0  0  0  0
    6.9670    5.7084    2.0945 C   0  0  0  0  0  0  0  0  0  0  0  0
    8.2268    5.9806    2.5773 N   0  0  0  0  0  0  0  0  0  0  0  0
    9.1933    5.0820    2.9685 C   0  0  0  0  0  0  0  0  0  0  0  0
    9.0814    3.8778    2.9487 O   0  0  0  0  0  0  0  0  0  0  0  0
   10.5085    5.6885    3.4690 C   0  0  0  0  0  0  0  0  0  0  0  0
   10.6330    7.4876    3.4612 Cl  0  0  0  0  0  0  0  0  0  0  0  0
    6.5257    4.4461    1.9775 O   0  0  0  0  0  0  0  0  0  0  0  0
    4.9170    2.1545    1.4521 C   0  0  0  0  0  0  0  0  0  0  0  0
    4.1267    1.0371    1.1987 C   0  0  0  0  0  0  0  0  0  0  0  0
    4.6128   -0.1963    1.5157 O   0  0  0  0  0  0  0  0  0  0  0  0
    4.8472   -1.1053    0.4494 C   0  0  0  0  0  0  0  0  0  0  0  0
    0.3806   -0.8538   -0.0332 H   0  0  0  0  0  0  0  0  0  0  0  0
    0.7074    0.6369   -0.9739 H   0  0  0  0  0  0  0  0  0  0  0  0
    0.1305    0.7515    0.7242 H   0  0  0  0  0  0  0  0  0  0  0  0
    1.3375    2.6567    0.0341 H   0  0  0  0  0  0  0  0  0  0  0  0
    2.7700    4.6247    0.4904 H   0  0  0  0  0  0  0  0  0  0  0  0
    8.4471    6.9732    2.6348 H   0  0  0  0  0  0  0  0  0  0  0  0
   11.3191    5.2898    2.8444 H   0  0  0  0  0  0  0  0  0  0  0  0
   10.6654    5.3428    4.4996 H   0  0  0  0  0  0  0  0  0  0  0  0
    5.9174    1.9948    1.8575 H   0  0  0  0  0  0  0  0  0  0  0  0
    5.2966   -2.0030    0.8964 H   0  0  0  0  0  0  0  0  0  0  0  0
    5.5554   -0.6813   -0.2858 H   0  0  0  0  0  0  0  0  0  0  0  0
    3.9145   -1.3851   -0.0649 H   0  0  0  0  0  0  0  0  0  0  0  0
  1  2  1  0
  1 21  1  0
  1 22  1  0
  1 23  1  0
  2  3  1  0
  3  4  2  0
  3 18  1  0
  4  5  1  0
  4 24  1  0
  5  6  2  0
  5 25  1  0
  6  7  1  0
  6 17  1  0
  7  8  2  0
  7 16  1  0
  8  9  1  0
  9 10  2  0
 10 11  1  0
 10 16  1  0
 11 12  1  0
 11 26  1  0
 12 13  2  0
 12 14  1  0
 14 15  1  0
 14 27  1  0
 14 28  1  0
 17 18  2  0
 17 29  1  0
 18 19  1  0
 19 20  1  0
 20 30  1  0
 20 31  1  0
 20 32  1  0
M  END

