
     RDKit          3D

 72 76  0  0  0  0  0  0  0  0999 V2000
    0.6292   -0.0973    0.2382 C   0  0  0  0  0  0  0  0  0  0  0  0
    0.5337    1.2966    0.6459 N   0  0  0  0  0  0  0  0  0  0  0  0
    1.6361    2.0368    1.0153 C   0  0  0  0  0  0  0  0  0  0  0  0
    1.5580    3.2071    1.3542 O   0  0  0  0  0  0  0  0  0  0  0  0
    2.9901    1.3104    0.9399 C   0  0  0  0  0  0  0  0  0  0  0  0
    4.1171    2.0303    1.6338 C   0  0  0  0  0  0  0  0  0  0  0  0
    4.5472    3.3172    1.2602 C   0  0  0  0  0  0  0  0  0  0  0  0
    5.5968    3.9589    1.9057 C   0  0  0  0  0  0  0  0  0  0  0  0
    6.2636    3.3279    2.9722 C   0  0  0  0  0  0  0  0  0  0  0  0
    7.2766    4.0209    3.5483 O   0  0  0  0  0  0  0  0  0  0  0  0
    7.9897    3.4551    4.6347 C   0  0  0  0  0  0  0  0  0  0  0  0
    9.0536    4.4536    5.0721 C   0  0  0  0  0  0  0  0  0  0  0  0
    9.8701    3.9396    6.2415 C   0  0  1  0  0  0  0  0  0  0  0  0
    9.2631    3.7250    7.1296 H   0  0  0  0  0  0  0  0  0  0  0  0
   11.0462    3.0119    6.0278 C   0  0  0  0  0  0  0  0  0  0  0  0
   11.2770    4.4089    6.5496 C   0  0  1  0  0  0  0  0  0  0  0  0
   11.5041    4.4741    7.6212 H   0  0  0  0  0  0  0  0  0  0  0  0
   12.0193    5.4536    5.7335 C   0  0  2  0  0  0  0  0  0  0  0  0
   13.5442    5.2695    5.8329 C   0  0  0  0  0  0  0  0  0  0  0  0
   14.3060    6.3529    5.0628 C   0  0  0  0  0  0  0  0  0  0  0  0
   13.8830    7.6855    5.4782 N   0  0  0  0  0  0  0  0  0  0  0  0
   14.7744    8.6560    5.8415 C   0  0  0  0  0  0  0  0  0  0  0  0
   16.0872    8.3349    5.8582 N   0  0  0  0  0  0  0  0  0  0  0  0
   16.9451    9.2758    6.2237 C   0  0  0  0  0  0  0  0  0  0  0  0
   16.5301   10.5630    6.5809 C   0  0  0  0  0  0  0  0  0  0  0  0
   17.6648   11.7956    7.0576 Cl  0  0  0  0  0  0  0  0  0  0  0  0
   15.1536   10.8067    6.5294 C   0  0  0  0  0  0  0  0  0  0  0  0
   14.2862    9.8740    6.1655 N   0  0  0  0  0  0  0  0  0  0  0  0
   12.4502    7.9393    5.3780 C   0  0  0  0  0  0  0  0  0  0  0  0
   11.6492    6.8875    6.1527 C   0  0  0  0  0  0  0  0  0  0  0  0
    5.8590    2.0480    3.3728 C   0  0  0  0  0  0  0  0  0  0  0  0
    4.7996    1.4402    2.6968 C   0  0  0  0  0  0  0  0  0  0  0  0
    4.4362    0.2061    3.1077 F   0  0  0  0  0  0  0  0  0  0  0  0
   -0.7827    1.9357    0.7027 C   0  0  1  0  0  0  0  0  0  0  0  0
   -1.5277    2.0668   -0.6393 C   0  0  0  0  0  0  0  0  0  0  0  0
   -2.9413    2.4520   -0.1902 C   0  0  0  0  0  0  0  0  0  0  0  0
   -3.2032    1.5504    1.0388 C   0  0  0  0  0  0  0  0  0  0  0  0
   -1.8074    1.2631    1.6574 C   0  0  0  0  0  0  0  0  0  0  0  0
    0.8962   -0.7699    1.0721 H   0  0  0  0  0  0  0  0  0  0  0  0
    1.3663   -0.2431   -0.5668 H   0  0  0  0  0  0  0  0  0  0  0  0
   -0.3412   -0.4275   -0.1536 H   0  0  0  0  0  0  0  0  0  0  0  0
    3.2273    1.1826   -0.1330 H   0  0  0  0  0  0  0  0  0  0  0  0
    2.9019    0.2955    1.3490 H   0  0  0  0  0  0  0  0  0  0  0  0
    4.0280    3.8269    0.4470 H   0  0  0  0  0  0  0  0  0  0  0  0
    5.9203    4.9579    1.6086 H   0  0  0  0  0  0  0  0  0  0  0  0
    8.4588    2.5000    4.3315 H   0  0  0  0  0  0  0  0  0  0  0  0
    7.2986    3.2324    5.4703 H   0  0  0  0  0  0  0  0  0  0  0  0
    8.5521    5.4005    5.3370 H   0  0  0  0  0  0  0  0  0  0  0  0
    9.6962    4.6711    4.2046 H   0  0  0  0  0  0  0  0  0  0  0  0
   11.3397    2.8126    4.9910 H   0  0  0  0  0  0  0  0  0  0  0  0
   11.1851    2.1604    6.6999 H   0  0  0  0  0  0  0  0  0  0  0  0
   11.7438    5.3335    4.6693 H   0  0  0  0  0  0  0  0  0  0  0  0
   13.8337    4.2773    5.4486 H   0  0  0  0  0  0  0  0  0  0  0  0
   13.8471    5.3029    6.8948 H   0  0  0  0  0  0  0  0  0  0  0  0
   14.1138    6.2376    3.9768 H   0  0  0  0  0  0  0  0  0  0  0  0
   15.3872    6.2714    5.2182 H   0  0  0  0  0  0  0  0  0  0  0  0
   18.0098    9.0142    6.2378 H   0  0  0  0  0  0  0  0  0  0  0  0
   14.7564   11.7942    6.7929 H   0  0  0  0  0  0  0  0  0  0  0  0
   12.1550    7.9138    4.3095 H   0  0  0  0  0  0  0  0  0  0  0  0
   12.2530    8.9498    5.7517 H   0  0  0  0  0  0  0  0  0  0  0  0
   10.5724    7.0663    5.9984 H   0  0  0  0  0  0  0  0  0  0  0  0
   11.8430    7.0115    7.2333 H   0  0  0  0  0  0  0  0  0  0  0  0
    6.3311    1.5028    4.1883 H   0  0  0  0  0  0  0  0  0  0  0  0
   -0.5766    2.9502    1.0669 H   0  0  0  0  0  0  0  0  0  0  0  0
   -1.5520    1.0999   -1.1742 H   0  0  0  0  0  0  0  0  0  0  0  0
   -1.0564    2.8033   -1.3085 H   0  0  0  0  0  0  0  0  0  0  0  0
   -3.6996    2.3327   -0.9795 H   0  0  0  0  0  0  0  0  0  0  0  0
   -2.9517    3.5138    0.1097 H   0  0  0  0  0  0  0  0  0  0  0  0
   -3.6778    0.6088    0.7180 H   0  0  0  0  0  0  0  0  0  0  0  0
   -3.8946    2.0196    1.7552 H   0  0  0  0  0  0  0  0  0  0  0  0
   -1.6277    0.1784    1.7256 H   0  0  0  0  0  0  0  0  0  0  0  0
   -1.7045    1.6596    2.6789 H   0  0  0  0  0  0  0  0  0  0  0  0
  1  2  1  0
  1 39  1  0
  1 40  1  0
  1 41  1  0
  2  3  1  0
  2 34  1  0
  3  4  2  0
  3  5  1  0
  5  6  1  0
  5 42  1  0
  5 43  1  0
  6  7  2  0
  6 32  1  0
  7  8  1  0
  7 44  1  0
  8  9  2  0
  8 45  1  0
  9 10  1  0
  9 31  1  0
 10 11  1  0
 11 12  1  0
 11 46  1  0
 11 47  1  0
 12 13  1  0
 12 48  1  0
 12 49  1  0
 13 14  1  1
 13 15  1  0
 13 16  1  0
 15 16  1  0
 15 50  1  0
 15 51  1  0
 16 17  1  1
 16 18  1  0
 18 19  1  0
 18 30  1  0
 18 52  1  6
 19 20  1  0
 19 53  1  0
 19 54  1  0
 20 21  1  0
 20 55  1  0
 20 56  1  0
 21 22  1  0
 21 29  1  0
 22 23  2  0
 22 28  1  0
 23 24  1  0
 24 25  2  0
 24 57  1  0
 25 26  1  0
 25 27  1  0
 27 28  2  0
 27 58  1  0
 29 30  1  0
 29 59  1  0
 29 60  1  0
 30 61  1  0
 30 62  1  0
 31 32  2  0
 31 63  1  0
 32 33  1  0
 34 35  1  0
 34 38  1  0
 34 64  1  1
 35 36  1  0
 35 65  1  0
 35 66  1  0
 36 37  1  0
 36 67  1  0
 36 68  1  0
 37 38  1  0
 37 69  1  0
 37 70  1  0
 38 71  1  0
 38 72  1  0
M  END

