
     RDKit          3D

 48 49  0  0  0  0  0  0  0  0999 V2000
    0.4331   -0.1452   -0.8077 C   0  0  0  0  0  0  0  0  0  0  0  0
    1.9028   -0.0588   -0.3832 C   0  0  1  0  0  0  0  0  0  0  0  0
    2.6593   -1.3725   -0.6061 C   0  0  1  0  0  0  0  0  0  0  0  0
    1.9910   -2.4178    0.0081 O   0  0  0  0  0  0  0  0  0  0  0  0
    2.6731   -3.6772    0.0587 C   0  0  1  0  0  0  0  0  0  0  0  0
    2.6639   -4.1894    1.5146 C   0  0  1  0  0  0  0  0  0  0  0  0
    3.2798   -3.2738    2.4666 N   0  0  0  0  0  0  0  0  0  0  0  0
    1.2291   -4.5215    1.9472 C   0  0  0  0  0  0  0  0  0  0  0  0
    0.5346   -5.5358    1.0251 C   0  0  2  0  0  0  0  0  0  0  0  0
    1.0564   -6.8878    1.2338 N   0  0  0  0  0  0  0  0  0  0  0  0
    0.5775   -5.0458   -0.4488 C   0  0  2  0  0  0  0  0  0  0  0  0
    0.0293   -5.9981   -1.3369 O   0  0  0  0  0  0  0  0  0  0  0  0
    1.9894   -4.6546   -0.9131 C   0  0  2  0  0  0  0  0  0  0  0  0
    2.7435   -5.8686   -1.0185 O   0  0  0  0  0  0  0  0  0  0  0  0
    2.7586   -1.6572   -2.0020 O   0  0  0  0  0  0  0  0  0  0  0  0
    3.5122   -0.7082   -2.7750 C   0  0  2  0  0  0  0  0  0  0  0  0
    5.0134   -0.8986   -2.5217 C   0  0  0  0  0  0  0  0  0  0  0  0
    5.3522   -2.2613   -2.6732 O   0  0  0  0  0  0  0  0  0  0  0  0
    2.9595    0.7246   -2.5793 C   0  0  2  0  0  0  0  0  0  0  0  0
    3.8035    1.6934   -3.1547 O   0  0  0  0  0  0  0  0  0  0  0  0
    2.6717    1.0631   -1.1070 C   0  0  2  0  0  0  0  0  0  0  0  0
    3.9468    1.3102   -0.5091 O   0  0  0  0  0  0  0  0  0  0  0  0
   -0.0998   -0.8792   -0.1880 H   0  0  0  0  0  0  0  0  0  0  0  0
    0.3324   -0.4643   -1.8553 H   0  0  0  0  0  0  0  0  0  0  0  0
   -0.0663    0.8300   -0.6925 H   0  0  0  0  0  0  0  0  0  0  0  0
    1.9434    0.1608    0.6993 H   0  0  0  0  0  0  0  0  0  0  0  0
    3.6809   -1.2785   -0.1869 H   0  0  0  0  0  0  0  0  0  0  0  0
    3.7225   -3.5311   -0.2647 H   0  0  0  0  0  0  0  0  0  0  0  0
    3.2549   -5.1207    1.5210 H   0  0  0  0  0  0  0  0  0  0  0  0
    2.8165   -2.3655    2.4129 H   0  0  0  0  0  0  0  0  0  0  0  0
    4.2623   -3.1170    2.2396 H   0  0  0  0  0  0  0  0  0  0  0  0
    0.6475   -3.5833    1.9593 H   0  0  0  0  0  0  0  0  0  0  0  0
    1.2469   -4.9132    2.9743 H   0  0  0  0  0  0  0  0  0  0  0  0
   -0.5315   -5.5703    1.3073 H   0  0  0  0  0  0  0  0  0  0  0  0
    1.9864   -6.9755    0.8234 H   0  0  0  0  0  0  0  0  0  0  0  0
    0.4679   -7.5504    0.7286 H   0  0  0  0  0  0  0  0  0  0  0  0
   -0.0443   -4.1390   -0.5255 H   0  0  0  0  0  0  0  0  0  0  0  0
    0.7384   -6.6379   -1.5019 H   0  0  0  0  0  0  0  0  0  0  0  0
    1.9073   -4.1710   -1.9013 H   0  0  0  0  0  0  0  0  0  0  0  0
    3.4952   -5.7251   -1.6070 H   0  0  0  0  0  0  0  0  0  0  0  0
    3.3257   -1.0080   -3.8184 H   0  0  0  0  0  0  0  0  0  0  0  0
    5.2980   -0.5168   -1.5236 H   0  0  0  0  0  0  0  0  0  0  0  0
    5.5724   -0.3110   -3.2658 H   0  0  0  0  0  0  0  0  0  0  0  0
    4.5719   -2.7550   -2.3806 H   0  0  0  0  0  0  0  0  0  0  0  0
    1.9986    0.7726   -3.1164 H   0  0  0  0  0  0  0  0  0  0  0  0
    4.4389    1.9359   -2.4622 H   0  0  0  0  0  0  0  0  0  0  0  0
    2.0719    1.9922   -1.0907 H   0  0  0  0  0  0  0  0  0  0  0  0
    3.8211    1.7867    0.3211 H   0  0  0  0  0  0  0  0  0  0  0  0
  1  2  1  0
  1 23  1  0
  1 24  1  0
  1 25  1  0
  2  3  1  0
  2 21  1  0
  2 26  1  1
  3  4  1  0
  3 15  1  0
  3 27  1  1
  4  5  1  0
  5  6  1  0
  5 13  1  0
  5 28  1  6
  6  7  1  0
  6  8  1  0
  6 29  1  6
  7 30  1  0
  7 31  1  0
  8  9  1  0
  8 32  1  0
  8 33  1  0
  9 10  1  0
  9 11  1  0
  9 34  1  1
 10 35  1  0
 10 36  1  0
 11 12  1  0
 11 13  1  0
 11 37  1  1
 12 38  1  0
 13 14  1  0
 13 39  1  6
 14 40  1  0
 15 16  1  0
 16 17  1  0
 16 19  1  0
 16 41  1  6
 17 18  1  0
 17 42  1  0
 17 43  1  0
 18 44  1  0
 19 20  1  0
 19 21  1  0
 19 45  1  6
 20 46  1  0
 21 22  1  0
 21 47  1  6
 22 48  1  0
M  END

