
     RDKit          3D

 53 53  0  0  0  0  0  0  0  0999 V2000
    0.7653    0.3445    0.0485 C   0  0  0  0  0  0  0  0  0  0  0  0
    2.2789    0.1267    0.0736 C   0  0  0  0  0  0  0  0  0  0  0  0
    2.8482   -0.3809   -1.2549 C   0  0  0  0  0  0  0  0  0  0  0  0
    4.3635   -0.6019   -1.2383 C   0  0  0  0  0  0  0  0  0  0  0  0
    4.9320   -1.1097   -2.5667 C   0  0  0  0  0  0  0  0  0  0  0  0
    6.4474   -1.3309   -2.5495 C   0  0  0  0  0  0  0  0  0  0  0  0
    7.0149   -1.8397   -3.8779 C   0  0  0  0  0  0  0  0  0  0  0  0
    8.5303   -2.0617   -3.8600 C   0  0  0  0  0  0  0  0  0  0  0  0
    9.0931   -2.5755   -5.1880 C   0  0  0  0  0  0  0  0  0  0  0  0
   10.6088   -2.8033   -5.1418 C   0  0  0  0  0  0  0  0  0  0  0  0
   11.1773   -3.2858   -6.4006 N   0  0  0  0  0  0  0  0  0  0  0  0
   11.4261   -2.3172   -7.4545 C   0  0  0  0  0  0  0  0  0  0  0  0
   11.2575   -4.6455   -6.5857 C   0  0  0  0  0  0  0  0  0  0  0  0
   10.9359   -5.4441   -5.7202 O   0  0  0  0  0  0  0  0  0  0  0  0
   11.7820   -5.1233   -7.9404 C   0  0  0  0  0  0  0  0  0  0  0  0
   11.7887   -6.9594   -7.9614 S   0  0  0  0  0  0  0  0  0  0  0  0
   12.4118   -7.2001   -9.6328 C   0  0  0  0  0  0  0  0  0  0  0  0
   13.7885   -7.3539   -9.8598 C   0  0  0  0  0  0  0  0  0  0  0  0
   14.2687   -7.5859  -11.1522 C   0  0  0  0  0  0  0  0  0  0  0  0
   13.3782   -7.6719  -12.2271 C   0  0  0  0  0  0  0  0  0  0  0  0
   12.0046   -7.5289  -12.0060 C   0  0  0  0  0  0  0  0  0  0  0  0
   11.5221   -7.2981  -10.7144 C   0  0  0  0  0  0  0  0  0  0  0  0
    0.3913    0.7089    1.0187 H   0  0  0  0  0  0  0  0  0  0  0  0
    0.2293   -0.5912   -0.1842 H   0  0  0  0  0  0  0  0  0  0  0  0
    0.4793    1.0851   -0.7174 H   0  0  0  0  0  0  0  0  0  0  0  0
    2.5351   -0.5902    0.8751 H   0  0  0  0  0  0  0  0  0  0  0  0
    2.7831    1.0718    0.3466 H   0  0  0  0  0  0  0  0  0  0  0  0
    2.5925    0.3359   -2.0579 H   0  0  0  0  0  0  0  0  0  0  0  0
    2.3444   -1.3269   -1.5289 H   0  0  0  0  0  0  0  0  0  0  0  0
    4.6186   -1.3185   -0.4353 H   0  0  0  0  0  0  0  0  0  0  0  0
    4.8669    0.3441   -0.9642 H   0  0  0  0  0  0  0  0  0  0  0  0
    4.6771   -0.3934   -3.3701 H   0  0  0  0  0  0  0  0  0  0  0  0
    4.4291   -2.0558   -2.8407 H   0  0  0  0  0  0  0  0  0  0  0  0
    6.7023   -2.0474   -1.7466 H   0  0  0  0  0  0  0  0  0  0  0  0
    6.9510   -0.3849   -2.2757 H   0  0  0  0  0  0  0  0  0  0  0  0
    6.7604   -1.1235   -4.6816 H   0  0  0  0  0  0  0  0  0  0  0  0
    6.5128   -2.7860   -4.1512 H   0  0  0  0  0  0  0  0  0  0  0  0
    8.7846   -2.7777   -3.0569 H   0  0  0  0  0  0  0  0  0  0  0  0
    9.0339   -1.1149   -3.5878 H   0  0  0  0  0  0  0  0  0  0  0  0
    8.8464   -1.8596   -5.9935 H   0  0  0  0  0  0  0  0  0  0  0  0
    8.6066   -3.5295   -5.4541 H   0  0  0  0  0  0  0  0  0  0  0  0
   10.8421   -3.5515   -4.3720 H   0  0  0  0  0  0  0  0  0  0  0  0
   11.1269   -1.8666   -4.8716 H   0  0  0  0  0  0  0  0  0  0  0  0
   11.6708   -1.3459   -6.9994 H   0  0  0  0  0  0  0  0  0  0  0  0
   10.5566   -2.1657   -8.1215 H   0  0  0  0  0  0  0  0  0  0  0  0
   12.2840   -2.6098   -8.0759 H   0  0  0  0  0  0  0  0  0  0  0  0
   12.8028   -4.7462   -8.1159 H   0  0  0  0  0  0  0  0  0  0  0  0
   11.1489   -4.7425   -8.7581 H   0  0  0  0  0  0  0  0  0  0  0  0
   14.4777   -7.2962   -9.0138 H   0  0  0  0  0  0  0  0  0  0  0  0
   15.3426   -7.7054  -11.3189 H   0  0  0  0  0  0  0  0  0  0  0  0
   13.7543   -7.8567  -13.2367 H   0  0  0  0  0  0  0  0  0  0  0  0
   11.3040   -7.6044  -12.8419 H   0  0  0  0  0  0  0  0  0  0  0  0
   10.4492   -7.1988  -10.5327 H   0  0  0  0  0  0  0  0  0  0  0  0
  1  2  1  0
  1 23  1  0
  1 24  1  0
  1 25  1  0
  2  3  1  0
  2 26  1  0
  2 27  1  0
  3  4  1  0
  3 28  1  0
  3 29  1  0
  4  5  1  0
  4 30  1  0
  4 31  1  0
  5  6  1  0
  5 32  1  0
  5 33  1  0
  6  7  1  0
  6 34  1  0
  6 35  1  0
  7  8  1  0
  7 36  1  0
  7 37  1  0
  8  9  1  0
  8 38  1  0
  8 39  1  0
  9 10  1  0
  9 40  1  0
  9 41  1  0
 10 11  1  0
 10 42  1  0
 10 43  1  0
 11 12  1  0
 11 13  1  0
 12 44  1  0
 12 45  1  0
 12 46  1  0
 13 14  2  0
 13 15  1  0
 15 16  1  0
 15 47  1  0
 15 48  1  0
 16 17  1  0
 17 18  2  0
 17 22  1  0
 18 19  1  0
 18 49  1  0
 19 20  2  0
 19 50  1  0
 20 21  1  0
 20 51  1  0
 21 22  2  0
 21 52  1  0
 22 53  1  0
M  END

