
     RDKit          3D

 51 54  0  0  0  0  0  0  0  0999 V2000
   15.3180    9.3700   -2.6904 C   0  0  0  0  0  0  0  0  0  0  0  0
   14.2504    8.3086   -2.6025 C   0  0  0  0  0  0  0  0  0  0  0  0
   14.3238    7.2685   -1.6623 C   0  0  0  0  0  0  0  0  0  0  0  0
   13.3401    6.2832   -1.5906 C   0  0  0  0  0  0  0  0  0  0  0  0
   12.2401    6.3044   -2.4669 C   0  0  0  0  0  0  0  0  0  0  0  0
   11.2162    5.2546   -2.3743 C   0  0  0  0  0  0  0  0  0  0  0  0
   11.3458    4.1474   -1.6868 N   0  0  0  0  0  0  0  0  0  0  0  0
   10.2363    3.3388   -1.7614 C   0  0  0  0  0  0  0  0  0  0  0  0
   10.2177    2.0271   -1.0263 C   0  0  0  0  0  0  0  0  0  0  0  0
   11.2758    0.9813   -1.4341 C   0  0  0  0  0  0  0  0  0  0  0  0
   10.9848   -0.2011   -1.4850 O   0  0  0  0  0  0  0  0  0  0  0  0
   12.5207    1.4997   -1.6629 N   0  0  0  0  0  0  0  0  0  0  0  0
   13.7063    0.8249   -2.0132 C   0  0  0  0  0  0  0  0  0  0  0  0
   14.8558    1.5946   -2.2451 C   0  0  0  0  0  0  0  0  0  0  0  0
   16.0728    1.0013   -2.5926 C   0  0  0  0  0  0  0  0  0  0  0  0
   16.1573   -0.3922   -2.7155 C   0  0  0  0  0  0  0  0  0  0  0  0
   17.2914   -1.0740   -3.0501 O   0  0  0  0  0  0  0  0  0  0  0  0
   18.4860   -0.3608   -3.2756 C   0  0  0  0  0  0  0  0  0  0  0  0
   19.6019   -1.3270   -3.5918 C   0  0  0  0  0  0  0  0  0  0  0  0
   19.5691   -2.6659   -3.1868 C   0  0  0  0  0  0  0  0  0  0  0  0
   20.6587   -3.4864   -3.4831 C   0  0  0  0  0  0  0  0  0  0  0  0
   21.7453   -2.9377   -4.1705 C   0  0  0  0  0  0  0  0  0  0  0  0
   21.7878   -1.6633   -4.5678 N   0  0  0  0  0  0  0  0  0  0  0  0
   20.7399   -0.8889   -4.2867 C   0  0  0  0  0  0  0  0  0  0  0  0
   15.0089   -1.1661   -2.4871 C   0  0  0  0  0  0  0  0  0  0  0  0
   13.7976   -0.5761   -2.1409 C   0  0  0  0  0  0  0  0  0  0  0  0
    9.2186    3.8410   -2.5347 C   0  0  0  0  0  0  0  0  0  0  0  0
    9.6582    5.3838   -3.1784 S   0  0  0  0  0  0  0  0  0  0  0  0
   12.1610    7.3450   -3.4112 C   0  0  0  0  0  0  0  0  0  0  0  0
   13.1470    8.3261   -3.4735 C   0  0  0  0  0  0  0  0  0  0  0  0
   16.0421    9.2864   -1.8668 H   0  0  0  0  0  0  0  0  0  0  0  0
   14.8816   10.3817   -2.6586 H   0  0  0  0  0  0  0  0  0  0  0  0
   15.8783    9.2925   -3.6379 H   0  0  0  0  0  0  0  0  0  0  0  0
   15.1667    7.2330   -0.9664 H   0  0  0  0  0  0  0  0  0  0  0  0
   13.4054    5.4892   -0.8448 H   0  0  0  0  0  0  0  0  0  0  0  0
    9.2468    1.5304   -1.1432 H   0  0  0  0  0  0  0  0  0  0  0  0
   10.3574    2.2192    0.0533 H   0  0  0  0  0  0  0  0  0  0  0  0
   12.5830    2.5173   -1.5995 H   0  0  0  0  0  0  0  0  0  0  0  0
   14.8026    2.6835   -2.1566 H   0  0  0  0  0  0  0  0  0  0  0  0
   16.9386    1.6405   -2.7656 H   0  0  0  0  0  0  0  0  0  0  0  0
   18.7496    0.2333   -2.3767 H   0  0  0  0  0  0  0  0  0  0  0  0
   18.3645    0.3581   -4.1087 H   0  0  0  0  0  0  0  0  0  0  0  0
   18.6953   -3.0505   -2.6580 H   0  0  0  0  0  0  0  0  0  0  0  0
   20.6671   -4.5380   -3.1864 H   0  0  0  0  0  0  0  0  0  0  0  0
   22.6168   -3.5570   -4.4142 H   0  0  0  0  0  0  0  0  0  0  0  0
   20.7972    0.1510   -4.6360 H   0  0  0  0  0  0  0  0  0  0  0  0
   15.0853   -2.2507   -2.5892 H   0  0  0  0  0  0  0  0  0  0  0  0
   12.9116   -1.1826   -1.9676 H   0  0  0  0  0  0  0  0  0  0  0  0
    8.2510    3.3913   -2.7490 H   0  0  0  0  0  0  0  0  0  0  0  0
   11.3246    7.3836   -4.1143 H   0  0  0  0  0  0  0  0  0  0  0  0
   13.0616    9.1223   -4.2186 H   0  0  0  0  0  0  0  0  0  0  0  0
  1  2  1  0
  1 31  1  0
  1 32  1  0
  1 33  1  0
  2  3  2  0
  2 30  1  0
  3  4  1  0
  3 34  1  0
  4  5  2  0
  4 35  1  0
  5  6  1  0
  5 29  1  0
  6  7  2  0
  6 28  1  0
  7  8  1  0
  8  9  1  0
  8 27  2  0
  9 10  1  0
  9 36  1  0
  9 37  1  0
 10 11  2  0
 10 12  1  0
 12 13  1  0
 12 38  1  0
 13 14  2  0
 13 26  1  0
 14 15  1  0
 14 39  1  0
 15 16  2  0
 15 40  1  0
 16 17  1  0
 16 25  1  0
 17 18  1  0
 18 19  1  0
 18 41  1  0
 18 42  1  0
 19 20  2  0
 19 24  1  0
 20 21  1  0
 20 43  1  0
 21 22  2  0
 21 44  1  0
 22 23  1  0
 22 45  1  0
 23 24  2  0
 24 46  1  0
 25 26  2  0
 25 47  1  0
 26 48  1  0
 27 28  1  0
 27 49  1  0
 29 30  2  0
 29 50  1  0
 30 51  1  0
M  END

