
     RDKit          3D

 41 42  0  0  0  0  0  0  0  0999 V2000
    5.2412    2.6280   -0.3922 C   0  0  0  0  0  0  0  0  0  0  0  0
    5.1969    1.1010   -0.4570 C   0  0  0  0  0  0  0  0  0  0  0  0
    5.1726    0.4644    0.9228 C   0  0  0  0  0  0  0  0  0  0  0  0
    5.1303   -0.9554    0.7538 O   0  0  0  0  0  0  0  0  0  0  0  0
    5.1003   -1.7337    1.8561 C   0  0  0  0  0  0  0  0  0  0  0  0
    5.1054   -1.1771    3.0676 N   0  0  0  0  0  0  0  0  0  0  0  0
    5.0760   -2.0157    4.1016 C   0  0  0  0  0  0  0  0  0  0  0  0
    5.0726   -3.3435    4.0509 N   0  0  0  0  0  0  0  0  0  0  0  0
    5.0928   -3.9048    2.8285 C   0  0  0  0  0  0  0  0  0  0  0  0
    5.1107   -5.2696    2.7174 N   0  0  0  0  0  0  0  0  0  0  0  0
    5.3231   -6.1452    3.8592 C   0  0  0  0  0  0  0  0  0  0  0  0
    4.0624   -6.3536    4.7033 C   0  0  0  0  0  0  0  0  0  0  0  0
    4.2592   -7.4720    5.7239 C   0  0  0  0  0  0  0  0  0  0  0  0
    4.9106   -8.4728    5.4771 O   0  0  0  0  0  0  0  0  0  0  0  0
    3.6391   -7.2722    6.9300 N   0  0  0  0  0  0  0  0  0  0  0  0
    3.6101   -8.2681    7.9594 C   0  0  1  0  0  0  0  0  0  0  0  0
    4.8497   -8.5220    8.7741 C   0  0  0  0  0  0  0  0  0  0  0  0
    3.6761   -7.8071    9.3925 C   0  0  0  0  0  0  0  0  0  0  0  0
    5.0719   -3.1189    1.6509 C   0  0  0  0  0  0  0  0  0  0  0  0
    5.1034   -3.7276    0.3801 N   0  0  0  0  0  0  0  0  0  0  0  0
    5.2587    3.0678   -1.4012 H   0  0  0  0  0  0  0  0  0  0  0  0
    6.1386    2.9838    0.1406 H   0  0  0  0  0  0  0  0  0  0  0  0
    4.3614    3.0359    0.1327 H   0  0  0  0  0  0  0  0  0  0  0  0
    6.0718    0.7167   -1.0091 H   0  0  0  0  0  0  0  0  0  0  0  0
    4.3056    0.7680   -1.0163 H   0  0  0  0  0  0  0  0  0  0  0  0
    4.2956    0.7925    1.5063 H   0  0  0  0  0  0  0  0  0  0  0  0
    6.0640    0.7390    1.5120 H   0  0  0  0  0  0  0  0  0  0  0  0
    5.0590   -1.5619    5.1002 H   0  0  0  0  0  0  0  0  0  0  0  0
    5.4264   -5.6018    1.8118 H   0  0  0  0  0  0  0  0  0  0  0  0
    6.1258   -5.7474    4.5044 H   0  0  0  0  0  0  0  0  0  0  0  0
    5.6544   -7.1240    3.4862 H   0  0  0  0  0  0  0  0  0  0  0  0
    3.2324   -6.6525    4.0383 H   0  0  0  0  0  0  0  0  0  0  0  0
    3.7754   -5.4065    5.1842 H   0  0  0  0  0  0  0  0  0  0  0  0
    3.0425   -6.4592    7.0332 H   0  0  0  0  0  0  0  0  0  0  0  0
    2.9838   -9.1427    7.7412 H   0  0  0  0  0  0  0  0  0  0  0  0
    5.7348   -7.9324    8.5243 H   0  0  0  0  0  0  0  0  0  0  0  0
    5.0577   -9.5532    9.0708 H   0  0  0  0  0  0  0  0  0  0  0  0
    3.7740   -6.7319    9.5712 H   0  0  0  0  0  0  0  0  0  0  0  0
    3.0607   -8.3321   10.1280 H   0  0  0  0  0  0  0  0  0  0  0  0
    4.2753   -4.2992    0.2040 H   0  0  0  0  0  0  0  0  0  0  0  0
    5.1836   -3.0324   -0.3584 H   0  0  0  0  0  0  0  0  0  0  0  0
  1  2  1  0
  1 21  1  0
  1 22  1  0
  1 23  1  0
  2  3  1  0
  2 24  1  0
  2 25  1  0
  3  4  1  0
  3 26  1  0
  3 27  1  0
  4  5  1  0
  5  6  2  0
  5 19  1  0
  6  7  1  0
  7  8  2  0
  7 28  1  0
  8  9  1  0
  9 10  1  0
  9 19  2  0
 10 11  1  0
 10 29  1  0
 11 12  1  0
 11 30  1  0
 11 31  1  0
 12 13  1  0
 12 32  1  0
 12 33  1  0
 13 14  2  0
 13 15  1  0
 15 16  1  0
 15 34  1  0
 16 17  1  0
 16 18  1  0
 16 35  1  1
 17 18  1  0
 17 36  1  0
 17 37  1  0
 18 38  1  0
 18 39  1  0
 19 20  1  0
 20 40  1  0
 20 41  1  0
M  END

