
     RDKit          3D

 43 43  0  0  0  0  0  0  0  0999 V2000
    0.8160    0.3587    0.2275 C   0  0  0  0  0  0  0  0  0  0  0  0
    2.2905    0.3600   -0.1847 C   0  0  0  0  0  0  0  0  0  0  0  0
    3.1002    1.5472    0.3722 C   0  0  1  0  0  0  0  0  0  0  0  0
    3.0133    1.6385    1.9142 C   0  0  0  0  0  0  0  0  0  0  0  0
    3.5340    0.4102    2.6632 C   0  0  0  0  0  0  0  0  0  0  0  0
    4.5195    1.5243   -0.0467 N   0  0  0  0  0  0  0  0  0  0  0  0
    4.8272    0.9020   -1.3219 C   0  0  0  0  0  0  0  0  0  0  0  0
    5.1726    2.8263    0.0743 C   0  0  0  0  0  0  0  0  0  0  0  0
    6.6399    2.7292    0.5123 C   0  0  0  0  0  0  0  0  0  0  0  0
    7.3316    4.1030    0.6557 C   0  0  0  0  0  0  0  0  0  0  0  0
    6.7768    4.9192    1.8156 C   0  0  0  0  0  0  0  0  0  0  0  0
    5.8448    5.6829    1.6342 O   0  0  0  0  0  0  0  0  0  0  0  0
    7.3541    4.7461    3.1956 C   0  0  0  0  0  0  0  0  0  0  0  0
    8.4121    3.8683    3.4896 C   0  0  0  0  0  0  0  0  0  0  0  0
    8.8949    3.7526    4.7959 C   0  0  0  0  0  0  0  0  0  0  0  0
    8.3291    4.5143    5.8221 C   0  0  0  0  0  0  0  0  0  0  0  0
    7.2748    5.3921    5.5404 C   0  0  0  0  0  0  0  0  0  0  0  0
    6.7911    5.5045    4.2387 C   0  0  0  0  0  0  0  0  0  0  0  0
    0.2671   -0.4351   -0.3036 H   0  0  0  0  0  0  0  0  0  0  0  0
    0.3291    1.3177   -0.0177 H   0  0  0  0  0  0  0  0  0  0  0  0
    0.6791    0.1841    1.3058 H   0  0  0  0  0  0  0  0  0  0  0  0
    2.3350    0.3825   -1.2845 H   0  0  0  0  0  0  0  0  0  0  0  0
    2.7612   -0.5902    0.1214 H   0  0  0  0  0  0  0  0  0  0  0  0
    2.6119    2.4644   -0.0340 H   0  0  0  0  0  0  0  0  0  0  0  0
    1.9674    1.8426    2.1978 H   0  0  0  0  0  0  0  0  0  0  0  0
    3.5754    2.5258    2.2465 H   0  0  0  0  0  0  0  0  0  0  0  0
    2.9018   -0.4778    2.4995 H   0  0  0  0  0  0  0  0  0  0  0  0
    3.5619    0.5940    3.7492 H   0  0  0  0  0  0  0  0  0  0  0  0
    4.5532    0.1601    2.3310 H   0  0  0  0  0  0  0  0  0  0  0  0
    4.5395   -0.1578   -1.3399 H   0  0  0  0  0  0  0  0  0  0  0  0
    5.9146    0.9333   -1.4890 H   0  0  0  0  0  0  0  0  0  0  0  0
    4.3505    1.4052   -2.1956 H   0  0  0  0  0  0  0  0  0  0  0  0
    4.6292    3.4414    0.8043 H   0  0  0  0  0  0  0  0  0  0  0  0
    5.1141    3.3938   -0.8825 H   0  0  0  0  0  0  0  0  0  0  0  0
    7.2111    2.1347   -0.2199 H   0  0  0  0  0  0  0  0  0  0  0  0
    6.6888    2.1721    1.4628 H   0  0  0  0  0  0  0  0  0  0  0  0
    7.1603    4.6988   -0.2544 H   0  0  0  0  0  0  0  0  0  0  0  0
    8.4173    3.9605    0.7601 H   0  0  0  0  0  0  0  0  0  0  0  0
    8.8670    3.2653    2.7020 H   0  0  0  0  0  0  0  0  0  0  0  0
    9.7167    3.0655    5.0125 H   0  0  0  0  0  0  0  0  0  0  0  0
    8.7094    4.4244    6.8430 H   0  0  0  0  0  0  0  0  0  0  0  0
    6.8307    5.9885    6.3416 H   0  0  0  0  0  0  0  0  0  0  0  0
    5.9689    6.1794    3.9932 H   0  0  0  0  0  0  0  0  0  0  0  0
  1  2  1  0
  1 19  1  0
  1 20  1  0
  1 21  1  0
  2  3  1  0
  2 22  1  0
  2 23  1  0
  3  4  1  0
  3  6  1  0
  3 24  1  6
  4  5  1  0
  4 25  1  0
  4 26  1  0
  5 27  1  0
  5 28  1  0
  5 29  1  0
  6  7  1  0
  6  8  1  0
  7 30  1  0
  7 31  1  0
  7 32  1  0
  8  9  1  0
  8 33  1  0
  8 34  1  0
  9 10  1  0
  9 35  1  0
  9 36  1  0
 10 11  1  0
 10 37  1  0
 10 38  1  0
 11 12  2  0
 11 13  1  0
 13 14  2  0
 13 18  1  0
 14 15  1  0
 14 39  1  0
 15 16  2  0
 15 40  1  0
 16 17  1  0
 16 41  1  0
 17 18  2  0
 17 42  1  0
 18 43  1  0
M  END

