
     RDKit          3D

 40 40  0  0  0  0  0  0  0  0999 V2000
    2.8439   -1.4404   -0.7101 C   0  0  0  0  0  0  0  0  0  0  0  0
    2.2712   -0.0895   -0.2821 C   0  0  0  0  0  0  0  0  0  0  0  0
    2.7827    0.3715    1.0093 N   0  0  0  0  0  0  0  0  0  0  0  0
    1.8509    1.0467    1.9012 C   0  0  0  0  0  0  0  0  0  0  0  0
    1.3672    2.4704    1.5029 C   0  0  1  0  0  0  0  0  0  0  0  0
    0.3883    2.9684    2.5768 C   0  0  0  0  0  0  0  0  0  0  0  0
    2.5271    3.4514    1.3376 C   0  0  0  0  0  0  0  0  0  0  0  0
    0.7084    2.4454    0.2321 O   0  0  0  0  0  0  0  0  0  0  0  0
    4.1707    0.5219    1.1759 C   0  0  0  0  0  0  0  0  0  0  0  0
    4.9801    1.0182    0.1288 C   0  0  0  0  0  0  0  0  0  0  0  0
    6.3567    1.1727    0.2541 C   0  0  0  0  0  0  0  0  0  0  0  0
    7.0168    0.8506    1.4508 C   0  0  0  0  0  0  0  0  0  0  0  0
    8.5217    1.0882    1.5691 C   0  0  1  0  0  0  0  0  0  0  0  0
    9.2199    0.2581    2.6472 C   0  0  0  0  0  0  0  0  0  0  0  0
    9.1651    0.9303    0.3113 O   0  0  0  0  0  0  0  0  0  0  0  0
    6.2419    0.3305    2.4945 C   0  0  0  0  0  0  0  0  0  0  0  0
    4.8628    0.1486    2.3525 C   0  0  0  0  0  0  0  0  0  0  0  0
    3.9665   -0.7472    3.7922 Br  0  0  0  0  0  0  0  0  0  0  0  0
    2.3727   -1.7705   -1.6500 H   0  0  0  0  0  0  0  0  0  0  0  0
    2.6579   -2.2034    0.0619 H   0  0  0  0  0  0  0  0  0  0  0  0
    3.9300   -1.3930   -0.8815 H   0  0  0  0  0  0  0  0  0  0  0  0
    1.1813   -0.1856   -0.1671 H   0  0  0  0  0  0  0  0  0  0  0  0
    2.4034    0.6608   -1.0849 H   0  0  0  0  0  0  0  0  0  0  0  0
    2.2960    1.1082    2.9034 H   0  0  0  0  0  0  0  0  0  0  0  0
    0.9540    0.4074    2.0114 H   0  0  0  0  0  0  0  0  0  0  0  0
    0.8763    3.0737    3.5585 H   0  0  0  0  0  0  0  0  0  0  0  0
   -0.4559    2.2672    2.6989 H   0  0  0  0  0  0  0  0  0  0  0  0
   -0.0212    3.9472    2.2845 H   0  0  0  0  0  0  0  0  0  0  0  0
    3.1277    3.5163    2.2573 H   0  0  0  0  0  0  0  0  0  0  0  0
    2.1363    4.4522    1.0982 H   0  0  0  0  0  0  0  0  0  0  0  0
    3.1859    3.1401    0.5165 H   0  0  0  0  0  0  0  0  0  0  0  0
   -0.1056    1.9323    0.3256 H   0  0  0  0  0  0  0  0  0  0  0  0
    4.4985    1.3056   -0.8077 H   0  0  0  0  0  0  0  0  0  0  0  0
    6.9390    1.5628   -0.5827 H   0  0  0  0  0  0  0  0  0  0  0  0
    8.6743    2.1561    1.8111 H   0  0  0  0  0  0  0  0  0  0  0  0
    9.0542   -0.8211    2.4891 H   0  0  0  0  0  0  0  0  0  0  0  0
    8.8695    0.5102    3.6597 H   0  0  0  0  0  0  0  0  0  0  0  0
   10.3014    0.4531    2.6039 H   0  0  0  0  0  0  0  0  0  0  0  0
    9.0045    0.0235    0.0126 H   0  0  0  0  0  0  0  0  0  0  0  0
    6.7049    0.0264    3.4331 H   0  0  0  0  0  0  0  0  0  0  0  0
  1  2  1  0
  1 19  1  0
  1 20  1  0
  1 21  1  0
  2  3  1  0
  2 22  1  0
  2 23  1  0
  3  4  1  0
  3  9  1  0
  4  5  1  0
  4 24  1  0
  4 25  1  0
  5  6  1  0
  5  7  1  0
  5  8  1  6
  6 26  1  0
  6 27  1  0
  6 28  1  0
  7 29  1  0
  7 30  1  0
  7 31  1  0
  8 32  1  0
  9 10  2  0
  9 17  1  0
 10 11  1  0
 10 33  1  0
 11 12  2  0
 11 34  1  0
 12 13  1  0
 12 16  1  0
 13 14  1  0
 13 15  1  0
 13 35  1  1
 14 36  1  0
 14 37  1  0
 14 38  1  0
 15 39  1  0
 16 17  2  0
 16 40  1  0
 17 18  1  0
M  END

