
     RDKit          3D

 37 37  0  0  0  0  0  0  0  0999 V2000
    3.1230    1.5341    1.8376 C   0  0  0  0  0  0  0  0  0  0  0  0
    2.4820    0.6705    0.7507 C   0  0  0  0  0  0  0  0  0  0  0  0
    2.7859   -0.7584    0.8895 N   0  0  0  0  0  0  0  0  0  0  0  0
    1.8567   -1.5508    1.6827 C   0  0  0  0  0  0  0  0  0  0  0  0
    0.6668   -2.1083    0.9063 C   0  0  0  0  0  0  0  0  0  0  0  0
    1.1065   -3.0945    0.0086 O   0  0  0  0  0  0  0  0  0  0  0  0
    0.0862   -3.6433   -0.7847 C   0  0  0  0  0  0  0  0  0  0  0  0
    3.9348   -1.2159    0.2794 C   0  0  0  0  0  0  0  0  0  0  0  0
    4.6700   -0.4411   -0.3199 O   0  0  0  0  0  0  0  0  0  0  0  0
    4.3085   -2.7043    0.3461 C   0  0  1  0  0  0  0  0  0  0  0  0
    4.4332   -3.2385   -1.0896 C   0  0  0  0  0  0  0  0  0  0  0  0
    5.6266   -2.8499    1.1102 C   0  0  1  0  0  0  0  0  0  0  0  0
    5.6644   -2.6226    2.6447 C   0  0  0  0  0  0  0  0  0  0  0  0
    6.5691   -3.7785    2.7596 N   0  0  0  0  0  0  0  0  0  0  0  0
    6.1626   -4.2693    1.4312 C   0  0  0  0  0  0  0  0  0  0  0  0
    2.8419    2.5916    1.7056 H   0  0  0  0  0  0  0  0  0  0  0  0
    4.2190    1.4614    1.7799 H   0  0  0  0  0  0  0  0  0  0  0  0
    2.8049    1.2255    2.8474 H   0  0  0  0  0  0  0  0  0  0  0  0
    2.8429    0.9938   -0.2348 H   0  0  0  0  0  0  0  0  0  0  0  0
    1.3857    0.7884    0.7610 H   0  0  0  0  0  0  0  0  0  0  0  0
    1.4666   -0.9142    2.4942 H   0  0  0  0  0  0  0  0  0  0  0  0
    2.3803   -2.3807    2.1757 H   0  0  0  0  0  0  0  0  0  0  0  0
    0.1466   -1.2896    0.3651 H   0  0  0  0  0  0  0  0  0  0  0  0
   -0.0648   -2.5319    1.6281 H   0  0  0  0  0  0  0  0  0  0  0  0
    0.5420   -4.3928   -1.4474 H   0  0  0  0  0  0  0  0  0  0  0  0
   -0.4105   -2.8741   -1.4096 H   0  0  0  0  0  0  0  0  0  0  0  0
   -0.6927   -4.1399   -0.1712 H   0  0  0  0  0  0  0  0  0  0  0  0
    3.5310   -3.2906    0.8520 H   0  0  0  0  0  0  0  0  0  0  0  0
    5.1610   -2.6401   -1.6572 H   0  0  0  0  0  0  0  0  0  0  0  0
    3.4619   -3.1874   -1.6040 H   0  0  0  0  0  0  0  0  0  0  0  0
    4.7626   -4.2897   -1.0866 H   0  0  0  0  0  0  0  0  0  0  0  0
    6.3973   -2.2414    0.6142 H   0  0  0  0  0  0  0  0  0  0  0  0
    4.6658   -2.7729    3.1078 H   0  0  0  0  0  0  0  0  0  0  0  0
    6.0734   -1.6655    3.0126 H   0  0  0  0  0  0  0  0  0  0  0  0
    6.4101   -4.4065    3.5458 H   0  0  0  0  0  0  0  0  0  0  0  0
    5.3448   -5.0203    1.4453 H   0  0  0  0  0  0  0  0  0  0  0  0
    6.9822   -4.6643    0.8058 H   0  0  0  0  0  0  0  0  0  0  0  0
  1  2  1  0
  1 16  1  0
  1 17  1  0
  1 18  1  0
  2  3  1  0
  2 19  1  0
  2 20  1  0
  3  4  1  0
  3  8  1  0
  4  5  1  0
  4 21  1  0
  4 22  1  0
  5  6  1  0
  5 23  1  0
  5 24  1  0
  6  7  1  0
  7 25  1  0
  7 26  1  0
  7 27  1  0
  8  9  2  0
  8 10  1  0
 10 11  1  0
 10 12  1  0
 10 28  1  1
 11 29  1  0
 11 30  1  0
 11 31  1  0
 12 13  1  0
 12 15  1  0
 12 32  1  6
 13 14  1  0
 13 33  1  0
 13 34  1  0
 14 15  1  0
 14 35  1  0
 15 36  1  0
 15 37  1  0
M  END

