
     RDKit          3D

 76 78  0  0  0  0  0  0  0  0999 V2000
    0.6813   -0.8011    1.5757 C   0  0  0  0  0  0  0  0  0  0  0  0
    2.1487   -0.3777    1.4696 C   0  0  0  0  0  0  0  0  0  0  0  0
    3.1144   -1.5132    1.0761 C   0  0  1  0  0  0  0  0  0  0  0  0
    2.7177   -2.1707   -0.2550 C   0  0  0  0  0  0  0  0  0  0  0  0
    4.5856   -1.0124    0.9920 C   0  0  1  0  0  0  0  0  0  0  0  0
    4.9477    0.0259    1.9457 N   0  0  0  0  0  0  0  0  0  0  0  0
    5.3535    1.2767    1.5636 C   0  0  0  0  0  0  0  0  0  0  0  0
    5.4990    1.6178    0.4026 O   0  0  0  0  0  0  0  0  0  0  0  0
    5.6919    2.2097    2.7607 C   0  0  1  0  0  0  0  0  0  0  0  0
    6.4664    3.4382    2.2734 C   0  0  0  0  0  0  0  0  0  0  0  0
    7.0677    4.2882    3.3914 C   0  0  0  0  0  0  0  0  0  0  0  0
    6.7237    5.4357    3.5710 O   0  0  0  0  0  0  0  0  0  0  0  0
    7.9729    3.7114    4.1756 O   0  0  0  0  0  0  0  0  0  0  0  0
    4.4928    2.5781    3.5189 N   0  0  0  0  0  0  0  0  0  0  0  0
    3.9495    1.7504    4.4477 C   0  0  0  0  0  0  0  0  0  0  0  0
    4.3982    0.6153    4.6393 O   0  0  0  0  0  0  0  0  0  0  0  0
    2.7396    2.2505    5.2570 C   0  0  1  0  0  0  0  0  0  0  0  0
    1.8111    1.1694    5.5487 N   0  0  0  0  0  0  0  0  0  0  0  0
    3.2188    2.9138    6.5810 C   0  0  0  0  0  0  0  0  0  0  0  0
    3.8091    4.2783    6.3939 C   0  0  0  0  0  0  0  0  0  0  0  0
    5.1381    4.6035    6.2317 C   0  0  0  0  0  0  0  0  0  0  0  0
    5.2815    5.9547    6.0087 N   0  0  0  0  0  0  0  0  0  0  0  0
    6.1137    6.3395    5.5727 H   0  0  0  0  0  0  0  0  0  0  0  0
    4.0342    6.5383    5.9785 C   0  0  0  0  0  0  0  0  0  0  0  0
    3.6562    7.8693    5.7515 C   0  0  0  0  0  0  0  0  0  0  0  0
    2.2983    8.1746    5.8005 C   0  0  0  0  0  0  0  0  0  0  0  0
    1.3337    7.1799    6.0745 C   0  0  0  0  0  0  0  0  0  0  0  0
    1.7089    5.8576    6.2952 C   0  0  0  0  0  0  0  0  0  0  0  0
    3.0747    5.5159    6.2411 C   0  0  0  0  0  0  0  0  0  0  0  0
    5.6035   -2.1722    1.0936 C   0  0  0  0  0  0  0  0  0  0  0  0
    5.3185   -3.3546    0.8754 O   0  0  0  0  0  0  0  0  0  0  0  0
    6.8567   -1.7995    1.4304 N   0  0  0  0  0  0  0  0  0  0  0  0
    8.0059   -2.6941    1.4878 C   0  0  1  0  0  0  0  0  0  0  0  0
    9.3058   -1.8601    1.5061 C   0  0  0  0  0  0  0  0  0  0  0  0
    9.2664   -0.7352    2.4939 C   0  0  0  0  0  0  0  0  0  0  0  0
    9.0666    0.6204    2.3226 C   0  0  0  0  0  0  0  0  0  0  0  0
    8.9479    1.2390    3.5460 N   0  0  0  0  0  0  0  0  0  0  0  0
    9.0825    0.2833    4.4497 C   0  0  0  0  0  0  0  0  0  0  0  0
    9.2807   -0.9202    3.8601 N   0  0  0  0  0  0  0  0  0  0  0  0
    9.3240   -1.8483    4.2863 H   0  0  0  0  0  0  0  0  0  0  0  0
    7.9109   -3.6602    2.6980 C   0  0  0  0  0  0  0  0  0  0  0  0
    8.7267   -3.6668    3.5957 O   0  0  0  0  0  0  0  0  0  0  0  0
    6.8819   -4.4855    2.6733 O   0  0  0  0  0  0  0  0  0  0  0  0
    0.0634    0.0273    1.9579 H   0  0  0  0  0  0  0  0  0  0  0  0
    0.5580   -1.6531    2.2657 H   0  0  0  0  0  0  0  0  0  0  0  0
    0.2579   -1.0979    0.6041 H   0  0  0  0  0  0  0  0  0  0  0  0
    2.4609    0.0330    2.4424 H   0  0  0  0  0  0  0  0  0  0  0  0
    2.2453    0.4498    0.7429 H   0  0  0  0  0  0  0  0  0  0  0  0
    3.0684   -2.2860    1.8648 H   0  0  0  0  0  0  0  0  0  0  0  0
    2.6632   -1.4163   -1.0591 H   0  0  0  0  0  0  0  0  0  0  0  0
    1.7329   -2.6547   -0.1824 H   0  0  0  0  0  0  0  0  0  0  0  0
    3.4424   -2.9416   -0.5461 H   0  0  0  0  0  0  0  0  0  0  0  0
    4.7412   -0.5533   -0.0007 H   0  0  0  0  0  0  0  0  0  0  0  0
    4.7895   -0.1150    2.9509 H   0  0  0  0  0  0  0  0  0  0  0  0
    6.3212    1.6207    3.4457 H   0  0  0  0  0  0  0  0  0  0  0  0
    5.8212    4.0856    1.6643 H   0  0  0  0  0  0  0  0  0  0  0  0
    7.2698    3.0867    1.6089 H   0  0  0  0  0  0  0  0  0  0  0  0
    8.3086    2.8109    3.8766 H   0  0  0  0  0  0  0  0  0  0  0  0
    4.1233    3.5186    3.4180 H   0  0  0  0  0  0  0  0  0  0  0  0
    2.2062    3.0179    4.6719 H   0  0  0  0  0  0  0  0  0  0  0  0
    2.3406    0.3764    5.9176 H   0  0  0  0  0  0  0  0  0  0  0  0
    1.3734    0.8339    4.6903 H   0  0  0  0  0  0  0  0  0  0  0  0
    3.9361    2.2356    7.0730 H   0  0  0  0  0  0  0  0  0  0  0  0
    2.3283    2.9557    7.2274 H   0  0  0  0  0  0  0  0  0  0  0  0
    6.0166    3.9601    6.2444 H   0  0  0  0  0  0  0  0  0  0  0  0
    4.4023    8.6404    5.5446 H   0  0  0  0  0  0  0  0  0  0  0  0
    1.9732    9.2038    5.6274 H   0  0  0  0  0  0  0  0  0  0  0  0
    0.2770    7.4566    6.1136 H   0  0  0  0  0  0  0  0  0  0  0  0
    0.9525    5.0968    6.5075 H   0  0  0  0  0  0  0  0  0  0  0  0
    7.0011   -0.8382    1.7267 H   0  0  0  0  0  0  0  0  0  0  0  0
    7.9939   -3.3279    0.5830 H   0  0  0  0  0  0  0  0  0  0  0  0
    9.4588   -1.4316    0.5050 H   0  0  0  0  0  0  0  0  0  0  0  0
   10.1469   -2.5392    1.7085 H   0  0  0  0  0  0  0  0  0  0  0  0
    9.0078    1.1725    1.3854 H   0  0  0  0  0  0  0  0  0  0  0  0
    9.0340    0.4182    5.5295 H   0  0  0  0  0  0  0  0  0  0  0  0
    6.2712   -4.2730    1.9112 H   0  0  0  0  0  0  0  0  0  0  0  0
  1  2  1  0
  1 44  1  0
  1 45  1  0
  1 46  1  0
  2  3  1  0
  2 47  1  0
  2 48  1  0
  3  4  1  0
  3  5  1  0
  3 49  1  1
  4 50  1  0
  4 51  1  0
  4 52  1  0
  5  6  1  0
  5 30  1  0
  5 53  1  6
  6  7  1  0
  6 54  1  0
  7  8  2  0
  7  9  1  0
  9 10  1  0
  9 14  1  0
  9 55  1  1
 10 11  1  0
 10 56  1  0
 10 57  1  0
 11 12  2  0
 11 13  1  0
 13 58  1  0
 14 15  1  0
 14 59  1  0
 15 16  2  0
 15 17  1  0
 17 18  1  0
 17 19  1  0
 17 60  1  6
 18 61  1  0
 18 62  1  0
 19 20  1  0
 19 63  1  0
 19 64  1  0
 20 21  2  0
 20 29  1  0
 21 22  1  0
 21 65  1  0
 22 23  1  0
 22 24  1  0
 24 25  1  0
 24 29  2  0
 25 26  2  0
 25 66  1  0
 26 27  1  0
 26 67  1  0
 27 28  2  0
 27 68  1  0
 28 29  1  0
 28 69  1  0
 30 31  2  0
 30 32  1  0
 32 33  1  0
 32 70  1  0
 33 34  1  0
 33 41  1  0
 33 71  1  6
 34 35  1  0
 34 72  1  0
 34 73  1  0
 35 36  2  0
 35 39  1  0
 36 37  1  0
 36 74  1  0
 37 38  2  0
 38 39  1  0
 38 75  1  0
 39 40  1  0
 41 42  2  0
 41 43  1  0
 43 76  1  0
M  END

