
     RDKit          3D

 63 67  0  0  0  0  0  0  0  0999 V2000
    2.3126   -0.5730    5.2448 C   0  0  0  0  0  0  0  0  0  0  0  0
    2.3432   -1.6102    4.2894 O   0  0  0  0  0  0  0  0  0  0  0  0
    2.8593   -1.2362    3.0459 C   0  0  0  0  0  0  0  0  0  0  0  0
    4.2362   -0.9989    3.0533 O   0  0  0  0  0  0  0  0  0  0  0  0
    5.0358   -2.1615    3.2024 C   0  0  0  0  0  0  0  0  0  0  0  0
    6.4962   -1.7613    2.9826 C   0  0  1  0  0  0  0  0  0  0  0  0
    7.0214   -0.6735    3.9402 C   0  0  1  0  0  0  0  0  0  0  0  0
    6.9433   -1.1527    5.4017 C   0  0  0  0  0  0  0  0  0  0  0  0
    7.6797   -2.5147    5.5175 C   0  0  0  0  0  0  0  0  0  0  0  0
    8.3834   -2.8291    4.1861 C   0  0  2  0  0  0  0  0  0  0  0  0
    9.3443   -1.6629    3.8547 C   0  0  1  0  0  0  0  0  0  0  0  0
   10.1270   -1.9306    2.6960 O   0  0  0  0  0  0  0  0  0  0  0  0
   11.3177   -2.5764    2.7720 C   0  0  0  0  0  0  0  0  0  0  0  0
   11.8566   -3.1224    3.9510 C   0  0  0  0  0  0  0  0  0  0  0  0
   13.1080   -3.7357    3.8764 C   0  0  0  0  0  0  0  0  0  0  0  0
   13.7973   -3.8093    2.6604 C   0  0  0  0  0  0  0  0  0  0  0  0
   15.1522   -4.4572    2.5250 C   0  0  0  0  0  0  0  0  0  0  0  0
   13.1414   -3.2421    1.5550 C   0  0  0  0  0  0  0  0  0  0  0  0
   11.9515   -2.6508    1.6045 N   0  0  0  0  0  0  0  0  0  0  0  0
    8.4921   -0.4000    3.5787 C   0  0  0  0  0  0  0  0  0  0  0  0
    7.3846   -2.9355    3.1139 N   0  0  0  0  0  0  0  0  0  0  0  0
    7.4673   -3.7819    2.0365 C   0  0  0  0  0  0  0  0  0  0  0  0
    6.8262   -3.6018    1.0145 O   0  0  0  0  0  0  0  0  0  0  0  0
    8.3901   -4.9820    2.1223 C   0  0  0  0  0  0  0  0  0  0  0  0
    9.4226   -5.0744    1.1787 C   0  0  0  0  0  0  0  0  0  0  0  0
   10.2634   -6.1872    1.1502 C   0  0  0  0  0  0  0  0  0  0  0  0
   10.0706   -7.2436    2.0434 C   0  0  0  0  0  0  0  0  0  0  0  0
    9.0291   -7.1677    2.9609 C   0  0  0  0  0  0  0  0  0  0  0  0
    8.8128   -8.1905    3.7901 F   0  0  0  0  0  0  0  0  0  0  0  0
    8.1866   -6.0471    3.0166 C   0  0  0  0  0  0  0  0  0  0  0  0
    7.1284   -6.0339    3.9715 N   0  0  0  0  0  0  0  0  0  0  0  0
    5.8507   -5.9151    3.6186 N   0  0  0  0  0  0  0  0  0  0  0  0
    5.1924   -5.9928    4.7713 C   0  0  0  0  0  0  0  0  0  0  0  0
    6.1321   -6.1676    5.8102 C   0  0  0  0  0  0  0  0  0  0  0  0
    7.3506   -6.1891    5.2759 N   0  0  0  0  0  0  0  0  0  0  0  0
    1.8717   -0.9822    6.1651 H   0  0  0  0  0  0  0  0  0  0  0  0
    1.6890    0.2763    4.9012 H   0  0  0  0  0  0  0  0  0  0  0  0
    3.3221   -0.1863    5.4724 H   0  0  0  0  0  0  0  0  0  0  0  0
    2.3963   -0.2952    2.6918 H   0  0  0  0  0  0  0  0  0  0  0  0
    2.6080   -2.0641    2.3578 H   0  0  0  0  0  0  0  0  0  0  0  0
    4.7589   -2.9189    2.4480 H   0  0  0  0  0  0  0  0  0  0  0  0
    4.8883   -2.6131    4.1992 H   0  0  0  0  0  0  0  0  0  0  0  0
    6.5709   -1.3937    1.9462 H   0  0  0  0  0  0  0  0  0  0  0  0
    6.4156    0.2313    3.7939 H   0  0  0  0  0  0  0  0  0  0  0  0
    5.8962   -1.2435    5.7259 H   0  0  0  0  0  0  0  0  0  0  0  0
    7.4040   -0.3951    6.0566 H   0  0  0  0  0  0  0  0  0  0  0  0
    6.9814   -3.3326    5.7430 H   0  0  0  0  0  0  0  0  0  0  0  0
    8.4255   -2.5048    6.3284 H   0  0  0  0  0  0  0  0  0  0  0  0
    8.9350   -3.7739    4.2569 H   0  0  0  0  0  0  0  0  0  0  0  0
   10.0098   -1.4949    4.7175 H   0  0  0  0  0  0  0  0  0  0  0  0
   11.3272   -3.0873    4.9026 H   0  0  0  0  0  0  0  0  0  0  0  0
   13.5472   -4.1665    4.7811 H   0  0  0  0  0  0  0  0  0  0  0  0
   15.5090   -4.8452    3.4906 H   0  0  0  0  0  0  0  0  0  0  0  0
   15.9064   -3.7438    2.1528 H   0  0  0  0  0  0  0  0  0  0  0  0
   15.1298   -5.3005    1.8146 H   0  0  0  0  0  0  0  0  0  0  0  0
   13.6204   -3.2734    0.5670 H   0  0  0  0  0  0  0  0  0  0  0  0
    8.5854   -0.1564    2.5101 H   0  0  0  0  0  0  0  0  0  0  0  0
    8.8789    0.4604    4.1463 H   0  0  0  0  0  0  0  0  0  0  0  0
    9.5745   -4.2489    0.4823 H   0  0  0  0  0  0  0  0  0  0  0  0
   11.0760   -6.2354    0.4221 H   0  0  0  0  0  0  0  0  0  0  0  0
   10.7001   -8.1353    2.0356 H   0  0  0  0  0  0  0  0  0  0  0  0
    4.1067   -5.9260    4.8067 H   0  0  0  0  0  0  0  0  0  0  0  0
    5.9839   -6.2743    6.8830 H   0  0  0  0  0  0  0  0  0  0  0  0
  1  2  1  0
  1 36  1  0
  1 37  1  0
  1 38  1  0
  2  3  1  0
  3  4  1  0
  3 39  1  0
  3 40  1  0
  4  5  1  0
  5  6  1  0
  5 41  1  0
  5 42  1  0
  6  7  1  0
  6 21  1  0
  6 43  1  6
  7  8  1  0
  7 20  1  0
  7 44  1  1
  8  9  1  0
  8 45  1  0
  8 46  1  0
  9 10  1  0
  9 47  1  0
  9 48  1  0
 10 11  1  0
 10 21  1  0
 10 49  1  1
 11 12  1  0
 11 20  1  0
 11 50  1  1
 12 13  1  0
 13 14  2  0
 13 19  1  0
 14 15  1  0
 14 51  1  0
 15 16  2  0
 15 52  1  0
 16 17  1  0
 16 18  1  0
 17 53  1  0
 17 54  1  0
 17 55  1  0
 18 19  2  0
 18 56  1  0
 20 57  1  0
 20 58  1  0
 21 22  1  0
 22 23  2  0
 22 24  1  0
 24 25  2  0
 24 30  1  0
 25 26  1  0
 25 59  1  0
 26 27  2  0
 26 60  1  0
 27 28  1  0
 27 61  1  0
 28 29  1  0
 28 30  2  0
 30 31  1  0
 31 32  1  0
 31 35  1  0
 32 33  2  0
 33 34  1  0
 33 62  1  0
 34 35  2  0
 34 63  1  0
M  END

