
     RDKit          3D

 35 36  0  0  0  0  0  0  0  0999 V2000
    1.5027   -1.0326   -1.2575 C   0  0  0  0  0  0  0  0  0  0  0  0
    2.8258   -1.4304   -0.7894 C   0  0  0  0  0  0  0  0  0  0  0  0
    3.9276   -1.7537   -0.4018 C   0  0  0  0  0  0  0  0  0  0  0  0
    5.2365   -2.1840    0.0746 C   0  0  0  0  0  0  0  0  0  0  0  0
    6.1648   -1.0901   -0.0372 O   0  0  0  0  0  0  0  0  0  0  0  0
    7.4237   -1.3029    0.3572 C   0  0  0  0  0  0  0  0  0  0  0  0
    8.3321   -0.2326    0.2533 C   0  0  0  0  0  0  0  0  0  0  0  0
    9.6369   -0.4740    0.6745 C   0  0  0  0  0  0  0  0  0  0  0  0
   10.7170    0.6073    0.6532 C   0  0  1  0  0  0  0  0  0  0  0  0
   10.4514    1.5938    2.4107 Br  0  0  0  0  0  0  0  0  0  0  0  0
   12.1405    0.0353    0.6617 C   0  0  0  0  0  0  0  0  0  0  0  0
   12.5074   -0.5744   -0.7026 C   0  0  0  0  0  0  0  0  0  0  0  0
   12.3277    0.4310   -1.8459 C   0  0  0  0  0  0  0  0  0  0  0  0
   10.9155    1.0280   -1.8437 C   0  0  0  0  0  0  0  0  0  0  0  0
   10.5656    1.6378   -0.4746 C   0  0  0  0  0  0  0  0  0  0  0  0
    9.9970   -1.6866    1.1415 N   0  0  0  0  0  0  0  0  0  0  0  0
    9.0599   -2.6206    1.1941 C   0  0  0  0  0  0  0  0  0  0  0  0
    7.7810   -2.4941    0.8258 N   0  0  0  0  0  0  0  0  0  0  0  0
    0.7729   -1.0122   -0.4315 H   0  0  0  0  0  0  0  0  0  0  0  0
    1.1242   -1.7263   -2.0263 H   0  0  0  0  0  0  0  0  0  0  0  0
    1.5319   -0.0246   -1.7030 H   0  0  0  0  0  0  0  0  0  0  0  0
    5.6119   -3.0427   -0.5075 H   0  0  0  0  0  0  0  0  0  0  0  0
    5.1902   -2.5172    1.1253 H   0  0  0  0  0  0  0  0  0  0  0  0
    7.9880    0.7288   -0.1234 H   0  0  0  0  0  0  0  0  0  0  0  0
   12.2299   -0.7161    1.4557 H   0  0  0  0  0  0  0  0  0  0  0  0
   12.8329    0.8603    0.8940 H   0  0  0  0  0  0  0  0  0  0  0  0
   11.8819   -1.4650   -0.8835 H   0  0  0  0  0  0  0  0  0  0  0  0
   13.5496   -0.9328   -0.6647 H   0  0  0  0  0  0  0  0  0  0  0  0
   12.5385   -0.0482   -2.8166 H   0  0  0  0  0  0  0  0  0  0  0  0
   13.0653    1.2471   -1.7349 H   0  0  0  0  0  0  0  0  0  0  0  0
   10.1810    0.2447   -2.1016 H   0  0  0  0  0  0  0  0  0  0  0  0
   10.8213    1.8070   -2.6185 H   0  0  0  0  0  0  0  0  0  0  0  0
    9.5565    2.0745   -0.4815 H   0  0  0  0  0  0  0  0  0  0  0  0
   11.2560    2.4693   -0.2603 H   0  0  0  0  0  0  0  0  0  0  0  0
    9.3599   -3.6038    1.5775 H   0  0  0  0  0  0  0  0  0  0  0  0
  1  2  1  0
  1 19  1  0
  1 20  1  0
  1 21  1  0
  2  3  3  0
  3  4  1  0
  4  5  1  0
  4 22  1  0
  4 23  1  0
  5  6  1  0
  6  7  2  0
  6 18  1  0
  7  8  1  0
  7 24  1  0
  8  9  1  0
  8 16  2  0
  9 10  1  1
  9 11  1  0
  9 15  1  0
 11 12  1  0
 11 25  1  0
 11 26  1  0
 12 13  1  0
 12 27  1  0
 12 28  1  0
 13 14  1  0
 13 29  1  0
 13 30  1  0
 14 15  1  0
 14 31  1  0
 14 32  1  0
 15 33  1  0
 15 34  1  0
 16 17  1  0
 17 18  2  0
 17 35  1  0
M  END

