
     RDKit          3D

 40 41  0  0  0  0  0  0  0  0999 V2000
    3.1104   -1.0789   -0.4218 C   0  0  0  0  0  0  0  0  0  0  0  0
    2.9356    0.0459   -1.4339 C   0  0  1  0  0  0  0  0  0  0  0  0
    1.4945    0.2738   -1.8599 C   0  0  0  0  0  0  0  0  0  0  0  0
    3.3906    1.3002   -0.8469 O   0  0  0  0  0  0  0  0  0  0  0  0
    4.6910    1.6011   -0.9182 C   0  0  0  0  0  0  0  0  0  0  0  0
    5.5411    0.9030   -1.4127 O   0  0  0  0  0  0  0  0  0  0  0  0
    4.9377    2.9851   -0.3285 C   0  0  0  0  0  0  0  0  0  0  0  0
    6.3074    3.1217   -0.0904 O   0  0  0  0  0  0  0  0  0  0  0  0
    6.9066    4.3519   -0.1067 C   0  0  0  0  0  0  0  0  0  0  0  0
    6.2034    5.5562    0.0056 C   0  0  0  0  0  0  0  0  0  0  0  0
    6.9017    6.7707   -0.0226 C   0  0  0  0  0  0  0  0  0  0  0  0
    8.2888    6.7786   -0.1537 C   0  0  0  0  0  0  0  0  0  0  0  0
    8.9776    5.5624   -0.2544 C   0  0  0  0  0  0  0  0  0  0  0  0
    8.3133    4.3337   -0.2318 C   0  0  0  0  0  0  0  0  0  0  0  0
    9.0658    3.0073   -0.3161 C   0  0  0  0  0  0  0  0  0  0  0  0
    8.7502    2.0983   -1.4053 N   0  0  0  0  0  0  0  0  0  0  0  0
    9.0312    2.5489   -2.7342 C   0  0  1  0  0  0  0  0  0  0  0  0
    8.2838    1.9508   -3.8882 C   0  0  0  0  0  0  0  0  0  0  0  0
    8.0897    3.4154   -3.5565 C   0  0  0  0  0  0  0  0  0  0  0  0
    2.7539   -2.0294   -0.8490 H   0  0  0  0  0  0  0  0  0  0  0  0
    2.5329   -0.8731    0.4937 H   0  0  0  0  0  0  0  0  0  0  0  0
    4.1700   -1.2027   -0.1557 H   0  0  0  0  0  0  0  0  0  0  0  0
    3.5720   -0.1505   -2.3105 H   0  0  0  0  0  0  0  0  0  0  0  0
    0.8614    0.5104   -0.9901 H   0  0  0  0  0  0  0  0  0  0  0  0
    1.0955   -0.6318   -2.3419 H   0  0  0  0  0  0  0  0  0  0  0  0
    1.4239    1.1059   -2.5765 H   0  0  0  0  0  0  0  0  0  0  0  0
    4.3317    3.1086    0.5873 H   0  0  0  0  0  0  0  0  0  0  0  0
    4.5678    3.7220   -1.0669 H   0  0  0  0  0  0  0  0  0  0  0  0
    5.1190    5.5598    0.1284 H   0  0  0  0  0  0  0  0  0  0  0  0
    6.3485    7.7093    0.0646 H   0  0  0  0  0  0  0  0  0  0  0  0
    8.8366    7.7236   -0.1775 H   0  0  0  0  0  0  0  0  0  0  0  0
   10.0670    5.5649   -0.3574 H   0  0  0  0  0  0  0  0  0  0  0  0
    8.8982    2.4554    0.6252 H   0  0  0  0  0  0  0  0  0  0  0  0
   10.1453    3.2361   -0.3519 H   0  0  0  0  0  0  0  0  0  0  0  0
    7.8075    1.7227   -1.3188 H   0  0  0  0  0  0  0  0  0  0  0  0
   10.1015    2.7353   -2.8973 H   0  0  0  0  0  0  0  0  0  0  0  0
    7.4638    1.2675   -3.6446 H   0  0  0  0  0  0  0  0  0  0  0  0
    8.8389    1.6800   -4.7912 H   0  0  0  0  0  0  0  0  0  0  0  0
    7.1409    3.7023   -3.0952 H   0  0  0  0  0  0  0  0  0  0  0  0
    8.5112    4.1700   -4.2285 H   0  0  0  0  0  0  0  0  0  0  0  0
  1  2  1  0
  1 20  1  0
  1 21  1  0
  1 22  1  0
  2  3  1  0
  2  4  1  0
  2 23  1  6
  3 24  1  0
  3 25  1  0
  3 26  1  0
  4  5  1  0
  5  6  2  0
  5  7  1  0
  7  8  1  0
  7 27  1  0
  7 28  1  0
  8  9  1  0
  9 10  2  0
  9 14  1  0
 10 11  1  0
 10 29  1  0
 11 12  2  0
 11 30  1  0
 12 13  1  0
 12 31  1  0
 13 14  2  0
 13 32  1  0
 14 15  1  0
 15 16  1  0
 15 33  1  0
 15 34  1  0
 16 17  1  0
 16 35  1  0
 17 18  1  0
 17 19  1  0
 17 36  1  6
 18 19  1  0
 18 37  1  0
 18 38  1  0
 19 39  1  0
 19 40  1  0
M  END

