
     RDKit          3D

 42 45  0  0  0  0  0  0  0  0999 V2000
    6.5727   -3.6190   -0.0292 C   0  0  0  0  0  0  0  0  0  0  0  0
    5.2869   -2.8102   -0.0753 C   0  0  0  0  0  0  0  0  0  0  0  0
    5.1925   -2.0257   -1.2782 O   0  0  0  0  0  0  0  0  0  0  0  0
    5.7814   -0.8143   -1.2790 C   0  0  0  0  0  0  0  0  0  0  0  0
    6.3740   -0.3576   -0.3268 O   0  0  0  0  0  0  0  0  0  0  0  0
    5.6157   -0.1015   -2.5812 C   0  0  0  0  0  0  0  0  0  0  0  0
    4.9178   -0.6708   -3.6712 C   0  0  0  0  0  0  0  0  0  0  0  0
    4.7838    0.0211   -4.8666 C   0  0  0  0  0  0  0  0  0  0  0  0
    5.3483    1.3056   -4.9984 C   0  0  0  0  0  0  0  0  0  0  0  0
    6.0494    1.8688   -3.8919 C   0  0  0  0  0  0  0  0  0  0  0  0
    6.1841    1.1729   -2.6913 C   0  0  0  0  0  0  0  0  0  0  0  0
    6.6860    3.4784   -4.2368 S   0  0  0  0  0  0  0  0  0  0  0  0
    6.0215    3.4070   -5.8552 C   0  0  0  0  0  0  0  0  0  0  0  0
    6.0285    4.3193   -6.9622 C   0  0  0  0  0  0  0  0  0  0  0  0
    6.5923    5.6043   -7.0937 C   0  0  0  0  0  0  0  0  0  0  0  0
    6.4587    6.2958   -8.2894 C   0  0  0  0  0  0  0  0  0  0  0  0
    5.7629    5.7256   -9.3801 C   0  0  0  0  0  0  0  0  0  0  0  0
    5.5974    6.4382  -10.6824 C   0  0  0  0  0  0  0  0  0  0  0  0
    5.0082    5.9798  -11.6359 O   0  0  0  0  0  0  0  0  0  0  0  0
    6.1748    7.6552  -10.6788 O   0  0  0  0  0  0  0  0  0  0  0  0
    6.0828    8.4392  -11.8822 C   0  0  0  0  0  0  0  0  0  0  0  0
    7.1980    8.1045  -12.8590 C   0  0  0  0  0  0  0  0  0  0  0  0
    5.1956    4.4506   -9.2704 C   0  0  0  0  0  0  0  0  0  0  0  0
    5.3287    3.7555   -8.0692 C   0  0  0  0  0  0  0  0  0  0  0  0
    4.6911    2.1464   -7.7239 S   0  0  0  0  0  0  0  0  0  0  0  0
    5.3546    2.2182   -6.1051 C   0  0  0  0  0  0  0  0  0  0  0  0
    6.5755   -4.2655    0.8631 H   0  0  0  0  0  0  0  0  0  0  0  0
    7.4490   -2.9566    0.0262 H   0  0  0  0  0  0  0  0  0  0  0  0
    6.6674   -4.2606   -0.9192 H   0  0  0  0  0  0  0  0  0  0  0  0
    5.2132   -2.1394    0.7933 H   0  0  0  0  0  0  0  0  0  0  0  0
    4.4038   -3.4651   -0.1006 H   0  0  0  0  0  0  0  0  0  0  0  0
    4.4853   -1.6649   -3.5588 H   0  0  0  0  0  0  0  0  0  0  0  0
    4.2433   -0.4250   -5.7049 H   0  0  0  0  0  0  0  0  0  0  0  0
    6.7174    1.5883   -1.8344 H   0  0  0  0  0  0  0  0  0  0  0  0
    7.1316    6.0510   -6.2550 H   0  0  0  0  0  0  0  0  0  0  0  0
    6.8911    7.2900   -8.4019 H   0  0  0  0  0  0  0  0  0  0  0  0
    6.1508    9.4823  -11.5407 H   0  0  0  0  0  0  0  0  0  0  0  0
    5.0965    8.2734  -12.3400 H   0  0  0  0  0  0  0  0  0  0  0  0
    8.1856    8.2290  -12.3880 H   0  0  0  0  0  0  0  0  0  0  0  0
    7.1453    8.7761  -13.7309 H   0  0  0  0  0  0  0  0  0  0  0  0
    7.1042    7.0693  -13.2190 H   0  0  0  0  0  0  0  0  0  0  0  0
    4.6634    4.0346  -10.1277 H   0  0  0  0  0  0  0  0  0  0  0  0
  1  2  1  0
  1 27  1  0
  1 28  1  0
  1 29  1  0
  2  3  1  0
  2 30  1  0
  2 31  1  0
  3  4  1  0
  4  5  2  0
  4  6  1  0
  6  7  1  0
  6 11  2  0
  7  8  2  0
  7 32  1  0
  8  9  1  0
  8 33  1  0
  9 10  1  0
  9 26  2  0
 10 11  1  0
 10 12  2  0
 11 34  1  0
 12 13  1  0
 13 14  2  0
 13 26  1  0
 14 15  1  0
 14 24  1  0
 15 16  2  0
 15 35  1  0
 16 17  1  0
 16 36  1  0
 17 18  2  0
 17 23  1  0
 18 19  1  0
 18 20  1  0
 20 21  1  0
 21 22  1  0
 21 37  1  0
 21 38  1  0
 22 39  1  0
 22 40  1  0
 22 41  1  0
 23 24  2  0
 23 42  1  0
 24 25  1  0
 25 26  1  0
M  CHG  2  12   1  19  -1
M  END

