
     RDKit          3D

 76 82  0  0  0  0  0  0  0  0999 V2000
    1.1330   -0.1374   -0.8379 C   0  0  0  0  0  0  0  0  0  0  0  0
    2.6323   -0.0780   -0.6777 C   0  0  0  0  0  0  0  0  0  0  0  0
    3.4499    0.5179   -1.6410 C   0  0  0  0  0  0  0  0  0  0  0  0
    4.8438    0.5924   -1.4955 C   0  0  0  0  0  0  0  0  0  0  0  0
    5.6199    1.2718   -2.6077 C   0  0  0  0  0  0  0  0  0  0  0  0
    5.4735    0.0253   -0.3541 C   0  0  0  0  0  0  0  0  0  0  0  0
    7.0483    0.0933   -0.1718 B   0  0  0  0  0  0  0  0  0  0  0  0
    7.7607    1.4953   -0.2320 C   0  0  0  0  0  0  0  0  0  0  0  0
    7.0908    2.6834    0.1329 C   0  0  0  0  0  0  0  0  0  0  0  0
    7.7239    3.9251    0.0971 C   0  0  0  0  0  0  0  0  0  0  0  0
    9.0554    4.0461   -0.3458 C   0  0  0  0  0  0  0  0  0  0  0  0
    9.7299    5.3742   -0.3510 C   0  0  0  0  0  0  0  0  0  0  0  0
    9.7357    6.1227    0.8394 C   0  0  0  0  0  0  0  0  0  0  0  0
   10.3810    7.3515    0.9329 C   0  0  0  0  0  0  0  0  0  0  0  0
   11.0523    7.8970   -0.1743 C   0  0  0  0  0  0  0  0  0  0  0  0
   11.7441    9.1561   -0.1047 C   0  0  0  0  0  0  0  0  0  0  0  0
   12.3845    9.6743   -1.1913 C   0  0  0  0  0  0  0  0  0  0  0  0
   12.3867    8.9833   -2.4531 C   0  0  0  0  0  0  0  0  0  0  0  0
   13.0349    9.5025   -3.5889 C   0  0  0  0  0  0  0  0  0  0  0  0
   13.0139    8.8134   -4.8026 C   0  0  0  0  0  0  0  0  0  0  0  0
   12.3451    7.5936   -4.9114 C   0  0  0  0  0  0  0  0  0  0  0  0
   11.6848    7.0340   -3.8019 C   0  0  0  0  0  0  0  0  0  0  0  0
   10.9721    5.7890   -3.8774 C   0  0  0  0  0  0  0  0  0  0  0  0
   10.3463    5.2563   -2.7881 C   0  0  0  0  0  0  0  0  0  0  0  0
   10.3705    5.9099   -1.5032 C   0  0  0  0  0  0  0  0  0  0  0  0
   11.0421    7.1746   -1.4093 C   0  0  0  0  0  0  0  0  0  0  0  0
   11.7038    7.7285   -2.5521 C   0  0  0  0  0  0  0  0  0  0  0  0
    9.7331    2.8694   -0.7228 C   0  0  0  0  0  0  0  0  0  0  0  0
    9.1031    1.6279   -0.6504 C   0  0  0  0  0  0  0  0  0  0  0  0
    7.9292   -1.2047    0.0672 C   0  0  0  0  0  0  0  0  0  0  0  0
    7.8811   -2.3025   -0.8356 C   0  0  0  0  0  0  0  0  0  0  0  0
    6.9856   -2.3027   -2.0571 C   0  0  0  0  0  0  0  0  0  0  0  0
    8.6898   -3.4281   -0.6188 C   0  0  0  0  0  0  0  0  0  0  0  0
    9.5376   -3.5334    0.4876 C   0  0  0  0  0  0  0  0  0  0  0  0
   10.3938   -4.7550    0.7149 C   0  0  0  0  0  0  0  0  0  0  0  0
    9.5659   -2.4599    1.3858 C   0  0  0  0  0  0  0  0  0  0  0  0
    8.7987   -1.3048    1.1914 C   0  0  0  0  0  0  0  0  0  0  0  0
    8.9209   -0.2052    2.2289 C   0  0  0  0  0  0  0  0  0  0  0  0
    4.6442   -0.6021    0.6208 C   0  0  0  0  0  0  0  0  0  0  0  0
    5.2156   -1.2398    1.8699 C   0  0  0  0  0  0  0  0  0  0  0  0
    3.2554   -0.6281    0.4500 C   0  0  0  0  0  0  0  0  0  0  0  0
    0.8075    0.3168   -1.7855 H   0  0  0  0  0  0  0  0  0  0  0  0
    0.6220    0.3935   -0.0169 H   0  0  0  0  0  0  0  0  0  0  0  0
    0.7687   -1.1784   -0.8193 H   0  0  0  0  0  0  0  0  0  0  0  0
    2.9901    0.9413   -2.5398 H   0  0  0  0  0  0  0  0  0  0  0  0
    5.0567    1.2341   -3.5527 H   0  0  0  0  0  0  0  0  0  0  0  0
    6.6032    0.8148   -2.7872 H   0  0  0  0  0  0  0  0  0  0  0  0
    5.8064    2.3336   -2.3781 H   0  0  0  0  0  0  0  0  0  0  0  0
    6.0473    2.6288    0.4557 H   0  0  0  0  0  0  0  0  0  0  0  0
    7.1760    4.8241    0.3912 H   0  0  0  0  0  0  0  0  0  0  0  0
    9.2427    5.7076    1.7216 H   0  0  0  0  0  0  0  0  0  0  0  0
   10.3799    7.8975    1.8800 H   0  0  0  0  0  0  0  0  0  0  0  0
   11.7456    9.6937    0.8473 H   0  0  0  0  0  0  0  0  0  0  0  0
   12.9073   10.6321   -1.1216 H   0  0  0  0  0  0  0  0  0  0  0  0
   13.5580   10.4593   -3.5103 H   0  0  0  0  0  0  0  0  0  0  0  0
   13.5226    9.2335   -5.6740 H   0  0  0  0  0  0  0  0  0  0  0  0
   12.3270    7.0598   -5.8653 H   0  0  0  0  0  0  0  0  0  0  0  0
   10.9306    5.2709   -4.8395 H   0  0  0  0  0  0  0  0  0  0  0  0
    9.7998    4.3185   -2.8890 H   0  0  0  0  0  0  0  0  0  0  0  0
   10.7753    2.9308   -1.0451 H   0  0  0  0  0  0  0  0  0  0  0  0
    9.6659    0.7313   -0.9252 H   0  0  0  0  0  0  0  0  0  0  0  0
    7.1594   -1.4259   -2.7009 H   0  0  0  0  0  0  0  0  0  0  0  0
    5.9203   -2.2856   -1.7808 H   0  0  0  0  0  0  0  0  0  0  0  0
    7.1612   -3.1985   -2.6708 H   0  0  0  0  0  0  0  0  0  0  0  0
    8.6474   -4.2535   -1.3362 H   0  0  0  0  0  0  0  0  0  0  0  0
   10.2048   -5.5300   -0.0427 H   0  0  0  0  0  0  0  0  0  0  0  0
   10.2054   -5.1982    1.7070 H   0  0  0  0  0  0  0  0  0  0  0  0
   11.4675   -4.5033    0.6770 H   0  0  0  0  0  0  0  0  0  0  0  0
   10.2087   -2.5234    2.2702 H   0  0  0  0  0  0  0  0  0  0  0  0
    9.2818   -0.6123    3.1856 H   0  0  0  0  0  0  0  0  0  0  0  0
    7.9687    0.3086    2.4232 H   0  0  0  0  0  0  0  0  0  0  0  0
    9.6346    0.5720    1.9110 H   0  0  0  0  0  0  0  0  0  0  0  0
    5.8252   -0.5327    2.4551 H   0  0  0  0  0  0  0  0  0  0  0  0
    5.8662   -2.0945    1.6298 H   0  0  0  0  0  0  0  0  0  0  0  0
    4.4117   -1.6005    2.5283 H   0  0  0  0  0  0  0  0  0  0  0  0
    2.6384   -1.1017    1.2205 H   0  0  0  0  0  0  0  0  0  0  0  0
  1  2  1  0
  1 42  1  0
  1 43  1  0
  1 44  1  0
  2  3  2  0
  2 41  1  0
  3  4  1  0
  3 45  1  0
  4  5  1  0
  4  6  2  0
  5 46  1  0
  5 47  1  0
  5 48  1  0
  6  7  1  0
  6 39  1  0
  7  8  1  0
  7 30  1  0
  8  9  2  0
  8 29  1  0
  9 10  1  0
  9 49  1  0
 10 11  2  0
 10 50  1  0
 11 12  1  0
 11 28  1  0
 12 13  2  0
 12 25  1  0
 13 14  1  0
 13 51  1  0
 14 15  2  0
 14 52  1  0
 15 16  1  0
 15 26  1  0
 16 17  2  0
 16 53  1  0
 17 18  1  0
 17 54  1  0
 18 19  2  0
 18 27  1  0
 19 20  1  0
 19 55  1  0
 20 21  2  0
 20 56  1  0
 21 22  1  0
 21 57  1  0
 22 23  2  0
 22 27  1  0
 23 24  1  0
 23 58  1  0
 24 25  2  0
 24 59  1  0
 25 26  1  0
 26 27  2  0
 28 29  2  0
 28 60  1  0
 29 61  1  0
 30 31  2  0
 30 37  1  0
 31 32  1  0
 31 33  1  0
 32 62  1  0
 32 63  1  0
 32 64  1  0
 33 34  2  0
 33 65  1  0
 34 35  1  0
 34 36  1  0
 35 66  1  0
 35 67  1  0
 35 68  1  0
 36 37  2  0
 36 69  1  0
 37 38  1  0
 38 70  1  0
 38 71  1  0
 38 72  1  0
 39 40  1  0
 39 41  2  0
 40 73  1  0
 40 74  1  0
 40 75  1  0
 41 76  1  0
M  END

