
     RDKit          3D

 42 44  0  0  0  0  0  0  0  0999 V2000
    4.2311    8.0318    1.8200 C   0  0  0  0  0  0  0  0  0  0  0  0
    5.4868    7.5209    1.4242 O   0  0  0  0  0  0  0  0  0  0  0  0
    5.5397    6.4820    0.5611 C   0  0  0  0  0  0  0  0  0  0  0  0
    4.4135    5.8473    0.0201 C   0  0  0  0  0  0  0  0  0  0  0  0
    4.5959    4.7913   -0.8766 C   0  0  0  0  0  0  0  0  0  0  0  0
    3.1784    4.0213   -1.5503 Cl  0  0  0  0  0  0  0  0  0  0  0  0
    5.8658    4.3201   -1.2512 C   0  0  0  0  0  0  0  0  0  0  0  0
    5.9975    3.2437   -2.1469 N   0  0  0  0  0  0  0  0  0  0  0  0
    6.5604    3.2937   -3.3804 C   0  0  0  0  0  0  0  0  0  0  0  0
    7.1209    4.3600   -3.8756 N   0  0  0  0  0  0  0  0  0  0  0  0
    7.6733    4.2459   -5.1235 C   0  0  0  0  0  0  0  0  0  0  0  0
    8.3432    5.4712   -5.6749 C   0  0  0  0  0  0  0  0  0  0  0  0
    7.6628    3.1691   -5.8602 N   0  0  0  0  0  0  0  0  0  0  0  0
    7.0474    2.0690   -5.3562 N   0  0  0  0  0  0  0  0  0  0  0  0
    7.0738    0.8676   -6.2218 C   0  0  1  0  0  0  0  0  0  0  0  0
    6.4310    1.1667   -7.5762 C   0  0  0  0  0  0  0  0  0  0  0  0
    8.4904    0.3371   -6.3426 C   0  0  1  0  0  0  0  0  0  0  0  0
    9.0870   -0.4724   -5.2198 C   0  0  0  0  0  0  0  0  0  0  0  0
    8.7152   -1.1432   -6.5186 C   0  0  0  0  0  0  0  0  0  0  0  0
    6.4702    2.0028   -4.1148 C   0  0  0  0  0  0  0  0  0  0  0  0
    5.9203    1.0104   -3.6389 O   0  0  0  0  0  0  0  0  0  0  0  0
    6.9777    4.9617   -0.6581 C   0  0  0  0  0  0  0  0  0  0  0  0
    8.5874    4.3788   -0.9743 Cl  0  0  0  0  0  0  0  0  0  0  0  0
    6.8245    6.0296    0.2183 C   0  0  0  0  0  0  0  0  0  0  0  0
    4.4362    8.8611    2.5096 H   0  0  0  0  0  0  0  0  0  0  0  0
    3.6266    7.2706    2.3447 H   0  0  0  0  0  0  0  0  0  0  0  0
    3.6557    8.4153    0.9588 H   0  0  0  0  0  0  0  0  0  0  0  0
    3.3997    6.1560    0.2658 H   0  0  0  0  0  0  0  0  0  0  0  0
    5.4773    2.3833   -1.9782 H   0  0  0  0  0  0  0  0  0  0  0  0
    7.6223    6.3027   -5.7338 H   0  0  0  0  0  0  0  0  0  0  0  0
    8.7564    5.2716   -6.6714 H   0  0  0  0  0  0  0  0  0  0  0  0
    9.1493    5.7957   -4.9973 H   0  0  0  0  0  0  0  0  0  0  0  0
    6.4657    0.1321   -5.6777 H   0  0  0  0  0  0  0  0  0  0  0  0
    6.9936    1.9453   -8.1112 H   0  0  0  0  0  0  0  0  0  0  0  0
    5.3921    1.5106   -7.4541 H   0  0  0  0  0  0  0  0  0  0  0  0
    6.4228    0.2538   -8.1907 H   0  0  0  0  0  0  0  0  0  0  0  0
    9.1677    1.0090   -6.8805 H   0  0  0  0  0  0  0  0  0  0  0  0
    8.4573   -0.6670   -4.3465 H   0  0  0  0  0  0  0  0  0  0  0  0
   10.1467   -0.3325   -4.9895 H   0  0  0  0  0  0  0  0  0  0  0  0
    7.8385   -1.7986   -6.5211 H   0  0  0  0  0  0  0  0  0  0  0  0
    9.5150   -1.4681   -7.1899 H   0  0  0  0  0  0  0  0  0  0  0  0
    7.6947    6.5125    0.6616 H   0  0  0  0  0  0  0  0  0  0  0  0
  1  2  1  0
  1 25  1  0
  1 26  1  0
  1 27  1  0
  2  3  1  0
  3  4  2  0
  3 24  1  0
  4  5  1  0
  4 28  1  0
  5  6  1  0
  5  7  2  0
  7  8  1  0
  7 22  1  0
  8  9  1  0
  8 29  1  0
  9 10  2  0
  9 20  1  0
 10 11  1  0
 11 12  1  0
 11 13  2  0
 12 30  1  0
 12 31  1  0
 12 32  1  0
 13 14  1  0
 14 15  1  0
 14 20  1  0
 15 16  1  0
 15 17  1  0
 15 33  1  1
 16 34  1  0
 16 35  1  0
 16 36  1  0
 17 18  1  0
 17 19  1  0
 17 37  1  6
 18 19  1  0
 18 38  1  0
 18 39  1  0
 19 40  1  0
 19 41  1  0
 20 21  2  0
 22 23  1  0
 22 24  2  0
 24 42  1  0
M  END

