
     RDKit          3D

 41 41  0  0  0  0  0  0  0  0999 V2000
    2.7746   -1.8302    1.4670 C   0  0  0  0  0  0  0  0  0  0  0  0
    3.4513   -0.8603    0.7143 O   0  0  0  0  0  0  0  0  0  0  0  0
    3.7380    0.3190    1.4282 C   0  0  0  0  0  0  0  0  0  0  0  0
    4.4019    1.3084    0.4583 C   0  0  1  0  0  0  0  0  0  0  0  0
    3.4754    1.6578   -0.7110 C   0  0  0  0  0  0  0  0  0  0  0  0
    4.9511    2.4922    1.1753 N   0  0  0  0  0  0  0  0  0  0  0  0
    4.1045    3.4537    1.6837 C   0  0  0  0  0  0  0  0  0  0  0  0
    2.8868    3.3316    1.6722 O   0  0  0  0  0  0  0  0  0  0  0  0
    4.7512    4.7181    2.2537 C   0  0  0  0  0  0  0  0  0  0  0  0
    3.6954    5.7662    2.5714 C   0  0  0  0  0  0  0  0  0  0  0  0
    4.4611    7.2455    3.2796 Cl  0  0  0  0  0  0  0  0  0  0  0  0
    6.3751    2.5419    1.3965 C   0  0  0  0  0  0  0  0  0  0  0  0
    6.9143    2.1924    2.6560 C   0  0  0  0  0  0  0  0  0  0  0  0
    6.0675    1.7929    3.8434 C   0  0  0  0  0  0  0  0  0  0  0  0
    8.3090    2.2240    2.8206 C   0  0  0  0  0  0  0  0  0  0  0  0
    9.1522    2.5886    1.7756 C   0  0  0  0  0  0  0  0  0  0  0  0
    8.6087    2.9416    0.5397 C   0  0  0  0  0  0  0  0  0  0  0  0
    7.2244    2.9280    0.3296 C   0  0  0  0  0  0  0  0  0  0  0  0
    6.6707    3.3252   -1.0162 C   0  0  0  0  0  0  0  0  0  0  0  0
    2.5971   -2.6993    0.8165 H   0  0  0  0  0  0  0  0  0  0  0  0
    1.7974   -1.4607    1.8385 H   0  0  0  0  0  0  0  0  0  0  0  0
    3.3660   -2.1634    2.3448 H   0  0  0  0  0  0  0  0  0  0  0  0
    4.4249    0.0987    2.2693 H   0  0  0  0  0  0  0  0  0  0  0  0
    2.8183    0.7678    1.8497 H   0  0  0  0  0  0  0  0  0  0  0  0
    5.2838    0.7892    0.0528 H   0  0  0  0  0  0  0  0  0  0  0  0
    2.5664    2.1602   -0.3575 H   0  0  0  0  0  0  0  0  0  0  0  0
    3.1914    0.7254   -1.2185 H   0  0  0  0  0  0  0  0  0  0  0  0
    3.9778    2.3124   -1.4374 H   0  0  0  0  0  0  0  0  0  0  0  0
    5.4939    5.1202    1.5468 H   0  0  0  0  0  0  0  0  0  0  0  0
    5.3161    4.4744    3.1670 H   0  0  0  0  0  0  0  0  0  0  0  0
    2.9645    5.3927    3.2980 H   0  0  0  0  0  0  0  0  0  0  0  0
    3.1503    6.0802    1.6727 H   0  0  0  0  0  0  0  0  0  0  0  0
    4.9911    1.8822    3.6582 H   0  0  0  0  0  0  0  0  0  0  0  0
    6.3133    2.4145    4.7199 H   0  0  0  0  0  0  0  0  0  0  0  0
    6.2693    0.7475    4.1307 H   0  0  0  0  0  0  0  0  0  0  0  0
    8.7324    1.9555    3.7927 H   0  0  0  0  0  0  0  0  0  0  0  0
   10.2348    2.6066    1.9238 H   0  0  0  0  0  0  0  0  0  0  0  0
    9.2674    3.2429   -0.2791 H   0  0  0  0  0  0  0  0  0  0  0  0
    7.4346    3.8422   -1.6143 H   0  0  0  0  0  0  0  0  0  0  0  0
    5.7982    3.9889   -0.9212 H   0  0  0  0  0  0  0  0  0  0  0  0
    6.3393    2.4467   -1.5947 H   0  0  0  0  0  0  0  0  0  0  0  0
  1  2  1  0
  1 20  1  0
  1 21  1  0
  1 22  1  0
  2  3  1  0
  3  4  1  0
  3 23  1  0
  3 24  1  0
  4  5  1  0
  4  6  1  0
  4 25  1  6
  5 26  1  0
  5 27  1  0
  5 28  1  0
  6  7  1  0
  6 12  1  0
  7  8  2  0
  7  9  1  0
  9 10  1  0
  9 29  1  0
  9 30  1  0
 10 11  1  0
 10 31  1  0
 10 32  1  0
 12 13  2  0
 12 18  1  0
 13 14  1  0
 13 15  1  0
 14 33  1  0
 14 34  1  0
 14 35  1  0
 15 16  2  0
 15 36  1  0
 16 17  1  0
 16 37  1  0
 17 18  2  0
 17 38  1  0
 18 19  1  0
 19 39  1  0
 19 40  1  0
 19 41  1  0
M  END

