
     RDKit          3D

 50 52  0  0  0  0  0  0  0  0999 V2000
    1.0270    0.2556   -0.6256 C   0  0  0  0  0  0  0  0  0  0  0  0
    1.8754    0.2403    0.6516 C   0  0  1  0  0  0  0  0  0  0  0  0
    1.0422    0.4946    1.9127 C   0  0  0  0  0  0  0  0  0  0  0  0
    2.6756   -0.9996    0.7539 N   0  0  0  0  0  0  0  0  0  0  0  0
    1.9671   -2.2293    1.1019 C   0  0  0  0  0  0  0  0  0  0  0  0
    2.7637   -3.4763    0.7540 C   0  0  0  0  0  0  0  0  0  0  0  0
    4.1735   -3.3651    1.3219 C   0  0  0  0  0  0  0  0  0  0  0  0
    4.9040   -2.1915    0.6632 C   0  0  2  0  0  0  0  0  0  0  0  0
    6.2164   -1.8995    1.2462 N   0  0  0  0  0  0  0  0  0  0  0  0
    6.9332   -2.9196    1.9965 C   0  0  0  0  0  0  0  0  0  0  0  0
    7.7312   -3.9138    1.1334 C   0  0  0  0  0  0  0  0  0  0  0  0
    8.6232   -3.1846    0.2341 N   0  0  0  0  0  0  0  0  0  0  0  0
    9.8758   -3.6479   -0.1298 C   0  0  0  0  0  0  0  0  0  0  0  0
   10.8847   -2.7616   -0.5870 C   0  0  0  0  0  0  0  0  0  0  0  0
   12.1554   -3.1936   -0.9409 C   0  0  0  0  0  0  0  0  0  0  0  0
   12.5017   -4.5550   -0.8459 C   0  0  0  0  0  0  0  0  0  0  0  0
   13.8135   -5.0103   -1.1973 C   0  0  0  0  0  0  0  0  0  0  0  0
   14.8788   -5.3768   -1.4830 N   0  0  0  0  0  0  0  0  0  0  0  0
   11.5236   -5.4629   -0.4008 C   0  0  0  0  0  0  0  0  0  0  0  0
   10.2556   -5.0144   -0.0732 C   0  0  0  0  0  0  0  0  0  0  0  0
    9.3463   -5.9454    0.2863 F   0  0  0  0  0  0  0  0  0  0  0  0
    7.9440   -2.1387   -0.5345 C   0  0  0  0  0  0  0  0  0  0  0  0
    7.1543   -1.1909    0.3765 C   0  0  0  0  0  0  0  0  0  0  0  0
    4.0435   -0.8913    0.6385 C   0  0  0  0  0  0  0  0  0  0  0  0
    4.5845    0.1882    0.4432 O   0  0  0  0  0  0  0  0  0  0  0  0
    0.5094    1.2229   -0.7250 H   0  0  0  0  0  0  0  0  0  0  0  0
    0.2525   -0.5298   -0.6254 H   0  0  0  0  0  0  0  0  0  0  0  0
    1.6588    0.1166   -1.5162 H   0  0  0  0  0  0  0  0  0  0  0  0
    2.6257    1.0367    0.5703 H   0  0  0  0  0  0  0  0  0  0  0  0
    0.2308   -0.2409    2.0397 H   0  0  0  0  0  0  0  0  0  0  0  0
    0.5735    1.4893    1.8539 H   0  0  0  0  0  0  0  0  0  0  0  0
    1.6729    0.4730    2.8152 H   0  0  0  0  0  0  0  0  0  0  0  0
    1.0006   -2.2385    0.5732 H   0  0  0  0  0  0  0  0  0  0  0  0
    1.7311   -2.2389    2.1836 H   0  0  0  0  0  0  0  0  0  0  0  0
    2.8067   -3.6048   -0.3417 H   0  0  0  0  0  0  0  0  0  0  0  0
    2.2456   -4.3594    1.1603 H   0  0  0  0  0  0  0  0  0  0  0  0
    4.7287   -4.3010    1.1585 H   0  0  0  0  0  0  0  0  0  0  0  0
    4.1149   -3.2080    2.4130 H   0  0  0  0  0  0  0  0  0  0  0  0
    4.9967   -2.4551   -0.4160 H   0  0  0  0  0  0  0  0  0  0  0  0
    6.2581   -3.4766    2.6591 H   0  0  0  0  0  0  0  0  0  0  0  0
    7.6525   -2.3978    2.6543 H   0  0  0  0  0  0  0  0  0  0  0  0
    7.0413   -4.5699    0.5643 H   0  0  0  0  0  0  0  0  0  0  0  0
    8.3239   -4.5614    1.7906 H   0  0  0  0  0  0  0  0  0  0  0  0
   10.6629   -1.6950   -0.6335 H   0  0  0  0  0  0  0  0  0  0  0  0
   12.8995   -2.4692   -1.2766 H   0  0  0  0  0  0  0  0  0  0  0  0
   11.7299   -6.5321   -0.3334 H   0  0  0  0  0  0  0  0  0  0  0  0
    7.2554   -2.6154   -1.2649 H   0  0  0  0  0  0  0  0  0  0  0  0
    8.6737   -1.5683   -1.1225 H   0  0  0  0  0  0  0  0  0  0  0  0
    6.6085   -0.4485   -0.2154 H   0  0  0  0  0  0  0  0  0  0  0  0
    7.8666   -0.6367    1.0141 H   0  0  0  0  0  0  0  0  0  0  0  0
  1  2  1  0
  1 26  1  0
  1 27  1  0
  1 28  1  0
  2  3  1  0
  2  4  1  0
  2 29  1  6
  3 30  1  0
  3 31  1  0
  3 32  1  0
  4  5  1  0
  4 24  1  0
  5  6  1  0
  5 33  1  0
  5 34  1  0
  6  7  1  0
  6 35  1  0
  6 36  1  0
  7  8  1  0
  7 37  1  0
  7 38  1  0
  8  9  1  0
  8 24  1  0
  8 39  1  6
  9 10  1  0
  9 23  1  0
 10 11  1  0
 10 40  1  0
 10 41  1  0
 11 12  1  0
 11 42  1  0
 11 43  1  0
 12 13  1  0
 12 22  1  0
 13 14  2  0
 13 20  1  0
 14 15  1  0
 14 44  1  0
 15 16  2  0
 15 45  1  0
 16 17  1  0
 16 19  1  0
 17 18  3  0
 19 20  2  0
 19 46  1  0
 20 21  1  0
 22 23  1  0
 22 47  1  0
 22 48  1  0
 23 49  1  0
 23 50  1  0
 24 25  2  0
M  END

