
     RDKit          3D

 43 45  0  0  0  0  0  0  0  0999 V2000
    0.1550   -4.3397    1.0973 C   0  0  0  0  0  0  0  0  0  0  0  0
    1.3068   -3.5482    0.9070 O   0  0  0  0  0  0  0  0  0  0  0  0
    1.6368   -2.6047    1.8331 C   0  0  0  0  0  0  0  0  0  0  0  0
    0.9669   -2.3993    3.0393 C   0  0  0  0  0  0  0  0  0  0  0  0
    1.3909   -1.4001    3.9256 C   0  0  0  0  0  0  0  0  0  0  0  0
    2.4877   -0.6132    3.5868 C   0  0  0  0  0  0  0  0  0  0  0  0
    3.0266    0.6396    4.6869 Cl  0  0  0  0  0  0  0  0  0  0  0  0
    3.1747   -0.7969    2.3814 C   0  0  0  0  0  0  0  0  0  0  0  0
    2.7537   -1.7944    1.4945 C   0  0  0  0  0  0  0  0  0  0  0  0
    3.3618   -2.0558    0.2584 N   0  0  0  0  0  0  0  0  0  0  0  0
    4.3880   -1.3800   -0.3397 C   0  0  0  0  0  0  0  0  0  0  0  0
    4.9916   -0.4394    0.1456 O   0  0  0  0  0  0  0  0  0  0  0  0
    4.7410   -1.8453   -1.7629 C   0  0  0  0  0  0  0  0  0  0  0  0
    4.2615   -3.5301   -2.2724 S   0  0  0  0  0  0  0  0  0  0  0  0
    5.4950   -4.5086   -1.3011 C   0  0  0  0  0  0  0  0  0  0  0  0
    5.1097   -5.9558   -1.2726 C   0  0  0  0  0  0  0  0  0  0  0  0
    5.5775   -6.9286   -2.1252 C   0  0  0  0  0  0  0  0  0  0  0  0
    4.8551   -8.4509   -1.7490 S   0  0  0  0  0  0  0  0  0  0  0  0
    3.9511   -7.6689   -0.4508 C   0  0  0  0  0  0  0  0  0  0  0  0
    3.0270   -8.4018    0.4271 C   0  0  0  0  0  0  0  0  0  0  0  0
    2.7592   -9.7731    0.2653 C   0  0  0  0  0  0  0  0  0  0  0  0
    1.8804  -10.4381    1.1196 C   0  0  0  0  0  0  0  0  0  0  0  0
    1.2662   -9.7217    2.1450 C   0  0  0  0  0  0  0  0  0  0  0  0
    0.4221  -10.3541    2.9695 F   0  0  0  0  0  0  0  0  0  0  0  0
    1.5102   -8.3610    2.3328 C   0  0  0  0  0  0  0  0  0  0  0  0
    2.3882   -7.7059    1.4729 C   0  0  0  0  0  0  0  0  0  0  0  0
    4.1984   -6.3918   -0.3472 N   0  0  0  0  0  0  0  0  0  0  0  0
    0.0776   -4.9950    0.2200 H   0  0  0  0  0  0  0  0  0  0  0  0
   -0.7559   -3.7191    1.1708 H   0  0  0  0  0  0  0  0  0  0  0  0
    0.2343   -4.9659    2.0037 H   0  0  0  0  0  0  0  0  0  0  0  0
    0.1071   -3.0143    3.3051 H   0  0  0  0  0  0  0  0  0  0  0  0
    0.8684   -1.2390    4.8694 H   0  0  0  0  0  0  0  0  0  0  0  0
    4.0266   -0.1758    2.1176 H   0  0  0  0  0  0  0  0  0  0  0  0
    2.9687   -2.8391   -0.2648 H   0  0  0  0  0  0  0  0  0  0  0  0
    5.8208   -1.6826   -1.8955 H   0  0  0  0  0  0  0  0  0  0  0  0
    4.2316   -1.1681   -2.4686 H   0  0  0  0  0  0  0  0  0  0  0  0
    5.5086   -4.1210   -0.2721 H   0  0  0  0  0  0  0  0  0  0  0  0
    6.4880   -4.3706   -1.7533 H   0  0  0  0  0  0  0  0  0  0  0  0
    6.2958   -6.8268   -2.9368 H   0  0  0  0  0  0  0  0  0  0  0  0
    3.2401  -10.3363   -0.5386 H   0  0  0  0  0  0  0  0  0  0  0  0
    1.6649  -11.5018    1.0034 H   0  0  0  0  0  0  0  0  0  0  0  0
    1.0125   -7.8372    3.1514 H   0  0  0  0  0  0  0  0  0  0  0  0
    2.5986   -6.6418    1.5920 H   0  0  0  0  0  0  0  0  0  0  0  0
  1  2  1  0
  1 28  1  0
  1 29  1  0
  1 30  1  0
  2  3  1  0
  3  4  2  0
  3  9  1  0
  4  5  1  0
  4 31  1  0
  5  6  2  0
  5 32  1  0
  6  7  1  0
  6  8  1  0
  8  9  2  0
  8 33  1  0
  9 10  1  0
 10 11  1  0
 10 34  1  0
 11 12  2  0
 11 13  1  0
 13 14  1  0
 13 35  1  0
 13 36  1  0
 14 15  1  0
 15 16  1  0
 15 37  1  0
 15 38  1  0
 16 17  2  0
 16 27  1  0
 17 18  1  0
 17 39  1  0
 18 19  1  0
 19 20  1  0
 19 27  2  0
 20 21  2  0
 20 26  1  0
 21 22  1  0
 21 40  1  0
 22 23  2  0
 22 41  1  0
 23 24  1  0
 23 25  1  0
 25 26  2  0
 25 42  1  0
 26 43  1  0
M  END

