
     RDKit          3D

 57 59  0  0  0  0  0  0  0  0999 V2000
    4.3862    0.6566   -2.2976 C   0  0  0  0  0  0  0  0  0  0  0  0
    3.7749   -0.6838   -1.9125 C   0  0  0  0  0  0  0  0  0  0  0  0
    2.5723   -0.7403   -1.7021 O   0  0  0  0  0  0  0  0  0  0  0  0
    4.6480   -1.8749   -1.8036 C   0  0  0  0  0  0  0  0  0  0  0  0
    6.0454   -1.9429   -2.0213 C   0  0  0  0  0  0  0  0  0  0  0  0
    7.0783   -0.9301   -2.4113 C   0  0  0  0  0  0  0  0  0  0  0  0
    6.4156   -3.2225   -1.8079 N   0  0  0  0  0  0  0  0  0  0  0  0
    7.3508   -3.6153   -1.8680 H   0  0  0  0  0  0  0  0  0  0  0  0
    5.3404   -4.0117   -1.4605 C   0  0  0  0  0  0  0  0  0  0  0  0
    5.6601   -5.4279   -1.2000 C   0  0  0  0  0  0  0  0  0  0  0  0
    6.8224   -5.8148   -1.2460 O   0  0  0  0  0  0  0  0  0  0  0  0
    4.6014   -6.2644   -0.9112 N   0  0  0  0  0  0  0  0  0  0  0  0
    4.7255   -7.6281   -0.6519 C   0  0  0  0  0  0  0  0  0  0  0  0
    5.8119   -8.4933   -0.7087 C   0  0  0  0  0  0  0  0  0  0  0  0
    5.2668   -9.7422   -0.3296 C   0  0  0  0  0  0  0  0  0  0  0  0
    3.9695   -9.6673   -0.0602 N   0  0  0  0  0  0  0  0  0  0  0  0
    3.6447   -8.3667   -0.2482 N   0  0  0  0  0  0  0  0  0  0  0  0
    2.2724   -7.9372   -0.0524 C   0  0  0  0  0  0  0  0  0  0  0  0
    1.4852   -7.7289   -1.3356 C   0  0  0  0  0  0  0  0  0  0  0  0
    1.6614   -8.5725   -2.4385 C   0  0  0  0  0  0  0  0  0  0  0  0
    0.9030   -8.3999   -3.6001 C   0  0  0  0  0  0  0  0  0  0  0  0
   -0.0631   -7.3857   -3.7078 C   0  0  0  0  0  0  0  0  0  0  0  0
   -0.9147   -7.1672   -4.9737 C   0  0  1  0  0  0  0  0  0  0  0  0
   -0.5850   -8.1861   -6.0795 C   0  0  0  0  0  0  0  0  0  0  0  0
   -2.4123   -7.3106   -4.6155 C   0  0  0  0  0  0  0  0  0  0  0  0
   -0.6527   -5.7482   -5.5298 C   0  0  0  0  0  0  0  0  0  0  0  0
   -0.2331   -6.5478   -2.5903 C   0  0  0  0  0  0  0  0  0  0  0  0
    0.5245   -6.7122   -1.4297 C   0  0  0  0  0  0  0  0  0  0  0  0
    4.2077   -3.2017   -1.4440 C   0  0  0  0  0  0  0  0  0  0  0  0
    2.8094   -3.6363   -1.1044 C   0  0  0  0  0  0  0  0  0  0  0  0
    3.5805    1.4013   -2.3216 H   0  0  0  0  0  0  0  0  0  0  0  0
    4.8664    0.6114   -3.2875 H   0  0  0  0  0  0  0  0  0  0  0  0
    5.1514    0.9747   -1.5726 H   0  0  0  0  0  0  0  0  0  0  0  0
    7.1484   -0.1079   -1.6829 H   0  0  0  0  0  0  0  0  0  0  0  0
    6.8663   -0.4788   -3.3927 H   0  0  0  0  0  0  0  0  0  0  0  0
    8.0690   -1.4049   -2.4717 H   0  0  0  0  0  0  0  0  0  0  0  0
    3.6656   -5.8839   -0.9906 H   0  0  0  0  0  0  0  0  0  0  0  0
    6.8281   -8.2311   -0.9766 H   0  0  0  0  0  0  0  0  0  0  0  0
    5.7822  -10.6989   -0.2426 H   0  0  0  0  0  0  0  0  0  0  0  0
    2.2570   -7.0192    0.5597 H   0  0  0  0  0  0  0  0  0  0  0  0
    1.8137   -8.7315    0.5558 H   0  0  0  0  0  0  0  0  0  0  0  0
    2.3982   -9.3779   -2.3867 H   0  0  0  0  0  0  0  0  0  0  0  0
    1.0789   -9.0816   -4.4323 H   0  0  0  0  0  0  0  0  0  0  0  0
   -0.7768   -9.2212   -5.7560 H   0  0  0  0  0  0  0  0  0  0  0  0
    0.4654   -8.1173   -6.4031 H   0  0  0  0  0  0  0  0  0  0  0  0
   -1.2151   -7.9942   -6.9621 H   0  0  0  0  0  0  0  0  0  0  0  0
   -2.6295   -8.3154   -4.2195 H   0  0  0  0  0  0  0  0  0  0  0  0
   -3.0380   -7.1543   -5.5096 H   0  0  0  0  0  0  0  0  0  0  0  0
   -2.7265   -6.5768   -3.8578 H   0  0  0  0  0  0  0  0  0  0  0  0
    0.4081   -5.6183   -5.7973 H   0  0  0  0  0  0  0  0  0  0  0  0
   -0.9123   -4.9655   -4.8008 H   0  0  0  0  0  0  0  0  0  0  0  0
   -1.2561   -5.5727   -6.4356 H   0  0  0  0  0  0  0  0  0  0  0  0
   -0.9689   -5.7408   -2.6198 H   0  0  0  0  0  0  0  0  0  0  0  0
    0.3603   -6.0377   -0.5835 H   0  0  0  0  0  0  0  0  0  0  0  0
    2.7720   -4.1239   -0.1148 H   0  0  0  0  0  0  0  0  0  0  0  0
    2.4129   -4.3498   -1.8482 H   0  0  0  0  0  0  0  0  0  0  0  0
    2.1378   -2.7725   -1.0880 H   0  0  0  0  0  0  0  0  0  0  0  0
  1  2  1  0
  1 31  1  0
  1 32  1  0
  1 33  1  0
  2  3  2  0
  2  4  1  0
  4  5  2  0
  4 29  1  0
  5  6  1  0
  5  7  1  0
  6 34  1  0
  6 35  1  0
  6 36  1  0
  7  8  1  0
  7  9  1  0
  9 10  1  0
  9 29  2  0
 10 11  2  0
 10 12  1  0
 12 13  1  0
 12 37  1  0
 13 14  2  0
 13 17  1  0
 14 15  1  0
 14 38  1  0
 15 16  2  0
 15 39  1  0
 16 17  1  0
 17 18  1  0
 18 19  1  0
 18 40  1  0
 18 41  1  0
 19 20  2  0
 19 28  1  0
 20 21  1  0
 20 42  1  0
 21 22  2  0
 21 43  1  0
 22 23  1  0
 22 27  1  0
 23 24  1  6
 23 25  1  0
 23 26  1  0
 24 44  1  0
 24 45  1  0
 24 46  1  0
 25 47  1  0
 25 48  1  0
 25 49  1  0
 26 50  1  0
 26 51  1  0
 26 52  1  0
 27 28  2  0
 27 53  1  0
 28 54  1  0
 29 30  1  0
 30 55  1  0
 30 56  1  0
 30 57  1  0
M  END

