
     RDKit          3D

 37 38  0  0  0  0  0  0  0  0999 V2000
    3.0987   -1.0104   -1.2126 C   0  0  0  0  0  0  0  0  0  0  0  0
    2.6071    0.1072   -0.2826 C   0  0  1  0  0  0  0  0  0  0  0  0
    1.1573    0.3140   -0.3117 N   0  0  0  0  0  0  0  0  0  0  0  0
    3.0275   -0.1152    1.1876 C   0  0  0  0  0  0  0  0  0  0  0  0
    4.5193   -0.1144    1.4347 C   0  0  0  0  0  0  0  0  0  0  0  0
    5.2340    1.0984    1.4008 C   0  0  0  0  0  0  0  0  0  0  0  0
    6.6048    1.0764    1.6126 C   0  0  0  0  0  0  0  0  0  0  0  0
    7.2886    2.2311    1.5848 F   0  0  0  0  0  0  0  0  0  0  0  0
    7.3170   -0.0985    1.8620 C   0  0  0  0  0  0  0  0  0  0  0  0
    6.6003   -1.3015    1.8972 C   0  0  0  0  0  0  0  0  0  0  0  0
    7.1686   -2.5140    2.1324 O   0  0  0  0  0  0  0  0  0  0  0  0
    8.5569   -2.5957    2.3601 C   0  0  0  0  0  0  0  0  0  0  0  0
    8.9537   -4.0337    2.5965 C   0  0  0  0  0  0  0  0  0  0  0  0
    8.0084   -5.0655    2.5762 C   0  0  0  0  0  0  0  0  0  0  0  0
    8.4016   -6.3875    2.7981 C   0  0  0  0  0  0  0  0  0  0  0  0
    7.1994   -7.6560    2.7667 Cl  0  0  0  0  0  0  0  0  0  0  0  0
    9.7381   -6.7097    3.0441 C   0  0  0  0  0  0  0  0  0  0  0  0
   10.6886   -5.6882    3.0665 C   0  0  0  0  0  0  0  0  0  0  0  0
   10.2960   -4.3672    2.8447 C   0  0  0  0  0  0  0  0  0  0  0  0
   11.5115   -3.1031    2.8787 Cl  0  0  0  0  0  0  0  0  0  0  0  0
    5.2104   -1.3029    1.6837 C   0  0  0  0  0  0  0  0  0  0  0  0
    2.7947   -0.8101   -2.2533 H   0  0  0  0  0  0  0  0  0  0  0  0
    2.6646   -1.9820   -0.9171 H   0  0  0  0  0  0  0  0  0  0  0  0
    4.1954   -1.1130   -1.1961 H   0  0  0  0  0  0  0  0  0  0  0  0
    3.0665    1.0560   -0.6153 H   0  0  0  0  0  0  0  0  0  0  0  0
    0.6797   -0.5525   -0.0526 H   0  0  0  0  0  0  0  0  0  0  0  0
    0.8524    0.5231   -1.2632 H   0  0  0  0  0  0  0  0  0  0  0  0
    2.5968   -1.0701    1.5369 H   0  0  0  0  0  0  0  0  0  0  0  0
    2.5500    0.6822    1.7785 H   0  0  0  0  0  0  0  0  0  0  0  0
    4.7360    2.0532    1.2219 H   0  0  0  0  0  0  0  0  0  0  0  0
    8.3918   -0.0350    2.0225 H   0  0  0  0  0  0  0  0  0  0  0  0
    8.8478   -1.9839    3.2353 H   0  0  0  0  0  0  0  0  0  0  0  0
    9.1207   -2.1946    1.4964 H   0  0  0  0  0  0  0  0  0  0  0  0
    6.9638   -4.8250    2.3855 H   0  0  0  0  0  0  0  0  0  0  0  0
   10.0311   -7.7464    3.2158 H   0  0  0  0  0  0  0  0  0  0  0  0
   11.7395   -5.9124    3.2564 H   0  0  0  0  0  0  0  0  0  0  0  0
    4.6845   -2.2587    1.7224 H   0  0  0  0  0  0  0  0  0  0  0  0
  1  2  1  0
  1 22  1  0
  1 23  1  0
  1 24  1  0
  2  3  1  0
  2  4  1  0
  2 25  1  6
  3 26  1  0
  3 27  1  0
  4  5  1  0
  4 28  1  0
  4 29  1  0
  5  6  2  0
  5 21  1  0
  6  7  1  0
  6 30  1  0
  7  8  1  0
  7  9  2  0
  9 10  1  0
  9 31  1  0
 10 11  1  0
 10 21  2  0
 11 12  1  0
 12 13  1  0
 12 32  1  0
 12 33  1  0
 13 14  2  0
 13 19  1  0
 14 15  1  0
 14 34  1  0
 15 16  1  0
 15 17  2  0
 17 18  1  0
 17 35  1  0
 18 19  2  0
 18 36  1  0
 19 20  1  0
 21 37  1  0
M  END

