
     RDKit          3D

 53 54  0  0  0  0  0  0  0  0999 V2000
    6.0940    3.7896   -0.5865 C   0  0  0  0  0  0  0  0  0  0  0  0
    5.7672    2.5702   -1.2572 O   0  0  0  0  0  0  0  0  0  0  0  0
    4.8655    1.7826   -0.6521 C   0  0  0  0  0  0  0  0  0  0  0  0
    4.3386    2.0431    0.4003 O   0  0  0  0  0  0  0  0  0  0  0  0
    4.6059    0.4799   -1.4179 C   0  0  2  0  0  0  0  0  0  0  0  0
    3.5213    0.3171   -1.3657 H   0  0  0  0  0  0  0  0  0  0  0  0
    5.3936   -0.6952   -0.7938 C   0  0  0  0  0  0  0  0  0  0  0  0
    6.6769   -0.7288   -1.5903 C   0  0  0  0  0  0  0  0  0  0  0  0
    7.8625   -1.1989   -1.1482 C   0  0  0  0  0  0  0  0  0  0  0  0
    9.0890   -1.2373   -1.9182 C   0  0  0  0  0  0  0  0  0  0  0  0
   10.2570   -1.7272   -1.4355 C   0  0  0  0  0  0  0  0  0  0  0  0
   11.5279   -1.8047   -2.1661 C   0  0  0  0  0  0  0  0  0  0  0  0
   11.5642   -1.7396   -3.5749 C   0  0  0  0  0  0  0  0  0  0  0  0
   12.7533   -1.8050   -4.2945 C   0  0  0  0  0  0  0  0  0  0  0  0
   13.9614   -1.9491   -3.6075 C   0  0  0  0  0  0  0  0  0  0  0  0
   15.5988   -2.0490   -4.5715 Br  0  0  0  0  0  0  0  0  0  0  0  0
   13.9726   -2.0264   -2.2150 C   0  0  0  0  0  0  0  0  0  0  0  0
   12.7731   -1.9571   -1.4996 C   0  0  0  0  0  0  0  0  0  0  0  0
   12.8459   -2.0217    0.0121 C   0  0  1  0  0  0  0  0  0  0  0  0
   12.1777   -3.0879    0.5030 F   0  0  0  0  0  0  0  0  0  0  0  0
   14.1093   -2.1194    0.4553 F   0  0  0  0  0  0  0  0  0  0  0  0
   12.3091   -0.9294    0.5871 F   0  0  0  0  0  0  0  0  0  0  0  0
    6.3969   -0.1272   -2.9509 C   0  0  0  0  0  0  0  0  0  0  0  0
    5.0754    0.4765   -2.7933 N   0  0  0  0  0  0  0  0  0  0  0  0
    4.5275    1.2043   -3.8141 C   0  0  0  0  0  0  0  0  0  0  0  0
    5.0269    1.2824   -4.9192 O   0  0  0  0  0  0  0  0  0  0  0  0
    3.3803    1.7916   -3.4107 O   0  0  0  0  0  0  0  0  0  0  0  0
    2.5824    2.6323   -4.3094 C   0  0  1  0  0  0  0  0  0  0  0  0
    2.0919    1.8064   -5.5030 C   0  0  0  0  0  0  0  0  0  0  0  0
    1.4086    3.0590   -3.4260 C   0  0  0  0  0  0  0  0  0  0  0  0
    3.4038    3.8491   -4.7480 C   0  0  0  0  0  0  0  0  0  0  0  0
    6.8373    4.2948   -1.2148 H   0  0  0  0  0  0  0  0  0  0  0  0
    6.5099    3.5847    0.4114 H   0  0  0  0  0  0  0  0  0  0  0  0
    5.1994    4.4192   -0.4689 H   0  0  0  0  0  0  0  0  0  0  0  0
    4.8217   -1.6264   -0.9585 H   0  0  0  0  0  0  0  0  0  0  0  0
    5.5429   -0.5869    0.2897 H   0  0  0  0  0  0  0  0  0  0  0  0
    7.9151   -1.5903   -0.1259 H   0  0  0  0  0  0  0  0  0  0  0  0
    9.0510   -0.8301   -2.9336 H   0  0  0  0  0  0  0  0  0  0  0  0
   10.2578   -2.0921   -0.4065 H   0  0  0  0  0  0  0  0  0  0  0  0
   10.6271   -1.6572   -4.1281 H   0  0  0  0  0  0  0  0  0  0  0  0
   12.7415   -1.7560   -5.3846 H   0  0  0  0  0  0  0  0  0  0  0  0
   14.9157   -2.1367   -1.6817 H   0  0  0  0  0  0  0  0  0  0  0  0
    6.3820   -0.8839   -3.7563 H   0  0  0  0  0  0  0  0  0  0  0  0
    7.1472    0.6293   -3.2396 H   0  0  0  0  0  0  0  0  0  0  0  0
    1.5418    0.9182   -5.1541 H   0  0  0  0  0  0  0  0  0  0  0  0
    2.9320    1.4799   -6.1288 H   0  0  0  0  0  0  0  0  0  0  0  0
    1.4064    2.4120   -6.1163 H   0  0  0  0  0  0  0  0  0  0  0  0
    0.8445    2.1802   -3.0784 H   0  0  0  0  0  0  0  0  0  0  0  0
    0.7248    3.7108   -3.9904 H   0  0  0  0  0  0  0  0  0  0  0  0
    1.7662    3.6094   -2.5426 H   0  0  0  0  0  0  0  0  0  0  0  0
    4.2569    3.5459   -5.3679 H   0  0  0  0  0  0  0  0  0  0  0  0
    3.7808    4.3919   -3.8670 H   0  0  0  0  0  0  0  0  0  0  0  0
    2.7691    4.5370   -5.3282 H   0  0  0  0  0  0  0  0  0  0  0  0
  1  2  1  0
  1 32  1  0
  1 33  1  0
  1 34  1  0
  2  3  1  0
  3  4  2  0
  3  5  1  0
  5  6  1  6
  5  7  1  0
  5 24  1  0
  7  8  1  0
  7 35  1  0
  7 36  1  0
  8  9  2  0
  8 23  1  0
  9 10  1  0
  9 37  1  0
 10 11  2  0
 10 38  1  0
 11 12  1  0
 11 39  1  0
 12 13  2  0
 12 18  1  0
 13 14  1  0
 13 40  1  0
 14 15  2  0
 14 41  1  0
 15 16  1  0
 15 17  1  0
 17 18  2  0
 17 42  1  0
 18 19  1  0
 19 20  1  1
 19 21  1  0
 19 22  1  0
 23 24  1  0
 23 43  1  0
 23 44  1  0
 24 25  1  0
 25 26  2  0
 25 27  1  0
 28 27  1  1
 28 29  1  0
 28 30  1  0
 28 31  1  0
 29 45  1  0
 29 46  1  0
 29 47  1  0
 30 48  1  0
 30 49  1  0
 30 50  1  0
 31 51  1  0
 31 52  1  0
 31 53  1  0
M  END

