
     RDKit          3D

 51 52  0  0  0  0  0  0  0  0999 V2000
    0.7785    3.6210   -2.7398 C   0  0  0  0  0  0  0  0  0  0  0  0
    2.1580    3.6992   -2.0832 C   0  0  1  0  0  0  0  0  0  0  0  0
    2.0839    3.6441   -0.5518 C   0  0  0  0  0  0  0  0  0  0  0  0
    3.0205    2.6517   -2.6274 N   0  0  0  0  0  0  0  0  0  0  0  0
    4.3844    2.8323   -2.7343 C   0  0  0  0  0  0  0  0  0  0  0  0
    4.9305    3.8959   -2.4916 O   0  0  0  0  0  0  0  0  0  0  0  0
    5.0547    1.6927   -3.1663 N   0  0  0  0  0  0  0  0  0  0  0  0
    6.4324    1.5131   -3.3743 C   0  0  0  0  0  0  0  0  0  0  0  0
    7.3953    2.5168   -3.1520 C   0  0  0  0  0  0  0  0  0  0  0  0
    8.7436    2.2448   -3.3812 C   0  0  0  0  0  0  0  0  0  0  0  0
    9.1868    0.9910   -3.8308 C   0  0  0  0  0  0  0  0  0  0  0  0
   10.6528    0.7233   -4.1028 C   0  0  0  0  0  0  0  0  0  0  0  0
   11.5129    1.1323   -3.0068 N   0  0  0  0  0  0  0  0  0  0  0  0
   12.7183    1.7544   -3.2073 C   0  0  0  0  0  0  0  0  0  0  0  0
   13.1485    1.9969   -4.3279 O   0  0  0  0  0  0  0  0  0  0  0  0
   13.4905    2.1226   -1.9785 C   0  0  0  0  0  0  0  0  0  0  0  0
   14.8424    2.4865   -2.1210 C   0  0  0  0  0  0  0  0  0  0  0  0
   15.5941    2.8454   -1.0169 C   0  0  0  0  0  0  0  0  0  0  0  0
   14.9713    2.8444    0.2648 C   0  0  0  0  0  0  0  0  0  0  0  0
   15.6684    3.1643    1.4039 N   0  0  0  0  0  0  0  0  0  0  0  0
   15.0090    3.2674    2.6941 C   0  0  0  0  0  0  0  0  0  0  0  0
   17.0657    3.5372    1.3314 C   0  0  0  0  0  0  0  0  0  0  0  0
   13.6688    2.5301    0.3957 N   0  0  0  0  0  0  0  0  0  0  0  0
   12.9687    2.1875   -0.6793 C   0  0  0  0  0  0  0  0  0  0  0  0
    8.2198    0.0000   -4.0436 C   0  0  0  0  0  0  0  0  0  0  0  0
    6.8663    0.2529   -3.8234 C   0  0  0  0  0  0  0  0  0  0  0  0
    0.1291    4.4337   -2.3796 H   0  0  0  0  0  0  0  0  0  0  0  0
    0.2746    2.6678   -2.4996 H   0  0  0  0  0  0  0  0  0  0  0  0
    0.8573    3.6998   -3.8348 H   0  0  0  0  0  0  0  0  0  0  0  0
    2.6412    4.6461   -2.3670 H   0  0  0  0  0  0  0  0  0  0  0  0
    1.6395    2.6936   -0.2090 H   0  0  0  0  0  0  0  0  0  0  0  0
    1.4649    4.4664   -0.1579 H   0  0  0  0  0  0  0  0  0  0  0  0
    3.0900    3.7363   -0.1160 H   0  0  0  0  0  0  0  0  0  0  0  0
    2.6508    1.7071   -2.6124 H   0  0  0  0  0  0  0  0  0  0  0  0
    4.4836    0.8964   -3.4225 H   0  0  0  0  0  0  0  0  0  0  0  0
    7.0702    3.4965   -2.8101 H   0  0  0  0  0  0  0  0  0  0  0  0
    9.4761    3.0368   -3.2029 H   0  0  0  0  0  0  0  0  0  0  0  0
   11.0071    1.2777   -4.9861 H   0  0  0  0  0  0  0  0  0  0  0  0
   10.7909   -0.3494   -4.3346 H   0  0  0  0  0  0  0  0  0  0  0  0
   11.2591    0.8331   -2.0739 H   0  0  0  0  0  0  0  0  0  0  0  0
   15.2755    2.4832   -3.1237 H   0  0  0  0  0  0  0  0  0  0  0  0
   16.6382    3.1282   -1.1409 H   0  0  0  0  0  0  0  0  0  0  0  0
   13.9729    2.9299    2.5878 H   0  0  0  0  0  0  0  0  0  0  0  0
   15.0074    4.3101    3.0630 H   0  0  0  0  0  0  0  0  0  0  0  0
   15.5195    2.6393    3.4451 H   0  0  0  0  0  0  0  0  0  0  0  0
   17.2252    4.4895    0.7904 H   0  0  0  0  0  0  0  0  0  0  0  0
   17.6727    2.7610    0.8343 H   0  0  0  0  0  0  0  0  0  0  0  0
   17.4561    3.6609    2.3503 H   0  0  0  0  0  0  0  0  0  0  0  0
   11.9082    1.9741   -0.4913 H   0  0  0  0  0  0  0  0  0  0  0  0
    8.5269   -0.9917   -4.3889 H   0  0  0  0  0  0  0  0  0  0  0  0
    6.1342   -0.5425   -3.9962 H   0  0  0  0  0  0  0  0  0  0  0  0
  1  2  1  0
  1 27  1  0
  1 28  1  0
  1 29  1  0
  2  3  1  0
  2  4  1  0
  2 30  1  1
  3 31  1  0
  3 32  1  0
  3 33  1  0
  4  5  1  0
  4 34  1  0
  5  6  2  0
  5  7  1  0
  7  8  1  0
  7 35  1  0
  8  9  2  0
  8 26  1  0
  9 10  1  0
  9 36  1  0
 10 11  2  0
 10 37  1  0
 11 12  1  0
 11 25  1  0
 12 13  1  0
 12 38  1  0
 12 39  1  0
 13 14  1  0
 13 40  1  0
 14 15  2  0
 14 16  1  0
 16 17  2  0
 16 24  1  0
 17 18  1  0
 17 41  1  0
 18 19  2  0
 18 42  1  0
 19 20  1  0
 19 23  1  0
 20 21  1  0
 20 22  1  0
 21 43  1  0
 21 44  1  0
 21 45  1  0
 22 46  1  0
 22 47  1  0
 22 48  1  0
 23 24  2  0
 24 49  1  0
 25 26  2  0
 25 50  1  0
 26 51  1  0
M  END

