
     RDKit          3D

 52 54  0  0  0  0  0  0  0  0999 V2000
    4.2922   -3.5035    0.5778 C   0  0  0  0  0  0  0  0  0  0  0  0
    4.5267   -2.0807    0.0826 C   0  0  0  0  0  0  0  0  0  0  0  0
    4.6504   -1.1463    1.1904 N   0  0  0  0  0  0  0  0  0  0  0  0
    4.8876    0.2325    0.7973 C   0  0  0  0  0  0  0  0  0  0  0  0
    4.8671    1.1976    1.9962 C   0  0  1  0  0  0  0  0  0  0  0  0
    5.9969    0.9549    3.0199 C   0  0  0  0  0  0  0  0  0  0  0  0
    7.3654    1.4363    2.5262 C   0  0  0  0  0  0  0  0  0  0  0  0
    7.3071    2.8422    2.1240 N   0  0  0  0  0  0  0  0  0  0  0  0
    8.2017    3.7232    2.6659 C   0  0  0  0  0  0  0  0  0  0  0  0
    9.0536    3.3788    3.4764 O   0  0  0  0  0  0  0  0  0  0  0  0
    8.1187    5.2042    2.2272 C   0  0  1  0  0  0  0  0  0  0  0  0
    8.9787    6.1140    3.1212 C   0  0  0  0  0  0  0  0  0  0  0  0
   10.3949    6.0478    2.5068 C   0  0  0  0  0  0  0  0  0  0  0  0
   10.1976    5.4374    1.0949 C   0  0  0  0  0  0  0  0  0  0  0  0
    8.7329    5.3293    0.8780 N   0  0  0  0  0  0  0  0  0  0  0  0
    8.0558    6.5425   -0.1019 S   0  0  1  0  0  0  0  0  0  0  0  0
    6.6017    6.4291    0.0629 O   0  0  0  0  0  0  0  0  0  0  0  0
    8.7057    7.8465    0.0789 O   0  0  0  0  0  0  0  0  0  0  0  0
    8.5229    5.9839   -1.7182 C   0  0  0  0  0  0  0  0  0  0  0  0
    9.1007    6.7876   -2.6739 C   0  0  0  0  0  0  0  0  0  0  0  0
    9.2697    6.1066   -3.9135 C   0  0  0  0  0  0  0  0  0  0  0  0
    8.8148    4.8105   -3.8677 C   0  0  0  0  0  0  0  0  0  0  0  0
    8.1734    4.3928   -2.3197 S   0  0  0  0  0  0  0  0  0  0  0  0
    6.3048    3.1310    1.0996 C   0  0  0  0  0  0  0  0  0  0  0  0
    4.9109    2.6739    1.5527 C   0  0  0  0  0  0  0  0  0  0  0  0
    4.1561   -4.1994   -0.2647 H   0  0  0  0  0  0  0  0  0  0  0  0
    3.3979   -3.5477    1.2188 H   0  0  0  0  0  0  0  0  0  0  0  0
    5.1496   -3.8662    1.1707 H   0  0  0  0  0  0  0  0  0  0  0  0
    3.6705   -1.7612   -0.5390 H   0  0  0  0  0  0  0  0  0  0  0  0
    5.4119   -2.0650   -0.5965 H   0  0  0  0  0  0  0  0  0  0  0  0
    5.3896   -1.4652    1.8160 H   0  0  0  0  0  0  0  0  0  0  0  0
    4.0731    0.5277    0.1118 H   0  0  0  0  0  0  0  0  0  0  0  0
    5.8263    0.3544    0.2082 H   0  0  0  0  0  0  0  0  0  0  0  0
    3.9060    1.0145    2.5053 H   0  0  0  0  0  0  0  0  0  0  0  0
    6.0592   -0.1098    3.3008 H   0  0  0  0  0  0  0  0  0  0  0  0
    5.7544    1.4980    3.9493 H   0  0  0  0  0  0  0  0  0  0  0  0
    7.7034    0.8303    1.6637 H   0  0  0  0  0  0  0  0  0  0  0  0
    8.1274    1.3487    3.3096 H   0  0  0  0  0  0  0  0  0  0  0  0
    7.0731    5.5312    2.1805 H   0  0  0  0  0  0  0  0  0  0  0  0
    8.9588    5.7924    4.1698 H   0  0  0  0  0  0  0  0  0  0  0  0
    8.5793    7.1374    3.0565 H   0  0  0  0  0  0  0  0  0  0  0  0
   11.0538    5.4055    3.1061 H   0  0  0  0  0  0  0  0  0  0  0  0
   10.8481    7.0475    2.4454 H   0  0  0  0  0  0  0  0  0  0  0  0
   10.6189    4.4230    1.0349 H   0  0  0  0  0  0  0  0  0  0  0  0
   10.6501    6.0373    0.2939 H   0  0  0  0  0  0  0  0  0  0  0  0
    9.3846    7.8208   -2.4734 H   0  0  0  0  0  0  0  0  0  0  0  0
    9.7141    6.5575   -4.8018 H   0  0  0  0  0  0  0  0  0  0  0  0
    8.8299    4.0662   -4.6636 H   0  0  0  0  0  0  0  0  0  0  0  0
    6.5939    2.6052    0.1700 H   0  0  0  0  0  0  0  0  0  0  0  0
    6.2921    4.1972    0.8538 H   0  0  0  0  0  0  0  0  0  0  0  0
    4.1912    2.8549    0.7366 H   0  0  0  0  0  0  0  0  0  0  0  0
    4.5972    3.3108    2.3976 H   0  0  0  0  0  0  0  0  0  0  0  0
  1  2  1  0
  1 26  1  0
  1 27  1  0
  1 28  1  0
  2  3  1  0
  2 29  1  0
  2 30  1  0
  3  4  1  0
  3 31  1  0
  4  5  1  0
  4 32  1  0
  4 33  1  0
  5  6  1  0
  5 25  1  0
  5 34  1  1
  6  7  1  0
  6 35  1  0
  6 36  1  0
  7  8  1  0
  7 37  1  0
  7 38  1  0
  8  9  1  0
  8 24  1  0
  9 10  2  0
  9 11  1  0
 11 12  1  0
 11 15  1  0
 11 39  1  6
 12 13  1  0
 12 40  1  0
 12 41  1  0
 13 14  1  0
 13 42  1  0
 13 43  1  0
 14 15  1  0
 14 44  1  0
 14 45  1  0
 15 16  1  0
 16 17  2  0
 16 18  2  0
 16 19  1  6
 19 20  2  0
 19 23  1  0
 20 21  1  0
 20 46  1  0
 21 22  2  0
 21 47  1  0
 22 23  1  0
 22 48  1  0
 24 25  1  0
 24 49  1  0
 24 50  1  0
 25 51  1  0
 25 52  1  0
M  END

