
     RDKit          3D

 42 43  0  0  0  0  0  0  0  0999 V2000
    2.2131    1.3260    1.8358 C   0  0  0  0  0  0  0  0  0  0  0  0
    2.1450   -0.0097    1.1153 C   0  0  0  0  0  0  0  0  0  0  0  0
    2.9200   -1.0192    1.7928 O   0  0  0  0  0  0  0  0  0  0  0  0
    4.2301   -1.1082    1.4990 C   0  0  0  0  0  0  0  0  0  0  0  0
    4.7831   -0.3948    0.6952 O   0  0  0  0  0  0  0  0  0  0  0  0
    4.9150   -2.1929    2.3299 C   0  0  1  0  0  0  0  0  0  0  0  0
    4.1763   -3.5475    2.2717 C   0  0  0  0  0  0  0  0  0  0  0  0
    4.3793   -4.2539    0.9289 C   0  0  0  0  0  0  0  0  0  0  0  0
    5.8051   -4.3956    0.6345 N   0  0  0  0  0  0  0  0  0  0  0  0
    6.2459   -5.5886    0.1099 C   0  0  0  0  0  0  0  0  0  0  0  0
    5.4825   -6.4966   -0.1875 O   0  0  0  0  0  0  0  0  0  0  0  0
    7.7338   -5.7969   -0.0587 C   0  0  0  0  0  0  0  0  0  0  0  0
    8.6595   -5.4947    0.9485 C   0  0  0  0  0  0  0  0  0  0  0  0
   10.0055   -5.8234    0.7802 C   0  0  0  0  0  0  0  0  0  0  0  0
   11.1481   -5.4548    2.0478 Cl  0  0  0  0  0  0  0  0  0  0  0  0
   10.4741   -6.4381   -0.3966 C   0  0  0  0  0  0  0  0  0  0  0  0
   11.7908   -6.6875   -0.5814 O   0  0  0  0  0  0  0  0  0  0  0  0
   12.2633   -7.9677   -0.1691 C   0  0  0  0  0  0  0  0  0  0  0  0
    9.5199   -6.7486   -1.3870 C   0  0  0  0  0  0  0  0  0  0  0  0
   10.0594   -7.5245   -2.8537 Cl  0  0  0  0  0  0  0  0  0  0  0  0
    8.1701   -6.4453   -1.2216 C   0  0  0  0  0  0  0  0  0  0  0  0
    6.5267   -3.1213    0.5970 C   0  0  0  0  0  0  0  0  0  0  0  0
    6.3874   -2.3650    1.9225 C   0  0  0  0  0  0  0  0  0  0  0  0
    1.5502    2.0527    1.3393 H   0  0  0  0  0  0  0  0  0  0  0  0
    3.2362    1.7297    1.8158 H   0  0  0  0  0  0  0  0  0  0  0  0
    1.8899    1.2262    2.8837 H   0  0  0  0  0  0  0  0  0  0  0  0
    2.5071    0.0815    0.0808 H   0  0  0  0  0  0  0  0  0  0  0  0
    1.1197   -0.4069    1.1048 H   0  0  0  0  0  0  0  0  0  0  0  0
    4.8631   -1.8214    3.3690 H   0  0  0  0  0  0  0  0  0  0  0  0
    3.1028   -3.4032    2.4604 H   0  0  0  0  0  0  0  0  0  0  0  0
    4.5681   -4.1934    3.0748 H   0  0  0  0  0  0  0  0  0  0  0  0
    3.8883   -3.6815    0.1165 H   0  0  0  0  0  0  0  0  0  0  0  0
    3.9340   -5.2559    0.9274 H   0  0  0  0  0  0  0  0  0  0  0  0
    8.3438   -5.0284    1.8823 H   0  0  0  0  0  0  0  0  0  0  0  0
   13.3370   -7.9930   -0.3977 H   0  0  0  0  0  0  0  0  0  0  0  0
   11.7565   -8.7762   -0.7220 H   0  0  0  0  0  0  0  0  0  0  0  0
   12.1206   -8.1133    0.9149 H   0  0  0  0  0  0  0  0  0  0  0  0
    7.4492   -6.7229   -1.9908 H   0  0  0  0  0  0  0  0  0  0  0  0
    6.1095   -2.4979   -0.2152 H   0  0  0  0  0  0  0  0  0  0  0  0
    7.5815   -3.2938    0.3568 H   0  0  0  0  0  0  0  0  0  0  0  0
    6.8722   -1.3823    1.8288 H   0  0  0  0  0  0  0  0  0  0  0  0
    6.9092   -2.9227    2.7182 H   0  0  0  0  0  0  0  0  0  0  0  0
  1  2  1  0
  1 24  1  0
  1 25  1  0
  1 26  1  0
  2  3  1  0
  2 27  1  0
  2 28  1  0
  3  4  1  0
  4  5  2  0
  4  6  1  0
  6  7  1  0
  6 23  1  0
  6 29  1  1
  7  8  1  0
  7 30  1  0
  7 31  1  0
  8  9  1  0
  8 32  1  0
  8 33  1  0
  9 10  1  0
  9 22  1  0
 10 11  2  0
 10 12  1  0
 12 13  2  0
 12 21  1  0
 13 14  1  0
 13 34  1  0
 14 15  1  0
 14 16  2  0
 16 17  1  0
 16 19  1  0
 17 18  1  0
 18 35  1  0
 18 36  1  0
 18 37  1  0
 19 20  1  0
 19 21  2  0
 21 38  1  0
 22 23  1  0
 22 39  1  0
 22 40  1  0
 23 41  1  0
 23 42  1  0
M  END

