
     RDKit          3D

 39 40  0  0  0  0  0  0  0  0999 V2000
    0.6040   -0.2054   -0.4215 C   0  0  0  0  0  0  0  0  0  0  0  0
    2.0121   -0.6254   -0.8775 C   0  0  1  0  0  0  0  0  0  0  0  0
    2.8624   -1.0087    0.3547 C   0  0  0  0  0  0  0  0  0  0  0  0
    1.9073   -1.8395   -1.8284 C   0  0  0  0  0  0  0  0  0  0  0  0
    2.6650    0.5402   -1.6080 C   0  0  0  0  0  0  0  0  0  0  0  0
    2.1051    1.6914   -1.8354 N   0  0  0  0  0  0  0  0  0  0  0  0
    2.9270    2.5553   -2.5214 C   0  0  0  0  0  0  0  0  0  0  0  0
    2.4337    3.9521   -2.8170 C   0  0  0  0  0  0  0  0  0  0  0  0
    3.1332    4.5739   -3.9343 N   0  0  0  0  0  0  0  0  0  0  0  0
    2.7316    4.1050   -5.2603 C   0  0  0  0  0  0  0  0  0  0  0  0
    1.4654    4.7985   -5.7692 C   0  0  0  0  0  0  0  0  0  0  0  0
    1.6196    6.2159   -5.7230 O   0  0  0  0  0  0  0  0  0  0  0  0
    1.9517    6.7075   -4.4284 C   0  0  2  0  0  0  0  0  0  0  0  0
    2.1095    8.2267   -4.5171 C   0  0  0  0  0  0  0  0  0  0  0  0
    2.4613    8.8882   -3.5769 O   0  0  0  0  0  0  0  0  0  0  0  0
    1.8335    8.7421   -5.7188 O   0  0  0  0  0  0  0  0  0  0  0  0
    3.2296    6.0266   -3.9088 C   0  0  0  0  0  0  0  0  0  0  0  0
    4.1603    2.0504   -2.8412 C   0  0  0  0  0  0  0  0  0  0  0  0
    4.3055    0.4293   -2.2559 S   0  0  0  0  0  0  0  0  0  0  0  0
    0.1204   -1.0409    0.1092 H   0  0  0  0  0  0  0  0  0  0  0  0
   -0.0240    0.0772   -1.2785 H   0  0  0  0  0  0  0  0  0  0  0  0
    0.6464    0.6618    0.2532 H   0  0  0  0  0  0  0  0  0  0  0  0
    2.3899   -1.8437    0.8968 H   0  0  0  0  0  0  0  0  0  0  0  0
    2.9581   -0.1600    1.0500 H   0  0  0  0  0  0  0  0  0  0  0  0
    3.8771   -1.3259    0.0664 H   0  0  0  0  0  0  0  0  0  0  0  0
    1.4245   -2.6852   -1.3126 H   0  0  0  0  0  0  0  0  0  0  0  0
    2.8992   -2.1749   -2.1704 H   0  0  0  0  0  0  0  0  0  0  0  0
    1.3071   -1.5946   -2.7188 H   0  0  0  0  0  0  0  0  0  0  0  0
    2.6000    4.5774   -1.9226 H   0  0  0  0  0  0  0  0  0  0  0  0
    1.3315    3.8936   -2.9346 H   0  0  0  0  0  0  0  0  0  0  0  0
    2.5866    3.0137   -5.2383 H   0  0  0  0  0  0  0  0  0  0  0  0
    3.5530    4.3127   -5.9696 H   0  0  0  0  0  0  0  0  0  0  0  0
    0.5826    4.5063   -5.1674 H   0  0  0  0  0  0  0  0  0  0  0  0
    1.2622    4.5383   -6.8188 H   0  0  0  0  0  0  0  0  0  0  0  0
    1.1161    6.5092   -3.7261 H   0  0  0  0  0  0  0  0  0  0  0  0
    1.5910    7.9939   -6.2999 H   0  0  0  0  0  0  0  0  0  0  0  0
    3.4475    6.3851   -2.8930 H   0  0  0  0  0  0  0  0  0  0  0  0
    4.0678    6.3366   -4.5586 H   0  0  0  0  0  0  0  0  0  0  0  0
    4.9652    2.5534   -3.3722 H   0  0  0  0  0  0  0  0  0  0  0  0
  2  1  1  1
  1 20  1  0
  1 21  1  0
  1 22  1  0
  2  3  1  0
  2  4  1  0
  2  5  1  0
  3 23  1  0
  3 24  1  0
  3 25  1  0
  4 26  1  0
  4 27  1  0
  4 28  1  0
  5  6  2  0
  5 19  1  0
  6  7  1  0
  7  8  1  0
  7 18  2  0
  8  9  1  0
  8 29  1  0
  8 30  1  0
  9 10  1  0
  9 17  1  0
 10 11  1  0
 10 31  1  0
 10 32  1  0
 11 12  1  0
 11 33  1  0
 11 34  1  0
 12 13  1  0
 13 14  1  0
 13 17  1  0
 13 35  1  1
 14 15  2  0
 14 16  1  0
 16 36  1  0
 17 37  1  0
 17 38  1  0
 18 19  1  0
 18 39  1  0
M  END

