
     RDKit          3D

 34 34  0  0  0  0  0  0  0  0999 V2000
    1.1777    0.1948   -0.1234 C   0  0  0  0  0  0  0  0  0  0  0  0
    2.6209    0.0101    0.0129 N   0  0  0  0  0  0  0  0  0  0  0  0
    3.1234   -0.9312    1.0103 C   0  0  0  0  0  0  0  0  0  0  0  0
    3.3851   -0.3272    2.4201 C   0  0  1  0  0  0  0  0  0  0  0  0
    2.0994    0.1780    3.0905 C   0  0  0  0  0  0  0  0  0  0  0  0
    4.0608   -1.3926    3.2854 C   0  0  0  0  0  0  0  0  0  0  0  0
    4.3244    0.7386    2.3212 O   0  0  0  0  0  0  0  0  0  0  0  0
    3.3802    0.8473   -0.7795 C   0  0  0  0  0  0  0  0  0  0  0  0
    2.8367    1.7259   -1.4438 O   0  0  0  0  0  0  0  0  0  0  0  0
    4.8578    0.7328   -0.8769 C   0  0  0  0  0  0  0  0  0  0  0  0
    5.7001    1.6320   -1.4842 C   0  0  0  0  0  0  0  0  0  0  0  0
    7.0193    1.1010   -1.3719 C   0  0  0  0  0  0  0  0  0  0  0  0
    6.8943   -0.0939   -0.7118 C   0  0  0  0  0  0  0  0  0  0  0  0
    7.8901   -1.1189   -0.2683 C   0  0  0  0  0  0  0  0  0  0  0  0
    9.1368   -0.9665   -1.0025 N   0  0  0  0  0  0  0  0  0  0  0  0
    5.5918   -0.3273   -0.4161 O   0  0  0  0  0  0  0  0  0  0  0  0
    0.6611   -0.6190    0.4018 H   0  0  0  0  0  0  0  0  0  0  0  0
    0.8935    0.1860   -1.1861 H   0  0  0  0  0  0  0  0  0  0  0  0
    0.8364    1.1596    0.2870 H   0  0  0  0  0  0  0  0  0  0  0  0
    4.0607   -1.3684    0.6549 H   0  0  0  0  0  0  0  0  0  0  0  0
    2.3934   -1.7518    1.0976 H   0  0  0  0  0  0  0  0  0  0  0  0
    1.3524   -0.6243    3.2024 H   0  0  0  0  0  0  0  0  0  0  0  0
    1.6380    0.9901    2.5073 H   0  0  0  0  0  0  0  0  0  0  0  0
    2.3347    0.5755    4.0895 H   0  0  0  0  0  0  0  0  0  0  0  0
    3.4180   -2.2786    3.4043 H   0  0  0  0  0  0  0  0  0  0  0  0
    4.2807   -0.9828    4.2825 H   0  0  0  0  0  0  0  0  0  0  0  0
    5.0123   -1.7049    2.8291 H   0  0  0  0  0  0  0  0  0  0  0  0
    3.9202    1.4571    1.8157 H   0  0  0  0  0  0  0  0  0  0  0  0
    5.3814    2.5584   -1.9546 H   0  0  0  0  0  0  0  0  0  0  0  0
    7.9543    1.5308   -1.7208 H   0  0  0  0  0  0  0  0  0  0  0  0
    7.4084   -2.1186   -0.3418 H   0  0  0  0  0  0  0  0  0  0  0  0
    8.1019   -0.9692    0.8068 H   0  0  0  0  0  0  0  0  0  0  0  0
    9.0201   -1.2592   -1.9729 H   0  0  0  0  0  0  0  0  0  0  0  0
    9.8652   -1.5528   -0.5988 H   0  0  0  0  0  0  0  0  0  0  0  0
  1  2  1  0
  1 17  1  0
  1 18  1  0
  1 19  1  0
  2  3  1  0
  2  8  1  0
  3  4  1  0
  3 20  1  0
  3 21  1  0
  4  5  1  0
  4  6  1  0
  4  7  1  6
  5 22  1  0
  5 23  1  0
  5 24  1  0
  6 25  1  0
  6 26  1  0
  6 27  1  0
  7 28  1  0
  8  9  2  0
  8 10  1  0
 10 11  2  0
 10 16  1  0
 11 12  1  0
 11 29  1  0
 12 13  2  0
 12 30  1  0
 13 14  1  0
 13 16  1  0
 14 15  1  0
 14 31  1  0
 14 32  1  0
 15 33  1  0
 15 34  1  0
M  END

