
     RDKit          3D

 43 43  0  0  0  0  0  0  0  0999 V2000
    4.8913    4.2758    5.3322 C   0  0  0  0  0  0  0  0  0  0  0  0
    4.5227    3.1770    4.3343 C   0  0  0  0  0  0  0  0  0  0  0  0
    4.8495    1.7672    4.8541 C   0  0  0  0  0  0  0  0  0  0  0  0
    4.5053    0.6517    3.9803 N   0  0  0  0  0  0  0  0  0  0  0  0
    5.2649    0.4955    2.7370 C   0  0  0  0  0  0  0  0  0  0  0  0
    6.7026    0.0470    2.9329 C   0  0  0  0  0  0  0  0  0  0  0  0
    7.7213    1.0111    2.9568 C   0  0  0  0  0  0  0  0  0  0  0  0
    9.0692    0.6607    3.0405 C   0  0  0  0  0  0  0  0  0  0  0  0
    9.4264   -0.6869    3.0729 C   0  0  0  0  0  0  0  0  0  0  0  0
    8.4283   -1.6620    3.0500 C   0  0  0  0  0  0  0  0  0  0  0  0
    8.9492   -3.4970    3.0410 Br  0  0  0  0  0  0  0  0  0  0  0  0
    7.0566   -1.3256    3.0074 C   0  0  0  0  0  0  0  0  0  0  0  0
    6.1539   -2.3305    2.9053 O   0  0  0  0  0  0  0  0  0  0  0  0
    5.0958   -2.5519    3.8794 C   0  0  1  0  0  0  0  0  0  0  0  0
    3.9532   -3.1889    3.0997 C   0  0  0  0  0  0  0  0  0  0  0  0
    5.5675   -3.4482    5.0270 C   0  0  0  0  0  0  0  0  0  0  0  0
    6.5109   -2.7932    6.0267 C   0  0  0  0  0  0  0  0  0  0  0  0
    6.7016   -3.6865    7.1003 O   0  0  0  0  0  0  0  0  0  0  0  0
    7.5978   -3.2220    8.0703 C   0  0  0  0  0  0  0  0  0  0  0  0
    4.6367    5.2757    4.9473 H   0  0  0  0  0  0  0  0  0  0  0  0
    5.9718    4.2703    5.5538 H   0  0  0  0  0  0  0  0  0  0  0  0
    4.3599    4.1431    6.2897 H   0  0  0  0  0  0  0  0  0  0  0  0
    5.0460    3.3579    3.3790 H   0  0  0  0  0  0  0  0  0  0  0  0
    3.4425    3.2304    4.1030 H   0  0  0  0  0  0  0  0  0  0  0  0
    4.3253    1.6132    5.8144 H   0  0  0  0  0  0  0  0  0  0  0  0
    5.9257    1.7003    5.0891 H   0  0  0  0  0  0  0  0  0  0  0  0
    3.5082    0.6631    3.7709 H   0  0  0  0  0  0  0  0  0  0  0  0
    5.2910    1.4217    2.1270 H   0  0  0  0  0  0  0  0  0  0  0  0
    4.7429   -0.2595    2.1297 H   0  0  0  0  0  0  0  0  0  0  0  0
    7.4443    2.0659    2.8775 H   0  0  0  0  0  0  0  0  0  0  0  0
    9.8427    1.4319    3.0562 H   0  0  0  0  0  0  0  0  0  0  0  0
   10.4739   -0.9902    3.1105 H   0  0  0  0  0  0  0  0  0  0  0  0
    4.7794   -1.5743    4.2774 H   0  0  0  0  0  0  0  0  0  0  0  0
    4.2713   -4.1500    2.6654 H   0  0  0  0  0  0  0  0  0  0  0  0
    3.6281   -2.5359    2.2756 H   0  0  0  0  0  0  0  0  0  0  0  0
    3.0912   -3.3739    3.7586 H   0  0  0  0  0  0  0  0  0  0  0  0
    6.0374   -4.3573    4.6179 H   0  0  0  0  0  0  0  0  0  0  0  0
    4.6768   -3.7746    5.5907 H   0  0  0  0  0  0  0  0  0  0  0  0
    6.0777   -1.8360    6.3909 H   0  0  0  0  0  0  0  0  0  0  0  0
    7.4822   -2.5472    5.5562 H   0  0  0  0  0  0  0  0  0  0  0  0
    7.6752   -3.9890    8.8555 H   0  0  0  0  0  0  0  0  0  0  0  0
    7.2552   -2.2750    8.5381 H   0  0  0  0  0  0  0  0  0  0  0  0
    8.6102   -3.0429    7.6528 H   0  0  0  0  0  0  0  0  0  0  0  0
  1  2  1  0
  1 20  1  0
  1 21  1  0
  1 22  1  0
  2  3  1  0
  2 23  1  0
  2 24  1  0
  3  4  1  0
  3 25  1  0
  3 26  1  0
  4  5  1  0
  4 27  1  0
  5  6  1  0
  5 28  1  0
  5 29  1  0
  6  7  2  0
  6 12  1  0
  7  8  1  0
  7 30  1  0
  8  9  2  0
  8 31  1  0
  9 10  1  0
  9 32  1  0
 10 11  1  0
 10 12  2  0
 12 13  1  0
 13 14  1  0
 14 15  1  0
 14 16  1  0
 14 33  1  1
 15 34  1  0
 15 35  1  0
 15 36  1  0
 16 17  1  0
 16 37  1  0
 16 38  1  0
 17 18  1  0
 17 39  1  0
 17 40  1  0
 18 19  1  0
 19 41  1  0
 19 42  1  0
 19 43  1  0
M  END

