
     RDKit          3D

 79 81  0  0  0  0  0  0  0  0999 V2000
    0.1632   -3.6481    0.8460 C   0  0  0  0  0  0  0  0  0  0  0  0
    1.5563   -3.7012    0.6356 O   0  0  0  0  0  0  0  0  0  0  0  0
    2.2908   -2.5679    0.7433 C   0  0  0  0  0  0  0  0  0  0  0  0
    3.6725   -2.7005    0.5121 C   0  0  0  0  0  0  0  0  0  0  0  0
    4.5139   -1.5994    0.6067 C   0  0  0  0  0  0  0  0  0  0  0  0
    3.9954   -0.3298    0.9237 C   0  0  0  0  0  0  0  0  0  0  0  0
    4.8410    0.8194    1.0530 N   0  0  0  0  0  0  0  0  0  0  0  0
    5.2717    1.2765    2.3831 C   0  0  0  0  0  0  0  0  0  0  0  0
    6.4303    0.4690    2.9728 C   0  0  0  0  0  0  0  0  0  0  0  0
    6.8507    0.9946    4.3443 C   0  0  0  0  0  0  0  0  0  0  0  0
    7.9974    0.1822    4.9474 C   0  0  0  0  0  0  0  0  0  0  0  0
    8.4428   -0.7996    4.3781 O   0  0  0  0  0  0  0  0  0  0  0  0
    8.5318    0.5892    6.1653 N   0  0  0  0  0  0  0  0  0  0  0  0
    9.6791   -0.1833    6.6427 C   0  0  0  0  0  0  0  0  0  0  0  0
    9.3487   -1.4976    7.3292 C   0  0  0  0  0  0  0  0  0  0  0  0
    8.0413   -1.9779    7.4708 C   0  0  0  0  0  0  0  0  0  0  0  0
    7.7589   -3.1915    8.1002 C   0  0  0  0  0  0  0  0  0  0  0  0
    8.8117   -3.9572    8.6050 C   0  0  0  0  0  0  0  0  0  0  0  0
    8.4830   -5.4803    9.3964 Cl  0  0  0  0  0  0  0  0  0  0  0  0
   10.1314   -3.5189    8.4817 C   0  0  0  0  0  0  0  0  0  0  0  0
   10.3796   -2.3002    7.8467 C   0  0  0  0  0  0  0  0  0  0  0  0
   12.0460   -1.7714    7.7087 Cl  0  0  0  0  0  0  0  0  0  0  0  0
    8.1394    1.8358    6.8302 C   0  0  1  0  0  0  0  0  0  0  0  0
    7.9445    1.7725    8.3732 C   0  0  0  0  0  0  0  0  0  0  0  0
    9.1470    1.6491    9.2947 C   0  0  0  0  0  0  0  0  0  0  0  0
   10.0596    2.7096    9.4547 C   0  0  0  0  0  0  0  0  0  0  0  0
   11.1399    2.5962   10.3342 C   0  0  0  0  0  0  0  0  0  0  0  0
   11.3261    1.4293   11.0818 C   0  0  0  0  0  0  0  0  0  0  0  0
   10.4147    0.3791   10.9507 C   0  0  0  0  0  0  0  0  0  0  0  0
    9.3354    0.4924   10.0689 C   0  0  0  0  0  0  0  0  0  0  0  0
    8.9667    3.0825    6.4196 C   0  0  0  0  0  0  0  0  0  0  0  0
    8.7036    4.1683    6.9180 O   0  0  0  0  0  0  0  0  0  0  0  0
    9.9234    2.8962    5.4759 N   0  0  0  0  0  0  0  0  0  0  0  0
   10.7750    3.9715    4.9644 C   0  0  1  0  0  0  0  0  0  0  0  0
   12.2290    3.7642    5.4029 C   0  0  0  0  0  0  0  0  0  0  0  0
   10.6345    4.0914    3.4440 C   0  0  0  0  0  0  0  0  0  0  0  0
    5.6172    1.4385   -0.3121 S   0  0  1  0  0  0  0  0  0  0  0  0
    4.3544    2.4408   -1.1154 C   0  0  0  0  0  0  0  0  0  0  0  0
    6.6613    2.3460    0.1751 O   0  0  0  0  0  0  0  0  0  0  0  0
    5.9317    0.3476   -1.2353 O   0  0  0  0  0  0  0  0  0  0  0  0
    2.6182   -0.2013    1.1398 C   0  0  0  0  0  0  0  0  0  0  0  0
    1.7640   -1.3063    1.0624 C   0  0  0  0  0  0  0  0  0  0  0  0
   -0.2135   -4.6701    0.7064 H   0  0  0  0  0  0  0  0  0  0  0  0
   -0.3373   -2.9808    0.1212 H   0  0  0  0  0  0  0  0  0  0  0  0
   -0.0861   -3.3122    1.8690 H   0  0  0  0  0  0  0  0  0  0  0  0
    4.0626   -3.6888    0.2610 H   0  0  0  0  0  0  0  0  0  0  0  0
    5.5819   -1.7049    0.4151 H   0  0  0  0  0  0  0  0  0  0  0  0
    4.3883    1.2259    3.0423 H   0  0  0  0  0  0  0  0  0  0  0  0
    5.5567    2.3355    2.3035 H   0  0  0  0  0  0  0  0  0  0  0  0
    7.2856    0.5207    2.2824 H   0  0  0  0  0  0  0  0  0  0  0  0
    6.1556   -0.5943    3.0509 H   0  0  0  0  0  0  0  0  0  0  0  0
    5.9940    0.9798    5.0434 H   0  0  0  0  0  0  0  0  0  0  0  0
    7.1532    2.0528    4.2641 H   0  0  0  0  0  0  0  0  0  0  0  0
   10.2665    0.4440    7.3267 H   0  0  0  0  0  0  0  0  0  0  0  0
   10.3257   -0.4186    5.7819 H   0  0  0  0  0  0  0  0  0  0  0  0
    7.2173   -1.3827    7.0749 H   0  0  0  0  0  0  0  0  0  0  0  0
    6.7317   -3.5461    8.1957 H   0  0  0  0  0  0  0  0  0  0  0  0
   10.9566   -4.1138    8.8722 H   0  0  0  0  0  0  0  0  0  0  0  0
    7.1358    2.0806    6.4600 H   0  0  0  0  0  0  0  0  0  0  0  0
    7.2420    0.9508    8.5801 H   0  0  0  0  0  0  0  0  0  0  0  0
    7.4217    2.7096    8.6181 H   0  0  0  0  0  0  0  0  0  0  0  0
    9.9058    3.6364    8.8992 H   0  0  0  0  0  0  0  0  0  0  0  0
   11.8346    3.4332   10.4448 H   0  0  0  0  0  0  0  0  0  0  0  0
   12.1708    1.3438   11.7703 H   0  0  0  0  0  0  0  0  0  0  0  0
   10.5395   -0.5341   11.5382 H   0  0  0  0  0  0  0  0  0  0  0  0
    8.6262   -0.3343    9.9818 H   0  0  0  0  0  0  0  0  0  0  0  0
   10.0758    1.9591    5.1207 H   0  0  0  0  0  0  0  0  0  0  0  0
   10.3859    4.8853    5.4376 H   0  0  0  0  0  0  0  0  0  0  0  0
   12.6448    2.8348    4.9771 H   0  0  0  0  0  0  0  0  0  0  0  0
   12.3041    3.7016    6.4991 H   0  0  0  0  0  0  0  0  0  0  0  0
   12.8605    4.5993    5.0608 H   0  0  0  0  0  0  0  0  0  0  0  0
   10.9729    3.1714    2.9370 H   0  0  0  0  0  0  0  0  0  0  0  0
   11.2466    4.9239    3.0631 H   0  0  0  0  0  0  0  0  0  0  0  0
    9.5888    4.2749    3.1541 H   0  0  0  0  0  0  0  0  0  0  0  0
    4.0665    3.2575   -0.4414 H   0  0  0  0  0  0  0  0  0  0  0  0
    3.4983    1.7990   -1.3607 H   0  0  0  0  0  0  0  0  0  0  0  0
    4.8108    2.8361   -2.0332 H   0  0  0  0  0  0  0  0  0  0  0  0
    2.2066    0.7823    1.3807 H   0  0  0  0  0  0  0  0  0  0  0  0
    0.6980   -1.1696    1.2440 H   0  0  0  0  0  0  0  0  0  0  0  0
  1  2  1  0
  1 43  1  0
  1 44  1  0
  1 45  1  0
  2  3  1  0
  3  4  2  0
  3 42  1  0
  4  5  1  0
  4 46  1  0
  5  6  2  0
  5 47  1  0
  6  7  1  0
  6 41  1  0
  7  8  1  0
 37  7  1  1
  8  9  1  0
  8 48  1  0
  8 49  1  0
  9 10  1  0
  9 50  1  0
  9 51  1  0
 10 11  1  0
 10 52  1  0
 10 53  1  0
 11 12  2  0
 11 13  1  0
 13 14  1  0
 13 23  1  0
 14 15  1  0
 14 54  1  0
 14 55  1  0
 15 16  2  0
 15 21  1  0
 16 17  1  0
 16 56  1  0
 17 18  2  0
 17 57  1  0
 18 19  1  0
 18 20  1  0
 20 21  2  0
 20 58  1  0
 21 22  1  0
 23 24  1  0
 23 31  1  0
 23 59  1  6
 24 25  1  0
 24 60  1  0
 24 61  1  0
 25 26  2  0
 25 30  1  0
 26 27  1  0
 26 62  1  0
 27 28  2  0
 27 63  1  0
 28 29  1  0
 28 64  1  0
 29 30  2  0
 29 65  1  0
 30 66  1  0
 31 32  2  0
 31 33  1  0
 33 34  1  0
 33 67  1  0
 34 35  1  0
 34 36  1  0
 34 68  1  1
 35 69  1  0
 35 70  1  0
 35 71  1  0
 36 72  1  0
 36 73  1  0
 36 74  1  0
 37 38  1  0
 37 39  2  0
 37 40  2  0
 38 75  1  0
 38 76  1  0
 38 77  1  0
 41 42  2  0
 41 78  1  0
 42 79  1  0
M  END

