
     RDKit          3D

 81 86  0  0  0  0  0  0  0  0999 V2000
    8.5989    5.7405   -1.5078 C   0  0  0  0  0  0  0  0  0  0  0  0
    7.2807    5.6430   -1.3223 C   0  0  0  0  0  0  0  0  0  0  0  0
    6.5622    5.1231   -0.1135 C   0  0  0  0  0  0  0  0  0  0  0  0
    7.4349    4.9083    0.9932 O   0  0  0  0  0  0  0  0  0  0  0  0
    6.9408    4.0891    2.0001 C   0  0  0  0  0  0  0  0  0  0  0  0
    6.0721    4.6344    2.9714 C   0  0  0  0  0  0  0  0  0  0  0  0
    5.6953    6.0936    2.9634 C   0  0  0  0  0  0  0  0  0  0  0  0
    5.6174    3.7545    3.9505 C   0  0  0  0  0  0  0  0  0  0  0  0
    6.0128    2.4171    3.9827 C   0  0  0  0  0  0  0  0  0  0  0  0
    6.8937    1.8703    3.0513 C   0  0  0  0  0  0  0  0  0  0  0  0
    7.3677    2.7533    2.0573 C   0  0  0  0  0  0  0  0  0  0  0  0
    8.3682    2.1651    1.1002 C   0  0  0  0  0  0  0  0  0  0  0  0
    9.4535    1.2997    1.7978 C   0  0  1  0  0  0  0  0  0  0  0  0
   10.8207    2.0100    2.0307 C   0  0  1  0  0  0  0  0  0  0  0  0
   11.1474    2.4396    1.0726 H   0  0  0  0  0  0  0  0  0  0  0  0
   10.7405    3.1082    3.0776 C   0  0  0  0  0  0  0  0  0  0  0  0
   10.9756    2.8007    4.4269 C   0  0  0  0  0  0  0  0  0  0  0  0
   10.8015    3.7869    5.4059 C   0  0  0  0  0  0  0  0  0  0  0  0
   10.4021    5.0904    5.0839 C   0  0  0  0  0  0  0  0  0  0  0  0
   10.1787    6.1431    6.1400 C   0  0  0  0  0  0  0  0  0  0  0  0
   10.2001    5.3966    3.7299 C   0  0  0  0  0  0  0  0  0  0  0  0
    9.7570    6.6499    3.3570 O   0  0  0  0  0  0  0  0  0  0  0  0
   10.7531    7.5150    2.8254 C   0  0  0  0  0  0  0  0  0  0  0  0
   10.3723    4.4171    2.7365 C   0  0  0  0  0  0  0  0  0  0  0  0
   10.1728    4.7426    1.4232 O   0  0  0  0  0  0  0  0  0  0  0  0
   11.4558    1.4188    4.8166 C   0  0  0  0  0  0  0  0  0  0  0  0
   11.3717    0.3811    3.6823 C   0  0  1  0  0  0  0  0  0  0  0  0
   12.0583   -0.4476    3.9155 H   0  0  0  0  0  0  0  0  0  0  0  0
    9.9370   -0.2813    3.5398 C   0  0  1  0  0  0  0  0  0  0  0  0
    9.6425   -0.8957    4.8418 C   0  0  0  0  0  0  0  0  0  0  0  0
    9.5326   -1.3983    5.8806 N   0  0  0  0  0  0  0  0  0  0  0  0
    8.9778    0.7191    3.0708 N   0  0  0  0  0  0  0  0  0  0  0  0
    7.5103    0.4744    3.0202 C   0  0  1  0  0  0  0  0  0  0  0  0
    7.2576    0.0165    2.0410 H   0  0  0  0  0  0  0  0  0  0  0  0
    6.9315   -0.5214    4.0419 C   0  0  0  0  0  0  0  0  0  0  0  0
    5.5211   -0.7636    3.7999 N   0  0  0  0  0  0  0  0  0  0  0  0
    5.1033   -1.6392    2.8586 C   0  0  0  0  0  0  0  0  0  0  0  0
    5.8119   -2.3199    2.1489 O   0  0  0  0  0  0  0  0  0  0  0  0
    3.7296   -1.6693    2.8305 O   0  0  0  0  0  0  0  0  0  0  0  0
    3.1222   -2.4501    1.8311 C   0  0  0  0  0  0  0  0  0  0  0  0
    2.3603   -1.5697    0.8300 C   0  0  1  0  0  0  0  0  0  0  0  0
    1.0917   -0.6142    1.6642 Cl  0  0  0  0  0  0  0  0  0  0  0  0
    3.4865   -0.4526   -0.0096 Cl  0  0  0  0  0  0  0  0  0  0  0  0
    1.5918   -2.6659   -0.3698 Cl  0  0  0  0  0  0  0  0  0  0  0  0
   11.8086    1.0133    2.4543 N   0  0  0  0  0  0  0  0  0  0  0  0
   12.3595    0.1577    1.4244 C   0  0  0  0  0  0  0  0  0  0  0  0
    5.4285    1.7411    5.0229 O   0  0  0  0  0  0  0  0  0  0  0  0
    4.8387    2.7642    5.8895 O   0  0  0  0  0  0  0  0  0  0  0  0
    4.6494    3.9342    5.0877 C   0  0  0  0  0  0  0  0  0  0  0  0
    8.9971    6.1326   -2.4475 H   0  0  0  0  0  0  0  0  0  0  0  0
    9.3260    5.4358   -0.7530 H   0  0  0  0  0  0  0  0  0  0  0  0
    6.5998    5.9547   -2.1245 H   0  0  0  0  0  0  0  0  0  0  0  0
    6.0535    4.1731   -0.3703 H   0  0  0  0  0  0  0  0  0  0  0  0
    5.7624    5.8357    0.1664 H   0  0  0  0  0  0  0  0  0  0  0  0
    4.8163    6.2931    2.3259 H   0  0  0  0  0  0  0  0  0  0  0  0
    6.5299    6.7024    2.5871 H   0  0  0  0  0  0  0  0  0  0  0  0
    5.4458    6.4445    3.9757 H   0  0  0  0  0  0  0  0  0  0  0  0
    8.8497    2.9481    0.5056 H   0  0  0  0  0  0  0  0  0  0  0  0
    7.8247    1.5165    0.3921 H   0  0  0  0  0  0  0  0  0  0  0  0
    9.6708    0.4719    1.0871 H   0  0  0  0  0  0  0  0  0  0  0  0
   10.9720    3.5305    6.4559 H   0  0  0  0  0  0  0  0  0  0  0  0
   10.3082    5.7246    7.1486 H   0  0  0  0  0  0  0  0  0  0  0  0
    9.1662    6.5712    6.0676 H   0  0  0  0  0  0  0  0  0  0  0  0
   10.8822    6.9857    6.0322 H   0  0  0  0  0  0  0  0  0  0  0  0
   10.2596    8.4689    2.5895 H   0  0  0  0  0  0  0  0  0  0  0  0
   11.1994    7.1004    1.9058 H   0  0  0  0  0  0  0  0  0  0  0  0
   11.5581    7.7000    3.5588 H   0  0  0  0  0  0  0  0  0  0  0  0
    9.3441    5.2523    1.3472 H   0  0  0  0  0  0  0  0  0  0  0  0
   10.9236    1.0662    5.7132 H   0  0  0  0  0  0  0  0  0  0  0  0
   12.5197    1.4918    5.1013 H   0  0  0  0  0  0  0  0  0  0  0  0
   10.0353   -1.1274    2.8197 H   0  0  0  0  0  0  0  0  0  0  0  0
    7.4486   -1.4829    3.9407 H   0  0  0  0  0  0  0  0  0  0  0  0
    7.0521   -0.1737    5.0741 H   0  0  0  0  0  0  0  0  0  0  0  0
    4.8338   -0.2038    4.2932 H   0  0  0  0  0  0  0  0  0  0  0  0
    2.3918   -3.1262    2.3007 H   0  0  0  0  0  0  0  0  0  0  0  0
    3.8781   -3.0326    1.2849 H   0  0  0  0  0  0  0  0  0  0  0  0
   13.1792   -0.4443    1.8493 H   0  0  0  0  0  0  0  0  0  0  0  0
   12.7874    0.7808    0.6224 H   0  0  0  0  0  0  0  0  0  0  0  0
   11.6454   -0.5481    0.9471 H   0  0  0  0  0  0  0  0  0  0  0  0
    4.8682    4.7961    5.7404 H   0  0  0  0  0  0  0  0  0  0  0  0
    3.5990    4.0063    4.7367 H   0  0  0  0  0  0  0  0  0  0  0  0
  1  2  2  0
  1 50  1  0
  1 51  1  0
  2  3  1  0
  2 52  1  0
  3  4  1  0
  3 53  1  0
  3 54  1  0
  4  5  1  0
  5  6  2  0
  5 11  1  0
  6  7  1  0
  6  8  1  0
  7 55  1  0
  7 56  1  0
  7 57  1  0
  8  9  2  0
  8 49  1  0
  9 10  1  0
  9 47  1  0
 10 11  2  0
 10 33  1  0
 11 12  1  0
 12 13  1  0
 12 58  1  0
 12 59  1  0
 13 14  1  0
 13 32  1  0
 13 60  1  6
 14 15  1  6
 14 16  1  0
 14 45  1  0
 16 17  2  0
 16 24  1  0
 17 18  1  0
 17 26  1  0
 18 19  2  0
 18 61  1  0
 19 20  1  0
 19 21  1  0
 20 62  1  0
 20 63  1  0
 20 64  1  0
 21 22  1  0
 21 24  2  0
 22 23  1  0
 23 65  1  0
 23 66  1  0
 23 67  1  0
 24 25  1  0
 25 68  1  0
 26 27  1  0
 26 69  1  0
 26 70  1  0
 27 28  1  1
 27 29  1  0
 27 45  1  0
 29 30  1  0
 29 32  1  0
 29 71  1  6
 30 31  3  0
 32 33  1  0
 33 34  1  6
 33 35  1  0
 35 36  1  0
 35 72  1  0
 35 73  1  0
 36 37  1  0
 36 74  1  0
 37 38  2  0
 37 39  1  0
 39 40  1  0
 40 41  1  0
 40 75  1  0
 40 76  1  0
 41 42  1  1
 41 43  1  0
 41 44  1  0
 45 46  1  0
 46 77  1  0
 46 78  1  0
 46 79  1  0
 47 48  1  0
 48 49  1  0
 49 80  1  0
 49 81  1  0
M  END

