
     RDKit          3D

 38 38  0  0  0  0  0  0  0  0999 V2000
    1.5076    1.0953    0.0437 C   0  0  0  0  0  0  0  0  0  0  0  0
    2.7905    0.4669    0.0992 O   0  0  0  0  0  0  0  0  0  0  0  0
    3.1004   -0.4996    0.9563 C   0  0  0  0  0  0  0  0  0  0  0  0
    2.4590   -0.7325    2.2001 C   0  0  0  0  0  0  0  0  0  0  0  0
    1.4277    0.0482    2.5527 F   0  0  0  0  0  0  0  0  0  0  0  0
    2.8703   -1.7185    3.0797 C   0  0  0  0  0  0  0  0  0  0  0  0
    3.9762   -2.5089    2.7419 C   0  0  0  0  0  0  0  0  0  0  0  0
    4.5610   -3.7465    3.8913 S   0  0  1  0  0  0  0  0  0  0  0  0
    5.7339   -4.3852    3.2995 O   0  0  0  0  0  0  0  0  0  0  0  0
    4.6497   -3.1343    5.2344 O   0  0  0  0  0  0  0  0  0  0  0  0
    3.2512   -4.7856    4.0009 N   0  0  0  0  0  0  0  0  0  0  0  0
    2.9278   -5.4313    5.2984 C   0  0  1  0  0  0  0  0  0  0  0  0
    1.7704   -4.6057    5.9116 C   0  0  0  0  0  0  0  0  0  0  0  0
    0.6460   -5.0115    6.0354 O   0  0  0  0  0  0  0  0  0  0  0  0
    2.1092   -3.3552    6.2624 O   0  0  0  0  0  0  0  0  0  0  0  0
    2.5984   -6.9269    5.1283 C   0  0  1  0  0  0  0  0  0  0  0  0
    3.7205   -7.6789    4.3975 C   0  0  0  0  0  0  0  0  0  0  0  0
    2.3307   -7.5751    6.4947 C   0  0  0  0  0  0  0  0  0  0  0  0
    4.6617   -2.3126    1.5486 C   0  0  0  0  0  0  0  0  0  0  0  0
    4.2021   -1.3381    0.6647 C   0  0  0  0  0  0  0  0  0  0  0  0
    4.9135   -1.2163   -0.6257 N   0  0  0  0  0  0  0  0  0  0  0  0
    4.2484   -1.0053   -1.6215 O   0  0  0  0  0  0  0  0  0  0  0  0
    6.1221   -1.3803   -0.5967 O   0  0  0  0  0  0  0  0  0  0  0  0
    1.4907    1.6292   -0.9146 H   0  0  0  0  0  0  0  0  0  0  0  0
    1.3732    1.8067    0.8703 H   0  0  0  0  0  0  0  0  0  0  0  0
    0.6995    0.3488    0.0619 H   0  0  0  0  0  0  0  0  0  0  0  0
    2.3299   -1.8453    4.0203 H   0  0  0  0  0  0  0  0  0  0  0  0
    3.1731   -5.3859    3.1823 H   0  0  0  0  0  0  0  0  0  0  0  0
    3.8012   -5.3439    5.9676 H   0  0  0  0  0  0  0  0  0  0  0  0
    3.0627   -3.1840    6.0909 H   0  0  0  0  0  0  0  0  0  0  0  0
    1.6681   -6.9881    4.5363 H   0  0  0  0  0  0  0  0  0  0  0  0
    4.6689   -7.6178    4.9572 H   0  0  0  0  0  0  0  0  0  0  0  0
    3.9189   -7.3014    3.3821 H   0  0  0  0  0  0  0  0  0  0  0  0
    3.4592   -8.7434    4.2984 H   0  0  0  0  0  0  0  0  0  0  0  0
    3.2241   -7.5159    7.1400 H   0  0  0  0  0  0  0  0  0  0  0  0
    2.0873   -8.6411    6.3659 H   0  0  0  0  0  0  0  0  0  0  0  0
    1.4890   -7.0968    7.0116 H   0  0  0  0  0  0  0  0  0  0  0  0
    5.5387   -2.9080    1.2952 H   0  0  0  0  0  0  0  0  0  0  0  0
  1  2  1  0
  1 24  1  0
  1 25  1  0
  1 26  1  0
  2  3  1  0
  3  4  2  0
  3 20  1  0
  4  5  1  0
  4  6  1  0
  6  7  2  0
  6 27  1  0
  7  8  1  0
  7 19  1  0
  8  9  2  0
  8 10  2  0
  8 11  1  1
 11 12  1  0
 11 28  1  0
 12 13  1  0
 12 16  1  0
 12 29  1  1
 13 14  2  0
 13 15  1  0
 15 30  1  0
 16 17  1  0
 16 18  1  0
 16 31  1  6
 17 32  1  0
 17 33  1  0
 17 34  1  0
 18 35  1  0
 18 36  1  0
 18 37  1  0
 19 20  2  0
 19 38  1  0
 20 21  1  0
 21 22  2  0
 21 23  1  0
M  CHG  2  21   1  23  -1
M  END

