
     RDKit          3D

 36 37  0  0  0  0  0  0  0  0999 V2000
    0.9515    0.1226    0.1840 C   0  0  0  0  0  0  0  0  0  0  0  0
    2.4710   -0.0773    0.0706 C   0  0  1  0  0  0  0  0  0  0  0  0
    2.9977    0.3523   -1.3073 C   0  0  0  0  0  0  0  0  0  0  0  0
    4.4741    0.0009   -1.5623 C   0  0  0  0  0  0  0  0  0  0  0  0
    4.9687    0.4604   -2.9165 C   0  0  0  0  0  0  0  0  0  0  0  0
    5.5496    1.7286   -3.0797 C   0  0  0  0  0  0  0  0  0  0  0  0
    5.9732    2.1712   -4.3360 C   0  0  0  0  0  0  0  0  0  0  0  0
    5.8235    1.3496   -5.4570 C   0  0  0  0  0  0  0  0  0  0  0  0
    5.2494    0.0832   -5.3102 C   0  0  0  0  0  0  0  0  0  0  0  0
    4.8270   -0.3542   -4.0518 C   0  0  0  0  0  0  0  0  0  0  0  0
    3.2067    0.6292    1.1113 N   0  0  0  0  0  0  0  0  0  0  0  0
    3.2745    0.2459    2.4320 C   0  0  0  0  0  0  0  0  0  0  0  0
    2.9110   -1.0259    2.9154 C   0  0  0  0  0  0  0  0  0  0  0  0
    3.0668   -1.3246    4.2689 C   0  0  0  0  0  0  0  0  0  0  0  0
    2.7110   -2.5512    4.6872 F   0  0  0  0  0  0  0  0  0  0  0  0
    3.5643   -0.4128    5.1925 C   0  0  0  0  0  0  0  0  0  0  0  0
    3.9202    0.8599    4.7232 C   0  0  0  0  0  0  0  0  0  0  0  0
    3.7738    1.1671    3.3834 C   0  0  0  0  0  0  0  0  0  0  0  0
    4.1119    2.3976    2.9274 F   0  0  0  0  0  0  0  0  0  0  0  0
    0.4154   -0.4785   -0.5679 H   0  0  0  0  0  0  0  0  0  0  0  0
    0.6871    1.1813    0.0249 H   0  0  0  0  0  0  0  0  0  0  0  0
    0.5858   -0.1715    1.1796 H   0  0  0  0  0  0  0  0  0  0  0  0
    2.6920   -1.1526    0.1882 H   0  0  0  0  0  0  0  0  0  0  0  0
    2.8513    1.4426   -1.4236 H   0  0  0  0  0  0  0  0  0  0  0  0
    2.3697   -0.1154   -2.0835 H   0  0  0  0  0  0  0  0  0  0  0  0
    4.5998   -1.0918   -1.4738 H   0  0  0  0  0  0  0  0  0  0  0  0
    5.0896    0.4490   -0.7665 H   0  0  0  0  0  0  0  0  0  0  0  0
    5.6785    2.3763   -2.2071 H   0  0  0  0  0  0  0  0  0  0  0  0
    6.4270    3.1606   -4.4386 H   0  0  0  0  0  0  0  0  0  0  0  0
    6.1573    1.6923   -6.4397 H   0  0  0  0  0  0  0  0  0  0  0  0
    5.1337   -0.5698   -6.1794 H   0  0  0  0  0  0  0  0  0  0  0  0
    4.3851   -1.3499   -3.9466 H   0  0  0  0  0  0  0  0  0  0  0  0
    3.3472    1.6221    0.9582 H   0  0  0  0  0  0  0  0  0  0  0  0
    2.5105   -1.7959    2.2571 H   0  0  0  0  0  0  0  0  0  0  0  0
    3.6644   -0.6914    6.2418 H   0  0  0  0  0  0  0  0  0  0  0  0
    4.3132    1.6245    5.3963 H   0  0  0  0  0  0  0  0  0  0  0  0
  1  2  1  0
  1 20  1  0
  1 21  1  0
  1 22  1  0
  2  3  1  0
  2 11  1  0
  2 23  1  1
  3  4  1  0
  3 24  1  0
  3 25  1  0
  4  5  1  0
  4 26  1  0
  4 27  1  0
  5  6  2  0
  5 10  1  0
  6  7  1  0
  6 28  1  0
  7  8  2  0
  7 29  1  0
  8  9  1  0
  8 30  1  0
  9 10  2  0
  9 31  1  0
 10 32  1  0
 11 12  1  0
 11 33  1  0
 12 13  2  0
 12 18  1  0
 13 14  1  0
 13 34  1  0
 14 15  1  0
 14 16  2  0
 16 17  1  0
 16 35  1  0
 17 18  2  0
 17 36  1  0
 18 19  1  0
M  END

