
     RDKit          3D

108117  0  0  0  0  0  0  0  0999 V2000
    1.2686    0.3131   -0.7988 C   0  0  0  0  0  0  0  0  0  0  0  0
    2.7129    0.1089   -0.3376 C   0  0  0  0  0  0  0  0  0  0  0  0
    3.0533    0.6536    1.0845 C   0  0  2  0  0  0  0  0  0  0  0  0
    4.5383    0.3394    1.4488 C   0  0  0  0  0  0  0  0  0  0  0  0
    4.9924    0.7946    2.8369 C   0  0  0  0  0  0  0  0  0  0  0  0
    2.1515   -0.0252    2.1016 C   0  0  0  0  0  0  0  0  0  0  0  0
    2.0860   -1.3871    2.3632 C   0  0  0  0  0  0  0  0  0  0  0  0
    1.2152   -1.8753    3.3625 C   0  0  0  0  0  0  0  0  0  0  0  0
    1.1326   -3.2691    3.6441 C   0  0  0  0  0  0  0  0  0  0  0  0
    1.0645   -4.4659    3.8822 C   0  0  0  0  0  0  0  0  0  0  0  0
    0.9757   -5.8439    4.1674 C   0  0  0  0  0  0  0  0  0  0  0  0
    1.6570   -6.9001    3.5798 C   0  0  0  0  0  0  0  0  0  0  0  0
    1.3090   -8.1640    4.1282 C   0  0  0  0  0  0  0  0  0  0  0  0
    0.3687   -8.0710    5.1271 C   0  0  0  0  0  0  0  0  0  0  0  0
   -0.1080   -6.4373    5.4151 S   0  0  0  0  0  0  0  0  0  0  0  0
    0.4342   -0.9432    4.0802 C   0  0  0  0  0  0  0  0  0  0  0  0
    0.5049    0.4210    3.8075 C   0  0  0  0  0  0  0  0  0  0  0  0
    1.3594    0.9077    2.8005 C   0  0  0  0  0  0  0  0  0  0  0  0
    1.6671    2.2633    2.2746 C   0  0  0  0  0  0  0  0  0  0  0  0
    2.6775    2.1323    1.2746 C   0  0  0  0  0  0  0  0  0  0  0  0
    3.1760    3.2790    0.6270 C   0  0  0  0  0  0  0  0  0  0  0  0
    2.6707    4.5714    0.9700 C   0  0  0  0  0  0  0  0  0  0  0  0
    1.6579    4.6966    1.9405 C   0  0  0  0  0  0  0  0  0  0  0  0
    1.1469    3.5323    2.5864 C   0  0  0  0  0  0  0  0  0  0  0  0
    0.0503    3.9034    3.5950 C   0  0  1  0  0  0  0  0  0  0  0  0
   -1.3341    3.2627    3.2796 C   0  0  0  0  0  0  0  0  0  0  0  0
   -1.8262    3.4558    1.8431 C   0  0  0  0  0  0  0  0  0  0  0  0
    0.5822    3.5991    5.0417 C   0  0  0  0  0  0  0  0  0  0  0  0
   -0.4163    3.6707    6.1990 C   0  0  0  0  0  0  0  0  0  0  0  0
   -0.0398    5.4097    3.4044 C   0  0  0  0  0  0  0  0  0  0  0  0
   -0.9299    6.2790    4.0237 C   0  0  0  0  0  0  0  0  0  0  0  0
   -0.8654    7.6670    3.7675 C   0  0  0  0  0  0  0  0  0  0  0  0
   -1.7695    8.5686    4.3990 C   0  0  0  0  0  0  0  0  0  0  0  0
   -2.5473    9.3386    4.9428 C   0  0  0  0  0  0  0  0  0  0  0  0
   -3.4382   10.2391    5.5623 C   0  0  0  0  0  0  0  0  0  0  0  0
   -4.4598    9.9724    6.4624 C   0  0  0  0  0  0  0  0  0  0  0  0
   -5.1566   11.1388    6.8789 C   0  0  0  0  0  0  0  0  0  0  0  0
   -4.6688   12.2865    6.2996 C   0  0  0  0  0  0  0  0  0  0  0  0
   -3.3496   11.9620    5.2349 S   0  0  0  0  0  0  0  0  0  0  0  0
    0.1167    8.1349    2.8693 C   0  0  0  0  0  0  0  0  0  0  0  0
    0.9878    7.2542    2.2327 C   0  0  0  0  0  0  0  0  0  0  0  0
    0.9200    5.8710    2.4764 C   0  0  0  0  0  0  0  0  0  0  0  0
    3.3761    5.6601    0.1463 C   0  0  1  0  0  0  0  0  0  0  0  0
    2.4151    6.4388   -0.8062 C   0  0  0  0  0  0  0  0  0  0  0  0
    1.5632    5.5773   -1.7401 C   0  0  0  0  0  0  0  0  0  0  0  0
    4.2027    6.6542    1.0203 C   0  0  0  0  0  0  0  0  0  0  0  0
    5.2233    6.0175    1.9654 C   0  0  0  0  0  0  0  0  0  0  0  0
    4.3312    4.8351   -0.6980 C   0  0  0  0  0  0  0  0  0  0  0  0
    5.2273    5.3246   -1.6389 C   0  0  0  0  0  0  0  0  0  0  0  0
    6.0527    4.4350   -2.3613 C   0  0  0  0  0  0  0  0  0  0  0  0
    6.9790    4.9177   -3.3296 C   0  0  0  0  0  0  0  0  0  0  0  0
    7.7731    5.3355   -4.1594 C   0  0  0  0  0  0  0  0  0  0  0  0
    8.6939    5.8031   -5.1195 C   0  0  0  0  0  0  0  0  0  0  0  0
    8.9539    7.1078   -5.5132 C   0  0  0  0  0  0  0  0  0  0  0  0
    9.9572    7.1999   -6.5153 C   0  0  0  0  0  0  0  0  0  0  0  0
   10.4581    5.9731   -6.8824 C   0  0  0  0  0  0  0  0  0  0  0  0
    9.7125    4.6839   -6.0100 S   0  0  0  0  0  0  0  0  0  0  0  0
    5.9327    3.0530   -2.0980 C   0  0  0  0  0  0  0  0  0  0  0  0
    5.0311    2.5736   -1.1509 C   0  0  0  0  0  0  0  0  0  0  0  0
    4.2109    3.4574   -0.4261 C   0  0  0  0  0  0  0  0  0  0  0  0
    1.1235   -0.1201   -1.8011 H   0  0  0  0  0  0  0  0  0  0  0  0
    1.0102    1.3819   -0.8600 H   0  0  0  0  0  0  0  0  0  0  0  0
    0.5475   -0.1694   -0.1210 H   0  0  0  0  0  0  0  0  0  0  0  0
    3.3839    0.5614   -1.0793 H   0  0  0  0  0  0  0  0  0  0  0  0
    2.9502   -0.9691   -0.3404 H   0  0  0  0  0  0  0  0  0  0  0  0
    5.2068    0.7832    0.6999 H   0  0  0  0  0  0  0  0  0  0  0  0
    4.6733   -0.7522    1.3577 H   0  0  0  0  0  0  0  0  0  0  0  0
    4.9224    1.8880    2.9477 H   0  0  0  0  0  0  0  0  0  0  0  0
    6.0436    0.5115    3.0055 H   0  0  0  0  0  0  0  0  0  0  0  0
    4.3926    0.3359    3.6381 H   0  0  0  0  0  0  0  0  0  0  0  0
    2.7050   -2.0951    1.8081 H   0  0  0  0  0  0  0  0  0  0  0  0
    2.3823   -6.7523    2.7792 H   0  0  0  0  0  0  0  0  0  0  0  0
    1.7387   -9.1103    3.7962 H   0  0  0  0  0  0  0  0  0  0  0  0
   -0.0711   -8.8785    5.7113 H   0  0  0  0  0  0  0  0  0  0  0  0
   -0.2350   -1.3026    4.8642 H   0  0  0  0  0  0  0  0  0  0  0  0
   -0.1121    1.0847    4.4041 H   0  0  0  0  0  0  0  0  0  0  0  0
   -2.0713    3.6986    3.9734 H   0  0  0  0  0  0  0  0  0  0  0  0
   -1.3196    2.1882    3.5025 H   0  0  0  0  0  0  0  0  0  0  0  0
   -1.8982    4.5211    1.5735 H   0  0  0  0  0  0  0  0  0  0  0  0
   -2.8277    3.0137    1.7201 H   0  0  0  0  0  0  0  0  0  0  0  0
   -1.1578    2.9692    1.1159 H   0  0  0  0  0  0  0  0  0  0  0  0
    1.4081    4.3043    5.2313 H   0  0  0  0  0  0  0  0  0  0  0  0
    1.0499    2.6052    5.0462 H   0  0  0  0  0  0  0  0  0  0  0  0
   -0.8647    4.6690    6.3108 H   0  0  0  0  0  0  0  0  0  0  0  0
    0.0980    3.4415    7.1461 H   0  0  0  0  0  0  0  0  0  0  0  0
   -1.2362    2.9430    6.0916 H   0  0  0  0  0  0  0  0  0  0  0  0
   -1.6954    5.9082    4.7059 H   0  0  0  0  0  0  0  0  0  0  0  0
   -4.6878    8.9619    6.8025 H   0  0  0  0  0  0  0  0  0  0  0  0
   -5.9902   11.1307    7.5827 H   0  0  0  0  0  0  0  0  0  0  0  0
   -5.0156   13.3092    6.4423 H   0  0  0  0  0  0  0  0  0  0  0  0
    0.1852    9.2050    2.6646 H   0  0  0  0  0  0  0  0  0  0  0  0
    1.7118    7.6764    1.5444 H   0  0  0  0  0  0  0  0  0  0  0  0
    3.0365    7.1262   -1.4059 H   0  0  0  0  0  0  0  0  0  0  0  0
    1.7474    7.0815   -0.2183 H   0  0  0  0  0  0  0  0  0  0  0  0
    2.1810    4.9469   -2.3982 H   0  0  0  0  0  0  0  0  0  0  0  0
    0.9384    6.2168   -2.3837 H   0  0  0  0  0  0  0  0  0  0  0  0
    0.8875    4.9153   -1.1763 H   0  0  0  0  0  0  0  0  0  0  0  0
    3.5233    7.2819    1.6118 H   0  0  0  0  0  0  0  0  0  0  0  0
    4.7206    7.3439    0.3315 H   0  0  0  0  0  0  0  0  0  0  0  0
    4.7374    5.3586    2.7021 H   0  0  0  0  0  0  0  0  0  0  0  0
    5.7634    6.7978    2.5248 H   0  0  0  0  0  0  0  0  0  0  0  0
    5.9718    5.4204    1.4220 H   0  0  0  0  0  0  0  0  0  0  0  0
    5.3058    6.3963   -1.8334 H   0  0  0  0  0  0  0  0  0  0  0  0
    8.4294    7.9617   -5.0836 H   0  0  0  0  0  0  0  0  0  0  0  0
   10.2978    8.1406   -6.9506 H   0  0  0  0  0  0  0  0  0  0  0  0
   11.2284    5.7573   -7.6219 H   0  0  0  0  0  0  0  0  0  0  0  0
    6.5604    2.3503   -2.6494 H   0  0  0  0  0  0  0  0  0  0  0  0
    4.9885    1.5005   -0.9995 H   0  0  0  0  0  0  0  0  0  0  0  0
  1  2  1  0
  1 61  1  0
  1 62  1  0
  1 63  1  0
  3  2  1  6
  2 64  1  0
  2 65  1  0
  3  4  1  0
  3  6  1  0
  3 20  1  0
  4  5  1  0
  4 66  1  0
  4 67  1  0
  5 68  1  0
  5 69  1  0
  5 70  1  0
  6  7  2  0
  6 18  1  0
  7  8  1  0
  7 71  1  0
  8  9  1  0
  8 16  2  0
  9 10  3  0
 10 11  1  0
 11 12  2  0
 11 15  1  0
 12 13  1  0
 12 72  1  0
 13 14  2  0
 13 73  1  0
 14 15  1  0
 14 74  1  0
 16 17  1  0
 16 75  1  0
 17 18  2  0
 17 76  1  0
 18 19  1  0
 19 20  2  0
 19 24  1  0
 20 21  1  0
 21 22  2  0
 21 60  1  0
 22 23  1  0
 22 43  1  0
 23 24  2  0
 23 42  1  0
 24 25  1  0
 25 26  1  6
 25 28  1  0
 25 30  1  0
 26 27  1  0
 26 77  1  0
 26 78  1  0
 27 79  1  0
 27 80  1  0
 27 81  1  0
 28 29  1  0
 28 82  1  0
 28 83  1  0
 29 84  1  0
 29 85  1  0
 29 86  1  0
 30 31  1  0
 30 42  2  0
 31 32  2  0
 31 87  1  0
 32 33  1  0
 32 40  1  0
 33 34  3  0
 34 35  1  0
 35 36  2  0
 35 39  1  0
 36 37  1  0
 36 88  1  0
 37 38  2  0
 37 89  1  0
 38 39  1  0
 38 90  1  0
 40 41  2  0
 40 91  1  0
 41 42  1  0
 41 92  1  0
 43 44  1  6
 43 46  1  0
 43 48  1  0
 44 45  1  0
 44 93  1  0
 44 94  1  0
 45 95  1  0
 45 96  1  0
 45 97  1  0
 46 47  1  0
 46 98  1  0
 46 99  1  0
 47100  1  0
 47101  1  0
 47102  1  0
 48 49  1  0
 48 60  2  0
 49 50  2  0
 49103  1  0
 50 51  1  0
 50 58  1  0
 51 52  3  0
 52 53  1  0
 53 54  2  0
 53 57  1  0
 54 55  1  0
 54104  1  0
 55 56  2  0
 55105  1  0
 56 57  1  0
 56106  1  0
 58 59  2  0
 58107  1  0
 59 60  1  0
 59108  1  0
M  END

