
     RDKit          3D

 55 58  0  0  0  0  0  0  0  0999 V2000
    2.4343   -0.8536   -0.5278 O   0  0  0  0  0  0  0  0  0  0  0  0
    2.0400    0.1566    0.0427 C   0  0  0  0  0  0  0  0  0  0  0  0
    0.8150    0.7042   -0.2235 N   0  0  0  0  0  0  0  0  0  0  0  0
   -0.1027    0.1044   -1.1925 C   0  0  1  0  0  0  0  0  0  0  0  0
   -1.5548    0.4809   -0.8547 C   0  0  0  0  0  0  0  0  0  0  0  0
   -1.8725    1.9570   -1.1434 C   0  0  0  0  0  0  0  0  0  0  0  0
   -1.5147    2.3400   -2.5862 C   0  0  0  0  0  0  0  0  0  0  0  0
   -0.0569    1.9901   -2.9165 C   0  0  0  0  0  0  0  0  0  0  0  0
    0.2428    0.5121   -2.6402 C   0  0  0  0  0  0  0  0  0  0  0  0
    2.8758    0.8489    1.0835 C   0  0  0  0  0  0  0  0  0  0  0  0
    2.6663    2.1631    1.5292 C   0  0  0  0  0  0  0  0  0  0  0  0
    3.4823    2.7552    2.4931 C   0  0  0  0  0  0  0  0  0  0  0  0
    4.5532    2.0248    3.0424 C   0  0  0  0  0  0  0  0  0  0  0  0
    5.4240    2.5291    4.0171 N   0  0  0  0  0  0  0  0  0  0  0  0
    5.4015    3.7800    4.6301 C   0  0  0  0  0  0  0  0  0  0  0  0
    4.5650    4.6381    4.3908 O   0  0  0  0  0  0  0  0  0  0  0  0
    6.4184    3.9833    5.5354 N   0  0  0  0  0  0  0  0  0  0  0  0
    7.3812    2.9965    6.0119 C   0  0  0  0  0  0  0  0  0  0  0  0
    8.3413    3.7718    6.9556 C   0  0  1  0  0  0  0  0  0  0  0  0
    9.8043    3.7739    6.4800 C   0  0  0  0  0  0  0  0  0  0  0  0
    9.8213    4.8376    5.3730 C   0  0  0  0  0  0  0  0  0  0  0  0
    8.9231    5.9582    5.9315 C   0  0  0  0  0  0  0  0  0  0  0  0
    7.8835    5.2651    6.8642 C   0  0  1  0  0  0  0  0  0  0  0  0
    6.4484    5.2069    6.3314 C   0  0  0  0  0  0  0  0  0  0  0  0
    4.7783    0.7086    2.5873 C   0  0  0  0  0  0  0  0  0  0  0  0
    3.9594    0.1372    1.6222 C   0  0  0  0  0  0  0  0  0  0  0  0
    0.4817    1.4594    0.3606 H   0  0  0  0  0  0  0  0  0  0  0  0
    0.0274   -0.9860   -1.1069 H   0  0  0  0  0  0  0  0  0  0  0  0
   -1.7720    0.2292    0.1975 H   0  0  0  0  0  0  0  0  0  0  0  0
   -2.2167   -0.1532   -1.4694 H   0  0  0  0  0  0  0  0  0  0  0  0
   -1.3138    2.6101   -0.4461 H   0  0  0  0  0  0  0  0  0  0  0  0
   -2.9388    2.1550   -0.9431 H   0  0  0  0  0  0  0  0  0  0  0  0
   -1.7032    3.4138   -2.7538 H   0  0  0  0  0  0  0  0  0  0  0  0
   -2.1838    1.7957   -3.2785 H   0  0  0  0  0  0  0  0  0  0  0  0
    0.6179    2.6170   -2.3058 H   0  0  0  0  0  0  0  0  0  0  0  0
    0.1672    2.2329   -3.9686 H   0  0  0  0  0  0  0  0  0  0  0  0
    1.2998    0.2732   -2.8330 H   0  0  0  0  0  0  0  0  0  0  0  0
   -0.3533   -0.1200   -3.3234 H   0  0  0  0  0  0  0  0  0  0  0  0
    1.8636    2.7717    1.1039 H   0  0  0  0  0  0  0  0  0  0  0  0
    3.3116    3.7761    2.8253 H   0  0  0  0  0  0  0  0  0  0  0  0
    6.1594    1.8916    4.2927 H   0  0  0  0  0  0  0  0  0  0  0  0
    7.9368    2.5520    5.1656 H   0  0  0  0  0  0  0  0  0  0  0  0
    6.8850    2.1659    6.5507 H   0  0  0  0  0  0  0  0  0  0  0  0
    8.2462    3.3762    7.9775 H   0  0  0  0  0  0  0  0  0  0  0  0
   10.1542    2.7823    6.1492 H   0  0  0  0  0  0  0  0  0  0  0  0
   10.4592    4.0854    7.3120 H   0  0  0  0  0  0  0  0  0  0  0  0
    9.3858    4.4253    4.4466 H   0  0  0  0  0  0  0  0  0  0  0  0
   10.8361    5.1824    5.1202 H   0  0  0  0  0  0  0  0  0  0  0  0
    8.4400    6.5459    5.1358 H   0  0  0  0  0  0  0  0  0  0  0  0
    9.5305    6.6638    6.5211 H   0  0  0  0  0  0  0  0  0  0  0  0
    7.8926    5.7423    7.8550 H   0  0  0  0  0  0  0  0  0  0  0  0
    6.1674    6.0672    5.7089 H   0  0  0  0  0  0  0  0  0  0  0  0
    5.7155    5.1560    7.1605 H   0  0  0  0  0  0  0  0  0  0  0  0
    5.6124    0.1313    2.9990 H   0  0  0  0  0  0  0  0  0  0  0  0
    4.1405   -0.8766    1.2604 H   0  0  0  0  0  0  0  0  0  0  0  0
  1  2  2  0
  2  3  1  0
  2 10  1  0
  3  4  1  0
  3 27  1  0
  4  5  1  0
  4  9  1  0
  4 28  1  6
  5  6  1  0
  5 29  1  0
  5 30  1  0
  6  7  1  0
  6 31  1  0
  6 32  1  0
  7  8  1  0
  7 33  1  0
  7 34  1  0
  8  9  1  0
  8 35  1  0
  8 36  1  0
  9 37  1  0
  9 38  1  0
 10 11  2  0
 10 26  1  0
 11 12  1  0
 11 39  1  0
 12 13  2  0
 12 40  1  0
 13 14  1  0
 13 25  1  0
 14 15  1  0
 14 41  1  0
 15 16  2  0
 15 17  1  0
 17 18  1  0
 17 24  1  0
 18 19  1  0
 18 42  1  0
 18 43  1  0
 19 20  1  0
 19 23  1  0
 19 44  1  1
 20 21  1  0
 20 45  1  0
 20 46  1  0
 21 22  1  0
 21 47  1  0
 21 48  1  0
 22 23  1  0
 22 49  1  0
 22 50  1  0
 23 24  1  0
 23 51  1  1
 24 52  1  0
 24 53  1  0
 25 26  2  0
 25 54  1  0
 26 55  1  0
M  END

