
     RDKit          3D

 52 55  0  0  0  0  0  0  0  0999 V2000
    3.3941   -0.2773   -1.5505 C   0  0  0  0  0  0  0  0  0  0  0  0
    3.3315    0.3509   -0.1492 C   0  0  1  0  0  0  0  0  0  0  0  0
    3.3941    1.8805   -0.1637 C   0  0  0  0  0  0  0  0  0  0  0  0
    3.3628    2.6314   -1.3460 C   0  0  0  0  0  0  0  0  0  0  0  0
    3.3928    4.0241   -1.2973 C   0  0  0  0  0  0  0  0  0  0  0  0
    3.3587    4.7092   -2.4488 F   0  0  0  0  0  0  0  0  0  0  0  0
    3.4562    4.7171   -0.0928 C   0  0  0  0  0  0  0  0  0  0  0  0
    3.4942    3.9839    1.0952 C   0  0  0  0  0  0  0  0  0  0  0  0
    3.4632    2.5952    1.0426 C   0  0  0  0  0  0  0  0  0  0  0  0
    3.5169    1.9108    2.2000 F   0  0  0  0  0  0  0  0  0  0  0  0
    2.1826   -0.1356    0.6080 N   0  0  0  0  0  0  0  0  0  0  0  0
    2.5139   -0.9408    1.6556 C   0  0  0  0  0  0  0  0  0  0  0  0
    1.7672   -1.4899    2.4432 O   0  0  0  0  0  0  0  0  0  0  0  0
    3.9174   -1.0420    1.6638 N   0  0  0  0  0  0  0  0  0  0  0  0
    4.6692   -1.7459    2.6949 C   0  0  0  0  0  0  0  0  0  0  0  0
    4.6921   -3.2820    2.5355 C   0  0  0  0  0  0  0  0  0  0  0  0
    5.7401   -3.8731    2.3467 O   0  0  0  0  0  0  0  0  0  0  0  0
    3.4724   -3.8766    2.6486 N   0  0  0  0  0  0  0  0  0  0  0  0
    3.2764   -5.3101    2.5431 C   0  0  0  0  0  0  0  0  0  0  0  0
    2.6640   -5.9117    3.8238 C   0  0  0  0  0  0  0  0  0  0  0  0
    2.3601   -7.3851    3.6982 C   0  0  0  0  0  0  0  0  0  0  0  0
    1.0724   -7.8461    3.4824 C   0  0  0  0  0  0  0  0  0  0  0  0
    0.7827   -9.2268    3.3416 C   0  0  0  0  0  0  0  0  0  0  0  0
    1.7909  -10.1625    3.4170 C   0  0  0  0  0  0  0  0  0  0  0  0
    3.1314   -9.7443    3.6382 C   0  0  0  0  0  0  0  0  0  0  0  0
    4.2206  -10.6521    3.7290 C   0  0  0  0  0  0  0  0  0  0  0  0
    5.4924  -10.1692    3.9425 C   0  0  0  0  0  0  0  0  0  0  0  0
    5.6720   -8.7667    4.0689 C   0  0  0  0  0  0  0  0  0  0  0  0
    4.6904   -7.8960    3.9925 N   0  0  0  0  0  0  0  0  0  0  0  0
    3.4240   -8.3461    3.7784 C   0  0  0  0  0  0  0  0  0  0  0  0
    4.4980   -0.2520    0.6885 C   0  0  0  0  0  0  0  0  0  0  0  0
    5.6735   -0.0779    0.4954 O   0  0  0  0  0  0  0  0  0  0  0  0
    2.5408    0.0410   -2.1683 H   0  0  0  0  0  0  0  0  0  0  0  0
    3.3617   -1.3730   -1.4637 H   0  0  0  0  0  0  0  0  0  0  0  0
    4.3300    0.0022   -2.0543 H   0  0  0  0  0  0  0  0  0  0  0  0
    3.3193    2.1556   -2.3248 H   0  0  0  0  0  0  0  0  0  0  0  0
    3.4811    5.8080   -0.0939 H   0  0  0  0  0  0  0  0  0  0  0  0
    3.5541    4.4750    2.0681 H   0  0  0  0  0  0  0  0  0  0  0  0
    1.2164    0.0748    0.3923 H   0  0  0  0  0  0  0  0  0  0  0  0
    4.2477   -1.4778    3.6771 H   0  0  0  0  0  0  0  0  0  0  0  0
    5.7075   -1.4011    2.6284 H   0  0  0  0  0  0  0  0  0  0  0  0
    2.6631   -3.2728    2.7946 H   0  0  0  0  0  0  0  0  0  0  0  0
    4.2602   -5.7591    2.3548 H   0  0  0  0  0  0  0  0  0  0  0  0
    2.6230   -5.5387    1.6813 H   0  0  0  0  0  0  0  0  0  0  0  0
    1.7327   -5.3725    4.0660 H   0  0  0  0  0  0  0  0  0  0  0  0
    3.3733   -5.7479    4.6487 H   0  0  0  0  0  0  0  0  0  0  0  0
    0.2518   -7.1249    3.4244 H   0  0  0  0  0  0  0  0  0  0  0  0
   -0.2499   -9.5434    3.1743 H   0  0  0  0  0  0  0  0  0  0  0  0
    1.5764  -11.2294    3.3097 H   0  0  0  0  0  0  0  0  0  0  0  0
    4.0334  -11.7251    3.6270 H   0  0  0  0  0  0  0  0  0  0  0  0
    6.3524  -10.8387    4.0160 H   0  0  0  0  0  0  0  0  0  0  0  0
    6.6775   -8.3621    4.2403 H   0  0  0  0  0  0  0  0  0  0  0  0
  2  1  1  6
  1 33  1  0
  1 34  1  0
  1 35  1  0
  2  3  1  0
  2 11  1  0
  2 31  1  0
  3  4  2  0
  3  9  1  0
  4  5  1  0
  4 36  1  0
  5  6  1  0
  5  7  2  0
  7  8  1  0
  7 37  1  0
  8  9  2  0
  8 38  1  0
  9 10  1  0
 11 12  1  0
 11 39  1  0
 12 13  2  0
 12 14  1  0
 14 15  1  0
 14 31  1  0
 15 16  1  0
 15 40  1  0
 15 41  1  0
 16 17  2  0
 16 18  1  0
 18 19  1  0
 18 42  1  0
 19 20  1  0
 19 43  1  0
 19 44  1  0
 20 21  1  0
 20 45  1  0
 20 46  1  0
 21 22  2  0
 21 30  1  0
 22 23  1  0
 22 47  1  0
 23 24  2  0
 23 48  1  0
 24 25  1  0
 24 49  1  0
 25 26  1  0
 25 30  2  0
 26 27  2  0
 26 50  1  0
 27 28  1  0
 27 51  1  0
 28 29  2  0
 28 52  1  0
 29 30  1  0
 31 32  2  0
M  END

