
     RDKit          3D

 37 38  0  0  0  0  0  0  0  0999 V2000
    1.6016   -0.9992   -1.2855 C   0  0  0  0  0  0  0  0  0  0  0  0
    2.8810   -0.5648   -0.5674 C   0  0  0  0  0  0  0  0  0  0  0  0
    2.6739    0.5070    0.5252 C   0  0  1  0  0  0  0  0  0  0  0  0
    1.8652   -0.0389    1.5995 N   0  0  0  0  0  0  0  0  0  0  0  0
    1.0697    0.7281    2.4440 C   0  0  0  0  0  0  0  0  0  0  0  0
    0.0806    0.1157    3.2357 C   0  0  0  0  0  0  0  0  0  0  0  0
   -0.7210    0.8613    4.1014 C   0  0  0  0  0  0  0  0  0  0  0  0
   -0.5741    2.2517    4.2140 C   0  0  0  0  0  0  0  0  0  0  0  0
   -1.3124    3.0501    5.0272 O   0  0  0  0  0  0  0  0  0  0  0  0
   -2.3047    2.4681    5.8366 C   0  0  0  0  0  0  0  0  0  0  0  0
    0.4176    2.8618    3.4213 C   0  0  0  0  0  0  0  0  0  0  0  0
    0.6456    4.5902    3.5277 Cl  0  0  0  0  0  0  0  0  0  0  0  0
    1.2255    2.1245    2.5570 C   0  0  0  0  0  0  0  0  0  0  0  0
    4.0210    1.0514    1.0064 C   0  0  0  0  0  0  0  0  0  0  0  0
    4.6429    2.1025    0.3155 C   0  0  0  0  0  0  0  0  0  0  0  0
    5.8993    2.5784    0.6975 C   0  0  0  0  0  0  0  0  0  0  0  0
    6.5349    1.9903    1.7888 C   0  0  0  0  0  0  0  0  0  0  0  0
    7.7408    2.4424    2.1666 F   0  0  0  0  0  0  0  0  0  0  0  0
    5.9431    0.9500    2.5011 C   0  0  0  0  0  0  0  0  0  0  0  0
    4.6862    0.4876    2.1037 C   0  0  0  0  0  0  0  0  0  0  0  0
    1.8236   -1.7463   -2.0636 H   0  0  0  0  0  0  0  0  0  0  0  0
    1.1093   -0.1424   -1.7742 H   0  0  0  0  0  0  0  0  0  0  0  0
    0.8653   -1.4497   -0.6005 H   0  0  0  0  0  0  0  0  0  0  0  0
    3.5953   -0.1593   -1.3009 H   0  0  0  0  0  0  0  0  0  0  0  0
    3.3852   -1.4351   -0.1093 H   0  0  0  0  0  0  0  0  0  0  0  0
    2.1312    1.3506    0.0517 H   0  0  0  0  0  0  0  0  0  0  0  0
    1.5592   -0.9955    1.4808 H   0  0  0  0  0  0  0  0  0  0  0  0
   -0.0669   -0.9663    3.1740 H   0  0  0  0  0  0  0  0  0  0  0  0
   -1.4753    0.3418    4.6931 H   0  0  0  0  0  0  0  0  0  0  0  0
   -2.7651    3.2875    6.4051 H   0  0  0  0  0  0  0  0  0  0  0  0
   -1.8819    1.7345    6.5481 H   0  0  0  0  0  0  0  0  0  0  0  0
   -3.0876    1.9669    5.2373 H   0  0  0  0  0  0  0  0  0  0  0  0
    1.9888    2.6546    1.9898 H   0  0  0  0  0  0  0  0  0  0  0  0
    4.1353    2.5662   -0.5361 H   0  0  0  0  0  0  0  0  0  0  0  0
    6.3879    3.3998    0.1698 H   0  0  0  0  0  0  0  0  0  0  0  0
    6.4674    0.5214    3.3577 H   0  0  0  0  0  0  0  0  0  0  0  0
    4.1998   -0.3155    2.6616 H   0  0  0  0  0  0  0  0  0  0  0  0
  1  2  1  0
  1 21  1  0
  1 22  1  0
  1 23  1  0
  2  3  1  0
  2 24  1  0
  2 25  1  0
  3  4  1  0
  3 14  1  0
  3 26  1  6
  4  5  1  0
  4 27  1  0
  5  6  2  0
  5 13  1  0
  6  7  1  0
  6 28  1  0
  7  8  2  0
  7 29  1  0
  8  9  1  0
  8 11  1  0
  9 10  1  0
 10 30  1  0
 10 31  1  0
 10 32  1  0
 11 12  1  0
 11 13  2  0
 13 33  1  0
 14 15  2  0
 14 20  1  0
 15 16  1  0
 15 34  1  0
 16 17  2  0
 16 35  1  0
 17 18  1  0
 17 19  1  0
 19 20  2  0
 19 36  1  0
 20 37  1  0
M  END

