
     RDKit          3D

 51 52  0  0  0  0  0  0  0  0999 V2000
    2.3907   -0.3994   -3.3746 C   0  0  0  0  0  0  0  0  0  0  0  0
    3.6085   -0.4446   -2.4817 C   0  0  0  0  0  0  0  0  0  0  0  0
    4.4365    0.6677   -2.3216 C   0  0  0  0  0  0  0  0  0  0  0  0
    5.5687    0.6416   -1.4850 C   0  0  0  0  0  0  0  0  0  0  0  0
    6.4168    1.8878   -1.3578 C   0  0  0  0  0  0  0  0  0  0  0  0
    5.8891   -0.5346   -0.7852 C   0  0  0  0  0  0  0  0  0  0  0  0
    7.0787   -0.6618    0.1334 C   0  0  0  0  0  0  0  0  0  0  0  0
    5.0506   -1.6635   -0.9501 C   0  0  0  0  0  0  0  0  0  0  0  0
    5.4241   -2.7666   -0.2423 O   0  0  0  0  0  0  0  0  0  0  0  0
    4.6866   -3.9688   -0.3595 C   0  0  0  0  0  0  0  0  0  0  0  0
    5.4070   -5.0515    0.4304 C   0  0  0  0  0  0  0  0  0  0  0  0
    4.7226   -6.4235    0.3494 C   0  0  0  0  0  0  0  0  0  0  0  0
    4.6222   -6.9522   -1.0026 N   0  0  0  0  0  0  0  0  0  0  0  0
    5.6642   -7.5873   -1.6066 C   0  0  0  0  0  0  0  0  0  0  0  0
    6.7167   -7.8505   -1.0509 O   0  0  0  0  0  0  0  0  0  0  0  0
    5.4207   -7.9644   -3.0792 C   0  0  0  0  0  0  0  0  0  0  0  0
    5.2972   -6.8057   -3.9201 O   0  0  0  0  0  0  0  0  0  0  0  0
    4.0906   -6.2382   -4.0394 C   0  0  0  0  0  0  0  0  0  0  0  0
    3.0943   -6.6331   -3.4553 O   0  0  0  0  0  0  0  0  0  0  0  0
    4.1055   -5.0653   -4.9322 C   0  0  0  0  0  0  0  0  0  0  0  0
    2.9780   -4.3281   -5.0897 C   0  0  0  0  0  0  0  0  0  0  0  0
    2.8992   -3.2447   -5.8858 O   0  0  0  0  0  0  0  0  0  0  0  0
    4.0476   -3.0298   -6.7107 C   0  0  0  0  0  0  0  0  0  0  0  0
    5.3187   -3.3761   -5.9466 C   0  0  0  0  0  0  0  0  0  0  0  0
    5.2880   -4.7337   -5.5331 O   0  0  0  0  0  0  0  0  0  0  0  0
    3.9276   -1.6218   -1.7833 C   0  0  0  0  0  0  0  0  0  0  0  0
    2.2808    0.5841   -3.8553 H   0  0  0  0  0  0  0  0  0  0  0  0
    1.4678   -0.5952   -2.8023 H   0  0  0  0  0  0  0  0  0  0  0  0
    2.4410   -1.1619   -4.1700 H   0  0  0  0  0  0  0  0  0  0  0  0
    4.1984    1.5910   -2.8575 H   0  0  0  0  0  0  0  0  0  0  0  0
    6.0125    2.7020   -1.9767 H   0  0  0  0  0  0  0  0  0  0  0  0
    7.4576    1.7128   -1.6777 H   0  0  0  0  0  0  0  0  0  0  0  0
    6.4597    2.2519   -0.3177 H   0  0  0  0  0  0  0  0  0  0  0  0
    7.6707    0.2603    0.1829 H   0  0  0  0  0  0  0  0  0  0  0  0
    7.7424   -1.4800   -0.1915 H   0  0  0  0  0  0  0  0  0  0  0  0
    6.7610   -0.9207    1.1572 H   0  0  0  0  0  0  0  0  0  0  0  0
    4.6058   -4.2617   -1.4220 H   0  0  0  0  0  0  0  0  0  0  0  0
    3.6559   -3.8239    0.0215 H   0  0  0  0  0  0  0  0  0  0  0  0
    5.4732   -4.7452    1.4879 H   0  0  0  0  0  0  0  0  0  0  0  0
    6.4399   -5.1416    0.0581 H   0  0  0  0  0  0  0  0  0  0  0  0
    3.7039   -6.3732    0.7678 H   0  0  0  0  0  0  0  0  0  0  0  0
    5.2963   -7.1409    0.9548 H   0  0  0  0  0  0  0  0  0  0  0  0
    3.7755   -6.8112   -1.5501 H   0  0  0  0  0  0  0  0  0  0  0  0
    4.5223   -8.5929   -3.1806 H   0  0  0  0  0  0  0  0  0  0  0  0
    6.3103   -8.4970   -3.4315 H   0  0  0  0  0  0  0  0  0  0  0  0
    2.0574   -4.5697   -4.5593 H   0  0  0  0  0  0  0  0  0  0  0  0
    4.0300   -1.9728   -7.0117 H   0  0  0  0  0  0  0  0  0  0  0  0
    3.9625   -3.6616   -7.6120 H   0  0  0  0  0  0  0  0  0  0  0  0
    5.4168   -2.7169   -5.0641 H   0  0  0  0  0  0  0  0  0  0  0  0
    6.2052   -3.2503   -6.5843 H   0  0  0  0  0  0  0  0  0  0  0  0
    3.2862   -2.4966   -1.8954 H   0  0  0  0  0  0  0  0  0  0  0  0
  1  2  1  0
  1 27  1  0
  1 28  1  0
  1 29  1  0
  2  3  2  0
  2 26  1  0
  3  4  1  0
  3 30  1  0
  4  5  1  0
  4  6  2  0
  5 31  1  0
  5 32  1  0
  5 33  1  0
  6  7  1  0
  6  8  1  0
  7 34  1  0
  7 35  1  0
  7 36  1  0
  8  9  1  0
  8 26  2  0
  9 10  1  0
 10 11  1  0
 10 37  1  0
 10 38  1  0
 11 12  1  0
 11 39  1  0
 11 40  1  0
 12 13  1  0
 12 41  1  0
 12 42  1  0
 13 14  1  0
 13 43  1  0
 14 15  2  0
 14 16  1  0
 16 17  1  0
 16 44  1  0
 16 45  1  0
 17 18  1  0
 18 19  2  0
 18 20  1  0
 20 21  2  0
 20 25  1  0
 21 22  1  0
 21 46  1  0
 22 23  1  0
 23 24  1  0
 23 47  1  0
 23 48  1  0
 24 25  1  0
 24 49  1  0
 24 50  1  0
 26 51  1  0
M  END

