
     RDKit          3D

 29 31  0  0  0  0  0  0  0  0999 V2000
    8.2986    5.4768    1.3545 Cl  0  0  0  0  0  0  0  0  0  0  0  0
    7.9163    3.8362    0.8756 C   0  0  0  0  0  0  0  0  0  0  0  0
    8.9413    2.9234    0.6202 C   0  0  0  0  0  0  0  0  0  0  0  0
    8.6474    1.6134    0.2377 C   0  0  0  0  0  0  0  0  0  0  0  0
    7.3080    1.1989    0.1056 C   0  0  0  0  0  0  0  0  0  0  0  0
    6.9131   -0.0898   -0.2710 N   0  0  0  0  0  0  0  0  0  0  0  0
    7.6382   -1.2220   -0.5952 C   0  0  0  0  0  0  0  0  0  0  0  0
    6.8791   -2.3954   -0.9416 C   0  0  0  0  0  0  0  0  0  0  0  0
    7.5475   -3.5429   -1.2689 C   0  0  0  0  0  0  0  0  0  0  0  0
    8.9731   -3.5644   -1.2642 C   0  0  0  0  0  0  0  0  0  0  0  0
    9.7390   -4.7120   -1.5904 C   0  0  0  0  0  0  0  0  0  0  0  0
   11.1199   -4.6647   -1.5674 C   0  0  0  0  0  0  0  0  0  0  0  0
   11.7783   -3.4615   -1.2156 C   0  0  0  0  0  0  0  0  0  0  0  0
   11.0570   -2.3280   -0.8928 C   0  0  0  0  0  0  0  0  0  0  0  0
    9.6357   -2.3452   -0.9070 C   0  0  0  0  0  0  0  0  0  0  0  0
    8.9546   -1.2103   -0.5828 N   0  0  0  0  0  0  0  0  0  0  0  0
    6.2859    2.1353    0.3677 C   0  0  0  0  0  0  0  0  0  0  0  0
    6.5814    3.4411    0.7489 C   0  0  0  0  0  0  0  0  0  0  0  0
    9.9816    3.2385    0.7209 H   0  0  0  0  0  0  0  0  0  0  0  0
    9.4413    0.8990    0.0374 H   0  0  0  0  0  0  0  0  0  0  0  0
    5.9098   -0.2151   -0.3154 H   0  0  0  0  0  0  0  0  0  0  0  0
    5.7863   -2.3614   -0.9415 H   0  0  0  0  0  0  0  0  0  0  0  0
    6.9960   -4.4488   -1.5361 H   0  0  0  0  0  0  0  0  0  0  0  0
    9.2186   -5.6354   -1.8607 H   0  0  0  0  0  0  0  0  0  0  0  0
   11.7056   -5.5519   -1.8195 H   0  0  0  0  0  0  0  0  0  0  0  0
   12.8710   -3.4309   -1.1998 H   0  0  0  0  0  0  0  0  0  0  0  0
   11.5548   -1.3954   -0.6202 H   0  0  0  0  0  0  0  0  0  0  0  0
    5.2381    1.8342    0.2709 H   0  0  0  0  0  0  0  0  0  0  0  0
    5.7794    4.1538    0.9484 H   0  0  0  0  0  0  0  0  0  0  0  0
  1  2  1  0
  2  3  2  0
  2 18  1  0
  3  4  1  0
  3 19  1  0
  4  5  2  0
  4 20  1  0
  5  6  1  0
  5 17  1  0
  6  7  1  0
  6 21  1  0
  7  8  2  0
  7 16  1  0
  8  9  1  0
  8 22  1  0
  9 10  2  0
  9 23  1  0
 10 11  1  0
 10 15  1  0
 11 12  2  0
 11 24  1  0
 12 13  1  0
 12 25  1  0
 13 14  2  0
 13 26  1  0
 14 15  1  0
 14 27  1  0
 15 16  2  0
 17 18  2  0
 17 28  1  0
 18 29  1  0
M  END

