
     RDKit          3D

 33 35  0  0  0  0  0  0  0  0999 V2000
    9.1337   -0.9581   -2.9177 N   0  0  0  0  0  0  0  0  0  0  0  0
    7.8861   -1.5332   -3.1056 C   0  0  0  0  0  0  0  0  0  0  0  0
    7.4205   -1.8500   -4.3990 C   0  0  0  0  0  0  0  0  0  0  0  0
    6.1819   -2.4655   -4.5734 C   0  0  0  0  0  0  0  0  0  0  0  0
    5.3838   -2.7998   -3.4758 C   0  0  0  0  0  0  0  0  0  0  0  0
    5.8380   -2.4959   -2.1817 C   0  0  0  0  0  0  0  0  0  0  0  0
    4.9898   -2.7103   -0.9520 C   0  0  0  0  0  0  0  0  0  0  0  0
    4.9035   -1.8264   -0.1123 O   0  0  0  0  0  0  0  0  0  0  0  0
    4.2823   -3.8957   -0.8471 N   0  0  0  0  0  0  0  0  0  0  0  0
    3.4200   -4.0638    0.3144 C   0  0  0  0  0  0  0  0  0  0  0  0
    4.0307   -5.1207    1.2957 C   0  0  1  0  0  0  0  0  0  0  0  0
    3.2575   -6.4506    1.2749 C   0  0  0  0  0  0  0  0  0  0  0  0
    3.8381   -7.1304    0.0073 C   0  0  0  0  0  0  0  0  0  0  0  0
    5.0238   -6.2020   -0.3741 C   0  0  1  0  0  0  0  0  0  0  0  0
    4.6844   -5.1475   -1.4782 C   0  0  0  0  0  0  0  0  0  0  0  0
    5.3221   -5.4953    0.8227 O   0  0  0  0  0  0  0  0  0  0  0  0
    7.0680   -1.8533   -2.0065 C   0  0  0  0  0  0  0  0  0  0  0  0
    9.5286   -0.4596   -3.7064 H   0  0  0  0  0  0  0  0  0  0  0  0
    9.2873   -0.4908   -2.0317 H   0  0  0  0  0  0  0  0  0  0  0  0
    8.0368   -1.6038   -5.2686 H   0  0  0  0  0  0  0  0  0  0  0  0
    5.8311   -2.6829   -5.5859 H   0  0  0  0  0  0  0  0  0  0  0  0
    4.4074   -3.2641   -3.6248 H   0  0  0  0  0  0  0  0  0  0  0  0
    2.4160   -4.3819   -0.0209 H   0  0  0  0  0  0  0  0  0  0  0  0
    3.3323   -3.0847    0.7978 H   0  0  0  0  0  0  0  0  0  0  0  0
    4.1582   -4.6947    2.3004 H   0  0  0  0  0  0  0  0  0  0  0  0
    2.1667   -6.3101    1.2366 H   0  0  0  0  0  0  0  0  0  0  0  0
    3.4910   -7.0357    2.1766 H   0  0  0  0  0  0  0  0  0  0  0  0
    3.1038   -7.2123   -0.8086 H   0  0  0  0  0  0  0  0  0  0  0  0
    4.1951   -8.1466    0.2279 H   0  0  0  0  0  0  0  0  0  0  0  0
    5.9210   -6.7662   -0.6659 H   0  0  0  0  0  0  0  0  0  0  0  0
    3.8861   -5.5293   -2.1425 H   0  0  0  0  0  0  0  0  0  0  0  0
    5.5681   -4.9651   -2.0987 H   0  0  0  0  0  0  0  0  0  0  0  0
    7.3814   -1.5899   -0.9936 H   0  0  0  0  0  0  0  0  0  0  0  0
  1  2  1  0
  1 18  1  0
  1 19  1  0
  2  3  2  0
  2 17  1  0
  3  4  1  0
  3 20  1  0
  4  5  2  0
  4 21  1  0
  5  6  1  0
  5 22  1  0
  6  7  1  0
  6 17  2  0
  7  8  2  0
  7  9  1  0
  9 10  1  0
  9 15  1  0
 10 11  1  0
 10 23  1  0
 10 24  1  0
 11 12  1  0
 11 16  1  0
 11 25  1  1
 12 13  1  0
 12 26  1  0
 12 27  1  0
 13 14  1  0
 13 28  1  0
 13 29  1  0
 14 15  1  0
 14 16  1  0
 14 30  1  6
 15 31  1  0
 15 32  1  0
 17 33  1  0
M  END

