
     RDKit          3D

 30 31  0  0  0  0  0  0  0  0999 V2000
   -0.0389   -0.3307    3.5883 C   0  0  0  0  0  0  0  0  0  0  0  0
    0.4407    0.4791    2.4140 C   0  0  0  0  0  0  0  0  0  0  0  0
    0.7882    1.7217    2.5992 N   0  0  0  0  0  0  0  0  0  0  0  0
    1.2202    2.4667    1.5358 C   0  0  0  0  0  0  0  0  0  0  0  0
    1.5910    3.8202    1.7245 C   0  0  0  0  0  0  0  0  0  0  0  0
    2.0438    4.5716    0.6558 C   0  0  0  0  0  0  0  0  0  0  0  0
    2.1406    3.9900   -0.6310 C   0  0  0  0  0  0  0  0  0  0  0  0
    1.7834    2.6701   -0.8429 C   0  0  0  0  0  0  0  0  0  0  0  0
    1.3117    1.8833    0.2364 C   0  0  0  0  0  0  0  0  0  0  0  0
    0.9575    0.5775    0.0478 N   0  0  0  0  0  0  0  0  0  0  0  0
    0.5095   -0.1144    1.0816 C   0  0  0  0  0  0  0  0  0  0  0  0
    0.0948   -1.3968    0.8837 N   0  0  0  0  0  0  0  0  0  0  0  0
   -0.1120   -2.0134   -0.4281 C   0  0  2  0  0  0  0  0  0  0  0  0
   -0.5354   -1.2307   -1.0835 H   0  0  0  0  0  0  0  0  0  0  0  0
   -1.0839   -3.1798   -0.3084 C   0  0  0  0  0  0  0  0  0  0  0  0
    1.2251   -2.4571   -1.0828 C   0  0  0  0  0  0  0  0  0  0  0  0
    1.4603   -3.6056   -1.3591 O   0  0  0  0  0  0  0  0  0  0  0  0
    2.0784   -1.4672   -1.3315 O   0  0  0  0  0  0  0  0  0  0  0  0
   -0.0234    0.2993    4.4864 H   0  0  0  0  0  0  0  0  0  0  0  0
    0.6054   -1.2098    3.7679 H   0  0  0  0  0  0  0  0  0  0  0  0
   -1.0679   -0.6991    3.4324 H   0  0  0  0  0  0  0  0  0  0  0  0
    1.5083    4.2353    2.7311 H   0  0  0  0  0  0  0  0  0  0  0  0
    2.3304    5.6158    0.8012 H   0  0  0  0  0  0  0  0  0  0  0  0
    2.5029    4.5921   -1.4682 H   0  0  0  0  0  0  0  0  0  0  0  0
    1.8537    2.2129   -1.8323 H   0  0  0  0  0  0  0  0  0  0  0  0
   -0.1123   -1.9644    1.6946 H   0  0  0  0  0  0  0  0  0  0  0  0
   -1.2714   -3.6187   -1.2972 H   0  0  0  0  0  0  0  0  0  0  0  0
   -2.0410   -2.8448    0.1199 H   0  0  0  0  0  0  0  0  0  0  0  0
   -0.6577   -3.9777    0.3191 H   0  0  0  0  0  0  0  0  0  0  0  0
    1.7110   -0.6002   -1.0015 H   0  0  0  0  0  0  0  0  0  0  0  0
  1  2  1  0
  1 19  1  0
  1 20  1  0
  1 21  1  0
  2  3  2  0
  2 11  1  0
  3  4  1  0
  4  5  2  0
  4  9  1  0
  5  6  1  0
  5 22  1  0
  6  7  2  0
  6 23  1  0
  7  8  1  0
  7 24  1  0
  8  9  2  0
  8 25  1  0
  9 10  1  0
 10 11  2  0
 11 12  1  0
 12 13  1  0
 12 26  1  0
 13 14  1  6
 13 15  1  0
 13 16  1  0
 15 27  1  0
 15 28  1  0
 15 29  1  0
 16 17  2  0
 16 18  1  0
 18 30  1  0
M  END

