
     RDKit          3D

 51 54  0  0  0  0  0  0  0  0999 V2000
    1.1604    0.7429    1.3920 O   0  0  0  0  0  0  0  0  0  0  0  0
    2.3510    0.5432    1.2081 C   0  0  0  0  0  0  0  0  0  0  0  0
    3.1923    1.4204    0.2703 C   0  0  0  0  0  0  0  0  0  0  0  0
    2.3967    2.5811   -0.3252 C   0  0  0  0  0  0  0  0  0  0  0  0
    2.0722    3.6713    0.7060 C   0  0  0  0  0  0  0  0  0  0  0  0
    1.0774    4.6196    0.2331 N   0  0  0  0  0  0  0  0  0  0  0  0
    1.3905    5.8871   -0.2496 C   0  0  0  0  0  0  0  0  0  0  0  0
    2.4667    6.4010   -0.3524 O   0  0  0  0  0  0  0  0  0  0  0  0
    0.1959    6.4917   -0.6061 O   0  0  0  0  0  0  0  0  0  0  0  0
   -0.8237    5.6149   -0.3547 C   0  0  0  0  0  0  0  0  0  0  0  0
   -2.1755    5.7999   -0.5552 C   0  0  0  0  0  0  0  0  0  0  0  0
   -2.9914    4.7124   -0.1990 C   0  0  0  0  0  0  0  0  0  0  0  0
   -4.4461    4.8466   -0.3901 N   0  0  0  0  0  0  0  0  0  0  0  0
   -4.8592    5.9010   -0.8487 O   0  0  0  0  0  0  0  0  0  0  0  0
   -5.1506    3.8984   -0.0802 O   0  0  0  0  0  0  0  0  0  0  0  0
   -2.4883    3.5158    0.3233 C   0  0  0  0  0  0  0  0  0  0  0  0
   -1.1120    3.3501    0.5184 C   0  0  0  0  0  0  0  0  0  0  0  0
   -0.2914    4.4239    0.1715 C   0  0  0  0  0  0  0  0  0  0  0  0
    3.0621   -0.4702    1.7976 N   0  0  0  0  0  0  0  0  0  0  0  0
    2.6304   -1.4696    2.6984 C   0  0  0  0  0  0  0  0  0  0  0  0
    1.3064   -1.5809    3.1535 C   0  0  0  0  0  0  0  0  0  0  0  0
    0.9918   -2.6083    4.0452 C   0  0  0  0  0  0  0  0  0  0  0  0
    1.9392   -3.5260    4.4999 C   0  0  0  0  0  0  0  0  0  0  0  0
    3.2645   -3.4131    4.0425 C   0  0  0  0  0  0  0  0  0  0  0  0
    4.2962   -4.2842    4.4370 N   0  0  0  0  0  0  0  0  0  0  0  0
    4.2447   -5.3628    5.2971 C   0  0  0  0  0  0  0  0  0  0  0  0
    3.2327   -5.7318    5.8684 O   0  0  0  0  0  0  0  0  0  0  0  0
    5.5613   -6.0612    5.4780 C   0  0  1  0  0  0  0  0  0  0  0  0
    5.8417   -6.6640    6.8430 C   0  0  0  0  0  0  0  0  0  0  0  0
    5.5222   -7.5632    5.6968 C   0  0  0  0  0  0  0  0  0  0  0  0
    3.5957   -2.3845    3.1455 C   0  0  0  0  0  0  0  0  0  0  0  0
    3.5801    0.7785   -0.5399 H   0  0  0  0  0  0  0  0  0  0  0  0
    4.0802    1.7870    0.8173 H   0  0  0  0  0  0  0  0  0  0  0  0
    1.4579    2.1849   -0.7409 H   0  0  0  0  0  0  0  0  0  0  0  0
    2.9605    3.0283   -1.1589 H   0  0  0  0  0  0  0  0  0  0  0  0
    2.9715    4.2549    0.9524 H   0  0  0  0  0  0  0  0  0  0  0  0
    1.6890    3.2165    1.6313 H   0  0  0  0  0  0  0  0  0  0  0  0
   -2.6024    6.7159   -0.9589 H   0  0  0  0  0  0  0  0  0  0  0  0
   -3.1912    2.7210    0.5700 H   0  0  0  0  0  0  0  0  0  0  0  0
   -0.6967    2.4206    0.9127 H   0  0  0  0  0  0  0  0  0  0  0  0
    4.0445   -0.5169    1.5519 H   0  0  0  0  0  0  0  0  0  0  0  0
    0.5544   -0.8763    2.8100 H   0  0  0  0  0  0  0  0  0  0  0  0
   -0.0380   -2.6975    4.4010 H   0  0  0  0  0  0  0  0  0  0  0  0
    1.6782   -4.3201    5.1941 H   0  0  0  0  0  0  0  0  0  0  0  0
    5.2036   -4.0892    4.0318 H   0  0  0  0  0  0  0  0  0  0  0  0
    6.4159   -5.6594    4.9247 H   0  0  0  0  0  0  0  0  0  0  0  0
    5.0646   -6.5146    7.5969 H   0  0  0  0  0  0  0  0  0  0  0  0
    6.8707   -6.6145    7.2091 H   0  0  0  0  0  0  0  0  0  0  0  0
    4.5293   -8.0198    5.6776 H   0  0  0  0  0  0  0  0  0  0  0  0
    6.3229   -8.1554    5.2457 H   0  0  0  0  0  0  0  0  0  0  0  0
    4.6276   -2.2952    2.7886 H   0  0  0  0  0  0  0  0  0  0  0  0
  1  2  2  0
  2  3  1  0
  2 19  1  0
  3  4  1  0
  3 32  1  0
  3 33  1  0
  4  5  1  0
  4 34  1  0
  4 35  1  0
  5  6  1  0
  5 36  1  0
  5 37  1  0
  6  7  1  0
  6 18  1  0
  7  8  2  0
  7  9  1  0
  9 10  1  0
 10 11  1  0
 10 18  2  0
 11 12  2  0
 11 38  1  0
 12 13  1  0
 12 16  1  0
 13 14  2  0
 13 15  1  0
 16 17  2  0
 16 39  1  0
 17 18  1  0
 17 40  1  0
 19 20  1  0
 19 41  1  0
 20 21  2  0
 20 31  1  0
 21 22  1  0
 21 42  1  0
 22 23  2  0
 22 43  1  0
 23 24  1  0
 23 44  1  0
 24 25  1  0
 24 31  2  0
 25 26  1  0
 25 45  1  0
 26 27  2  0
 26 28  1  0
 28 29  1  0
 28 30  1  0
 28 46  1  6
 29 30  1  0
 29 47  1  0
 29 48  1  0
 30 49  1  0
 30 50  1  0
 31 51  1  0
M  CHG  2  13   1  15  -1
M  END

