
     RDKit          3D

 60 61  0  0  0  0  0  0  0  0999 V2000
   14.9577    6.4111    8.9694 C   0  0  0  0  0  0  0  0  0  0  0  0
   14.7135    5.4773    7.9200 O   0  0  0  0  0  0  0  0  0  0  0  0
   13.6715    5.7693    7.0903 C   0  0  0  0  0  0  0  0  0  0  0  0
   12.9871    6.7583    7.2302 O   0  0  0  0  0  0  0  0  0  0  0  0
   13.5308    4.7389    6.0621 C   0  0  0  0  0  0  0  0  0  0  0  0
   14.3924    3.6511    6.0312 N   0  0  0  0  0  0  0  0  0  0  0  0
   15.1385    3.5218    6.7047 H   0  0  0  0  0  0  0  0  0  0  0  0
   14.0989    2.8308    5.0061 C   0  0  0  0  0  0  0  0  0  0  0  0
   14.8879    1.5911    4.7466 C   0  0  0  0  0  0  0  0  0  0  0  0
   12.9896    3.3874    4.3232 C   0  0  0  0  0  0  0  0  0  0  0  0
   12.4252    2.7196    3.1393 C   0  0  0  0  0  0  0  0  0  0  0  0
   12.9689    1.7272    2.6638 O   0  0  0  0  0  0  0  0  0  0  0  0
   11.1009    3.2121    2.5154 C   0  0  2  0  0  0  0  0  0  0  0  0
   10.9212    4.2433    2.8182 H   0  0  0  0  0  0  0  0  0  0  0  0
    9.9484    2.3517    3.0512 C   0  0  0  0  0  0  0  0  0  0  0  0
   11.1925    3.2666    1.0476 N   0  0  0  0  0  0  0  0  0  0  0  0
   11.1498    2.0278    0.2706 C   0  0  0  0  0  0  0  0  0  0  0  0
    9.7797    1.6027   -0.2584 C   0  0  2  0  0  0  0  0  0  0  0  0
    9.0513    1.5803    0.5755 H   0  0  0  0  0  0  0  0  0  0  0  0
    9.7900    0.2233   -0.9582 C   0  0  0  0  0  0  0  0  0  0  0  0
    8.7581    0.3806   -2.1035 C   0  0  0  0  0  0  0  0  0  0  0  0
    8.2667    1.8340   -1.9388 C   0  0  0  0  0  0  0  0  0  0  0  0
    9.3034    2.5060   -1.2485 O   0  0  0  0  0  0  0  0  0  0  0  0
   11.4676    4.5080    0.4983 C   0  0  0  0  0  0  0  0  0  0  0  0
   11.5229    5.5130    1.1988 O   0  0  0  0  0  0  0  0  0  0  0  0
   11.7027    4.5869   -1.0079 C   0  0  0  0  0  0  0  0  0  0  0  0
   11.9732    6.0088   -1.5260 C   0  0  1  0  0  0  0  0  0  0  0  0
   13.3619    6.5200   -1.1217 C   0  0  0  0  0  0  0  0  0  0  0  0
   11.7880    6.0620   -3.0482 C   0  0  0  0  0  0  0  0  0  0  0  0
   12.6340    4.6108    5.0032 C   0  0  0  0  0  0  0  0  0  0  0  0
   11.5583    5.6067    4.6794 C   0  0  0  0  0  0  0  0  0  0  0  0
   15.8180    6.0251    9.5308 H   0  0  0  0  0  0  0  0  0  0  0  0
   14.0812    6.4994    9.6293 H   0  0  0  0  0  0  0  0  0  0  0  0
   15.1852    7.4084    8.5630 H   0  0  0  0  0  0  0  0  0  0  0  0
   15.6424    1.4364    5.5341 H   0  0  0  0  0  0  0  0  0  0  0  0
   15.3920    1.6439    3.7698 H   0  0  0  0  0  0  0  0  0  0  0  0
   14.2325    0.7094    4.6946 H   0  0  0  0  0  0  0  0  0  0  0  0
    8.9832    2.7059    2.6589 H   0  0  0  0  0  0  0  0  0  0  0  0
    9.9156    2.4254    4.1498 H   0  0  0  0  0  0  0  0  0  0  0  0
   10.0703    1.2872    2.8000 H   0  0  0  0  0  0  0  0  0  0  0  0
   11.5472    1.2261    0.9060 H   0  0  0  0  0  0  0  0  0  0  0  0
   11.8384    2.0991   -0.5832 H   0  0  0  0  0  0  0  0  0  0  0  0
    9.5355   -0.5863   -0.2581 H   0  0  0  0  0  0  0  0  0  0  0  0
   10.7929    0.0072   -1.3595 H   0  0  0  0  0  0  0  0  0  0  0  0
    7.9301   -0.3408   -2.0348 H   0  0  0  0  0  0  0  0  0  0  0  0
    9.2369    0.2394   -3.0838 H   0  0  0  0  0  0  0  0  0  0  0  0
    7.3293    1.8640   -1.3464 H   0  0  0  0  0  0  0  0  0  0  0  0
    8.0875    2.3584   -2.8889 H   0  0  0  0  0  0  0  0  0  0  0  0
   10.8263    4.1484   -1.5084 H   0  0  0  0  0  0  0  0  0  0  0  0
   12.5532    3.9308   -1.2718 H   0  0  0  0  0  0  0  0  0  0  0  0
   11.2246    6.6719   -1.0603 H   0  0  0  0  0  0  0  0  0  0  0  0
   14.1568    5.8943   -1.5659 H   0  0  0  0  0  0  0  0  0  0  0  0
   13.4802    6.5107   -0.0293 H   0  0  0  0  0  0  0  0  0  0  0  0
   13.5206    7.5531   -1.4725 H   0  0  0  0  0  0  0  0  0  0  0  0
   12.5004    5.3920   -3.5612 H   0  0  0  0  0  0  0  0  0  0  0  0
   11.9586    7.0804   -3.4337 H   0  0  0  0  0  0  0  0  0  0  0  0
   10.7716    5.7554   -3.3455 H   0  0  0  0  0  0  0  0  0  0  0  0
   11.6287    5.9428    3.6334 H   0  0  0  0  0  0  0  0  0  0  0  0
   11.6379    6.4744    5.3444 H   0  0  0  0  0  0  0  0  0  0  0  0
   10.5539    5.1719    4.8171 H   0  0  0  0  0  0  0  0  0  0  0  0
  1  2  1  0
  1 32  1  0
  1 33  1  0
  1 34  1  0
  2  3  1  0
  3  4  2  0
  3  5  1  0
  5  6  1  0
  5 30  2  0
  6  7  1  0
  6  8  1  0
  8  9  1  0
  8 10  2  0
  9 35  1  0
  9 36  1  0
  9 37  1  0
 10 11  1  0
 10 30  1  0
 11 12  2  0
 11 13  1  0
 13 14  1  1
 13 15  1  0
 13 16  1  0
 15 38  1  0
 15 39  1  0
 15 40  1  0
 16 17  1  0
 16 24  1  0
 17 18  1  0
 17 41  1  0
 17 42  1  0
 18 19  1  1
 18 20  1  0
 18 23  1  0
 20 21  1  0
 20 43  1  0
 20 44  1  0
 21 22  1  0
 21 45  1  0
 21 46  1  0
 22 23  1  0
 22 47  1  0
 22 48  1  0
 24 25  2  0
 24 26  1  0
 26 27  1  0
 26 49  1  0
 26 50  1  0
 27 28  1  0
 27 29  1  0
 27 51  1  1
 28 52  1  0
 28 53  1  0
 28 54  1  0
 29 55  1  0
 29 56  1  0
 29 57  1  0
 30 31  1  0
 31 58  1  0
 31 59  1  0
 31 60  1  0
M  END

