
     RDKit          3D

 36 37  0  0  0  0  0  0  0  0999 V2000
    4.5155    1.5711    1.4582 N   0  0  0  0  0  0  0  0  0  0  0  0
    4.4607    0.2238    2.0177 C   0  0  0  0  0  0  0  0  0  0  0  0
    3.1804   -0.5112    1.5644 C   0  0  2  0  0  0  0  0  0  0  0  0
    3.1332   -0.4022    0.4665 H   0  0  0  0  0  0  0  0  0  0  0  0
    1.9014    0.0240    2.2286 C   0  0  0  0  0  0  0  0  0  0  0  0
    1.8385   -0.7466    3.5618 C   0  0  0  0  0  0  0  0  0  0  0  0
    2.5537   -2.0861    3.2659 C   0  0  0  0  0  0  0  0  0  0  0  0
    3.1163   -1.9271    1.9272 N   0  0  0  0  0  0  0  0  0  0  0  0
    4.1830   -2.8163    1.5276 C   0  0  0  0  0  0  0  0  0  0  0  0
    3.7265   -4.2790    1.3303 C   0  0  1  0  0  0  0  0  0  0  0  0
    2.6735   -4.4031    0.2133 C   0  0  0  0  0  0  0  0  0  0  0  0
    3.2794   -4.4578   -1.1671 C   0  0  0  0  0  0  0  0  0  0  0  0
    4.5794   -4.6827   -1.4036 C   0  0  0  0  0  0  0  0  0  0  0  0
    5.5877   -4.9214   -0.3090 C   0  0  0  0  0  0  0  0  0  0  0  0
    4.9186   -5.2109    1.0436 C   0  0  0  0  0  0  0  0  0  0  0  0
    5.4262    1.9951    1.6325 H   0  0  0  0  0  0  0  0  0  0  0  0
    3.8330    2.1786    1.9119 H   0  0  0  0  0  0  0  0  0  0  0  0
    4.5394    0.1829    3.1271 H   0  0  0  0  0  0  0  0  0  0  0  0
    5.3304   -0.3324    1.6307 H   0  0  0  0  0  0  0  0  0  0  0  0
    1.0362   -0.2295    1.5964 H   0  0  0  0  0  0  0  0  0  0  0  0
    1.8978    1.1172    2.3618 H   0  0  0  0  0  0  0  0  0  0  0  0
    0.8062   -0.8894    3.9148 H   0  0  0  0  0  0  0  0  0  0  0  0
    2.3708   -0.1963    4.3535 H   0  0  0  0  0  0  0  0  0  0  0  0
    1.8540   -2.9410    3.3002 H   0  0  0  0  0  0  0  0  0  0  0  0
    3.3356   -2.2953    4.0291 H   0  0  0  0  0  0  0  0  0  0  0  0
    5.0245   -2.8176    2.2606 H   0  0  0  0  0  0  0  0  0  0  0  0
    4.5947   -2.4388    0.5772 H   0  0  0  0  0  0  0  0  0  0  0  0
    3.2664   -4.6087    2.2776 H   0  0  0  0  0  0  0  0  0  0  0  0
    1.9763   -3.5510    0.2845 H   0  0  0  0  0  0  0  0  0  0  0  0
    2.0551   -5.3074    0.3732 H   0  0  0  0  0  0  0  0  0  0  0  0
    2.6013   -4.3030   -2.0143 H   0  0  0  0  0  0  0  0  0  0  0  0
    4.9466   -4.6899   -2.4363 H   0  0  0  0  0  0  0  0  0  0  0  0
    6.2613   -4.0453   -0.2332 H   0  0  0  0  0  0  0  0  0  0  0  0
    6.2495   -5.7608   -0.5877 H   0  0  0  0  0  0  0  0  0  0  0  0
    5.6611   -5.1454    1.8572 H   0  0  0  0  0  0  0  0  0  0  0  0
    4.5510   -6.2518    1.0420 H   0  0  0  0  0  0  0  0  0  0  0  0
  1  2  1  0
  1 16  1  0
  1 17  1  0
  2  3  1  0
  2 18  1  0
  2 19  1  0
  3  4  1  6
  3  5  1  0
  3  8  1  0
  5  6  1  0
  5 20  1  0
  5 21  1  0
  6  7  1  0
  6 22  1  0
  6 23  1  0
  7  8  1  0
  7 24  1  0
  7 25  1  0
  8  9  1  0
  9 10  1  0
  9 26  1  0
  9 27  1  0
 10 11  1  0
 10 15  1  0
 10 28  1  1
 11 12  1  0
 11 29  1  0
 11 30  1  0
 12 13  2  0
 12 31  1  0
 13 14  1  0
 13 32  1  0
 14 15  1  0
 14 33  1  0
 14 34  1  0
 15 35  1  0
 15 36  1  0
M  END

