
     RDKit          3D

 76 79  0  0  0  0  0  0  0  0999 V2000
    3.1962   -2.8227    3.9658 C   0  0  0  0  0  0  0  0  0  0  0  0
    3.5818   -2.2074    2.7127 N   0  0  0  0  0  0  0  0  0  0  0  0
    3.8326   -0.7820    2.6581 C   0  0  0  0  0  0  0  0  0  0  0  0
    3.7228   -2.9814    1.5776 C   0  0  0  0  0  0  0  0  0  0  0  0
    3.4924   -4.3800    1.5983 C   0  0  0  0  0  0  0  0  0  0  0  0
    3.6375   -5.1446    0.4463 C   0  0  0  0  0  0  0  0  0  0  0  0
    4.0166   -4.5846   -0.7906 C   0  0  0  0  0  0  0  0  0  0  0  0
    4.1499   -5.4461   -1.9592 C   0  0  0  0  0  0  0  0  0  0  0  0
    4.5016   -5.0955   -3.2179 C   0  0  0  0  0  0  0  0  0  0  0  0
    4.6046   -6.0522   -4.3231 C   0  0  0  0  0  0  0  0  0  0  0  0
    4.9768   -5.6221   -5.6069 C   0  0  0  0  0  0  0  0  0  0  0  0
    5.0608   -6.5832   -6.6310 C   0  0  0  0  0  0  0  0  0  0  0  0
    5.4465   -6.1807   -7.9870 C   0  0  0  0  0  0  0  0  0  0  0  0
    5.5519   -7.0413   -9.0255 C   0  0  0  0  0  0  0  0  0  0  0  0
    5.9259   -6.7439  -10.4033 C   0  0  0  0  0  0  0  0  0  0  0  0
    6.2466   -5.4525  -10.8745 C   0  0  0  0  0  0  0  0  0  0  0  0
    6.5980   -5.2160  -12.1959 C   0  0  0  0  0  0  0  0  0  0  0  0
    6.6518   -6.2724  -13.1449 C   0  0  0  0  0  0  0  0  0  0  0  0
    7.0011   -6.0414  -14.4609 N   0  0  0  0  0  0  0  0  0  0  0  0
    7.0474   -7.1411  -15.4021 C   0  0  0  0  0  0  0  0  0  0  0  0
    7.3263   -4.7012  -14.9035 C   0  0  0  0  0  0  0  0  0  0  0  0
    6.3308   -7.5719  -12.6780 C   0  0  0  0  0  0  0  0  0  0  0  0
    5.9812   -7.7871  -11.3498 C   0  0  0  0  0  0  0  0  0  0  0  0
    4.7900   -7.8728   -6.3766 N   0  0  0  0  0  0  0  0  0  0  0  0
    4.4404   -8.2050   -5.1229 C   0  0  0  0  0  0  0  0  0  0  0  0
    4.1380   -9.6101   -4.8190 C   0  0  0  0  0  0  0  0  0  0  0  0
    4.1855  -10.6132   -5.7233 C   0  0  0  0  0  0  0  0  0  0  0  0
    3.8998  -12.0276   -5.5010 C   0  0  0  0  0  0  0  0  0  0  0  0
    3.5162  -12.5666   -4.2544 C   0  0  0  0  0  0  0  0  0  0  0  0
    3.2530  -13.9188   -4.0856 C   0  0  0  0  0  0  0  0  0  0  0  0
    3.3593  -14.8316   -5.1691 C   0  0  0  0  0  0  0  0  0  0  0  0
    3.0998  -16.1793   -5.0045 N   0  0  0  0  0  0  0  0  0  0  0  0
    3.2065  -17.0802   -6.1326 C   0  0  0  0  0  0  0  0  0  0  0  0
    2.6976  -16.6901   -3.7107 C   0  0  0  0  0  0  0  0  0  0  0  0
    3.7428  -14.2963   -6.4239 C   0  0  0  0  0  0  0  0  0  0  0  0
    4.0020  -12.9378   -6.5716 C   0  0  0  0  0  0  0  0  0  0  0  0
    4.3380   -7.3502   -4.0922 N   0  0  0  0  0  0  0  0  0  0  0  0
    4.2452   -3.1917   -0.8044 C   0  0  0  0  0  0  0  0  0  0  0  0
    4.1060   -2.4103    0.3339 C   0  0  0  0  0  0  0  0  0  0  0  0
    3.1336   -2.0536    4.7462 H   0  0  0  0  0  0  0  0  0  0  0  0
    3.9259   -3.5835    4.3008 H   0  0  0  0  0  0  0  0  0  0  0  0
    2.2090   -3.3170    3.9015 H   0  0  0  0  0  0  0  0  0  0  0  0
    3.6674   -0.3444    3.6509 H   0  0  0  0  0  0  0  0  0  0  0  0
    3.1597   -0.2660    1.9482 H   0  0  0  0  0  0  0  0  0  0  0  0
    4.8716   -0.5502    2.3576 H   0  0  0  0  0  0  0  0  0  0  0  0
    3.1969   -4.8779    2.5210 H   0  0  0  0  0  0  0  0  0  0  0  0
    3.4507   -6.2209    0.5017 H   0  0  0  0  0  0  0  0  0  0  0  0
    3.9399   -6.5092   -1.8013 H   0  0  0  0  0  0  0  0  0  0  0  0
    4.7299   -4.0554   -3.4695 H   0  0  0  0  0  0  0  0  0  0  0  0
    5.1954   -4.5707   -5.8056 H   0  0  0  0  0  0  0  0  0  0  0  0
    5.6516   -5.1143   -8.1207 H   0  0  0  0  0  0  0  0  0  0  0  0
    5.3292   -8.0902   -8.8044 H   0  0  0  0  0  0  0  0  0  0  0  0
    6.2211   -4.6035  -10.1874 H   0  0  0  0  0  0  0  0  0  0  0  0
    6.8341   -4.1956  -12.4958 H   0  0  0  0  0  0  0  0  0  0  0  0
    7.7816   -7.9139  -15.1069 H   0  0  0  0  0  0  0  0  0  0  0  0
    7.3392   -6.7638  -16.3905 H   0  0  0  0  0  0  0  0  0  0  0  0
    6.0665   -7.6407  -15.5095 H   0  0  0  0  0  0  0  0  0  0  0  0
    6.4818   -3.9997  -14.7697 H   0  0  0  0  0  0  0  0  0  0  0  0
    7.5767   -4.7208  -15.9719 H   0  0  0  0  0  0  0  0  0  0  0  0
    8.1949   -4.2809  -14.3630 H   0  0  0  0  0  0  0  0  0  0  0  0
    6.3536   -8.4241  -13.3561 H   0  0  0  0  0  0  0  0  0  0  0  0
    5.7402   -8.8042  -11.0273 H   0  0  0  0  0  0  0  0  0  0  0  0
    3.8637   -9.7854   -3.7761 H   0  0  0  0  0  0  0  0  0  0  0  0
    4.4711  -10.3367   -6.7435 H   0  0  0  0  0  0  0  0  0  0  0  0
    3.4198  -11.9077   -3.3884 H   0  0  0  0  0  0  0  0  0  0  0  0
    2.9603  -14.2711   -3.0970 H   0  0  0  0  0  0  0  0  0  0  0  0
    4.2255  -17.0921   -6.5623 H   0  0  0  0  0  0  0  0  0  0  0  0
    2.5074  -16.8161   -6.9486 H   0  0  0  0  0  0  0  0  0  0  0  0
    2.9700  -18.1017   -5.8082 H   0  0  0  0  0  0  0  0  0  0  0  0
    3.4630  -16.5086   -2.9334 H   0  0  0  0  0  0  0  0  0  0  0  0
    2.5438  -17.7748   -3.7786 H   0  0  0  0  0  0  0  0  0  0  0  0
    1.7523  -16.2382   -3.3556 H   0  0  0  0  0  0  0  0  0  0  0  0
    3.8405  -14.9438   -7.2946 H   0  0  0  0  0  0  0  0  0  0  0  0
    4.2958  -12.5626   -7.5563 H   0  0  0  0  0  0  0  0  0  0  0  0
    4.5418   -2.7008   -1.7343 H   0  0  0  0  0  0  0  0  0  0  0  0
    4.2973   -1.3407    0.2562 H   0  0  0  0  0  0  0  0  0  0  0  0
  1  2  1  0
  1 40  1  0
  1 41  1  0
  1 42  1  0
  2  3  1  0
  2  4  1  0
  3 43  1  0
  3 44  1  0
  3 45  1  0
  4  5  2  0
  4 39  1  0
  5  6  1  0
  5 46  1  0
  6  7  2  0
  6 47  1  0
  7  8  1  0
  7 38  1  0
  8  9  2  0
  8 48  1  0
  9 10  1  0
  9 49  1  0
 10 11  2  0
 10 37  1  0
 11 12  1  0
 11 50  1  0
 12 13  1  0
 12 24  2  0
 13 14  2  0
 13 51  1  0
 14 15  1  0
 14 52  1  0
 15 16  2  0
 15 23  1  0
 16 17  1  0
 16 53  1  0
 17 18  2  0
 17 54  1  0
 18 19  1  0
 18 22  1  0
 19 20  1  0
 19 21  1  0
 20 55  1  0
 20 56  1  0
 20 57  1  0
 21 58  1  0
 21 59  1  0
 21 60  1  0
 22 23  2  0
 22 61  1  0
 23 62  1  0
 24 25  1  0
 25 26  1  0
 25 37  2  0
 26 27  2  0
 26 63  1  0
 27 28  1  0
 27 64  1  0
 28 29  2  0
 28 36  1  0
 29 30  1  0
 29 65  1  0
 30 31  2  0
 30 66  1  0
 31 32  1  0
 31 35  1  0
 32 33  1  0
 32 34  1  0
 33 67  1  0
 33 68  1  0
 33 69  1  0
 34 70  1  0
 34 71  1  0
 34 72  1  0
 35 36  2  0
 35 73  1  0
 36 74  1  0
 38 39  2  0
 38 75  1  0
 39 76  1  0
M  END

