
     RDKit          3D

 42 41  0  0  0  0  0  0  0  0999 V2000
    8.6441   -2.1213    2.4663 C   0  0  0  0  0  0  0  0  0  0  0  0
    8.4983   -1.0572    1.3697 C   0  0  1  0  0  0  0  0  0  0  0  0
    9.3150   -1.4392    0.1286 C   0  0  0  0  0  0  0  0  0  0  0  0
    7.0296   -0.7965    0.9850 C   0  0  0  0  0  0  0  0  0  0  0  0
    6.1184   -0.2693    2.1029 C   0  0  0  0  0  0  0  0  0  0  0  0
    6.5672    0.9825    2.6978 N   0  0  0  0  0  0  0  0  0  0  0  0
    6.2099    2.1996    2.2221 C   0  0  0  0  0  0  0  0  0  0  0  0
    5.4148    2.3490    1.2950 O   0  0  0  0  0  0  0  0  0  0  0  0
    6.8886    3.3870    2.9135 C   0  0  0  0  0  0  0  0  0  0  0  0
    8.3057    3.4625    2.5675 N   0  0  0  0  0  0  0  0  0  0  0  0
    8.5259    3.5278    1.1147 C   0  0  0  0  0  0  0  0  0  0  0  0
    7.9638    4.7684    0.4012 C   0  0  0  0  0  0  0  0  0  0  0  0
    6.6712    4.6821    0.0476 N   0  0  0  0  0  0  0  0  0  0  0  0
    8.8927    6.1200    0.1147 S   0  0  0  0  0  0  0  0  0  0  0  0
    9.0884    4.4133    3.3969 C   0  0  1  0  0  0  0  0  0  0  0  0
    8.9654    4.0708    4.8887 C   0  0  0  0  0  0  0  0  0  0  0  0
   10.5687    4.4145    2.9982 C   0  0  0  0  0  0  0  0  0  0  0  0
    9.7042   -2.2903    2.7146 H   0  0  0  0  0  0  0  0  0  0  0  0
    8.2227   -3.0872    2.1377 H   0  0  0  0  0  0  0  0  0  0  0  0
    8.1327   -1.8400    3.4013 H   0  0  0  0  0  0  0  0  0  0  0  0
    8.9137   -0.1077    1.7576 H   0  0  0  0  0  0  0  0  0  0  0  0
    8.9479   -2.3827   -0.3110 H   0  0  0  0  0  0  0  0  0  0  0  0
   10.3794   -1.5800    0.3763 H   0  0  0  0  0  0  0  0  0  0  0  0
    9.2514   -0.6629   -0.6508 H   0  0  0  0  0  0  0  0  0  0  0  0
    6.5834   -1.7314    0.5982 H   0  0  0  0  0  0  0  0  0  0  0  0
    6.9979   -0.0749    0.1509 H   0  0  0  0  0  0  0  0  0  0  0  0
    6.0140   -1.0116    2.9102 H   0  0  0  0  0  0  0  0  0  0  0  0
    5.1145   -0.0861    1.6946 H   0  0  0  0  0  0  0  0  0  0  0  0
    7.3167    0.9602    3.3804 H   0  0  0  0  0  0  0  0  0  0  0  0
    6.7896    3.2479    3.9983 H   0  0  0  0  0  0  0  0  0  0  0  0
    6.3105    4.2935    2.6470 H   0  0  0  0  0  0  0  0  0  0  0  0
    8.0775    2.6284    0.6603 H   0  0  0  0  0  0  0  0  0  0  0  0
    9.5991    3.4816    0.9116 H   0  0  0  0  0  0  0  0  0  0  0  0
    6.0873    3.8737    0.2904 H   0  0  0  0  0  0  0  0  0  0  0  0
    6.2418    5.4943   -0.3841 H   0  0  0  0  0  0  0  0  0  0  0  0
    8.7044    5.4455    3.2495 H   0  0  0  0  0  0  0  0  0  0  0  0
    9.2651    3.0250    5.0722 H   0  0  0  0  0  0  0  0  0  0  0  0
    7.9524    4.2178    5.2913 H   0  0  0  0  0  0  0  0  0  0  0  0
    9.6327    4.7226    5.4721 H   0  0  0  0  0  0  0  0  0  0  0  0
   10.9798    3.3911    3.0192 H   0  0  0  0  0  0  0  0  0  0  0  0
   11.1393    5.0254    3.7139 H   0  0  0  0  0  0  0  0  0  0  0  0
   10.7254    4.8523    2.0029 H   0  0  0  0  0  0  0  0  0  0  0  0
  1  2  1  0
  1 18  1  0
  1 19  1  0
  1 20  1  0
  2  3  1  0
  2  4  1  0
  2 21  1  1
  3 22  1  0
  3 23  1  0
  3 24  1  0
  4  5  1  0
  4 25  1  0
  4 26  1  0
  5  6  1  0
  5 27  1  0
  5 28  1  0
  6  7  1  0
  6 29  1  0
  7  8  2  0
  7  9  1  0
  9 10  1  0
  9 30  1  0
  9 31  1  0
 10 11  1  0
 10 15  1  0
 11 12  1  0
 11 32  1  0
 11 33  1  0
 12 13  1  0
 12 14  2  0
 13 34  1  0
 13 35  1  0
 15 16  1  0
 15 17  1  0
 15 36  1  1
 16 37  1  0
 16 38  1  0
 16 39  1  0
 17 40  1  0
 17 41  1  0
 17 42  1  0
M  END

