
     RDKit          3D

 46 45  0  0  0  0  0  0  0  0999 V2000
    2.7768    2.3314   -1.6662 C   0  0  0  0  0  0  0  0  0  0  0  0
    3.5206    1.2637   -0.8629 C   0  0  0  0  0  0  0  0  0  0  0  0
    4.2424    0.2355   -1.7390 C   0  0  0  0  0  0  0  0  0  0  0  0
    4.9966   -0.8356   -0.9288 C   0  0  0  0  0  0  0  0  0  0  0  0
    5.6361   -1.8753   -1.7952 C   0  0  0  0  0  0  0  0  0  0  0  0
    6.9393   -2.2170   -1.8777 C   0  0  0  0  0  0  0  0  0  0  0  0
    8.0698   -1.6156   -1.0838 C   0  0  0  0  0  0  0  0  0  0  0  0
    7.2646   -3.3021   -2.8550 C   0  0  0  0  0  0  0  0  0  0  0  0
    6.4824   -3.8785   -3.5708 O   0  0  0  0  0  0  0  0  0  0  0  0
    8.6054   -3.5762   -2.8563 O   0  0  0  0  0  0  0  0  0  0  0  0
    9.0607   -4.6134   -3.6968 C   0  0  0  0  0  0  0  0  0  0  0  0
    8.9950   -5.8580   -3.0275 O   0  0  0  0  0  0  0  0  0  0  0  0
   10.0465   -6.2082   -2.2491 C   0  0  0  0  0  0  0  0  0  0  0  0
   11.0288   -5.5290   -2.1076 O   0  0  0  0  0  0  0  0  0  0  0  0
    9.8014   -7.5695   -1.5652 C   0  0  1  0  0  0  0  0  0  0  0  0
   11.0461   -7.9545   -0.7600 C   0  0  0  0  0  0  0  0  0  0  0  0
    8.5587   -7.4416   -0.6657 C   0  0  0  0  0  0  0  0  0  0  0  0
    9.5998   -8.4601   -2.6608 O   0  0  0  0  0  0  0  0  0  0  0  0
    9.1085   -9.7616   -2.4043 C   0  0  0  0  0  0  0  0  0  0  0  0
    9.1688  -10.5450   -3.7041 C   0  0  0  0  0  0  0  0  0  0  0  0
    2.2693    3.0528   -1.0061 H   0  0  0  0  0  0  0  0  0  0  0  0
    2.0101    1.8810   -2.3187 H   0  0  0  0  0  0  0  0  0  0  0  0
    3.4661    2.8999   -2.3127 H   0  0  0  0  0  0  0  0  0  0  0  0
    2.8105    0.7384   -0.1984 H   0  0  0  0  0  0  0  0  0  0  0  0
    4.2539    1.7492   -0.1934 H   0  0  0  0  0  0  0  0  0  0  0  0
    4.9553    0.7527   -2.4060 H   0  0  0  0  0  0  0  0  0  0  0  0
    3.5114   -0.2587   -2.4047 H   0  0  0  0  0  0  0  0  0  0  0  0
    4.2699   -1.3415   -0.2639 H   0  0  0  0  0  0  0  0  0  0  0  0
    5.7322   -0.3505   -0.2683 H   0  0  0  0  0  0  0  0  0  0  0  0
    4.9582   -2.4253   -2.4589 H   0  0  0  0  0  0  0  0  0  0  0  0
    7.7181   -0.8318   -0.4004 H   0  0  0  0  0  0  0  0  0  0  0  0
    8.8305   -1.1787   -1.7501 H   0  0  0  0  0  0  0  0  0  0  0  0
    8.5895   -2.3846   -0.4905 H   0  0  0  0  0  0  0  0  0  0  0  0
   10.1002   -4.3713   -3.9465 H   0  0  0  0  0  0  0  0  0  0  0  0
    8.4112   -4.7086   -4.5742 H   0  0  0  0  0  0  0  0  0  0  0  0
   11.2643   -7.1987    0.0077 H   0  0  0  0  0  0  0  0  0  0  0  0
   11.9187   -8.0276   -1.4238 H   0  0  0  0  0  0  0  0  0  0  0  0
   10.8971   -8.9219   -0.2578 H   0  0  0  0  0  0  0  0  0  0  0  0
    8.6919   -6.6177    0.0526 H   0  0  0  0  0  0  0  0  0  0  0  0
    8.3962   -8.3626   -0.0861 H   0  0  0  0  0  0  0  0  0  0  0  0
    7.6668   -7.2342   -1.2732 H   0  0  0  0  0  0  0  0  0  0  0  0
    8.0655   -9.7246   -2.0351 H   0  0  0  0  0  0  0  0  0  0  0  0
    9.7103  -10.2718   -1.6265 H   0  0  0  0  0  0  0  0  0  0  0  0
    8.5696  -10.0452   -4.4807 H   0  0  0  0  0  0  0  0  0  0  0  0
    8.7758  -11.5638   -3.5599 H   0  0  0  0  0  0  0  0  0  0  0  0
   10.2059  -10.6164   -4.0663 H   0  0  0  0  0  0  0  0  0  0  0  0
  1  2  1  0
  1 21  1  0
  1 22  1  0
  1 23  1  0
  2  3  1  0
  2 24  1  0
  2 25  1  0
  3  4  1  0
  3 26  1  0
  3 27  1  0
  4  5  1  0
  4 28  1  0
  4 29  1  0
  5  6  2  0
  5 30  1  0
  6  7  1  0
  6  8  1  0
  7 31  1  0
  7 32  1  0
  7 33  1  0
  8  9  2  0
  8 10  1  0
 10 11  1  0
 11 12  1  0
 11 34  1  0
 11 35  1  0
 12 13  1  0
 13 14  2  0
 13 15  1  0
 15 16  1  0
 15 17  1  0
 15 18  1  6
 16 36  1  0
 16 37  1  0
 16 38  1  0
 17 39  1  0
 17 40  1  0
 17 41  1  0
 18 19  1  0
 19 20  1  0
 19 42  1  0
 19 43  1  0
 20 44  1  0
 20 45  1  0
 20 46  1  0
M  END

