
     RDKit          3D

 49 51  0  0  0  0  0  0  0  0999 V2000
    1.4451    1.0060   -0.2653 C   0  0  0  0  0  0  0  0  0  0  0  0
    1.6712    1.1470   -1.7618 C   0  0  0  0  0  0  0  0  0  0  0  0
    2.2172   -0.0533   -2.3345 O   0  0  0  0  0  0  0  0  0  0  0  0
    3.5579   -0.2068   -2.2983 C   0  0  0  0  0  0  0  0  0  0  0  0
    4.3075    0.6125   -1.8153 O   0  0  0  0  0  0  0  0  0  0  0  0
    4.0029   -1.4878   -2.9201 C   0  0  0  0  0  0  0  0  0  0  0  0
    5.3923   -1.7585   -2.9478 C   0  0  0  0  0  0  0  0  0  0  0  0
    5.8837   -2.9261   -3.5086 C   0  0  0  0  0  0  0  0  0  0  0  0
    4.9826   -3.8604   -4.0608 C   0  0  0  0  0  0  0  0  0  0  0  0
    5.3318   -5.0486   -4.6438 N   0  0  0  0  0  0  0  0  0  0  0  0
    4.2820   -5.6933   -5.0593 C   0  0  0  0  0  0  0  0  0  0  0  0
    4.1834   -6.9213   -5.6951 N   0  0  0  0  0  0  0  0  0  0  0  0
    5.2896   -7.4915   -5.9309 N   0  0  0  0  0  0  0  0  0  0  0  0
    5.2123   -8.7230   -6.5652 C   0  0  0  0  0  0  0  0  0  0  0  0
    4.0168   -9.3726   -6.9515 C   0  0  0  0  0  0  0  0  0  0  0  0
    4.0477  -10.6044   -7.5758 C   0  0  0  0  0  0  0  0  0  0  0  0
    5.2812  -11.2668   -7.8651 C   0  0  0  0  0  0  0  0  0  0  0  0
    5.3093  -12.4788   -8.5188 N   0  0  0  0  0  0  0  0  0  0  0  0
    4.0764  -13.1588   -8.9130 C   0  0  0  0  0  0  0  0  0  0  0  0
    3.3918  -13.9658   -7.8044 C   0  0  0  0  0  0  0  0  0  0  0  0
    6.5733  -13.1611   -8.7912 C   0  0  0  0  0  0  0  0  0  0  0  0
    7.1481  -13.9653   -7.6197 C   0  0  0  0  0  0  0  0  0  0  0  0
    6.4762  -10.6074   -7.4590 C   0  0  0  0  0  0  0  0  0  0  0  0
    6.4340   -9.3720   -6.8339 C   0  0  0  0  0  0  0  0  0  0  0  0
    2.7174   -4.8967   -4.7716 S   0  0  0  0  0  0  0  0  0  0  0  0
    3.5833   -3.5773   -4.0265 C   0  0  0  0  0  0  0  0  0  0  0  0
    3.0888   -2.4003   -3.4618 C   0  0  0  0  0  0  0  0  0  0  0  0
    0.9552    1.9120    0.1265 H   0  0  0  0  0  0  0  0  0  0  0  0
    2.4014    0.8789    0.2630 H   0  0  0  0  0  0  0  0  0  0  0  0
    0.7992    0.1421   -0.0435 H   0  0  0  0  0  0  0  0  0  0  0  0
    2.3492    1.9858   -1.9780 H   0  0  0  0  0  0  0  0  0  0  0  0
    0.7223    1.3048   -2.2951 H   0  0  0  0  0  0  0  0  0  0  0  0
    6.0646   -1.0169   -2.5131 H   0  0  0  0  0  0  0  0  0  0  0  0
    6.9527   -3.1445   -3.5357 H   0  0  0  0  0  0  0  0  0  0  0  0
    3.0669   -8.8790   -6.7413 H   0  0  0  0  0  0  0  0  0  0  0  0
    3.1006  -11.0686   -7.8457 H   0  0  0  0  0  0  0  0  0  0  0  0
    4.3285  -13.8284   -9.7498 H   0  0  0  0  0  0  0  0  0  0  0  0
    3.3733  -12.4191   -9.3279 H   0  0  0  0  0  0  0  0  0  0  0  0
    4.0393  -14.7774   -7.4390 H   0  0  0  0  0  0  0  0  0  0  0  0
    2.4629  -14.4203   -8.1855 H   0  0  0  0  0  0  0  0  0  0  0  0
    3.1308  -13.3309   -6.9440 H   0  0  0  0  0  0  0  0  0  0  0  0
    7.3133  -12.4222   -9.1385 H   0  0  0  0  0  0  0  0  0  0  0  0
    6.4023  -13.8329   -9.6464 H   0  0  0  0  0  0  0  0  0  0  0  0
    7.3267  -13.3283   -6.7402 H   0  0  0  0  0  0  0  0  0  0  0  0
    8.1086  -14.4217   -7.9091 H   0  0  0  0  0  0  0  0  0  0  0  0
    6.4676  -14.7752   -7.3157 H   0  0  0  0  0  0  0  0  0  0  0  0
    7.4475  -11.0666   -7.6326 H   0  0  0  0  0  0  0  0  0  0  0  0
    7.3540   -8.8689   -6.5284 H   0  0  0  0  0  0  0  0  0  0  0  0
    2.0215   -2.1815   -3.4343 H   0  0  0  0  0  0  0  0  0  0  0  0
  1  2  1  0
  1 28  1  0
  1 29  1  0
  1 30  1  0
  2  3  1  0
  2 31  1  0
  2 32  1  0
  3  4  1  0
  4  5  2  0
  4  6  1  0
  6  7  2  0
  6 27  1  0
  7  8  1  0
  7 33  1  0
  8  9  2  0
  8 34  1  0
  9 10  1  0
  9 26  1  0
 10 11  2  0
 11 12  1  0
 11 25  1  0
 12 13  2  0
 13 14  1  0
 14 15  2  0
 14 24  1  0
 15 16  1  0
 15 35  1  0
 16 17  2  0
 16 36  1  0
 17 18  1  0
 17 23  1  0
 18 19  1  0
 18 21  1  0
 19 20  1  0
 19 37  1  0
 19 38  1  0
 20 39  1  0
 20 40  1  0
 20 41  1  0
 21 22  1  0
 21 42  1  0
 21 43  1  0
 22 44  1  0
 22 45  1  0
 22 46  1  0
 23 24  2  0
 23 47  1  0
 24 48  1  0
 25 26  1  0
 26 27  2  0
 27 49  1  0
M  END

