
     RDKit          3D

 35 36  0  0  0  0  0  0  0  0999 V2000
    1.3075    0.2773    0.8052 N   0  0  0  0  0  0  0  0  0  0  0  0
    2.4490    0.2061    0.6018 C   0  0  0  0  0  0  0  0  0  0  0  0
    3.8586    0.1194    0.3498 C   0  0  0  0  0  0  0  0  0  0  0  0
    4.6217    1.2877    0.1376 C   0  0  0  0  0  0  0  0  0  0  0  0
    5.9841    1.2010   -0.1071 C   0  0  0  0  0  0  0  0  0  0  0  0
    6.6206   -0.0537   -0.1467 C   0  0  0  0  0  0  0  0  0  0  0  0
    7.9507   -0.0370   -0.3953 O   0  0  0  0  0  0  0  0  0  0  0  0
    8.6788   -1.2493   -0.4493 C   0  0  0  0  0  0  0  0  0  0  0  0
   10.1284   -0.8633   -0.7190 C   0  0  0  0  0  0  0  0  0  0  0  0
   10.9226   -2.0312   -0.9560 O   0  0  0  0  0  0  0  0  0  0  0  0
   11.4007   -2.6840    0.1126 C   0  0  0  0  0  0  0  0  0  0  0  0
   11.2083   -2.3351    1.2530 O   0  0  0  0  0  0  0  0  0  0  0  0
   12.2549   -3.8719   -0.2375 C   0  0  0  0  0  0  0  0  0  0  0  0
   13.1515   -4.2628    0.7699 C   0  0  0  0  0  0  0  0  0  0  0  0
   14.0079   -5.3368    0.5711 C   0  0  0  0  0  0  0  0  0  0  0  0
   14.9520   -5.7141    1.6451 N   0  0  0  0  0  0  0  0  0  0  0  0
   14.9393   -5.0471    2.6649 O   0  0  0  0  0  0  0  0  0  0  0  0
   15.6809   -6.6696    1.4354 O   0  0  0  0  0  0  0  0  0  0  0  0
   13.9968   -6.0718   -0.6152 C   0  0  0  0  0  0  0  0  0  0  0  0
   13.0970   -5.7114   -1.6115 C   0  0  0  0  0  0  0  0  0  0  0  0
   12.2289   -4.6217   -1.4356 C   0  0  0  0  0  0  0  0  0  0  0  0
   11.1188   -4.3083   -2.7375 Cl  0  0  0  0  0  0  0  0  0  0  0  0
    5.8702   -1.2222    0.0638 C   0  0  0  0  0  0  0  0  0  0  0  0
    4.5002   -1.1298    0.3100 C   0  0  0  0  0  0  0  0  0  0  0  0
    4.1330    2.2635    0.1674 H   0  0  0  0  0  0  0  0  0  0  0  0
    6.5876    2.0953   -0.2725 H   0  0  0  0  0  0  0  0  0  0  0  0
    8.3077   -1.9003   -1.2618 H   0  0  0  0  0  0  0  0  0  0  0  0
    8.6029   -1.7981    0.5053 H   0  0  0  0  0  0  0  0  0  0  0  0
   10.5351   -0.2912    0.1266 H   0  0  0  0  0  0  0  0  0  0  0  0
   10.1939   -0.2663   -1.6382 H   0  0  0  0  0  0  0  0  0  0  0  0
   13.1700   -3.7137    1.7107 H   0  0  0  0  0  0  0  0  0  0  0  0
   14.6810   -6.9113   -0.7367 H   0  0  0  0  0  0  0  0  0  0  0  0
   13.0503   -6.2749   -2.5442 H   0  0  0  0  0  0  0  0  0  0  0  0
    6.3404   -2.2050    0.0397 H   0  0  0  0  0  0  0  0  0  0  0  0
    3.9187   -2.0391    0.4739 H   0  0  0  0  0  0  0  0  0  0  0  0
  1  2  3  0
  2  3  1  0
  3  4  2  0
  3 24  1  0
  4  5  1  0
  4 25  1  0
  5  6  2  0
  5 26  1  0
  6  7  1  0
  6 23  1  0
  7  8  1  0
  8  9  1  0
  8 27  1  0
  8 28  1  0
  9 10  1  0
  9 29  1  0
  9 30  1  0
 10 11  1  0
 11 12  2  0
 11 13  1  0
 13 14  2  0
 13 21  1  0
 14 15  1  0
 14 31  1  0
 15 16  1  0
 15 19  2  0
 16 17  2  0
 16 18  1  0
 19 20  1  0
 19 32  1  0
 20 21  2  0
 20 33  1  0
 21 22  1  0
 23 24  2  0
 23 34  1  0
 24 35  1  0
M  CHG  2  16   1  18  -1
M  END

