
     RDKit          3D

 41 42  0  0  0  0  0  0  0  0999 V2000
    0.6538   -0.0931    2.1001 C   0  0  0  0  0  0  0  0  0  0  0  0
    2.1820   -0.0225    2.1038 C   0  0  0  0  0  0  0  0  0  0  0  0
    2.7501    0.7883    0.9330 C   0  0  0  0  0  0  0  0  0  0  0  0
    4.2836    0.9608    0.9411 C   0  0  1  0  0  0  0  0  0  0  0  0
    5.0650   -0.3530    0.7217 C   0  0  0  0  0  0  0  0  0  0  0  0
    5.0198   -0.8354   -0.7365 C   0  0  0  0  0  0  0  0  0  0  0  0
    5.5162    0.2346   -1.7319 C   0  0  2  0  0  0  0  0  0  0  0  0
    6.9447    0.5161   -1.5679 N   0  0  0  0  0  0  0  0  0  0  0  0
    7.7648    0.3919   -2.7607 C   0  0  0  0  0  0  0  0  0  0  0  0
    4.6561    1.5035   -1.5233 C   0  0  2  0  0  0  0  0  0  0  0  0
    5.1461    2.8808   -2.6684 S   0  0  0  0  0  0  0  0  0  0  0  0
    4.1989    2.4482   -4.0738 C   0  0  0  0  0  0  0  0  0  0  0  0
    3.4098    1.3995   -4.2496 N   0  0  0  0  0  0  0  0  0  0  0  0
    2.9032    1.5186   -5.4986 N   0  0  0  0  0  0  0  0  0  0  0  0
    3.3413    2.5709   -6.0844 N   0  0  0  0  0  0  0  0  0  0  0  0
    4.1705    3.1895   -5.2079 N   0  0  0  0  0  0  0  0  0  0  0  0
    4.8473    4.4262   -5.5344 C   0  0  0  0  0  0  0  0  0  0  0  0
    4.7566    2.0188   -0.0831 C   0  0  0  0  0  0  0  0  0  0  0  0
    0.2738   -0.6799    2.9516 H   0  0  0  0  0  0  0  0  0  0  0  0
    0.2764   -0.5639    1.1769 H   0  0  0  0  0  0  0  0  0  0  0  0
    0.2052    0.9126    2.1621 H   0  0  0  0  0  0  0  0  0  0  0  0
    2.5901   -1.0481    2.0869 H   0  0  0  0  0  0  0  0  0  0  0  0
    2.5287    0.4230    3.0544 H   0  0  0  0  0  0  0  0  0  0  0  0
    2.2929    1.7944    0.9518 H   0  0  0  0  0  0  0  0  0  0  0  0
    2.4135    0.3316   -0.0149 H   0  0  0  0  0  0  0  0  0  0  0  0
    4.5516    1.3453    1.9418 H   0  0  0  0  0  0  0  0  0  0  0  0
    4.6888   -1.1453    1.3884 H   0  0  0  0  0  0  0  0  0  0  0  0
    6.1142   -0.1879    1.0245 H   0  0  0  0  0  0  0  0  0  0  0  0
    3.9890   -1.1171   -1.0080 H   0  0  0  0  0  0  0  0  0  0  0  0
    5.6274   -1.7485   -0.8589 H   0  0  0  0  0  0  0  0  0  0  0  0
    5.3219   -0.1371   -2.7531 H   0  0  0  0  0  0  0  0  0  0  0  0
    7.3366   -0.0475   -0.8183 H   0  0  0  0  0  0  0  0  0  0  0  0
    7.4786    1.1558   -3.4999 H   0  0  0  0  0  0  0  0  0  0  0  0
    7.7003   -0.5988   -3.2627 H   0  0  0  0  0  0  0  0  0  0  0  0
    8.8210    0.5702   -2.5021 H   0  0  0  0  0  0  0  0  0  0  0  0
    3.6150    1.2787   -1.7925 H   0  0  0  0  0  0  0  0  0  0  0  0
    4.5404    4.7101   -6.5484 H   0  0  0  0  0  0  0  0  0  0  0  0
    5.9394    4.2910   -5.5036 H   0  0  0  0  0  0  0  0  0  0  0  0
    4.5639    5.2200   -4.8265 H   0  0  0  0  0  0  0  0  0  0  0  0
    4.1692    2.9439    0.0312 H   0  0  0  0  0  0  0  0  0  0  0  0
    5.8122    2.2701    0.1152 H   0  0  0  0  0  0  0  0  0  0  0  0
  1  2  1  0
  1 19  1  0
  1 20  1  0
  1 21  1  0
  2  3  1  0
  2 22  1  0
  2 23  1  0
  3  4  1  0
  3 24  1  0
  3 25  1  0
  4  5  1  0
  4 18  1  0
  4 26  1  1
  5  6  1  0
  5 27  1  0
  5 28  1  0
  6  7  1  0
  6 29  1  0
  6 30  1  0
  7  8  1  0
  7 10  1  0
  7 31  1  6
  8  9  1  0
  8 32  1  0
  9 33  1  0
  9 34  1  0
  9 35  1  0
 10 11  1  0
 10 18  1  0
 10 36  1  6
 11 12  1  0
 12 13  2  0
 12 16  1  0
 13 14  1  0
 14 15  2  0
 15 16  1  0
 16 17  1  0
 17 37  1  0
 17 38  1  0
 17 39  1  0
 18 40  1  0
 18 41  1  0
M  END

