
     RDKit          3D

 53 54  0  0  0  0  0  0  0  0999 V2000
    7.2494  -11.5315    6.1464 C   0  0  0  0  0  0  0  0  0  0  0  0
    7.0727  -10.0134    6.0935 C   0  0  0  0  0  0  0  0  0  0  0  0
    8.0104   -9.3211    5.0993 C   0  0  0  0  0  0  0  0  0  0  0  0
    7.8401   -7.8004    5.0400 C   0  0  0  0  0  0  0  0  0  0  0  0
    8.7789   -7.1098    4.0467 C   0  0  0  0  0  0  0  0  0  0  0  0
    8.6050   -5.5886    3.9844 C   0  0  0  0  0  0  0  0  0  0  0  0
    9.5650   -4.9148    2.9998 C   0  0  0  0  0  0  0  0  0  0  0  0
    9.3385   -3.4239    2.7645 C   0  0  2  0  0  0  0  0  0  0  0  0
    8.2819   -3.2512    2.4678 H   0  0  0  0  0  0  0  0  0  0  0  0
   10.2104   -3.0033    1.7227 O   0  0  0  0  0  0  0  0  0  0  0  0
   10.6090   -1.6510    1.9294 C   0  0  2  0  0  0  0  0  0  0  0  0
    9.9684   -0.7404    0.8863 C   0  0  0  0  0  0  0  0  0  0  0  0
   12.1345   -1.5870    1.9161 C   0  0  0  0  0  0  0  0  0  0  0  0
   10.1018   -1.2877    3.2122 O   0  0  0  0  0  0  0  0  0  0  0  0
    9.7000   -2.4577    3.9098 C   0  0  1  0  0  0  0  0  0  0  0  0
   10.5533   -2.8736    4.4845 H   0  0  0  0  0  0  0  0  0  0  0  0
    8.5618   -2.1029    4.8714 C   0  0  0  0  0  0  0  0  0  0  0  0
    8.9761   -1.2078    6.0191 C   0  0  0  0  0  0  0  0  0  0  0  0
    9.2659    0.1549    5.8042 C   0  0  0  0  0  0  0  0  0  0  0  0
    9.6555    0.9740    6.8579 C   0  0  0  0  0  0  0  0  0  0  0  0
    9.7668    0.4520    8.1591 C   0  0  0  0  0  0  0  0  0  0  0  0
   10.1791    1.3228    9.2854 C   0  0  0  0  0  0  0  0  0  0  0  0
   10.4428    2.5000    9.1907 O   0  0  0  0  0  0  0  0  0  0  0  0
    9.4817   -0.9021    8.3811 C   0  0  0  0  0  0  0  0  0  0  0  0
    9.0904   -1.7213    7.3208 C   0  0  0  0  0  0  0  0  0  0  0  0
    6.5602  -11.9950    6.8703 H   0  0  0  0  0  0  0  0  0  0  0  0
    8.2760  -11.8058    6.4423 H   0  0  0  0  0  0  0  0  0  0  0  0
    7.0573  -11.9922    5.1627 H   0  0  0  0  0  0  0  0  0  0  0  0
    7.2343   -9.5877    7.1008 H   0  0  0  0  0  0  0  0  0  0  0  0
    6.0260   -9.7725    5.8323 H   0  0  0  0  0  0  0  0  0  0  0  0
    7.8494   -9.7459    4.0907 H   0  0  0  0  0  0  0  0  0  0  0  0
    9.0584   -9.5611    5.3596 H   0  0  0  0  0  0  0  0  0  0  0  0
    8.0003   -7.3764    6.0491 H   0  0  0  0  0  0  0  0  0  0  0  0
    6.7924   -7.5607    4.7788 H   0  0  0  0  0  0  0  0  0  0  0  0
    8.6216   -7.5340    3.0378 H   0  0  0  0  0  0  0  0  0  0  0  0
    9.8269   -7.3454    4.3090 H   0  0  0  0  0  0  0  0  0  0  0  0
    8.7474   -5.1749    4.9988 H   0  0  0  0  0  0  0  0  0  0  0  0
    7.5612   -5.3535    3.7050 H   0  0  0  0  0  0  0  0  0  0  0  0
    9.4811   -5.4062    2.0155 H   0  0  0  0  0  0  0  0  0  0  0  0
   10.6108   -5.0600    3.3227 H   0  0  0  0  0  0  0  0  0  0  0  0
   10.3257   -1.0036   -0.1202 H   0  0  0  0  0  0  0  0  0  0  0  0
   10.2193    0.3118    1.0882 H   0  0  0  0  0  0  0  0  0  0  0  0
    8.8747   -0.8519    0.9147 H   0  0  0  0  0  0  0  0  0  0  0  0
   12.5224   -1.9497    0.9525 H   0  0  0  0  0  0  0  0  0  0  0  0
   12.5444   -2.2214    2.7156 H   0  0  0  0  0  0  0  0  0  0  0  0
   12.4777   -0.5536    2.0729 H   0  0  0  0  0  0  0  0  0  0  0  0
    7.7689   -1.6152    4.2801 H   0  0  0  0  0  0  0  0  0  0  0  0
    8.1407   -3.0367    5.2725 H   0  0  0  0  0  0  0  0  0  0  0  0
    9.1926    0.5578    4.7925 H   0  0  0  0  0  0  0  0  0  0  0  0
    9.8814    2.0315    6.7020 H   0  0  0  0  0  0  0  0  0  0  0  0
   10.2345    0.7992   10.2769 H   0  0  0  0  0  0  0  0  0  0  0  0
    9.5644   -1.3136    9.3919 H   0  0  0  0  0  0  0  0  0  0  0  0
    8.8642   -2.7752    7.5062 H   0  0  0  0  0  0  0  0  0  0  0  0
  1  2  1  0
  1 26  1  0
  1 27  1  0
  1 28  1  0
  2  3  1  0
  2 29  1  0
  2 30  1  0
  3  4  1  0
  3 31  1  0
  3 32  1  0
  4  5  1  0
  4 33  1  0
  4 34  1  0
  5  6  1  0
  5 35  1  0
  5 36  1  0
  6  7  1  0
  6 37  1  0
  6 38  1  0
  7  8  1  0
  7 39  1  0
  7 40  1  0
  8  9  1  6
  8 10  1  0
  8 15  1  0
 10 11  1  0
 11 12  1  6
 11 13  1  0
 11 14  1  0
 12 41  1  0
 12 42  1  0
 12 43  1  0
 13 44  1  0
 13 45  1  0
 13 46  1  0
 14 15  1  0
 15 16  1  1
 15 17  1  0
 17 18  1  0
 17 47  1  0
 17 48  1  0
 18 19  2  0
 18 25  1  0
 19 20  1  0
 19 49  1  0
 20 21  2  0
 20 50  1  0
 21 22  1  0
 21 24  1  0
 22 23  2  0
 22 51  1  0
 24 25  2  0
 24 52  1  0
 25 53  1  0
M  END

