
     RDKit          3D

 46 48  0  0  0  0  0  0  0  0999 V2000
    5.1557    1.9592    0.2711 C   0  0  0  0  0  0  0  0  0  0  0  0
    3.7263    1.5500   -0.0984 C   0  0  1  0  0  0  0  0  0  0  0  0
    3.1059    0.6165    0.9460 C   0  0  0  0  0  0  0  0  0  0  0  0
    2.8467    2.7832   -0.3126 C   0  0  0  0  0  0  0  0  0  0  0  0
    3.7143    0.9088   -1.4188 O   0  0  0  0  0  0  0  0  0  0  0  0
    4.3833   -0.2354   -1.6644 C   0  0  0  0  0  0  0  0  0  0  0  0
    5.0398   -0.8637   -0.8555 O   0  0  0  0  0  0  0  0  0  0  0  0
    4.2222   -0.6104   -2.9768 N   0  0  0  0  0  0  0  0  0  0  0  0
    3.7230    0.3199   -4.0032 C   0  0  0  0  0  0  0  0  0  0  0  0
    4.0379   -0.3849   -5.3279 C   0  0  0  0  0  0  0  0  0  0  0  0
    5.2483   -1.2709   -4.9956 C   0  0  0  0  0  0  0  0  0  0  0  0
    5.0363   -1.6990   -3.5278 C   0  0  2  0  0  0  0  0  0  0  0  0
    5.9903   -1.7372   -2.9818 H   0  0  0  0  0  0  0  0  0  0  0  0
    4.4607   -3.1566   -3.3869 C   0  0  2  0  0  0  0  0  0  0  0  0
    3.1014   -3.4341   -4.0463 C   0  0  0  0  0  0  0  0  0  0  0  0
    1.9199   -2.8106   -3.2743 C   0  0  1  0  0  0  0  0  0  0  0  0
    1.8667   -1.7250   -3.4924 H   0  0  0  0  0  0  0  0  0  0  0  0
    0.6904   -3.4237   -3.6362 O   0  0  0  0  0  0  0  0  0  0  0  0
    2.0633   -2.9533   -1.7805 C   0  0  0  0  0  0  0  0  0  0  0  0
    3.2069   -3.3074   -1.1631 C   0  0  0  0  0  0  0  0  0  0  0  0
    4.3823   -3.6329   -1.9504 C   0  0  0  0  0  0  0  0  0  0  0  0
    5.4088   -4.4748   -1.7163 C   0  0  0  0  0  0  0  0  0  0  0  0
    6.1277   -4.7119   -2.9841 C   0  0  0  0  0  0  0  0  0  0  0  0
    7.0648   -5.4181   -3.2314 O   0  0  0  0  0  0  0  0  0  0  0  0
    5.4839   -3.9760   -3.9663 O   0  0  0  0  0  0  0  0  0  0  0  0
    5.1460    2.5319    1.2117 H   0  0  0  0  0  0  0  0  0  0  0  0
    5.5863    2.6013   -0.5134 H   0  0  0  0  0  0  0  0  0  0  0  0
    5.7976    1.0788    0.4012 H   0  0  0  0  0  0  0  0  0  0  0  0
    3.0027    1.1500    1.9038 H   0  0  0  0  0  0  0  0  0  0  0  0
    3.7301   -0.2721    1.1016 H   0  0  0  0  0  0  0  0  0  0  0  0
    2.1027    0.2952    0.6246 H   0  0  0  0  0  0  0  0  0  0  0  0
    2.7733    3.3650    0.6187 H   0  0  0  0  0  0  0  0  0  0  0  0
    1.8321    2.4877   -0.6199 H   0  0  0  0  0  0  0  0  0  0  0  0
    3.2698    3.4309   -1.0954 H   0  0  0  0  0  0  0  0  0  0  0  0
    4.2476    1.2873   -3.9227 H   0  0  0  0  0  0  0  0  0  0  0  0
    2.6503    0.5277   -3.8662 H   0  0  0  0  0  0  0  0  0  0  0  0
    4.2425    0.3328   -6.1359 H   0  0  0  0  0  0  0  0  0  0  0  0
    3.1810   -0.9958   -5.6512 H   0  0  0  0  0  0  0  0  0  0  0  0
    6.1747   -0.6778   -5.0575 H   0  0  0  0  0  0  0  0  0  0  0  0
    5.3727   -2.1316   -5.6657 H   0  0  0  0  0  0  0  0  0  0  0  0
    2.9505   -4.5250   -4.0386 H   0  0  0  0  0  0  0  0  0  0  0  0
    3.0927   -3.1152   -5.1002 H   0  0  0  0  0  0  0  0  0  0  0  0
    0.5115   -3.2176   -4.5629 H   0  0  0  0  0  0  0  0  0  0  0  0
    1.1504   -2.7691   -1.2061 H   0  0  0  0  0  0  0  0  0  0  0  0
    3.2458   -3.4289   -0.0780 H   0  0  0  0  0  0  0  0  0  0  0  0
    5.6581   -5.0022   -0.7971 H   0  0  0  0  0  0  0  0  0  0  0  0
  1  2  1  0
  1 26  1  0
  1 27  1  0
  1 28  1  0
  2  3  1  0
  2  4  1  0
  2  5  1  6
  3 29  1  0
  3 30  1  0
  3 31  1  0
  4 32  1  0
  4 33  1  0
  4 34  1  0
  5  6  1  0
  6  7  2  0
  6  8  1  0
  8  9  1  0
  8 12  1  0
  9 10  1  0
  9 35  1  0
  9 36  1  0
 10 11  1  0
 10 37  1  0
 10 38  1  0
 11 12  1  0
 11 39  1  0
 11 40  1  0
 12 13  1  1
 12 14  1  0
 14 15  1  0
 14 21  1  0
 14 25  1  6
 15 16  1  0
 15 41  1  0
 15 42  1  0
 16 17  1  1
 16 18  1  0
 16 19  1  0
 18 43  1  0
 19 20  2  0
 19 44  1  0
 20 21  1  0
 20 45  1  0
 21 22  2  0
 22 23  1  0
 22 46  1  0
 23 24  2  0
 23 25  1  0
M  END

