
     RDKit          3D

 43 45  0  0  0  0  0  0  0  0999 V2000
    6.7176    4.3144    6.6398 C   0  0  0  0  0  0  0  0  0  0  0  0
    7.2868    3.2843    5.6500 C   0  0  1  0  0  0  0  0  0  0  0  0
    8.4123    2.4474    6.2833 C   0  0  0  0  0  0  0  0  0  0  0  0
    6.1893    2.3916    5.1181 C   0  0  0  0  0  0  0  0  0  0  0  0
    5.4077    1.6515    5.8534 N   0  0  0  0  0  0  0  0  0  0  0  0
    4.5013    0.9286    5.1050 C   0  0  0  0  0  0  0  0  0  0  0  0
    3.4992    0.0399    5.7889 C   0  0  0  0  0  0  0  0  0  0  0  0
    4.0510   -1.0890    6.6763 C   0  0  0  0  0  0  0  0  0  0  0  0
    3.4957   -2.1768    6.7253 O   0  0  0  0  0  0  0  0  0  0  0  0
    5.1432   -0.7679    7.4179 N   0  0  0  0  0  0  0  0  0  0  0  0
    5.7573   -1.7147    8.3368 C   0  0  0  0  0  0  0  0  0  0  0  0
    5.2293   -1.6336    9.7549 C   0  0  0  0  0  0  0  0  0  0  0  0
    3.9240   -2.0491   10.0777 C   0  0  0  0  0  0  0  0  0  0  0  0
    3.4690   -1.9499   11.3869 C   0  0  0  0  0  0  0  0  0  0  0  0
    4.3553   -1.4299   12.3453 C   0  0  0  0  0  0  0  0  0  0  0  0
    3.9540   -1.3025   13.6966 N   0  0  0  0  0  0  0  0  0  0  0  0
    4.7098   -0.8250   14.7344 C   0  0  0  0  0  0  0  0  0  0  0  0
    3.9122   -0.8851   15.8576 C   0  0  0  0  0  0  0  0  0  0  0  0
    2.6802   -1.4186   15.3902 C   0  0  0  0  0  0  0  0  0  0  0  0
    2.7149   -1.6662   14.0899 N   0  0  0  0  0  0  0  0  0  0  0  0
    5.5915   -1.0353   12.0656 N   0  0  0  0  0  0  0  0  0  0  0  0
    6.0114   -1.1366   10.8023 C   0  0  0  0  0  0  0  0  0  0  0  0
    4.6022    1.1236    3.7502 C   0  0  0  0  0  0  0  0  0  0  0  0
    5.8640    2.2556    3.4041 S   0  0  0  0  0  0  0  0  0  0  0  0
    7.5184    4.9705    7.0160 H   0  0  0  0  0  0  0  0  0  0  0  0
    6.2521    3.8068    7.4984 H   0  0  0  0  0  0  0  0  0  0  0  0
    5.9514    4.9459    6.1642 H   0  0  0  0  0  0  0  0  0  0  0  0
    7.7103    3.8282    4.7885 H   0  0  0  0  0  0  0  0  0  0  0  0
    8.0342    1.8799    7.1480 H   0  0  0  0  0  0  0  0  0  0  0  0
    9.2271    3.1008    6.6335 H   0  0  0  0  0  0  0  0  0  0  0  0
    8.8339    1.7300    5.5624 H   0  0  0  0  0  0  0  0  0  0  0  0
    2.8428   -0.4427    5.0540 H   0  0  0  0  0  0  0  0  0  0  0  0
    2.8546    0.6599    6.4387 H   0  0  0  0  0  0  0  0  0  0  0  0
    5.5080    0.1808    7.3348 H   0  0  0  0  0  0  0  0  0  0  0  0
    6.8457   -1.5461    8.3366 H   0  0  0  0  0  0  0  0  0  0  0  0
    5.5712   -2.7210    7.9324 H   0  0  0  0  0  0  0  0  0  0  0  0
    3.2784   -2.4484    9.2910 H   0  0  0  0  0  0  0  0  0  0  0  0
    2.4696   -2.2599   11.6885 H   0  0  0  0  0  0  0  0  0  0  0  0
    5.7302   -0.4950   14.5651 H   0  0  0  0  0  0  0  0  0  0  0  0
    4.1756   -0.5890   16.8703 H   0  0  0  0  0  0  0  0  0  0  0  0
    1.7735   -1.6289   15.9579 H   0  0  0  0  0  0  0  0  0  0  0  0
    7.0394   -0.8046   10.6085 H   0  0  0  0  0  0  0  0  0  0  0  0
    4.0040    0.6738    2.9601 H   0  0  0  0  0  0  0  0  0  0  0  0
  1  2  1  0
  1 25  1  0
  1 26  1  0
  1 27  1  0
  2  3  1  0
  2  4  1  0
  2 28  1  6
  3 29  1  0
  3 30  1  0
  3 31  1  0
  4  5  2  0
  4 24  1  0
  5  6  1  0
  6  7  1  0
  6 23  2  0
  7  8  1  0
  7 32  1  0
  7 33  1  0
  8  9  2  0
  8 10  1  0
 10 11  1  0
 10 34  1  0
 11 12  1  0
 11 35  1  0
 11 36  1  0
 12 13  2  0
 12 22  1  0
 13 14  1  0
 13 37  1  0
 14 15  2  0
 14 38  1  0
 15 16  1  0
 15 21  1  0
 16 17  1  0
 16 20  1  0
 17 18  2  0
 17 39  1  0
 18 19  1  0
 18 40  1  0
 19 20  2  0
 19 41  1  0
 21 22  2  0
 22 42  1  0
 23 24  1  0
 23 43  1  0
M  END

