
     RDKit          3D

 44 45  0  0  0  0  0  0  0  0999 V2000
    7.9080    0.8919   -2.1267 C   0  0  0  0  0  0  0  0  0  0  0  0
    7.1459   -0.3027   -1.5628 C   0  0  1  0  0  0  0  0  0  0  0  0
    7.7518   -1.6310   -1.9927 C   0  0  0  0  0  0  0  0  0  0  0  0
    7.1503   -0.3165   -0.1114 O   0  0  0  0  0  0  0  0  0  0  0  0
    6.3746    0.6124    0.5437 C   0  0  0  0  0  0  0  0  0  0  0  0
    6.8850    1.8676    0.8818 C   0  0  0  0  0  0  0  0  0  0  0  0
    6.0746    2.7646    1.5736 C   0  0  0  0  0  0  0  0  0  0  0  0
    6.5672    3.9737    1.8911 F   0  0  0  0  0  0  0  0  0  0  0  0
    4.7750    2.4324    1.9396 C   0  0  0  0  0  0  0  0  0  0  0  0
    4.2726    1.1661    1.6286 C   0  0  0  0  0  0  0  0  0  0  0  0
    5.0666    0.2371    0.9370 C   0  0  0  0  0  0  0  0  0  0  0  0
    4.6791   -1.0769    0.6254 N   0  0  0  0  0  0  0  0  0  0  0  0
    3.4360   -1.6553    0.8061 C   0  0  0  0  0  0  0  0  0  0  0  0
    2.4538   -1.0600    1.2235 O   0  0  0  0  0  0  0  0  0  0  0  0
    3.3777   -2.9958    0.4717 N   0  0  0  0  0  0  0  0  0  0  0  0
    2.1325   -3.7337    0.6433 C   0  0  0  0  0  0  0  0  0  0  0  0
    2.6047   -5.1891    0.8289 C   0  0  1  0  0  0  0  0  0  0  0  0
    2.9107   -5.3432    1.8773 H   0  0  0  0  0  0  0  0  0  0  0  0
    1.5391   -6.1998    0.3961 C   0  0  0  0  0  0  0  0  0  0  0  0
    1.1568   -6.2834   -0.7385 O   0  0  0  0  0  0  0  0  0  0  0  0
    1.0231   -6.9800    1.3628 O   0  0  0  0  0  0  0  0  0  0  0  0
    3.8545   -5.2395   -0.0754 C   0  0  2  0  0  0  0  0  0  0  0  0
    3.5139   -5.4207   -1.1066 H   0  0  0  0  0  0  0  0  0  0  0  0
    4.8174   -6.3574    0.2714 C   0  0  1  0  0  0  0  0  0  0  0  0
    5.2707   -6.2552    1.5379 F   0  0  0  0  0  0  0  0  0  0  0  0
    4.2283   -7.5595    0.1593 F   0  0  0  0  0  0  0  0  0  0  0  0
    5.8879   -6.3446   -0.5384 F   0  0  0  0  0  0  0  0  0  0  0  0
    4.4857   -3.8376    0.0439 C   0  0  0  0  0  0  0  0  0  0  0  0
    7.9062    0.8502   -3.2274 H   0  0  0  0  0  0  0  0  0  0  0  0
    8.9544    0.8812   -1.7816 H   0  0  0  0  0  0  0  0  0  0  0  0
    7.4488    1.8453   -1.8294 H   0  0  0  0  0  0  0  0  0  0  0  0
    6.0929   -0.2474   -1.8988 H   0  0  0  0  0  0  0  0  0  0  0  0
    8.7829   -1.7187   -1.6160 H   0  0  0  0  0  0  0  0  0  0  0  0
    7.7737   -1.7093   -3.0902 H   0  0  0  0  0  0  0  0  0  0  0  0
    7.1739   -2.4816   -1.5992 H   0  0  0  0  0  0  0  0  0  0  0  0
    7.9071    2.1382    0.6177 H   0  0  0  0  0  0  0  0  0  0  0  0
    4.1652    3.1610    2.4769 H   0  0  0  0  0  0  0  0  0  0  0  0
    3.2631    0.8808    1.9153 H   0  0  0  0  0  0  0  0  0  0  0  0
    5.4527   -1.6404    0.2906 H   0  0  0  0  0  0  0  0  0  0  0  0
    1.4858   -3.6634   -0.2496 H   0  0  0  0  0  0  0  0  0  0  0  0
    1.5703   -3.3380    1.4997 H   0  0  0  0  0  0  0  0  0  0  0  0
    1.4558   -6.8089    2.2112 H   0  0  0  0  0  0  0  0  0  0  0  0
    4.9105   -3.5203   -0.9245 H   0  0  0  0  0  0  0  0  0  0  0  0
    5.3040   -3.8335    0.7876 H   0  0  0  0  0  0  0  0  0  0  0  0
  1  2  1  0
  1 29  1  0
  1 30  1  0
  1 31  1  0
  2  3  1  0
  2  4  1  0
  2 32  1  6
  3 33  1  0
  3 34  1  0
  3 35  1  0
  4  5  1  0
  5  6  2  0
  5 11  1  0
  6  7  1  0
  6 36  1  0
  7  8  1  0
  7  9  2  0
  9 10  1  0
  9 37  1  0
 10 11  2  0
 10 38  1  0
 11 12  1  0
 12 13  1  0
 12 39  1  0
 13 14  2  0
 13 15  1  0
 15 16  1  0
 15 28  1  0
 16 17  1  0
 16 40  1  0
 16 41  1  0
 17 18  1  1
 17 19  1  0
 17 22  1  0
 19 20  2  0
 19 21  1  0
 21 42  1  0
 22 23  1  6
 22 24  1  0
 22 28  1  0
 24 25  1  1
 24 26  1  0
 24 27  1  0
 28 43  1  0
 28 44  1  0
M  END

