
     RDKit          3D

 29 29  0  0  0  0  0  0  0  0999 V2000
    3.2085   -0.0149    3.9173 C   0  0  0  0  0  0  0  0  0  0  0  0
    2.6608   -0.8021    2.7221 C   0  0  1  0  0  0  0  0  0  0  0  0
    1.1377   -0.9572    2.8048 C   0  0  0  0  0  0  0  0  0  0  0  0
    3.0387   -0.1757    1.3643 C   0  0  0  0  0  0  0  0  0  0  0  0
    4.4653   -0.0504    1.1012 N   0  0  0  0  0  0  0  0  0  0  0  0
    5.2383    1.1686    1.3073 C   0  0  0  0  0  0  0  0  0  0  0  0
    6.5953    0.8727    0.6174 C   0  0  2  0  0  0  0  0  0  0  0  0
    6.6867    1.4149   -0.8161 C   0  0  0  0  0  0  0  0  0  0  0  0
    5.6465    1.0934   -1.6414 N   0  0  0  0  0  0  0  0  0  0  0  0
    7.6359    2.0785   -1.1881 O   0  0  0  0  0  0  0  0  0  0  0  0
    6.6846   -0.6689    0.6711 C   0  0  0  0  0  0  0  0  0  0  0  0
    5.2361   -1.1441    0.7777 C   0  0  0  0  0  0  0  0  0  0  0  0
    4.8166   -2.2734    0.6179 O   0  0  0  0  0  0  0  0  0  0  0  0
    2.9088   -0.4869    4.8668 H   0  0  0  0  0  0  0  0  0  0  0  0
    2.8251    1.0208    3.9275 H   0  0  0  0  0  0  0  0  0  0  0  0
    4.3086    0.0303    3.9107 H   0  0  0  0  0  0  0  0  0  0  0  0
    3.1089   -1.8105    2.7334 H   0  0  0  0  0  0  0  0  0  0  0  0
    0.6336    0.0250    2.7819 H   0  0  0  0  0  0  0  0  0  0  0  0
    0.8415   -1.4587    3.7397 H   0  0  0  0  0  0  0  0  0  0  0  0
    0.7447   -1.5553    1.9668 H   0  0  0  0  0  0  0  0  0  0  0  0
    2.5887    0.8282    1.2730 H   0  0  0  0  0  0  0  0  0  0  0  0
    2.6124   -0.8055    0.5664 H   0  0  0  0  0  0  0  0  0  0  0  0
    5.3864    1.3832    2.3814 H   0  0  0  0  0  0  0  0  0  0  0  0
    4.7231    2.0398    0.8697 H   0  0  0  0  0  0  0  0  0  0  0  0
    7.4246    1.3547    1.1488 H   0  0  0  0  0  0  0  0  0  0  0  0
    4.8615    0.5315   -1.3379 H   0  0  0  0  0  0  0  0  0  0  0  0
    5.6849    1.4101   -2.6034 H   0  0  0  0  0  0  0  0  0  0  0  0
    7.2208   -1.0106    1.5727 H   0  0  0  0  0  0  0  0  0  0  0  0
    7.1824   -1.1303   -0.1934 H   0  0  0  0  0  0  0  0  0  0  0  0
  1  2  1  0
  1 14  1  0
  1 15  1  0
  1 16  1  0
  2  3  1  0
  2  4  1  0
  2 17  1  6
  3 18  1  0
  3 19  1  0
  3 20  1  0
  4  5  1  0
  4 21  1  0
  4 22  1  0
  5  6  1  0
  5 12  1  0
  6  7  1  0
  6 23  1  0
  6 24  1  0
  7  8  1  0
  7 11  1  0
  7 25  1  1
  8  9  1  0
  8 10  2  0
  9 26  1  0
  9 27  1  0
 11 12  1  0
 11 28  1  0
 11 29  1  0
 12 13  2  0
M  END

