
     RDKit          3D

 47 48  0  0  0  0  0  0  0  0999 V2000
    0.8917    0.0443   -1.7283 C   0  0  0  0  0  0  0  0  0  0  0  0
    2.2335    0.5740   -2.2208 C   0  0  0  0  0  0  0  0  0  0  0  0
    3.2496    0.4376   -1.1874 N   0  0  0  0  0  0  0  0  0  0  0  0
    4.6087    0.6499   -1.3877 C   0  0  0  0  0  0  0  0  0  0  0  0
    5.5416    0.1802   -0.6318 N   0  0  0  0  0  0  0  0  0  0  0  0
    5.1887   -0.6868    0.4650 C   0  0  0  0  0  0  0  0  0  0  0  0
    6.4455   -1.2951    1.1046 C   0  0  0  0  0  0  0  0  0  0  0  0
    6.1409   -2.2415    2.2311 C   0  0  0  0  0  0  0  0  0  0  0  0
    6.5407   -2.1027    3.5364 C   0  0  0  0  0  0  0  0  0  0  0  0
    5.9615   -3.4287    4.4901 S   0  0  0  0  0  0  0  0  0  0  0  0
    5.2007   -4.0920    3.0478 C   0  0  0  0  0  0  0  0  0  0  0  0
    4.4273   -5.3747    3.0856 C   0  0  0  0  0  0  0  0  0  0  0  0
    5.3844   -3.3697    1.9831 N   0  0  0  0  0  0  0  0  0  0  0  0
    4.9088    1.4173   -2.4989 N   0  0  0  0  0  0  0  0  0  0  0  0
    6.2507    1.8796   -2.8378 C   0  0  1  0  0  0  0  0  0  0  0  0
    6.9345    2.8065   -1.7954 C   0  0  0  0  0  0  0  0  0  0  0  0
    8.4343    2.5613   -1.9948 C   0  0  0  0  0  0  0  0  0  0  0  0
    8.5002    1.0433   -2.2321 C   0  0  2  0  0  0  0  0  0  0  0  0
   10.1332    0.5545   -2.9026 S   0  0  0  0  0  0  0  0  0  0  0  0
   10.0071   -1.2601   -2.8012 C   0  0  0  0  0  0  0  0  0  0  0  0
    7.2836    0.7461   -3.1311 C   0  0  0  0  0  0  0  0  0  0  0  0
    0.1180    0.1670   -2.5008 H   0  0  0  0  0  0  0  0  0  0  0  0
    0.5635    0.5819   -0.8244 H   0  0  0  0  0  0  0  0  0  0  0  0
    0.9547   -1.0296   -1.4852 H   0  0  0  0  0  0  0  0  0  0  0  0
    2.1109    1.6397   -2.4922 H   0  0  0  0  0  0  0  0  0  0  0  0
    2.5307    0.0486   -3.1495 H   0  0  0  0  0  0  0  0  0  0  0  0
    3.0506   -0.2657   -0.4860 H   0  0  0  0  0  0  0  0  0  0  0  0
    4.5343   -1.5317    0.1559 H   0  0  0  0  0  0  0  0  0  0  0  0
    4.6250   -0.1425    1.2544 H   0  0  0  0  0  0  0  0  0  0  0  0
    7.0990   -0.4836    1.4595 H   0  0  0  0  0  0  0  0  0  0  0  0
    7.0003   -1.8328    0.3164 H   0  0  0  0  0  0  0  0  0  0  0  0
    7.1385   -1.3059    3.9754 H   0  0  0  0  0  0  0  0  0  0  0  0
    3.5780   -5.3178    3.7858 H   0  0  0  0  0  0  0  0  0  0  0  0
    5.0598   -6.2212    3.3993 H   0  0  0  0  0  0  0  0  0  0  0  0
    4.0418   -5.5781    2.0774 H   0  0  0  0  0  0  0  0  0  0  0  0
    4.1601    2.0099   -2.8317 H   0  0  0  0  0  0  0  0  0  0  0  0
    6.1115    2.4522   -3.7683 H   0  0  0  0  0  0  0  0  0  0  0  0
    6.6389    2.4816   -0.7881 H   0  0  0  0  0  0  0  0  0  0  0  0
    6.6440    3.8621   -1.9209 H   0  0  0  0  0  0  0  0  0  0  0  0
    9.0515    2.8848   -1.1426 H   0  0  0  0  0  0  0  0  0  0  0  0
    8.8028    3.0952   -2.8901 H   0  0  0  0  0  0  0  0  0  0  0  0
    8.3607    0.5327   -1.2666 H   0  0  0  0  0  0  0  0  0  0  0  0
   10.9693   -1.6671   -3.1448 H   0  0  0  0  0  0  0  0  0  0  0  0
    9.2083   -1.6529   -3.4485 H   0  0  0  0  0  0  0  0  0  0  0  0
    9.8339   -1.5907   -1.7650 H   0  0  0  0  0  0  0  0  0  0  0  0
    6.8551   -0.2428   -2.9282 H   0  0  0  0  0  0  0  0  0  0  0  0
    7.5890    0.7799   -4.1890 H   0  0  0  0  0  0  0  0  0  0  0  0
  1  2  1  0
  1 22  1  0
  1 23  1  0
  1 24  1  0
  2  3  1  0
  2 25  1  0
  2 26  1  0
  3  4  1  0
  3 27  1  0
  4  5  2  0
  4 14  1  0
  5  6  1  0
  6  7  1  0
  6 28  1  0
  6 29  1  0
  7  8  1  0
  7 30  1  0
  7 31  1  0
  8  9  2  0
  8 13  1  0
  9 10  1  0
  9 32  1  0
 10 11  1  0
 11 12  1  0
 11 13  2  0
 12 33  1  0
 12 34  1  0
 12 35  1  0
 14 15  1  0
 14 36  1  0
 15 16  1  0
 15 21  1  0
 15 37  1  6
 16 17  1  0
 16 38  1  0
 16 39  1  0
 17 18  1  0
 17 40  1  0
 17 41  1  0
 18 19  1  0
 18 21  1  0
 18 42  1  1
 19 20  1  0
 20 43  1  0
 20 44  1  0
 20 45  1  0
 21 46  1  0
 21 47  1  0
M  END

