
     RDKit          3D

 43 46  0  0  0  0  0  0  0  0999 V2000
    1.8960    0.7236    0.6264 C   0  0  0  0  0  0  0  0  0  0  0  0
    2.6861    1.2414   -0.4249 O   0  0  0  0  0  0  0  0  0  0  0  0
    3.1518    0.3999   -1.3617 C   0  0  0  0  0  0  0  0  0  0  0  0
    3.8944    0.7747   -2.4583 C   0  0  0  0  0  0  0  0  0  0  0  0
    4.2507   -0.3347   -3.2665 C   0  0  0  0  0  0  0  0  0  0  0  0
    3.8174   -1.5602   -2.7991 C   0  0  0  0  0  0  0  0  0  0  0  0
    3.9472   -2.8327   -3.5338 C   0  0  0  0  0  0  0  0  0  0  0  0
    4.1157   -2.6976   -4.8363 N   0  0  0  0  0  0  0  0  0  0  0  0
    4.1999   -3.7986   -5.6209 C   0  0  0  0  0  0  0  0  0  0  0  0
    4.3843   -3.6705   -7.0237 C   0  0  0  0  0  0  0  0  0  0  0  0
    4.4162   -4.7955   -7.8237 C   0  0  0  0  0  0  0  0  0  0  0  0
    4.2637   -6.0868   -7.2532 C   0  0  0  0  0  0  0  0  0  0  0  0
    4.0907   -6.2400   -5.8920 C   0  0  0  0  0  0  0  0  0  0  0  0
    4.0643   -5.0998   -5.0421 C   0  0  0  0  0  0  0  0  0  0  0  0
    3.9430   -5.2393   -3.7037 N   0  0  0  0  0  0  0  0  0  0  0  0
    3.9190   -4.1650   -2.9246 C   0  0  0  0  0  0  0  0  0  0  0  0
    3.8966   -4.3620   -1.4821 C   0  0  0  0  0  0  0  0  0  0  0  0
    3.7419   -5.6053   -0.9342 C   0  0  0  0  0  0  0  0  0  0  0  0
    3.7389   -5.9135    0.3829 N   0  0  0  0  0  0  0  0  0  0  0  0
    3.9118   -4.9285    1.4462 C   0  0  0  0  0  0  0  0  0  0  0  0
    3.9851   -5.7740    2.7271 C   0  0  0  0  0  0  0  0  0  0  0  0
    3.1832   -7.0359    2.3704 C   0  0  0  0  0  0  0  0  0  0  0  0
    3.5503   -7.2687    0.9007 C   0  0  0  0  0  0  0  0  0  0  0  0
    2.9016   -1.3357   -1.3085 S   0  0  0  0  0  0  0  0  0  0  0  0
    1.6130    1.5745    1.2596 H   0  0  0  0  0  0  0  0  0  0  0  0
    2.4622   -0.0072    1.2320 H   0  0  0  0  0  0  0  0  0  0  0  0
    0.9826    0.2361    0.2405 H   0  0  0  0  0  0  0  0  0  0  0  0
    4.1611    1.8123   -2.6582 H   0  0  0  0  0  0  0  0  0  0  0  0
    4.8066   -0.2620   -4.2008 H   0  0  0  0  0  0  0  0  0  0  0  0
    4.4874   -2.6639   -7.4350 H   0  0  0  0  0  0  0  0  0  0  0  0
    4.5548   -4.6964   -8.9033 H   0  0  0  0  0  0  0  0  0  0  0  0
    4.2876   -6.9664   -7.9020 H   0  0  0  0  0  0  0  0  0  0  0  0
    3.9809   -7.2239   -5.4306 H   0  0  0  0  0  0  0  0  0  0  0  0
    4.0506   -3.4996   -0.8375 H   0  0  0  0  0  0  0  0  0  0  0  0
    3.6048   -6.4494   -1.6171 H   0  0  0  0  0  0  0  0  0  0  0  0
    3.0575   -4.2242    1.4588 H   0  0  0  0  0  0  0  0  0  0  0  0
    4.8216   -4.3246    1.2819 H   0  0  0  0  0  0  0  0  0  0  0  0
    3.5926   -5.2426    3.6064 H   0  0  0  0  0  0  0  0  0  0  0  0
    5.0328   -6.0414    2.9431 H   0  0  0  0  0  0  0  0  0  0  0  0
    2.1020   -6.8385    2.4607 H   0  0  0  0  0  0  0  0  0  0  0  0
    3.4211   -7.8989    3.0095 H   0  0  0  0  0  0  0  0  0  0  0  0
    2.7664   -7.7998    0.3373 H   0  0  0  0  0  0  0  0  0  0  0  0
    4.4816   -7.8632    0.8146 H   0  0  0  0  0  0  0  0  0  0  0  0
  1  2  1  0
  1 25  1  0
  1 26  1  0
  1 27  1  0
  2  3  1  0
  3  4  2  0
  3 24  1  0
  4  5  1  0
  4 28  1  0
  5  6  2  0
  5 29  1  0
  6  7  1  0
  6 24  1  0
  7  8  2  0
  7 16  1  0
  8  9  1  0
  9 10  2  0
  9 14  1  0
 10 11  1  0
 10 30  1  0
 11 12  2  0
 11 31  1  0
 12 13  1  0
 12 32  1  0
 13 14  2  0
 13 33  1  0
 14 15  1  0
 15 16  2  0
 16 17  1  0
 17 18  2  0
 17 34  1  0
 18 19  1  0
 18 35  1  0
 19 20  1  0
 19 23  1  0
 20 21  1  0
 20 36  1  0
 20 37  1  0
 21 22  1  0
 21 38  1  0
 21 39  1  0
 22 23  1  0
 22 40  1  0
 22 41  1  0
 23 42  1  0
 23 43  1  0
M  END

