
     RDKit          3D

 35 35  0  0  0  0  0  0  0  0999 V2000
    0.9538    0.1602   -0.3106 C   0  0  0  0  0  0  0  0  0  0  0  0
    2.4621    0.0815   -0.3070 C   0  0  0  0  0  0  0  0  0  0  0  0
    3.2537    1.2317   -0.3854 C   0  0  0  0  0  0  0  0  0  0  0  0
    4.6480    1.1210   -0.3796 C   0  0  0  0  0  0  0  0  0  0  0  0
    5.2957   -0.1131   -0.2963 C   0  0  0  0  0  0  0  0  0  0  0  0
    6.8015   -0.2022   -0.2785 C   0  0  0  0  0  0  0  0  0  0  0  0
    4.4986   -1.2887   -0.2165 C   0  0  0  0  0  0  0  0  0  0  0  0
    5.1385   -2.5283   -0.0747 N   0  0  0  0  0  0  0  0  0  0  0  0
    4.4902   -3.8114   -0.3636 C   0  0  1  0  0  0  0  0  0  0  0  0
    4.2507   -4.0262   -1.8653 C   0  0  0  0  0  0  0  0  0  0  0  0
    5.3311   -4.9577    0.2344 C   0  0  0  0  0  0  0  0  0  0  0  0
    5.3143   -5.0547    1.7388 C   0  0  0  0  0  0  0  0  0  0  0  0
    5.7335   -3.9726    2.4687 N   0  0  0  0  0  0  0  0  0  0  0  0
    4.9455   -6.1849    2.2424 N   0  0  0  0  0  0  0  0  0  0  0  0
    4.9879   -6.1200    3.6547 O   0  0  0  0  0  0  0  0  0  0  0  0
    3.0984   -1.1671   -0.2277 C   0  0  0  0  0  0  0  0  0  0  0  0
    0.6043    1.2008   -0.3809 H   0  0  0  0  0  0  0  0  0  0  0  0
    0.5263   -0.2766    0.6077 H   0  0  0  0  0  0  0  0  0  0  0  0
    0.5239   -0.3968   -1.1602 H   0  0  0  0  0  0  0  0  0  0  0  0
    2.7849    2.2168   -0.4519 H   0  0  0  0  0  0  0  0  0  0  0  0
    5.2570    2.0279   -0.4406 H   0  0  0  0  0  0  0  0  0  0  0  0
    7.2563    0.7972   -0.3314 H   0  0  0  0  0  0  0  0  0  0  0  0
    7.1966   -0.7822   -1.1337 H   0  0  0  0  0  0  0  0  0  0  0  0
    7.1774   -0.6898    0.6389 H   0  0  0  0  0  0  0  0  0  0  0  0
    6.1048   -2.5142   -0.3887 H   0  0  0  0  0  0  0  0  0  0  0  0
    3.5176   -3.8159    0.1537 H   0  0  0  0  0  0  0  0  0  0  0  0
    5.2106   -4.1036   -2.4036 H   0  0  0  0  0  0  0  0  0  0  0  0
    3.6843   -3.1886   -2.2993 H   0  0  0  0  0  0  0  0  0  0  0  0
    3.6858   -4.9541   -2.0476 H   0  0  0  0  0  0  0  0  0  0  0  0
    6.3756   -4.8526   -0.1179 H   0  0  0  0  0  0  0  0  0  0  0  0
    4.9615   -5.9192   -0.1465 H   0  0  0  0  0  0  0  0  0  0  0  0
    5.6332   -3.0712    2.0107 H   0  0  0  0  0  0  0  0  0  0  0  0
    5.5302   -4.0186    3.4615 H   0  0  0  0  0  0  0  0  0  0  0  0
    4.6755   -6.9949    3.9119 H   0  0  0  0  0  0  0  0  0  0  0  0
    2.4773   -2.0625   -0.1675 H   0  0  0  0  0  0  0  0  0  0  0  0
  1  2  1  0
  1 17  1  0
  1 18  1  0
  1 19  1  0
  2  3  2  0
  2 16  1  0
  3  4  1  0
  3 20  1  0
  4  5  2  0
  4 21  1  0
  5  6  1  0
  5  7  1  0
  6 22  1  0
  6 23  1  0
  6 24  1  0
  7  8  1  0
  7 16  2  0
  8  9  1  0
  8 25  1  0
  9 10  1  0
  9 11  1  0
  9 26  1  1
 10 27  1  0
 10 28  1  0
 10 29  1  0
 11 12  1  0
 11 30  1  0
 11 31  1  0
 12 13  1  0
 12 14  2  0
 13 32  1  0
 13 33  1  0
 14 15  1  0
 15 34  1  0
 16 35  1  0
M  END

