
     RDKit          3D

 31 32  0  0  0  0  0  0  0  0999 V2000
    2.8574    1.3676   -0.1734 C   0  0  0  0  0  0  0  0  0  0  0  0
    2.5926   -0.0234   -0.0339 O   0  0  0  0  0  0  0  0  0  0  0  0
    3.0904   -0.8450   -0.9668 C   0  0  0  0  0  0  0  0  0  0  0  0
    3.7987   -0.3844   -1.9790 N   0  0  0  0  0  0  0  0  0  0  0  0
    4.2774   -1.2381   -2.8948 C   0  0  0  0  0  0  0  0  0  0  0  0
    4.0787   -2.6244   -2.8526 C   0  0  0  0  0  0  0  0  0  0  0  0
    4.6383   -3.5124   -3.8820 C   0  0  0  0  0  0  0  0  0  0  0  0
    4.6531   -4.8606   -3.8671 C   0  0  0  0  0  0  0  0  0  0  0  0
    5.3715   -5.4504   -5.0648 C   0  0  2  0  0  0  0  0  0  0  0  0
    6.7416   -5.9842   -4.6551 C   0  0  0  0  0  0  0  0  0  0  0  0
    7.7104   -5.2775   -4.3919 O   0  0  0  0  0  0  0  0  0  0  0  0
    6.8668   -7.3357   -4.6131 N   0  0  0  0  0  0  0  0  0  0  0  0
    8.0377   -7.8435   -4.0725 O   0  0  0  0  0  0  0  0  0  0  0  0
    5.4883   -4.2334   -6.0207 C   0  0  0  0  0  0  0  0  0  0  0  0
    5.3415   -2.9869   -5.1221 C   0  0  0  0  0  0  0  0  0  0  0  0
    3.3152   -3.1118   -1.7625 C   0  0  0  0  0  0  0  0  0  0  0  0
    2.8250   -2.2307   -0.8269 C   0  0  0  0  0  0  0  0  0  0  0  0
    2.0985   -2.6604    0.2084 F   0  0  0  0  0  0  0  0  0  0  0  0
    2.3668    1.8530    0.6800 H   0  0  0  0  0  0  0  0  0  0  0  0
    2.4500    1.7573   -1.1194 H   0  0  0  0  0  0  0  0  0  0  0  0
    3.9397    1.5702   -0.1566 H   0  0  0  0  0  0  0  0  0  0  0  0
    4.8601   -0.7875   -3.7033 H   0  0  0  0  0  0  0  0  0  0  0  0
    4.2639   -5.4900   -3.0634 H   0  0  0  0  0  0  0  0  0  0  0  0
    4.7985   -6.2768   -5.5222 H   0  0  0  0  0  0  0  0  0  0  0  0
    6.0871   -7.9776   -4.5273 H   0  0  0  0  0  0  0  0  0  0  0  0
    8.5469   -7.0139   -3.9306 H   0  0  0  0  0  0  0  0  0  0  0  0
    4.6572   -4.2733   -6.7417 H   0  0  0  0  0  0  0  0  0  0  0  0
    6.4274   -4.2377   -6.5909 H   0  0  0  0  0  0  0  0  0  0  0  0
    4.7770   -2.1803   -5.6180 H   0  0  0  0  0  0  0  0  0  0  0  0
    6.3255   -2.5701   -4.8467 H   0  0  0  0  0  0  0  0  0  0  0  0
    3.0937   -4.1735   -1.6413 H   0  0  0  0  0  0  0  0  0  0  0  0
  1  2  1  0
  1 19  1  0
  1 20  1  0
  1 21  1  0
  2  3  1  0
  3  4  2  0
  3 17  1  0
  4  5  1  0
  5  6  2  0
  5 22  1  0
  6  7  1  0
  6 16  1  0
  7  8  2  0
  7 15  1  0
  8  9  1  0
  8 23  1  0
  9 10  1  0
  9 14  1  0
  9 24  1  6
 10 11  2  0
 10 12  1  0
 12 13  1  0
 12 25  1  0
 13 26  1  0
 14 15  1  0
 14 27  1  0
 14 28  1  0
 15 29  1  0
 15 30  1  0
 16 17  2  0
 16 31  1  0
 17 18  1  0
M  END

