
     RDKit          3D

 71 72  0  0  0  0  0  0  0  0999 V2000
    1.9351    4.6926    7.5675 C   0  0  0  0  0  0  0  0  0  0  0  0
    2.5817    3.3384    7.8626 C   0  0  0  0  0  0  0  0  0  0  0  0
    3.7644    3.0103    6.9459 C   0  0  0  0  0  0  0  0  0  0  0  0
    4.4179    1.6558    7.2347 C   0  0  0  0  0  0  0  0  0  0  0  0
    5.6002    1.3288    6.3177 C   0  0  0  0  0  0  0  0  0  0  0  0
    6.2537   -0.0257    6.6068 C   0  0  0  0  0  0  0  0  0  0  0  0
    7.4360   -0.3502    5.6890 C   0  0  0  0  0  0  0  0  0  0  0  0
    8.0861   -1.7077    5.9812 C   0  0  0  0  0  0  0  0  0  0  0  0
    9.2098   -2.0435    5.0275 C   0  0  2  0  0  0  0  0  0  0  0  0
    8.9143   -2.0006    3.9662 H   0  0  0  0  0  0  0  0  0  0  0  0
   10.0352   -3.1628    5.3421 O   0  0  0  0  0  0  0  0  0  0  0  0
   10.6524   -1.8779    5.3084 C   0  0  2  0  0  0  0  0  0  0  0  0
   11.3031   -1.7260    4.4313 H   0  0  0  0  0  0  0  0  0  0  0  0
   11.2402   -1.3468    6.5958 C   0  0  0  0  0  0  0  0  0  0  0  0
   11.6238    0.1355    6.5160 C   0  0  0  0  0  0  0  0  0  0  0  0
   12.2892    0.6658    7.7894 C   0  0  0  0  0  0  0  0  0  0  0  0
   12.6681    2.1477    7.7177 C   0  0  0  0  0  0  0  0  0  0  0  0
   13.3405    2.6788    8.9872 C   0  0  0  0  0  0  0  0  0  0  0  0
   13.7070    4.1631    8.9090 C   0  0  0  0  0  0  0  0  0  0  0  0
   14.3825    4.6829   10.1774 C   0  0  0  0  0  0  0  0  0  0  0  0
   14.7322    6.1707   10.0900 C   0  0  0  0  0  0  0  0  0  0  0  0
   14.4529    6.8237    9.0949 O   0  0  0  0  0  0  0  0  0  0  0  0
   15.3663    6.7402   11.1725 N   0  0  0  0  0  0  0  0  0  0  0  0
   15.7593    8.1481   11.1126 C   0  0  0  0  0  0  0  0  0  0  0  0
   15.2941    8.8819   12.3793 C   0  0  0  0  0  0  0  0  0  0  0  0
   15.7226    8.2376   13.6171 N   0  0  0  0  0  0  0  0  0  0  0  0
   17.0936    8.5013   14.0125 C   0  0  0  0  0  0  0  0  0  0  0  0
   15.3283    6.8372   13.6300 C   0  0  0  0  0  0  0  0  0  0  0  0
   15.7875    6.0497   12.3866 C   0  0  0  0  0  0  0  0  0  0  0  0
    1.0898    4.8950    8.2446 H   0  0  0  0  0  0  0  0  0  0  0  0
    1.5513    4.7371    6.5343 H   0  0  0  0  0  0  0  0  0  0  0  0
    2.6591    5.5166    7.6840 H   0  0  0  0  0  0  0  0  0  0  0  0
    1.8224    2.5399    7.7745 H   0  0  0  0  0  0  0  0  0  0  0  0
    2.9206    3.3128    8.9145 H   0  0  0  0  0  0  0  0  0  0  0  0
    4.5251    3.8087    7.0334 H   0  0  0  0  0  0  0  0  0  0  0  0
    3.4264    3.0354    5.8928 H   0  0  0  0  0  0  0  0  0  0  0  0
    3.6571    0.8577    7.1470 H   0  0  0  0  0  0  0  0  0  0  0  0
    4.7556    1.6309    8.2877 H   0  0  0  0  0  0  0  0  0  0  0  0
    6.3611    2.1267    6.4050 H   0  0  0  0  0  0  0  0  0  0  0  0
    5.2627    1.3531    5.2647 H   0  0  0  0  0  0  0  0  0  0  0  0
    5.4945   -0.8249    6.5182 H   0  0  0  0  0  0  0  0  0  0  0  0
    6.5916   -0.0513    7.6595 H   0  0  0  0  0  0  0  0  0  0  0  0
    8.1962    0.4475    5.7756 H   0  0  0  0  0  0  0  0  0  0  0  0
    7.0964   -0.3253    4.6369 H   0  0  0  0  0  0  0  0  0  0  0  0
    7.3253   -2.5055    5.8999 H   0  0  0  0  0  0  0  0  0  0  0  0
    8.4503   -1.7443    7.0201 H   0  0  0  0  0  0  0  0  0  0  0  0
   12.1383   -1.9476    6.8288 H   0  0  0  0  0  0  0  0  0  0  0  0
   10.5393   -1.5189    7.4280 H   0  0  0  0  0  0  0  0  0  0  0  0
   10.7230    0.7370    6.2961 H   0  0  0  0  0  0  0  0  0  0  0  0
   12.3040    0.2930    5.6585 H   0  0  0  0  0  0  0  0  0  0  0  0
   13.1935    0.0661    8.0034 H   0  0  0  0  0  0  0  0  0  0  0  0
   11.6131    0.5023    8.6492 H   0  0  0  0  0  0  0  0  0  0  0  0
   11.7628    2.7471    7.5083 H   0  0  0  0  0  0  0  0  0  0  0  0
   13.3399    2.3123    6.8550 H   0  0  0  0  0  0  0  0  0  0  0  0
   14.2495    2.0826    9.1931 H   0  0  0  0  0  0  0  0  0  0  0  0
   12.6711    2.5081    9.8516 H   0  0  0  0  0  0  0  0  0  0  0  0
   12.8062    4.7665    8.7094 H   0  0  0  0  0  0  0  0  0  0  0  0
   14.3716    4.3446    8.0481 H   0  0  0  0  0  0  0  0  0  0  0  0
   15.3018    4.1048   10.3819 H   0  0  0  0  0  0  0  0  0  0  0  0
   13.7262    4.5147   11.0504 H   0  0  0  0  0  0  0  0  0  0  0  0
   15.3120    8.5795   10.2085 H   0  0  0  0  0  0  0  0  0  0  0  0
   16.8598    8.2180   11.0100 H   0  0  0  0  0  0  0  0  0  0  0  0
   14.1895    8.9207   12.3730 H   0  0  0  0  0  0  0  0  0  0  0  0
   15.6576    9.9222   12.3665 H   0  0  0  0  0  0  0  0  0  0  0  0
   17.2519    9.5893   14.0889 H   0  0  0  0  0  0  0  0  0  0  0  0
   17.8771    8.1031   13.3300 H   0  0  0  0  0  0  0  0  0  0  0  0
   17.2799    8.0703   15.0098 H   0  0  0  0  0  0  0  0  0  0  0  0
   14.2246    6.7865   13.6764 H   0  0  0  0  0  0  0  0  0  0  0  0
   15.7183    6.3547   14.5412 H   0  0  0  0  0  0  0  0  0  0  0  0
   15.3686    5.0371   12.4185 H   0  0  0  0  0  0  0  0  0  0  0  0
   16.8908    5.9442   12.3918 H   0  0  0  0  0  0  0  0  0  0  0  0
  1  2  1  0
  1 30  1  0
  1 31  1  0
  1 32  1  0
  2  3  1  0
  2 33  1  0
  2 34  1  0
  3  4  1  0
  3 35  1  0
  3 36  1  0
  4  5  1  0
  4 37  1  0
  4 38  1  0
  5  6  1  0
  5 39  1  0
  5 40  1  0
  6  7  1  0
  6 41  1  0
  6 42  1  0
  7  8  1  0
  7 43  1  0
  7 44  1  0
  8  9  1  0
  8 45  1  0
  8 46  1  0
  9 10  1  6
  9 11  1  0
  9 12  1  0
 11 12  1  0
 12 13  1  6
 12 14  1  0
 14 15  1  0
 14 47  1  0
 14 48  1  0
 15 16  1  0
 15 49  1  0
 15 50  1  0
 16 17  1  0
 16 51  1  0
 16 52  1  0
 17 18  1  0
 17 53  1  0
 17 54  1  0
 18 19  1  0
 18 55  1  0
 18 56  1  0
 19 20  1  0
 19 57  1  0
 19 58  1  0
 20 21  1  0
 20 59  1  0
 20 60  1  0
 21 22  2  0
 21 23  1  0
 23 24  1  0
 23 29  1  0
 24 25  1  0
 24 61  1  0
 24 62  1  0
 25 26  1  0
 25 63  1  0
 25 64  1  0
 26 27  1  0
 26 28  1  0
 27 65  1  0
 27 66  1  0
 27 67  1  0
 28 29  1  0
 28 68  1  0
 28 69  1  0
 29 70  1  0
 29 71  1  0
M  END

