
     RDKit          3D

 53 55  0  0  0  0  0  0  0  0999 V2000
    4.0371    1.2871    2.8720 O   0  0  0  0  0  0  0  0  0  0  0  0
    3.1046    0.6749    2.4315 C   0  0  0  0  0  0  0  0  0  0  0  0
    1.8612    0.8685    2.9335 O   0  0  0  0  0  0  0  0  0  0  0  0
    3.1873   -0.3243    1.2803 C   0  0  0  0  0  0  0  0  0  0  0  0
    4.6182   -0.6702    0.8663 C   0  0  0  0  0  0  0  0  0  0  0  0
    5.3980   -1.5437    1.8639 C   0  0  1  0  0  0  0  0  0  0  0  0
    4.8266   -2.9793    2.0636 C   0  0  0  0  0  0  0  0  0  0  0  0
    4.8795   -3.8721    0.8448 C   0  0  0  0  0  0  0  0  0  0  0  0
    6.0273   -4.6358    0.5651 C   0  0  0  0  0  0  0  0  0  0  0  0
    6.1015   -5.4398   -0.5764 C   0  0  0  0  0  0  0  0  0  0  0  0
    5.0238   -5.5022   -1.4646 C   0  0  0  0  0  0  0  0  0  0  0  0
    3.8704   -4.7592   -1.1968 C   0  0  0  0  0  0  0  0  0  0  0  0
    3.8026   -3.9552   -0.0552 C   0  0  0  0  0  0  0  0  0  0  0  0
    6.7991   -1.5588    1.4631 N   0  0  0  0  0  0  0  0  0  0  0  0
    7.7884   -1.8024    2.4034 C   0  0  0  0  0  0  0  0  0  0  0  0
    7.5001   -2.0043    3.5755 O   0  0  0  0  0  0  0  0  0  0  0  0
    9.1009   -1.7589    1.9389 N   0  0  0  0  0  0  0  0  0  0  0  0
    9.4067   -1.4988    0.5290 C   0  0  0  0  0  0  0  0  0  0  0  0
   10.7595   -0.8045    0.3260 C   0  0  0  0  0  0  0  0  0  0  0  0
   11.9034   -1.5508    1.0182 C   0  0  0  0  0  0  0  0  0  0  0  0
   11.5313   -1.7511    2.4813 C   0  0  2  0  0  0  0  0  0  0  0  0
   12.4655   -2.5846    3.3682 C   0  0  0  0  0  0  0  0  0  0  0  0
   11.5632   -3.0761    4.5376 C   0  0  0  0  0  0  0  0  0  0  0  0
   10.1093   -2.6797    4.1649 C   0  0  0  0  0  0  0  0  0  0  0  0
   10.1780   -2.4695    2.6444 C   0  0  1  0  0  0  0  0  0  0  0  0
    1.2197    0.3029    2.4806 H   0  0  0  0  0  0  0  0  0  0  0  0
    2.6521    0.1307    0.4267 H   0  0  0  0  0  0  0  0  0  0  0  0
    2.6075   -1.2250    1.5479 H   0  0  0  0  0  0  0  0  0  0  0  0
    5.1759    0.2707    0.7452 H   0  0  0  0  0  0  0  0  0  0  0  0
    4.5912   -1.1646   -0.1200 H   0  0  0  0  0  0  0  0  0  0  0  0
    5.3749   -1.0586    2.8498 H   0  0  0  0  0  0  0  0  0  0  0  0
    3.7876   -2.9023    2.4243 H   0  0  0  0  0  0  0  0  0  0  0  0
    5.4086   -3.4249    2.8835 H   0  0  0  0  0  0  0  0  0  0  0  0
    6.8664   -4.6136    1.2656 H   0  0  0  0  0  0  0  0  0  0  0  0
    7.0026   -6.0291   -0.7672 H   0  0  0  0  0  0  0  0  0  0  0  0
    5.0782   -6.1342   -2.3547 H   0  0  0  0  0  0  0  0  0  0  0  0
    3.0159   -4.8101   -1.8770 H   0  0  0  0  0  0  0  0  0  0  0  0
    2.8878   -3.3906    0.1478 H   0  0  0  0  0  0  0  0  0  0  0  0
    6.9838   -1.7675    0.4900 H   0  0  0  0  0  0  0  0  0  0  0  0
    8.6279   -0.8457    0.1154 H   0  0  0  0  0  0  0  0  0  0  0  0
    9.3955   -2.4466   -0.0525 H   0  0  0  0  0  0  0  0  0  0  0  0
   10.6935    0.2193    0.7326 H   0  0  0  0  0  0  0  0  0  0  0  0
   10.9423   -0.7089   -0.7574 H   0  0  0  0  0  0  0  0  0  0  0  0
   12.8499   -0.9936    0.9152 H   0  0  0  0  0  0  0  0  0  0  0  0
   12.0597   -2.5348    0.5372 H   0  0  0  0  0  0  0  0  0  0  0  0
   11.4043   -0.7530    2.9419 H   0  0  0  0  0  0  0  0  0  0  0  0
   13.3371   -2.0060    3.7108 H   0  0  0  0  0  0  0  0  0  0  0  0
   12.8593   -3.4406    2.7937 H   0  0  0  0  0  0  0  0  0  0  0  0
   11.8561   -2.6254    5.4980 H   0  0  0  0  0  0  0  0  0  0  0  0
   11.6547   -4.1661    4.6668 H   0  0  0  0  0  0  0  0  0  0  0  0
    9.8173   -1.7362    4.6461 H   0  0  0  0  0  0  0  0  0  0  0  0
    9.3648   -3.4251    4.4665 H   0  0  0  0  0  0  0  0  0  0  0  0
   10.2863   -3.4716    2.1678 H   0  0  0  0  0  0  0  0  0  0  0  0
  1  2  2  0
  2  3  1  0
  2  4  1  0
  3 26  1  0
  4  5  1  0
  4 27  1  0
  4 28  1  0
  5  6  1  0
  5 29  1  0
  5 30  1  0
  6  7  1  0
  6 14  1  0
  6 31  1  1
  7  8  1  0
  7 32  1  0
  7 33  1  0
  8  9  2  0
  8 13  1  0
  9 10  1  0
  9 34  1  0
 10 11  2  0
 10 35  1  0
 11 12  1  0
 11 36  1  0
 12 13  2  0
 12 37  1  0
 13 38  1  0
 14 15  1  0
 14 39  1  0
 15 16  2  0
 15 17  1  0
 17 18  1  0
 17 25  1  0
 18 19  1  0
 18 40  1  0
 18 41  1  0
 19 20  1  0
 19 42  1  0
 19 43  1  0
 20 21  1  0
 20 44  1  0
 20 45  1  0
 21 22  1  0
 21 25  1  0
 21 46  1  1
 22 23  1  0
 22 47  1  0
 22 48  1  0
 23 24  1  0
 23 49  1  0
 23 50  1  0
 24 25  1  0
 24 51  1  0
 24 52  1  0
 25 53  1  6
M  END

