
     RDKit          3D

 27 27  0  0  0  0  0  0  0  0999 V2000
    0.9631   -0.1644    0.1041 C   0  0  0  0  0  0  0  0  0  0  0  0
    2.4765    0.0233   -0.1200 C   0  0  1  0  0  0  0  0  0  0  0  0
    3.3008   -0.5984    1.0242 C   0  0  0  0  0  0  0  0  0  0  0  0
    2.8871   -0.4963   -1.4324 C   0  0  0  0  0  0  0  0  0  0  0  0
    3.2119   -0.9519   -2.5087 C   0  0  0  0  0  0  0  0  0  0  0  0
    3.5902   -1.4406   -3.7136 N   0  0  0  0  0  0  0  0  0  0  0  0
    3.1425   -2.6552   -4.2252 C   0  0  0  0  0  0  0  0  0  0  0  0
    2.3470   -3.3565   -3.6395 O   0  0  0  0  0  0  0  0  0  0  0  0
    3.7069   -3.0275   -5.5730 C   0  0  0  0  0  0  0  0  0  0  0  0
    4.9184   -2.5231   -6.0690 C   0  0  0  0  0  0  0  0  0  0  0  0
    5.3734   -2.9399   -7.3228 C   0  0  0  0  0  0  0  0  0  0  0  0
    6.8857   -2.3183   -7.9358 Cl  0  0  0  0  0  0  0  0  0  0  0  0
    4.6468   -3.8510   -8.0923 C   0  0  0  0  0  0  0  0  0  0  0  0
    3.4479   -4.3537   -7.5753 C   0  0  0  0  0  0  0  0  0  0  0  0
    2.5333   -5.4997   -8.5209 Cl  0  0  0  0  0  0  0  0  0  0  0  0
    2.9760   -3.9589   -6.3239 C   0  0  0  0  0  0  0  0  0  0  0  0
    0.6623    0.2704    1.0707 H   0  0  0  0  0  0  0  0  0  0  0  0
    0.7015   -1.2344    0.1113 H   0  0  0  0  0  0  0  0  0  0  0  0
    0.3789    0.3211   -0.6919 H   0  0  0  0  0  0  0  0  0  0  0  0
    2.6814    1.1105   -0.1294 H   0  0  0  0  0  0  0  0  0  0  0  0
    3.1311   -1.6854    1.0791 H   0  0  0  0  0  0  0  0  0  0  0  0
    3.0113   -0.1559    1.9910 H   0  0  0  0  0  0  0  0  0  0  0  0
    4.3784   -0.4307    0.8766 H   0  0  0  0  0  0  0  0  0  0  0  0
    4.1451   -0.8380   -4.3126 H   0  0  0  0  0  0  0  0  0  0  0  0
    5.5387   -1.8388   -5.4886 H   0  0  0  0  0  0  0  0  0  0  0  0
    5.0093   -4.1687   -9.0697 H   0  0  0  0  0  0  0  0  0  0  0  0
    2.0500   -4.3626   -5.9145 H   0  0  0  0  0  0  0  0  0  0  0  0
  1  2  1  0
  1 17  1  0
  1 18  1  0
  1 19  1  0
  2  3  1  0
  2  4  1  0
  2 20  1  6
  3 21  1  0
  3 22  1  0
  3 23  1  0
  4  5  3  0
  5  6  1  0
  6  7  1  0
  6 24  1  0
  7  8  2  0
  7  9  1  0
  9 10  2  0
  9 16  1  0
 10 11  1  0
 10 25  1  0
 11 12  1  0
 11 13  2  0
 13 14  1  0
 13 26  1  0
 14 15  1  0
 14 16  2  0
 16 27  1  0
M  END

