
     RDKit          3D

 59 60  0  0  0  0  0  0  0  0999 V2000
    3.3490    6.1796   -1.8494 C   0  0  0  0  0  0  0  0  0  0  0  0
    4.5465    5.5843   -1.1076 C   0  0  0  0  0  0  0  0  0  0  0  0
    4.1891    4.3788   -0.2314 C   0  0  0  0  0  0  0  0  0  0  0  0
    5.3926    3.7829    0.5057 C   0  0  0  0  0  0  0  0  0  0  0  0
    5.0660    2.6476    1.4924 C   0  0  1  0  0  0  0  0  0  0  0  0
    4.4115    1.4079    0.8432 C   0  0  0  0  0  0  0  0  0  0  0  0
    5.2328    0.7023   -0.2409 C   0  0  0  0  0  0  0  0  0  0  0  0
    6.3076    2.2417    2.3117 C   0  0  0  0  0  0  0  0  0  0  0  0
    6.8090    3.3075    3.1619 N   0  0  0  0  0  0  0  0  0  0  0  0
    8.1545    3.6108    3.2212 C   0  0  0  0  0  0  0  0  0  0  0  0
    8.9817    3.0300    2.5300 O   0  0  0  0  0  0  0  0  0  0  0  0
    8.5189    4.6321    4.0939 N   0  0  0  0  0  0  0  0  0  0  0  0
    9.9363    4.7852    4.3992 C   0  0  0  0  0  0  0  0  0  0  0  0
   10.3608    6.2566    4.4009 C   0  0  0  0  0  0  0  0  0  0  0  0
    9.4724    7.1170    5.3090 C   0  0  2  0  0  0  0  0  0  0  0  0
    9.7279    6.8026    6.7165 N   0  0  0  0  0  0  0  0  0  0  0  0
    9.3582    7.6590    7.7179 C   0  0  0  0  0  0  0  0  0  0  0  0
    8.7481    8.6950    7.4911 O   0  0  0  0  0  0  0  0  0  0  0  0
    9.7490    7.2629    9.1197 C   0  0  0  0  0  0  0  0  0  0  0  0
   10.0635    5.9472    9.4970 C   0  0  0  0  0  0  0  0  0  0  0  0
   10.4057    5.6523   10.8193 C   0  0  0  0  0  0  0  0  0  0  0  0
   10.4360    6.6694   11.7780 C   0  0  0  0  0  0  0  0  0  0  0  0
   10.1111    7.9805   11.4125 C   0  0  0  0  0  0  0  0  0  0  0  0
    9.7622    8.2733   10.0938 C   0  0  0  0  0  0  0  0  0  0  0  0
    7.9968    6.8973    4.9318 C   0  0  0  0  0  0  0  0  0  0  0  0
    7.6064    5.4149    4.9190 C   0  0  0  0  0  0  0  0  0  0  0  0
    3.6428    7.0428   -2.4679 H   0  0  0  0  0  0  0  0  0  0  0  0
    2.5720    6.5241   -1.1461 H   0  0  0  0  0  0  0  0  0  0  0  0
    2.8806    5.4368   -2.5170 H   0  0  0  0  0  0  0  0  0  0  0  0
    5.0163    6.3628   -0.4791 H   0  0  0  0  0  0  0  0  0  0  0  0
    5.3207    5.2842   -1.8372 H   0  0  0  0  0  0  0  0  0  0  0  0
    3.7094    3.6101   -0.8637 H   0  0  0  0  0  0  0  0  0  0  0  0
    3.4208    4.6813    0.5056 H   0  0  0  0  0  0  0  0  0  0  0  0
    5.8968    4.5859    1.0700 H   0  0  0  0  0  0  0  0  0  0  0  0
    6.1381    3.4293   -0.2293 H   0  0  0  0  0  0  0  0  0  0  0  0
    4.3217    3.0443    2.2121 H   0  0  0  0  0  0  0  0  0  0  0  0
    3.4351    1.7002    0.4218 H   0  0  0  0  0  0  0  0  0  0  0  0
    4.1783    0.6840    1.6447 H   0  0  0  0  0  0  0  0  0  0  0  0
    5.4281    1.3585   -1.1041 H   0  0  0  0  0  0  0  0  0  0  0  0
    4.6963   -0.1824   -0.6196 H   0  0  0  0  0  0  0  0  0  0  0  0
    6.2083    0.3555    0.1362 H   0  0  0  0  0  0  0  0  0  0  0  0
    7.1410    1.9554    1.6559 H   0  0  0  0  0  0  0  0  0  0  0  0
    6.0606    1.3517    2.9224 H   0  0  0  0  0  0  0  0  0  0  0  0
    6.2023    3.6188    3.9081 H   0  0  0  0  0  0  0  0  0  0  0  0
   10.4952    4.2147    3.6482 H   0  0  0  0  0  0  0  0  0  0  0  0
   10.1575    4.3237    5.3858 H   0  0  0  0  0  0  0  0  0  0  0  0
   10.2865    6.6508    3.3748 H   0  0  0  0  0  0  0  0  0  0  0  0
   11.4188    6.3419    4.7027 H   0  0  0  0  0  0  0  0  0  0  0  0
    9.7040    8.1851    5.1651 H   0  0  0  0  0  0  0  0  0  0  0  0
   10.3828    6.0623    6.9338 H   0  0  0  0  0  0  0  0  0  0  0  0
   10.0148    5.1337    8.7685 H   0  0  0  0  0  0  0  0  0  0  0  0
   10.6413    4.6235   11.1030 H   0  0  0  0  0  0  0  0  0  0  0  0
   10.7056    6.4386   12.8118 H   0  0  0  0  0  0  0  0  0  0  0  0
   10.1266    8.7767   12.1611 H   0  0  0  0  0  0  0  0  0  0  0  0
    9.4909    9.2856    9.7883 H   0  0  0  0  0  0  0  0  0  0  0  0
    7.8347    7.3190    3.9255 H   0  0  0  0  0  0  0  0  0  0  0  0
    7.3550    7.4546    5.6298 H   0  0  0  0  0  0  0  0  0  0  0  0
    6.5862    5.3387    4.5211 H   0  0  0  0  0  0  0  0  0  0  0  0
    7.5863    5.0267    5.9582 H   0  0  0  0  0  0  0  0  0  0  0  0
  1  2  1  0
  1 27  1  0
  1 28  1  0
  1 29  1  0
  2  3  1  0
  2 30  1  0
  2 31  1  0
  3  4  1  0
  3 32  1  0
  3 33  1  0
  4  5  1  0
  4 34  1  0
  4 35  1  0
  5  6  1  0
  5  8  1  0
  5 36  1  1
  6  7  1  0
  6 37  1  0
  6 38  1  0
  7 39  1  0
  7 40  1  0
  7 41  1  0
  8  9  1  0
  8 42  1  0
  8 43  1  0
  9 10  1  0
  9 44  1  0
 10 11  2  0
 10 12  1  0
 12 13  1  0
 12 26  1  0
 13 14  1  0
 13 45  1  0
 13 46  1  0
 14 15  1  0
 14 47  1  0
 14 48  1  0
 15 16  1  0
 15 25  1  0
 15 49  1  1
 16 17  1  0
 16 50  1  0
 17 18  2  0
 17 19  1  0
 19 20  2  0
 19 24  1  0
 20 21  1  0
 20 51  1  0
 21 22  2  0
 21 52  1  0
 22 23  1  0
 22 53  1  0
 23 24  2  0
 23 54  1  0
 24 55  1  0
 25 26  1  0
 25 56  1  0
 25 57  1  0
 26 58  1  0
 26 59  1  0
M  END

