
     RDKit          3D

 36 37  0  0  0  0  0  0  0  0999 V2000
    1.6533   -0.1648    1.2204 C   0  0  0  0  0  0  0  0  0  0  0  0
    2.5433    0.1021   -0.0056 C   0  0  1  0  0  0  0  0  0  0  0  0
    1.6755    0.3028   -1.2539 C   0  0  0  0  0  0  0  0  0  0  0  0
    3.4938    1.3173    0.2659 C   0  0  0  0  0  0  0  0  0  0  0  0
    4.9074    0.7164    0.3977 C   0  0  0  0  0  0  0  0  0  0  0  0
    4.6742   -0.6980    0.6689 N   0  0  0  0  0  0  0  0  0  0  0  0
    5.8283   -1.5705    0.5700 C   0  0  0  0  0  0  0  0  0  0  0  0
    6.8510   -1.3762    1.6995 C   0  0  1  0  0  0  0  0  0  0  0  0
    6.3175   -1.6916    3.0818 C   0  0  0  0  0  0  0  0  0  0  0  0
    7.1583   -2.4509    3.7938 C   0  0  0  0  0  0  0  0  0  0  0  0
    8.4429   -2.7429    3.0446 C   0  0  2  0  0  0  0  0  0  0  0  0
    9.5593   -2.0454    3.6851 N   0  0  0  0  0  0  0  0  0  0  0  0
    8.0725   -2.3238    1.5873 C   0  0  0  0  0  0  0  0  0  0  0  0
    3.5521   -1.0582   -0.1846 C   0  0  0  0  0  0  0  0  0  0  0  0
    1.0160    0.7065    1.4449 H   0  0  0  0  0  0  0  0  0  0  0  0
    2.2719   -0.3751    2.1064 H   0  0  0  0  0  0  0  0  0  0  0  0
    0.9912   -1.0306    1.0513 H   0  0  0  0  0  0  0  0  0  0  0  0
    0.9758    1.1441   -1.1187 H   0  0  0  0  0  0  0  0  0  0  0  0
    1.0738   -0.5961   -1.4702 H   0  0  0  0  0  0  0  0  0  0  0  0
    2.2908    0.5161   -2.1433 H   0  0  0  0  0  0  0  0  0  0  0  0
    3.1975    1.8413    1.1873 H   0  0  0  0  0  0  0  0  0  0  0  0
    3.4534    2.0558   -0.5493 H   0  0  0  0  0  0  0  0  0  0  0  0
    5.5005    1.1900    1.1956 H   0  0  0  0  0  0  0  0  0  0  0  0
    5.4754    0.8511   -0.5535 H   0  0  0  0  0  0  0  0  0  0  0  0
    6.3465   -1.4479   -0.4126 H   0  0  0  0  0  0  0  0  0  0  0  0
    5.4690   -2.6136    0.6051 H   0  0  0  0  0  0  0  0  0  0  0  0
    7.1819   -0.3199    1.6740 H   0  0  0  0  0  0  0  0  0  0  0  0
    5.3524   -1.3126    3.4255 H   0  0  0  0  0  0  0  0  0  0  0  0
    7.0070   -2.7770    4.8259 H   0  0  0  0  0  0  0  0  0  0  0  0
    8.6905   -3.8190    3.0808 H   0  0  0  0  0  0  0  0  0  0  0  0
    9.4088   -1.0358    3.6555 H   0  0  0  0  0  0  0  0  0  0  0  0
   10.4306   -2.2288    3.1861 H   0  0  0  0  0  0  0  0  0  0  0  0
    7.7803   -3.2198    1.0130 H   0  0  0  0  0  0  0  0  0  0  0  0
    8.9298   -1.8703    1.0646 H   0  0  0  0  0  0  0  0  0  0  0  0
    3.1345   -2.0373    0.1036 H   0  0  0  0  0  0  0  0  0  0  0  0
    3.8601   -1.1325   -1.2554 H   0  0  0  0  0  0  0  0  0  0  0  0
  2  1  1  1
  1 15  1  0
  1 16  1  0
  1 17  1  0
  2  3  1  0
  2  4  1  0
  2 14  1  0
  3 18  1  0
  3 19  1  0
  3 20  1  0
  4  5  1  0
  4 21  1  0
  4 22  1  0
  5  6  1  0
  5 23  1  0
  5 24  1  0
  6  7  1  0
  6 14  1  0
  7  8  1  0
  7 25  1  0
  7 26  1  0
  8  9  1  0
  8 13  1  0
  8 27  1  1
  9 10  2  0
  9 28  1  0
 10 11  1  0
 10 29  1  0
 11 12  1  0
 11 13  1  0
 11 30  1  6
 12 31  1  0
 12 32  1  0
 13 33  1  0
 13 34  1  0
 14 35  1  0
 14 36  1  0
M  END

