
     RDKit          3D

 30 32  0  0  0  0  0  0  0  0999 V2000
    1.0287    1.5466   -1.3936 O   0  0  0  0  0  0  0  0  0  0  0  0
    2.2116    1.3507   -1.3890 C   0  0  0  0  0  0  0  0  0  0  0  0
    2.9342    1.2853   -2.5168 O   0  0  0  0  0  0  0  0  0  0  0  0
    2.9854    1.1595   -0.0730 C   0  0  0  0  0  0  0  0  0  0  0  0
    4.4185    0.9281   -0.1930 N   0  0  0  0  0  0  0  0  0  0  0  0
    5.3012    2.0191   -0.1125 C   0  0  0  0  0  0  0  0  0  0  0  0
    4.8339    3.3494   -0.2218 C   0  0  0  0  0  0  0  0  0  0  0  0
    5.7197    4.4183   -0.1323 C   0  0  0  0  0  0  0  0  0  0  0  0
    7.0925    4.2070    0.0643 C   0  0  0  0  0  0  0  0  0  0  0  0
    7.5631    2.9055    0.1569 C   0  0  0  0  0  0  0  0  0  0  0  0
    6.6902    1.8064    0.0666 C   0  0  0  0  0  0  0  0  0  0  0  0
    7.2551    0.4421    0.1529 C   0  0  0  0  0  0  0  0  0  0  0  0
    8.4453    0.2356    0.3519 O   0  0  0  0  0  0  0  0  0  0  0  0
    6.2830   -0.6540   -0.0507 C   0  0  0  0  0  0  0  0  0  0  0  0
    6.7548   -1.9788   -0.0760 C   0  0  0  0  0  0  0  0  0  0  0  0
    5.8923   -3.0454   -0.2818 C   0  0  0  0  0  0  0  0  0  0  0  0
    4.5276   -2.7850   -0.4764 C   0  0  0  0  0  0  0  0  0  0  0  0
    4.0339   -1.4847   -0.4529 C   0  0  0  0  0  0  0  0  0  0  0  0
    4.9023   -0.3914   -0.2276 C   0  0  0  0  0  0  0  0  0  0  0  0
    3.8669    1.1205   -2.3007 H   0  0  0  0  0  0  0  0  0  0  0  0
    2.5130    0.3258    0.4626 H   0  0  0  0  0  0  0  0  0  0  0  0
    2.7979    2.0471    0.5452 H   0  0  0  0  0  0  0  0  0  0  0  0
    3.7810    3.5633   -0.4003 H   0  0  0  0  0  0  0  0  0  0  0  0
    5.3296    5.4350   -0.2255 H   0  0  0  0  0  0  0  0  0  0  0  0
    7.7779    5.0543    0.1344 H   0  0  0  0  0  0  0  0  0  0  0  0
    8.6220    2.6816    0.3011 H   0  0  0  0  0  0  0  0  0  0  0  0
    7.8270   -2.1216    0.0724 H   0  0  0  0  0  0  0  0  0  0  0  0
    6.2678   -4.0707   -0.3010 H   0  0  0  0  0  0  0  0  0  0  0  0
    3.8330   -3.6090   -0.6578 H   0  0  0  0  0  0  0  0  0  0  0  0
    2.9711   -1.3312   -0.6345 H   0  0  0  0  0  0  0  0  0  0  0  0
  1  2  2  0
  2  3  1  0
  2  4  1  0
  3 20  1  0
  4  5  1  0
  4 21  1  0
  4 22  1  0
  5  6  1  0
  5 19  1  0
  6  7  2  0
  6 11  1  0
  7  8  1  0
  7 23  1  0
  8  9  2  0
  8 24  1  0
  9 10  1  0
  9 25  1  0
 10 11  2  0
 10 26  1  0
 11 12  1  0
 12 13  2  0
 12 14  1  0
 14 15  1  0
 14 19  2  0
 15 16  2  0
 15 27  1  0
 16 17  1  0
 16 28  1  0
 17 18  2  0
 17 29  1  0
 18 19  1  0
 18 30  1  0
M  END

