
     RDKit          3D

 68 71  0  0  0  0  0  0  0  0999 V2000
    1.7545    0.7400   -3.6268 O   0  0  0  0  0  0  0  0  0  0  0  0
    2.2066    0.9985   -2.5244 C   0  0  0  0  0  0  0  0  0  0  0  0
    1.7563    2.2132   -1.7762 C   0  0  0  0  0  0  0  0  0  0  0  0
    2.1792    2.5366   -0.4743 C   0  0  0  0  0  0  0  0  0  0  0  0
    1.7149    3.6881    0.1584 C   0  0  0  0  0  0  0  0  0  0  0  0
    0.8122    4.5594   -0.4807 C   0  0  0  0  0  0  0  0  0  0  0  0
    0.3192    5.7861    0.1971 C   0  0  0  0  0  0  0  0  0  0  0  0
    1.1575    6.5288    1.0509 C   0  0  0  0  0  0  0  0  0  0  0  0
    0.6943    7.6823    1.6863 C   0  0  0  0  0  0  0  0  0  0  0  0
   -0.6191    8.1178    1.4860 C   0  0  0  0  0  0  0  0  0  0  0  0
   -1.4644    7.3905    0.6427 C   0  0  0  0  0  0  0  0  0  0  0  0
   -1.0001    6.2393    0.0040 C   0  0  0  0  0  0  0  0  0  0  0  0
    0.3911    4.2277   -1.7858 C   0  0  0  0  0  0  0  0  0  0  0  0
    0.8528    3.0805   -2.4194 C   0  0  0  0  0  0  0  0  0  0  0  0
    3.2533    0.0765   -1.8989 C   0  0  1  0  0  0  0  0  0  0  0  0
    3.1989   -1.3571   -2.4292 C   0  0  0  0  0  0  0  0  0  0  0  0
    4.1814   -2.3308   -1.7440 C   0  0  0  0  0  0  0  0  0  0  0  0
    4.2936   -2.1205   -0.3617 O   0  0  0  0  0  0  0  0  0  0  0  0
    4.9538    0.9301   -1.8880 S   0  0  0  0  0  0  0  0  0  0  0  0
    5.7868    0.0943   -0.9208 O   0  0  0  0  0  0  0  0  0  0  0  0
    5.6065    0.4744   -3.5884 C   0  0  1  0  0  0  0  0  0  0  0  0
    4.8963    1.1935   -4.7492 C   0  0  0  0  0  0  0  0  0  0  0  0
    4.8669    2.7186   -4.6822 C   0  0  0  0  0  0  0  0  0  0  0  0
    4.2213    3.1603   -5.8588 O   0  0  0  0  0  0  0  0  0  0  0  0
    7.1021    0.8199   -3.5291 C   0  0  0  0  0  0  0  0  0  0  0  0
    7.4417    1.8987   -3.0776 O   0  0  0  0  0  0  0  0  0  0  0  0
    8.1059   -0.1432   -4.0735 C   0  0  0  0  0  0  0  0  0  0  0  0
    9.4644    0.2169   -3.9893 C   0  0  0  0  0  0  0  0  0  0  0  0
   10.4570   -0.6225   -4.4791 C   0  0  0  0  0  0  0  0  0  0  0  0
   10.1362   -1.8568   -5.0826 C   0  0  0  0  0  0  0  0  0  0  0  0
   11.1975   -2.7543   -5.6070 C   0  0  0  0  0  0  0  0  0  0  0  0
   12.4374   -2.8700   -4.9493 C   0  0  0  0  0  0  0  0  0  0  0  0
   13.4340   -3.7154   -5.4400 C   0  0  0  0  0  0  0  0  0  0  0  0
   13.2159   -4.4613   -6.6022 C   0  0  0  0  0  0  0  0  0  0  0  0
   11.9911   -4.3557   -7.2683 C   0  0  0  0  0  0  0  0  0  0  0  0
   10.9929   -3.5136   -6.7753 C   0  0  0  0  0  0  0  0  0  0  0  0
    8.7763   -2.2098   -5.1702 C   0  0  0  0  0  0  0  0  0  0  0  0
    7.7793   -1.3720   -4.6736 C   0  0  0  0  0  0  0  0  0  0  0  0
    2.8679    1.8882    0.0695 H   0  0  0  0  0  0  0  0  0  0  0  0
    2.0395    3.9001    1.1790 H   0  0  0  0  0  0  0  0  0  0  0  0
    2.1931    6.2142    1.1987 H   0  0  0  0  0  0  0  0  0  0  0  0
    1.3662    8.2481    2.3367 H   0  0  0  0  0  0  0  0  0  0  0  0
   -0.9821    9.0198    1.9848 H   0  0  0  0  0  0  0  0  0  0  0  0
   -2.4956    7.7172    0.4860 H   0  0  0  0  0  0  0  0  0  0  0  0
   -1.6795    5.6684   -0.6330 H   0  0  0  0  0  0  0  0  0  0  0  0
   -0.2892    4.8959   -2.3182 H   0  0  0  0  0  0  0  0  0  0  0  0
    0.5336    2.8310   -3.4330 H   0  0  0  0  0  0  0  0  0  0  0  0
    3.1176    0.0342   -0.8081 H   0  0  0  0  0  0  0  0  0  0  0  0
    3.3192   -1.3802   -3.5236 H   0  0  0  0  0  0  0  0  0  0  0  0
    2.1656   -1.6978   -2.2432 H   0  0  0  0  0  0  0  0  0  0  0  0
    5.1737   -2.2747   -2.2313 H   0  0  0  0  0  0  0  0  0  0  0  0
    3.8133   -3.3583   -1.9077 H   0  0  0  0  0  0  0  0  0  0  0  0
    4.9393   -1.3892   -0.2668 H   0  0  0  0  0  0  0  0  0  0  0  0
    5.4516   -0.6060   -3.6708 H   0  0  0  0  0  0  0  0  0  0  0  0
    3.8609    0.8301   -4.8345 H   0  0  0  0  0  0  0  0  0  0  0  0
    5.4026    0.9061   -5.6874 H   0  0  0  0  0  0  0  0  0  0  0  0
    5.8932    3.1198   -4.5972 H   0  0  0  0  0  0  0  0  0  0  0  0
    4.3238    3.0449   -3.7719 H   0  0  0  0  0  0  0  0  0  0  0  0
    4.2091    4.1250   -5.8552 H   0  0  0  0  0  0  0  0  0  0  0  0
    9.7149    1.1758   -3.5323 H   0  0  0  0  0  0  0  0  0  0  0  0
   11.5013   -0.3089   -4.4174 H   0  0  0  0  0  0  0  0  0  0  0  0
   12.6134   -2.3118   -4.0269 H   0  0  0  0  0  0  0  0  0  0  0  0
   14.3845   -3.7972   -4.9065 H   0  0  0  0  0  0  0  0  0  0  0  0
   13.9968   -5.1218   -6.9872 H   0  0  0  0  0  0  0  0  0  0  0  0
   11.8134   -4.9276   -8.1826 H   0  0  0  0  0  0  0  0  0  0  0  0
   10.0500   -3.4233   -7.3195 H   0  0  0  0  0  0  0  0  0  0  0  0
    8.4951   -3.1692   -5.6090 H   0  0  0  0  0  0  0  0  0  0  0  0
    6.7405   -1.6951   -4.7567 H   0  0  0  0  0  0  0  0  0  0  0  0
  1  2  2  0
  2  3  1  0
  2 15  1  0
  3  4  2  0
  3 14  1  0
  4  5  1  0
  4 39  1  0
  5  6  2  0
  5 40  1  0
  6  7  1  0
  6 13  1  0
  7  8  2  0
  7 12  1  0
  8  9  1  0
  8 41  1  0
  9 10  2  0
  9 42  1  0
 10 11  1  0
 10 43  1  0
 11 12  2  0
 11 44  1  0
 12 45  1  0
 13 14  2  0
 13 46  1  0
 14 47  1  0
 15 16  1  0
 15 19  1  0
 15 48  1  1
 16 17  1  0
 16 49  1  0
 16 50  1  0
 17 18  1  0
 17 51  1  0
 17 52  1  0
 18 53  1  0
 19 20  1  1
 19 21  1  0
 21 22  1  0
 21 25  1  0
 21 54  1  6
 22 23  1  0
 22 55  1  0
 22 56  1  0
 23 24  1  0
 23 57  1  0
 23 58  1  0
 24 59  1  0
 25 26  2  0
 25 27  1  0
 27 28  2  0
 27 38  1  0
 28 29  1  0
 28 60  1  0
 29 30  2  0
 29 61  1  0
 30 31  1  0
 30 37  1  0
 31 32  2  0
 31 36  1  0
 32 33  1  0
 32 62  1  0
 33 34  2  0
 33 63  1  0
 34 35  1  0
 34 64  1  0
 35 36  2  0
 35 65  1  0
 36 66  1  0
 37 38  2  0
 37 67  1  0
 38 68  1  0
M  CHG  2  19   1  20  -1
M  END

