
     RDKit          3D

 75 78  0  0  0  0  0  0  0  0999 V2000
    3.5588    0.5792   -1.8457 C   0  0  0  0  0  0  0  0  0  0  0  0
    2.6978   -0.3287   -1.1980 O   0  0  0  0  0  0  0  0  0  0  0  0
    3.1631   -1.5392   -0.7918 C   0  0  0  0  0  0  0  0  0  0  0  0
    4.4981   -1.9316   -0.9886 C   0  0  0  0  0  0  0  0  0  0  0  0
    4.9558   -3.1829   -0.5625 C   0  0  0  0  0  0  0  0  0  0  0  0
    6.2215   -3.6247   -0.7183 O   0  0  0  0  0  0  0  0  0  0  0  0
    7.1748   -2.8009   -1.3484 C   0  0  0  0  0  0  0  0  0  0  0  0
    4.0593   -4.0773    0.0814 C   0  0  0  0  0  0  0  0  0  0  0  0
    4.5808   -5.2703    0.4641 O   0  0  0  0  0  0  0  0  0  0  0  0
    3.7418   -6.2002    1.1070 C   0  0  0  0  0  0  0  0  0  0  0  0
    2.7441   -3.6740    0.2676 C   0  0  0  0  0  0  0  0  0  0  0  0
    2.2493   -2.4122   -0.1528 C   0  0  0  0  0  0  0  0  0  0  0  0
    0.8470   -2.1300    0.1099 C   0  0  0  0  0  0  0  0  0  0  0  0
    0.0900   -1.0376   -0.1580 C   0  0  0  0  0  0  0  0  0  0  0  0
   -1.3400   -1.0365    0.2315 C   0  0  0  0  0  0  0  0  0  0  0  0
   -1.8601   -2.0021    0.7805 O   0  0  0  0  0  0  0  0  0  0  0  0
   -2.1707    0.1844   -0.0586 C   0  0  0  0  0  0  0  0  0  0  0  0
   -3.5321    0.1498    0.2920 C   0  0  0  0  0  0  0  0  0  0  0  0
   -4.3833    1.2267    0.0658 C   0  0  0  0  0  0  0  0  0  0  0  0
   -3.8746    2.3974   -0.5295 C   0  0  0  0  0  0  0  0  0  0  0  0
   -4.6495    3.5413   -0.7884 N   0  0  0  0  0  0  0  0  0  0  0  0
   -5.9937    3.7380   -0.5986 C   0  0  0  0  0  0  0  0  0  0  0  0
   -6.7664    2.8654   -0.2209 O   0  0  0  0  0  0  0  0  0  0  0  0
   -6.5311    5.1221   -0.8840 C   0  0  0  0  0  0  0  0  0  0  0  0
   -5.7563    6.2372   -0.8236 C   0  0  0  0  0  0  0  0  0  0  0  0
   -6.0792    7.6636   -0.8352 C   0  0  0  0  0  0  0  0  0  0  0  0
   -7.3543    8.1945   -0.5474 C   0  0  0  0  0  0  0  0  0  0  0  0
   -7.5644    9.5694   -0.5098 C   0  0  0  0  0  0  0  0  0  0  0  0
   -6.5272   10.4809   -0.7741 C   0  0  0  0  0  0  0  0  0  0  0  0
   -6.7838   11.9669   -0.7769 C   0  0  0  0  0  0  0  0  0  0  0  0
   -5.2551    9.9568   -1.0491 C   0  0  0  0  0  0  0  0  0  0  0  0
   -5.0343    8.5810   -1.0677 C   0  0  0  0  0  0  0  0  0  0  0  0
   -7.9154    5.0576   -1.1015 N   0  0  0  0  0  0  0  0  0  0  0  0
   -8.5958    5.6796   -2.1378 C   0  0  0  0  0  0  0  0  0  0  0  0
   -8.0642    6.4735   -2.8914 O   0  0  0  0  0  0  0  0  0  0  0  0
  -10.0501    5.3104   -2.2596 C   0  0  0  0  0  0  0  0  0  0  0  0
  -10.7814    4.6717   -1.2440 C   0  0  0  0  0  0  0  0  0  0  0  0
  -12.1326    4.3692   -1.4309 C   0  0  0  0  0  0  0  0  0  0  0  0
  -12.7661    4.7018   -2.6319 C   0  0  0  0  0  0  0  0  0  0  0  0
  -12.0466    5.3474   -3.6439 C   0  0  0  0  0  0  0  0  0  0  0  0
  -10.6993    5.6548   -3.4565 C   0  0  0  0  0  0  0  0  0  0  0  0
   -2.5135    2.4467   -0.8843 C   0  0  0  0  0  0  0  0  0  0  0  0
   -1.6775    1.3582   -0.6541 C   0  0  0  0  0  0  0  0  0  0  0  0
    4.4037    0.8788   -1.2000 H   0  0  0  0  0  0  0  0  0  0  0  0
    2.9578    1.4692   -2.0761 H   0  0  0  0  0  0  0  0  0  0  0  0
    3.9583    0.1666   -2.7895 H   0  0  0  0  0  0  0  0  0  0  0  0
    5.1916   -1.2550   -1.4799 H   0  0  0  0  0  0  0  0  0  0  0  0
    8.1160   -3.3663   -1.3605 H   0  0  0  0  0  0  0  0  0  0  0  0
    7.3325   -1.8569   -0.7957 H   0  0  0  0  0  0  0  0  0  0  0  0
    6.8885   -2.5616   -2.3887 H   0  0  0  0  0  0  0  0  0  0  0  0
    4.3601   -7.0815    1.3251 H   0  0  0  0  0  0  0  0  0  0  0  0
    2.8960   -6.5074    0.4645 H   0  0  0  0  0  0  0  0  0  0  0  0
    3.3367   -5.8042    2.0566 H   0  0  0  0  0  0  0  0  0  0  0  0
    2.0390   -4.3443    0.7588 H   0  0  0  0  0  0  0  0  0  0  0  0
    0.3067   -2.9413    0.6121 H   0  0  0  0  0  0  0  0  0  0  0  0
    0.5201   -0.1731   -0.6539 H   0  0  0  0  0  0  0  0  0  0  0  0
   -3.9106   -0.7638    0.7542 H   0  0  0  0  0  0  0  0  0  0  0  0
   -5.4353    1.1765    0.3351 H   0  0  0  0  0  0  0  0  0  0  0  0
   -4.1526    4.2983   -1.2412 H   0  0  0  0  0  0  0  0  0  0  0  0
   -4.6876    6.0537   -0.6800 H   0  0  0  0  0  0  0  0  0  0  0  0
   -8.1808    7.5243   -0.3145 H   0  0  0  0  0  0  0  0  0  0  0  0
   -8.5628    9.9479   -0.2718 H   0  0  0  0  0  0  0  0  0  0  0  0
   -7.2737   12.2815   -1.7154 H   0  0  0  0  0  0  0  0  0  0  0  0
   -5.8495   12.5408   -0.6856 H   0  0  0  0  0  0  0  0  0  0  0  0
   -7.4508   12.2637    0.0481 H   0  0  0  0  0  0  0  0  0  0  0  0
   -4.4219   10.6378   -1.2449 H   0  0  0  0  0  0  0  0  0  0  0  0
   -4.0280    8.2034   -1.2718 H   0  0  0  0  0  0  0  0  0  0  0  0
   -8.3014    4.1825   -0.7475 H   0  0  0  0  0  0  0  0  0  0  0  0
  -10.3112    4.4270   -0.2887 H   0  0  0  0  0  0  0  0  0  0  0  0
  -12.6932    3.8767   -0.6325 H   0  0  0  0  0  0  0  0  0  0  0  0
  -13.8227    4.4624   -2.7773 H   0  0  0  0  0  0  0  0  0  0  0  0
  -12.5403    5.6134   -4.5820 H   0  0  0  0  0  0  0  0  0  0  0  0
  -10.1202    6.1668   -4.2272 H   0  0  0  0  0  0  0  0  0  0  0  0
   -2.1076    3.3521   -1.3459 H   0  0  0  0  0  0  0  0  0  0  0  0
   -0.6293    1.4394   -0.9435 H   0  0  0  0  0  0  0  0  0  0  0  0
  1  2  1  0
  1 44  1  0
  1 45  1  0
  1 46  1  0
  2  3  1  0
  3  4  2  0
  3 12  1  0
  4  5  1  0
  4 47  1  0
  5  6  1  0
  5  8  2  0
  6  7  1  0
  7 48  1  0
  7 49  1  0
  7 50  1  0
  8  9  1  0
  8 11  1  0
  9 10  1  0
 10 51  1  0
 10 52  1  0
 10 53  1  0
 11 12  2  0
 11 54  1  0
 12 13  1  0
 13 14  2  0
 13 55  1  0
 14 15  1  0
 14 56  1  0
 15 16  2  0
 15 17  1  0
 17 18  2  0
 17 43  1  0
 18 19  1  0
 18 57  1  0
 19 20  2  0
 19 58  1  0
 20 21  1  0
 20 42  1  0
 21 22  1  0
 21 59  1  0
 22 23  2  0
 22 24  1  0
 24 25  2  0
 24 33  1  0
 25 26  1  0
 25 60  1  0
 26 27  2  0
 26 32  1  0
 27 28  1  0
 27 61  1  0
 28 29  2  0
 28 62  1  0
 29 30  1  0
 29 31  1  0
 30 63  1  0
 30 64  1  0
 30 65  1  0
 31 32  2  0
 31 66  1  0
 32 67  1  0
 33 34  1  0
 33 68  1  0
 34 35  2  0
 34 36  1  0
 36 37  2  0
 36 41  1  0
 37 38  1  0
 37 69  1  0
 38 39  2  0
 38 70  1  0
 39 40  1  0
 39 71  1  0
 40 41  2  0
 40 72  1  0
 41 73  1  0
 42 43  2  0
 42 74  1  0
 43 75  1  0
M  END

