
     RDKit          3D

 38 39  0  0  0  0  0  0  0  0999 V2000
    0.7943   -0.4631   -0.4205 C   0  0  0  0  0  0  0  0  0  0  0  0
    2.2278   -0.2707   -0.2975 N   0  0  0  0  0  0  0  0  0  0  0  0
    2.9600   -1.4132   -0.8227 C   0  0  0  0  0  0  0  0  0  0  0  0
    4.4754   -1.4061   -0.5906 C   0  0  0  0  0  0  0  0  0  0  0  0
    5.2455   -0.3755   -1.4294 C   0  0  0  0  0  0  0  0  0  0  0  0
    5.2832    1.0671   -0.8825 C   0  0  2  0  0  0  0  0  0  0  0  0
    6.4312    1.2145    0.0114 N   0  0  0  0  0  0  0  0  0  0  0  0
    7.1358    2.3368    0.2576 C   0  0  0  0  0  0  0  0  0  0  0  0
    6.8495    3.5666   -0.4118 C   0  0  0  0  0  0  0  0  0  0  0  0
    7.5796    4.7137   -0.1882 C   0  0  0  0  0  0  0  0  0  0  0  0
    8.6574    4.7309    0.7323 C   0  0  0  0  0  0  0  0  0  0  0  0
    9.4080    5.9293    0.9600 C   0  0  0  0  0  0  0  0  0  0  0  0
   10.0102    6.9072    1.1363 N   0  0  0  0  0  0  0  0  0  0  0  0
    8.9635    3.5516    1.4108 C   0  0  0  0  0  0  0  0  0  0  0  0
    8.2310    2.3811    1.1899 C   0  0  0  0  0  0  0  0  0  0  0  0
    8.6453    1.2110    1.9588 N   0  0  0  0  0  0  0  0  0  0  0  0
    8.0210    0.1542    1.8093 O   0  0  0  0  0  0  0  0  0  0  0  0
    9.5905    1.3177    2.7209 O   0  0  0  0  0  0  0  0  0  0  0  0
    3.9837    1.5105   -0.1710 C   0  0  0  0  0  0  0  0  0  0  0  0
    2.6583    1.0358   -0.7842 C   0  0  0  0  0  0  0  0  0  0  0  0
    0.4982   -1.4069    0.0642 H   0  0  0  0  0  0  0  0  0  0  0  0
    0.4395   -0.5065   -1.4767 H   0  0  0  0  0  0  0  0  0  0  0  0
    0.2545    0.3554    0.0809 H   0  0  0  0  0  0  0  0  0  0  0  0
    2.7812   -1.5390   -1.9200 H   0  0  0  0  0  0  0  0  0  0  0  0
    2.5413   -2.3140   -0.3441 H   0  0  0  0  0  0  0  0  0  0  0  0
    4.8414   -2.4092   -0.8643 H   0  0  0  0  0  0  0  0  0  0  0  0
    4.6872   -1.2896    0.4864 H   0  0  0  0  0  0  0  0  0  0  0  0
    4.8013   -0.3522   -2.4382 H   0  0  0  0  0  0  0  0  0  0  0  0
    6.2880   -0.7024   -1.5736 H   0  0  0  0  0  0  0  0  0  0  0  0
    5.4549    1.7258   -1.7490 H   0  0  0  0  0  0  0  0  0  0  0  0
    6.7107    0.4174    0.5837 H   0  0  0  0  0  0  0  0  0  0  0  0
    6.0241    3.6003   -1.1211 H   0  0  0  0  0  0  0  0  0  0  0  0
    7.3221    5.6284   -0.7262 H   0  0  0  0  0  0  0  0  0  0  0  0
    9.7800    3.5113    2.1299 H   0  0  0  0  0  0  0  0  0  0  0  0
    3.9820    2.6115   -0.1162 H   0  0  0  0  0  0  0  0  0  0  0  0
    4.0071    1.1516    0.8697 H   0  0  0  0  0  0  0  0  0  0  0  0
    2.6990    1.0820   -1.8992 H   0  0  0  0  0  0  0  0  0  0  0  0
    1.8805    1.7560   -0.4878 H   0  0  0  0  0  0  0  0  0  0  0  0
  1  2  1  0
  1 21  1  0
  1 22  1  0
  1 23  1  0
  2  3  1  0
  2 20  1  0
  3  4  1  0
  3 24  1  0
  3 25  1  0
  4  5  1  0
  4 26  1  0
  4 27  1  0
  5  6  1  0
  5 28  1  0
  5 29  1  0
  6  7  1  0
  6 19  1  0
  6 30  1  6
  7  8  1  0
  7 31  1  0
  8  9  2  0
  8 15  1  0
  9 10  1  0
  9 32  1  0
 10 11  2  0
 10 33  1  0
 11 12  1  0
 11 14  1  0
 12 13  3  0
 14 15  2  0
 14 34  1  0
 15 16  1  0
 16 17  2  0
 16 18  1  0
 19 20  1  0
 19 35  1  0
 19 36  1  0
 20 37  1  0
 20 38  1  0
M  CHG  2  16   1  18  -1
M  END

