
     RDKit          3D

 56 59  0  0  0  0  0  0  0  0999 V2000
   11.7889    3.3176   -2.6978 C   0  0  0  0  0  0  0  0  0  0  0  0
   10.5398    2.5390   -2.3676 C   0  0  0  0  0  0  0  0  0  0  0  0
   10.1261    1.4540   -3.1558 C   0  0  0  0  0  0  0  0  0  0  0  0
    8.9699    0.7331   -2.8478 C   0  0  0  0  0  0  0  0  0  0  0  0
    8.2153    1.0976   -1.7297 C   0  0  0  0  0  0  0  0  0  0  0  0
    6.7506    0.1485   -1.2967 S   0  0  1  0  0  0  0  0  0  0  0  0
    5.8723    1.0287   -0.5237 O   0  0  0  0  0  0  0  0  0  0  0  0
    6.2951   -0.5308   -2.5120 O   0  0  0  0  0  0  0  0  0  0  0  0
    7.2440   -1.0650   -0.2407 N   0  0  0  0  0  0  0  0  0  0  0  0
    7.5968   -0.6968    1.1349 C   0  0  0  0  0  0  0  0  0  0  0  0
    7.3678   -1.8957    2.0630 C   0  0  0  0  0  0  0  0  0  0  0  0
    8.0436   -3.1904    1.5753 C   0  0  2  0  0  0  0  0  0  0  0  0
    9.5613   -3.1751    1.7930 C   0  0  0  0  0  0  0  0  0  0  0  0
   10.2268   -2.1676    1.8662 O   0  0  0  0  0  0  0  0  0  0  0  0
   10.1114   -4.4572    1.8728 N   0  0  0  0  0  0  0  0  0  0  0  0
   11.4678   -4.7637    1.9484 C   0  0  0  0  0  0  0  0  0  0  0  0
   12.4225   -4.1385    1.3386 N   0  0  0  0  0  0  0  0  0  0  0  0
   13.6402   -4.6892    1.6394 C   0  0  0  0  0  0  0  0  0  0  0  0
   13.6503   -5.7735    2.4787 C   0  0  0  0  0  0  0  0  0  0  0  0
   14.8130   -6.6096    2.9209 C   0  0  0  0  0  0  0  0  0  0  0  0
   15.2511   -6.4586    4.3716 C   0  0  0  0  0  0  0  0  0  0  0  0
   14.8479   -5.3742    5.1655 C   0  0  0  0  0  0  0  0  0  0  0  0
   15.2764   -5.2332    6.4876 C   0  0  0  0  0  0  0  0  0  0  0  0
   16.1282   -6.1859    7.0505 C   0  0  0  0  0  0  0  0  0  0  0  0
   16.5517   -7.2738    6.2849 C   0  0  0  0  0  0  0  0  0  0  0  0
   16.1158   -7.3985    4.9633 C   0  0  0  0  0  0  0  0  0  0  0  0
   16.6900   -8.7736    4.0313 Cl  0  0  0  0  0  0  0  0  0  0  0  0
   12.0011   -6.1081    2.9675 S   0  0  0  0  0  0  0  0  0  0  0  0
    7.7021   -3.4391    0.0846 C   0  0  0  0  0  0  0  0  0  0  0  0
    7.9739   -2.2098   -0.7857 C   0  0  0  0  0  0  0  0  0  0  0  0
    8.5954    2.1858   -0.9352 C   0  0  0  0  0  0  0  0  0  0  0  0
    9.7523    2.8934   -1.2574 C   0  0  0  0  0  0  0  0  0  0  0  0
   12.2873    2.9243   -3.5956 H   0  0  0  0  0  0  0  0  0  0  0  0
   12.5114    3.2800   -1.8656 H   0  0  0  0  0  0  0  0  0  0  0  0
   11.5594    4.3813   -2.8760 H   0  0  0  0  0  0  0  0  0  0  0  0
   10.7148    1.1709   -4.0327 H   0  0  0  0  0  0  0  0  0  0  0  0
    8.6389   -0.0933   -3.4790 H   0  0  0  0  0  0  0  0  0  0  0  0
    6.9466    0.1328    1.4410 H   0  0  0  0  0  0  0  0  0  0  0  0
    8.6502   -0.3728    1.2007 H   0  0  0  0  0  0  0  0  0  0  0  0
    6.2837   -2.0845    2.1299 H   0  0  0  0  0  0  0  0  0  0  0  0
    7.7222   -1.6374    3.0730 H   0  0  0  0  0  0  0  0  0  0  0  0
    7.6361   -4.0349    2.1594 H   0  0  0  0  0  0  0  0  0  0  0  0
    9.4649   -5.2343    1.9474 H   0  0  0  0  0  0  0  0  0  0  0  0
   14.5422   -4.2697    1.1877 H   0  0  0  0  0  0  0  0  0  0  0  0
   15.6683   -6.3631    2.2669 H   0  0  0  0  0  0  0  0  0  0  0  0
   14.6072   -7.6746    2.7264 H   0  0  0  0  0  0  0  0  0  0  0  0
   14.1818   -4.6258    4.7315 H   0  0  0  0  0  0  0  0  0  0  0  0
   14.9423   -4.3760    7.0768 H   0  0  0  0  0  0  0  0  0  0  0  0
   16.4674   -6.0867    8.0845 H   0  0  0  0  0  0  0  0  0  0  0  0
   17.2196   -8.0300    6.7007 H   0  0  0  0  0  0  0  0  0  0  0  0
    6.6311   -3.6892    0.0109 H   0  0  0  0  0  0  0  0  0  0  0  0
    8.2700   -4.2987   -0.3074 H   0  0  0  0  0  0  0  0  0  0  0  0
    7.6145   -2.3932   -1.8064 H   0  0  0  0  0  0  0  0  0  0  0  0
    9.0622   -2.0037   -0.8316 H   0  0  0  0  0  0  0  0  0  0  0  0
    7.9741    2.4815   -0.0881 H   0  0  0  0  0  0  0  0  0  0  0  0
   10.0477    3.7453   -0.6382 H   0  0  0  0  0  0  0  0  0  0  0  0
  1  2  1  0
  1 33  1  0
  1 34  1  0
  1 35  1  0
  2  3  2  0
  2 32  1  0
  3  4  1  0
  3 36  1  0
  4  5  2  0
  4 37  1  0
  6  5  1  6
  5 31  1  0
  6  7  2  0
  6  8  2  0
  6  9  1  0
  9 10  1  0
  9 30  1  0
 10 11  1  0
 10 38  1  0
 10 39  1  0
 11 12  1  0
 11 40  1  0
 11 41  1  0
 12 13  1  0
 12 29  1  0
 12 42  1  1
 13 14  2  0
 13 15  1  0
 15 16  1  0
 15 43  1  0
 16 17  2  0
 16 28  1  0
 17 18  1  0
 18 19  2  0
 18 44  1  0
 19 20  1  0
 19 28  1  0
 20 21  1  0
 20 45  1  0
 20 46  1  0
 21 22  2  0
 21 26  1  0
 22 23  1  0
 22 47  1  0
 23 24  2  0
 23 48  1  0
 24 25  1  0
 24 49  1  0
 25 26  2  0
 25 50  1  0
 26 27  1  0
 29 30  1  0
 29 51  1  0
 29 52  1  0
 30 53  1  0
 30 54  1  0
 31 32  2  0
 31 55  1  0
 32 56  1  0
M  END

