
     RDKit          3D

 64 68  0  0  0  0  0  0  0  0999 V2000
    7.2137    3.3480   -6.6967 O   0  0  0  0  0  0  0  0  0  0  0  0
    7.3545    4.3484   -6.0087 C   0  0  0  0  0  0  0  0  0  0  0  0
    7.3469    5.7371   -6.6581 C   0  0  1  0  0  0  0  0  0  0  0  0
    6.9018    6.4785   -5.9738 H   0  0  0  0  0  0  0  0  0  0  0  0
    8.7929    6.1843   -6.9741 C   0  0  0  0  0  0  0  0  0  0  0  0
    8.8342    7.3883   -7.8813 C   0  0  0  0  0  0  0  0  0  0  0  0
    7.7797    7.8191   -8.5857 C   0  0  0  0  0  0  0  0  0  0  0  0
    6.4408    7.1277   -8.5730 C   0  0  0  0  0  0  0  0  0  0  0  0
    6.5072    5.7299   -7.9452 C   0  0  0  0  0  0  0  0  0  0  0  0
    7.5534    4.2561   -4.6450 N   0  0  0  0  0  0  0  0  0  0  0  0
    7.7959    5.3499   -3.7186 C   0  0  0  0  0  0  0  0  0  0  0  0
    6.8254    5.3052   -2.5282 C   0  0  0  0  0  0  0  0  0  0  0  0
    6.8715    3.9390   -1.8214 C   0  0  1  0  0  0  0  0  0  0  0  0
    5.9602    3.8951   -0.5382 C   0  0  2  0  0  0  0  0  0  0  0  0
    4.4593    4.0184   -0.8442 C   0  0  0  0  0  0  0  0  0  0  0  0
    3.7765    5.2278   -0.6567 C   0  0  0  0  0  0  0  0  0  0  0  0
    2.4207    5.3112   -0.9749 C   0  0  0  0  0  0  0  0  0  0  0  0
    1.7816    4.1705   -1.4664 C   0  0  0  0  0  0  0  0  0  0  0  0
    2.4084    3.0053   -1.6345 N   0  0  0  0  0  0  0  0  0  0  0  0
    3.7067    2.9327   -1.3331 C   0  0  0  0  0  0  0  0  0  0  0  0
    6.4046    4.8998    0.4228 N   0  0  0  0  0  0  0  0  0  0  0  0
    6.9391    4.3850    1.5730 C   0  0  0  0  0  0  0  0  0  0  0  0
    7.4296    4.9781    2.5049 O   0  0  0  0  0  0  0  0  0  0  0  0
    6.8165    2.9831    1.4667 N   0  0  0  0  0  0  0  0  0  0  0  0
    7.2411    2.0684    2.5152 C   0  0  0  0  0  0  0  0  0  0  0  0
    6.1877    1.9127    3.6302 C   0  0  0  0  0  0  0  0  0  0  0  0
    6.6253    0.9793    4.7223 C   0  0  0  0  0  0  0  0  0  0  0  0
    7.1331    1.2965    5.9608 C   0  0  0  0  0  0  0  0  0  0  0  0
    7.4911    0.1527    6.7390 C   0  0  0  0  0  0  0  0  0  0  0  0
    7.2555   -1.0269    6.0813 C   0  0  0  0  0  0  0  0  0  0  0  0
    6.5901   -0.7534    4.5070 S   0  0  0  0  0  0  0  0  0  0  0  0
    6.2580    2.5976    0.2695 C   0  0  0  0  0  0  0  0  0  0  0  0
    6.0622    1.4561   -0.0840 O   0  0  0  0  0  0  0  0  0  0  0  0
    6.6158    2.8309   -2.8559 C   0  0  0  0  0  0  0  0  0  0  0  0
    7.6037    2.9352   -4.0223 C   0  0  0  0  0  0  0  0  0  0  0  0
    9.3355    5.3422   -7.4447 H   0  0  0  0  0  0  0  0  0  0  0  0
    9.3446    6.4029   -6.0427 H   0  0  0  0  0  0  0  0  0  0  0  0
    9.7880    7.9228   -7.9526 H   0  0  0  0  0  0  0  0  0  0  0  0
    7.8795    8.7148   -9.2090 H   0  0  0  0  0  0  0  0  0  0  0  0
    6.0515    7.0569   -9.6039 H   0  0  0  0  0  0  0  0  0  0  0  0
    5.7087    7.7614   -8.0341 H   0  0  0  0  0  0  0  0  0  0  0  0
    6.9591    5.0138   -8.6488 H   0  0  0  0  0  0  0  0  0  0  0  0
    5.4946    5.3518   -7.7352 H   0  0  0  0  0  0  0  0  0  0  0  0
    7.7091    6.3141   -4.2310 H   0  0  0  0  0  0  0  0  0  0  0  0
    8.8349    5.2834   -3.3376 H   0  0  0  0  0  0  0  0  0  0  0  0
    5.8024    5.5039   -2.8897 H   0  0  0  0  0  0  0  0  0  0  0  0
    7.0980    6.1223   -1.8392 H   0  0  0  0  0  0  0  0  0  0  0  0
    7.9004    3.8039   -1.4362 H   0  0  0  0  0  0  0  0  0  0  0  0
    4.2896    6.1010   -0.2499 H   0  0  0  0  0  0  0  0  0  0  0  0
    1.8682    6.2434   -0.8367 H   0  0  0  0  0  0  0  0  0  0  0  0
    0.7168    4.1991   -1.7268 H   0  0  0  0  0  0  0  0  0  0  0  0
    4.1800    1.9558   -1.4580 H   0  0  0  0  0  0  0  0  0  0  0  0
    6.5087    5.8852    0.2238 H   0  0  0  0  0  0  0  0  0  0  0  0
    8.1781    2.4549    2.9410 H   0  0  0  0  0  0  0  0  0  0  0  0
    7.4408    1.1000    2.0353 H   0  0  0  0  0  0  0  0  0  0  0  0
    5.2420    1.5686    3.1791 H   0  0  0  0  0  0  0  0  0  0  0  0
    5.9976    2.9025    4.0737 H   0  0  0  0  0  0  0  0  0  0  0  0
    7.2427    2.3269    6.3053 H   0  0  0  0  0  0  0  0  0  0  0  0
    7.9032    0.2059    7.7481 H   0  0  0  0  0  0  0  0  0  0  0  0
    7.4264   -2.0432    6.4339 H   0  0  0  0  0  0  0  0  0  0  0  0
    5.5934    2.9193   -3.2570 H   0  0  0  0  0  0  0  0  0  0  0  0
    6.6996    1.8391   -2.3898 H   0  0  0  0  0  0  0  0  0  0  0  0
    7.3792    2.1965   -4.8003 H   0  0  0  0  0  0  0  0  0  0  0  0
    8.6331    2.7429   -3.6604 H   0  0  0  0  0  0  0  0  0  0  0  0
  1  2  2  0
  2  3  1  0
  2 10  1  0
  3  4  1  1
  3  5  1  0
  3  9  1  0
  5  6  1  0
  5 36  1  0
  5 37  1  0
  6  7  2  0
  6 38  1  0
  7  8  1  0
  7 39  1  0
  8  9  1  0
  8 40  1  0
  8 41  1  0
  9 42  1  0
  9 43  1  0
 10 11  1  0
 10 35  1  0
 11 12  1  0
 11 44  1  0
 11 45  1  0
 12 13  1  0
 12 46  1  0
 12 47  1  0
 13 14  1  0
 13 34  1  0
 13 48  1  1
 14 15  1  6
 14 21  1  0
 14 32  1  0
 15 16  2  0
 15 20  1  0
 16 17  1  0
 16 49  1  0
 17 18  2  0
 17 50  1  0
 18 19  1  0
 18 51  1  0
 19 20  2  0
 20 52  1  0
 21 22  1  0
 21 53  1  0
 22 23  2  0
 22 24  1  0
 24 25  1  0
 24 32  1  0
 25 26  1  0
 25 54  1  0
 25 55  1  0
 26 27  1  0
 26 56  1  0
 26 57  1  0
 27 28  2  0
 27 31  1  0
 28 29  1  0
 28 58  1  0
 29 30  2  0
 29 59  1  0
 30 31  1  0
 30 60  1  0
 32 33  2  0
 34 35  1  0
 34 61  1  0
 34 62  1  0
 35 63  1  0
 35 64  1  0
M  END

