
     RDKit          3D

 37 40  0  0  0  0  0  0  0  0999 V2000
    0.9797   -0.2385   -0.3163 C   0  0  0  0  0  0  0  0  0  0  0  0
    2.4565   -0.0502   -0.2151 C   0  0  0  0  0  0  0  0  0  0  0  0
    3.0166    0.9907    0.4360 N   0  0  0  0  0  0  0  0  0  0  0  0
    4.4025    0.8804    0.3435 C   0  0  0  0  0  0  0  0  0  0  0  0
    5.2554    1.8460    0.9108 C   0  0  0  0  0  0  0  0  0  0  0  0
    6.7300    1.6898    0.8085 C   0  0  0  0  0  0  0  0  0  0  0  0
    7.5204    2.7011    0.2308 C   0  0  0  0  0  0  0  0  0  0  0  0
    8.9052    2.5504    0.1311 C   0  0  0  0  0  0  0  0  0  0  0  0
    9.5245    1.3942    0.6153 C   0  0  0  0  0  0  0  0  0  0  0  0
    8.7499    0.3855    1.1958 C   0  0  0  0  0  0  0  0  0  0  0  0
    7.3636    0.5280    1.2878 C   0  0  0  0  0  0  0  0  0  0  0  0
    4.7081    2.9597    1.5754 C   0  0  0  0  0  0  0  0  0  0  0  0
    5.3405    4.0288    2.2686 C   0  0  0  0  0  0  0  0  0  0  0  0
    4.3312    4.8450    2.7632 C   0  0  0  0  0  0  0  0  0  0  0  0
    3.0937    4.2667    2.3819 C   0  0  0  0  0  0  0  0  0  0  0  0
    1.7165    4.7558    2.6833 C   0  0  0  0  0  0  0  0  0  0  0  0
    3.3303    3.1415    1.6753 N   0  0  0  0  0  0  0  0  0  0  0  0
    2.2429    2.1640    1.1215 B   0  0  1  0  0  0  0  0  0  0  0  0
    1.4458    2.8166    0.1863 F   0  0  0  0  0  0  0  0  0  0  0  0
    1.4658    1.6769    2.1677 F   0  0  0  0  0  0  0  0  0  0  0  0
    4.6974   -0.2865   -0.4146 C   0  0  0  0  0  0  0  0  0  0  0  0
    3.4825   -0.8675   -0.7544 C   0  0  0  0  0  0  0  0  0  0  0  0
    0.5268   -0.2918    0.6863 H   0  0  0  0  0  0  0  0  0  0  0  0
    0.7426   -1.1566   -0.8703 H   0  0  0  0  0  0  0  0  0  0  0  0
    0.5150    0.6218   -0.8233 H   0  0  0  0  0  0  0  0  0  0  0  0
    7.0388    3.5991   -0.1615 H   0  0  0  0  0  0  0  0  0  0  0  0
    9.5029    3.3400   -0.3314 H   0  0  0  0  0  0  0  0  0  0  0  0
   10.6088    1.2795    0.5403 H   0  0  0  0  0  0  0  0  0  0  0  0
    9.2273   -0.5178    1.5840 H   0  0  0  0  0  0  0  0  0  0  0  0
    6.7636   -0.2556    1.7550 H   0  0  0  0  0  0  0  0  0  0  0  0
    6.4137    4.1563    2.3875 H   0  0  0  0  0  0  0  0  0  0  0  0
    4.4421    5.7580    3.3450 H   0  0  0  0  0  0  0  0  0  0  0  0
    1.7538    5.7000    3.2427 H   0  0  0  0  0  0  0  0  0  0  0  0
    1.1616    4.0075    3.2712 H   0  0  0  0  0  0  0  0  0  0  0  0
    1.1469    4.9063    1.7528 H   0  0  0  0  0  0  0  0  0  0  0  0
    5.6940   -0.6325   -0.6778 H   0  0  0  0  0  0  0  0  0  0  0  0
    3.3202   -1.7749   -1.3331 H   0  0  0  0  0  0  0  0  0  0  0  0
  1  2  1  0
  1 23  1  0
  1 24  1  0
  1 25  1  0
  2  3  1  0
  2 22  2  0
  3  4  1  0
  3 18  1  0
  4  5  1  0
  4 21  2  0
  5  6  1  0
  5 12  2  0
  6  7  2  0
  6 11  1  0
  7  8  1  0
  7 26  1  0
  8  9  2  0
  8 27  1  0
  9 10  1  0
  9 28  1  0
 10 11  2  0
 10 29  1  0
 11 30  1  0
 12 13  1  0
 12 17  1  0
 13 14  2  0
 13 31  1  0
 14 15  1  0
 14 32  1  0
 15 16  1  0
 15 17  2  0
 16 33  1  0
 16 34  1  0
 16 35  1  0
 17 18  1  0
 18 19  1  6
 18 20  1  0
 21 22  1  0
 21 36  1  0
 22 37  1  0
M  CHG  2  17   1  18  -1
M  END

