
     RDKit          3D

 30 30  0  0  0  0  0  0  0  0999 V2000
    1.7515   -0.1644    0.5922 C   0  0  0  0  0  0  0  0  0  0  0  0
    2.8667    0.0506   -0.4401 C   0  0  1  0  0  0  0  0  0  0  0  0
    4.0676   -0.5693    0.0043 O   0  0  0  0  0  0  0  0  0  0  0  0
    2.4877   -0.5373   -1.8203 C   0  0  0  0  0  0  0  0  0  0  0  0
    2.4134   -1.9995   -1.7585 N   0  0  0  0  0  0  0  0  0  0  0  0
    3.2196   -2.9602   -2.8795 S   0  0  1  0  0  0  0  0  0  0  0  0
    2.4060   -4.1656   -3.0072 O   0  0  0  0  0  0  0  0  0  0  0  0
    3.6147   -2.1582   -4.0389 O   0  0  0  0  0  0  0  0  0  0  0  0
    4.7553   -3.3876   -2.0593 C   0  0  0  0  0  0  0  0  0  0  0  0
    6.0186   -3.0927   -2.6608 C   0  0  0  0  0  0  0  0  0  0  0  0
    7.0620   -3.5650   -1.9129 C   0  0  0  0  0  0  0  0  0  0  0  0
    8.7423   -3.4322   -2.2600 Cl  0  0  0  0  0  0  0  0  0  0  0  0
    6.5302   -4.3827   -0.4635 S   0  0  0  0  0  0  0  0  0  0  0  0
    4.8667   -4.0851   -0.8783 C   0  0  0  0  0  0  0  0  0  0  0  0
    3.6076   -4.6128    0.1669 Cl  0  0  0  0  0  0  0  0  0  0  0  0
    3.2472    1.5342   -0.5696 C   0  0  0  0  0  0  0  0  0  0  0  0
    2.1666    2.4900   -1.0527 C   0  0  0  0  0  0  0  0  0  0  0  0
    1.0671    2.1769   -1.4246 O   0  0  0  0  0  0  0  0  0  0  0  0
    2.5316    3.7917   -1.0548 O   0  0  0  0  0  0  0  0  0  0  0  0
    1.5406   -1.2408    0.7010 H   0  0  0  0  0  0  0  0  0  0  0  0
    0.8249    0.3480    0.2975 H   0  0  0  0  0  0  0  0  0  0  0  0
    2.0753    0.2092    1.5758 H   0  0  0  0  0  0  0  0  0  0  0  0
    3.8971   -1.5229    0.0067 H   0  0  0  0  0  0  0  0  0  0  0  0
    3.2653   -0.2731   -2.5517 H   0  0  0  0  0  0  0  0  0  0  0  0
    1.5407   -0.1076   -2.1773 H   0  0  0  0  0  0  0  0  0  0  0  0
    1.4963   -2.4128   -1.5994 H   0  0  0  0  0  0  0  0  0  0  0  0
    6.1194   -2.5562   -3.6028 H   0  0  0  0  0  0  0  0  0  0  0  0
    4.1117    1.6115   -1.2533 H   0  0  0  0  0  0  0  0  0  0  0  0
    3.6149    1.8754    0.4142 H   0  0  0  0  0  0  0  0  0  0  0  0
    3.4378    3.8953   -0.7305 H   0  0  0  0  0  0  0  0  0  0  0  0
  1  2  1  0
  1 20  1  0
  1 21  1  0
  1 22  1  0
  2  3  1  1
  2  4  1  0
  2 16  1  0
  3 23  1  0
  4  5  1  0
  4 24  1  0
  4 25  1  0
  6  5  1  1
  5 26  1  0
  6  7  2  0
  6  8  2  0
  6  9  1  0
  9 10  1  0
  9 14  2  0
 10 11  2  0
 10 27  1  0
 11 12  1  0
 11 13  1  0
 13 14  1  0
 14 15  1  0
 16 17  1  0
 16 28  1  0
 16 29  1  0
 17 18  2  0
 17 19  1  0
 19 30  1  0
M  END

