
     RDKit          3D

273294  0  0  0  0  0  0  0  0999 V2000
   10.3910    9.1984   -3.6047 C   0  0  0  0  0  0  0  0  0  0  0  0
   11.4328    9.3946   -2.4788 C   0  0  1  0  0  0  0  0  0  0  0  0
   11.9819    8.0162   -2.0429 C   0  0  0  0  0  0  0  0  0  0  0  0
   12.6031   10.2161   -3.0489 C   0  0  0  0  0  0  0  0  0  0  0  0
   10.7669   10.0895   -1.2734 C   0  0  0  0  0  0  0  0  0  0  0  0
    9.6679    9.4666   -0.6296 C   0  0  0  0  0  0  0  0  0  0  0  0
    9.0139   10.0248    0.4665 C   0  0  0  0  0  0  0  0  0  0  0  0
    9.4727   11.2561    0.9497 C   0  0  0  0  0  0  0  0  0  0  0  0
   10.5602   11.9154    0.3240 C   0  0  0  0  0  0  0  0  0  0  0  0
   11.1980   11.3252   -0.7785 C   0  0  0  0  0  0  0  0  0  0  0  0
   10.7572   13.1629    1.0376 C   0  0  0  0  0  0  0  0  0  0  0  0
   11.6731   14.2176    0.8992 C   0  0  0  0  0  0  0  0  0  0  0  0
   11.6350   15.3129    1.7692 C   0  0  0  0  0  0  0  0  0  0  0  0
   12.6142   16.4997    1.6606 C   0  0  1  0  0  0  0  0  0  0  0  0
   11.8207   17.8048    1.4188 C   0  0  0  0  0  0  0  0  0  0  0  0
   13.4224   16.6270    2.9729 C   0  0  0  0  0  0  0  0  0  0  0  0
   13.6114   16.3253    0.5009 C   0  0  0  0  0  0  0  0  0  0  0  0
   10.6505   15.3126    2.7896 C   0  0  0  0  0  0  0  0  0  0  0  0
    9.7271   14.2826    2.9535 C   0  0  0  0  0  0  0  0  0  0  0  0
    9.7790   13.2041    2.0623 C   0  0  0  0  0  0  0  0  0  0  0  0
    9.0010   12.0432    2.0051 N   0  0  0  0  0  0  0  0  0  0  0  0
    7.9229   11.7202    2.8681 C   0  0  0  0  0  0  0  0  0  0  0  0
    6.8309   12.5913    3.0058 C   0  0  0  0  0  0  0  0  0  0  0  0
    5.7802   12.2836    3.8677 C   0  0  0  0  0  0  0  0  0  0  0  0
    5.7726   11.0766    4.5915 C   0  0  0  0  0  0  0  0  0  0  0  0
    4.6943   10.7553    5.4548 N   0  0  0  0  0  0  0  0  0  0  0  0
    3.3599   11.0337    5.0561 C   0  0  0  0  0  0  0  0  0  0  0  0
    2.9280   10.7670    3.7446 C   0  0  0  0  0  0  0  0  0  0  0  0
    1.6202   11.0488    3.3565 C   0  0  0  0  0  0  0  0  0  0  0  0
    0.6832   11.5932    4.2561 C   0  0  0  0  0  0  0  0  0  0  0  0
   -0.7113   11.8852    3.8405 C   0  0  0  0  0  0  0  0  0  0  0  0
   -1.3826   11.0757    2.9040 C   0  0  0  0  0  0  0  0  0  0  0  0
   -2.6915   11.3507    2.5170 C   0  0  0  0  0  0  0  0  0  0  0  0
   -3.3995   12.4496    3.0442 C   0  0  0  0  0  0  0  0  0  0  0  0
   -4.8039   12.6988    2.6446 C   0  0  0  0  0  0  0  0  0  0  0  0
   -5.6743   11.6634    2.3473 C   0  0  0  0  0  0  0  0  0  0  0  0
   -7.0235   11.8578    1.9420 C   0  0  0  0  0  0  0  0  0  0  0  0
   -7.6132   13.1033    1.8040 C   0  0  0  0  0  0  0  0  0  0  0  0
   -9.0307   13.2575    1.4023 C   0  0  0  0  0  0  0  0  0  0  0  0
   -9.9904   12.3008    1.7904 C   0  0  0  0  0  0  0  0  0  0  0  0
  -11.3223   12.4070    1.3993 C   0  0  0  0  0  0  0  0  0  0  0  0
  -11.7663   13.4761    0.5975 C   0  0  0  0  0  0  0  0  0  0  0  0
  -13.1860   13.5927    0.1807 C   0  0  0  0  0  0  0  0  0  0  0  0
  -14.2358   13.1751    1.0218 C   0  0  0  0  0  0  0  0  0  0  0  0
  -15.5693   13.2794    0.6334 C   0  0  0  0  0  0  0  0  0  0  0  0
  -15.9114   13.8232   -0.6176 C   0  0  0  0  0  0  0  0  0  0  0  0
  -17.2696   13.9409   -1.0148 N   0  0  0  0  0  0  0  0  0  0  0  0
  -18.2430   14.3941   -0.0889 C   0  0  0  0  0  0  0  0  0  0  0  0
  -17.9573   15.4478    0.7993 C   0  0  0  0  0  0  0  0  0  0  0  0
  -18.9081   15.8807    1.7211 C   0  0  0  0  0  0  0  0  0  0  0  0
  -20.1852   15.2993    1.7598 C   0  0  0  0  0  0  0  0  0  0  0  0
  -21.1581   15.7532    2.6865 N   0  0  0  0  0  0  0  0  0  0  0  0
  -21.6170   17.0679    2.8172 C   0  0  0  0  0  0  0  0  0  0  0  0
  -21.2881   18.2157    2.0861 C   0  0  0  0  0  0  0  0  0  0  0  0
  -21.9222   19.4098    2.4216 C   0  0  0  0  0  0  0  0  0  0  0  0
  -22.8813   19.5101    3.4611 C   0  0  0  0  0  0  0  0  0  0  0  0
  -23.5284   20.8767    3.7660 C   0  0  1  0  0  0  0  0  0  0  0  0
  -24.2721   21.3899    2.5110 C   0  0  0  0  0  0  0  0  0  0  0  0
  -24.5420   20.7942    4.9216 C   0  0  0  0  0  0  0  0  0  0  0  0
  -22.4310   21.8919    4.1623 C   0  0  0  0  0  0  0  0  0  0  0  0
  -23.2013   18.3459    4.1680 C   0  0  0  0  0  0  0  0  0  0  0  0
  -22.5813   17.1262    3.8543 C   0  0  0  0  0  0  0  0  0  0  0  0
  -22.7110   15.7797    4.3781 C   0  0  0  0  0  0  0  0  0  0  0  0
  -23.4850   15.2159    5.4046 C   0  0  0  0  0  0  0  0  0  0  0  0
  -23.3838   13.8534    5.7067 C   0  0  0  0  0  0  0  0  0  0  0  0
  -24.2127   13.1815    6.8206 C   0  0  1  0  0  0  0  0  0  0  0  0
  -25.0920   12.0658    6.2093 C   0  0  0  0  0  0  0  0  0  0  0  0
  -23.2632   12.5661    7.8747 C   0  0  0  0  0  0  0  0  0  0  0  0
  -25.1387   14.1804    7.5379 C   0  0  0  0  0  0  0  0  0  0  0  0
  -22.4734   13.0741    4.9488 C   0  0  0  0  0  0  0  0  0  0  0  0
  -21.6917   13.6024    3.9239 C   0  0  0  0  0  0  0  0  0  0  0  0
  -21.8210   14.9659    3.6336 C   0  0  0  0  0  0  0  0  0  0  0  0
  -20.4799   14.2597    0.8638 C   0  0  0  0  0  0  0  0  0  0  0  0
  -19.5184   13.8013   -0.0344 C   0  0  0  0  0  0  0  0  0  0  0  0
  -17.6491   13.6103   -2.3413 C   0  0  0  0  0  0  0  0  0  0  0  0
  -17.1251   12.4690   -2.9756 C   0  0  0  0  0  0  0  0  0  0  0  0
  -17.4983   12.1432   -4.2781 C   0  0  0  0  0  0  0  0  0  0  0  0
  -18.4031   12.9492   -4.9865 C   0  0  0  0  0  0  0  0  0  0  0  0
  -18.7813   12.6177   -6.3125 N   0  0  0  0  0  0  0  0  0  0  0  0
  -20.0891   12.4256   -6.7701 C   0  0  0  0  0  0  0  0  0  0  0  0
  -21.3046   12.4736   -6.0769 C   0  0  0  0  0  0  0  0  0  0  0  0
  -22.4747   12.2174   -6.7879 C   0  0  0  0  0  0  0  0  0  0  0  0
  -22.4864   11.9089   -8.1718 C   0  0  0  0  0  0  0  0  0  0  0  0
  -23.8318   11.6441   -8.8783 C   0  0  1  0  0  0  0  0  0  0  0  0
  -24.7328   12.8956   -8.7615 C   0  0  0  0  0  0  0  0  0  0  0  0
  -23.6495   11.3249  -10.3731 C   0  0  0  0  0  0  0  0  0  0  0  0
  -24.5385   10.4401   -8.2132 C   0  0  0  0  0  0  0  0  0  0  0  0
  -21.2574   11.8551   -8.8384 C   0  0  0  0  0  0  0  0  0  0  0  0
  -20.0598   12.1073   -8.1508 C   0  0  0  0  0  0  0  0  0  0  0  0
  -18.6650   12.1084   -8.5489 C   0  0  0  0  0  0  0  0  0  0  0  0
  -18.0120   11.8828   -9.7709 C   0  0  0  0  0  0  0  0  0  0  0  0
  -16.6187   11.9731   -9.8614 C   0  0  0  0  0  0  0  0  0  0  0  0
  -15.8502   11.7321  -11.1769 C   0  0  1  0  0  0  0  0  0  0  0  0
  -15.0622   13.0071  -11.5580 C   0  0  0  0  0  0  0  0  0  0  0  0
  -14.8633   10.5560  -10.9917 C   0  0  0  0  0  0  0  0  0  0  0  0
  -16.7918   11.3860  -12.3444 C   0  0  0  0  0  0  0  0  0  0  0  0
  -15.9001   12.3051   -8.6851 C   0  0  0  0  0  0  0  0  0  0  0  0
  -16.5173   12.5340   -7.4574 C   0  0  0  0  0  0  0  0  0  0  0  0
  -17.9116   12.4253   -7.3910 C   0  0  0  0  0  0  0  0  0  0  0  0
  -18.9263   14.0898   -4.3576 C   0  0  0  0  0  0  0  0  0  0  0  0
  -18.5565   14.4153   -3.0540 C   0  0  0  0  0  0  0  0  0  0  0  0
  -14.8726   14.2490   -1.4647 C   0  0  0  0  0  0  0  0  0  0  0  0
  -13.5416   14.1281   -1.0726 C   0  0  0  0  0  0  0  0  0  0  0  0
  -10.8081   14.4343    0.2152 C   0  0  0  0  0  0  0  0  0  0  0  0
   -9.4762   14.3345    0.6104 C   0  0  0  0  0  0  0  0  0  0  0  0
   -6.7511   14.2224    2.0962 C   0  0  0  0  0  0  0  0  0  0  0  0
   -7.0919   15.5127    2.0326 N   0  0  0  0  0  0  0  0  0  0  0  0
   -5.7783   16.3890    2.4651 S   0  0  0  0  0  0  0  0  0  0  0  0
   -4.7231   15.1708    2.7527 N   0  0  0  0  0  0  0  0  0  0  0  0
   -5.3647   14.0221    2.5207 C   0  0  0  0  0  0  0  0  0  0  0  0
   -2.7240   13.2685    3.9709 C   0  0  0  0  0  0  0  0  0  0  0  0
   -1.4169   12.9868    4.3611 C   0  0  0  0  0  0  0  0  0  0  0  0
    1.1265   11.8491    5.5684 C   0  0  0  0  0  0  0  0  0  0  0  0
    2.4358   11.5837    5.9623 C   0  0  0  0  0  0  0  0  0  0  0  0
    4.9458   10.1598    6.7171 C   0  0  0  0  0  0  0  0  0  0  0  0
    6.0186   10.5919    7.5191 C   0  0  0  0  0  0  0  0  0  0  0  0
    6.2732    9.9942    8.7518 C   0  0  0  0  0  0  0  0  0  0  0  0
    5.4428    8.9719    9.2371 C   0  0  0  0  0  0  0  0  0  0  0  0
    5.6910    8.3771   10.5004 N   0  0  0  0  0  0  0  0  0  0  0  0
    5.7747    9.0509   11.7231 C   0  0  0  0  0  0  0  0  0  0  0  0
    5.6167   10.4105   12.0173 C   0  0  0  0  0  0  0  0  0  0  0  0
    5.7341   10.8109   13.3463 C   0  0  0  0  0  0  0  0  0  0  0  0
    6.0007    9.9065   14.4053 C   0  0  0  0  0  0  0  0  0  0  0  0
    6.1186   10.4413   15.8473 C   0  0  1  0  0  0  0  0  0  0  0  0
    4.7944   11.1279   16.2556 C   0  0  0  0  0  0  0  0  0  0  0  0
    6.4070    9.3194   16.8610 C   0  0  0  0  0  0  0  0  0  0  0  0
    7.2730   11.4674   15.9257 C   0  0  0  0  0  0  0  0  0  0  0  0
    6.1424    8.5516   14.0860 C   0  0  0  0  0  0  0  0  0  0  0  0
    6.0292    8.1151   12.7567 C   0  0  0  0  0  0  0  0  0  0  0  0
    6.1046    6.8101   12.1275 C   0  0  0  0  0  0  0  0  0  0  0  0
    6.3434    5.5166   12.6176 C   0  0  0  0  0  0  0  0  0  0  0  0
    6.3785    4.4207   11.7484 C   0  0  0  0  0  0  0  0  0  0  0  0
    6.6334    2.9786   12.2331 C   0  0  1  0  0  0  0  0  0  0  0  0
    5.4238    2.0878   11.8656 C   0  0  0  0  0  0  0  0  0  0  0  0
    7.9058    2.4206   11.5541 C   0  0  0  0  0  0  0  0  0  0  0  0
    6.8345    2.9056   13.7575 C   0  0  0  0  0  0  0  0  0  0  0  0
    6.1730    4.6657   10.3671 C   0  0  0  0  0  0  0  0  0  0  0  0
    5.9327    5.9362    9.8487 C   0  0  0  0  0  0  0  0  0  0  0  0
    5.8904    7.0140   10.7414 C   0  0  0  0  0  0  0  0  0  0  0  0
    4.3612    8.5501    8.4479 C   0  0  0  0  0  0  0  0  0  0  0  0
    4.1264    9.1222    7.1994 C   0  0  0  0  0  0  0  0  0  0  0  0
    6.8603   10.1973    4.4363 C   0  0  0  0  0  0  0  0  0  0  0  0
    7.9272   10.5233    3.6014 C   0  0  0  0  0  0  0  0  0  0  0  0
   10.8500    8.6991   -4.4742 H   0  0  0  0  0  0  0  0  0  0  0  0
    9.9877   10.1668   -3.9412 H   0  0  0  0  0  0  0  0  0  0  0  0
    9.5420    8.5794   -3.2764 H   0  0  0  0  0  0  0  0  0  0  0  0
   12.4594    7.5026   -2.8940 H   0  0  0  0  0  0  0  0  0  0  0  0
   11.1858    7.3582   -1.6621 H   0  0  0  0  0  0  0  0  0  0  0  0
   12.7342    8.1260   -1.2455 H   0  0  0  0  0  0  0  0  0  0  0  0
   13.0499    9.6860   -3.9049 H   0  0  0  0  0  0  0  0  0  0  0  0
   13.3991   10.3693   -2.3034 H   0  0  0  0  0  0  0  0  0  0  0  0
   12.2752   11.2044   -3.4076 H   0  0  0  0  0  0  0  0  0  0  0  0
    9.3057    8.5053   -1.0012 H   0  0  0  0  0  0  0  0  0  0  0  0
    8.1668    9.5128    0.9258 H   0  0  0  0  0  0  0  0  0  0  0  0
   12.0326   11.8513   -1.2423 H   0  0  0  0  0  0  0  0  0  0  0  0
   12.4160   14.1634    0.1032 H   0  0  0  0  0  0  0  0  0  0  0  0
   11.1144   18.0141    2.2367 H   0  0  0  0  0  0  0  0  0  0  0  0
   11.2409   17.7458    0.4838 H   0  0  0  0  0  0  0  0  0  0  0  0
   12.5054   18.6658    1.3418 H   0  0  0  0  0  0  0  0  0  0  0  0
   12.7703   16.7979    3.8430 H   0  0  0  0  0  0  0  0  0  0  0  0
   14.1262   17.4739    2.9135 H   0  0  0  0  0  0  0  0  0  0  0  0
   14.0052   15.7124    3.1669 H   0  0  0  0  0  0  0  0  0  0  0  0
   13.1014   16.2564   -0.4727 H   0  0  0  0  0  0  0  0  0  0  0  0
   14.2337   15.4253    0.6259 H   0  0  0  0  0  0  0  0  0  0  0  0
   14.2898   17.1921    0.4578 H   0  0  0  0  0  0  0  0  0  0  0  0
   10.6042   16.1517    3.4876 H   0  0  0  0  0  0  0  0  0  0  0  0
    8.9914   14.3212    3.7585 H   0  0  0  0  0  0  0  0  0  0  0  0
    6.8109   13.5215    2.4346 H   0  0  0  0  0  0  0  0  0  0  0  0
    4.9463   12.9797    3.9734 H   0  0  0  0  0  0  0  0  0  0  0  0
    3.6284   10.3428    3.0228 H   0  0  0  0  0  0  0  0  0  0  0  0
    1.3252   10.8513    2.3235 H   0  0  0  0  0  0  0  0  0  0  0  0
   -0.8775   10.2044    2.4810 H   0  0  0  0  0  0  0  0  0  0  0  0
   -3.1681   10.7067    1.7747 H   0  0  0  0  0  0  0  0  0  0  0  0
   -5.3203   10.6347    2.4407 H   0  0  0  0  0  0  0  0  0  0  0  0
   -7.6141   10.9676    1.7160 H   0  0  0  0  0  0  0  0  0  0  0  0
   -9.6931   11.4650    2.4276 H   0  0  0  0  0  0  0  0  0  0  0  0
  -12.0288   11.6345    1.7114 H   0  0  0  0  0  0  0  0  0  0  0  0
  -14.0071   12.7704    2.0102 H   0  0  0  0  0  0  0  0  0  0  0  0
  -16.3586   12.9443    1.3089 H   0  0  0  0  0  0  0  0  0  0  0  0
  -16.9745   15.9216    0.7739 H   0  0  0  0  0  0  0  0  0  0  0  0
  -18.6629   16.6845    2.4182 H   0  0  0  0  0  0  0  0  0  0  0  0
  -20.5610   18.1841    1.2730 H   0  0  0  0  0  0  0  0  0  0  0  0
  -21.6607   20.3020    1.8481 H   0  0  0  0  0  0  0  0  0  0  0  0
  -25.0667   20.6887    2.2099 H   0  0  0  0  0  0  0  0  0  0  0  0
  -23.5940   21.5143    1.6530 H   0  0  0  0  0  0  0  0  0  0  0  0
  -24.7387   22.3690    2.7108 H   0  0  0  0  0  0  0  0  0  0  0  0
  -25.3720   20.1077    4.6921 H   0  0  0  0  0  0  0  0  0  0  0  0
  -24.9781   21.7885    5.1079 H   0  0  0  0  0  0  0  0  0  0  0  0
  -24.0701   20.4598    5.8587 H   0  0  0  0  0  0  0  0  0  0  0  0
  -21.6910   22.0320    3.3596 H   0  0  0  0  0  0  0  0  0  0  0  0
  -21.8894   21.5557    5.0608 H   0  0  0  0  0  0  0  0  0  0  0  0
  -22.8756   22.8772    4.3807 H   0  0  0  0  0  0  0  0  0  0  0  0
  -23.9389   18.3657    4.9706 H   0  0  0  0  0  0  0  0  0  0  0  0
  -24.1626   15.8621    5.9629 H   0  0  0  0  0  0  0  0  0  0  0  0
  -24.4872   11.2906    5.7143 H   0  0  0  0  0  0  0  0  0  0  0  0
  -25.7857   12.4778    5.4591 H   0  0  0  0  0  0  0  0  0  0  0  0
  -25.6907   11.5715    6.9925 H   0  0  0  0  0  0  0  0  0  0  0  0
  -22.5979   11.8067    7.4362 H   0  0  0  0  0  0  0  0  0  0  0  0
  -23.8406   12.0782    8.6777 H   0  0  0  0  0  0  0  0  0  0  0  0
  -22.6288   13.3411    8.3336 H   0  0  0  0  0  0  0  0  0  0  0  0
  -25.8647   14.6368    6.8469 H   0  0  0  0  0  0  0  0  0  0  0  0
  -24.5719   14.9904    8.0231 H   0  0  0  0  0  0  0  0  0  0  0  0
  -25.7113   13.6618    8.3231 H   0  0  0  0  0  0  0  0  0  0  0  0
  -22.3688   12.0094    5.1698 H   0  0  0  0  0  0  0  0  0  0  0  0
  -20.9982   12.9659    3.3719 H   0  0  0  0  0  0  0  0  0  0  0  0
  -21.4719   13.8039    0.8782 H   0  0  0  0  0  0  0  0  0  0  0  0
  -19.7601   12.9809   -0.7124 H   0  0  0  0  0  0  0  0  0  0  0  0
  -16.4298   11.8247   -2.4347 H   0  0  0  0  0  0  0  0  0  0  0  0
  -17.1025   11.2404   -4.7474 H   0  0  0  0  0  0  0  0  0  0  0  0
  -21.3434   12.7001   -5.0102 H   0  0  0  0  0  0  0  0  0  0  0  0
  -23.4198   12.2575   -6.2415 H   0  0  0  0  0  0  0  0  0  0  0  0
  -24.2573   13.7690   -9.2357 H   0  0  0  0  0  0  0  0  0  0  0  0
  -24.9397   13.1568   -7.7125 H   0  0  0  0  0  0  0  0  0  0  0  0
  -25.7018   12.7228   -9.2588 H   0  0  0  0  0  0  0  0  0  0  0  0
  -23.1743   12.1570  -10.9159 H   0  0  0  0  0  0  0  0  0  0  0  0
  -24.6311   11.1443  -10.8392 H   0  0  0  0  0  0  0  0  0  0  0  0
  -23.0392   10.4215  -10.5290 H   0  0  0  0  0  0  0  0  0  0  0  0
  -24.7396   10.6193   -7.1459 H   0  0  0  0  0  0  0  0  0  0  0  0
  -23.9216    9.5304   -8.2886 H   0  0  0  0  0  0  0  0  0  0  0  0
  -25.5050   10.2386   -8.7044 H   0  0  0  0  0  0  0  0  0  0  0  0
  -21.2090   11.6133   -9.9003 H   0  0  0  0  0  0  0  0  0  0  0  0
  -18.6133   11.6400  -10.6473 H   0  0  0  0  0  0  0  0  0  0  0  0
  -14.3348   13.2888  -10.7814 H   0  0  0  0  0  0  0  0  0  0  0  0
  -15.7422   13.8613  -11.7043 H   0  0  0  0  0  0  0  0  0  0  0  0
  -14.5036   12.8510  -12.4960 H   0  0  0  0  0  0  0  0  0  0  0  0
  -14.1301   10.7561  -10.1954 H   0  0  0  0  0  0  0  0  0  0  0  0
  -14.3014   10.3715  -11.9225 H   0  0  0  0  0  0  0  0  0  0  0  0
  -15.3988    9.6302  -10.7276 H   0  0  0  0  0  0  0  0  0  0  0  0
  -17.5056   12.1987  -12.5513 H   0  0  0  0  0  0  0  0  0  0  0  0
  -17.3664   10.4668  -12.1502 H   0  0  0  0  0  0  0  0  0  0  0  0
  -16.2048   11.2209  -13.2617 H   0  0  0  0  0  0  0  0  0  0  0  0
  -14.8119   12.3905   -8.7299 H   0  0  0  0  0  0  0  0  0  0  0  0
  -15.9239   12.7941   -6.5794 H   0  0  0  0  0  0  0  0  0  0  0  0
  -19.6119   14.7385   -4.9063 H   0  0  0  0  0  0  0  0  0  0  0  0
  -18.9630   15.3131   -2.5851 H   0  0  0  0  0  0  0  0  0  0  0  0
  -15.1140   14.6728   -2.4413 H   0  0  0  0  0  0  0  0  0  0  0  0
  -12.7591   14.4491   -1.7638 H   0  0  0  0  0  0  0  0  0  0  0  0
  -11.1153   15.2939   -0.3848 H   0  0  0  0  0  0  0  0  0  0  0  0
   -8.7703   15.1064    0.3067 H   0  0  0  0  0  0  0  0  0  0  0  0
   -3.2286   14.1400    4.3859 H   0  0  0  0  0  0  0  0  0  0  0  0
   -0.9242   13.6559    5.0703 H   0  0  0  0  0  0  0  0  0  0  0  0
    0.4288   12.2554    6.3040 H   0  0  0  0  0  0  0  0  0  0  0  0
    2.7476   11.7970    6.9865 H   0  0  0  0  0  0  0  0  0  0  0  0
    6.6660   11.3961    7.1651 H   0  0  0  0  0  0  0  0  0  0  0  0
    7.1228   10.3260    9.3519 H   0  0  0  0  0  0  0  0  0  0  0  0
    5.4030   11.1411   11.2354 H   0  0  0  0  0  0  0  0  0  0  0  0
    5.6106   11.8731   13.5694 H   0  0  0  0  0  0  0  0  0  0  0  0
    3.9537   10.4170   16.2162 H   0  0  0  0  0  0  0  0  0  0  0  0
    4.5480   11.9729   15.5946 H   0  0  0  0  0  0  0  0  0  0  0  0
    4.8624   11.5193   17.2844 H   0  0  0  0  0  0  0  0  0  0  0  0
    5.6045    8.5654   16.8787 H   0  0  0  0  0  0  0  0  0  0  0  0
    6.4847    9.7426   17.8750 H   0  0  0  0  0  0  0  0  0  0  0  0
    7.3560    8.8042   16.6446 H   0  0  0  0  0  0  0  0  0  0  0  0
    7.1093   12.3227   15.2525 H   0  0  0  0  0  0  0  0  0  0  0  0
    8.2326   11.0027   15.6480 H   0  0  0  0  0  0  0  0  0  0  0  0
    7.3700   11.8639   16.9502 H   0  0  0  0  0  0  0  0  0  0  0  0
    6.3388    7.8130   14.8635 H   0  0  0  0  0  0  0  0  0  0  0  0
    6.5046    5.3850   13.6878 H   0  0  0  0  0  0  0  0  0  0  0  0
    5.2483    2.0604   10.7793 H   0  0  0  0  0  0  0  0  0  0  0  0
    4.5027    2.4575   12.3436 H   0  0  0  0  0  0  0  0  0  0  0  0
    5.5902    1.0508   12.2020 H   0  0  0  0  0  0  0  0  0  0  0  0
    7.8130    2.4029   10.4574 H   0  0  0  0  0  0  0  0  0  0  0  0
    8.1017    1.3880   11.8880 H   0  0  0  0  0  0  0  0  0  0  0  0
    8.7867    3.0328   11.8048 H   0  0  0  0  0  0  0  0  0  0  0  0
    5.9495    3.2639   14.3062 H   0  0  0  0  0  0  0  0  0  0  0  0
    7.7036    3.4967   14.0861 H   0  0  0  0  0  0  0  0  0  0  0  0
    7.0113    1.8617   14.0615 H   0  0  0  0  0  0  0  0  0  0  0  0
    6.2041    3.8289    9.6656 H   0  0  0  0  0  0  0  0  0  0  0  0
    5.7874    6.0788    8.7767 H   0  0  0  0  0  0  0  0  0  0  0  0
    3.7027    7.7615    8.8174 H   0  0  0  0  0  0  0  0  0  0  0  0
    3.2892    8.7720    6.5932 H   0  0  0  0  0  0  0  0  0  0  0  0
    6.8740    9.2550    4.9870 H   0  0  0  0  0  0  0  0  0  0  0  0
    8.7742    9.8405    3.5097 H   0  0  0  0  0  0  0  0  0  0  0  0
  2  1  1  6
  1144  1  0
  1145  1  0
  1146  1  0
  2  3  1  0
  2  4  1  0
  2  5  1  0
  3147  1  0
  3148  1  0
  3149  1  0
  4150  1  0
  4151  1  0
  4152  1  0
  5  6  2  0
  5 10  1  0
  6  7  1  0
  6153  1  0
  7  8  2  0
  7154  1  0
  8  9  1  0
  8 21  1  0
  9 10  2  0
  9 11  1  0
 10155  1  0
 11 12  2  0
 11 20  1  0
 12 13  1  0
 12156  1  0
 13 14  1  0
 13 18  2  0
 14 15  1  6
 14 16  1  0
 14 17  1  0
 15157  1  0
 15158  1  0
 15159  1  0
 16160  1  0
 16161  1  0
 16162  1  0
 17163  1  0
 17164  1  0
 17165  1  0
 18 19  1  0
 18166  1  0
 19 20  2  0
 19167  1  0
 20 21  1  0
 21 22  1  0
 22 23  2  0
 22143  1  0
 23 24  1  0
 23168  1  0
 24 25  2  0
 24169  1  0
 25 26  1  0
 25142  1  0
 26 27  1  0
 26115  1  0
 27 28  2  0
 27114  1  0
 28 29  1  0
 28170  1  0
 29 30  2  0
 29171  1  0
 30 31  1  0
 30113  1  0
 31 32  2  0
 31112  1  0
 32 33  1  0
 32172  1  0
 33 34  2  0
 33173  1  0
 34 35  1  0
 34111  1  0
 35 36  2  0
 35110  1  0
 36 37  1  0
 36174  1  0
 37 38  2  0
 37175  1  0
 38 39  1  0
 38106  1  0
 39 40  2  0
 39105  1  0
 40 41  1  0
 40176  1  0
 41 42  2  0
 41177  1  0
 42 43  1  0
 42104  1  0
 43 44  2  0
 43103  1  0
 44 45  1  0
 44178  1  0
 45 46  2  0
 45179  1  0
 46 47  1  0
 46102  1  0
 47 48  1  0
 47 75  1  0
 48 49  2  0
 48 74  1  0
 49 50  1  0
 49180  1  0
 50 51  2  0
 50181  1  0
 51 52  1  0
 51 73  1  0
 52 53  1  0
 52 72  1  0
 53 54  2  0
 53 62  1  0
 54 55  1  0
 54182  1  0
 55 56  2  0
 55183  1  0
 56 57  1  0
 56 61  1  0
 57 58  1  6
 57 59  1  0
 57 60  1  0
 58184  1  0
 58185  1  0
 58186  1  0
 59187  1  0
 59188  1  0
 59189  1  0
 60190  1  0
 60191  1  0
 60192  1  0
 61 62  2  0
 61193  1  0
 62 63  1  0
 63 64  1  0
 63 72  2  0
 64 65  2  0
 64194  1  0
 65 66  1  0
 65 70  1  0
 66 67  1  6
 66 68  1  0
 66 69  1  0
 67195  1  0
 67196  1  0
 67197  1  0
 68198  1  0
 68199  1  0
 68200  1  0
 69201  1  0
 69202  1  0
 69203  1  0
 70 71  2  0
 70204  1  0
 71 72  1  0
 71205  1  0
 73 74  2  0
 73206  1  0
 74207  1  0
 75 76  2  0
 75101  1  0
 76 77  1  0
 76208  1  0
 77 78  2  0
 77209  1  0
 78 79  1  0
 78100  1  0
 79 80  1  0
 79 99  1  0
 80 81  2  0
 80 89  1  0
 81 82  1  0
 81210  1  0
 82 83  2  0
 82211  1  0
 83 84  1  0
 83 88  1  0
 84 85  1  6
 84 86  1  0
 84 87  1  0
 85212  1  0
 85213  1  0
 85214  1  0
 86215  1  0
 86216  1  0
 86217  1  0
 87218  1  0
 87219  1  0
 87220  1  0
 88 89  2  0
 88221  1  0
 89 90  1  0
 90 91  1  0
 90 99  2  0
 91 92  2  0
 91222  1  0
 92 93  1  0
 92 97  1  0
 93 94  1  6
 93 95  1  0
 93 96  1  0
 94223  1  0
 94224  1  0
 94225  1  0
 95226  1  0
 95227  1  0
 95228  1  0
 96229  1  0
 96230  1  0
 96231  1  0
 97 98  2  0
 97232  1  0
 98 99  1  0
 98233  1  0
100101  2  0
100234  1  0
101235  1  0
102103  2  0
102236  1  0
103237  1  0
104105  2  0
104238  1  0
105239  1  0
106107  2  0
106110  1  0
107108  1  0
108109  1  0
109110  2  0
111112  2  0
111240  1  0
112241  1  0
113114  2  0
113242  1  0
114243  1  0
115116  2  0
115141  1  0
116117  1  0
116244  1  0
117118  2  0
117245  1  0
118119  1  0
118140  1  0
119120  1  0
119139  1  0
120121  2  0
120129  1  0
121122  1  0
121246  1  0
122123  2  0
122247  1  0
123124  1  0
123128  1  0
124125  1  1
124126  1  0
124127  1  0
125248  1  0
125249  1  0
125250  1  0
126251  1  0
126252  1  0
126253  1  0
127254  1  0
127255  1  0
127256  1  0
128129  2  0
128257  1  0
129130  1  0
130131  1  0
130139  2  0
131132  2  0
131258  1  0
132133  1  0
132137  1  0
133134  1  1
133135  1  0
133136  1  0
134259  1  0
134260  1  0
134261  1  0
135262  1  0
135263  1  0
135264  1  0
136265  1  0
136266  1  0
136267  1  0
137138  2  0
137268  1  0
138139  1  0
138269  1  0
140141  2  0
140270  1  0
141271  1  0
142143  2  0
142272  1  0
143273  1  0
M  END

