
     RDKit          3D

 45 48  0  0  0  0  0  0  0  0999 V2000
    1.0518    0.1383    0.0845 C   0  0  0  0  0  0  0  0  0  0  0  0
    2.5015   -0.0220   -0.3013 C   0  0  0  0  0  0  0  0  0  0  0  0
    3.2656   -1.1112    0.1549 C   0  0  0  0  0  0  0  0  0  0  0  0
    4.6059   -1.2559   -0.1937 C   0  0  0  0  0  0  0  0  0  0  0  0
    5.2332   -0.3049   -1.0203 C   0  0  0  0  0  0  0  0  0  0  0  0
    6.6410   -0.4285   -1.4061 C   0  0  0  0  0  0  0  0  0  0  0  0
    7.3765   -1.4025   -1.0131 N   0  0  0  0  0  0  0  0  0  0  0  0
    8.6610   -1.4325   -1.4117 N   0  0  0  0  0  0  0  0  0  0  0  0
    9.4896   -2.5002   -1.0905 C   0  0  0  0  0  0  0  0  0  0  0  0
    9.1049   -3.4817   -0.4912 O   0  0  0  0  0  0  0  0  0  0  0  0
   10.9091   -2.3535   -1.5706 C   0  0  0  0  0  0  0  0  0  0  0  0
   11.5324   -1.1228   -1.8458 C   0  0  0  0  0  0  0  0  0  0  0  0
   12.8577   -1.0735   -2.2677 C   0  0  0  0  0  0  0  0  0  0  0  0
   13.6037   -2.2564   -2.4252 C   0  0  0  0  0  0  0  0  0  0  0  0
   14.9961   -2.1557   -2.8779 C   0  0  0  0  0  0  0  0  0  0  0  0
   15.6009   -1.0272   -3.1843 N   0  0  0  0  0  0  0  0  0  0  0  0
   16.8803   -1.3736   -3.5560 C   0  0  0  0  0  0  0  0  0  0  0  0
   17.9525   -0.5687   -3.9782 C   0  0  0  0  0  0  0  0  0  0  0  0
   19.1551   -1.1930   -4.2967 C   0  0  0  0  0  0  0  0  0  0  0  0
   19.3051   -2.5950   -4.2019 C   0  0  0  0  0  0  0  0  0  0  0  0
   18.2568   -3.4150   -3.7860 C   0  0  0  0  0  0  0  0  0  0  0  0
   17.0498   -2.7826   -3.4672 C   0  0  0  0  0  0  0  0  0  0  0  0
   15.8276   -3.2507   -3.0320 N   0  0  0  0  0  0  0  0  0  0  0  0
   15.5905   -4.2166   -2.8511 H   0  0  0  0  0  0  0  0  0  0  0  0
   12.9831   -3.4859   -2.1343 C   0  0  0  0  0  0  0  0  0  0  0  0
   11.6595   -3.5314   -1.7062 C   0  0  0  0  0  0  0  0  0  0  0  0
    4.4743    0.7862   -1.4808 C   0  0  0  0  0  0  0  0  0  0  0  0
    3.1329    0.9229   -1.1267 C   0  0  0  0  0  0  0  0  0  0  0  0
    0.6872   -0.7257    0.6590 H   0  0  0  0  0  0  0  0  0  0  0  0
    0.4094    0.2494   -0.8048 H   0  0  0  0  0  0  0  0  0  0  0  0
    0.9004    1.0396    0.7029 H   0  0  0  0  0  0  0  0  0  0  0  0
    2.7959   -1.8615    0.7974 H   0  0  0  0  0  0  0  0  0  0  0  0
    5.1897   -2.1059    0.1651 H   0  0  0  0  0  0  0  0  0  0  0  0
    7.0476    0.3672   -2.0615 H   0  0  0  0  0  0  0  0  0  0  0  0
    9.0062   -0.7067   -2.0420 H   0  0  0  0  0  0  0  0  0  0  0  0
   10.9964   -0.1815   -1.7006 H   0  0  0  0  0  0  0  0  0  0  0  0
   13.3492   -0.1221   -2.4762 H   0  0  0  0  0  0  0  0  0  0  0  0
   17.8295    0.5139   -4.0487 H   0  0  0  0  0  0  0  0  0  0  0  0
   20.0047   -0.5907   -4.6274 H   0  0  0  0  0  0  0  0  0  0  0  0
   20.2657   -3.0472   -4.4608 H   0  0  0  0  0  0  0  0  0  0  0  0
   18.3788   -4.4984   -3.7146 H   0  0  0  0  0  0  0  0  0  0  0  0
   13.5289   -4.4272   -2.2385 H   0  0  0  0  0  0  0  0  0  0  0  0
   11.1780   -4.4808   -1.4652 H   0  0  0  0  0  0  0  0  0  0  0  0
    4.9431    1.5357   -2.1256 H   0  0  0  0  0  0  0  0  0  0  0  0
    2.5633    1.7798   -1.4984 H   0  0  0  0  0  0  0  0  0  0  0  0
  1  2  1  0
  1 29  1  0
  1 30  1  0
  1 31  1  0
  2  3  2  0
  2 28  1  0
  3  4  1  0
  3 32  1  0
  4  5  2  0
  4 33  1  0
  5  6  1  0
  5 27  1  0
  6  7  2  0
  6 34  1  0
  7  8  1  0
  8  9  1  0
  8 35  1  0
  9 10  2  0
  9 11  1  0
 11 12  2  0
 11 26  1  0
 12 13  1  0
 12 36  1  0
 13 14  2  0
 13 37  1  0
 14 15  1  0
 14 25  1  0
 15 16  2  0
 15 23  1  0
 16 17  1  0
 17 18  2  0
 17 22  1  0
 18 19  1  0
 18 38  1  0
 19 20  2  0
 19 39  1  0
 20 21  1  0
 20 40  1  0
 21 22  2  0
 21 41  1  0
 22 23  1  0
 23 24  1  0
 25 26  2  0
 25 42  1  0
 26 43  1  0
 27 28  2  0
 27 44  1  0
 28 45  1  0
M  END

