
     RDKit          3D

 42 43  0  0  0  0  0  0  0  0999 V2000
    3.5943    0.8074   -3.1927 C   0  0  0  0  0  0  0  0  0  0  0  0
    2.9577    0.1215   -2.0811 N   0  0  0  0  0  0  0  0  0  0  0  0
    3.0950    0.7779   -0.7817 C   0  0  1  0  0  0  0  0  0  0  0  0
    2.3221    2.1223   -0.6694 C   0  0  0  0  0  0  0  0  0  0  0  0
    0.7783    2.1022   -0.6852 C   0  0  1  0  0  0  0  0  0  0  0  0
    0.2657    3.3840    0.0035 C   0  0  0  0  0  0  0  0  0  0  0  0
   -1.2536    3.6060    0.0699 C   0  0  0  0  0  0  0  0  0  0  0  0
   -1.9101    3.9334   -1.2810 C   0  0  0  0  0  0  0  0  0  0  0  0
   -2.2727    2.7275   -2.1675 C   0  0  0  0  0  0  0  0  0  0  0  0
   -1.2965    1.5376   -2.1373 C   0  0  0  0  0  0  0  0  0  0  0  0
    0.2059    1.8686   -2.1007 C   0  0  0  0  0  0  0  0  0  0  0  0
    2.7031   -0.1983    0.3053 C   0  0  0  0  0  0  0  0  0  0  0  0
    1.8432   -1.2641    0.2394 C   0  0  0  0  0  0  0  0  0  0  0  0
    1.7090   -1.9383    1.4953 C   0  0  0  0  0  0  0  0  0  0  0  0
    0.5810   -3.4588    1.6859 Br  0  0  0  0  0  0  0  0  0  0  0  0
    2.4471   -1.4042    2.5230 C   0  0  0  0  0  0  0  0  0  0  0  0
    2.5597   -1.8303    3.9532 C   0  0  0  0  0  0  0  0  0  0  0  0
    3.3460   -0.0309    1.9191 S   0  0  0  0  0  0  0  0  0  0  0  0
    3.5890    0.1506   -4.0760 H   0  0  0  0  0  0  0  0  0  0  0  0
    4.6474    1.1071   -2.9943 H   0  0  0  0  0  0  0  0  0  0  0  0
    3.0383    1.7179   -3.4659 H   0  0  0  0  0  0  0  0  0  0  0  0
    3.3316   -0.8228   -2.0064 H   0  0  0  0  0  0  0  0  0  0  0  0
    4.1614    1.0517   -0.5991 H   0  0  0  0  0  0  0  0  0  0  0  0
    2.6893    2.8033   -1.4576 H   0  0  0  0  0  0  0  0  0  0  0  0
    2.6561    2.5745    0.2796 H   0  0  0  0  0  0  0  0  0  0  0  0
    0.4503    1.2474   -0.0656 H   0  0  0  0  0  0  0  0  0  0  0  0
    0.7182    4.2618   -0.4978 H   0  0  0  0  0  0  0  0  0  0  0  0
    0.6644    3.3926    1.0334 H   0  0  0  0  0  0  0  0  0  0  0  0
   -1.4311    4.4513    0.7567 H   0  0  0  0  0  0  0  0  0  0  0  0
   -1.7482    2.7355    0.5386 H   0  0  0  0  0  0  0  0  0  0  0  0
   -1.2316    4.6086   -1.8325 H   0  0  0  0  0  0  0  0  0  0  0  0
   -2.8280    4.5215   -1.1105 H   0  0  0  0  0  0  0  0  0  0  0  0
   -2.3799    3.0859   -3.2066 H   0  0  0  0  0  0  0  0  0  0  0  0
   -3.2721    2.3536   -1.8826 H   0  0  0  0  0  0  0  0  0  0  0  0
   -1.5059    0.9092   -3.0197 H   0  0  0  0  0  0  0  0  0  0  0  0
   -1.5251    0.8954   -1.2682 H   0  0  0  0  0  0  0  0  0  0  0  0
    0.4236    2.7445   -2.7416 H   0  0  0  0  0  0  0  0  0  0  0  0
    0.7578    1.0229   -2.5347 H   0  0  0  0  0  0  0  0  0  0  0  0
    1.3164   -1.5594   -0.6670 H   0  0  0  0  0  0  0  0  0  0  0  0
    1.9390   -2.7205    4.1253 H   0  0  0  0  0  0  0  0  0  0  0  0
    2.2199   -1.0392    4.6423 H   0  0  0  0  0  0  0  0  0  0  0  0
    3.5989   -2.0805    4.2241 H   0  0  0  0  0  0  0  0  0  0  0  0
  1  2  1  0
  1 19  1  0
  1 20  1  0
  1 21  1  0
  2  3  1  0
  2 22  1  0
  3  4  1  0
  3 12  1  0
  3 23  1  1
  4  5  1  0
  4 24  1  0
  4 25  1  0
  5  6  1  0
  5 11  1  0
  5 26  1  1
  6  7  1  0
  6 27  1  0
  6 28  1  0
  7  8  1  0
  7 29  1  0
  7 30  1  0
  8  9  1  0
  8 31  1  0
  8 32  1  0
  9 10  1  0
  9 33  1  0
  9 34  1  0
 10 11  1  0
 10 35  1  0
 10 36  1  0
 11 37  1  0
 11 38  1  0
 12 13  2  0
 12 18  1  0
 13 14  1  0
 13 39  1  0
 14 15  1  0
 14 16  2  0
 16 17  1  0
 16 18  1  0
 17 40  1  0
 17 41  1  0
 17 42  1  0
M  END

