
     RDKit          3D

 33 34  0  0  0  0  0  0  0  0999 V2000
    1.4568   -0.0011    0.6897 C   0  0  0  0  0  0  0  0  0  0  0  0
    2.8488   -0.0429    0.2508 N   0  0  0  0  0  0  0  0  0  0  0  0
    3.3193    0.9815   -0.6899 C   0  0  0  0  0  0  0  0  0  0  0  0
    3.9399    2.2191   -0.0551 C   0  0  0  0  0  0  0  0  0  0  0  0
    3.2424    2.9866    0.8926 C   0  0  0  0  0  0  0  0  0  0  0  0
    3.8119    4.1313    1.4456 C   0  0  0  0  0  0  0  0  0  0  0  0
    5.0933    4.5409    1.0594 C   0  0  0  0  0  0  0  0  0  0  0  0
    5.7773    5.9784    1.7658 Cl  0  0  0  0  0  0  0  0  0  0  0  0
    5.7986    3.7844    0.1111 C   0  0  0  0  0  0  0  0  0  0  0  0
    7.3983    4.2560   -0.3960 Cl  0  0  0  0  0  0  0  0  0  0  0  0
    5.2239    2.6309   -0.4366 C   0  0  0  0  0  0  0  0  0  0  0  0
    3.6419   -0.9330    0.9362 C   0  0  0  0  0  0  0  0  0  0  0  0
    3.1804   -1.6040    1.8535 O   0  0  0  0  0  0  0  0  0  0  0  0
    5.0942   -1.1099    0.5865 C   0  0  0  0  0  0  0  0  0  0  0  0
    5.9296   -1.7541    1.4689 C   0  0  0  0  0  0  0  0  0  0  0  0
    7.5289   -1.8222    0.8341 S   0  0  0  0  0  0  0  0  0  0  0  0
    6.9657   -0.9835   -0.6059 C   0  0  0  0  0  0  0  0  0  0  0  0
    7.8781   -0.6608   -1.7617 C   0  0  0  0  0  0  0  0  0  0  0  0
    7.2775    0.3463   -2.6190 N   0  0  0  0  0  0  0  0  0  0  0  0
    5.7009   -0.7003   -0.5787 N   0  0  0  0  0  0  0  0  0  0  0  0
    0.8621    0.5500   -0.0514 H   0  0  0  0  0  0  0  0  0  0  0  0
    1.3429    0.4831    1.6756 H   0  0  0  0  0  0  0  0  0  0  0  0
    1.0637   -1.0220    0.7916 H   0  0  0  0  0  0  0  0  0  0  0  0
    2.4434    1.2837   -1.2860 H   0  0  0  0  0  0  0  0  0  0  0  0
    4.0435    0.5337   -1.3759 H   0  0  0  0  0  0  0  0  0  0  0  0
    2.2378    2.6950    1.2060 H   0  0  0  0  0  0  0  0  0  0  0  0
    3.2687    4.7269    2.1813 H   0  0  0  0  0  0  0  0  0  0  0  0
    5.8066    2.0518   -1.1583 H   0  0  0  0  0  0  0  0  0  0  0  0
    5.6579   -2.1713    2.4357 H   0  0  0  0  0  0  0  0  0  0  0  0
    8.1310   -1.6170   -2.2731 H   0  0  0  0  0  0  0  0  0  0  0  0
    8.8310   -0.2730   -1.3627 H   0  0  0  0  0  0  0  0  0  0  0  0
    6.3936    0.0045   -2.9954 H   0  0  0  0  0  0  0  0  0  0  0  0
    7.8882    0.5526   -3.4079 H   0  0  0  0  0  0  0  0  0  0  0  0
  1  2  1  0
  1 21  1  0
  1 22  1  0
  1 23  1  0
  2  3  1  0
  2 12  1  0
  3  4  1  0
  3 24  1  0
  3 25  1  0
  4  5  2  0
  4 11  1  0
  5  6  1  0
  5 26  1  0
  6  7  2  0
  6 27  1  0
  7  8  1  0
  7  9  1  0
  9 10  1  0
  9 11  2  0
 11 28  1  0
 12 13  2  0
 12 14  1  0
 14 15  2  0
 14 20  1  0
 15 16  1  0
 15 29  1  0
 16 17  1  0
 17 18  1  0
 17 20  2  0
 18 19  1  0
 18 30  1  0
 18 31  1  0
 19 32  1  0
 19 33  1  0
M  END

