
     RDKit          3D

 67 70  0  0  0  0  0  0  0  0999 V2000
    1.0874   -0.2331    0.4110 C   0  0  0  0  0  0  0  0  0  0  0  0
    2.3483    0.3770    0.5619 O   0  0  0  0  0  0  0  0  0  0  0  0
    3.1554   -0.0091    1.5825 C   0  0  0  0  0  0  0  0  0  0  0  0
    4.3933    0.6538    1.6794 C   0  0  0  0  0  0  0  0  0  0  0  0
    5.2940    0.3248    2.6828 C   0  0  0  0  0  0  0  0  0  0  0  0
    4.9773   -0.6739    3.6202 C   0  0  0  0  0  0  0  0  0  0  0  0
    5.9079   -0.9792    4.6504 N   0  0  0  0  0  0  0  0  0  0  0  0
    6.5280    0.0352    5.2831 N   0  0  0  0  0  0  0  0  0  0  0  0
    7.3229   -0.5325    6.1987 C   0  0  0  0  0  0  0  0  0  0  0  0
    8.1672    0.2445    7.0995 C   0  0  0  0  0  0  0  0  0  0  0  0
    8.2362    1.5946    7.1152 C   0  0  0  0  0  0  0  0  0  0  0  0
    9.0541    2.4393    7.9835 C   0  0  0  0  0  0  0  0  0  0  0  0
    9.9330    1.9441    8.9698 C   0  0  0  0  0  0  0  0  0  0  0  0
   10.6913    2.7850    9.7739 C   0  0  0  0  0  0  0  0  0  0  0  0
   10.6170    4.1968    9.6412 C   0  0  0  0  0  0  0  0  0  0  0  0
   11.3684    5.0385   10.4421 N   0  0  0  0  0  0  0  0  0  0  0  0
   11.2800    6.4723   10.2672 C   0  0  0  0  0  0  0  0  0  0  0  0
   12.2695    4.4873   11.4314 C   0  0  0  0  0  0  0  0  0  0  0  0
    9.7384    4.7010    8.6510 C   0  0  0  0  0  0  0  0  0  0  0  0
    8.9874    3.8410    7.8559 C   0  0  0  0  0  0  0  0  0  0  0  0
    7.2100   -1.9457    6.1449 C   0  0  0  0  0  0  0  0  0  0  0  0
    6.2960   -2.2186    5.1302 C   0  0  0  0  0  0  0  0  0  0  0  0
    5.8494   -3.4794    4.5632 C   0  0  0  0  0  0  0  0  0  0  0  0
    5.9747   -4.6806    5.1765 C   0  0  0  0  0  0  0  0  0  0  0  0
    5.6076   -5.9919    4.6471 C   0  0  0  0  0  0  0  0  0  0  0  0
    5.7343   -7.1345    5.4622 C   0  0  0  0  0  0  0  0  0  0  0  0
    5.3961   -8.4090    5.0201 C   0  0  0  0  0  0  0  0  0  0  0  0
    4.9011   -8.6180    3.7088 C   0  0  0  0  0  0  0  0  0  0  0  0
    4.5584   -9.8776    3.2548 N   0  0  0  0  0  0  0  0  0  0  0  0
    4.0781  -10.0568    1.9006 C   0  0  0  0  0  0  0  0  0  0  0  0
    4.7252  -11.0283    4.1176 C   0  0  0  0  0  0  0  0  0  0  0  0
    4.7769   -7.4713    2.8797 C   0  0  0  0  0  0  0  0  0  0  0  0
    5.1209   -6.2074    3.3401 C   0  0  0  0  0  0  0  0  0  0  0  0
    3.7384   -1.3161    3.5420 C   0  0  0  0  0  0  0  0  0  0  0  0
    2.8328   -0.9981    2.5228 C   0  0  0  0  0  0  0  0  0  0  0  0
    0.6181    0.2295   -0.4677 H   0  0  0  0  0  0  0  0  0  0  0  0
    0.4401   -0.0653    1.2910 H   0  0  0  0  0  0  0  0  0  0  0  0
    1.1738   -1.3215    0.2380 H   0  0  0  0  0  0  0  0  0  0  0  0
    4.6258    1.4265    0.9440 H   0  0  0  0  0  0  0  0  0  0  0  0
    6.2520    0.8392    2.7657 H   0  0  0  0  0  0  0  0  0  0  0  0
    8.7675   -0.3503    7.7948 H   0  0  0  0  0  0  0  0  0  0  0  0
    7.6060    2.1281    6.3956 H   0  0  0  0  0  0  0  0  0  0  0  0
   10.0307    0.8656    9.1162 H   0  0  0  0  0  0  0  0  0  0  0  0
   11.3511    2.3367   10.5161 H   0  0  0  0  0  0  0  0  0  0  0  0
   10.2533    6.8501   10.4303 H   0  0  0  0  0  0  0  0  0  0  0  0
   11.5921    6.7932    9.2551 H   0  0  0  0  0  0  0  0  0  0  0  0
   11.9365    6.9703   10.9925 H   0  0  0  0  0  0  0  0  0  0  0  0
   11.7402    3.8710   12.1820 H   0  0  0  0  0  0  0  0  0  0  0  0
   12.7689    5.3054   11.9665 H   0  0  0  0  0  0  0  0  0  0  0  0
   13.0555    3.8530   10.9791 H   0  0  0  0  0  0  0  0  0  0  0  0
    9.6371    5.7748    8.4969 H   0  0  0  0  0  0  0  0  0  0  0  0
    8.3198    4.2704    7.1031 H   0  0  0  0  0  0  0  0  0  0  0  0
    7.7595   -2.6738    6.7367 H   0  0  0  0  0  0  0  0  0  0  0  0
    5.4056   -3.4272    3.5657 H   0  0  0  0  0  0  0  0  0  0  0  0
    6.3873   -4.6952    6.1917 H   0  0  0  0  0  0  0  0  0  0  0  0
    6.1116   -7.0171    6.4824 H   0  0  0  0  0  0  0  0  0  0  0  0
    5.5201   -9.2475    5.7043 H   0  0  0  0  0  0  0  0  0  0  0  0
    4.8250   -9.7497    1.1441 H   0  0  0  0  0  0  0  0  0  0  0  0
    3.1546   -9.4806    1.7064 H   0  0  0  0  0  0  0  0  0  0  0  0
    3.8492  -11.1169    1.7321 H   0  0  0  0  0  0  0  0  0  0  0  0
    5.7790  -11.1784    4.4197 H   0  0  0  0  0  0  0  0  0  0  0  0
    4.3973  -11.9323    3.5886 H   0  0  0  0  0  0  0  0  0  0  0  0
    4.1251  -10.9454    5.0427 H   0  0  0  0  0  0  0  0  0  0  0  0
    4.4113   -7.5688    1.8581 H   0  0  0  0  0  0  0  0  0  0  0  0
    5.0127   -5.3633    2.6548 H   0  0  0  0  0  0  0  0  0  0  0  0
    3.4621   -2.0591    4.2917 H   0  0  0  0  0  0  0  0  0  0  0  0
    1.8746   -1.5166    2.4895 H   0  0  0  0  0  0  0  0  0  0  0  0
  1  2  1  0
  1 36  1  0
  1 37  1  0
  1 38  1  0
  2  3  1  0
  3  4  2  0
  3 35  1  0
  4  5  1  0
  4 39  1  0
  5  6  2  0
  5 40  1  0
  6  7  1  0
  6 34  1  0
  7  8  1  0
  7 22  1  0
  8  9  2  0
  9 10  1  0
  9 21  1  0
 10 11  2  0
 10 41  1  0
 11 12  1  0
 11 42  1  0
 12 13  2  0
 12 20  1  0
 13 14  1  0
 13 43  1  0
 14 15  2  0
 14 44  1  0
 15 16  1  0
 15 19  1  0
 16 17  1  0
 16 18  1  0
 17 45  1  0
 17 46  1  0
 17 47  1  0
 18 48  1  0
 18 49  1  0
 18 50  1  0
 19 20  2  0
 19 51  1  0
 20 52  1  0
 21 22  2  0
 21 53  1  0
 22 23  1  0
 23 24  2  0
 23 54  1  0
 24 25  1  0
 24 55  1  0
 25 26  2  0
 25 33  1  0
 26 27  1  0
 26 56  1  0
 27 28  2  0
 27 57  1  0
 28 29  1  0
 28 32  1  0
 29 30  1  0
 29 31  1  0
 30 58  1  0
 30 59  1  0
 30 60  1  0
 31 61  1  0
 31 62  1  0
 31 63  1  0
 32 33  2  0
 32 64  1  0
 33 65  1  0
 34 35  2  0
 34 66  1  0
 35 67  1  0
M  END

