
     RDKit          3D

 71 74  0  0  0  0  0  0  0  0999 V2000
    7.5731    1.7421   -0.4866 C   0  0  0  0  0  0  0  0  0  0  0  0
    6.1737    1.2291   -0.1888 C   0  0  0  0  0  0  0  0  0  0  0  0
    5.6012    1.8762    0.9601 O   0  0  0  0  0  0  0  0  0  0  0  0
    5.8733    1.3452    2.1798 C   0  0  0  0  0  0  0  0  0  0  0  0
    6.5660    0.3513    2.3366 O   0  0  0  0  0  0  0  0  0  0  0  0
    5.2434    2.0957    3.2457 C   0  0  0  0  0  0  0  0  0  0  0  0
    4.4636    3.2228    3.0203 N   0  0  0  0  0  0  0  0  0  0  0  0
    4.2789    3.5938    2.0989 H   0  0  0  0  0  0  0  0  0  0  0  0
    4.0209    3.7125    4.2134 C   0  0  0  0  0  0  0  0  0  0  0  0
    3.2072    4.8353    4.4585 C   0  0  0  0  0  0  0  0  0  0  0  0
    2.8890    5.1335    5.7798 C   0  0  0  0  0  0  0  0  0  0  0  0
    2.1265    6.1872    6.1618 O   0  0  0  0  0  0  0  0  0  0  0  0
    1.6350    7.0710    5.1816 C   0  0  0  0  0  0  0  0  0  0  0  0
    3.3806    4.3128    6.8521 C   0  0  0  0  0  0  0  0  0  0  0  0
    3.1068    4.6664    8.1469 O   0  0  0  0  0  0  0  0  0  0  0  0
    1.7985    4.3877    8.6130 C   0  0  0  0  0  0  0  0  0  0  0  0
    4.1775    3.2139    6.5972 C   0  0  0  0  0  0  0  0  0  0  0  0
    4.5218    2.8838    5.2630 C   0  0  0  0  0  0  0  0  0  0  0  0
    5.3007    1.8511    4.6251 C   0  0  0  0  0  0  0  0  0  0  0  0
    6.0016    0.7621    5.1292 N   0  0  0  0  0  0  0  0  0  0  0  0
    6.2810    0.3891    6.4136 C   0  0  0  0  0  0  0  0  0  0  0  0
    5.9266    0.9654    7.4280 O   0  0  0  0  0  0  0  0  0  0  0  0
    7.0801   -0.9383    6.5063 C   0  0  1  0  0  0  0  0  0  0  0  0
    7.7797   -0.7674    7.3493 H   0  0  0  0  0  0  0  0  0  0  0  0
    6.0937   -2.0244    6.9549 C   0  0  0  0  0  0  0  0  0  0  0  0
    7.7779   -1.2217    5.2524 N   0  0  0  0  0  0  0  0  0  0  0  0
    8.9955   -0.4254    5.0569 C   0  0  0  0  0  0  0  0  0  0  0  0
   10.2346   -1.0233    5.7429 C   0  0  0  0  0  0  0  0  0  0  0  0
   10.4934   -2.4855    5.3232 C   0  0  2  0  0  0  0  0  0  0  0  0
   11.0897   -2.6271    3.8976 C   0  0  0  0  0  0  0  0  0  0  0  0
   12.4614   -2.0097    3.7272 C   0  0  0  0  0  0  0  0  0  0  0  0
   13.6001   -2.6394    4.2591 C   0  0  0  0  0  0  0  0  0  0  0  0
   14.8690   -2.0712    4.1241 C   0  0  0  0  0  0  0  0  0  0  0  0
   15.0269   -0.8562    3.4493 C   0  0  0  0  0  0  0  0  0  0  0  0
   13.9060   -0.2194    2.9106 C   0  0  0  0  0  0  0  0  0  0  0  0
   12.6378   -0.7929    3.0492 C   0  0  0  0  0  0  0  0  0  0  0  0
    9.1867   -3.2923    5.4819 C   0  0  0  0  0  0  0  0  0  0  0  0
    7.9853   -2.6009    4.8136 C   0  0  0  0  0  0  0  0  0  0  0  0
    7.9520    1.2828   -1.4139 H   0  0  0  0  0  0  0  0  0  0  0  0
    8.2637    1.4845    0.3298 H   0  0  0  0  0  0  0  0  0  0  0  0
    7.5737    2.8355   -0.6191 H   0  0  0  0  0  0  0  0  0  0  0  0
    6.1830    0.1427   -0.0178 H   0  0  0  0  0  0  0  0  0  0  0  0
    5.4820    1.4562   -1.0136 H   0  0  0  0  0  0  0  0  0  0  0  0
    2.8498    5.4456    3.6298 H   0  0  0  0  0  0  0  0  0  0  0  0
    1.0666    7.8458    5.7133 H   0  0  0  0  0  0  0  0  0  0  0  0
    0.9638    6.5608    4.4666 H   0  0  0  0  0  0  0  0  0  0  0  0
    2.4545    7.5514    4.6172 H   0  0  0  0  0  0  0  0  0  0  0  0
    1.7609    4.7000    9.6667 H   0  0  0  0  0  0  0  0  0  0  0  0
    1.5729    3.3065    8.5542 H   0  0  0  0  0  0  0  0  0  0  0  0
    1.0326    4.9458    8.0479 H   0  0  0  0  0  0  0  0  0  0  0  0
    4.5568    2.6162    7.4238 H   0  0  0  0  0  0  0  0  0  0  0  0
    6.4291    0.1465    4.4249 H   0  0  0  0  0  0  0  0  0  0  0  0
    5.5638   -1.6635    7.8474 H   0  0  0  0  0  0  0  0  0  0  0  0
    6.6049   -2.9621    7.2180 H   0  0  0  0  0  0  0  0  0  0  0  0
    5.3470   -2.2366    6.1734 H   0  0  0  0  0  0  0  0  0  0  0  0
    8.8178    0.5977    5.4231 H   0  0  0  0  0  0  0  0  0  0  0  0
    9.1652   -0.3314    3.9697 H   0  0  0  0  0  0  0  0  0  0  0  0
   10.0900   -0.9916    6.8370 H   0  0  0  0  0  0  0  0  0  0  0  0
   11.1162   -0.3961    5.5319 H   0  0  0  0  0  0  0  0  0  0  0  0
   11.2414   -2.9090    6.0162 H   0  0  0  0  0  0  0  0  0  0  0  0
   10.4043   -2.1960    3.1507 H   0  0  0  0  0  0  0  0  0  0  0  0
   11.1524   -3.7049    3.6678 H   0  0  0  0  0  0  0  0  0  0  0  0
   13.4909   -3.5947    4.7817 H   0  0  0  0  0  0  0  0  0  0  0  0
   15.7403   -2.5818    4.5433 H   0  0  0  0  0  0  0  0  0  0  0  0
   16.0193   -0.4111    3.3408 H   0  0  0  0  0  0  0  0  0  0  0  0
   14.0177    0.7283    2.3769 H   0  0  0  0  0  0  0  0  0  0  0  0
   11.7679   -0.2886    2.6183 H   0  0  0  0  0  0  0  0  0  0  0  0
    8.9756   -3.4181    6.5586 H   0  0  0  0  0  0  0  0  0  0  0  0
    9.3089   -4.3083    5.0670 H   0  0  0  0  0  0  0  0  0  0  0  0
    7.0698   -3.1864    4.9703 H   0  0  0  0  0  0  0  0  0  0  0  0
    8.1348   -2.5721    3.7195 H   0  0  0  0  0  0  0  0  0  0  0  0
  1  2  1  0
  1 39  1  0
  1 40  1  0
  1 41  1  0
  2  3  1  0
  2 42  1  0
  2 43  1  0
  3  4  1  0
  4  5  2  0
  4  6  1  0
  6  7  1  0
  6 19  2  0
  7  8  1  0
  7  9  1  0
  9 10  2  0
  9 18  1  0
 10 11  1  0
 10 44  1  0
 11 12  1  0
 11 14  2  0
 12 13  1  0
 13 45  1  0
 13 46  1  0
 13 47  1  0
 14 15  1  0
 14 17  1  0
 15 16  1  0
 16 48  1  0
 16 49  1  0
 16 50  1  0
 17 18  2  0
 17 51  1  0
 18 19  1  0
 19 20  1  0
 20 21  1  0
 20 52  1  0
 21 22  2  0
 21 23  1  0
 23 24  1  1
 23 25  1  0
 23 26  1  0
 25 53  1  0
 25 54  1  0
 25 55  1  0
 26 27  1  0
 26 38  1  0
 27 28  1  0
 27 56  1  0
 27 57  1  0
 28 29  1  0
 28 58  1  0
 28 59  1  0
 29 30  1  0
 29 37  1  0
 29 60  1  1
 30 31  1  0
 30 61  1  0
 30 62  1  0
 31 32  2  0
 31 36  1  0
 32 33  1  0
 32 63  1  0
 33 34  2  0
 33 64  1  0
 34 35  1  0
 34 65  1  0
 35 36  2  0
 35 66  1  0
 36 67  1  0
 37 38  1  0
 37 68  1  0
 37 69  1  0
 38 70  1  0
 38 71  1  0
M  END

