
     RDKit          3D

 52 54  0  0  0  0  0  0  0  0999 V2000
    0.8420   -0.1363    0.0691 C   0  0  0  0  0  0  0  0  0  0  0  0
    2.2468   -0.3130    0.0579 O   0  0  0  0  0  0  0  0  0  0  0  0
    2.9028   -0.6168    1.2039 C   0  0  0  0  0  0  0  0  0  0  0  0
    2.2740   -0.7535    2.4023 C   0  0  0  0  0  0  0  0  0  0  0  0
    2.9475   -1.1482    3.6546 C   0  0  0  0  0  0  0  0  0  0  0  0
    3.9927   -1.7862    3.6691 O   0  0  0  0  0  0  0  0  0  0  0  0
    2.2823   -0.7831    4.9596 C   0  0  0  0  0  0  0  0  0  0  0  0
    2.7583   -1.4017    6.1291 C   0  0  0  0  0  0  0  0  0  0  0  0
    2.1994   -1.1017    7.3703 C   0  0  0  0  0  0  0  0  0  0  0  0
    1.1603   -0.1679    7.4639 C   0  0  0  0  0  0  0  0  0  0  0  0
    0.6874    0.4639    6.3103 C   0  0  0  0  0  0  0  0  0  0  0  0
    1.2433    0.1568    5.0653 C   0  0  0  0  0  0  0  0  0  0  0  0
    4.3801   -0.6610    0.9863 C   0  0  0  0  0  0  0  0  0  0  0  0
    5.1849   -1.8190    0.8557 C   0  0  0  0  0  0  0  0  0  0  0  0
    4.7681   -3.1015    0.7956 O   0  0  0  0  0  0  0  0  0  0  0  0
    3.4113   -3.4846    0.7547 C   0  0  0  0  0  0  0  0  0  0  0  0
    6.5817   -1.6937    0.7498 C   0  0  0  0  0  0  0  0  0  0  0  0
    7.1929   -0.4493    0.7899 C   0  0  0  0  0  0  0  0  0  0  0  0
    6.4227    0.7315    0.9020 C   0  0  0  0  0  0  0  0  0  0  0  0
    5.0292    0.5970    0.9670 C   0  0  0  0  0  0  0  0  0  0  0  0
    4.2544    1.7294    1.0767 O   0  0  0  0  0  0  0  0  0  0  0  0
    3.9442    2.3895   -0.1439 C   0  0  0  0  0  0  0  0  0  0  0  0
    7.1334    2.0028    0.9427 C   0  0  0  0  0  0  0  0  0  0  0  0
    8.4746    2.0268    1.0127 C   0  0  0  0  0  0  0  0  0  0  0  0
    9.2923    0.7569    1.1181 C   0  0  2  0  0  0  0  0  0  0  0  0
    9.6904    0.4986    2.5813 C   0  0  0  0  0  0  0  0  0  0  0  0
   10.5241    0.8094    0.2114 C   0  0  0  0  0  0  0  0  0  0  0  0
    8.5390   -0.3956    0.6542 O   0  0  0  0  0  0  0  0  0  0  0  0
    0.5486    0.0811   -0.9662 H   0  0  0  0  0  0  0  0  0  0  0  0
    0.5478    0.7073    0.7170 H   0  0  0  0  0  0  0  0  0  0  0  0
    0.3241   -1.0489    0.4113 H   0  0  0  0  0  0  0  0  0  0  0  0
    1.2019   -0.5704    2.4590 H   0  0  0  0  0  0  0  0  0  0  0  0
    3.5766   -2.1177    6.0314 H   0  0  0  0  0  0  0  0  0  0  0  0
    2.5747   -1.5942    8.2712 H   0  0  0  0  0  0  0  0  0  0  0  0
    0.7226    0.0703    8.4370 H   0  0  0  0  0  0  0  0  0  0  0  0
   -0.1149    1.2031    6.3801 H   0  0  0  0  0  0  0  0  0  0  0  0
    0.8778    0.6744    4.1764 H   0  0  0  0  0  0  0  0  0  0  0  0
    3.4072   -4.5535    0.4980 H   0  0  0  0  0  0  0  0  0  0  0  0
    2.8540   -2.9329   -0.0213 H   0  0  0  0  0  0  0  0  0  0  0  0
    2.9234   -3.3465    1.7300 H   0  0  0  0  0  0  0  0  0  0  0  0
    7.1827   -2.5969    0.6483 H   0  0  0  0  0  0  0  0  0  0  0  0
    3.3064    3.2479    0.1124 H   0  0  0  0  0  0  0  0  0  0  0  0
    3.4002    1.7201   -0.8300 H   0  0  0  0  0  0  0  0  0  0  0  0
    4.8519    2.7597   -0.6524 H   0  0  0  0  0  0  0  0  0  0  0  0
    6.5576    2.9296    0.9346 H   0  0  0  0  0  0  0  0  0  0  0  0
    9.0231    2.9718    1.0577 H   0  0  0  0  0  0  0  0  0  0  0  0
   10.2901    1.3346    2.9745 H   0  0  0  0  0  0  0  0  0  0  0  0
   10.2820   -0.4274    2.6577 H   0  0  0  0  0  0  0  0  0  0  0  0
    8.7931    0.3955    3.2099 H   0  0  0  0  0  0  0  0  0  0  0  0
   11.1967    1.6243    0.5206 H   0  0  0  0  0  0  0  0  0  0  0  0
   10.2232    0.9778   -0.8332 H   0  0  0  0  0  0  0  0  0  0  0  0
   11.0757   -0.1414    0.2670 H   0  0  0  0  0  0  0  0  0  0  0  0
  1  2  1  0
  1 29  1  0
  1 30  1  0
  1 31  1  0
  2  3  1  0
  3  4  2  0
  3 13  1  0
  4  5  1  0
  4 32  1  0
  5  6  2  0
  5  7  1  0
  7  8  2  0
  7 12  1  0
  8  9  1  0
  8 33  1  0
  9 10  2  0
  9 34  1  0
 10 11  1  0
 10 35  1  0
 11 12  2  0
 11 36  1  0
 12 37  1  0
 13 14  2  0
 13 20  1  0
 14 15  1  0
 14 17  1  0
 15 16  1  0
 16 38  1  0
 16 39  1  0
 16 40  1  0
 17 18  2  0
 17 41  1  0
 18 19  1  0
 18 28  1  0
 19 20  2  0
 19 23  1  0
 20 21  1  0
 21 22  1  0
 22 42  1  0
 22 43  1  0
 22 44  1  0
 23 24  2  0
 23 45  1  0
 24 25  1  0
 24 46  1  0
 25 26  1  1
 25 27  1  0
 25 28  1  0
 26 47  1  0
 26 48  1  0
 26 49  1  0
 27 50  1  0
 27 51  1  0
 27 52  1  0
M  END

