
     RDKit          3D

 37 37  0  0  0  0  0  0  0  0999 V2000
    0.9726   -0.1460   -0.2228 C   0  0  0  0  0  0  0  0  0  0  0  0
    2.4977   -0.0984   -0.1161 C   0  0  0  0  0  0  0  0  0  0  0  0
    3.0168   -0.8301    1.1251 C   0  0  0  0  0  0  0  0  0  0  0  0
    4.4786   -0.8829    1.2082 N   0  0  0  0  0  0  0  0  0  0  0  0
    5.0580    0.4043    1.5650 C   0  0  0  0  0  0  0  0  0  0  0  0
    4.9922   -1.9531    2.0716 C   0  0  1  0  0  0  0  0  0  0  0  0
    4.3750   -3.2546    1.7299 C   0  0  0  0  0  0  0  0  0  0  0  0
    3.9181   -4.2922    1.4902 N   0  0  0  0  0  0  0  0  0  0  0  0
    6.5114   -2.1053    1.9877 C   0  0  0  0  0  0  0  0  0  0  0  0
    7.2989   -2.1450    3.1473 C   0  0  0  0  0  0  0  0  0  0  0  0
    8.6785   -2.3119    3.0701 C   0  0  0  0  0  0  0  0  0  0  0  0
    9.3070   -2.4453    1.8198 C   0  0  0  0  0  0  0  0  0  0  0  0
   10.6519   -2.6022    1.8398 O   0  0  0  0  0  0  0  0  0  0  0  0
   11.3672   -2.7560    0.6224 C   0  0  0  0  0  0  0  0  0  0  0  0
   12.8371   -2.9178    0.9584 C   0  0  0  0  0  0  0  0  0  0  0  0
    8.5260   -2.4065    0.6514 C   0  0  0  0  0  0  0  0  0  0  0  0
    7.1422   -2.2409    0.7461 C   0  0  0  0  0  0  0  0  0  0  0  0
    0.6186    0.3823   -1.1218 H   0  0  0  0  0  0  0  0  0  0  0  0
    0.4914    0.3266    0.6500 H   0  0  0  0  0  0  0  0  0  0  0  0
    0.6050   -1.1840   -0.2804 H   0  0  0  0  0  0  0  0  0  0  0  0
    2.8273    0.9543   -0.1090 H   0  0  0  0  0  0  0  0  0  0  0  0
    2.9592   -0.5614   -1.0047 H   0  0  0  0  0  0  0  0  0  0  0  0
    2.6369   -1.8622    1.0901 H   0  0  0  0  0  0  0  0  0  0  0  0
    2.5804   -0.3685    2.0420 H   0  0  0  0  0  0  0  0  0  0  0  0
    4.7318    1.1725    0.8508 H   0  0  0  0  0  0  0  0  0  0  0  0
    6.1546    0.3602    1.5284 H   0  0  0  0  0  0  0  0  0  0  0  0
    4.7608    0.7396    2.5852 H   0  0  0  0  0  0  0  0  0  0  0  0
    4.7321   -1.7722    3.1419 H   0  0  0  0  0  0  0  0  0  0  0  0
    6.8265   -2.0422    4.1285 H   0  0  0  0  0  0  0  0  0  0  0  0
    9.2984   -2.3418    3.9683 H   0  0  0  0  0  0  0  0  0  0  0  0
   11.2076   -1.8719   -0.0235 H   0  0  0  0  0  0  0  0  0  0  0  0
   10.9905   -3.6391    0.0727 H   0  0  0  0  0  0  0  0  0  0  0  0
   13.2119   -2.0349    1.4984 H   0  0  0  0  0  0  0  0  0  0  0  0
   13.4269   -3.0395    0.0367 H   0  0  0  0  0  0  0  0  0  0  0  0
   12.9957   -3.8026    1.5934 H   0  0  0  0  0  0  0  0  0  0  0  0
    8.9829   -2.5079   -0.3329 H   0  0  0  0  0  0  0  0  0  0  0  0
    6.5385   -2.2053   -0.1638 H   0  0  0  0  0  0  0  0  0  0  0  0
  1  2  1  0
  1 18  1  0
  1 19  1  0
  1 20  1  0
  2  3  1  0
  2 21  1  0
  2 22  1  0
  3  4  1  0
  3 23  1  0
  3 24  1  0
  4  5  1  0
  4  6  1  0
  5 25  1  0
  5 26  1  0
  5 27  1  0
  6  7  1  0
  6  9  1  0
  6 28  1  1
  7  8  3  0
  9 10  2  0
  9 17  1  0
 10 11  1  0
 10 29  1  0
 11 12  2  0
 11 30  1  0
 12 13  1  0
 12 16  1  0
 13 14  1  0
 14 15  1  0
 14 31  1  0
 14 32  1  0
 15 33  1  0
 15 34  1  0
 15 35  1  0
 16 17  2  0
 16 36  1  0
 17 37  1  0
M  END

