
     RDKit          3D

 44 46  0  0  0  0  0  0  0  0999 V2000
    3.7258   -1.2723    1.2428 C   0  0  0  0  0  0  0  0  0  0  0  0
    3.7778   -0.8870   -0.2120 C   0  0  0  0  0  0  0  0  0  0  0  0
    4.5186    0.2089   -0.6574 C   0  0  0  0  0  0  0  0  0  0  0  0
    4.5394    0.5544   -2.0116 C   0  0  0  0  0  0  0  0  0  0  0  0
    5.4887    1.9675   -2.4564 Cl  0  0  0  0  0  0  0  0  0  0  0  0
    3.8423   -0.1823   -2.9827 C   0  0  0  0  0  0  0  0  0  0  0  0
    3.8632    0.1778   -4.4463 C   0  0  0  0  0  0  0  0  0  0  0  0
    3.0955   -1.3042   -2.5440 C   0  0  0  0  0  0  0  0  0  0  0  0
    2.3316   -2.1442   -3.5367 C   0  0  0  0  0  0  0  0  0  0  0  0
    3.0674   -1.6150   -1.1787 C   0  0  0  0  0  0  0  0  0  0  0  0
    2.3652   -2.7464   -0.7586 O   0  0  0  0  0  0  0  0  0  0  0  0
    1.0852   -2.6362   -0.3609 C   0  0  0  0  0  0  0  0  0  0  0  0
    0.5152   -3.7735   -0.0018 N   0  0  0  0  0  0  0  0  0  0  0  0
   -0.7681   -3.6431    0.3884 C   0  0  0  0  0  0  0  0  0  0  0  0
   -1.4109   -4.7660    0.7702 N   0  0  0  0  0  0  0  0  0  0  0  0
   -1.4520   -2.4889    0.4251 N   0  0  0  0  0  0  0  0  0  0  0  0
   -0.7541   -1.4153    0.0357 C   0  0  0  0  0  0  0  0  0  0  0  0
   -1.4534   -0.2351    0.0735 N   0  0  0  0  0  0  0  0  0  0  0  0
   -1.1026    1.0785   -0.2449 C   0  0  0  0  0  0  0  0  0  0  0  0
   -2.1042    2.0610   -0.0866 C   0  0  0  0  0  0  0  0  0  0  0  0
   -1.8518    3.3944   -0.3767 C   0  0  0  0  0  0  0  0  0  0  0  0
   -0.5814    3.7921   -0.8374 C   0  0  0  0  0  0  0  0  0  0  0  0
   -0.3149    5.1685   -1.1392 C   0  0  0  0  0  0  0  0  0  0  0  0
   -0.1024    6.2845   -1.3829 N   0  0  0  0  0  0  0  0  0  0  0  0
    0.4174    2.8134   -0.9951 C   0  0  0  0  0  0  0  0  0  0  0  0
    0.1694    1.4746   -0.7060 C   0  0  0  0  0  0  0  0  0  0  0  0
    0.5223   -1.4282   -0.3681 N   0  0  0  0  0  0  0  0  0  0  0  0
    4.4624   -0.7039    1.8281 H   0  0  0  0  0  0  0  0  0  0  0  0
    3.9231   -2.3469    1.3790 H   0  0  0  0  0  0  0  0  0  0  0  0
    2.7285   -1.0710    1.6691 H   0  0  0  0  0  0  0  0  0  0  0  0
    5.0882    0.8093    0.0539 H   0  0  0  0  0  0  0  0  0  0  0  0
    4.4122    1.1096   -4.6234 H   0  0  0  0  0  0  0  0  0  0  0  0
    2.8418    0.3002   -4.8416 H   0  0  0  0  0  0  0  0  0  0  0  0
    4.3417   -0.6161   -5.0448 H   0  0  0  0  0  0  0  0  0  0  0  0
    2.9589   -2.4099   -4.4015 H   0  0  0  0  0  0  0  0  0  0  0  0
    1.4582   -1.5976   -3.9322 H   0  0  0  0  0  0  0  0  0  0  0  0
    1.9718   -3.0757   -3.0828 H   0  0  0  0  0  0  0  0  0  0  0  0
   -0.9166   -5.6472    0.7521 H   0  0  0  0  0  0  0  0  0  0  0  0
   -2.3739   -4.7134    1.0706 H   0  0  0  0  0  0  0  0  0  0  0  0
   -2.4049   -0.3758    0.3970 H   0  0  0  0  0  0  0  0  0  0  0  0
   -3.0953    1.7669    0.2704 H   0  0  0  0  0  0  0  0  0  0  0  0
   -2.6395    4.1391   -0.2479 H   0  0  0  0  0  0  0  0  0  0  0  0
    1.4074    3.1069   -1.3504 H   0  0  0  0  0  0  0  0  0  0  0  0
    0.9492    0.7284   -0.8324 H   0  0  0  0  0  0  0  0  0  0  0  0
  1  2  1  0
  1 28  1  0
  1 29  1  0
  1 30  1  0
  2  3  2  0
  2 10  1  0
  3  4  1  0
  3 31  1  0
  4  5  1  0
  4  6  2  0
  6  7  1  0
  6  8  1  0
  7 32  1  0
  7 33  1  0
  7 34  1  0
  8  9  1  0
  8 10  2  0
  9 35  1  0
  9 36  1  0
  9 37  1  0
 10 11  1  0
 11 12  1  0
 12 13  2  0
 12 27  1  0
 13 14  1  0
 14 15  1  0
 14 16  2  0
 15 38  1  0
 15 39  1  0
 16 17  1  0
 17 18  1  0
 17 27  2  0
 18 19  1  0
 18 40  1  0
 19 20  2  0
 19 26  1  0
 20 21  1  0
 20 41  1  0
 21 22  2  0
 21 42  1  0
 22 23  1  0
 22 25  1  0
 23 24  3  0
 25 26  2  0
 25 43  1  0
 26 44  1  0
M  END

