
     RDKit          3D

 29 30  0  0  0  0  0  0  0  0999 V2000
    0.9712    0.4011   -0.2740 C   0  0  0  0  0  0  0  0  0  0  0  0
    2.4551    0.0939   -0.0515 C   0  0  1  0  0  0  0  0  0  0  0  0
    2.6460   -1.3037    0.5436 C   0  0  0  0  0  0  0  0  0  0  0  0
    3.1820    0.3668   -1.3344 N   0  0  0  0  0  0  0  0  0  0  0  0
    3.6613    1.7620   -1.4134 C   0  0  0  0  0  0  0  0  0  0  0  0
    4.1002    2.1849   -2.7988 C   0  0  0  0  0  0  0  0  0  0  0  0
    4.1265    3.5385   -3.1622 C   0  0  0  0  0  0  0  0  0  0  0  0
    4.5666    3.9438   -4.4229 C   0  0  0  0  0  0  0  0  0  0  0  0
    4.9908    2.9872   -5.3529 C   0  0  0  0  0  0  0  0  0  0  0  0
    4.9680    1.6498   -4.9924 C   0  0  0  0  0  0  0  0  0  0  0  0
    5.3662    0.6987   -5.8611 F   0  0  0  0  0  0  0  0  0  0  0  0
    4.5330    1.2231   -3.7279 C   0  0  0  0  0  0  0  0  0  0  0  0
    4.4922   -0.1370   -3.4348 N   0  0  0  0  0  0  0  0  0  0  0  0
    4.3732   -0.7202   -1.8593 S   0  0  1  0  0  0  0  0  0  0  0  0
    5.6242   -0.4853   -1.1359 O   0  0  0  0  0  0  0  0  0  0  0  0
    3.8494   -2.0717   -1.9882 O   0  0  0  0  0  0  0  0  0  0  0  0
    0.4185    0.3358    0.6768 H   0  0  0  0  0  0  0  0  0  0  0  0
    0.5379   -0.3208   -0.9832 H   0  0  0  0  0  0  0  0  0  0  0  0
    0.8177    1.4112   -0.6839 H   0  0  0  0  0  0  0  0  0  0  0  0
    2.8601    0.8073    0.6916 H   0  0  0  0  0  0  0  0  0  0  0  0
    2.2408   -2.0897   -0.1069 H   0  0  0  0  0  0  0  0  0  0  0  0
    2.1156   -1.3360    1.5077 H   0  0  0  0  0  0  0  0  0  0  0  0
    3.7055   -1.5267    0.7351 H   0  0  0  0  0  0  0  0  0  0  0  0
    4.4857    1.9269   -0.6880 H   0  0  0  0  0  0  0  0  0  0  0  0
    2.8233    2.4001   -1.0970 H   0  0  0  0  0  0  0  0  0  0  0  0
    3.7909    4.2868   -2.4390 H   0  0  0  0  0  0  0  0  0  0  0  0
    4.5769    5.0027   -4.6886 H   0  0  0  0  0  0  0  0  0  0  0  0
    5.3389    3.2605   -6.3508 H   0  0  0  0  0  0  0  0  0  0  0  0
    4.8279   -0.8127   -4.1148 H   0  0  0  0  0  0  0  0  0  0  0  0
  1  2  1  0
  1 17  1  0
  1 18  1  0
  1 19  1  0
  2  3  1  0
  2  4  1  0
  2 20  1  1
  3 21  1  0
  3 22  1  0
  3 23  1  0
  4  5  1  0
 14  4  1  1
  5  6  1  0
  5 24  1  0
  5 25  1  0
  6  7  1  0
  6 12  2  0
  7  8  2  0
  7 26  1  0
  8  9  1  0
  8 27  1  0
  9 10  2  0
  9 28  1  0
 10 11  1  0
 10 12  1  0
 12 13  1  0
 13 14  1  0
 13 29  1  0
 14 15  2  0
 14 16  2  0
M  END

