
     RDKit          3D

 55 57  0  0  0  0  0  0  0  0999 V2000
    3.6052   -1.3459   -0.7234 C   0  0  0  0  0  0  0  0  0  0  0  0
    3.3707   -0.0101   -0.0185 C   0  0  0  0  0  0  0  0  0  0  0  0
    3.4550    1.1337   -0.9135 N   0  0  0  0  0  0  0  0  0  0  0  0
    4.4665    2.0486   -0.8644 C   0  0  0  0  0  0  0  0  0  0  0  0
    5.3844    1.9933   -0.0616 O   0  0  0  0  0  0  0  0  0  0  0  0
    4.3432    3.1949   -1.8611 C   0  0  1  0  0  0  0  0  0  0  0  0
    3.8573    4.5541   -1.2554 C   0  0  0  0  0  0  0  0  0  0  0  0
    5.0648    5.1825   -1.7818 N   0  0  0  0  0  0  0  0  0  0  0  0
    5.6260    6.3226   -1.2420 C   0  0  0  0  0  0  0  0  0  0  0  0
    4.9956    7.0466   -0.4891 O   0  0  0  0  0  0  0  0  0  0  0  0
    6.9273    6.5447   -1.6630 N   0  0  0  0  0  0  0  0  0  0  0  0
    7.7901    7.6016   -1.3220 C   0  0  0  0  0  0  0  0  0  0  0  0
    7.4358    8.6399   -0.4420 C   0  0  0  0  0  0  0  0  0  0  0  0
    8.3704    9.6383   -0.1594 C   0  0  0  0  0  0  0  0  0  0  0  0
    9.6438    9.6370   -0.7330 C   0  0  0  0  0  0  0  0  0  0  0  0
   10.0022    8.6070   -1.6122 C   0  0  0  0  0  0  0  0  0  0  0  0
   11.3519    8.5942   -2.2969 C   0  0  0  0  0  0  0  0  0  0  0  0
   12.3128    9.2472   -1.5058 O   0  0  0  0  0  0  0  0  0  0  0  0
   13.5611    9.5228   -2.1337 C   0  0  1  0  0  0  0  0  0  0  0  0
   14.2792   10.5591   -1.2632 C   0  0  0  0  0  0  0  0  0  0  0  0
   14.6916    9.9819    0.0980 C   0  0  0  0  0  0  0  0  0  0  0  0
   15.5387    8.7121   -0.0622 C   0  0  0  0  0  0  0  0  0  0  0  0
   14.8269    7.6686   -0.9346 C   0  0  0  0  0  0  0  0  0  0  0  0
   14.4215    8.2562   -2.2930 C   0  0  0  0  0  0  0  0  0  0  0  0
    9.0763    7.5974   -1.8920 C   0  0  0  0  0  0  0  0  0  0  0  0
    5.6730    3.9130   -2.2036 C   0  0  0  0  0  0  0  0  0  0  0  0
    3.5203   -2.1789   -0.0072 H   0  0  0  0  0  0  0  0  0  0  0  0
    4.6093   -1.3822   -1.1739 H   0  0  0  0  0  0  0  0  0  0  0  0
    2.8652   -1.5182   -1.5231 H   0  0  0  0  0  0  0  0  0  0  0  0
    4.1303    0.1546    0.7585 H   0  0  0  0  0  0  0  0  0  0  0  0
    2.3843   -0.0095    0.4783 H   0  0  0  0  0  0  0  0  0  0  0  0
    2.7461    1.2369   -1.6301 H   0  0  0  0  0  0  0  0  0  0  0  0
    3.7674    2.9023   -2.7514 H   0  0  0  0  0  0  0  0  0  0  0  0
    3.8058    4.5698   -0.1538 H   0  0  0  0  0  0  0  0  0  0  0  0
    2.9147    4.9529   -1.6640 H   0  0  0  0  0  0  0  0  0  0  0  0
    7.3050    5.8863   -2.3333 H   0  0  0  0  0  0  0  0  0  0  0  0
    6.4444    8.6453    0.0045 H   0  0  0  0  0  0  0  0  0  0  0  0
    8.0906   10.4394    0.5303 H   0  0  0  0  0  0  0  0  0  0  0  0
   10.3681   10.4179   -0.4995 H   0  0  0  0  0  0  0  0  0  0  0  0
   11.2699    9.1032   -3.2832 H   0  0  0  0  0  0  0  0  0  0  0  0
   11.6416    7.5464   -2.5126 H   0  0  0  0  0  0  0  0  0  0  0  0
   13.3646    9.9572   -3.1360 H   0  0  0  0  0  0  0  0  0  0  0  0
   13.6217   11.4340   -1.1343 H   0  0  0  0  0  0  0  0  0  0  0  0
   15.1742   10.9052   -1.8104 H   0  0  0  0  0  0  0  0  0  0  0  0
   13.7804    9.7437    0.6720 H   0  0  0  0  0  0  0  0  0  0  0  0
   15.2424   10.7418    0.6774 H   0  0  0  0  0  0  0  0  0  0  0  0
   15.7774    8.2845    0.9262 H   0  0  0  0  0  0  0  0  0  0  0  0
   16.5073    8.9751   -0.5284 H   0  0  0  0  0  0  0  0  0  0  0  0
   13.9200    7.3171   -0.4131 H   0  0  0  0  0  0  0  0  0  0  0  0
   15.4700    6.7847   -1.0817 H   0  0  0  0  0  0  0  0  0  0  0  0
   13.8898    7.5048   -2.9004 H   0  0  0  0  0  0  0  0  0  0  0  0
   15.3234    8.5297   -2.8696 H   0  0  0  0  0  0  0  0  0  0  0  0
    9.3592    6.7811   -2.5662 H   0  0  0  0  0  0  0  0  0  0  0  0
    6.5000    3.5784   -1.5546 H   0  0  0  0  0  0  0  0  0  0  0  0
    5.9784    3.8734   -3.2639 H   0  0  0  0  0  0  0  0  0  0  0  0
  1  2  1  0
  1 27  1  0
  1 28  1  0
  1 29  1  0
  2  3  1  0
  2 30  1  0
  2 31  1  0
  3  4  1  0
  3 32  1  0
  4  5  2  0
  4  6  1  0
  6  7  1  0
  6 26  1  0
  6 33  1  6
  7  8  1  0
  7 34  1  0
  7 35  1  0
  8  9  1  0
  8 26  1  0
  9 10  2  0
  9 11  1  0
 11 12  1  0
 11 36  1  0
 12 13  2  0
 12 25  1  0
 13 14  1  0
 13 37  1  0
 14 15  2  0
 14 38  1  0
 15 16  1  0
 15 39  1  0
 16 17  1  0
 16 25  2  0
 17 18  1  0
 17 40  1  0
 17 41  1  0
 18 19  1  0
 19 20  1  0
 19 24  1  0
 19 42  1  6
 20 21  1  0
 20 43  1  0
 20 44  1  0
 21 22  1  0
 21 45  1  0
 21 46  1  0
 22 23  1  0
 22 47  1  0
 22 48  1  0
 23 24  1  0
 23 49  1  0
 23 50  1  0
 24 51  1  0
 24 52  1  0
 25 53  1  0
 26 54  1  0
 26 55  1  0
M  END

