
     RDKit          3D

 35 35  0  0  0  0  0  0  0  0999 V2000
    1.5181    0.2184    0.4632 C   0  0  0  0  0  0  0  0  0  0  0  0
    3.0511    0.3642    0.4103 C   0  0  1  0  0  0  0  0  0  0  0  0
    3.7787   -0.8951    0.2923 N   0  0  0  0  0  0  0  0  0  0  0  0
    3.4751   -2.0584    0.9968 C   0  0  0  0  0  0  0  0  0  0  0  0
    3.2655   -3.2542    0.2676 C   0  0  0  0  0  0  0  0  0  0  0  0
    3.0036   -4.4707    0.8888 C   0  0  0  0  0  0  0  0  0  0  0  0
    2.9107   -4.5400    2.2820 C   0  0  0  0  0  0  0  0  0  0  0  0
    3.1203   -3.3830    3.0332 C   0  0  0  0  0  0  0  0  0  0  0  0
    3.4189   -2.1672    2.4069 C   0  0  0  0  0  0  0  0  0  0  0  0
    3.9269   -0.5423    3.6988 I   0  0  0  0  0  0  0  0  0  0  0  0
    3.4403    1.2107   -0.8045 C   0  0  0  0  0  0  0  0  0  0  0  0
    3.9169    0.7457   -1.8164 O   0  0  0  0  0  0  0  0  0  0  0  0
    3.1463    2.4942   -0.5982 O   0  0  0  0  0  0  0  0  0  0  0  0
    3.3571    3.5385   -1.6179 C   0  0  1  0  0  0  0  0  0  0  0  0
    2.5066    3.2358   -2.8552 C   0  0  0  0  0  0  0  0  0  0  0  0
    2.8662    4.8037   -0.9136 C   0  0  0  0  0  0  0  0  0  0  0  0
    4.8487    3.6413   -1.9501 C   0  0  0  0  0  0  0  0  0  0  0  0
    1.2241   -0.3845    1.3348 H   0  0  0  0  0  0  0  0  0  0  0  0
    1.1407   -0.2800   -0.4441 H   0  0  0  0  0  0  0  0  0  0  0  0
    1.0424    1.2061    0.5508 H   0  0  0  0  0  0  0  0  0  0  0  0
    3.3733    0.9237    1.3015 H   0  0  0  0  0  0  0  0  0  0  0  0
    3.9781   -1.0742   -0.6900 H   0  0  0  0  0  0  0  0  0  0  0  0
    3.3047   -3.1983   -0.8242 H   0  0  0  0  0  0  0  0  0  0  0  0
    2.8529   -5.3652    0.2792 H   0  0  0  0  0  0  0  0  0  0  0  0
    2.6903   -5.4842    2.7849 H   0  0  0  0  0  0  0  0  0  0  0  0
    3.0785   -3.4277    4.1230 H   0  0  0  0  0  0  0  0  0  0  0  0
    1.4478    3.1189   -2.5759 H   0  0  0  0  0  0  0  0  0  0  0  0
    2.8446    2.3212   -3.3586 H   0  0  0  0  0  0  0  0  0  0  0  0
    2.5795    4.0744   -3.5650 H   0  0  0  0  0  0  0  0  0  0  0  0
    1.8057    4.7077   -0.6361 H   0  0  0  0  0  0  0  0  0  0  0  0
    2.9758    5.6746   -1.5774 H   0  0  0  0  0  0  0  0  0  0  0  0
    3.4473    4.9872    0.0026 H   0  0  0  0  0  0  0  0  0  0  0  0
    5.2117    2.7309   -2.4437 H   0  0  0  0  0  0  0  0  0  0  0  0
    5.4359    3.8069   -1.0335 H   0  0  0  0  0  0  0  0  0  0  0  0
    5.0174    4.4972   -2.6219 H   0  0  0  0  0  0  0  0  0  0  0  0
  1  2  1  0
  1 18  1  0
  1 19  1  0
  1 20  1  0
  2  3  1  0
  2 11  1  0
  2 21  1  1
  3  4  1  0
  3 22  1  0
  4  5  2  0
  4  9  1  0
  5  6  1  0
  5 23  1  0
  6  7  2  0
  6 24  1  0
  7  8  1  0
  7 25  1  0
  8  9  2  0
  8 26  1  0
  9 10  1  0
 11 12  2  0
 11 13  1  0
 14 13  1  1
 14 15  1  0
 14 16  1  0
 14 17  1  0
 15 27  1  0
 15 28  1  0
 15 29  1  0
 16 30  1  0
 16 31  1  0
 16 32  1  0
 17 33  1  0
 17 34  1  0
 17 35  1  0
M  END

