
     RDKit          3D

 71 72  0  0  0  0  0  0  0  0999 V2000
    7.7636   -3.0689    3.7351 C   0  0  0  0  0  0  0  0  0  0  0  0
    7.8233   -2.9598    2.2401 C   0  0  0  0  0  0  0  0  0  0  0  0
    8.8733   -2.6132    1.4534 C   0  0  0  0  0  0  0  0  0  0  0  0
   10.2256   -2.2529    2.0268 C   0  0  0  0  0  0  0  0  0  0  0  0
    8.7347   -2.5585   -0.0186 C   0  0  0  0  0  0  0  0  0  0  0  0
    9.7515   -2.1437   -0.8300 C   0  0  0  0  0  0  0  0  0  0  0  0
    9.7535   -2.1321   -2.2044 N   0  0  0  0  0  0  0  0  0  0  0  0
   10.6789   -1.3161   -2.9566 C   0  0  0  0  0  0  0  0  0  0  0  0
    7.4473   -2.9760   -0.6576 C   0  0  0  0  0  0  0  0  0  0  0  0
    6.5269   -2.0243   -1.1342 C   0  0  0  0  0  0  0  0  0  0  0  0
    5.3802   -2.3385   -1.7418 N   0  0  0  0  0  0  0  0  0  0  0  0
    5.0814   -3.6265   -1.8950 C   0  0  0  0  0  0  0  0  0  0  0  0
    5.8986   -4.6857   -1.4503 C   0  0  0  0  0  0  0  0  0  0  0  0
    5.5065   -6.1031   -1.6445 C   0  0  0  0  0  0  0  0  0  0  0  0
    6.4586   -7.1023   -1.9185 C   0  0  0  0  0  0  0  0  0  0  0  0
    6.0997   -8.4366   -2.0757 C   0  0  0  0  0  0  0  0  0  0  0  0
    4.7535   -8.8394   -1.9605 C   0  0  0  0  0  0  0  0  0  0  0  0
    4.3704  -10.1765   -2.0690 N   0  0  0  0  0  0  0  0  0  0  0  0
    5.1483  -11.2778   -2.3153 C   0  0  0  0  0  0  0  0  0  0  0  0
    6.3428  -11.2788   -2.5593 O   0  0  0  0  0  0  0  0  0  0  0  0
    4.3555  -12.5976   -2.2977 C   0  0  0  0  0  0  0  0  0  0  0  0
    2.9948  -12.4923   -1.8046 N   0  0  0  0  0  0  0  0  0  0  0  0
    2.6638  -12.9583   -0.4355 C   0  0  1  0  0  0  0  0  0  0  0  0
    3.5078  -12.1866    0.5925 C   0  0  0  0  0  0  0  0  0  0  0  0
    1.1783  -12.6268   -0.2212 C   0  0  0  0  0  0  0  0  0  0  0  0
    2.8887  -14.4771   -0.2774 C   0  0  0  0  0  0  0  0  0  0  0  0
    3.7680   -7.8406   -1.7317 C   0  0  0  0  0  0  0  0  0  0  0  0
    2.3239   -8.2192   -1.5376 C   0  0  0  0  0  0  0  0  0  0  0  0
    2.0225   -9.1762   -0.8231 O   0  0  0  0  0  0  0  0  0  0  0  0
    1.3596   -7.4475   -2.1378 N   0  0  0  0  0  0  0  0  0  0  0  0
    1.5699   -6.5759   -3.2825 C   0  0  0  0  0  0  0  0  0  0  0  0
   -0.0323   -7.6925   -1.7940 C   0  0  0  0  0  0  0  0  0  0  0  0
    4.1651   -6.5070   -1.5649 C   0  0  0  0  0  0  0  0  0  0  0  0
    7.1051   -4.3253   -0.8275 C   0  0  0  0  0  0  0  0  0  0  0  0
    7.4401   -4.0798    4.0435 H   0  0  0  0  0  0  0  0  0  0  0  0
    7.0138   -2.3714    4.1519 H   0  0  0  0  0  0  0  0  0  0  0  0
    8.7193   -2.8614    4.2361 H   0  0  0  0  0  0  0  0  0  0  0  0
    6.8777   -3.1917    1.7396 H   0  0  0  0  0  0  0  0  0  0  0  0
   10.2529   -2.3438    3.1191 H   0  0  0  0  0  0  0  0  0  0  0  0
   10.5020   -1.2137    1.7783 H   0  0  0  0  0  0  0  0  0  0  0  0
   11.0197   -2.9012    1.6193 H   0  0  0  0  0  0  0  0  0  0  0  0
   10.6999   -1.8172   -0.3957 H   0  0  0  0  0  0  0  0  0  0  0  0
    8.8647   -2.3265   -2.6534 H   0  0  0  0  0  0  0  0  0  0  0  0
   11.6916   -1.4068   -2.5314 H   0  0  0  0  0  0  0  0  0  0  0  0
   10.4183   -0.2377   -2.9721 H   0  0  0  0  0  0  0  0  0  0  0  0
   10.7281   -1.6673   -3.9987 H   0  0  0  0  0  0  0  0  0  0  0  0
    6.7436   -0.9565   -1.0082 H   0  0  0  0  0  0  0  0  0  0  0  0
    4.1453   -3.8472   -2.4218 H   0  0  0  0  0  0  0  0  0  0  0  0
    7.5117   -6.8306   -2.0238 H   0  0  0  0  0  0  0  0  0  0  0  0
    6.8489   -9.1960   -2.2872 H   0  0  0  0  0  0  0  0  0  0  0  0
    3.4039  -10.4178   -1.8252 H   0  0  0  0  0  0  0  0  0  0  0  0
    4.9866  -13.3189   -1.7487 H   0  0  0  0  0  0  0  0  0  0  0  0
    4.3560  -12.9518   -3.3425 H   0  0  0  0  0  0  0  0  0  0  0  0
    2.3358  -12.8949   -2.4656 H   0  0  0  0  0  0  0  0  0  0  0  0
    3.3208  -11.1060    0.5128 H   0  0  0  0  0  0  0  0  0  0  0  0
    4.5864  -12.3701    0.4614 H   0  0  0  0  0  0  0  0  0  0  0  0
    3.2455  -12.5098    1.6120 H   0  0  0  0  0  0  0  0  0  0  0  0
    1.0125  -11.5454   -0.3336 H   0  0  0  0  0  0  0  0  0  0  0  0
    0.8485  -12.9370    0.7826 H   0  0  0  0  0  0  0  0  0  0  0  0
    0.5470  -13.1573   -0.9554 H   0  0  0  0  0  0  0  0  0  0  0  0
    3.9442  -14.7528   -0.4320 H   0  0  0  0  0  0  0  0  0  0  0  0
    2.2803  -15.0412   -1.0043 H   0  0  0  0  0  0  0  0  0  0  0  0
    2.6059  -14.8165    0.7321 H   0  0  0  0  0  0  0  0  0  0  0  0
    2.6053   -6.6305   -3.6345 H   0  0  0  0  0  0  0  0  0  0  0  0
    1.3331   -5.5239   -3.0430 H   0  0  0  0  0  0  0  0  0  0  0  0
    0.9096   -6.8875   -4.1115 H   0  0  0  0  0  0  0  0  0  0  0  0
   -0.0840   -8.2157   -0.8328 H   0  0  0  0  0  0  0  0  0  0  0  0
   -0.5353   -8.3150   -2.5571 H   0  0  0  0  0  0  0  0  0  0  0  0
   -0.5701   -6.7328   -1.7246 H   0  0  0  0  0  0  0  0  0  0  0  0
    3.4000   -5.7663   -1.3249 H   0  0  0  0  0  0  0  0  0  0  0  0
    7.7797   -5.0964   -0.4473 H   0  0  0  0  0  0  0  0  0  0  0  0
  1  2  1  0
  1 35  1  0
  1 36  1  0
  1 37  1  0
  2  3  2  0
  2 38  1  0
  3  4  1  0
  3  5  1  0
  4 39  1  0
  4 40  1  0
  4 41  1  0
  5  6  2  0
  5  9  1  0
  6  7  1  0
  6 42  1  0
  7  8  1  0
  7 43  1  0
  8 44  1  0
  8 45  1  0
  8 46  1  0
  9 10  2  0
  9 34  1  0
 10 11  1  0
 10 47  1  0
 11 12  2  0
 12 13  1  0
 12 48  1  0
 13 14  1  0
 13 34  2  0
 14 15  2  0
 14 33  1  0
 15 16  1  0
 15 49  1  0
 16 17  2  0
 16 50  1  0
 17 18  1  0
 17 27  1  0
 18 19  1  0
 18 51  1  0
 19 20  2  0
 19 21  1  0
 21 22  1  0
 21 52  1  0
 21 53  1  0
 23 22  1  6
 22 54  1  0
 23 24  1  0
 23 25  1  0
 23 26  1  0
 24 55  1  0
 24 56  1  0
 24 57  1  0
 25 58  1  0
 25 59  1  0
 25 60  1  0
 26 61  1  0
 26 62  1  0
 26 63  1  0
 27 28  1  0
 27 33  2  0
 28 29  2  0
 28 30  1  0
 30 31  1  0
 30 32  1  0
 31 64  1  0
 31 65  1  0
 31 66  1  0
 32 67  1  0
 32 68  1  0
 32 69  1  0
 33 70  1  0
 34 71  1  0
M  END

