
     RDKit          3D

 49 50  0  0  0  0  0  0  0  0999 V2000
   -0.5432   -1.1121    1.3315 C   0  0  0  0  0  0  0  0  0  0  0  0
    0.7911   -0.6862    0.7049 C   0  0  1  0  0  0  0  0  0  0  0  0
    1.6759   -0.0149    1.7685 C   0  0  0  0  0  0  0  0  0  0  0  0
    1.4503   -1.8856    0.1370 N   0  0  0  0  0  0  0  0  0  0  0  0
    0.5597    0.2945   -0.5056 C   0  0  2  0  0  0  0  0  0  0  0  0
    1.5327    0.3976   -1.0156 H   0  0  0  0  0  0  0  0  0  0  0  0
    0.1181    1.6167   -0.1231 N   0  0  0  0  0  0  0  0  0  0  0  0
    1.0037    2.6674   -0.0711 C   0  0  0  0  0  0  0  0  0  0  0  0
    2.2137    2.5039   -0.1628 O   0  0  0  0  0  0  0  0  0  0  0  0
    0.4049    4.0314    0.1212 C   0  0  0  0  0  0  0  0  0  0  0  0
   -0.9243    4.2529    0.5211 C   0  0  0  0  0  0  0  0  0  0  0  0
   -1.4125    5.5458    0.6867 C   0  0  0  0  0  0  0  0  0  0  0  0
   -0.5818    6.6657    0.4571 C   0  0  0  0  0  0  0  0  0  0  0  0
   -1.0799    7.9904    0.6220 C   0  0  0  0  0  0  0  0  0  0  0  0
   -1.5062    9.1266    0.7622 C   0  0  0  0  0  0  0  0  0  0  0  0
   -2.0028   10.4516    0.9247 C   0  0  0  0  0  0  0  0  0  0  0  0
   -3.3411   10.6904    1.3108 C   0  0  0  0  0  0  0  0  0  0  0  0
   -3.8275   11.9815    1.4676 C   0  0  0  0  0  0  0  0  0  0  0  0
   -2.9965   13.1018    1.2457 C   0  0  0  0  0  0  0  0  0  0  0  0
   -3.4658   14.3839    1.4419 N   0  0  0  0  0  0  0  0  0  0  0  0
   -1.6582   12.8686    0.8594 C   0  0  0  0  0  0  0  0  0  0  0  0
   -1.1756   11.5760    0.7036 C   0  0  0  0  0  0  0  0  0  0  0  0
    0.7577    6.4364    0.0652 C   0  0  0  0  0  0  0  0  0  0  0  0
    1.2385    5.1421   -0.0922 C   0  0  0  0  0  0  0  0  0  0  0  0
   -0.4803   -0.2539   -1.4950 C   0  0  0  0  0  0  0  0  0  0  0  0
   -1.5257    0.3461   -1.7607 O   0  0  0  0  0  0  0  0  0  0  0  0
   -0.1883   -1.4377   -2.0644 N   0  0  0  0  0  0  0  0  0  0  0  0
   -1.2033   -2.0508   -2.7862 O   0  0  0  0  0  0  0  0  0  0  0  0
   -0.3697   -1.7296    2.2281 H   0  0  0  0  0  0  0  0  0  0  0  0
   -1.1590   -1.6971    0.6314 H   0  0  0  0  0  0  0  0  0  0  0  0
   -1.1185   -0.2273    1.6416 H   0  0  0  0  0  0  0  0  0  0  0  0
    1.9184   -0.7435    2.5597 H   0  0  0  0  0  0  0  0  0  0  0  0
    1.1654    0.8380    2.2388 H   0  0  0  0  0  0  0  0  0  0  0  0
    2.6108    0.3630    1.3292 H   0  0  0  0  0  0  0  0  0  0  0  0
    1.4564   -2.6399    0.8251 H   0  0  0  0  0  0  0  0  0  0  0  0
    2.4313   -1.6782   -0.0640 H   0  0  0  0  0  0  0  0  0  0  0  0
   -0.8443    1.8079   -0.3982 H   0  0  0  0  0  0  0  0  0  0  0  0
   -1.5883    3.4114    0.7310 H   0  0  0  0  0  0  0  0  0  0  0  0
   -2.4453    5.7049    1.0025 H   0  0  0  0  0  0  0  0  0  0  0  0
   -4.0030    9.8396    1.4863 H   0  0  0  0  0  0  0  0  0  0  0  0
   -4.8674   12.1360    1.7694 H   0  0  0  0  0  0  0  0  0  0  0  0
   -4.4684   14.5232    1.4575 H   0  0  0  0  0  0  0  0  0  0  0  0
   -2.9432   15.1468    1.0300 H   0  0  0  0  0  0  0  0  0  0  0  0
   -0.9943   13.7198    0.6835 H   0  0  0  0  0  0  0  0  0  0  0  0
   -0.1373   11.4204    0.4026 H   0  0  0  0  0  0  0  0  0  0  0  0
    1.4132    7.2916   -0.1109 H   0  0  0  0  0  0  0  0  0  0  0  0
    2.2736    4.9585   -0.3856 H   0  0  0  0  0  0  0  0  0  0  0  0
    0.4373   -2.0713   -1.5450 H   0  0  0  0  0  0  0  0  0  0  0  0
   -1.8920   -1.3522   -2.7903 H   0  0  0  0  0  0  0  0  0  0  0  0
  1  2  1  0
  1 29  1  0
  1 30  1  0
  1 31  1  0
  2  3  1  0
  2  4  1  6
  2  5  1  0
  3 32  1  0
  3 33  1  0
  3 34  1  0
  4 35  1  0
  4 36  1  0
  5  6  1  6
  5  7  1  0
  5 25  1  0
  7  8  1  0
  7 37  1  0
  8  9  2  0
  8 10  1  0
 10 11  2  0
 10 24  1  0
 11 12  1  0
 11 38  1  0
 12 13  2  0
 12 39  1  0
 13 14  1  0
 13 23  1  0
 14 15  3  0
 15 16  1  0
 16 17  2  0
 16 22  1  0
 17 18  1  0
 17 40  1  0
 18 19  2  0
 18 41  1  0
 19 20  1  0
 19 21  1  0
 20 42  1  0
 20 43  1  0
 21 22  2  0
 21 44  1  0
 22 45  1  0
 23 24  2  0
 23 46  1  0
 24 47  1  0
 25 26  2  0
 25 27  1  0
 27 28  1  0
 27 48  1  0
 28 49  1  0
M  END

