
     RDKit          3D

 35 36  0  0  0  0  0  0  0  0999 V2000
    0.6813    0.3559   -0.2067 C   0  0  0  0  0  0  0  0  0  0  0  0
    2.1458    0.1245    0.1406 C   0  0  1  0  0  0  0  0  0  0  0  0
    2.9807    0.2129   -1.0229 O   0  0  0  0  0  0  0  0  0  0  0  0
    3.4094   -0.8682   -1.6936 C   0  0  0  0  0  0  0  0  0  0  0  0
    2.8078   -2.1366   -1.6574 C   0  0  0  0  0  0  0  0  0  0  0  0
    3.3305   -3.1629   -2.4441 C   0  0  0  0  0  0  0  0  0  0  0  0
    4.4332   -2.9029   -3.2646 C   0  0  0  0  0  0  0  0  0  0  0  0
    5.0030   -1.6999   -3.3119 N   0  0  0  0  0  0  0  0  0  0  0  0
    4.5247   -0.7416   -2.5527 C   0  0  0  0  0  0  0  0  0  0  0  0
    5.2598    0.5547   -2.6468 N   0  0  0  0  0  0  0  0  0  0  0  0
    5.4737    1.1522   -1.5949 O   0  0  0  0  0  0  0  0  0  0  0  0
    5.6254    0.9106   -3.7408 O   0  0  0  0  0  0  0  0  0  0  0  0
    2.6355    1.1517    1.1874 C   0  0  0  0  0  0  0  0  0  0  0  0
    1.9706    1.3233    2.1927 O   0  0  0  0  0  0  0  0  0  0  0  0
    3.8134    1.7705    0.8806 N   0  0  0  0  0  0  0  0  0  0  0  0
    4.5037    2.7371    1.6265 C   0  0  0  0  0  0  0  0  0  0  0  0
    4.0786    3.1907    2.8902 C   0  0  0  0  0  0  0  0  0  0  0  0
    4.8292    4.1515    3.5582 C   0  0  0  0  0  0  0  0  0  0  0  0
    6.0084    4.6886    3.0070 C   0  0  0  0  0  0  0  0  0  0  0  0
    6.7541    5.6760    3.7291 C   0  0  0  0  0  0  0  0  0  0  0  0
    7.3280    6.4736    4.3481 N   0  0  0  0  0  0  0  0  0  0  0  0
    6.4187    4.2241    1.7383 C   0  0  0  0  0  0  0  0  0  0  0  0
    7.8653    4.8524    1.0039 Cl  0  0  0  0  0  0  0  0  0  0  0  0
    5.6785    3.2641    1.0564 C   0  0  0  0  0  0  0  0  0  0  0  0
    0.2933   -0.4422   -0.8568 H   0  0  0  0  0  0  0  0  0  0  0  0
    0.5629    1.3187   -0.7263 H   0  0  0  0  0  0  0  0  0  0  0  0
    0.0945    0.3826    0.7213 H   0  0  0  0  0  0  0  0  0  0  0  0
    2.2802   -0.8650    0.6120 H   0  0  0  0  0  0  0  0  0  0  0  0
    1.9307   -2.3141   -1.0341 H   0  0  0  0  0  0  0  0  0  0  0  0
    2.8751   -4.1554   -2.4280 H   0  0  0  0  0  0  0  0  0  0  0  0
    4.8658   -3.6828   -3.8986 H   0  0  0  0  0  0  0  0  0  0  0  0
    4.2406    1.5025   -0.0075 H   0  0  0  0  0  0  0  0  0  0  0  0
    3.1696    2.7873    3.3288 H   0  0  0  0  0  0  0  0  0  0  0  0
    4.5023    4.5046    4.5381 H   0  0  0  0  0  0  0  0  0  0  0  0
    6.0145    2.9247    0.0753 H   0  0  0  0  0  0  0  0  0  0  0  0
  1  2  1  0
  1 25  1  0
  1 26  1  0
  1 27  1  0
  2  3  1  0
  2 13  1  0
  2 28  1  1
  3  4  1  0
  4  5  2  0
  4  9  1  0
  5  6  1  0
  5 29  1  0
  6  7  2  0
  6 30  1  0
  7  8  1  0
  7 31  1  0
  8  9  2  0
  9 10  1  0
 10 11  2  0
 10 12  1  0
 13 14  2  0
 13 15  1  0
 15 16  1  0
 15 32  1  0
 16 17  2  0
 16 24  1  0
 17 18  1  0
 17 33  1  0
 18 19  2  0
 18 34  1  0
 19 20  1  0
 19 22  1  0
 20 21  3  0
 22 23  1  0
 22 24  2  0
 24 35  1  0
M  CHG  2  10   1  12  -1
M  END

