
     RDKit          3D

 38 39  0  0  0  0  0  0  0  0999 V2000
    4.2273   -1.1890    2.2780 C   0  0  0  0  0  0  0  0  0  0  0  0
    3.6239   -0.1529    1.3603 C   0  0  0  0  0  0  0  0  0  0  0  0
    4.4017    0.9052    0.8754 C   0  0  0  0  0  0  0  0  0  0  0  0
    3.8557    1.8823    0.0404 C   0  0  0  0  0  0  0  0  0  0  0  0
    2.5124    1.8195   -0.3265 C   0  0  0  0  0  0  0  0  0  0  0  0
    1.7280    0.7614    0.1465 C   0  0  0  0  0  0  0  0  0  0  0  0
   -0.3346    0.7663   -0.4280 I   0  0  0  0  0  0  0  0  0  0  0  0
    2.2599   -0.2322    0.9808 C   0  0  0  0  0  0  0  0  0  0  0  0
    1.4368   -1.3720    1.5551 C   0  0  0  0  0  0  0  0  0  0  0  0
    1.1647   -1.4266    2.7429 O   0  0  0  0  0  0  0  0  0  0  0  0
    1.1049   -2.3497    0.6626 N   0  0  0  0  0  0  0  0  0  0  0  0
    0.3027   -3.5031    1.0338 C   0  0  0  0  0  0  0  0  0  0  0  0
   -1.1890   -3.3537    0.7118 C   0  0  0  0  0  0  0  0  0  0  0  0
   -2.0035   -4.5896    1.1321 C   0  0  0  0  0  0  0  0  0  0  0  0
   -3.4796   -4.4639    0.8244 C   0  0  0  0  0  0  0  0  0  0  0  0
   -4.3542   -3.8400    1.7299 C   0  0  0  0  0  0  0  0  0  0  0  0
   -5.7102   -3.6906    1.4270 C   0  0  0  0  0  0  0  0  0  0  0  0
   -6.2253   -4.1595    0.2152 C   0  0  0  0  0  0  0  0  0  0  0  0
   -5.3510   -4.7769   -0.6755 C   0  0  0  0  0  0  0  0  0  0  0  0
   -5.8260   -5.2390   -1.8434 F   0  0  0  0  0  0  0  0  0  0  0  0
   -3.9965   -4.9348   -0.3920 C   0  0  0  0  0  0  0  0  0  0  0  0
    5.3000   -1.0041    2.4309 H   0  0  0  0  0  0  0  0  0  0  0  0
    4.1102   -2.2047    1.8656 H   0  0  0  0  0  0  0  0  0  0  0  0
    3.7209   -1.1857    3.2546 H   0  0  0  0  0  0  0  0  0  0  0  0
    5.4548    0.9643    1.1620 H   0  0  0  0  0  0  0  0  0  0  0  0
    4.4778    2.7034   -0.3250 H   0  0  0  0  0  0  0  0  0  0  0  0
    2.0770    2.5856   -0.9695 H   0  0  0  0  0  0  0  0  0  0  0  0
    1.2990   -2.1849   -0.3186 H   0  0  0  0  0  0  0  0  0  0  0  0
    0.4380   -3.6435    2.1163 H   0  0  0  0  0  0  0  0  0  0  0  0
    0.7125   -4.3953    0.5288 H   0  0  0  0  0  0  0  0  0  0  0  0
   -1.3225   -3.1746   -0.3696 H   0  0  0  0  0  0  0  0  0  0  0  0
   -1.5774   -2.4588    1.2246 H   0  0  0  0  0  0  0  0  0  0  0  0
   -1.8679   -4.7565    2.2143 H   0  0  0  0  0  0  0  0  0  0  0  0
   -1.5979   -5.4827    0.6261 H   0  0  0  0  0  0  0  0  0  0  0  0
   -3.9682   -3.4715    2.6841 H   0  0  0  0  0  0  0  0  0  0  0  0
   -6.3779   -3.2062    2.1439 H   0  0  0  0  0  0  0  0  0  0  0  0
   -7.2806   -4.0596   -0.0455 H   0  0  0  0  0  0  0  0  0  0  0  0
   -3.3589   -5.4323   -1.1268 H   0  0  0  0  0  0  0  0  0  0  0  0
  1  2  1  0
  1 22  1  0
  1 23  1  0
  1 24  1  0
  2  3  2  0
  2  8  1  0
  3  4  1  0
  3 25  1  0
  4  5  2  0
  4 26  1  0
  5  6  1  0
  5 27  1  0
  6  7  1  0
  6  8  2  0
  8  9  1  0
  9 10  2  0
  9 11  1  0
 11 12  1  0
 11 28  1  0
 12 13  1  0
 12 29  1  0
 12 30  1  0
 13 14  1  0
 13 31  1  0
 13 32  1  0
 14 15  1  0
 14 33  1  0
 14 34  1  0
 15 16  2  0
 15 21  1  0
 16 17  1  0
 16 35  1  0
 17 18  2  0
 17 36  1  0
 18 19  1  0
 18 37  1  0
 19 20  1  0
 19 21  2  0
 21 38  1  0
M  END

