
     RDKit          3D

 51 54  0  0  0  0  0  0  0  0999 V2000
    3.9157   -0.7285    1.3796 C   0  0  0  0  0  0  0  0  0  0  0  0
    3.0428   -0.3724    0.1719 C   0  0  1  0  0  0  0  0  0  0  0  0
    1.6281   -0.9442    0.3129 C   0  0  0  0  0  0  0  0  0  0  0  0
    2.9873    1.1650   -0.0914 C   0  0  1  0  0  0  0  0  0  0  0  0
    2.4658    1.9134    1.0404 N   0  0  0  0  0  0  0  0  0  0  0  0
    1.2500    2.5739    0.9088 C   0  0  0  0  0  0  0  0  0  0  0  0
    0.5199    2.3832   -0.0592 O   0  0  0  0  0  0  0  0  0  0  0  0
    0.9022    3.4212    1.9391 N   0  0  0  0  0  0  0  0  0  0  0  0
    1.6826    3.7077    3.1376 C   0  0  0  0  0  0  0  0  0  0  0  0
    2.1471    5.1703    3.1492 C   0  0  0  0  0  0  0  0  0  0  0  0
    0.9696    6.1627    2.9711 C   0  0  2  0  0  0  0  0  0  0  0  0
    0.1647    6.3394    4.2367 C   0  0  0  0  0  0  0  0  0  0  0  0
   -0.4350    5.3961    4.9078 N   0  0  0  0  0  0  0  0  0  0  0  0
   -1.0947    5.8858    6.0052 C   0  0  0  0  0  0  0  0  0  0  0  0
   -1.0105    7.2396    6.1950 C   0  0  0  0  0  0  0  0  0  0  0  0
   -0.0537    7.9398    4.9365 S   0  0  0  0  0  0  0  0  0  0  0  0
    0.0885    5.7341    1.7674 C   0  0  0  0  0  0  0  0  0  0  0  0
   -0.2928    4.2491    1.8053 C   0  0  0  0  0  0  0  0  0  0  0  0
    4.3295    1.7360   -0.4617 C   0  0  0  0  0  0  0  0  0  0  0  0
    5.1057    2.4345    0.3433 N   0  0  0  0  0  0  0  0  0  0  0  0
    6.2523    2.7732   -0.2948 N   0  0  0  0  0  0  0  0  0  0  0  0
    6.1788    2.2710   -1.5168 C   0  0  0  0  0  0  0  0  0  0  0  0
    7.0812    2.3182   -2.6145 C   0  0  0  0  0  0  0  0  0  0  0  0
    6.7269    1.7101   -3.7919 C   0  0  0  0  0  0  0  0  0  0  0  0
    5.4652    1.0411   -3.9168 C   0  0  0  0  0  0  0  0  0  0  0  0
    4.5983    0.9906   -2.8633 C   0  0  0  0  0  0  0  0  0  0  0  0
    4.9593    1.5927   -1.6763 N   0  0  0  0  0  0  0  0  0  0  0  0
    3.9745   -1.8210    1.5077 H   0  0  0  0  0  0  0  0  0  0  0  0
    3.4874   -0.3061    2.3027 H   0  0  0  0  0  0  0  0  0  0  0  0
    4.9424   -0.3433    1.2797 H   0  0  0  0  0  0  0  0  0  0  0  0
    3.5033   -0.8235   -0.7278 H   0  0  0  0  0  0  0  0  0  0  0  0
    1.1263   -0.5242    1.1985 H   0  0  0  0  0  0  0  0  0  0  0  0
    1.6602   -2.0393    0.4295 H   0  0  0  0  0  0  0  0  0  0  0  0
    1.0017   -0.7070   -0.5608 H   0  0  0  0  0  0  0  0  0  0  0  0
    2.2842    1.3311   -0.9247 H   0  0  0  0  0  0  0  0  0  0  0  0
    3.1912    2.3426    1.6059 H   0  0  0  0  0  0  0  0  0  0  0  0
    2.5410    3.0293    3.2173 H   0  0  0  0  0  0  0  0  0  0  0  0
    1.0498    3.5207    4.0213 H   0  0  0  0  0  0  0  0  0  0  0  0
    2.8568    5.3243    2.3184 H   0  0  0  0  0  0  0  0  0  0  0  0
    2.6882    5.3868    4.0845 H   0  0  0  0  0  0  0  0  0  0  0  0
    1.3980    7.1502    2.7357 H   0  0  0  0  0  0  0  0  0  0  0  0
   -1.6394    5.2003    6.6573 H   0  0  0  0  0  0  0  0  0  0  0  0
   -1.4480    7.8423    6.9887 H   0  0  0  0  0  0  0  0  0  0  0  0
    0.6579    5.9278    0.8421 H   0  0  0  0  0  0  0  0  0  0  0  0
   -0.8200    6.3569    1.7253 H   0  0  0  0  0  0  0  0  0  0  0  0
   -0.8031    3.9517    0.8818 H   0  0  0  0  0  0  0  0  0  0  0  0
   -0.9662    4.0547    2.6572 H   0  0  0  0  0  0  0  0  0  0  0  0
    8.0282    2.8421   -2.4812 H   0  0  0  0  0  0  0  0  0  0  0  0
    7.4044    1.7340   -4.6480 H   0  0  0  0  0  0  0  0  0  0  0  0
    5.1826    0.5671   -4.8579 H   0  0  0  0  0  0  0  0  0  0  0  0
    3.6225    0.5057   -2.8955 H   0  0  0  0  0  0  0  0  0  0  0  0
  1  2  1  0
  1 28  1  0
  1 29  1  0
  1 30  1  0
  2  3  1  0
  2  4  1  0
  2 31  1  6
  3 32  1  0
  3 33  1  0
  3 34  1  0
  4  5  1  0
  4 19  1  0
  4 35  1  6
  5  6  1  0
  5 36  1  0
  6  7  2  0
  6  8  1  0
  8  9  1  0
  8 18  1  0
  9 10  1  0
  9 37  1  0
  9 38  1  0
 10 11  1  0
 10 39  1  0
 10 40  1  0
 11 12  1  0
 11 17  1  0
 11 41  1  6
 12 13  2  0
 12 16  1  0
 13 14  1  0
 14 15  2  0
 14 42  1  0
 15 16  1  0
 15 43  1  0
 17 18  1  0
 17 44  1  0
 17 45  1  0
 18 46  1  0
 18 47  1  0
 19 20  2  0
 19 27  1  0
 20 21  1  0
 21 22  2  0
 22 23  1  0
 22 27  1  0
 23 24  2  0
 23 48  1  0
 24 25  1  0
 24 49  1  0
 25 26  2  0
 25 50  1  0
 26 27  1  0
 26 51  1  0
M  END

