
     RDKit          3D

 35 36  0  0  0  0  0  0  0  0999 V2000
    1.4113   -0.0783    1.6693 C   0  0  0  0  0  0  0  0  0  0  0  0
    2.6930   -0.0842    0.8728 C   0  0  0  0  0  0  0  0  0  0  0  0
    3.2416    1.0953    0.3569 C   0  0  0  0  0  0  0  0  0  0  0  0
    4.4084    1.0663   -0.4113 C   0  0  0  0  0  0  0  0  0  0  0  0
    5.0747   -0.1318   -0.6956 C   0  0  0  0  0  0  0  0  0  0  0  0
    6.3342   -0.1266   -1.5284 C   0  0  0  0  0  0  0  0  0  0  0  0
    4.5265   -1.3318   -0.1823 C   0  0  0  0  0  0  0  0  0  0  0  0
    5.2757   -2.6493   -0.3752 C   0  0  1  0  0  0  0  0  0  0  0  0
    6.3387   -2.7483    0.5668 O   0  0  0  0  0  0  0  0  0  0  0  0
    4.3767   -3.8945   -0.3637 C   0  0  0  0  0  0  0  0  0  0  0  0
    4.5876   -4.8795    0.6097 C   0  0  0  0  0  0  0  0  0  0  0  0
    3.7656   -6.0063    0.6984 C   0  0  0  0  0  0  0  0  0  0  0  0
    2.6958   -6.1627   -0.1846 C   0  0  0  0  0  0  0  0  0  0  0  0
    2.4700   -5.1934   -1.1617 C   0  0  0  0  0  0  0  0  0  0  0  0
    3.3131   -4.0776   -1.2811 C   0  0  0  0  0  0  0  0  0  0  0  0
    2.9687   -3.1151   -2.3909 C   0  0  0  0  0  0  0  0  0  0  0  0
    1.8505   -2.7529   -2.6332 O   0  0  0  0  0  0  0  0  0  0  0  0
    4.0035   -2.7011   -3.1677 O   0  0  0  0  0  0  0  0  0  0  0  0
    3.3590   -1.2871    0.5906 C   0  0  0  0  0  0  0  0  0  0  0  0
    1.2192    0.9069    2.1205 H   0  0  0  0  0  0  0  0  0  0  0  0
    1.4317   -0.8266    2.4772 H   0  0  0  0  0  0  0  0  0  0  0  0
    0.5474   -0.3207    1.0260 H   0  0  0  0  0  0  0  0  0  0  0  0
    2.7513    2.0529    0.5547 H   0  0  0  0  0  0  0  0  0  0  0  0
    4.8150    2.0038   -0.8010 H   0  0  0  0  0  0  0  0  0  0  0  0
    6.6637    0.9009   -1.7393 H   0  0  0  0  0  0  0  0  0  0  0  0
    6.1679   -0.6246   -2.4995 H   0  0  0  0  0  0  0  0  0  0  0  0
    7.1564   -0.6549   -1.0212 H   0  0  0  0  0  0  0  0  0  0  0  0
    5.7890   -2.6113   -1.3483 H   0  0  0  0  0  0  0  0  0  0  0  0
    6.0368   -2.3390    1.3896 H   0  0  0  0  0  0  0  0  0  0  0  0
    5.4201   -4.7491    1.3017 H   0  0  0  0  0  0  0  0  0  0  0  0
    3.9608   -6.7593    1.4664 H   0  0  0  0  0  0  0  0  0  0  0  0
    2.0391   -7.0331   -0.1141 H   0  0  0  0  0  0  0  0  0  0  0  0
    1.6324   -5.2880   -1.8560 H   0  0  0  0  0  0  0  0  0  0  0  0
    4.8002   -3.2066   -2.9529 H   0  0  0  0  0  0  0  0  0  0  0  0
    2.9424   -2.2200    0.9795 H   0  0  0  0  0  0  0  0  0  0  0  0
  1  2  1  0
  1 20  1  0
  1 21  1  0
  1 22  1  0
  2  3  2  0
  2 19  1  0
  3  4  1  0
  3 23  1  0
  4  5  2  0
  4 24  1  0
  5  6  1  0
  5  7  1  0
  6 25  1  0
  6 26  1  0
  6 27  1  0
  7  8  1  0
  7 19  2  0
  8  9  1  0
  8 10  1  0
  8 28  1  6
  9 29  1  0
 10 11  2  0
 10 15  1  0
 11 12  1  0
 11 30  1  0
 12 13  2  0
 12 31  1  0
 13 14  1  0
 13 32  1  0
 14 15  2  0
 14 33  1  0
 15 16  1  0
 16 17  2  0
 16 18  1  0
 18 34  1  0
 19 35  1  0
M  END

