
     RDKit          3D

 35 35  0  0  0  0  0  0  0  0999 V2000
    6.9376    1.3430    4.6929 N   0  0  0  0  0  0  0  0  0  0  0  0
    6.2886    2.1083    4.1129 C   0  0  0  0  0  0  0  0  0  0  0  0
    5.4916    3.0757    3.3514 C   0  0  0  0  0  0  0  0  0  0  0  0
    6.0799    3.3973    1.9636 C   0  0  0  0  0  0  0  0  0  0  0  0
    6.1225    2.1951    1.0180 C   0  0  0  0  0  0  0  0  0  0  0  0
    6.7193    2.5138   -0.3603 C   0  0  0  0  0  0  0  0  0  0  0  0
    8.1130    2.9111   -0.3243 N   0  0  0  0  0  0  0  0  0  0  0  0
    8.5254    4.1936   -0.4986 C   0  0  0  0  0  0  0  0  0  0  0  0
    7.7821    5.1470   -0.6760 O   0  0  0  0  0  0  0  0  0  0  0  0
   10.0439    4.3855   -0.4553 C   0  0  1  0  0  0  0  0  0  0  0  0
   10.4982    5.3393    0.6646 C   0  0  0  0  0  0  0  0  0  0  0  0
   11.8885    4.7967    1.0053 C   0  0  0  0  0  0  0  0  0  0  0  0
   11.7086    3.2865    0.8236 C   0  0  2  0  0  0  0  0  0  0  0  0
   12.9569    2.5005    0.4334 C   0  0  0  0  0  0  0  0  0  0  0  0
   13.5282    3.0121   -0.8032 N   0  0  0  0  0  0  0  0  0  0  0  0
   10.7378    3.1548   -0.2356 O   0  0  0  0  0  0  0  0  0  0  0  0
    5.4112    3.9961    3.9532 H   0  0  0  0  0  0  0  0  0  0  0  0
    4.4681    2.6739    3.2551 H   0  0  0  0  0  0  0  0  0  0  0  0
    7.0945    3.8070    2.0913 H   0  0  0  0  0  0  0  0  0  0  0  0
    5.4783    4.2049    1.5160 H   0  0  0  0  0  0  0  0  0  0  0  0
    5.0997    1.8052    0.8660 H   0  0  0  0  0  0  0  0  0  0  0  0
    6.6979    1.3752    1.4845 H   0  0  0  0  0  0  0  0  0  0  0  0
    6.1676    3.3431   -0.8288 H   0  0  0  0  0  0  0  0  0  0  0  0
    6.6136    1.6315   -1.0143 H   0  0  0  0  0  0  0  0  0  0  0  0
    8.8493    2.2233   -0.1950 H   0  0  0  0  0  0  0  0  0  0  0  0
   10.3332    4.7912   -1.4429 H   0  0  0  0  0  0  0  0  0  0  0  0
    9.8212    5.2548    1.5307 H   0  0  0  0  0  0  0  0  0  0  0  0
   10.4893    6.3885    0.3401 H   0  0  0  0  0  0  0  0  0  0  0  0
   12.2197    5.0576    2.0216 H   0  0  0  0  0  0  0  0  0  0  0  0
   12.6420    5.1526    0.2863 H   0  0  0  0  0  0  0  0  0  0  0  0
   11.2874    2.8383    1.7453 H   0  0  0  0  0  0  0  0  0  0  0  0
   12.6821    1.4242    0.4014 H   0  0  0  0  0  0  0  0  0  0  0  0
   13.6939    2.6098    1.2482 H   0  0  0  0  0  0  0  0  0  0  0  0
   12.8696    2.8502   -1.5656 H   0  0  0  0  0  0  0  0  0  0  0  0
   14.3852    2.5150   -1.0400 H   0  0  0  0  0  0  0  0  0  0  0  0
  1  2  3  0
  2  3  1  0
  3  4  1  0
  3 17  1  0
  3 18  1  0
  4  5  1  0
  4 19  1  0
  4 20  1  0
  5  6  1  0
  5 21  1  0
  5 22  1  0
  6  7  1  0
  6 23  1  0
  6 24  1  0
  7  8  1  0
  7 25  1  0
  8  9  2  0
  8 10  1  0
 10 11  1  0
 10 16  1  0
 10 26  1  6
 11 12  1  0
 11 27  1  0
 11 28  1  0
 12 13  1  0
 12 29  1  0
 12 30  1  0
 13 14  1  0
 13 16  1  0
 13 31  1  1
 14 15  1  0
 14 32  1  0
 14 33  1  0
 15 34  1  0
 15 35  1  0
M  END

