
     RDKit          3D

 27 26  0  0  0  0  0  0  0  0999 V2000
    1.0784    0.1144    0.4318 C   0  0  0  0  0  0  0  0  0  0  0  0
    2.3839    0.1040   -0.0782 O   0  0  0  0  0  0  0  0  0  0  0  0
    2.8994   -1.1820   -0.3084 C   0  0  0  0  0  0  0  0  0  0  0  0
    4.3156   -1.0296   -0.8556 C   0  0  0  0  0  0  0  0  0  0  0  0
    4.9575   -2.3126   -1.1213 N   0  0  0  0  0  0  0  0  0  0  0  0
    4.5712   -2.8874   -2.4005 C   0  0  0  0  0  0  0  0  0  0  0  0
    6.3999   -2.3030   -0.9279 C   0  0  0  0  0  0  0  0  0  0  0  0
    6.7644   -2.3692    0.5594 C   0  0  0  0  0  0  0  0  0  0  0  0
    8.5519   -2.4484    0.7806 S   0  0  1  0  0  0  0  0  0  0  0  0
    9.0458   -3.7467    0.3193 O   0  0  0  0  0  0  0  0  0  0  0  0
    9.1379   -1.1997    0.3213 O   0  0  0  0  0  0  0  0  0  0  0  0
    8.6461   -2.4603    2.4243 O   0  0  0  0  0  0  0  0  0  0  0  0
    0.7784    1.1634    0.5705 H   0  0  0  0  0  0  0  0  0  0  0  0
    1.0090   -0.4044    1.4101 H   0  0  0  0  0  0  0  0  0  0  0  0
    0.3576   -0.3697   -0.2590 H   0  0  0  0  0  0  0  0  0  0  0  0
    2.2562   -1.7388   -1.0223 H   0  0  0  0  0  0  0  0  0  0  0  0
    2.9284   -1.7806    0.6263 H   0  0  0  0  0  0  0  0  0  0  0  0
    4.8948   -0.4735   -0.1027 H   0  0  0  0  0  0  0  0  0  0  0  0
    4.2846   -0.3814   -1.7582 H   0  0  0  0  0  0  0  0  0  0  0  0
    3.4757   -2.9502   -2.4765 H   0  0  0  0  0  0  0  0  0  0  0  0
    4.9667   -3.9109   -2.4927 H   0  0  0  0  0  0  0  0  0  0  0  0
    4.9340   -2.2980   -3.2727 H   0  0  0  0  0  0  0  0  0  0  0  0
    6.8949   -1.4218   -1.3882 H   0  0  0  0  0  0  0  0  0  0  0  0
    6.8233   -3.1939   -1.4162 H   0  0  0  0  0  0  0  0  0  0  0  0
    6.3476   -3.2709    1.0295 H   0  0  0  0  0  0  0  0  0  0  0  0
    6.4399   -1.4813    1.1205 H   0  0  0  0  0  0  0  0  0  0  0  0
    8.9754   -3.3394    2.6792 H   0  0  0  0  0  0  0  0  0  0  0  0
  1  2  1  0
  1 13  1  0
  1 14  1  0
  1 15  1  0
  2  3  1  0
  3  4  1  0
  3 16  1  0
  3 17  1  0
  4  5  1  0
  4 18  1  0
  4 19  1  0
  5  6  1  0
  5  7  1  0
  6 20  1  0
  6 21  1  0
  6 22  1  0
  7  8  1  0
  7 23  1  0
  7 24  1  0
  8  9  1  0
  8 25  1  0
  8 26  1  0
  9 10  2  0
  9 11  2  0
  9 12  1  1
 12 27  1  0
M  END

