
     RDKit          3D

 45 46  0  0  0  0  0  0  0  0999 V2000
    4.0058    3.1145   -2.8766 C   0  0  0  0  0  0  0  0  0  0  0  0
    4.7992    3.1050   -1.8030 C   0  0  0  0  0  0  0  0  0  0  0  0
    4.6395    2.1751   -0.6317 C   0  0  0  0  0  0  0  0  0  0  0  0
    4.6358    2.8837    0.6630 N   0  0  0  0  0  0  0  0  0  0  0  0
    3.3823    3.5390    0.9776 C   0  0  1  0  0  0  0  0  0  0  0  0
    3.3637    4.7552    1.8607 C   0  0  0  0  0  0  0  0  0  0  0  0
    3.1158    4.9067    0.3889 C   0  0  0  0  0  0  0  0  0  0  0  0
    5.2329    1.9090    1.9553 S   0  0  1  0  0  0  0  0  0  0  0  0
    5.0958    2.6949    3.1811 O   0  0  0  0  0  0  0  0  0  0  0  0
    4.6112    0.5749    1.8860 O   0  0  0  0  0  0  0  0  0  0  0  0
    6.9660    1.7503    1.5546 C   0  0  0  0  0  0  0  0  0  0  0  0
    7.8513    2.8946    1.5235 C   0  0  0  0  0  0  0  0  0  0  0  0
    7.4513    4.3237    1.7596 C   0  0  0  0  0  0  0  0  0  0  0  0
    9.1404    2.4944    1.2804 C   0  0  0  0  0  0  0  0  0  0  0  0
    9.2853    0.7797    1.1256 S   0  0  0  0  0  0  0  0  0  0  0  0
    7.5891    0.5242    1.3765 C   0  0  0  0  0  0  0  0  0  0  0  0
    7.0664   -0.9106    1.3888 C   0  0  0  0  0  0  0  0  0  0  0  0
    6.2509   -1.3385    0.2696 N   0  0  0  0  0  0  0  0  0  0  0  0
    6.8004   -1.2625   -1.0822 C   0  0  1  0  0  0  0  0  0  0  0  0
    7.9893   -2.2144   -1.2506 C   0  0  0  0  0  0  0  0  0  0  0  0
    5.6855   -1.6009   -2.0745 C   0  0  0  0  0  0  0  0  0  0  0  0
    4.1972    3.7794   -3.7233 H   0  0  0  0  0  0  0  0  0  0  0  0
    3.1351    2.4544   -2.9520 H   0  0  0  0  0  0  0  0  0  0  0  0
    5.6618    3.7805   -1.7537 H   0  0  0  0  0  0  0  0  0  0  0  0
    5.4962    1.4816   -0.6246 H   0  0  0  0  0  0  0  0  0  0  0  0
    3.7297    1.5572   -0.7475 H   0  0  0  0  0  0  0  0  0  0  0  0
    2.5180    2.8628    1.0486 H   0  0  0  0  0  0  0  0  0  0  0  0
    4.3209    5.0925    2.2594 H   0  0  0  0  0  0  0  0  0  0  0  0
    2.5281    4.8467    2.5591 H   0  0  0  0  0  0  0  0  0  0  0  0
    3.9079    5.3505   -0.2175 H   0  0  0  0  0  0  0  0  0  0  0  0
    2.1030    5.1085    0.0294 H   0  0  0  0  0  0  0  0  0  0  0  0
    7.0003    4.4372    2.7571 H   0  0  0  0  0  0  0  0  0  0  0  0
    6.6976    4.6514    1.0278 H   0  0  0  0  0  0  0  0  0  0  0  0
    8.3250    4.9867    1.6877 H   0  0  0  0  0  0  0  0  0  0  0  0
   10.0208    3.1315    1.2031 H   0  0  0  0  0  0  0  0  0  0  0  0
    6.4657   -1.0420    2.2995 H   0  0  0  0  0  0  0  0  0  0  0  0
    7.9392   -1.5761    1.4874 H   0  0  0  0  0  0  0  0  0  0  0  0
    5.3392   -0.8906    0.3354 H   0  0  0  0  0  0  0  0  0  0  0  0
    7.1630   -0.2357   -1.3238 H   0  0  0  0  0  0  0  0  0  0  0  0
    7.6888   -3.2463   -1.0063 H   0  0  0  0  0  0  0  0  0  0  0  0
    8.8355   -1.9425   -0.6006 H   0  0  0  0  0  0  0  0  0  0  0  0
    8.3585   -2.1911   -2.2881 H   0  0  0  0  0  0  0  0  0  0  0  0
    5.3061   -2.6192   -1.8920 H   0  0  0  0  0  0  0  0  0  0  0  0
    6.0487   -1.5415   -3.1121 H   0  0  0  0  0  0  0  0  0  0  0  0
    4.8375   -0.9026   -1.9767 H   0  0  0  0  0  0  0  0  0  0  0  0
  1  2  2  0
  1 22  1  0
  1 23  1  0
  2  3  1  0
  2 24  1  0
  3  4  1  0
  3 25  1  0
  3 26  1  0
  4  5  1  0
  8  4  1  6
  5  6  1  0
  5  7  1  0
  5 27  1  1
  6  7  1  0
  6 28  1  0
  6 29  1  0
  7 30  1  0
  7 31  1  0
  8  9  2  0
  8 10  2  0
  8 11  1  0
 11 12  1  0
 11 16  2  0
 12 13  1  0
 12 14  2  0
 13 32  1  0
 13 33  1  0
 13 34  1  0
 14 15  1  0
 14 35  1  0
 15 16  1  0
 16 17  1  0
 17 18  1  0
 17 36  1  0
 17 37  1  0
 18 19  1  0
 18 38  1  0
 19 20  1  0
 19 21  1  0
 19 39  1  6
 20 40  1  0
 20 41  1  0
 20 42  1  0
 21 43  1  0
 21 44  1  0
 21 45  1  0
M  END

