
     RDKit          3D

 59 62  0  0  0  0  0  0  0  0999 V2000
    6.2592   -6.7697    0.6496 C   0  0  0  0  0  0  0  0  0  0  0  0
    5.9991   -6.5502    2.0166 O   0  0  0  0  0  0  0  0  0  0  0  0
    4.9648   -5.7491    2.3800 C   0  0  0  0  0  0  0  0  0  0  0  0
    4.7743   -5.5725    3.7609 C   0  0  0  0  0  0  0  0  0  0  0  0
    3.7397   -4.7615    4.2200 C   0  0  0  0  0  0  0  0  0  0  0  0
    2.8813   -4.1169    3.3220 C   0  0  0  0  0  0  0  0  0  0  0  0
    3.0619   -4.2916    1.9438 C   0  0  0  0  0  0  0  0  0  0  0  0
    2.1209   -3.6200    0.9593 C   0  0  0  0  0  0  0  0  0  0  0  0
    0.8203   -4.2726    0.8481 N   0  0  0  0  0  0  0  0  0  0  0  0
   -0.2616   -3.8594    1.5440 C   0  0  0  0  0  0  0  0  0  0  0  0
   -0.2935   -2.9017    2.2989 O   0  0  0  0  0  0  0  0  0  0  0  0
   -1.5390   -4.7307    1.3112 C   0  0  1  0  0  0  0  0  0  0  0  0
   -1.9216   -4.7268   -0.1068 C   0  0  0  0  0  0  0  0  0  0  0  0
   -2.2340   -4.7032   -1.2224 N   0  0  0  0  0  0  0  0  0  0  0  0
   -1.3590   -6.1696    1.8079 C   0  0  0  0  0  0  0  0  0  0  0  0
   -0.5487   -6.9146    1.1013 N   0  0  0  0  0  0  0  0  0  0  0  0
   -0.4451   -8.2440    1.3728 C   0  0  0  0  0  0  0  0  0  0  0  0
    0.4301   -9.0717    0.6251 C   0  0  0  0  0  0  0  0  0  0  0  0
    0.4732  -10.4287    0.8766 C   0  0  0  0  0  0  0  0  0  0  0  0
   -0.3595  -11.0000    1.8734 C   0  0  0  0  0  0  0  0  0  0  0  0
   -1.2204  -10.2141    2.6137 C   0  0  0  0  0  0  0  0  0  0  0  0
   -1.2743   -8.8125    2.3883 C   0  0  0  0  0  0  0  0  0  0  0  0
   -2.0746   -8.0235    3.1469 N   0  0  0  0  0  0  0  0  0  0  0  0
   -2.1111   -6.7229    2.9285 C   0  0  0  0  0  0  0  0  0  0  0  0
   -2.9275   -5.9296    3.7274 N   0  0  0  0  0  0  0  0  0  0  0  0
   -3.9485   -6.6326    4.5085 C   0  0  0  0  0  0  0  0  0  0  0  0
   -5.1519   -5.7731    4.9192 C   0  0  0  0  0  0  0  0  0  0  0  0
   -4.8754   -4.7121    5.9963 C   0  0  0  0  0  0  0  0  0  0  0  0
   -4.2707   -3.3859    5.4983 C   0  0  0  0  0  0  0  0  0  0  0  0
   -3.2623   -3.5026    4.3401 C   0  0  0  0  0  0  0  0  0  0  0  0
   -2.3460   -4.7342    4.3654 C   0  0  0  0  0  0  0  0  0  0  0  0
    4.1049   -5.1069    1.4750 C   0  0  0  0  0  0  0  0  0  0  0  0
    7.1305   -7.4365    0.5992 H   0  0  0  0  0  0  0  0  0  0  0  0
    6.4983   -5.8304    0.1184 H   0  0  0  0  0  0  0  0  0  0  0  0
    5.4079   -7.2572    0.1401 H   0  0  0  0  0  0  0  0  0  0  0  0
    5.4552   -6.0789    4.4479 H   0  0  0  0  0  0  0  0  0  0  0  0
    3.6035   -4.6241    5.2960 H   0  0  0  0  0  0  0  0  0  0  0  0
    2.0739   -3.4760    3.6831 H   0  0  0  0  0  0  0  0  0  0  0  0
    2.5769   -3.5923   -0.0427 H   0  0  0  0  0  0  0  0  0  0  0  0
    1.9246   -2.5846    1.2703 H   0  0  0  0  0  0  0  0  0  0  0  0
    0.7584   -5.1905    0.4083 H   0  0  0  0  0  0  0  0  0  0  0  0
   -2.3426   -4.2318    1.8623 H   0  0  0  0  0  0  0  0  0  0  0  0
    1.0475   -8.6082   -0.1471 H   0  0  0  0  0  0  0  0  0  0  0  0
    1.1452  -11.0712    0.3025 H   0  0  0  0  0  0  0  0  0  0  0  0
   -0.3150  -12.0768    2.0555 H   0  0  0  0  0  0  0  0  0  0  0  0
   -1.8629  -10.6336    3.3903 H   0  0  0  0  0  0  0  0  0  0  0  0
   -3.4959   -7.0823    5.4162 H   0  0  0  0  0  0  0  0  0  0  0  0
   -4.2956   -7.4775    3.9003 H   0  0  0  0  0  0  0  0  0  0  0  0
   -5.9012   -6.4802    5.3135 H   0  0  0  0  0  0  0  0  0  0  0  0
   -5.6081   -5.3159    4.0237 H   0  0  0  0  0  0  0  0  0  0  0  0
   -4.2117   -5.1633    6.7553 H   0  0  0  0  0  0  0  0  0  0  0  0
   -5.8129   -4.4851    6.5308 H   0  0  0  0  0  0  0  0  0  0  0  0
   -3.7903   -2.8822    6.3547 H   0  0  0  0  0  0  0  0  0  0  0  0
   -5.0808   -2.7090    5.1771 H   0  0  0  0  0  0  0  0  0  0  0  0
   -2.6275   -2.6025    4.3177 H   0  0  0  0  0  0  0  0  0  0  0  0
   -3.8007   -3.5106    3.3778 H   0  0  0  0  0  0  0  0  0  0  0  0
   -2.0641   -4.9872    5.4075 H   0  0  0  0  0  0  0  0  0  0  0  0
   -1.4040   -4.4868    3.8643 H   0  0  0  0  0  0  0  0  0  0  0  0
    4.2395   -5.2277    0.3990 H   0  0  0  0  0  0  0  0  0  0  0  0
  1  2  1  0
  1 33  1  0
  1 34  1  0
  1 35  1  0
  2  3  1  0
  3  4  2  0
  3 32  1  0
  4  5  1  0
  4 36  1  0
  5  6  2  0
  5 37  1  0
  6  7  1  0
  6 38  1  0
  7  8  1  0
  7 32  2  0
  8  9  1  0
  8 39  1  0
  8 40  1  0
  9 10  1  0
  9 41  1  0
 10 11  2  0
 10 12  1  0
 12 13  1  0
 12 15  1  0
 12 42  1  1
 13 14  3  0
 15 16  2  0
 15 24  1  0
 16 17  1  0
 17 18  2  0
 17 22  1  0
 18 19  1  0
 18 43  1  0
 19 20  2  0
 19 44  1  0
 20 21  1  0
 20 45  1  0
 21 22  2  0
 21 46  1  0
 22 23  1  0
 23 24  2  0
 24 25  1  0
 25 26  1  0
 25 31  1  0
 26 27  1  0
 26 47  1  0
 26 48  1  0
 27 28  1  0
 27 49  1  0
 27 50  1  0
 28 29  1  0
 28 51  1  0
 28 52  1  0
 29 30  1  0
 29 53  1  0
 29 54  1  0
 30 31  1  0
 30 55  1  0
 30 56  1  0
 31 57  1  0
 31 58  1  0
 32 59  1  0
M  END

