
     RDKit          3D

 34 36  0  0  0  0  0  0  0  0999 V2000
    0.3633   -0.0208   -0.0927 C   0  0  0  0  0  0  0  0  0  0  0  0
    1.9379    0.2082    0.1504 S   0  0  1  0  0  0  0  0  0  0  0  0
    2.4236    0.9569    1.3229 O   0  0  0  0  0  0  0  0  0  0  0  0
    2.7612   -1.3710   -0.0200 C   0  0  0  0  0  0  0  0  0  0  0  0
    2.6998   -2.1237   -1.1965 C   0  0  0  0  0  0  0  0  0  0  0  0
    3.3545   -3.3546   -1.2409 C   0  0  0  0  0  0  0  0  0  0  0  0
    4.0787   -3.8388   -0.1374 C   0  0  0  0  0  0  0  0  0  0  0  0
    4.8142   -5.1529   -0.2086 C   0  0  0  0  0  0  0  0  0  0  0  0
    4.1255   -3.0521    1.0254 C   0  0  0  0  0  0  0  0  0  0  0  0
    3.4744   -1.8200    1.0939 C   0  0  0  0  0  0  0  0  0  0  0  0
    2.7399    1.1548   -1.1808 N   0  0  0  0  0  0  0  0  0  0  0  0
    2.2230    1.2170   -2.4690 C   0  0  0  0  0  0  0  0  0  0  0  0
    3.1212    1.8217   -3.3140 C   0  0  0  0  0  0  0  0  0  0  0  0
    4.2525    2.1340   -2.5062 C   0  0  0  0  0  0  0  0  0  0  0  0
    4.0102    1.7153   -1.1767 C   0  0  0  0  0  0  0  0  0  0  0  0
    4.9526    1.9014   -0.1542 C   0  0  0  0  0  0  0  0  0  0  0  0
    6.1330    2.5173   -0.5603 C   0  0  0  0  0  0  0  0  0  0  0  0
    7.5127    2.8409    0.7137 Br  0  0  0  0  0  0  0  0  0  0  0  0
    6.3684    2.9295   -1.8781 C   0  0  0  0  0  0  0  0  0  0  0  0
    5.4356    2.7481   -2.8633 N   0  0  0  0  0  0  0  0  0  0  0  0
    5.6354    3.1180   -4.0538 O   0  0  0  0  0  0  0  0  0  0  0  0
    0.0479   -0.9521   -0.5570 H   0  0  0  0  0  0  0  0  0  0  0  0
   -0.2965    0.8335    0.0577 H   0  0  0  0  0  0  0  0  0  0  0  0
    2.1621   -1.7575   -2.0730 H   0  0  0  0  0  0  0  0  0  0  0  0
    3.3087   -3.9482   -2.1577 H   0  0  0  0  0  0  0  0  0  0  0  0
    4.3933   -5.8130   -0.9811 H   0  0  0  0  0  0  0  0  0  0  0  0
    4.7842   -5.6843    0.7548 H   0  0  0  0  0  0  0  0  0  0  0  0
    5.8775   -4.9905   -0.4572 H   0  0  0  0  0  0  0  0  0  0  0  0
    4.6811   -3.4093    1.8966 H   0  0  0  0  0  0  0  0  0  0  0  0
    3.5087   -1.2090    1.9978 H   0  0  0  0  0  0  0  0  0  0  0  0
    1.2209    0.8385   -2.6638 H   0  0  0  0  0  0  0  0  0  0  0  0
    3.0064    2.0427   -4.3707 H   0  0  0  0  0  0  0  0  0  0  0  0
    4.7607    1.6093    0.8751 H   0  0  0  0  0  0  0  0  0  0  0  0
    7.2822    3.4163   -2.2124 H   0  0  0  0  0  0  0  0  0  0  0  0
  1  2  2  0
  1 22  1  0
  1 23  1  0
  2  3  2  0
  2  4  1  1
  2 11  1  0
  4  5  2  0
  4 10  1  0
  5  6  1  0
  5 24  1  0
  6  7  2  0
  6 25  1  0
  7  8  1  0
  7  9  1  0
  8 26  1  0
  8 27  1  0
  8 28  1  0
  9 10  2  0
  9 29  1  0
 10 30  1  0
 11 12  1  0
 11 15  1  0
 12 13  2  0
 12 31  1  0
 13 14  1  0
 13 32  1  0
 14 15  2  0
 14 20  1  0
 15 16  1  0
 16 17  2  0
 16 33  1  0
 17 18  1  0
 17 19  1  0
 19 20  2  0
 19 34  1  0
 20 21  1  0
M  CHG  2  20   1  21  -1
M  END

