
     RDKit          3D

 39 41  0  0  0  0  0  0  0  0999 V2000
    3.6011   -1.8536    0.3677 C   0  0  0  0  0  0  0  0  0  0  0  0
    2.5529   -0.8676   -0.1635 C   0  0  1  0  0  0  0  0  0  0  0  0
    1.2152   -1.5601   -0.4520 C   0  0  0  0  0  0  0  0  0  0  0  0
    2.3599    0.3820    0.7499 C   0  0  1  0  0  0  0  0  0  0  0  0
    1.8856   -0.0098    2.0606 N   0  0  0  0  0  0  0  0  0  0  0  0
    1.2096    0.7983    2.9484 C   0  0  0  0  0  0  0  0  0  0  0  0
    0.7568    0.2641    4.1781 C   0  0  0  0  0  0  0  0  0  0  0  0
    0.0571    1.0570    5.0806 C   0  0  0  0  0  0  0  0  0  0  0  0
   -0.2132    2.4023    4.8078 C   0  0  0  0  0  0  0  0  0  0  0  0
    0.2287    2.9339    3.5914 C   0  0  0  0  0  0  0  0  0  0  0  0
   -0.0250    4.3006    3.2841 N   0  0  0  0  0  0  0  0  0  0  0  0
   -1.1624    5.0315    3.5355 C   0  0  0  0  0  0  0  0  0  0  0  0
   -1.0285    6.2602    3.1095 N   0  0  0  0  0  0  0  0  0  0  0  0
    0.2268    6.3735    2.5650 N   0  0  0  0  0  0  0  0  0  0  0  0
    0.8079    5.2070    2.6699 C   0  0  0  0  0  0  0  0  0  0  0  0
    0.9288    2.1512    2.6658 C   0  0  0  0  0  0  0  0  0  0  0  0
    3.6031    1.2550    0.8235 C   0  0  0  0  0  0  0  0  0  0  0  0
    4.5051    1.3901    1.8511 C   0  0  0  0  0  0  0  0  0  0  0  0
    5.5687    2.2999    1.5565 C   0  0  0  0  0  0  0  0  0  0  0  0
    5.4617    2.8517    0.3070 C   0  0  0  0  0  0  0  0  0  0  0  0
    4.0582    2.2687   -0.5248 S   0  0  0  0  0  0  0  0  0  0  0  0
    3.7888   -2.6461   -0.3734 H   0  0  0  0  0  0  0  0  0  0  0  0
    3.2679   -2.3622    1.2897 H   0  0  0  0  0  0  0  0  0  0  0  0
    4.5589   -1.3559    0.5813 H   0  0  0  0  0  0  0  0  0  0  0  0
    2.9371   -0.4643   -1.1159 H   0  0  0  0  0  0  0  0  0  0  0  0
    0.7678   -1.9754    0.4652 H   0  0  0  0  0  0  0  0  0  0  0  0
    1.3520   -2.3905   -1.1625 H   0  0  0  0  0  0  0  0  0  0  0  0
    0.4848   -0.8605   -0.8891 H   0  0  0  0  0  0  0  0  0  0  0  0
    1.5639    0.9789    0.2672 H   0  0  0  0  0  0  0  0  0  0  0  0
    2.1085   -0.9444    2.3748 H   0  0  0  0  0  0  0  0  0  0  0  0
    0.9569   -0.7852    4.4127 H   0  0  0  0  0  0  0  0  0  0  0  0
   -0.2783    0.6227    6.0258 H   0  0  0  0  0  0  0  0  0  0  0  0
   -0.7286    3.0310    5.5346 H   0  0  0  0  0  0  0  0  0  0  0  0
   -2.0499    4.6069    4.0017 H   0  0  0  0  0  0  0  0  0  0  0  0
    1.8201    4.9628    2.3517 H   0  0  0  0  0  0  0  0  0  0  0  0
    1.2526    2.6001    1.7283 H   0  0  0  0  0  0  0  0  0  0  0  0
    4.4000    0.8609    2.7990 H   0  0  0  0  0  0  0  0  0  0  0  0
    6.3769    2.5372    2.2503 H   0  0  0  0  0  0  0  0  0  0  0  0
    6.1211    3.5724   -0.1747 H   0  0  0  0  0  0  0  0  0  0  0  0
  1  2  1  0
  1 22  1  0
  1 23  1  0
  1 24  1  0
  2  3  1  0
  2  4  1  0
  2 25  1  6
  3 26  1  0
  3 27  1  0
  3 28  1  0
  4  5  1  0
  4 17  1  0
  4 29  1  6
  5  6  1  0
  5 30  1  0
  6  7  2  0
  6 16  1  0
  7  8  1  0
  7 31  1  0
  8  9  2  0
  8 32  1  0
  9 10  1  0
  9 33  1  0
 10 11  1  0
 10 16  2  0
 11 12  1  0
 11 15  1  0
 12 13  2  0
 12 34  1  0
 13 14  1  0
 14 15  2  0
 15 35  1  0
 16 36  1  0
 17 18  2  0
 17 21  1  0
 18 19  1  0
 18 37  1  0
 19 20  2  0
 19 38  1  0
 20 21  1  0
 20 39  1  0
M  END

