
     RDKit          3D

 99104  0  0  0  0  0  0  0  0999 V2000
    5.0640   -6.4000    0.4396 C   0  0  0  0  0  0  0  0  0  0  0  0
    4.9863   -4.9951    0.2448 O   0  0  0  0  0  0  0  0  0  0  0  0
    3.8839   -4.3456    0.8598 C   0  0  2  0  0  0  0  0  0  0  0  0
    3.0834   -5.0871    1.0402 H   0  0  0  0  0  0  0  0  0  0  0  0
    3.3230   -3.3027   -0.1142 C   0  0  1  0  0  0  0  0  0  0  0  0
    4.1506   -2.6423   -0.4387 H   0  0  0  0  0  0  0  0  0  0  0  0
    2.7375   -3.9931   -1.1814 O   0  0  0  0  0  0  0  0  0  0  0  0
    2.2913   -2.4112    0.5989 C   0  0  2  0  0  0  0  0  0  0  0  0
    1.3885   -3.0248    0.8178 H   0  0  0  0  0  0  0  0  0  0  0  0
    1.9590   -1.3454   -0.2292 O   0  0  0  0  0  0  0  0  0  0  0  0
    0.6969   -0.7253   -0.0304 C   0  0  2  0  0  0  0  0  0  0  0  0
    0.0319   -1.4758    0.4204 H   0  0  0  0  0  0  0  0  0  0  0  0
    0.1527   -0.5148   -1.3246 O   0  0  0  0  0  0  0  0  0  0  0  0
    0.3024    0.7344   -1.9987 C   0  0  2  0  0  0  0  0  0  0  0  0
   -0.3589    0.6244   -2.8767 H   0  0  0  0  0  0  0  0  0  0  0  0
    1.6108    1.0037   -2.4138 O   0  0  0  0  0  0  0  0  0  0  0  0
    2.1649    0.3259   -3.5530 C   0  0  2  0  0  0  0  0  0  0  0  0
    1.3820    0.2063   -4.3263 H   0  0  0  0  0  0  0  0  0  0  0  0
    2.7379   -1.0453   -3.1837 C   0  0  1  0  0  0  0  0  0  0  0  0
    3.2978   -0.9095   -2.2423 H   0  0  0  0  0  0  0  0  0  0  0  0
    1.7422   -2.0359   -3.0499 O   0  0  0  0  0  0  0  0  0  0  0  0
    3.7409   -1.5757   -4.2144 C   0  0  2  0  0  0  0  0  0  0  0  0
    3.2090   -1.9518   -5.1097 H   0  0  0  0  0  0  0  0  0  0  0  0
    4.4102   -2.6032   -3.5635 O   0  0  0  0  0  0  0  0  0  0  0  0
    5.2061   -3.4816   -4.3050 C   0  0  2  0  0  0  0  0  0  0  0  0
    5.9552   -2.9202   -4.8963 H   0  0  0  0  0  0  0  0  0  0  0  0
    4.3554   -4.1392   -5.2372 O   0  0  0  0  0  0  0  0  0  0  0  0
    4.9049   -5.2139   -5.8702 C   0  0  0  0  0  0  0  0  0  0  0  0
    5.9069   -5.9411   -5.3619 C   0  0  0  0  0  0  0  0  0  0  0  0
    6.4538   -5.7076   -3.9827 C   0  0  2  0  0  0  0  0  0  0  0  0
    6.1925   -6.5885   -3.3732 H   0  0  0  0  0  0  0  0  0  0  0  0
    5.8651   -4.4318   -3.3008 C   0  0  1  0  0  0  0  0  0  0  0  0
    5.0715   -4.6895   -2.5835 H   0  0  0  0  0  0  0  0  0  0  0  0
    7.0823   -3.8115   -2.5375 C   0  0  1  0  0  0  0  0  0  0  0  0
    6.9984   -2.3369   -2.1463 C   0  0  0  0  0  0  0  0  0  0  0  0
    7.3030   -4.5934   -1.3530 O   0  0  0  0  0  0  0  0  0  0  0  0
    8.2554   -4.1366   -3.4737 C   0  0  0  0  0  0  0  0  0  0  0  0
    8.0173   -5.5986   -3.8804 C   0  0  1  0  0  0  0  0  0  0  0  0
    8.4915   -5.8445   -4.8438 H   0  0  0  0  0  0  0  0  0  0  0  0
    8.5534   -6.4982   -2.9332 O   0  0  0  0  0  0  0  0  0  0  0  0
    4.6766   -0.5845   -4.5963 O   0  0  0  0  0  0  0  0  0  0  0  0
    4.0792    0.5624   -5.1769 C   0  0  2  0  0  0  0  0  0  0  0  0
    3.4121    0.2775   -6.0163 H   0  0  0  0  0  0  0  0  0  0  0  0
    5.1878    1.4529   -5.7446 C   0  0  0  0  0  0  0  0  0  0  0  0
    4.6810    2.4924   -6.5390 O   0  0  0  0  0  0  0  0  0  0  0  0
    3.2535    1.2558   -4.0857 C   0  0  1  0  0  0  0  0  0  0  0  0
    3.9458    1.4762   -3.2499 H   0  0  0  0  0  0  0  0  0  0  0  0
    2.6953    2.4551   -4.5974 O   0  0  0  0  0  0  0  0  0  0  0  0
   -0.1452    1.8637   -1.0882 C   0  0  0  0  0  0  0  0  0  0  0  0
    0.7139    1.9019    0.1801 C   0  0  2  0  0  0  0  0  0  0  0  0
    1.7168    2.2570   -0.0941 H   0  0  0  0  0  0  0  0  0  0  0  0
    0.8049    0.5165    0.8880 C   0  0  1  0  0  0  0  0  0  0  0  0
    1.7995    0.4170    1.3343 H   0  0  0  0  0  0  0  0  0  0  0  0
   -0.1761    0.5987    2.1421 C   0  0  1  0  0  0  0  0  0  0  0  0
   -1.1389   -0.5648    2.3440 C   0  0  0  0  0  0  0  0  0  0  0  0
    0.6062    0.6587    3.3337 O   0  0  0  0  0  0  0  0  0  0  0  0
   -0.9110    1.9478    1.9486 C   0  0  0  0  0  0  0  0  0  0  0  0
    0.1170    2.8340    1.2432 C   0  0  1  0  0  0  0  0  0  0  0  0
   -0.3226    3.7410    0.7888 H   0  0  0  0  0  0  0  0  0  0  0  0
    1.1779    3.1992    2.1342 O   0  0  0  0  0  0  0  0  0  0  0  0
    2.7997   -1.8729    1.8007 O   0  0  0  0  0  0  0  0  0  0  0  0
    3.1610   -2.8465    2.7607 C   0  0  2  0  0  0  0  0  0  0  0  0
    2.2943   -3.4937    3.0106 H   0  0  0  0  0  0  0  0  0  0  0  0
    3.5557   -2.0553    4.0036 C   0  0  0  0  0  0  0  0  0  0  0  0
    3.9217   -2.9729    5.0256 O   0  0  0  0  0  0  0  0  0  0  0  0
    4.2816   -3.7544    2.2176 C   0  0  1  0  0  0  0  0  0  0  0  0
    5.1834   -3.1252    2.0592 H   0  0  0  0  0  0  0  0  0  0  0  0
    4.5442   -4.8228    3.0981 O   0  0  0  0  0  0  0  0  0  0  0  0
    5.9443   -6.7481   -0.1191 H   0  0  0  0  0  0  0  0  0  0  0  0
    4.1665   -6.9016    0.0347 H   0  0  0  0  0  0  0  0  0  0  0  0
    5.1775   -6.6507    1.5056 H   0  0  0  0  0  0  0  0  0  0  0  0
    2.5655   -3.3857   -1.9280 H   0  0  0  0  0  0  0  0  0  0  0  0
    1.1041   -1.7287   -2.3788 H   0  0  0  0  0  0  0  0  0  0  0  0
    4.4226   -5.4188   -6.8299 H   0  0  0  0  0  0  0  0  0  0  0  0
    6.2851   -6.7878   -5.9405 H   0  0  0  0  0  0  0  0  0  0  0  0
    6.8697   -1.6717   -3.0117 H   0  0  0  0  0  0  0  0  0  0  0  0
    7.9253   -2.0608   -1.6200 H   0  0  0  0  0  0  0  0  0  0  0  0
    6.1506   -2.1597   -1.4679 H   0  0  0  0  0  0  0  0  0  0  0  0
    6.5104   -4.5406   -0.7828 H   0  0  0  0  0  0  0  0  0  0  0  0
    9.2312   -4.0020   -2.9832 H   0  0  0  0  0  0  0  0  0  0  0  0
    8.2173   -3.4720   -4.3523 H   0  0  0  0  0  0  0  0  0  0  0  0
    8.2577   -6.1584   -2.0702 H   0  0  0  0  0  0  0  0  0  0  0  0
    5.8363    0.8249   -6.3760 H   0  0  0  0  0  0  0  0  0  0  0  0
    5.8126    1.8194   -4.9023 H   0  0  0  0  0  0  0  0  0  0  0  0
    3.9893    2.9323   -6.0196 H   0  0  0  0  0  0  0  0  0  0  0  0
    2.1967    2.8672   -3.8778 H   0  0  0  0  0  0  0  0  0  0  0  0
   -1.2079    1.6947   -0.8525 H   0  0  0  0  0  0  0  0  0  0  0  0
   -0.0772    2.8188   -1.6317 H   0  0  0  0  0  0  0  0  0  0  0  0
   -1.7931   -0.7191    1.4727 H   0  0  0  0  0  0  0  0  0  0  0  0
   -1.7717   -0.3575    3.2202 H   0  0  0  0  0  0  0  0  0  0  0  0
   -0.5883   -1.4949    2.5495 H   0  0  0  0  0  0  0  0  0  0  0  0
    1.1628    1.4503    3.2473 H   0  0  0  0  0  0  0  0  0  0  0  0
   -1.2497    2.3512    2.9158 H   0  0  0  0  0  0  0  0  0  0  0  0
   -1.8016    1.8262    1.3108 H   0  0  0  0  0  0  0  0  0  0  0  0
    0.8345    3.8467    2.7647 H   0  0  0  0  0  0  0  0  0  0  0  0
    2.6986   -1.4220    4.2966 H   0  0  0  0  0  0  0  0  0  0  0  0
    4.3965   -1.3869    3.7358 H   0  0  0  0  0  0  0  0  0  0  0  0
    4.2445   -2.4838    5.7922 H   0  0  0  0  0  0  0  0  0  0  0  0
    4.5986   -4.4461    3.9929 H   0  0  0  0  0  0  0  0  0  0  0  0
  1  2  1  0
  1 69  1  0
  1 70  1  0
  1 71  1  0
  2  3  1  0
  3  4  1  1
  3  5  1  0
  3 66  1  0
  5  6  1  6
  5  7  1  0
  5  8  1  0
  7 72  1  0
  8  9  1  1
  8 10  1  0
  8 61  1  0
 10 11  1  0
 11 12  1  1
 11 13  1  0
 11 52  1  0
 13 14  1  0
 14 15  1  6
 14 16  1  0
 14 49  1  0
 16 17  1  0
 17 18  1  6
 17 19  1  0
 17 46  1  0
 19 20  1  1
 19 21  1  0
 19 22  1  0
 21 73  1  0
 22 23  1  6
 22 24  1  0
 22 41  1  0
 24 25  1  0
 25 26  1  6
 25 27  1  0
 25 32  1  0
 27 28  1  0
 28 29  2  0
 28 74  1  0
 29 30  1  0
 29 75  1  0
 30 31  1  1
 30 32  1  0
 30 38  1  0
 32 33  1  1
 32 34  1  0
 34 35  1  0
 34 36  1  1
 34 37  1  0
 35 76  1  0
 35 77  1  0
 35 78  1  0
 36 79  1  0
 37 38  1  0
 37 80  1  0
 37 81  1  0
 38 39  1  6
 38 40  1  0
 40 82  1  0
 41 42  1  0
 42 43  1  6
 42 44  1  0
 42 46  1  0
 44 45  1  0
 44 83  1  0
 44 84  1  0
 45 85  1  0
 46 47  1  1
 46 48  1  0
 48 86  1  0
 49 50  1  0
 49 87  1  0
 49 88  1  0
 50 51  1  6
 50 52  1  0
 50 58  1  0
 52 53  1  1
 52 54  1  0
 54 55  1  0
 54 56  1  1
 54 57  1  0
 55 89  1  0
 55 90  1  0
 55 91  1  0
 56 92  1  0
 57 58  1  0
 57 93  1  0
 57 94  1  0
 58 59  1  6
 58 60  1  0
 60 95  1  0
 61 62  1  0
 62 63  1  1
 62 64  1  0
 62 66  1  0
 64 65  1  0
 64 96  1  0
 64 97  1  0
 65 98  1  0
 66 67  1  6
 66 68  1  0
 68 99  1  0
M  END

