
     RDKit          3D

 60 63  0  0  0  0  0  0  0  0999 V2000
    2.3218   -0.8403   -2.5251 C   0  0  0  0  0  0  0  0  0  0  0  0
    3.5192   -0.3077   -1.6974 C   0  0  1  0  0  0  0  0  0  0  0  0
    3.3923   -0.7852   -0.2184 C   0  0  0  0  0  0  0  0  0  0  0  0
    3.5685   -2.2935   -0.0117 C   0  0  0  0  0  0  0  0  0  0  0  0
    4.8862   -2.7961   -0.5859 C   0  0  2  0  0  0  0  0  0  0  0  0
    4.9727   -3.8887   -0.4819 H   0  0  0  0  0  0  0  0  0  0  0  0
    5.9347   -2.2011    0.2525 O   0  0  0  0  0  0  0  0  0  0  0  0
    7.4466   -2.7723    0.1122 S   0  0  1  0  0  0  0  0  0  0  0  0
    7.3946   -4.2272    0.1312 O   0  0  0  0  0  0  0  0  0  0  0  0
    8.1795   -2.0475   -0.9006 O   0  0  0  0  0  0  0  0  0  0  0  0
    7.9964   -2.2303    1.5310 O   0  0  0  0  0  0  0  0  0  0  0  0
    5.0453   -2.3774   -2.0485 C   0  0  0  0  0  0  0  0  0  0  0  0
    4.8130   -0.8971   -2.2752 C   0  0  0  0  0  0  0  0  0  0  0  0
    5.7118   -0.1710   -2.9550 C   0  0  0  0  0  0  0  0  0  0  0  0
    5.5816    1.2912   -3.2537 C   0  0  0  0  0  0  0  0  0  0  0  0
    4.1722    1.8445   -2.9990 C   0  0  1  0  0  0  0  0  0  0  0  0
    3.5697    1.2631   -1.6992 C   0  0  1  0  0  0  0  0  0  0  0  0
    2.2048    1.9133   -1.4000 C   0  0  0  0  0  0  0  0  0  0  0  0
    2.2664    3.4436   -1.3762 C   0  0  0  0  0  0  0  0  0  0  0  0
    2.7949    4.0440   -2.7009 C   0  0  1  0  0  0  0  0  0  0  0  0
    1.7675    3.8902   -3.8295 C   0  0  0  0  0  0  0  0  0  0  0  0
    3.2165    5.5450   -2.5139 C   0  0  1  0  0  0  0  0  0  0  0  0
    2.1296    6.4178   -1.9147 C   0  0  0  0  0  0  0  0  0  0  0  0
    1.1141    6.6835   -2.5347 O   0  0  0  0  0  0  0  0  0  0  0  0
    2.2624    6.9930   -0.5084 C   0  0  0  0  0  0  0  0  0  0  0  0
    1.1332    7.7193   -0.1559 O   0  0  0  0  0  0  0  0  0  0  0  0
    4.5820    5.4961   -1.7916 C   0  0  0  0  0  0  0  0  0  0  0  0
    5.1901    4.1098   -2.1278 C   0  0  0  0  0  0  0  0  0  0  0  0
    4.1652    3.3922   -3.0438 C   0  0  1  0  0  0  0  0  0  0  0  0
    2.3647   -1.9322   -2.6483 H   0  0  0  0  0  0  0  0  0  0  0  0
    2.3144   -0.4080   -3.5373 H   0  0  0  0  0  0  0  0  0  0  0  0
    1.3582   -0.6094   -2.0462 H   0  0  0  0  0  0  0  0  0  0  0  0
    2.4160   -0.4780    0.1891 H   0  0  0  0  0  0  0  0  0  0  0  0
    4.1618   -0.2682    0.3774 H   0  0  0  0  0  0  0  0  0  0  0  0
    2.7579   -2.8592   -0.5008 H   0  0  0  0  0  0  0  0  0  0  0  0
    3.5194   -2.5394    1.0613 H   0  0  0  0  0  0  0  0  0  0  0  0
    7.6555   -2.8081    2.2359 H   0  0  0  0  0  0  0  0  0  0  0  0
    4.3105   -2.9757   -2.6182 H   0  0  0  0  0  0  0  0  0  0  0  0
    6.0351   -2.6699   -2.4280 H   0  0  0  0  0  0  0  0  0  0  0  0
    6.6291   -0.6620   -3.2984 H   0  0  0  0  0  0  0  0  0  0  0  0
    5.8782    1.4882   -4.3002 H   0  0  0  0  0  0  0  0  0  0  0  0
    6.3253    1.8332   -2.6408 H   0  0  0  0  0  0  0  0  0  0  0  0
    3.5320    1.5016   -3.8318 H   0  0  0  0  0  0  0  0  0  0  0  0
    4.2536    1.5390   -0.8749 H   0  0  0  0  0  0  0  0  0  0  0  0
    1.8156    1.5568   -0.4327 H   0  0  0  0  0  0  0  0  0  0  0  0
    1.4697    1.5990   -2.1566 H   0  0  0  0  0  0  0  0  0  0  0  0
    2.9127    3.7569   -0.5384 H   0  0  0  0  0  0  0  0  0  0  0  0
    1.2636    3.8500   -1.1596 H   0  0  0  0  0  0  0  0  0  0  0  0
    0.8481    4.4504   -3.6062 H   0  0  0  0  0  0  0  0  0  0  0  0
    1.4970    2.8374   -3.9992 H   0  0  0  0  0  0  0  0  0  0  0  0
    2.1710    4.2841   -4.7766 H   0  0  0  0  0  0  0  0  0  0  0  0
    3.3628    5.9419   -3.5332 H   0  0  0  0  0  0  0  0  0  0  0  0
    3.1831    7.6143   -0.4817 H   0  0  0  0  0  0  0  0  0  0  0  0
    2.4475    6.1542    0.1947 H   0  0  0  0  0  0  0  0  0  0  0  0
    0.5563    7.6805   -0.9427 H   0  0  0  0  0  0  0  0  0  0  0  0
    4.4702    5.6051   -0.7032 H   0  0  0  0  0  0  0  0  0  0  0  0
    5.2293    6.3242   -2.1179 H   0  0  0  0  0  0  0  0  0  0  0  0
    5.3700    3.5369   -1.2049 H   0  0  0  0  0  0  0  0  0  0  0  0
    6.1673    4.2060   -2.6226 H   0  0  0  0  0  0  0  0  0  0  0  0
    4.4010    3.6808   -4.0843 H   0  0  0  0  0  0  0  0  0  0  0  0
  2  1  1  6
  1 30  1  0
  1 31  1  0
  1 32  1  0
  2  3  1  0
  2 13  1  0
  2 17  1  0
  3  4  1  0
  3 33  1  0
  3 34  1  0
  4  5  1  0
  4 35  1  0
  4 36  1  0
  5  6  1  6
  5  7  1  0
  5 12  1  0
  8  7  1  1
  8  9  2  0
  8 10  2  0
  8 11  1  0
 11 37  1  0
 12 13  1  0
 12 38  1  0
 12 39  1  0
 13 14  2  0
 14 15  1  0
 14 40  1  0
 15 16  1  0
 15 41  1  0
 15 42  1  0
 16 17  1  0
 16 29  1  0
 16 43  1  6
 17 18  1  0
 17 44  1  1
 18 19  1  0
 18 45  1  0
 18 46  1  0
 19 20  1  0
 19 47  1  0
 19 48  1  0
 20 21  1  6
 20 22  1  0
 20 29  1  0
 21 49  1  0
 21 50  1  0
 21 51  1  0
 22 23  1  0
 22 27  1  0
 22 52  1  6
 23 24  2  0
 23 25  1  0
 25 26  1  0
 25 53  1  0
 25 54  1  0
 26 55  1  0
 27 28  1  0
 27 56  1  0
 27 57  1  0
 28 29  1  0
 28 58  1  0
 28 59  1  0
 29 60  1  6
M  END

