
     RDKit          3D

 40 40  0  0  0  0  0  0  0  0999 V2000
    1.1153    1.1323   -0.5790 C   0  0  0  0  0  0  0  0  0  0  0  0
    2.5779    0.6965   -0.4110 C   0  0  1  0  0  0  0  0  0  0  0  0
    3.4744    1.5071   -1.3610 C   0  0  0  0  0  0  0  0  0  0  0  0
    3.0682    0.7838    1.0648 C   0  0  1  0  0  0  0  0  0  0  0  0
    2.4634   -0.2645    2.0270 C   0  0  0  0  0  0  0  0  0  0  0  0
    1.0369   -0.0881    2.2776 N   0  0  0  0  0  0  0  0  0  0  0  0
    4.5870    0.5856    1.1261 C   0  0  0  0  0  0  0  0  0  0  0  0
    5.1049   -0.4817    0.8292 O   0  0  0  0  0  0  0  0  0  0  0  0
    5.3090    1.6680    1.5400 N   0  0  0  0  0  0  0  0  0  0  0  0
    6.7491    1.6686    1.6678 C   0  0  0  0  0  0  0  0  0  0  0  0
    7.2051    2.2030    3.0372 C   0  0  1  0  0  0  0  0  0  0  0  0
    6.7120    1.3236    4.1871 C   0  0  0  0  0  0  0  0  0  0  0  0
    8.7358    2.4392    3.0821 C   0  0  0  0  0  0  0  0  0  0  0  0
    8.8684    3.8069    3.7660 C   0  0  0  0  0  0  0  0  0  0  0  0
    7.6152    4.5197    3.2597 C   0  0  0  0  0  0  0  0  0  0  0  0
    6.6127    3.5157    3.2049 O   0  0  0  0  0  0  0  0  0  0  0  0
    0.7933    0.9977   -1.6250 H   0  0  0  0  0  0  0  0  0  0  0  0
    0.9999    2.2044   -0.3366 H   0  0  0  0  0  0  0  0  0  0  0  0
    0.4485    0.5655    0.0824 H   0  0  0  0  0  0  0  0  0  0  0  0
    2.6645   -0.3660   -0.7005 H   0  0  0  0  0  0  0  0  0  0  0  0
    3.5046    2.5722   -1.0714 H   0  0  0  0  0  0  0  0  0  0  0  0
    3.0825    1.4597   -2.3898 H   0  0  0  0  0  0  0  0  0  0  0  0
    4.5072    1.1287   -1.3831 H   0  0  0  0  0  0  0  0  0  0  0  0
    2.8244    1.7934    1.4495 H   0  0  0  0  0  0  0  0  0  0  0  0
    3.0725   -0.2498    2.9573 H   0  0  0  0  0  0  0  0  0  0  0  0
    2.6268   -1.2586    1.5815 H   0  0  0  0  0  0  0  0  0  0  0  0
    0.8682    0.7663    2.8107 H   0  0  0  0  0  0  0  0  0  0  0  0
    0.6834   -0.8555    2.8487 H   0  0  0  0  0  0  0  0  0  0  0  0
    4.8348    2.5301    1.7828 H   0  0  0  0  0  0  0  0  0  0  0  0
    7.2010    2.3007    0.8809 H   0  0  0  0  0  0  0  0  0  0  0  0
    7.0937    0.6370    1.5056 H   0  0  0  0  0  0  0  0  0  0  0  0
    7.0767    0.2903    4.0779 H   0  0  0  0  0  0  0  0  0  0  0  0
    5.6128    1.3011    4.2056 H   0  0  0  0  0  0  0  0  0  0  0  0
    7.0605    1.7218    5.1523 H   0  0  0  0  0  0  0  0  0  0  0  0
    9.1448    2.4872    2.0590 H   0  0  0  0  0  0  0  0  0  0  0  0
    9.2647    1.6332    3.6112 H   0  0  0  0  0  0  0  0  0  0  0  0
    9.8003    4.3338    3.5107 H   0  0  0  0  0  0  0  0  0  0  0  0
    8.8291    3.7014    4.8624 H   0  0  0  0  0  0  0  0  0  0  0  0
    7.7915    4.9583    2.2558 H   0  0  0  0  0  0  0  0  0  0  0  0
    7.2651    5.3279    3.9217 H   0  0  0  0  0  0  0  0  0  0  0  0
  1  2  1  0
  1 17  1  0
  1 18  1  0
  1 19  1  0
  2  3  1  0
  2  4  1  0
  2 20  1  6
  3 21  1  0
  3 22  1  0
  3 23  1  0
  4  5  1  0
  4  7  1  0
  4 24  1  1
  5  6  1  0
  5 25  1  0
  5 26  1  0
  6 27  1  0
  6 28  1  0
  7  8  2  0
  7  9  1  0
  9 10  1  0
  9 29  1  0
 11 10  1  6
 10 30  1  0
 10 31  1  0
 11 12  1  0
 11 13  1  0
 11 16  1  0
 12 32  1  0
 12 33  1  0
 12 34  1  0
 13 14  1  0
 13 35  1  0
 13 36  1  0
 14 15  1  0
 14 37  1  0
 14 38  1  0
 15 16  1  0
 15 39  1  0
 15 40  1  0
M  END

