
     RDKit          3D

 75 79  0  0  0  0  0  0  0  0999 V2000
    3.2853    0.6081   -4.0077 C   0  0  0  0  0  0  0  0  0  0  0  0
    2.6464    1.5984   -3.0338 C   0  0  0  0  0  0  0  0  0  0  0  0
    2.8556    1.2582   -1.5421 C   0  0  0  0  0  0  0  0  0  0  0  0
    4.2864    1.3183   -1.0766 C   0  0  0  0  0  0  0  0  0  0  0  0
    5.0383    2.4400   -0.8380 C   0  0  0  0  0  0  0  0  0  0  0  0
    6.3531    1.9706   -0.4276 C   0  0  0  0  0  0  0  0  0  0  0  0
    6.3926    0.6073   -0.3961 N   0  0  0  0  0  0  0  0  0  0  0  0
    5.1850    0.1831   -0.7762 C   0  0  0  0  0  0  0  0  0  0  0  0
    4.8535   -1.2191   -0.9720 C   0  0  0  0  0  0  0  0  0  0  0  0
    5.5720   -2.2914   -0.5272 C   0  0  0  0  0  0  0  0  0  0  0  0
    6.6152   -2.1468    0.4794 C   0  0  0  0  0  0  0  0  0  0  0  0
    7.9560   -2.2763    0.1705 N   0  0  0  0  0  0  0  0  0  0  0  0
    8.2859   -2.3795   -0.7818 H   0  0  0  0  0  0  0  0  0  0  0  0
    8.7105   -1.6626    1.1485 C   0  0  0  0  0  0  0  0  0  0  0  0
    7.8386   -1.3044    2.1770 C   0  0  0  0  0  0  0  0  0  0  0  0
    6.5217   -1.6066    1.7719 C   0  0  0  0  0  0  0  0  0  0  0  0
    5.2683   -1.3633    2.5645 C   0  0  0  0  0  0  0  0  0  0  0  0
    5.1228   -2.2422    3.8234 C   0  0  0  0  0  0  0  0  0  0  0  0
    4.9621   -3.7338    3.5295 C   0  0  0  0  0  0  0  0  0  0  0  0
   10.0413   -1.1325    0.8947 C   0  0  0  0  0  0  0  0  0  0  0  0
   10.1730    0.1903    0.9868 N   0  0  0  0  0  0  0  0  0  0  0  0
   11.4607    0.5034    0.6345 C   0  0  0  0  0  0  0  0  0  0  0  0
   11.8509    1.8536    0.5236 C   0  0  0  0  0  0  0  0  0  0  0  0
   13.1867    2.0625    0.3823 O   0  0  0  0  0  0  0  0  0  0  0  0
   11.0237    3.0137    0.5059 C   0  0  0  0  0  0  0  0  0  0  0  0
    9.6498    3.1933    0.3072 C   0  0  0  0  0  0  0  0  0  0  0  0
    8.6999    2.2205    0.1975 N   0  0  0  0  0  0  0  0  0  0  0  0
    8.9581    1.2387    0.4734 H   0  0  0  0  0  0  0  0  0  0  0  0
    7.4882    2.7471   -0.1532 C   0  0  0  0  0  0  0  0  0  0  0  0
    7.6672    4.1788   -0.2311 C   0  0  0  0  0  0  0  0  0  0  0  0
    8.9780    4.4739    0.0547 C   0  0  0  0  0  0  0  0  0  0  0  0
    9.6221    5.8293    0.1012 C   0  0  0  0  0  0  0  0  0  0  0  0
    9.8597    6.3866    1.5232 C   0  0  0  0  0  0  0  0  0  0  0  0
    8.5784    6.6778    2.3039 C   0  0  0  0  0  0  0  0  0  0  0  0
   12.2068   -0.7169    0.3393 C   0  0  0  0  0  0  0  0  0  0  0  0
   13.6520   -0.8669   -0.0521 C   0  0  0  0  0  0  0  0  0  0  0  0
   13.9725   -0.5100   -1.5204 C   0  0  0  0  0  0  0  0  0  0  0  0
   13.3107   -1.4238   -2.5517 C   0  0  0  0  0  0  0  0  0  0  0  0
   11.2812   -1.7376    0.4765 C   0  0  0  0  0  0  0  0  0  0  0  0
    3.1102    0.9086   -5.0532 H   0  0  0  0  0  0  0  0  0  0  0  0
    2.8674   -0.4053   -3.8821 H   0  0  0  0  0  0  0  0  0  0  0  0
    4.3750    0.5401   -3.8587 H   0  0  0  0  0  0  0  0  0  0  0  0
    1.5605    1.6550   -3.2273 H   0  0  0  0  0  0  0  0  0  0  0  0
    3.0439    2.6108   -3.2242 H   0  0  0  0  0  0  0  0  0  0  0  0
    2.4349    0.2592   -1.3372 H   0  0  0  0  0  0  0  0  0  0  0  0
    2.2565    1.9634   -0.9409 H   0  0  0  0  0  0  0  0  0  0  0  0
    4.7218    3.4784   -0.9361 H   0  0  0  0  0  0  0  0  0  0  0  0
    3.9962   -1.4176   -1.6234 H   0  0  0  0  0  0  0  0  0  0  0  0
    5.3653   -3.2782   -0.9622 H   0  0  0  0  0  0  0  0  0  0  0  0
    8.1473   -0.8333    3.1083 H   0  0  0  0  0  0  0  0  0  0  0  0
    4.3904   -1.5129    1.9150 H   0  0  0  0  0  0  0  0  0  0  0  0
    5.2470   -0.3028    2.8717 H   0  0  0  0  0  0  0  0  0  0  0  0
    4.2504   -1.8847    4.3989 H   0  0  0  0  0  0  0  0  0  0  0  0
    6.0004   -2.0869    4.4759 H   0  0  0  0  0  0  0  0  0  0  0  0
    4.0649   -3.9255    2.9165 H   0  0  0  0  0  0  0  0  0  0  0  0
    4.8611   -4.3174    4.4589 H   0  0  0  0  0  0  0  0  0  0  0  0
    5.8296   -4.1294    2.9772 H   0  0  0  0  0  0  0  0  0  0  0  0
   13.3504    2.9861    0.1500 H   0  0  0  0  0  0  0  0  0  0  0  0
   11.5860    3.9531    0.5315 H   0  0  0  0  0  0  0  0  0  0  0  0
    6.8866    4.8892   -0.4975 H   0  0  0  0  0  0  0  0  0  0  0  0
    8.9920    6.5393   -0.4603 H   0  0  0  0  0  0  0  0  0  0  0  0
   10.5884    5.7945   -0.4315 H   0  0  0  0  0  0  0  0  0  0  0  0
   10.4530    7.3130    1.4304 H   0  0  0  0  0  0  0  0  0  0  0  0
   10.4862    5.6775    2.0918 H   0  0  0  0  0  0  0  0  0  0  0  0
    7.9511    7.4193    1.7805 H   0  0  0  0  0  0  0  0  0  0  0  0
    8.8067    7.0822    3.3027 H   0  0  0  0  0  0  0  0  0  0  0  0
    7.9722    5.7686    2.4429 H   0  0  0  0  0  0  0  0  0  0  0  0
   13.9537   -1.9128    0.1300 H   0  0  0  0  0  0  0  0  0  0  0  0
   14.2757   -0.2374    0.6008 H   0  0  0  0  0  0  0  0  0  0  0  0
   15.0691   -0.5482   -1.6476 H   0  0  0  0  0  0  0  0  0  0  0  0
   13.6832    0.5379   -1.7045 H   0  0  0  0  0  0  0  0  0  0  0  0
   13.6251   -2.4732   -2.4184 H   0  0  0  0  0  0  0  0  0  0  0  0
   13.5781   -1.1258   -3.5785 H   0  0  0  0  0  0  0  0  0  0  0  0
   12.2123   -1.3958   -2.4702 H   0  0  0  0  0  0  0  0  0  0  0  0
   11.4692   -2.8035    0.3471 H   0  0  0  0  0  0  0  0  0  0  0  0
  1  2  1  0
  1 40  1  0
  1 41  1  0
  1 42  1  0
  2  3  1  0
  2 43  1  0
  2 44  1  0
  3  4  1  0
  3 45  1  0
  3 46  1  0
  4  5  2  0
  4  8  1  0
  5  6  1  0
  5 47  1  0
  6  7  2  0
  6 29  1  0
  7  8  1  0
  8  9  2  0
  9 10  1  0
  9 48  1  0
 10 11  2  0
 10 49  1  0
 11 12  1  0
 11 16  1  0
 12 13  1  0
 12 14  1  0
 14 15  1  0
 14 20  2  0
 15 16  2  0
 15 50  1  0
 16 17  1  0
 17 18  1  0
 17 51  1  0
 17 52  1  0
 18 19  1  0
 18 53  1  0
 18 54  1  0
 19 55  1  0
 19 56  1  0
 19 57  1  0
 20 21  1  0
 20 39  1  0
 21 22  2  0
 22 23  1  0
 22 35  1  0
 23 24  1  0
 23 25  2  0
 24 58  1  0
 25 26  1  0
 25 59  1  0
 26 27  1  0
 26 31  2  0
 27 28  1  0
 27 29  1  0
 29 30  2  0
 30 31  1  0
 30 60  1  0
 31 32  1  0
 32 33  1  0
 32 61  1  0
 32 62  1  0
 33 34  1  0
 33 63  1  0
 33 64  1  0
 34 65  1  0
 34 66  1  0
 34 67  1  0
 35 36  1  0
 35 39  2  0
 36 37  1  0
 36 68  1  0
 36 69  1  0
 37 38  1  0
 37 70  1  0
 37 71  1  0
 38 72  1  0
 38 73  1  0
 38 74  1  0
 39 75  1  0
M  END

