
     RDKit          3D

 22 22  0  0  0  0  0  0  0  0999 V2000
    2.5411   -2.2863    0.1942 C   0  0  0  0  0  0  0  0  0  0  0  0
    3.2430   -0.9804    0.0615 C   0  0  0  0  0  0  0  0  0  0  0  0
    4.5163   -0.5652    0.3280 C   0  0  0  0  0  0  0  0  0  0  0  0
    4.4971    0.8214   -0.0355 C   0  0  0  0  0  0  0  0  0  0  0  0
    5.6005    1.6618    0.0631 N   0  0  0  0  0  0  0  0  0  0  0  0
    5.6621    3.0152   -0.1927 C   0  0  0  0  0  0  0  0  0  0  0  0
    4.7223    3.6916   -0.5416 O   0  0  0  0  0  0  0  0  0  0  0  0
    7.0793    3.6328   -0.0711 C   0  0  1  0  0  0  0  0  0  0  0  0
    7.0092    5.1431    0.1359 C   0  0  0  0  0  0  0  0  0  0  0  0
    8.2035    2.7903    1.1351 S   0  0  0  0  0  0  0  0  0  0  0  0
    3.3178    1.1997   -0.4795 N   0  0  0  0  0  0  0  0  0  0  0  0
    2.5314    0.0540   -0.4141 O   0  0  0  0  0  0  0  0  0  0  0  0
    3.2247   -3.0528    0.5827 H   0  0  0  0  0  0  0  0  0  0  0  0
    2.1524   -2.6212   -0.7810 H   0  0  0  0  0  0  0  0  0  0  0  0
    1.6818   -2.2000    0.8788 H   0  0  0  0  0  0  0  0  0  0  0  0
    5.3458   -1.1476    0.7209 H   0  0  0  0  0  0  0  0  0  0  0  0
    6.4531    1.2467    0.4305 H   0  0  0  0  0  0  0  0  0  0  0  0
    7.5783    3.4210   -1.0339 H   0  0  0  0  0  0  0  0  0  0  0  0
    6.5613    5.3868    1.1123 H   0  0  0  0  0  0  0  0  0  0  0  0
    6.3742    5.5940   -0.6395 H   0  0  0  0  0  0  0  0  0  0  0  0
    8.0141    5.5857    0.0914 H   0  0  0  0  0  0  0  0  0  0  0  0
    7.5205    3.1424    2.2513 H   0  0  0  0  0  0  0  0  0  0  0  0
  1  2  1  0
  1 13  1  0
  1 14  1  0
  1 15  1  0
  2  3  2  0
  2 12  1  0
  3  4  1  0
  3 16  1  0
  4  5  1  0
  4 11  2  0
  5  6  1  0
  5 17  1  0
  6  7  2  0
  6  8  1  0
  8  9  1  0
  8 10  1  0
  8 18  1  6
  9 19  1  0
  9 20  1  0
  9 21  1  0
 10 22  1  0
 11 12  1  0
M  END

