
     RDKit          3D

 42 42  0  0  0  0  0  0  0  0999 V2000
    3.6790   -0.1571    3.2785 C   0  0  0  0  0  0  0  0  0  0  0  0
    4.1455    0.1136    1.8497 C   0  0  0  0  0  0  0  0  0  0  0  0
    3.0332    0.5268    0.8818 C   0  0  1  0  0  0  0  0  0  0  0  0
    2.4819    1.8024    1.2327 O   0  0  0  0  0  0  0  0  0  0  0  0
    1.2160    1.9648    1.7348 C   0  0  0  0  0  0  0  0  0  0  0  0
    0.3995    0.9149    2.1698 C   0  0  0  0  0  0  0  0  0  0  0  0
   -0.8639    1.2347    2.6691 C   0  0  0  0  0  0  0  0  0  0  0  0
   -1.6431    0.2272    3.0886 F   0  0  0  0  0  0  0  0  0  0  0  0
   -1.3387    2.5368    2.7532 C   0  0  0  0  0  0  0  0  0  0  0  0
   -0.5083    3.5824    2.3200 C   0  0  0  0  0  0  0  0  0  0  0  0
   -1.0039    5.0156    2.3548 C   0  0  0  0  0  0  0  0  0  0  0  0
   -1.9209    5.2636    3.4510 N   0  0  0  0  0  0  0  0  0  0  0  0
   -2.5011    6.5970    3.4680 C   0  0  0  0  0  0  0  0  0  0  0  0
   -3.5588    6.7786    4.5674 C   0  0  1  0  0  0  0  0  0  0  0  0
   -2.9775    6.5914    5.9751 C   0  0  0  0  0  0  0  0  0  0  0  0
   -4.2380    8.1465    4.4308 C   0  0  0  0  0  0  0  0  0  0  0  0
    0.7644    3.2907    1.8190 C   0  0  0  0  0  0  0  0  0  0  0  0
    3.5810    0.6180   -0.5575 C   0  0  0  0  0  0  0  0  0  0  0  0
    4.0945   -0.3242   -1.0968 O   0  0  0  0  0  0  0  0  0  0  0  0
    3.4492    1.8138   -1.1380 O   0  0  0  0  0  0  0  0  0  0  0  0
    4.5329   -0.4353    3.9154 H   0  0  0  0  0  0  0  0  0  0  0  0
    2.9533   -0.9860    3.3190 H   0  0  0  0  0  0  0  0  0  0  0  0
    3.2047    0.7295    3.7272 H   0  0  0  0  0  0  0  0  0  0  0  0
    4.6190   -0.7816    1.4172 H   0  0  0  0  0  0  0  0  0  0  0  0
    4.9101    0.9094    1.8433 H   0  0  0  0  0  0  0  0  0  0  0  0
    2.2454   -0.2421    0.8557 H   0  0  0  0  0  0  0  0  0  0  0  0
    0.7047   -0.1297    2.1571 H   0  0  0  0  0  0  0  0  0  0  0  0
   -2.3301    2.7446    3.1553 H   0  0  0  0  0  0  0  0  0  0  0  0
   -1.5450    5.2209    1.4111 H   0  0  0  0  0  0  0  0  0  0  0  0
   -0.1253    5.6995    2.3445 H   0  0  0  0  0  0  0  0  0  0  0  0
   -1.4544    5.0664    4.3355 H   0  0  0  0  0  0  0  0  0  0  0  0
   -2.9788    6.7651    2.4863 H   0  0  0  0  0  0  0  0  0  0  0  0
   -1.7320    7.3997    3.5716 H   0  0  0  0  0  0  0  0  0  0  0  0
   -4.3190    5.9930    4.4064 H   0  0  0  0  0  0  0  0  0  0  0  0
   -2.1693    7.3177    6.1721 H   0  0  0  0  0  0  0  0  0  0  0  0
   -2.5709    5.5781    6.1249 H   0  0  0  0  0  0  0  0  0  0  0  0
   -3.7519    6.7414    6.7444 H   0  0  0  0  0  0  0  0  0  0  0  0
   -3.5143    8.9674    4.5742 H   0  0  0  0  0  0  0  0  0  0  0  0
   -5.0334    8.2724    5.1824 H   0  0  0  0  0  0  0  0  0  0  0  0
   -4.6947    8.2745    3.4358 H   0  0  0  0  0  0  0  0  0  0  0  0
    1.4318    4.0909    1.4910 H   0  0  0  0  0  0  0  0  0  0  0  0
    3.0188    2.4000   -0.4866 H   0  0  0  0  0  0  0  0  0  0  0  0
  1  2  1  0
  1 21  1  0
  1 22  1  0
  1 23  1  0
  2  3  1  0
  2 24  1  0
  2 25  1  0
  3  4  1  0
  3 18  1  0
  3 26  1  6
  4  5  1  0
  5  6  2  0
  5 17  1  0
  6  7  1  0
  6 27  1  0
  7  8  1  0
  7  9  2  0
  9 10  1  0
  9 28  1  0
 10 11  1  0
 10 17  2  0
 11 12  1  0
 11 29  1  0
 11 30  1  0
 12 13  1  0
 12 31  1  0
 13 14  1  0
 13 32  1  0
 13 33  1  0
 14 15  1  0
 14 16  1  0
 14 34  1  6
 15 35  1  0
 15 36  1  0
 15 37  1  0
 16 38  1  0
 16 39  1  0
 16 40  1  0
 17 41  1  0
 18 19  2  0
 18 20  1  0
 20 42  1  0
M  END

