
     RDKit          3D

 76 81  0  0  0  0  0  0  0  0999 V2000
   -0.7043    0.8612   -0.3264 C   0  0  0  0  0  0  0  0  0  0  0  0
    0.6937    0.7390   -0.8697 C   0  0  0  0  0  0  0  0  0  0  0  0
    1.3950    1.9027   -1.1667 C   0  0  0  0  0  0  0  0  0  0  0  0
    2.7220    1.8954   -1.6679 C   0  0  0  0  0  0  0  0  0  0  0  0
    3.4152    3.0449   -1.9437 N   0  0  0  0  0  0  0  0  0  0  0  0
    2.9379    4.3792   -1.9943 C   0  0  0  0  0  0  0  0  0  0  0  0
    1.7789    4.7094   -2.7162 C   0  0  0  0  0  0  0  0  0  0  0  0
    1.3279    6.0218   -2.7883 C   0  0  0  0  0  0  0  0  0  0  0  0
    2.0434    7.0553   -2.1519 C   0  0  0  0  0  0  0  0  0  0  0  0
    1.5679    8.3625   -2.2197 N   0  0  0  0  0  0  0  0  0  0  0  0
    2.3751    9.4496   -1.9506 N   0  0  0  0  0  0  0  0  0  0  0  0
    2.3822    9.9202   -0.6203 C   0  0  0  0  0  0  0  0  0  0  0  0
    1.5959    9.5804    0.4436 C   0  0  0  0  0  0  0  0  0  0  0  0
    1.8700   10.3521    1.6252 C   0  0  0  0  0  0  0  0  0  0  0  0
    2.8737   11.2794    1.4481 C   0  0  0  0  0  0  0  0  0  0  0  0
    3.4108   12.1676    2.3443 N   0  0  0  0  0  0  0  0  0  0  0  0
    2.8760   12.3168    3.6897 C   0  0  0  0  0  0  0  0  0  0  0  0
    3.5521   13.5968    4.2035 C   0  0  0  0  0  0  0  0  0  0  0  0
    4.8786   13.6364    3.4293 C   0  0  0  0  0  0  0  0  0  0  0  0
    4.4934   13.0929    2.0469 C   0  0  0  0  0  0  0  0  0  0  0  0
    3.4826   11.2338   -0.2133 S   0  0  0  0  0  0  0  0  0  0  0  0
    3.2175    6.7252   -1.4508 C   0  0  0  0  0  0  0  0  0  0  0  0
    3.6702    5.4038   -1.3550 C   0  0  0  0  0  0  0  0  0  0  0  0
    4.9230    5.0822   -0.5780 C   0  0  0  0  0  0  0  0  0  0  0  0
    3.3607    0.6438   -1.8625 C   0  0  0  0  0  0  0  0  0  0  0  0
    2.6835   -0.5198   -1.5762 C   0  0  0  0  0  0  0  0  0  0  0  0
    1.3496   -0.5223   -1.0872 C   0  0  0  0  0  0  0  0  0  0  0  0
    0.8636   -1.7912   -0.8784 N   0  0  0  0  0  0  0  0  0  0  0  0
   -0.3266   -1.9322   -0.4482 N   0  0  0  0  0  0  0  0  0  0  0  0
   -0.7045   -3.2479   -0.2751 C   0  0  0  0  0  0  0  0  0  0  0  0
   -0.0431   -4.3664   -0.4763 N   0  0  0  0  0  0  0  0  0  0  0  0
   -0.8519   -5.3972   -0.1580 C   0  0  0  0  0  0  0  0  0  0  0  0
   -0.1936   -7.0896   -0.3444 S   0  0  1  0  0  0  0  0  0  0  0  0
    0.0181   -7.3198   -1.7772 O   0  0  0  0  0  0  0  0  0  0  0  0
    0.9048   -7.2387    0.6159 O   0  0  0  0  0  0  0  0  0  0  0  0
   -1.6006   -8.1321    0.2123 C   0  0  0  0  0  0  0  0  0  0  0  0
   -1.2050   -9.5768    0.1082 C   0  0  0  0  0  0  0  0  0  0  0  0
   -0.5589  -10.2159    1.1781 C   0  0  0  0  0  0  0  0  0  0  0  0
   -0.1607  -11.5498    1.0691 C   0  0  0  0  0  0  0  0  0  0  0  0
   -0.3948  -12.2574   -0.1140 C   0  0  0  0  0  0  0  0  0  0  0  0
   -1.0237  -11.6234   -1.1900 C   0  0  0  0  0  0  0  0  0  0  0  0
   -1.4220  -10.2895   -1.0816 C   0  0  0  0  0  0  0  0  0  0  0  0
   -2.0769   -5.2142    0.2718 N   0  0  0  0  0  0  0  0  0  0  0  0
   -2.3323   -3.5569    0.3129 S   0  0  0  0  0  0  0  0  0  0  0  0
   -0.9871    1.9195   -0.2250 H   0  0  0  0  0  0  0  0  0  0  0  0
   -0.7985    0.3653    0.6512 H   0  0  0  0  0  0  0  0  0  0  0  0
   -1.4311    0.3520   -0.9767 H   0  0  0  0  0  0  0  0  0  0  0  0
    0.9087    2.8619   -0.9858 H   0  0  0  0  0  0  0  0  0  0  0  0
    4.3998    2.9155   -2.1497 H   0  0  0  0  0  0  0  0  0  0  0  0
    1.2330    3.9236   -3.2419 H   0  0  0  0  0  0  0  0  0  0  0  0
    0.4228    6.2556   -3.3558 H   0  0  0  0  0  0  0  0  0  0  0  0
    0.8575    8.5454   -2.9214 H   0  0  0  0  0  0  0  0  0  0  0  0
    3.3001    9.3874   -2.3799 H   0  0  0  0  0  0  0  0  0  0  0  0
    0.8413    8.7965    0.3879 H   0  0  0  0  0  0  0  0  0  0  0  0
    1.3534   10.2031    2.5727 H   0  0  0  0  0  0  0  0  0  0  0  0
    3.1212   11.4364    4.3189 H   0  0  0  0  0  0  0  0  0  0  0  0
    1.7738   12.4003    3.6723 H   0  0  0  0  0  0  0  0  0  0  0  0
    3.6856   13.5960    5.2955 H   0  0  0  0  0  0  0  0  0  0  0  0
    2.9374   14.4749    3.9446 H   0  0  0  0  0  0  0  0  0  0  0  0
    5.6152   12.9659    3.9024 H   0  0  0  0  0  0  0  0  0  0  0  0
    5.3247   14.6408    3.3796 H   0  0  0  0  0  0  0  0  0  0  0  0
    5.3345   12.5790    1.5474 H   0  0  0  0  0  0  0  0  0  0  0  0
    4.1621   13.9066    1.3674 H   0  0  0  0  0  0  0  0  0  0  0  0
    3.7735    7.5101   -0.9361 H   0  0  0  0  0  0  0  0  0  0  0  0
    5.2780    5.9581   -0.0173 H   0  0  0  0  0  0  0  0  0  0  0  0
    5.7490    4.7641   -1.2402 H   0  0  0  0  0  0  0  0  0  0  0  0
    4.7525    4.2615    0.1373 H   0  0  0  0  0  0  0  0  0  0  0  0
    4.3844    0.6106   -2.2452 H   0  0  0  0  0  0  0  0  0  0  0  0
    3.1502   -1.4958   -1.7220 H   0  0  0  0  0  0  0  0  0  0  0  0
   -2.4447   -7.8657   -0.4367 H   0  0  0  0  0  0  0  0  0  0  0  0
   -1.8181   -7.8150    1.2403 H   0  0  0  0  0  0  0  0  0  0  0  0
   -0.3609   -9.6592    2.0972 H   0  0  0  0  0  0  0  0  0  0  0  0
    0.3377  -12.0377    1.9106 H   0  0  0  0  0  0  0  0  0  0  0  0
   -0.0837  -13.3019   -0.1988 H   0  0  0  0  0  0  0  0  0  0  0  0
   -1.2020  -12.1691   -2.1200 H   0  0  0  0  0  0  0  0  0  0  0  0
   -1.8989   -9.7905   -1.9286 H   0  0  0  0  0  0  0  0  0  0  0  0
  1  2  1  0
  1 45  1  0
  1 46  1  0
  1 47  1  0
  2  3  2  0
  2 27  1  0
  3  4  1  0
  3 48  1  0
  4  5  1  0
  4 25  2  0
  5  6  1  0
  5 49  1  0
  6  7  2  0
  6 23  1  0
  7  8  1  0
  7 50  1  0
  8  9  2  0
  8 51  1  0
  9 10  1  0
  9 22  1  0
 10 11  1  0
 10 52  1  0
 11 12  1  0
 11 53  1  0
 12 13  2  0
 12 21  1  0
 13 14  1  0
 13 54  1  0
 14 15  2  0
 14 55  1  0
 15 16  1  0
 15 21  1  0
 16 17  1  0
 16 20  1  0
 17 18  1  0
 17 56  1  0
 17 57  1  0
 18 19  1  0
 18 58  1  0
 18 59  1  0
 19 20  1  0
 19 60  1  0
 19 61  1  0
 20 62  1  0
 20 63  1  0
 22 23  2  0
 22 64  1  0
 23 24  1  0
 24 65  1  0
 24 66  1  0
 24 67  1  0
 25 26  1  0
 25 68  1  0
 26 27  2  0
 26 69  1  0
 27 28  1  0
 28 29  2  0
 29 30  1  0
 30 31  2  0
 30 44  1  0
 31 32  1  0
 32 33  1  0
 32 43  2  0
 33 34  2  0
 33 35  2  0
 33 36  1  1
 36 37  1  0
 36 70  1  0
 36 71  1  0
 37 38  2  0
 37 42  1  0
 38 39  1  0
 38 72  1  0
 39 40  2  0
 39 73  1  0
 40 41  1  0
 40 74  1  0
 41 42  2  0
 41 75  1  0
 42 76  1  0
 43 44  1  0
M  END

