
     RDKit          3D

 35 37  0  0  0  0  0  0  0  0999 V2000
    1.1167    0.2280    0.4991 C   0  0  0  0  0  0  0  0  0  0  0  0
    2.6143    0.1931    0.3240 C   0  0  0  0  0  0  0  0  0  0  0  0
    3.2685    1.1513   -0.4707 C   0  0  0  0  0  0  0  0  0  0  0  0
    4.6467    1.1160   -0.6563 C   0  0  0  0  0  0  0  0  0  0  0  0
    5.4287    0.1125   -0.0504 C   0  0  0  0  0  0  0  0  0  0  0  0
    6.8859    0.1672   -0.2440 C   0  0  0  0  0  0  0  0  0  0  0  0
    7.5265    1.2766   -0.4932 N   0  0  0  0  0  0  0  0  0  0  0  0
    8.8254    0.9178   -0.6132 N   0  0  0  0  0  0  0  0  0  0  0  0
    9.5455    1.6058   -0.7999 H   0  0  0  0  0  0  0  0  0  0  0  0
    9.0793   -0.4077   -0.4351 C   0  0  0  0  0  0  0  0  0  0  0  0
   10.5645   -1.1503   -0.5405 S   0  0  0  0  0  0  0  0  0  0  0  0
    7.7872   -0.9087   -0.1880 N   0  0  0  0  0  0  0  0  0  0  0  0
    7.3303   -2.1858   -0.0903 N   0  0  0  0  0  0  0  0  0  0  0  0
    8.1316   -3.1696    0.1264 C   0  0  0  0  0  0  0  0  0  0  0  0
    7.5850   -4.5347    0.1821 C   0  0  0  0  0  0  0  0  0  0  0  0
    6.2470   -4.7874   -0.1905 C   0  0  0  0  0  0  0  0  0  0  0  0
    5.7084   -6.0686   -0.1474 C   0  0  0  0  0  0  0  0  0  0  0  0
    6.5025   -7.1438    0.2695 C   0  0  0  0  0  0  0  0  0  0  0  0
    7.8298   -6.9278    0.6412 C   0  0  0  0  0  0  0  0  0  0  0  0
    8.3643   -5.6363    0.5968 C   0  0  0  0  0  0  0  0  0  0  0  0
   10.1863   -5.4234    1.1353 Br  0  0  0  0  0  0  0  0  0  0  0  0
    4.7842   -0.8441    0.7518 C   0  0  0  0  0  0  0  0  0  0  0  0
    3.4003   -0.7963    0.9316 C   0  0  0  0  0  0  0  0  0  0  0  0
    0.7625    1.2454    0.7306 H   0  0  0  0  0  0  0  0  0  0  0  0
    0.7867   -0.4407    1.3078 H   0  0  0  0  0  0  0  0  0  0  0  0
    0.6021   -0.0884   -0.4249 H   0  0  0  0  0  0  0  0  0  0  0  0
    2.6842    1.9390   -0.9551 H   0  0  0  0  0  0  0  0  0  0  0  0
    5.1389    1.8685   -1.2746 H   0  0  0  0  0  0  0  0  0  0  0  0
    9.2083   -3.0316    0.2645 H   0  0  0  0  0  0  0  0  0  0  0  0
    5.6460   -3.9396   -0.5241 H   0  0  0  0  0  0  0  0  0  0  0  0
    4.6703   -6.2341   -0.4449 H   0  0  0  0  0  0  0  0  0  0  0  0
    6.0916   -8.1559    0.3033 H   0  0  0  0  0  0  0  0  0  0  0  0
    8.4570   -7.7585    0.9680 H   0  0  0  0  0  0  0  0  0  0  0  0
    5.3641   -1.6226    1.2446 H   0  0  0  0  0  0  0  0  0  0  0  0
    2.9220   -1.5472    1.5667 H   0  0  0  0  0  0  0  0  0  0  0  0
  1  2  1  0
  1 24  1  0
  1 25  1  0
  1 26  1  0
  2  3  2  0
  2 23  1  0
  3  4  1  0
  3 27  1  0
  4  5  2  0
  4 28  1  0
  5  6  1  0
  5 22  1  0
  6  7  2  0
  6 12  1  0
  7  8  1  0
  8  9  1  0
  8 10  1  0
 10 11  2  0
 10 12  1  0
 12 13  1  0
 13 14  2  0
 14 15  1  0
 14 29  1  0
 15 16  2  0
 15 20  1  0
 16 17  1  0
 16 30  1  0
 17 18  2  0
 17 31  1  0
 18 19  1  0
 18 32  1  0
 19 20  2  0
 19 33  1  0
 20 21  1  0
 22 23  2  0
 22 34  1  0
 23 35  1  0
M  END

