
     RDKit          3D

 37 38  0  0  0  0  0  0  0  0999 V2000
    9.9094   -1.6428   -0.1078 C   0  0  0  0  0  0  0  0  0  0  0  0
    8.6163   -0.8484   -0.0706 C   0  0  0  0  0  0  0  0  0  0  0  0
    7.7199   -1.3570    0.9438 O   0  0  0  0  0  0  0  0  0  0  0  0
    6.8891   -2.3393    0.6094 C   0  0  0  0  0  0  0  0  0  0  0  0
    6.8077   -2.8502   -0.4786 O   0  0  0  0  0  0  0  0  0  0  0  0
    6.0572   -2.7599    1.8159 C   0  0  1  0  0  0  0  0  0  0  0  0
    5.8238   -1.7214    2.7965 C   0  0  0  0  0  0  0  0  0  0  0  0
    5.6398   -0.8901    3.5818 N   0  0  0  0  0  0  0  0  0  0  0  0
    4.9807   -3.8548    1.6303 C   0  0  1  0  0  0  0  0  0  0  0  0
    4.4811   -4.3606    0.3074 C   0  0  0  0  0  0  0  0  0  0  0  0
    4.7950   -5.6525   -0.1356 C   0  0  0  0  0  0  0  0  0  0  0  0
    4.2771   -6.1616   -1.3278 C   0  0  0  0  0  0  0  0  0  0  0  0
    3.4194   -5.3728   -2.0913 C   0  0  0  0  0  0  0  0  0  0  0  0
    2.7643   -6.0077   -3.6333 S   0  0  1  0  0  0  0  0  0  0  0  0
    3.0010   -7.4480   -3.6784 O   0  0  0  0  0  0  0  0  0  0  0  0
    1.4638   -5.4073   -3.8594 O   0  0  0  0  0  0  0  0  0  0  0  0
    3.7711   -5.3187   -4.7296 O   0  0  0  0  0  0  0  0  0  0  0  0
    3.0414   -4.0991   -1.6643 C   0  0  0  0  0  0  0  0  0  0  0  0
    3.5713   -3.6084   -0.4720 C   0  0  0  0  0  0  0  0  0  0  0  0
    2.9550   -1.9994    0.0535 S   0  0  1  0  0  0  0  0  0  0  0  0
    1.9995   -1.5282   -0.9399 O   0  0  0  0  0  0  0  0  0  0  0  0
    2.6450   -2.0585    1.4713 O   0  0  0  0  0  0  0  0  0  0  0  0
    4.2846   -1.0436   -0.0513 O   0  0  0  0  0  0  0  0  0  0  0  0
    6.2588   -4.2043    2.3239 C   0  0  1  0  0  0  0  0  0  0  0  0
    7.5445   -5.1696    1.5782 Cl  0  0  0  0  0  0  0  0  0  0  0  0
    6.1725   -4.4879    4.0655 Cl  0  0  0  0  0  0  0  0  0  0  0  0
   10.5987   -1.1944   -0.8407 H   0  0  0  0  0  0  0  0  0  0  0  0
    9.7227   -2.6851   -0.4060 H   0  0  0  0  0  0  0  0  0  0  0  0
   10.4021   -1.6381    0.8764 H   0  0  0  0  0  0  0  0  0  0  0  0
    8.1008   -0.8757   -1.0415 H   0  0  0  0  0  0  0  0  0  0  0  0
    8.7901    0.1970    0.2195 H   0  0  0  0  0  0  0  0  0  0  0  0
    4.1600   -3.7092    2.3403 H   0  0  0  0  0  0  0  0  0  0  0  0
    5.4599   -6.2749    0.4609 H   0  0  0  0  0  0  0  0  0  0  0  0
    4.5233   -7.1728   -1.6565 H   0  0  0  0  0  0  0  0  0  0  0  0
    4.4389   -5.9806   -4.9794 H   0  0  0  0  0  0  0  0  0  0  0  0
    2.3269   -3.5038   -2.2347 H   0  0  0  0  0  0  0  0  0  0  0  0
    4.3508   -0.7085   -0.9628 H   0  0  0  0  0  0  0  0  0  0  0  0
  1  2  1  0
  1 27  1  0
  1 28  1  0
  1 29  1  0
  2  3  1  0
  2 30  1  0
  2 31  1  0
  3  4  1  0
  4  5  2  0
  4  6  1  0
  6  7  1  1
  6  9  1  0
  6 24  1  0
  7  8  3  0
  9 10  1  0
  9 24  1  0
  9 32  1  1
 10 11  2  0
 10 19  1  0
 11 12  1  0
 11 33  1  0
 12 13  2  0
 12 34  1  0
 13 14  1  0
 13 18  1  0
 14 15  2  0
 14 16  2  0
 14 17  1  6
 17 35  1  0
 18 19  2  0
 18 36  1  0
 19 20  1  0
 20 21  2  0
 20 22  2  0
 20 23  1  1
 23 37  1  0
 24 25  1  6
 24 26  1  0
M  END

