
     RDKit          3D

 39 41  0  0  0  0  0  0  0  0999 V2000
    1.2332   -0.1592    0.9103 O   0  0  0  0  0  0  0  0  0  0  0  0
    2.3843    0.1815    1.1111 C   0  0  0  0  0  0  0  0  0  0  0  0
    2.7444    1.6055    1.4978 C   0  0  0  0  0  0  0  0  0  0  0  0
    2.6748    1.7992    3.0067 C   0  0  0  0  0  0  0  0  0  0  0  0
    1.4836    1.5511    3.7060 C   0  0  0  0  0  0  0  0  0  0  0  0
    1.4046    1.7418    5.0862 C   0  0  0  0  0  0  0  0  0  0  0  0
    2.5251    2.1881    5.8021 C   0  0  0  0  0  0  0  0  0  0  0  0
    2.5045    2.3932    7.1456 O   0  0  0  0  0  0  0  0  0  0  0  0
    3.7219    2.4367    5.1168 C   0  0  0  0  0  0  0  0  0  0  0  0
    3.7891    2.2398    3.7374 C   0  0  0  0  0  0  0  0  0  0  0  0
    3.3755   -0.7995    1.0301 N   0  0  0  0  0  0  0  0  0  0  0  0
    4.7625   -0.8069    1.1399 C   0  0  0  0  0  0  0  0  0  0  0  0
    5.4426   -2.0466    1.0453 C   0  0  0  0  0  0  0  0  0  0  0  0
    6.7543   -2.1294    1.1328 N   0  0  0  0  0  0  0  0  0  0  0  0
    7.4742   -1.0033    1.3179 C   0  0  0  0  0  0  0  0  0  0  0  0
    8.9476   -1.1282    1.4163 C   0  0  0  0  0  0  0  0  0  0  0  0
    9.5518   -2.3885    1.2529 C   0  0  0  0  0  0  0  0  0  0  0  0
   10.9327   -2.5463    1.3364 C   0  0  0  0  0  0  0  0  0  0  0  0
   11.7570   -1.4395    1.5892 C   0  0  0  0  0  0  0  0  0  0  0  0
   13.1059   -1.5325    1.6811 O   0  0  0  0  0  0  0  0  0  0  0  0
   11.1723   -0.1751    1.7576 C   0  0  0  0  0  0  0  0  0  0  0  0
    9.7916   -0.0283    1.6719 C   0  0  0  0  0  0  0  0  0  0  0  0
    6.7843    0.2201    1.4016 C   0  0  0  0  0  0  0  0  0  0  0  0
    5.4581    0.3140    1.3153 N   0  0  0  0  0  0  0  0  0  0  0  0
    1.9884    2.2351    1.0040 H   0  0  0  0  0  0  0  0  0  0  0  0
    3.7409    1.8736    1.1325 H   0  0  0  0  0  0  0  0  0  0  0  0
    0.6057    1.1972    3.1593 H   0  0  0  0  0  0  0  0  0  0  0  0
    0.4650    1.5445    5.6130 H   0  0  0  0  0  0  0  0  0  0  0  0
    1.6247    2.1880    7.4879 H   0  0  0  0  0  0  0  0  0  0  0  0
    4.5892    2.7830    5.6827 H   0  0  0  0  0  0  0  0  0  0  0  0
    4.7291    2.4306    3.2148 H   0  0  0  0  0  0  0  0  0  0  0  0
    2.9559   -1.7051    0.8337 H   0  0  0  0  0  0  0  0  0  0  0  0
    4.8817   -2.9783    0.8941 H   0  0  0  0  0  0  0  0  0  0  0  0
    8.9113   -3.2494    1.0575 H   0  0  0  0  0  0  0  0  0  0  0  0
   11.3787   -3.5376    1.2044 H   0  0  0  0  0  0  0  0  0  0  0  0
   13.3775   -2.4508    1.5505 H   0  0  0  0  0  0  0  0  0  0  0  0
   11.8198    0.6808    1.9575 H   0  0  0  0  0  0  0  0  0  0  0  0
    9.3743    0.9701    1.8144 H   0  0  0  0  0  0  0  0  0  0  0  0
    7.3193    1.1637    1.5391 H   0  0  0  0  0  0  0  0  0  0  0  0
  1  2  2  0
  2  3  1  0
  2 11  1  0
  3  4  1  0
  3 25  1  0
  3 26  1  0
  4  5  2  0
  4 10  1  0
  5  6  1  0
  5 27  1  0
  6  7  2  0
  6 28  1  0
  7  8  1  0
  7  9  1  0
  8 29  1  0
  9 10  2  0
  9 30  1  0
 10 31  1  0
 11 12  1  0
 11 32  1  0
 12 13  2  0
 12 24  1  0
 13 14  1  0
 13 33  1  0
 14 15  2  0
 15 16  1  0
 15 23  1  0
 16 17  2  0
 16 22  1  0
 17 18  1  0
 17 34  1  0
 18 19  2  0
 18 35  1  0
 19 20  1  0
 19 21  1  0
 20 36  1  0
 21 22  2  0
 21 37  1  0
 22 38  1  0
 23 24  2  0
 23 39  1  0
M  END

