
     RDKit          3D

 42 43  0  0  0  0  0  0  0  0999 V2000
    3.1318   -2.7066   -2.4723 C   0  0  0  0  0  0  0  0  0  0  0  0
    2.6505   -2.1117   -1.1475 C   0  0  0  0  0  0  0  0  0  0  0  0
    2.8752   -0.5880   -1.0432 C   0  0  1  0  0  0  0  0  0  0  0  0
    2.2619    0.2178   -2.1095 N   0  0  0  0  0  0  0  0  0  0  0  0
    0.8680   -0.0025   -2.5181 C   0  0  1  0  0  0  0  0  0  0  0  0
   -0.1058    0.4061   -1.4007 C   0  0  0  0  0  0  0  0  0  0  0  0
   -1.6063    0.3350   -1.7258 C   0  0  0  0  0  0  0  0  0  0  0  0
   -2.1013    1.4281   -2.6873 C   0  0  0  0  0  0  0  0  0  0  0  0
   -1.9136    1.1485   -4.1904 C   0  0  0  0  0  0  0  0  0  0  0  0
   -0.6417    0.3801   -4.5909 C   0  0  0  0  0  0  0  0  0  0  0  0
    0.6518    0.7490   -3.8471 C   0  0  0  0  0  0  0  0  0  0  0  0
    2.5921    0.0040    0.3461 C   0  0  0  0  0  0  0  0  0  0  0  0
    2.7421    1.3902    0.5275 C   0  0  0  0  0  0  0  0  0  0  0  0
    2.5499    1.9750    1.7783 C   0  0  0  0  0  0  0  0  0  0  0  0
    2.1956    1.1955    2.8850 C   0  0  0  0  0  0  0  0  0  0  0  0
    2.0437   -0.1784    2.7048 C   0  0  0  0  0  0  0  0  0  0  0  0
    1.5953   -1.1851    4.0692 Cl  0  0  0  0  0  0  0  0  0  0  0  0
    2.2400   -0.7772    1.4548 C   0  0  0  0  0  0  0  0  0  0  0  0
    2.9823   -3.7975   -2.4944 H   0  0  0  0  0  0  0  0  0  0  0  0
    4.2078   -2.5177   -2.6265 H   0  0  0  0  0  0  0  0  0  0  0  0
    2.5950   -2.2846   -3.3364 H   0  0  0  0  0  0  0  0  0  0  0  0
    3.1961   -2.6028   -0.3258 H   0  0  0  0  0  0  0  0  0  0  0  0
    1.5852   -2.3532   -0.9900 H   0  0  0  0  0  0  0  0  0  0  0  0
    3.9615   -0.4369   -1.1895 H   0  0  0  0  0  0  0  0  0  0  0  0
    2.8557    0.1823   -2.9333 H   0  0  0  0  0  0  0  0  0  0  0  0
    0.6738   -1.0761   -2.7394 H   0  0  0  0  0  0  0  0  0  0  0  0
    0.1448    1.4336   -1.0848 H   0  0  0  0  0  0  0  0  0  0  0  0
    0.0883   -0.2294   -0.5229 H   0  0  0  0  0  0  0  0  0  0  0  0
   -2.1504    0.4405   -0.7725 H   0  0  0  0  0  0  0  0  0  0  0  0
   -1.8750   -0.6674   -2.1076 H   0  0  0  0  0  0  0  0  0  0  0  0
   -1.5898    2.3694   -2.4191 H   0  0  0  0  0  0  0  0  0  0  0  0
   -3.1727    1.6186   -2.5065 H   0  0  0  0  0  0  0  0  0  0  0  0
   -1.9404    2.1135   -4.7262 H   0  0  0  0  0  0  0  0  0  0  0  0
   -2.7817    0.5799   -4.5676 H   0  0  0  0  0  0  0  0  0  0  0  0
   -0.4870    0.5239   -5.6734 H   0  0  0  0  0  0  0  0  0  0  0  0
   -0.8107   -0.7040   -4.4662 H   0  0  0  0  0  0  0  0  0  0  0  0
    0.7191    1.8374   -3.6725 H   0  0  0  0  0  0  0  0  0  0  0  0
    1.5050    0.4974   -4.5029 H   0  0  0  0  0  0  0  0  0  0  0  0
    2.9962    2.0035   -0.3388 H   0  0  0  0  0  0  0  0  0  0  0  0
    2.6741    3.0543    1.9006 H   0  0  0  0  0  0  0  0  0  0  0  0
    2.0392    1.6406    3.8688 H   0  0  0  0  0  0  0  0  0  0  0  0
    2.1067   -1.8551    1.3726 H   0  0  0  0  0  0  0  0  0  0  0  0
  1  2  1  0
  1 19  1  0
  1 20  1  0
  1 21  1  0
  2  3  1  0
  2 22  1  0
  2 23  1  0
  3  4  1  0
  3 12  1  0
  3 24  1  6
  4  5  1  0
  4 25  1  0
  5  6  1  0
  5 11  1  0
  5 26  1  6
  6  7  1  0
  6 27  1  0
  6 28  1  0
  7  8  1  0
  7 29  1  0
  7 30  1  0
  8  9  1  0
  8 31  1  0
  8 32  1  0
  9 10  1  0
  9 33  1  0
  9 34  1  0
 10 11  1  0
 10 35  1  0
 10 36  1  0
 11 37  1  0
 11 38  1  0
 12 13  2  0
 12 18  1  0
 13 14  1  0
 13 39  1  0
 14 15  2  0
 14 40  1  0
 15 16  1  0
 15 41  1  0
 16 17  1  0
 16 18  2  0
 18 42  1  0
M  END

