
     RDKit          3D

 54 56  0  0  0  0  0  0  0  0999 V2000
    3.8467    3.9409    1.2152 C   0  0  0  0  0  0  0  0  0  0  0  0
    3.7957    3.2209    0.0085 O   0  0  0  0  0  0  0  0  0  0  0  0
    4.2540    1.8865    0.1223 C   0  0  0  0  0  0  0  0  0  0  0  0
    4.0203    1.1491   -1.1852 C   0  0  0  0  0  0  0  0  0  0  0  0
    4.6710    1.7741   -2.3450 N   0  0  0  0  0  0  0  0  0  0  0  0
    3.8932    1.8503   -3.5075 C   0  0  0  0  0  0  0  0  0  0  0  0
    2.7315    1.4735   -3.5239 O   0  0  0  0  0  0  0  0  0  0  0  0
    4.4905    2.4242   -4.7421 C   0  0  0  0  0  0  0  0  0  0  0  0
    5.4890    3.3466   -4.9891 C   0  0  0  0  0  0  0  0  0  0  0  0
    5.6398    3.6839   -6.3658 C   0  0  0  0  0  0  0  0  0  0  0  0
    6.6547    4.6615   -6.8976 C   0  0  0  0  0  0  0  0  0  0  0  0
    4.7380    2.9993   -7.1658 C   0  0  0  0  0  0  0  0  0  0  0  0
    4.6118    3.0753   -8.6585 C   0  0  0  0  0  0  0  0  0  0  0  0
    3.7021    1.9797   -6.2295 S   0  0  0  0  0  0  0  0  0  0  0  0
    6.0911    1.7245   -2.3974 C   0  0  0  0  0  0  0  0  0  0  0  0
    6.8602    2.7826   -1.9431 C   0  0  0  0  0  0  0  0  0  0  0  0
    6.3046    3.8865   -1.3746 N   0  0  0  0  0  0  0  0  0  0  0  0
    8.2488    2.7453   -2.0250 N   0  0  0  0  0  0  0  0  0  0  0  0
    9.0793    3.7858   -1.3987 C   0  0  0  0  0  0  0  0  0  0  0  0
    9.1765    5.0815   -2.1844 C   0  0  0  0  0  0  0  0  0  0  0  0
    8.8643    6.3090   -1.5817 C   0  0  0  0  0  0  0  0  0  0  0  0
    8.9763    7.5074   -2.2968 C   0  0  0  0  0  0  0  0  0  0  0  0
    9.4035    7.4889   -3.6257 C   0  0  0  0  0  0  0  0  0  0  0  0
    9.7261    6.2692   -4.2333 C   0  0  0  0  0  0  0  0  0  0  0  0
    9.6166    5.0745   -3.5190 C   0  0  0  0  0  0  0  0  0  0  0  0
    8.9306    1.6666   -2.6206 C   0  0  0  0  0  0  0  0  0  0  0  0
   10.1411    1.6595   -2.7467 O   0  0  0  0  0  0  0  0  0  0  0  0
    8.1259    0.6331   -3.0262 N   0  0  0  0  0  0  0  0  0  0  0  0
    8.6043   -0.1582   -3.4486 H   0  0  0  0  0  0  0  0  0  0  0  0
    6.7191    0.5412   -2.9497 C   0  0  0  0  0  0  0  0  0  0  0  0
    6.1484   -0.4557   -3.3535 O   0  0  0  0  0  0  0  0  0  0  0  0
    3.4447    4.9470    1.0251 H   0  0  0  0  0  0  0  0  0  0  0  0
    4.8836    4.0359    1.5965 H   0  0  0  0  0  0  0  0  0  0  0  0
    3.2339    3.4611    2.0031 H   0  0  0  0  0  0  0  0  0  0  0  0
    3.6989    1.3561    0.9220 H   0  0  0  0  0  0  0  0  0  0  0  0
    5.3248    1.8746    0.4133 H   0  0  0  0  0  0  0  0  0  0  0  0
    2.9471    1.1168   -1.4082 H   0  0  0  0  0  0  0  0  0  0  0  0
    4.3711    0.1075   -1.0760 H   0  0  0  0  0  0  0  0  0  0  0  0
    6.0856    3.8103   -4.2055 H   0  0  0  0  0  0  0  0  0  0  0  0
    7.2496    5.1007   -6.0833 H   0  0  0  0  0  0  0  0  0  0  0  0
    6.1762    5.4912   -7.4458 H   0  0  0  0  0  0  0  0  0  0  0  0
    7.3572    4.1795   -7.5996 H   0  0  0  0  0  0  0  0  0  0  0  0
    5.5358    2.7332   -9.1564 H   0  0  0  0  0  0  0  0  0  0  0  0
    4.4306    4.1121   -8.9906 H   0  0  0  0  0  0  0  0  0  0  0  0
    3.7837    2.4560   -9.0324 H   0  0  0  0  0  0  0  0  0  0  0  0
    5.2879    3.8817   -1.2758 H   0  0  0  0  0  0  0  0  0  0  0  0
    6.7647    4.7843   -1.4646 H   0  0  0  0  0  0  0  0  0  0  0  0
   10.0778    3.3396   -1.3028 H   0  0  0  0  0  0  0  0  0  0  0  0
    8.6875    3.9794   -0.3894 H   0  0  0  0  0  0  0  0  0  0  0  0
    8.5406    6.3331   -0.5358 H   0  0  0  0  0  0  0  0  0  0  0  0
    8.7296    8.4552   -1.8116 H   0  0  0  0  0  0  0  0  0  0  0  0
    9.4910    8.4221   -4.1877 H   0  0  0  0  0  0  0  0  0  0  0  0
   10.0751    6.2504   -5.2689 H   0  0  0  0  0  0  0  0  0  0  0  0
    9.8920    4.1263   -3.9874 H   0  0  0  0  0  0  0  0  0  0  0  0
  1  2  1  0
  1 32  1  0
  1 33  1  0
  1 34  1  0
  2  3  1  0
  3  4  1  0
  3 35  1  0
  3 36  1  0
  4  5  1  0
  4 37  1  0
  4 38  1  0
  5  6  1  0
  5 15  1  0
  6  7  2  0
  6  8  1  0
  8  9  2  0
  8 14  1  0
  9 10  1  0
  9 39  1  0
 10 11  1  0
 10 12  2  0
 11 40  1  0
 11 41  1  0
 11 42  1  0
 12 13  1  0
 12 14  1  0
 13 43  1  0
 13 44  1  0
 13 45  1  0
 15 16  2  0
 15 30  1  0
 16 17  1  0
 16 18  1  0
 17 46  1  0
 17 47  1  0
 18 19  1  0
 18 26  1  0
 19 20  1  0
 19 48  1  0
 19 49  1  0
 20 21  2  0
 20 25  1  0
 21 22  1  0
 21 50  1  0
 22 23  2  0
 22 51  1  0
 23 24  1  0
 23 52  1  0
 24 25  2  0
 24 53  1  0
 25 54  1  0
 26 27  2  0
 26 28  1  0
 28 29  1  0
 28 30  1  0
 30 31  2  0
M  END

