
     RDKit          3D

 57 59  0  0  0  0  0  0  0  0999 V2000
    2.2906    0.1661    3.0418 C   0  0  0  0  0  0  0  0  0  0  0  0
    3.1868    1.2931    2.5687 C   0  0  0  0  0  0  0  0  0  0  0  0
    3.7204    0.9279    1.2950 O   0  0  0  0  0  0  0  0  0  0  0  0
    4.5684    1.7540    0.6436 C   0  0  0  0  0  0  0  0  0  0  0  0
    5.0071    2.9915    1.1161 C   0  0  0  0  0  0  0  0  0  0  0  0
    5.9214    3.7742    0.3710 C   0  0  0  0  0  0  0  0  0  0  0  0
    6.4204    5.0695    0.8061 C   0  0  0  0  0  0  0  0  0  0  0  0
    6.1716    5.8056    1.9183 C   0  0  0  0  0  0  0  0  0  0  0  0
    5.1297    5.4779    3.2999 S   0  0  0  0  0  0  0  0  0  0  0  0
    5.5458    7.0147    4.0853 C   0  0  0  0  0  0  0  0  0  0  0  0
    4.8967    7.4294    5.5393 S   0  0  0  0  0  0  0  0  0  0  0  0
    6.4362    7.7234    3.3103 N   0  0  0  0  0  0  0  0  0  0  0  0
    6.9475    9.0650    3.7195 C   0  0  1  0  0  0  0  0  0  0  0  0
    8.4619    9.0333    3.9382 C   0  0  0  0  0  0  0  0  0  0  0  0
    6.4238   10.1564    2.7891 C   0  0  0  0  0  0  0  0  0  0  0  0
    5.1188   10.6386    2.9891 C   0  0  0  0  0  0  0  0  0  0  0  0
    4.5914   11.6400    2.1708 C   0  0  0  0  0  0  0  0  0  0  0  0
    5.3663   12.1818    1.1408 C   0  0  0  0  0  0  0  0  0  0  0  0
    6.6666   11.7128    0.9364 C   0  0  0  0  0  0  0  0  0  0  0  0
    7.1913   10.7059    1.7522 C   0  0  0  0  0  0  0  0  0  0  0  0
    6.8404    7.1258    2.1005 C   0  0  0  0  0  0  0  0  0  0  0  0
    7.6295    7.6290    1.3306 O   0  0  0  0  0  0  0  0  0  0  0  0
    6.3826    3.2741   -0.8633 C   0  0  0  0  0  0  0  0  0  0  0  0
    5.9395    2.0431   -1.3459 C   0  0  0  0  0  0  0  0  0  0  0  0
    5.0343    1.2811   -0.6109 C   0  0  0  0  0  0  0  0  0  0  0  0
    4.6518    0.0488   -1.0734 O   0  0  0  0  0  0  0  0  0  0  0  0
    3.2520   -0.1819   -1.3560 C   0  0  1  0  0  0  0  0  0  0  0  0
    3.0648   -0.5142   -2.8396 C   0  0  0  0  0  0  0  0  0  0  0  0
    3.8569   -1.7312   -3.3176 C   0  0  0  0  0  0  0  0  0  0  0  0
    2.7233   -1.3133   -0.4597 C   0  0  0  0  0  0  0  0  0  0  0  0
    1.5602   -1.6182   -0.4488 O   0  0  0  0  0  0  0  0  0  0  0  0
    3.6516   -1.9481    0.2611 O   0  0  0  0  0  0  0  0  0  0  0  0
    1.8702    0.4119    4.0290 H   0  0  0  0  0  0  0  0  0  0  0  0
    2.8575   -0.7731    3.1235 H   0  0  0  0  0  0  0  0  0  0  0  0
    1.4611    0.0001    2.3382 H   0  0  0  0  0  0  0  0  0  0  0  0
    4.0174    1.4668    3.2770 H   0  0  0  0  0  0  0  0  0  0  0  0
    2.6243    2.2399    2.4733 H   0  0  0  0  0  0  0  0  0  0  0  0
    4.6429    3.3440    2.0781 H   0  0  0  0  0  0  0  0  0  0  0  0
    7.1267    5.5564    0.1247 H   0  0  0  0  0  0  0  0  0  0  0  0
    6.4707    9.2201    4.6966 H   0  0  0  0  0  0  0  0  0  0  0  0
    9.0132    8.7939    3.0201 H   0  0  0  0  0  0  0  0  0  0  0  0
    8.7145    8.2818    4.7020 H   0  0  0  0  0  0  0  0  0  0  0  0
    8.7963   10.0157    4.3040 H   0  0  0  0  0  0  0  0  0  0  0  0
    4.5125   10.2243    3.7996 H   0  0  0  0  0  0  0  0  0  0  0  0
    3.5752   12.0036    2.3437 H   0  0  0  0  0  0  0  0  0  0  0  0
    4.9585   12.9690    0.5012 H   0  0  0  0  0  0  0  0  0  0  0  0
    7.2790   12.1299    0.1326 H   0  0  0  0  0  0  0  0  0  0  0  0
    8.2014   10.3394    1.5680 H   0  0  0  0  0  0  0  0  0  0  0  0
    7.0914    3.8626   -1.4497 H   0  0  0  0  0  0  0  0  0  0  0  0
    6.2913    1.6486   -2.3010 H   0  0  0  0  0  0  0  0  0  0  0  0
    2.6712    0.7178   -1.1053 H   0  0  0  0  0  0  0  0  0  0  0  0
    3.3446    0.3790   -3.4232 H   0  0  0  0  0  0  0  0  0  0  0  0
    1.9848   -0.6719   -2.9924 H   0  0  0  0  0  0  0  0  0  0  0  0
    4.9358   -1.5948   -3.1472 H   0  0  0  0  0  0  0  0  0  0  0  0
    3.7032   -1.8949   -4.3952 H   0  0  0  0  0  0  0  0  0  0  0  0
    3.5436   -2.6503   -2.7964 H   0  0  0  0  0  0  0  0  0  0  0  0
    4.4909   -1.4679    0.1270 H   0  0  0  0  0  0  0  0  0  0  0  0
  1  2  1  0
  1 33  1  0
  1 34  1  0
  1 35  1  0
  2  3  1  0
  2 36  1  0
  2 37  1  0
  3  4  1  0
  4  5  2  0
  4 25  1  0
  5  6  1  0
  5 38  1  0
  6  7  1  0
  6 23  2  0
  7  8  2  0
  7 39  1  0
  8  9  1  0
  8 21  1  0
  9 10  1  0
 10 11  2  0
 10 12  1  0
 12 13  1  0
 12 21  1  0
 13 14  1  0
 13 15  1  0
 13 40  1  1
 14 41  1  0
 14 42  1  0
 14 43  1  0
 15 16  2  0
 15 20  1  0
 16 17  1  0
 16 44  1  0
 17 18  2  0
 17 45  1  0
 18 19  1  0
 18 46  1  0
 19 20  2  0
 19 47  1  0
 20 48  1  0
 21 22  2  0
 23 24  1  0
 23 49  1  0
 24 25  2  0
 24 50  1  0
 25 26  1  0
 26 27  1  0
 27 28  1  0
 27 30  1  0
 27 51  1  1
 28 29  1  0
 28 52  1  0
 28 53  1  0
 29 54  1  0
 29 55  1  0
 29 56  1  0
 30 31  2  0
 30 32  1  0
 32 57  1  0
M  END

