
     RDKit          3D

 53 56  0  0  0  0  0  0  0  0999 V2000
    6.0129    4.1415    0.9487 C   0  0  0  0  0  0  0  0  0  0  0  0
    5.6904    2.7733    1.0609 O   0  0  0  0  0  0  0  0  0  0  0  0
    4.4057    2.3537    0.8404 C   0  0  0  0  0  0  0  0  0  0  0  0
    3.3836    3.2530    0.5136 C   0  0  0  0  0  0  0  0  0  0  0  0
    2.0697    2.8105    0.3392 C   0  0  0  0  0  0  0  0  0  0  0  0
    1.7472    1.4632    0.4958 C   0  0  0  0  0  0  0  0  0  0  0  0
    0.3360    0.9534    0.3281 C   0  0  0  0  0  0  0  0  0  0  0  0
    2.7919    0.5780    0.8143 C   0  0  0  0  0  0  0  0  0  0  0  0
    4.1294    0.9628    0.9762 C   0  0  0  0  0  0  0  0  0  0  0  0
    5.2220   -0.0635    1.3664 C   0  0  1  0  0  0  0  0  0  0  0  0
    5.6135    0.2811    2.8416 C   0  0  0  0  0  0  0  0  0  0  0  0
    6.6276   -0.5660    3.4545 N   0  0  0  0  0  0  0  0  0  0  0  0
    6.3250   -1.5580    4.3273 C   0  0  0  0  0  0  0  0  0  0  0  0
    5.1140   -1.8822    4.7598 N   0  0  0  0  0  0  0  0  0  0  0  0
    5.2838   -2.9278    5.5995 N   0  0  0  0  0  0  0  0  0  0  0  0
    6.5070   -3.2681    5.7096 N   0  0  0  0  0  0  0  0  0  0  0  0
    7.2250   -2.4019    4.9125 N   0  0  0  0  0  0  0  0  0  0  0  0
    8.6324   -2.5098    4.7839 C   0  0  0  0  0  0  0  0  0  0  0  0
    9.2151   -3.7812    4.6823 C   0  0  0  0  0  0  0  0  0  0  0  0
   10.6005   -3.8945    4.5639 C   0  0  0  0  0  0  0  0  0  0  0  0
   11.4073   -2.7515    4.5327 C   0  0  0  0  0  0  0  0  0  0  0  0
   10.8217   -1.4875    4.6400 C   0  0  0  0  0  0  0  0  0  0  0  0
    9.4365   -1.3607    4.7777 C   0  0  0  0  0  0  0  0  0  0  0  0
    4.7406   -1.5359    1.2917 C   0  0  0  0  0  0  0  0  0  0  0  0
    4.5766   -2.0621   -0.1384 C   0  0  0  0  0  0  0  0  0  0  0  0
    5.7624   -1.9117   -0.8937 O   0  0  0  0  0  0  0  0  0  0  0  0
    6.1779   -0.5635   -0.9588 C   0  0  0  0  0  0  0  0  0  0  0  0
    6.4621    0.0122    0.4283 C   0  0  0  0  0  0  0  0  0  0  0  0
    7.0860    4.2270    1.1678 H   0  0  0  0  0  0  0  0  0  0  0  0
    5.4500    4.7580    1.6720 H   0  0  0  0  0  0  0  0  0  0  0  0
    5.8250    4.5273   -0.0691 H   0  0  0  0  0  0  0  0  0  0  0  0
    3.6005    4.3147    0.4019 H   0  0  0  0  0  0  0  0  0  0  0  0
    1.2913    3.5360    0.0869 H   0  0  0  0  0  0  0  0  0  0  0  0
   -0.3718    1.7775    0.1543 H   0  0  0  0  0  0  0  0  0  0  0  0
   -0.0028    0.4027    1.2213 H   0  0  0  0  0  0  0  0  0  0  0  0
    0.2556    0.2596   -0.5262 H   0  0  0  0  0  0  0  0  0  0  0  0
    2.5289   -0.4715    0.9433 H   0  0  0  0  0  0  0  0  0  0  0  0
    4.7162    0.2094    3.4705 H   0  0  0  0  0  0  0  0  0  0  0  0
    5.9698    1.3198    2.8723 H   0  0  0  0  0  0  0  0  0  0  0  0
    7.5827   -0.5013    3.1277 H   0  0  0  0  0  0  0  0  0  0  0  0
    8.5732   -4.6626    4.7071 H   0  0  0  0  0  0  0  0  0  0  0  0
   11.0533   -4.8862    4.4883 H   0  0  0  0  0  0  0  0  0  0  0  0
   12.4909   -2.8472    4.4319 H   0  0  0  0  0  0  0  0  0  0  0  0
   11.4459   -0.5905    4.6353 H   0  0  0  0  0  0  0  0  0  0  0  0
    8.9841   -0.3757    4.9098 H   0  0  0  0  0  0  0  0  0  0  0  0
    3.8248   -1.6991    1.8791 H   0  0  0  0  0  0  0  0  0  0  0  0
    5.5134   -2.1550    1.7720 H   0  0  0  0  0  0  0  0  0  0  0  0
    3.7365   -1.5589   -0.6571 H   0  0  0  0  0  0  0  0  0  0  0  0
    4.3527   -3.1402   -0.1184 H   0  0  0  0  0  0  0  0  0  0  0  0
    5.4130    0.0515   -1.4780 H   0  0  0  0  0  0  0  0  0  0  0  0
    7.0904   -0.5455   -1.5754 H   0  0  0  0  0  0  0  0  0  0  0  0
    6.8295    1.0417    0.3389 H   0  0  0  0  0  0  0  0  0  0  0  0
    7.2690   -0.5960    0.8731 H   0  0  0  0  0  0  0  0  0  0  0  0
  1  2  1  0
  1 29  1  0
  1 30  1  0
  1 31  1  0
  2  3  1  0
  3  4  2  0
  3  9  1  0
  4  5  1  0
  4 32  1  0
  5  6  2  0
  5 33  1  0
  6  7  1  0
  6  8  1  0
  7 34  1  0
  7 35  1  0
  7 36  1  0
  8  9  2  0
  8 37  1  0
  9 10  1  0
 10 11  1  1
 10 24  1  0
 10 28  1  0
 11 12  1  0
 11 38  1  0
 11 39  1  0
 12 13  1  0
 12 40  1  0
 13 14  2  0
 13 17  1  0
 14 15  1  0
 15 16  2  0
 16 17  1  0
 17 18  1  0
 18 19  2  0
 18 23  1  0
 19 20  1  0
 19 41  1  0
 20 21  2  0
 20 42  1  0
 21 22  1  0
 21 43  1  0
 22 23  2  0
 22 44  1  0
 23 45  1  0
 24 25  1  0
 24 46  1  0
 24 47  1  0
 25 26  1  0
 25 48  1  0
 25 49  1  0
 26 27  1  0
 27 28  1  0
 27 50  1  0
 27 51  1  0
 28 52  1  0
 28 53  1  0
M  END

