
     RDKit          3D

 23 24  0  0  0  0  0  0  0  0999 V2000
    4.3006    0.0229   -3.0766 Br  0  0  0  0  0  0  0  0  0  0  0  0
    5.1824    0.5854   -1.3686 C   0  0  0  0  0  0  0  0  0  0  0  0
    4.3497    1.5183   -0.5765 C   0  0  0  0  0  0  0  0  0  0  0  0
    4.3195    2.8999   -0.6331 C   0  0  0  0  0  0  0  0  0  0  0  0
    3.3695    3.2933    0.2834 N   0  0  0  0  0  0  0  0  0  0  0  0
    2.9140    4.6444    0.5363 C   0  0  0  0  0  0  0  0  0  0  0  0
    1.8802    5.1700   -0.4458 C   0  0  0  0  0  0  0  0  0  0  0  0
    1.3477    4.4134   -1.4941 C   0  0  0  0  0  0  0  0  0  0  0  0
    0.3984    5.0498   -2.2987 C   0  0  0  0  0  0  0  0  0  0  0  0
    0.0103    6.3095   -2.0911 N   0  0  0  0  0  0  0  0  0  0  0  0
    0.5838    6.9380   -1.0629 C   0  0  0  0  0  0  0  0  0  0  0  0
    1.4964    6.4342   -0.2328 N   0  0  0  0  0  0  0  0  0  0  0  0
    2.8731    2.1425    0.8435 C   0  0  0  0  0  0  0  0  0  0  0  0
    3.4397    1.0687    0.3526 N   0  0  0  0  0  0  0  0  0  0  0  0
    6.1345    1.0252   -1.6843 H   0  0  0  0  0  0  0  0  0  0  0  0
    5.3502   -0.3499   -0.8243 H   0  0  0  0  0  0  0  0  0  0  0  0
    4.8738    3.6160   -1.2355 H   0  0  0  0  0  0  0  0  0  0  0  0
    3.7738    5.3327    0.5387 H   0  0  0  0  0  0  0  0  0  0  0  0
    2.4837    4.6904    1.5490 H   0  0  0  0  0  0  0  0  0  0  0  0
    1.6551    3.3837   -1.6826 H   0  0  0  0  0  0  0  0  0  0  0  0
   -0.0631    4.5199   -3.1404 H   0  0  0  0  0  0  0  0  0  0  0  0
    0.2736    7.9746   -0.8821 H   0  0  0  0  0  0  0  0  0  0  0  0
    2.1035    2.1689    1.6164 H   0  0  0  0  0  0  0  0  0  0  0  0
  1  2  1  0
  2  3  1  0
  2 15  1  0
  2 16  1  0
  3  4  2  0
  3 14  1  0
  4  5  1  0
  4 17  1  0
  5  6  1  0
  5 13  1  0
  6  7  1  0
  6 18  1  0
  6 19  1  0
  7  8  2  0
  7 12  1  0
  8  9  1  0
  8 20  1  0
  9 10  2  0
  9 21  1  0
 10 11  1  0
 11 12  2  0
 11 22  1  0
 13 14  2  0
 13 23  1  0
M  END

