
     RDKit          3D

 28 28  0  0  0  0  0  0  0  0999 V2000
    1.9534   -0.3987    0.5171 C   0  0  0  0  0  0  0  0  0  0  0  0
    2.6436   -0.2145   -0.7479 N   0  0  0  0  0  0  0  0  0  0  0  0
    1.8237   -0.5456   -1.8991 C   0  0  0  0  0  0  0  0  0  0  0  0
    3.2046    1.0697   -0.8976 N   0  0  0  0  0  0  0  0  0  0  0  0
    4.5227    1.1959   -0.3168 C   0  0  0  0  0  0  0  0  0  0  0  0
    5.1395    2.5515   -0.6566 C   0  0  1  0  0  0  0  0  0  0  0  0
    5.2144    2.6958   -2.0107 F   0  0  0  0  0  0  0  0  0  0  0  0
    4.2756    3.5307   -0.2095 F   0  0  0  0  0  0  0  0  0  0  0  0
    6.5087    2.7709   -0.0435 C   0  0  0  0  0  0  0  0  0  0  0  0
    7.6598    2.4008   -0.7513 C   0  0  0  0  0  0  0  0  0  0  0  0
    8.9209    2.5655   -0.1729 C   0  0  0  0  0  0  0  0  0  0  0  0
    9.0392    3.1021    1.1128 C   0  0  0  0  0  0  0  0  0  0  0  0
    7.8919    3.4774    1.8183 C   0  0  0  0  0  0  0  0  0  0  0  0
    6.6293    3.3132    1.2428 C   0  0  0  0  0  0  0  0  0  0  0  0
    1.6053   -1.4395    0.6097 H   0  0  0  0  0  0  0  0  0  0  0  0
    1.0659    0.2681    0.6272 H   0  0  0  0  0  0  0  0  0  0  0  0
    2.6364   -0.2009    1.3577 H   0  0  0  0  0  0  0  0  0  0  0  0
    1.4905   -1.5936   -1.8286 H   0  0  0  0  0  0  0  0  0  0  0  0
    2.4183   -0.4217   -2.8144 H   0  0  0  0  0  0  0  0  0  0  0  0
    0.9172    0.0956   -1.9871 H   0  0  0  0  0  0  0  0  0  0  0  0
    2.5792    1.8069   -0.5534 H   0  0  0  0  0  0  0  0  0  0  0  0
    5.1674    0.4073   -0.7325 H   0  0  0  0  0  0  0  0  0  0  0  0
    4.5601    1.0928    0.7894 H   0  0  0  0  0  0  0  0  0  0  0  0
    7.5646    1.9953   -1.7605 H   0  0  0  0  0  0  0  0  0  0  0  0
    9.8153    2.2783   -0.7315 H   0  0  0  0  0  0  0  0  0  0  0  0
   10.0264    3.2319    1.5636 H   0  0  0  0  0  0  0  0  0  0  0  0
    7.9799    3.9053    2.8201 H   0  0  0  0  0  0  0  0  0  0  0  0
    5.7329    3.6190    1.7858 H   0  0  0  0  0  0  0  0  0  0  0  0
  1  2  1  0
  1 15  1  0
  1 16  1  0
  1 17  1  0
  2  3  1  0
  2  4  1  0
  3 18  1  0
  3 19  1  0
  3 20  1  0
  4  5  1  0
  4 21  1  0
  5  6  1  0
  5 22  1  0
  5 23  1  0
  6  7  1  6
  6  8  1  0
  6  9  1  0
  9 10  2  0
  9 14  1  0
 10 11  1  0
 10 24  1  0
 11 12  2  0
 11 25  1  0
 12 13  1  0
 12 26  1  0
 13 14  2  0
 13 27  1  0
 14 28  1  0
M  END

