
     RDKit          3D

 53 56  0  0  0  0  0  0  0  0999 V2000
    3.3384   -6.7338    2.0672 C   0  0  0  0  0  0  0  0  0  0  0  0
    3.6191   -7.0756    0.6213 C   0  0  0  0  0  0  0  0  0  0  0  0
    4.3076   -8.2616    0.3184 C   0  0  0  0  0  0  0  0  0  0  0  0
    4.5772   -8.6442   -0.9969 C   0  0  0  0  0  0  0  0  0  0  0  0
    4.1454   -7.8368   -2.0508 C   0  0  0  0  0  0  0  0  0  0  0  0
    3.4558   -6.6562   -1.7711 C   0  0  0  0  0  0  0  0  0  0  0  0
    3.1894   -6.2527   -0.4498 C   0  0  0  0  0  0  0  0  0  0  0  0
    2.4460   -4.9752   -0.2285 C   0  0  0  0  0  0  0  0  0  0  0  0
    2.9909   -3.9248    0.5317 C   0  0  0  0  0  0  0  0  0  0  0  0
    2.2805   -2.7335    0.6851 C   0  0  0  0  0  0  0  0  0  0  0  0
    1.0246   -2.5490    0.1023 C   0  0  0  0  0  0  0  0  0  0  0  0
    0.4664   -3.5895   -0.6624 C   0  0  0  0  0  0  0  0  0  0  0  0
   -0.7880   -3.5182   -1.2913 N   0  0  0  0  0  0  0  0  0  0  0  0
   -1.6820   -2.4782   -1.3027 C   0  0  0  0  0  0  0  0  0  0  0  0
   -1.4880   -1.4148   -0.7296 O   0  0  0  0  0  0  0  0  0  0  0  0
   -2.9660   -2.7018   -2.0801 C   0  0  0  0  0  0  0  0  0  0  0  0
   -3.8589   -1.6233   -2.0607 C   0  0  0  0  0  0  0  0  0  0  0  0
   -5.1031   -1.6335   -2.7177 C   0  0  0  0  0  0  0  0  0  0  0  0
   -5.9729   -0.5323   -2.6314 N   0  0  0  0  0  0  0  0  0  0  0  0
   -7.2909   -0.6288   -3.2399 C   0  0  0  0  0  0  0  0  0  0  0  0
   -8.2076    0.4709   -2.7044 C   0  0  0  0  0  0  0  0  0  0  0  0
   -7.6452    1.7530   -2.8686 O   0  0  0  0  0  0  0  0  0  0  0  0
   -6.4048    1.8474   -2.2002 C   0  0  0  0  0  0  0  0  0  0  0  0
   -5.4099    0.8155   -2.7203 C   0  0  0  0  0  0  0  0  0  0  0  0
   -5.4346   -2.8048   -3.4299 C   0  0  0  0  0  0  0  0  0  0  0  0
   -4.5673   -3.8975   -3.4500 C   0  0  0  0  0  0  0  0  0  0  0  0
   -3.3380   -3.8657   -2.7905 C   0  0  0  0  0  0  0  0  0  0  0  0
   -2.4939   -4.9480   -2.8291 O   0  0  0  0  0  0  0  0  0  0  0  0
    1.1890   -4.7883   -0.8189 C   0  0  0  0  0  0  0  0  0  0  0  0
    3.4010   -7.6333    2.6980 H   0  0  0  0  0  0  0  0  0  0  0  0
    2.3411   -6.2883    2.1972 H   0  0  0  0  0  0  0  0  0  0  0  0
    4.0646   -6.0059    2.4665 H   0  0  0  0  0  0  0  0  0  0  0  0
    4.6311   -8.9060    1.1413 H   0  0  0  0  0  0  0  0  0  0  0  0
    5.1174   -9.5736   -1.1959 H   0  0  0  0  0  0  0  0  0  0  0  0
    4.3466   -8.1211   -3.0869 H   0  0  0  0  0  0  0  0  0  0  0  0
    3.1263   -6.0139   -2.5918 H   0  0  0  0  0  0  0  0  0  0  0  0
    3.9798   -4.0346    0.9811 H   0  0  0  0  0  0  0  0  0  0  0  0
    2.7151   -1.9185    1.2702 H   0  0  0  0  0  0  0  0  0  0  0  0
    0.4720   -1.6215    0.2253 H   0  0  0  0  0  0  0  0  0  0  0  0
   -1.0690   -4.3476   -1.8068 H   0  0  0  0  0  0  0  0  0  0  0  0
   -3.5319   -0.7616   -1.4799 H   0  0  0  0  0  0  0  0  0  0  0  0
   -7.7405   -1.6022   -2.9918 H   0  0  0  0  0  0  0  0  0  0  0  0
   -7.2394   -0.5556   -4.3491 H   0  0  0  0  0  0  0  0  0  0  0  0
   -8.4160    0.2776   -1.6315 H   0  0  0  0  0  0  0  0  0  0  0  0
   -9.1637    0.4618   -3.2498 H   0  0  0  0  0  0  0  0  0  0  0  0
   -6.5453    1.7054   -1.1087 H   0  0  0  0  0  0  0  0  0  0  0  0
   -6.0197    2.8641   -2.3715 H   0  0  0  0  0  0  0  0  0  0  0  0
   -4.4886    0.8838   -2.1281 H   0  0  0  0  0  0  0  0  0  0  0  0
   -5.1484    1.0608   -3.7725 H   0  0  0  0  0  0  0  0  0  0  0  0
   -6.3691   -2.8799   -3.9847 H   0  0  0  0  0  0  0  0  0  0  0  0
   -4.8505   -4.7959   -4.0086 H   0  0  0  0  0  0  0  0  0  0  0  0
   -2.8896   -5.6570   -3.3519 H   0  0  0  0  0  0  0  0  0  0  0  0
    0.7529   -5.6016   -1.4062 H   0  0  0  0  0  0  0  0  0  0  0  0
  1  2  1  0
  1 30  1  0
  1 31  1  0
  1 32  1  0
  2  3  2  0
  2  7  1  0
  3  4  1  0
  3 33  1  0
  4  5  2  0
  4 34  1  0
  5  6  1  0
  5 35  1  0
  6  7  2  0
  6 36  1  0
  7  8  1  0
  8  9  2  0
  8 29  1  0
  9 10  1  0
  9 37  1  0
 10 11  2  0
 10 38  1  0
 11 12  1  0
 11 39  1  0
 12 13  1  0
 12 29  2  0
 13 14  1  0
 13 40  1  0
 14 15  2  0
 14 16  1  0
 16 17  2  0
 16 27  1  0
 17 18  1  0
 17 41  1  0
 18 19  1  0
 18 25  2  0
 19 20  1  0
 19 24  1  0
 20 21  1  0
 20 42  1  0
 20 43  1  0
 21 22  1  0
 21 44  1  0
 21 45  1  0
 22 23  1  0
 23 24  1  0
 23 46  1  0
 23 47  1  0
 24 48  1  0
 24 49  1  0
 25 26  1  0
 25 50  1  0
 26 27  2  0
 26 51  1  0
 27 28  1  0
 28 52  1  0
 29 53  1  0
M  END

