
     RDKit          3D

 39 40  0  0  0  0  0  0  0  0999 V2000
    0.3378   -3.3640   -4.2086 C   0  0  0  0  0  0  0  0  0  0  0  0
    1.8037   -3.7041   -3.9367 C   0  0  0  0  0  0  0  0  0  0  0  0
    2.6475   -2.4876   -3.5436 C   0  0  0  0  0  0  0  0  0  0  0  0
    4.1157   -2.8412   -3.2743 C   0  0  0  0  0  0  0  0  0  0  0  0
    4.9232   -1.6108   -2.8598 C   0  0  1  0  0  0  0  0  0  0  0  0
    4.6161   -0.7692   -3.5007 H   0  0  0  0  0  0  0  0  0  0  0  0
    4.6355   -1.1459   -1.4077 C   0  0  0  0  0  0  0  0  0  0  0  0
    4.0303   -1.8021   -0.6061 O   0  0  0  0  0  0  0  0  0  0  0  0
    5.0980    0.0801   -1.1244 O   0  0  0  0  0  0  0  0  0  0  0  0
    6.3905   -1.6797   -3.0966 N   0  0  0  0  0  0  0  0  0  0  0  0
    7.0218   -0.4908   -3.5146 C   0  0  0  0  0  0  0  0  0  0  0  0
    6.4245    0.5776   -3.5206 O   0  0  0  0  0  0  0  0  0  0  0  0
    8.4304   -0.7334   -3.8633 C   0  0  0  0  0  0  0  0  0  0  0  0
    9.3563    0.1189   -4.3998 C   0  0  0  0  0  0  0  0  0  0  0  0
    9.3180    1.4729   -4.8442 C   0  0  0  0  0  0  0  0  0  0  0  0
   10.3607    2.2299   -5.3642 C   0  0  0  0  0  0  0  0  0  0  0  0
    9.8267    3.5079   -5.6627 C   0  0  0  0  0  0  0  0  0  0  0  0
    8.4931    3.4603   -5.3134 C   0  0  0  0  0  0  0  0  0  0  0  0
    7.3915    4.4547   -5.3738 C   0  0  0  0  0  0  0  0  0  0  0  0
    8.1899    2.2393   -4.8237 O   0  0  0  0  0  0  0  0  0  0  0  0
    8.8472   -2.4024   -3.4389 S   0  0  0  0  0  0  0  0  0  0  0  0
    7.2121   -2.7745   -2.8696 C   0  0  0  0  0  0  0  0  0  0  0  0
    6.8638   -4.2160   -2.1717 S   0  0  0  0  0  0  0  0  0  0  0  0
   -0.2406   -4.2604   -4.4836 H   0  0  0  0  0  0  0  0  0  0  0  0
    0.2393   -2.6387   -5.0339 H   0  0  0  0  0  0  0  0  0  0  0  0
   -0.1405   -2.9188   -3.3203 H   0  0  0  0  0  0  0  0  0  0  0  0
    2.2454   -4.1808   -4.8310 H   0  0  0  0  0  0  0  0  0  0  0  0
    1.8657   -4.4585   -3.1325 H   0  0  0  0  0  0  0  0  0  0  0  0
    2.2129   -2.0250   -2.6409 H   0  0  0  0  0  0  0  0  0  0  0  0
    2.5869   -1.7269   -4.3452 H   0  0  0  0  0  0  0  0  0  0  0  0
    4.5658   -3.2719   -4.1837 H   0  0  0  0  0  0  0  0  0  0  0  0
    4.1776   -3.6043   -2.4889 H   0  0  0  0  0  0  0  0  0  0  0  0
    5.4936    0.4926   -1.9229 H   0  0  0  0  0  0  0  0  0  0  0  0
   10.3553   -0.3085   -4.5387 H   0  0  0  0  0  0  0  0  0  0  0  0
   11.3843    1.8879   -5.5054 H   0  0  0  0  0  0  0  0  0  0  0  0
   10.3487    4.3648   -6.0824 H   0  0  0  0  0  0  0  0  0  0  0  0
    7.7593    5.4089   -5.7739 H   0  0  0  0  0  0  0  0  0  0  0  0
    6.9662    4.6301   -4.3719 H   0  0  0  0  0  0  0  0  0  0  0  0
    6.5705    4.0947   -6.0161 H   0  0  0  0  0  0  0  0  0  0  0  0
  1  2  1  0
  1 24  1  0
  1 25  1  0
  1 26  1  0
  2  3  1  0
  2 27  1  0
  2 28  1  0
  3  4  1  0
  3 29  1  0
  3 30  1  0
  4  5  1  0
  4 31  1  0
  4 32  1  0
  5  6  1  6
  5  7  1  0
  5 10  1  0
  7  8  2  0
  7  9  1  0
  9 33  1  0
 10 11  1  0
 10 22  1  0
 11 12  2  0
 11 13  1  0
 13 14  2  0
 13 21  1  0
 14 15  1  0
 14 34  1  0
 15 16  2  0
 15 20  1  0
 16 17  1  0
 16 35  1  0
 17 18  2  0
 17 36  1  0
 18 19  1  0
 18 20  1  0
 19 37  1  0
 19 38  1  0
 19 39  1  0
 21 22  1  0
 22 23  2  0
M  END

