
     RDKit          3D

 39 40  0  0  0  0  0  0  0  0999 V2000
    0.8148    0.1007    0.1272 C   0  0  0  0  0  0  0  0  0  0  0  0
    2.3335   -0.0566   -0.0608 C   0  0  1  0  0  0  0  0  0  0  0  0
    3.0539    0.2839    1.2460 C   0  0  0  0  0  0  0  0  0  0  0  0
    2.6895   -1.4912   -0.4899 C   0  0  0  0  0  0  0  0  0  0  0  0
    2.3593   -1.7145   -1.8939 N   0  0  0  0  0  0  0  0  0  0  0  0
    1.8699   -2.9547   -2.2535 C   0  0  0  0  0  0  0  0  0  0  0  0
    1.6870   -3.8402   -1.4309 O   0  0  0  0  0  0  0  0  0  0  0  0
    1.5345   -3.2214   -3.7018 C   0  0  0  0  0  0  0  0  0  0  0  0
    1.8506   -4.4912   -4.2116 C   0  0  0  0  0  0  0  0  0  0  0  0
    1.5025   -4.8403   -5.5144 C   0  0  0  0  0  0  0  0  0  0  0  0
    0.8073   -3.9309   -6.3102 C   0  0  0  0  0  0  0  0  0  0  0  0
    0.4721   -4.2737   -7.5534 F   0  0  0  0  0  0  0  0  0  0  0  0
    0.4551   -2.6731   -5.8094 C   0  0  0  0  0  0  0  0  0  0  0  0
   -0.5189   -1.4651   -6.9020 Br  0  0  0  0  0  0  0  0  0  0  0  0
    0.8215   -2.3217   -4.5078 C   0  0  0  0  0  0  0  0  0  0  0  0
    3.0755   -0.7894   -2.7651 C   0  0  0  0  0  0  0  0  0  0  0  0
    2.7426    0.6791   -2.4224 C   0  0  2  0  0  0  0  0  0  0  0  0
    1.3530    1.0879   -2.9404 C   0  0  0  0  0  0  0  0  0  0  0  0
    3.8059    1.5950   -3.0351 C   0  0  0  0  0  0  0  0  0  0  0  0
    2.8612    0.8888   -1.0092 O   0  0  0  0  0  0  0  0  0  0  0  0
    0.4907   -0.4210    1.0413 H   0  0  0  0  0  0  0  0  0  0  0  0
    0.2437   -0.3221   -0.7102 H   0  0  0  0  0  0  0  0  0  0  0  0
    0.5574    1.1657    0.2259 H   0  0  0  0  0  0  0  0  0  0  0  0
    2.7664   -0.4125    2.0488 H   0  0  0  0  0  0  0  0  0  0  0  0
    2.7973    1.3066    1.5607 H   0  0  0  0  0  0  0  0  0  0  0  0
    4.1437    0.2344    1.1040 H   0  0  0  0  0  0  0  0  0  0  0  0
    2.1539   -2.2316    0.1156 H   0  0  0  0  0  0  0  0  0  0  0  0
    3.7742   -1.6567   -0.3430 H   0  0  0  0  0  0  0  0  0  0  0  0
    2.3653   -5.2059   -3.5675 H   0  0  0  0  0  0  0  0  0  0  0  0
    1.7508   -5.8175   -5.9337 H   0  0  0  0  0  0  0  0  0  0  0  0
    0.5229   -1.3465   -4.1254 H   0  0  0  0  0  0  0  0  0  0  0  0
    2.8556   -0.9941   -3.8186 H   0  0  0  0  0  0  0  0  0  0  0  0
    4.1629   -0.9402   -2.6192 H   0  0  0  0  0  0  0  0  0  0  0  0
    1.3467    1.1302   -4.0411 H   0  0  0  0  0  0  0  0  0  0  0  0
    1.0964    2.0861   -2.5563 H   0  0  0  0  0  0  0  0  0  0  0  0
    0.5660    0.3916   -2.6229 H   0  0  0  0  0  0  0  0  0  0  0  0
    3.8321    1.4973   -4.1317 H   0  0  0  0  0  0  0  0  0  0  0  0
    4.7993    1.3501   -2.6308 H   0  0  0  0  0  0  0  0  0  0  0  0
    3.5857    2.6429   -2.7831 H   0  0  0  0  0  0  0  0  0  0  0  0
  2  1  1  1
  1 21  1  0
  1 22  1  0
  1 23  1  0
  2  3  1  0
  2  4  1  0
  2 20  1  0
  3 24  1  0
  3 25  1  0
  3 26  1  0
  4  5  1  0
  4 27  1  0
  4 28  1  0
  5  6  1  0
  5 16  1  0
  6  7  2  0
  6  8  1  0
  8  9  2  0
  8 15  1  0
  9 10  1  0
  9 29  1  0
 10 11  2  0
 10 30  1  0
 11 12  1  0
 11 13  1  0
 13 14  1  0
 13 15  2  0
 15 31  1  0
 16 17  1  0
 16 32  1  0
 16 33  1  0
 17 18  1  6
 17 19  1  0
 17 20  1  0
 18 34  1  0
 18 35  1  0
 18 36  1  0
 19 37  1  0
 19 38  1  0
 19 39  1  0
M  END

