
     RDKit          3D

170188  0  0  0  0  0  0  0  0999 V2000
    6.7221   -3.4559   -1.6810 N   0  0  0  0  0  0  0  0  0  0  0  0
    5.8989   -2.6356   -1.7137 C   0  0  0  0  0  0  0  0  0  0  0  0
    4.9067   -1.6000   -1.7815 C   0  0  0  0  0  0  0  0  0  0  0  0
    3.7042   -1.7179   -1.1376 C   0  0  0  0  0  0  0  0  0  0  0  0
    3.1440   -2.7526   -0.2811 C   0  0  0  0  0  0  0  0  0  0  0  0
    3.7985   -3.9391    0.1295 C   0  0  0  0  0  0  0  0  0  0  0  0
    3.1699   -4.8613    0.9555 C   0  0  0  0  0  0  0  0  0  0  0  0
    1.8511   -4.6549    1.4128 C   0  0  0  0  0  0  0  0  0  0  0  0
    1.2180   -5.5966    2.2507 N   0  0  0  0  0  0  0  0  0  0  0  0
    0.3305   -5.1665    3.2745 C   0  0  0  0  0  0  0  0  0  0  0  0
   -0.8964   -5.8215    3.4788 C   0  0  0  0  0  0  0  0  0  0  0  0
   -1.7578   -5.4087    4.4948 C   0  0  0  0  0  0  0  0  0  0  0  0
   -1.4250   -4.3274    5.3203 C   0  0  0  0  0  0  0  0  0  0  0  0
   -2.3367   -3.9254    6.3527 N   0  0  0  0  0  0  0  0  0  0  0  0
   -2.1301   -4.4187    7.6667 C   0  0  0  0  0  0  0  0  0  0  0  0
   -0.9021   -4.9838    8.0564 C   0  0  0  0  0  0  0  0  0  0  0  0
   -0.7083   -5.4690    9.3528 C   0  0  0  0  0  0  0  0  0  0  0  0
   -1.7254   -5.3791   10.3027 C   0  0  0  0  0  0  0  0  0  0  0  0
   -2.9486   -4.8129    9.9344 C   0  0  0  0  0  0  0  0  0  0  0  0
   -3.1626   -4.3601    8.6289 C   0  0  0  0  0  0  0  0  0  0  0  0
   -4.7950   -3.8330    8.1626 S   0  0  0  0  0  0  0  0  0  0  0  0
   -4.3703   -2.6548    6.9012 C   0  0  0  0  0  0  0  0  0  0  0  0
   -5.2361   -1.5833    6.6623 C   0  0  0  0  0  0  0  0  0  0  0  0
   -5.0257   -0.7214    5.5827 C   0  0  0  0  0  0  0  0  0  0  0  0
   -3.9239   -0.9320    4.7541 C   0  0  0  0  0  0  0  0  0  0  0  0
   -3.0325   -1.9779    5.0094 C   0  0  0  0  0  0  0  0  0  0  0  0
   -3.2342   -2.8599    6.0868 C   0  0  0  0  0  0  0  0  0  0  0  0
   -0.2039   -3.6680    5.1137 C   0  0  0  0  0  0  0  0  0  0  0  0
    0.6685   -4.0856    4.1093 C   0  0  0  0  0  0  0  0  0  0  0  0
    1.4560   -6.9885    2.0789 C   0  0  0  0  0  0  0  0  0  0  0  0
    1.6831   -7.8155    3.1935 C   0  0  0  0  0  0  0  0  0  0  0  0
    1.9023   -9.1825    3.0268 C   0  0  0  0  0  0  0  0  0  0  0  0
    1.9139   -9.7536    1.7456 C   0  0  0  0  0  0  0  0  0  0  0  0
    2.1448  -11.1551    1.5447 N   0  0  0  0  0  0  0  0  0  0  0  0
    1.0516  -12.0487    1.6797 C   0  0  0  0  0  0  0  0  0  0  0  0
   -0.1388  -11.6652    2.3243 C   0  0  0  0  0  0  0  0  0  0  0  0
   -1.2114  -12.5525    2.4506 C   0  0  0  0  0  0  0  0  0  0  0  0
   -1.1156  -13.8547    1.9609 C   0  0  0  0  0  0  0  0  0  0  0  0
    0.0627  -14.2542    1.3248 C   0  0  0  0  0  0  0  0  0  0  0  0
    1.1254  -13.3606    1.1606 C   0  0  0  0  0  0  0  0  0  0  0  0
    2.5159  -13.8582    0.1713 S   0  0  0  0  0  0  0  0  0  0  0  0
    3.7869  -12.8870    0.9467 C   0  0  0  0  0  0  0  0  0  0  0  0
    5.1036  -13.3566    0.9200 C   0  0  0  0  0  0  0  0  0  0  0  0
    6.1558  -12.5597    1.3786 C   0  0  0  0  0  0  0  0  0  0  0  0
    5.8730  -11.2915    1.8853 C   0  0  0  0  0  0  0  0  0  0  0  0
    4.5552  -10.8305    1.9508 C   0  0  0  0  0  0  0  0  0  0  0  0
    3.4853  -11.6163    1.4849 C   0  0  0  0  0  0  0  0  0  0  0  0
    1.6943   -8.9288    0.6350 C   0  0  0  0  0  0  0  0  0  0  0  0
    1.4599   -7.5637    0.7963 C   0  0  0  0  0  0  0  0  0  0  0  0
    1.1860   -3.4797    1.0095 C   0  0  0  0  0  0  0  0  0  0  0  0
    1.8235   -2.5582    0.1900 C   0  0  0  0  0  0  0  0  0  0  0  0
    5.2738   -0.4173   -2.6044 C   0  0  0  0  0  0  0  0  0  0  0  0
    4.5996    0.8165   -2.4896 C   0  0  0  0  0  0  0  0  0  0  0  0
    4.9426    1.9063   -3.2800 C   0  0  0  0  0  0  0  0  0  0  0  0
    5.9906    1.8322   -4.2214 C   0  0  0  0  0  0  0  0  0  0  0  0
    6.3851    2.9944   -5.0605 C   0  0  0  0  0  0  0  0  0  0  0  0
    7.1726    2.6795   -6.2189 C   0  0  0  0  0  0  0  0  0  0  0  0
    7.8107    2.3925   -7.1474 N   0  0  0  0  0  0  0  0  0  0  0  0
    6.0435    4.2852   -4.7573 C   0  0  0  0  0  0  0  0  0  0  0  0
    6.2947    5.5527   -5.4266 C   0  0  0  0  0  0  0  0  0  0  0  0
    6.9816    5.7264   -6.6523 C   0  0  0  0  0  0  0  0  0  0  0  0
    7.1687    6.9872   -7.2025 C   0  0  0  0  0  0  0  0  0  0  0  0
    6.6727    8.1452   -6.5664 C   0  0  0  0  0  0  0  0  0  0  0  0
    6.8618    9.4215   -7.1350 N   0  0  0  0  0  0  0  0  0  0  0  0
    6.8508    9.5890   -8.5479 C   0  0  0  0  0  0  0  0  0  0  0  0
    5.8584    8.9779   -9.3352 C   0  0  0  0  0  0  0  0  0  0  0  0
    5.8526    9.1445  -10.7196 C   0  0  0  0  0  0  0  0  0  0  0  0
    6.8247    9.9368  -11.3485 C   0  0  0  0  0  0  0  0  0  0  0  0
    6.8383   10.1320  -12.7696 N   0  0  0  0  0  0  0  0  0  0  0  0
    6.0140   11.1457  -13.3210 C   0  0  0  0  0  0  0  0  0  0  0  0
    4.9514   11.7093  -12.5912 C   0  0  0  0  0  0  0  0  0  0  0  0
    4.1459   12.7099  -13.1424 C   0  0  0  0  0  0  0  0  0  0  0  0
    4.3622   13.1560  -14.4460 C   0  0  0  0  0  0  0  0  0  0  0  0
    5.4082   12.6006  -15.1876 C   0  0  0  0  0  0  0  0  0  0  0  0
    6.2420   11.6268  -14.6297 C   0  0  0  0  0  0  0  0  0  0  0  0
    7.6735   11.0999  -15.5423 S   0  0  0  0  0  0  0  0  0  0  0  0
    7.8237    9.4430  -14.9156 C   0  0  0  0  0  0  0  0  0  0  0  0
    8.4032    8.4651  -15.7297 C   0  0  0  0  0  0  0  0  0  0  0  0
    8.6814    7.1910  -15.2280 C   0  0  0  0  0  0  0  0  0  0  0  0
    8.3536    6.8984  -13.9044 C   0  0  0  0  0  0  0  0  0  0  0  0
    7.7391    7.8590  -13.0961 C   0  0  0  0  0  0  0  0  0  0  0  0
    7.4600    9.1490  -13.5828 C   0  0  0  0  0  0  0  0  0  0  0  0
    7.8075   10.5528  -10.5633 C   0  0  0  0  0  0  0  0  0  0  0  0
    7.8275   10.3774   -9.1800 C   0  0  0  0  0  0  0  0  0  0  0  0
    7.0674   10.5585   -6.3062 C   0  0  0  0  0  0  0  0  0  0  0  0
    7.9475   10.5005   -5.2112 C   0  0  0  0  0  0  0  0  0  0  0  0
    8.1434   11.6191   -4.4022 C   0  0  0  0  0  0  0  0  0  0  0  0
    7.4819   12.8238   -4.6734 C   0  0  0  0  0  0  0  0  0  0  0  0
    7.7120   13.9572   -3.8244 N   0  0  0  0  0  0  0  0  0  0  0  0
    8.6776   14.9172   -4.2229 C   0  0  0  0  0  0  0  0  0  0  0  0
    9.1476   14.9832   -5.5473 C   0  0  0  0  0  0  0  0  0  0  0  0
   10.1007   15.9313   -5.9299 C   0  0  0  0  0  0  0  0  0  0  0  0
   10.5904   16.8560   -5.0079 C   0  0  0  0  0  0  0  0  0  0  0  0
   10.1277   16.8096   -3.6903 C   0  0  0  0  0  0  0  0  0  0  0  0
    9.2030   15.8397   -3.2911 C   0  0  0  0  0  0  0  0  0  0  0  0
    8.7993   15.7007   -1.5654 S   0  0  0  0  0  0  0  0  0  0  0  0
    7.1439   15.0682   -1.7046 C   0  0  0  0  0  0  0  0  0  0  0  0
    6.2283   15.3480   -0.6856 C   0  0  0  0  0  0  0  0  0  0  0  0
    4.9665   14.7477   -0.6739 C   0  0  0  0  0  0  0  0  0  0  0  0
    4.6222   13.8771   -1.7076 C   0  0  0  0  0  0  0  0  0  0  0  0
    5.5180   13.6221   -2.7498 C   0  0  0  0  0  0  0  0  0  0  0  0
    6.7953   14.2115   -2.7725 C   0  0  0  0  0  0  0  0  0  0  0  0
    6.6121   12.8867   -5.7721 C   0  0  0  0  0  0  0  0  0  0  0  0
    6.4001   11.7669   -6.5756 C   0  0  0  0  0  0  0  0  0  0  0  0
    5.9830    7.9870   -5.3473 C   0  0  0  0  0  0  0  0  0  0  0  0
    5.8079    6.7241   -4.7984 C   0  0  0  0  0  0  0  0  0  0  0  0
    6.6628    0.6007   -4.3366 C   0  0  0  0  0  0  0  0  0  0  0  0
    6.3201   -0.4912   -3.5432 C   0  0  0  0  0  0  0  0  0  0  0  0
    3.0147   -0.8861   -1.3022 H   0  0  0  0  0  0  0  0  0  0  0  0
    4.8199   -4.1444   -0.1864 H   0  0  0  0  0  0  0  0  0  0  0  0
    3.7111   -5.7577    1.2620 H   0  0  0  0  0  0  0  0  0  0  0  0
   -1.1748   -6.6574    2.8345 H   0  0  0  0  0  0  0  0  0  0  0  0
   -2.7113   -5.9178    4.6504 H   0  0  0  0  0  0  0  0  0  0  0  0
   -0.0886   -5.0551    7.3356 H   0  0  0  0  0  0  0  0  0  0  0  0
    0.2554   -5.9116    9.6164 H   0  0  0  0  0  0  0  0  0  0  0  0
   -1.5754   -5.7468   11.3201 H   0  0  0  0  0  0  0  0  0  0  0  0
   -3.7632   -4.7350   10.6588 H   0  0  0  0  0  0  0  0  0  0  0  0
   -6.0947   -1.4428    7.3236 H   0  0  0  0  0  0  0  0  0  0  0  0
   -5.7192    0.1011    5.3941 H   0  0  0  0  0  0  0  0  0  0  0  0
   -3.7412   -0.2738    3.9011 H   0  0  0  0  0  0  0  0  0  0  0  0
   -2.1732   -2.1153    4.3544 H   0  0  0  0  0  0  0  0  0  0  0  0
    0.0699   -2.8297    5.7582 H   0  0  0  0  0  0  0  0  0  0  0  0
    1.6230   -3.5748    3.9696 H   0  0  0  0  0  0  0  0  0  0  0  0
    1.6891   -7.3812    4.1949 H   0  0  0  0  0  0  0  0  0  0  0  0
    2.0802   -9.8156    3.8989 H   0  0  0  0  0  0  0  0  0  0  0  0
   -0.2343  -10.6569    2.7249 H   0  0  0  0  0  0  0  0  0  0  0  0
   -2.1243  -12.2156    2.9479 H   0  0  0  0  0  0  0  0  0  0  0  0
   -1.9466  -14.5555    2.0670 H   0  0  0  0  0  0  0  0  0  0  0  0
    0.1612  -15.2676    0.9277 H   0  0  0  0  0  0  0  0  0  0  0  0
    5.2994  -14.3521    0.5139 H   0  0  0  0  0  0  0  0  0  0  0  0
    7.1829  -12.9286    1.3348 H   0  0  0  0  0  0  0  0  0  0  0  0
    6.6798  -10.6482    2.2449 H   0  0  0  0  0  0  0  0  0  0  0  0
    4.3589   -9.8406    2.3605 H   0  0  0  0  0  0  0  0  0  0  0  0
    1.6956   -9.3738   -0.3621 H   0  0  0  0  0  0  0  0  0  0  0  0
    1.2760   -6.9362   -0.0777 H   0  0  0  0  0  0  0  0  0  0  0  0
    0.1612   -3.2975    1.3364 H   0  0  0  0  0  0  0  0  0  0  0  0
    1.2799   -1.6589   -0.1128 H   0  0  0  0  0  0  0  0  0  0  0  0
    3.7965    0.9396   -1.7610 H   0  0  0  0  0  0  0  0  0  0  0  0
    4.3700    2.8283   -3.1646 H   0  0  0  0  0  0  0  0  0  0  0  0
    5.4835    4.4026   -3.8261 H   0  0  0  0  0  0  0  0  0  0  0  0
    7.3931    4.8686   -7.1815 H   0  0  0  0  0  0  0  0  0  0  0  0
    7.7183    7.0830   -8.1401 H   0  0  0  0  0  0  0  0  0  0  0  0
    5.0884    8.3700   -8.8565 H   0  0  0  0  0  0  0  0  0  0  0  0
    5.0772    8.6661  -11.3221 H   0  0  0  0  0  0  0  0  0  0  0  0
    4.7554   11.3692  -11.5752 H   0  0  0  0  0  0  0  0  0  0  0  0
    3.3364   13.1320  -12.5418 H   0  0  0  0  0  0  0  0  0  0  0  0
    3.7287   13.9297  -14.8853 H   0  0  0  0  0  0  0  0  0  0  0  0
    5.6013   12.9362  -16.2096 H   0  0  0  0  0  0  0  0  0  0  0  0
    8.6546    8.7207  -16.7621 H   0  0  0  0  0  0  0  0  0  0  0  0
    9.1516    6.4403  -15.8670 H   0  0  0  0  0  0  0  0  0  0  0  0
    8.5653    5.9104  -13.4884 H   0  0  0  0  0  0  0  0  0  0  0  0
    7.4826    7.6024  -12.0691 H   0  0  0  0  0  0  0  0  0  0  0  0
    8.5690   11.1629  -11.0534 H   0  0  0  0  0  0  0  0  0  0  0  0
    8.6081   10.8509   -8.5817 H   0  0  0  0  0  0  0  0  0  0  0  0
    8.4823    9.5734   -4.9971 H   0  0  0  0  0  0  0  0  0  0  0  0
    8.8291   11.5725   -3.5537 H   0  0  0  0  0  0  0  0  0  0  0  0
    8.7721   14.2788   -6.2884 H   0  0  0  0  0  0  0  0  0  0  0  0
   10.4507   15.9455   -6.9650 H   0  0  0  0  0  0  0  0  0  0  0  0
   11.3270   17.6059   -5.3046 H   0  0  0  0  0  0  0  0  0  0  0  0
   10.4992   17.5200   -2.9476 H   0  0  0  0  0  0  0  0  0  0  0  0
    6.5241   16.0305    0.1150 H   0  0  0  0  0  0  0  0  0  0  0  0
    4.2659   14.9590    0.1369 H   0  0  0  0  0  0  0  0  0  0  0  0
    3.6425   13.3929   -1.7181 H   0  0  0  0  0  0  0  0  0  0  0  0
    5.2216   12.9474   -3.5519 H   0  0  0  0  0  0  0  0  0  0  0  0
    6.0877   13.8198   -5.9897 H   0  0  0  0  0  0  0  0  0  0  0  0
    5.7113   11.8253   -7.4203 H   0  0  0  0  0  0  0  0  0  0  0  0
    5.5788    8.8612   -4.8350 H   0  0  0  0  0  0  0  0  0  0  0  0
    5.2628    6.6320   -3.8549 H   0  0  0  0  0  0  0  0  0  0  0  0
    7.4764    0.4944   -5.0570 H   0  0  0  0  0  0  0  0  0  0  0  0
    6.8752   -1.4240   -3.6617 H   0  0  0  0  0  0  0  0  0  0  0  0
  1  2  3  0
  2  3  1  0
  3  4  2  0
  3 52  1  0
  4  5  1  0
  4109  1  0
  5  6  2  0
  5 51  1  0
  6  7  1  0
  6110  1  0
  7  8  2  0
  7111  1  0
  8  9  1  0
  8 50  1  0
  9 10  1  0
  9 30  1  0
 10 11  2  0
 10 29  1  0
 11 12  1  0
 11112  1  0
 12 13  2  0
 12113  1  0
 13 14  1  0
 13 28  1  0
 14 15  1  0
 14 27  1  0
 15 16  2  0
 15 20  1  0
 16 17  1  0
 16114  1  0
 17 18  2  0
 17115  1  0
 18 19  1  0
 18116  1  0
 19 20  2  0
 19117  1  0
 20 21  1  0
 21 22  1  0
 22 23  2  0
 22 27  1  0
 23 24  1  0
 23118  1  0
 24 25  2  0
 24119  1  0
 25 26  1  0
 25120  1  0
 26 27  2  0
 26121  1  0
 28 29  2  0
 28122  1  0
 29123  1  0
 30 31  2  0
 30 49  1  0
 31 32  1  0
 31124  1  0
 32 33  2  0
 32125  1  0
 33 34  1  0
 33 48  1  0
 34 35  1  0
 34 47  1  0
 35 36  2  0
 35 40  1  0
 36 37  1  0
 36126  1  0
 37 38  2  0
 37127  1  0
 38 39  1  0
 38128  1  0
 39 40  2  0
 39129  1  0
 40 41  1  0
 41 42  1  0
 42 43  2  0
 42 47  1  0
 43 44  1  0
 43130  1  0
 44 45  2  0
 44131  1  0
 45 46  1  0
 45132  1  0
 46 47  2  0
 46133  1  0
 48 49  2  0
 48134  1  0
 49135  1  0
 50 51  2  0
 50136  1  0
 51137  1  0
 52 53  2  0
 52108  1  0
 53 54  1  0
 53138  1  0
 54 55  2  0
 54139  1  0
 55 56  1  0
 55107  1  0
 56 57  1  0
 56 59  2  0
 57 58  3  0
 59 60  1  0
 59140  1  0
 60 61  2  0
 60106  1  0
 61 62  1  0
 61141  1  0
 62 63  2  0
 62142  1  0
 63 64  1  0
 63105  1  0
 64 65  1  0
 64 85  1  0
 65 66  2  0
 65 84  1  0
 66 67  1  0
 66143  1  0
 67 68  2  0
 67144  1  0
 68 69  1  0
 68 83  1  0
 69 70  1  0
 69 82  1  0
 70 71  2  0
 70 75  1  0
 71 72  1  0
 71145  1  0
 72 73  2  0
 72146  1  0
 73 74  1  0
 73147  1  0
 74 75  2  0
 74148  1  0
 75 76  1  0
 76 77  1  0
 77 78  2  0
 77 82  1  0
 78 79  1  0
 78149  1  0
 79 80  2  0
 79150  1  0
 80 81  1  0
 80151  1  0
 81 82  2  0
 81152  1  0
 83 84  2  0
 83153  1  0
 84154  1  0
 85 86  2  0
 85104  1  0
 86 87  1  0
 86155  1  0
 87 88  2  0
 87156  1  0
 88 89  1  0
 88103  1  0
 89 90  1  0
 89102  1  0
 90 91  2  0
 90 95  1  0
 91 92  1  0
 91157  1  0
 92 93  2  0
 92158  1  0
 93 94  1  0
 93159  1  0
 94 95  2  0
 94160  1  0
 95 96  1  0
 96 97  1  0
 97 98  2  0
 97102  1  0
 98 99  1  0
 98161  1  0
 99100  2  0
 99162  1  0
100101  1  0
100163  1  0
101102  2  0
101164  1  0
103104  2  0
103165  1  0
104166  1  0
105106  2  0
105167  1  0
106168  1  0
107108  2  0
107169  1  0
108170  1  0
M  END

