
     RDKit          3D

 42 42  0  0  0  0  0  0  0  0999 V2000
    0.6703   -0.1600   -0.2625 C   0  0  0  0  0  0  0  0  0  0  0  0
    2.1848   -0.0281   -0.1485 C   0  0  0  0  0  0  0  0  0  0  0  0
    2.7939   -1.3091    0.1809 N   0  0  0  0  0  0  0  0  0  0  0  0
    4.2423   -1.3151    0.3033 C   0  0  1  0  0  0  0  0  0  0  0  0
    4.7353   -0.6799    1.6393 C   0  0  0  0  0  0  0  0  0  0  0  0
    4.3114   -1.2812    2.9619 C   0  0  0  0  0  0  0  0  0  0  0  0
    5.1835   -2.0835    3.7161 C   0  0  0  0  0  0  0  0  0  0  0  0
    4.7873   -2.6188    4.9387 C   0  0  0  0  0  0  0  0  0  0  0  0
    5.6527   -3.3840    5.6244 F   0  0  0  0  0  0  0  0  0  0  0  0
    3.5223   -2.3775    5.4672 C   0  0  0  0  0  0  0  0  0  0  0  0
    2.6502   -1.5598    4.7464 C   0  0  0  0  0  0  0  0  0  0  0  0
    3.0539   -1.0223    3.5261 C   0  0  0  0  0  0  0  0  0  0  0  0
    2.2056   -0.1873    2.8996 F   0  0  0  0  0  0  0  0  0  0  0  0
    4.7853   -2.7410   -0.0603 C   0  0  1  0  0  0  0  0  0  0  0  0
    6.3187   -2.7801   -0.0057 C   0  0  0  0  0  0  0  0  0  0  0  0
    4.1630   -3.8577    0.8072 C   0  0  0  0  0  0  0  0  0  0  0  0
    4.5005   -5.2846    0.3689 C   0  0  0  0  0  0  0  0  0  0  0  0
    4.3082   -3.0416   -1.3920 O   0  0  0  0  0  0  0  0  0  0  0  0
    4.8972   -2.4191   -2.5075 C   0  0  0  0  0  0  0  0  0  0  0  0
    0.2058    0.8064   -0.5144 H   0  0  0  0  0  0  0  0  0  0  0  0
    0.2471   -0.5163    0.6889 H   0  0  0  0  0  0  0  0  0  0  0  0
    0.3894   -0.8802   -1.0503 H   0  0  0  0  0  0  0  0  0  0  0  0
    2.4184    0.6966    0.6464 H   0  0  0  0  0  0  0  0  0  0  0  0
    2.5976    0.4024   -1.0914 H   0  0  0  0  0  0  0  0  0  0  0  0
    2.5489   -1.9827   -0.5449 H   0  0  0  0  0  0  0  0  0  0  0  0
    4.6980   -0.6461   -0.4639 H   0  0  0  0  0  0  0  0  0  0  0  0
    4.3978    0.3685    1.6217 H   0  0  0  0  0  0  0  0  0  0  0  0
    5.8340   -0.6361    1.6105 H   0  0  0  0  0  0  0  0  0  0  0  0
    6.1914   -2.3005    3.3564 H   0  0  0  0  0  0  0  0  0  0  0  0
    3.2404   -2.8129    6.4273 H   0  0  0  0  0  0  0  0  0  0  0  0
    1.6546   -1.3193    5.1237 H   0  0  0  0  0  0  0  0  0  0  0  0
    6.6734   -2.8003    1.0344 H   0  0  0  0  0  0  0  0  0  0  0  0
    6.7754   -1.9072   -0.4976 H   0  0  0  0  0  0  0  0  0  0  0  0
    6.6970   -3.6861   -0.5008 H   0  0  0  0  0  0  0  0  0  0  0  0
    3.0718   -3.7195    0.8019 H   0  0  0  0  0  0  0  0  0  0  0  0
    4.4772   -3.7053    1.8486 H   0  0  0  0  0  0  0  0  0  0  0  0
    4.2063   -5.4550   -0.6766 H   0  0  0  0  0  0  0  0  0  0  0  0
    3.9644   -6.0124    0.9986 H   0  0  0  0  0  0  0  0  0  0  0  0
    5.5757   -5.5093    0.4595 H   0  0  0  0  0  0  0  0  0  0  0  0
    4.3267   -2.7477   -3.3893 H   0  0  0  0  0  0  0  0  0  0  0  0
    5.9518   -2.7161   -2.6556 H   0  0  0  0  0  0  0  0  0  0  0  0
    4.8537   -1.3142   -2.4668 H   0  0  0  0  0  0  0  0  0  0  0  0
  1  2  1  0
  1 20  1  0
  1 21  1  0
  1 22  1  0
  2  3  1  0
  2 23  1  0
  2 24  1  0
  3  4  1  0
  3 25  1  0
  4  5  1  0
  4 14  1  0
  4 26  1  6
  5  6  1  0
  5 27  1  0
  5 28  1  0
  6  7  2  0
  6 12  1  0
  7  8  1  0
  7 29  1  0
  8  9  1  0
  8 10  2  0
 10 11  1  0
 10 30  1  0
 11 12  2  0
 11 31  1  0
 12 13  1  0
 14 15  1  0
 14 16  1  0
 14 18  1  6
 15 32  1  0
 15 33  1  0
 15 34  1  0
 16 17  1  0
 16 35  1  0
 16 36  1  0
 17 37  1  0
 17 38  1  0
 17 39  1  0
 18 19  1  0
 19 40  1  0
 19 41  1  0
 19 42  1  0
M  END

