
     RDKit          3D

 26 27  0  0  0  0  0  0  0  0999 V2000
    1.0220   -0.0272   -0.1304 C   0  0  0  0  0  0  0  0  0  0  0  0
    2.4595   -0.0411    0.0173 N   0  0  0  0  0  0  0  0  0  0  0  0
    3.1501    1.1116    0.1597 N   0  0  0  0  0  0  0  0  0  0  0  0
    4.4260    0.7910    0.2669 C   0  0  0  0  0  0  0  0  0  0  0  0
    4.6074   -0.6267    0.1946 C   0  0  0  0  0  0  0  0  0  0  0  0
    5.6868   -1.5296    0.2379 C   0  0  0  0  0  0  0  0  0  0  0  0
    5.4188   -2.8867    0.1196 C   0  0  0  0  0  0  0  0  0  0  0  0
    4.0958   -3.3867   -0.0418 C   0  0  0  0  0  0  0  0  0  0  0  0
    3.8897   -4.8920   -0.1029 C   0  0  1  0  0  0  0  0  0  0  0  0
    4.8620   -5.3529   -0.3661 H   0  0  0  0  0  0  0  0  0  0  0  0
    3.4326   -5.4122    1.1513 O   0  0  0  0  0  0  0  0  0  0  0  0
    2.8529   -5.3884   -1.1212 C   0  0  0  0  0  0  0  0  0  0  0  0
    1.5357   -5.1101   -0.7053 O   0  0  0  0  0  0  0  0  0  0  0  0
    3.0139   -2.5045   -0.0843 C   0  0  0  0  0  0  0  0  0  0  0  0
    3.2887   -1.1321    0.0313 C   0  0  0  0  0  0  0  0  0  0  0  0
    0.6976    1.0197   -0.0967 H   0  0  0  0  0  0  0  0  0  0  0  0
    0.5332   -0.5848    0.6854 H   0  0  0  0  0  0  0  0  0  0  0  0
    0.7169   -0.4714   -1.0920 H   0  0  0  0  0  0  0  0  0  0  0  0
    5.1770    1.5709    0.3910 H   0  0  0  0  0  0  0  0  0  0  0  0
    6.7129   -1.1729    0.3568 H   0  0  0  0  0  0  0  0  0  0  0  0
    6.2478   -3.5999    0.1434 H   0  0  0  0  0  0  0  0  0  0  0  0
    3.8507   -4.9081    1.8612 H   0  0  0  0  0  0  0  0  0  0  0  0
    3.0032   -6.4790   -1.2558 H   0  0  0  0  0  0  0  0  0  0  0  0
    3.0175   -4.9059   -2.0972 H   0  0  0  0  0  0  0  0  0  0  0  0
    1.5169   -5.3505    0.2355 H   0  0  0  0  0  0  0  0  0  0  0  0
    2.0019   -2.8874   -0.2201 H   0  0  0  0  0  0  0  0  0  0  0  0
  1  2  1  0
  1 16  1  0
  1 17  1  0
  1 18  1  0
  2  3  1  0
  2 15  1  0
  3  4  2  0
  4  5  1  0
  4 19  1  0
  5  6  1  0
  5 15  2  0
  6  7  2  0
  6 20  1  0
  7  8  1  0
  7 21  1  0
  8  9  1  0
  8 14  2  0
  9 10  1  6
  9 11  1  0
  9 12  1  0
 11 22  1  0
 12 13  1  0
 12 23  1  0
 12 24  1  0
 13 25  1  0
 14 15  1  0
 14 26  1  0
M  END

