
     RDKit          3D

 42 44  0  0  0  0  0  0  0  0999 V2000
    1.6045    0.9206    2.0261 C   0  0  0  0  0  0  0  0  0  0  0  0
    2.9625    0.5788    1.4674 C   0  0  0  0  0  0  0  0  0  0  0  0
    3.1119   -0.3470    0.4228 C   0  0  0  0  0  0  0  0  0  0  0  0
    4.3698   -0.6791   -0.0808 C   0  0  0  0  0  0  0  0  0  0  0  0
    5.5327   -0.0966    0.4571 C   0  0  0  0  0  0  0  0  0  0  0  0
    6.8698   -0.4020   -0.0638 C   0  0  0  0  0  0  0  0  0  0  0  0
    7.7410    0.6605   -0.0384 O   0  0  0  0  0  0  0  0  0  0  0  0
    8.9137    0.2423   -0.5851 C   0  0  0  0  0  0  0  0  0  0  0  0
    9.9530    1.0322   -0.7248 N   0  0  0  0  0  0  0  0  0  0  0  0
   11.0347    0.4724   -1.2766 C   0  0  0  0  0  0  0  0  0  0  0  0
   12.1805    1.3083   -1.3909 N   0  0  0  0  0  0  0  0  0  0  0  0
   12.4966    2.1670   -2.8304 S   0  0  1  0  0  0  0  0  0  0  0  0
   11.1026    3.2857   -3.0670 C   0  0  0  0  0  0  0  0  0  0  0  0
   13.6747    2.9767   -2.5428 O   0  0  0  0  0  0  0  0  0  0  0  0
   12.4589    1.1934   -3.9219 O   0  0  0  0  0  0  0  0  0  0  0  0
   11.0961   -0.8877   -1.6962 C   0  0  0  0  0  0  0  0  0  0  0  0
   12.3452   -1.4828   -2.2496 C   0  0  0  0  0  0  0  0  0  0  0  0
   13.6716   -2.2695   -0.6506 I   0  0  0  0  0  0  0  0  0  0  0  0
    9.9479   -1.6805   -1.5479 C   0  0  0  0  0  0  0  0  0  0  0  0
    8.8111   -1.1047   -0.9719 C   0  0  0  0  0  0  0  0  0  0  0  0
    7.4762   -1.5231   -0.6052 C   0  0  0  0  0  0  0  0  0  0  0  0
    7.0314   -2.9387   -0.7762 C   0  0  0  0  0  0  0  0  0  0  0  0
    6.0058   -3.3793    0.0093 N   0  0  0  0  0  0  0  0  0  0  0  0
    7.5984   -3.6722   -1.5719 O   0  0  0  0  0  0  0  0  0  0  0  0
    5.3868    0.8498    1.4922 C   0  0  0  0  0  0  0  0  0  0  0  0
    4.1262    1.1737    1.9856 C   0  0  0  0  0  0  0  0  0  0  0  0
    0.7964    0.6127    1.3464 H   0  0  0  0  0  0  0  0  0  0  0  0
    1.5055    2.0020    2.2101 H   0  0  0  0  0  0  0  0  0  0  0  0
    1.4361    0.4133    2.9921 H   0  0  0  0  0  0  0  0  0  0  0  0
    2.2236   -0.8062   -0.0195 H   0  0  0  0  0  0  0  0  0  0  0  0
    4.4470   -1.3822   -0.9112 H   0  0  0  0  0  0  0  0  0  0  0  0
   12.2875    1.9420   -0.5982 H   0  0  0  0  0  0  0  0  0  0  0  0
   11.0735    3.9967   -2.2318 H   0  0  0  0  0  0  0  0  0  0  0  0
   10.1745    2.7042   -3.1265 H   0  0  0  0  0  0  0  0  0  0  0  0
   11.2983    3.8067   -4.0142 H   0  0  0  0  0  0  0  0  0  0  0  0
   12.9681   -0.7685   -2.7903 H   0  0  0  0  0  0  0  0  0  0  0  0
   12.1408   -2.3615   -2.8698 H   0  0  0  0  0  0  0  0  0  0  0  0
    9.9362   -2.7258   -1.8595 H   0  0  0  0  0  0  0  0  0  0  0  0
    5.6333   -2.8323    0.7742 H   0  0  0  0  0  0  0  0  0  0  0  0
    5.7668   -4.3623   -0.0530 H   0  0  0  0  0  0  0  0  0  0  0  0
    6.2750    1.3309    1.9055 H   0  0  0  0  0  0  0  0  0  0  0  0
    4.0414    1.9083    2.7914 H   0  0  0  0  0  0  0  0  0  0  0  0
  1  2  1  0
  1 27  1  0
  1 28  1  0
  1 29  1  0
  2  3  2  0
  2 26  1  0
  3  4  1  0
  3 30  1  0
  4  5  2  0
  4 31  1  0
  5  6  1  0
  5 25  1  0
  6  7  1  0
  6 21  2  0
  7  8  1  0
  8  9  2  0
  8 20  1  0
  9 10  1  0
 10 11  1  0
 10 16  2  0
 12 11  1  1
 11 32  1  0
 12 13  1  0
 12 14  2  0
 12 15  2  0
 13 33  1  0
 13 34  1  0
 13 35  1  0
 16 17  1  0
 16 19  1  0
 17 18  1  0
 17 36  1  0
 17 37  1  0
 19 20  2  0
 19 38  1  0
 20 21  1  0
 21 22  1  0
 22 23  1  0
 22 24  2  0
 23 39  1  0
 23 40  1  0
 25 26  2  0
 25 41  1  0
 26 42  1  0
M  END

