
     RDKit          3D

 44 45  0  0  0  0  0  0  0  0999 V2000
    4.8181    1.0943   -0.6446 C   0  0  0  0  0  0  0  0  0  0  0  0
    5.1232   -0.1645    0.1853 C   0  0  0  0  0  0  0  0  0  0  0  0
    5.6691   -1.3040   -0.6561 C   0  0  0  0  0  0  0  0  0  0  0  0
    7.0562   -1.3814   -0.8653 C   0  0  0  0  0  0  0  0  0  0  0  0
    7.6296   -2.3523   -1.6878 C   0  0  0  0  0  0  0  0  0  0  0  0
    6.8056   -3.2718   -2.3377 C   0  0  0  0  0  0  0  0  0  0  0  0
    5.4248   -3.2138   -2.1399 C   0  0  0  0  0  0  0  0  0  0  0  0
    4.8365   -2.2531   -1.2993 C   0  0  0  0  0  0  0  0  0  0  0  0
    3.3213   -2.2514   -1.1119 C   0  0  0  0  0  0  0  0  0  0  0  0
    2.8497   -2.7952    0.2489 C   0  0  0  0  0  0  0  0  0  0  0  0
    2.6117   -2.0207    1.1666 O   0  0  0  0  0  0  0  0  0  0  0  0
    2.7175   -4.1561    0.4174 N   0  0  0  0  0  0  0  0  0  0  0  0
    2.3574   -4.6758    1.7336 C   0  0  0  0  0  0  0  0  0  0  0  0
    1.0970   -5.5521    1.6762 C   0  0  2  0  0  0  0  0  0  0  0  0
    0.7569   -6.1273    3.0522 C   0  0  0  0  0  0  0  0  0  0  0  0
    1.2677   -6.6561    0.6182 C   0  0  0  0  0  0  0  0  0  0  0  0
    1.6952   -6.0753   -0.7424 C   0  0  2  0  0  0  0  0  0  0  0  0
    1.9496   -7.1222   -1.8294 C   0  0  0  0  0  0  0  0  0  0  0  0
    2.8672   -7.0650   -2.6034 O   0  0  0  0  0  0  0  0  0  0  0  0
    1.0545   -8.1301   -1.9085 O   0  0  0  0  0  0  0  0  0  0  0  0
    2.9366   -5.1801   -0.5884 C   0  0  0  0  0  0  0  0  0  0  0  0
    4.4384    1.9050   -0.0018 H   0  0  0  0  0  0  0  0  0  0  0  0
    4.0567    0.8967   -1.4168 H   0  0  0  0  0  0  0  0  0  0  0  0
    5.7188    1.4628   -1.1615 H   0  0  0  0  0  0  0  0  0  0  0  0
    4.2209   -0.4791    0.7268 H   0  0  0  0  0  0  0  0  0  0  0  0
    5.8719    0.0917    0.9535 H   0  0  0  0  0  0  0  0  0  0  0  0
    7.7013   -0.6522   -0.3658 H   0  0  0  0  0  0  0  0  0  0  0  0
    8.7137   -2.3848   -1.8248 H   0  0  0  0  0  0  0  0  0  0  0  0
    7.2301   -4.0319   -2.9983 H   0  0  0  0  0  0  0  0  0  0  0  0
    4.7904   -3.9320   -2.6662 H   0  0  0  0  0  0  0  0  0  0  0  0
    2.8533   -2.7981   -1.9426 H   0  0  0  0  0  0  0  0  0  0  0  0
    2.9302   -1.2263   -1.1459 H   0  0  0  0  0  0  0  0  0  0  0  0
    2.2114   -3.8166    2.3989 H   0  0  0  0  0  0  0  0  0  0  0  0
    3.2020   -5.2757    2.1273 H   0  0  0  0  0  0  0  0  0  0  0  0
    0.2649   -4.9006    1.3511 H   0  0  0  0  0  0  0  0  0  0  0  0
    1.5687   -6.7743    3.4258 H   0  0  0  0  0  0  0  0  0  0  0  0
   -0.1629   -6.7331    3.0172 H   0  0  0  0  0  0  0  0  0  0  0  0
    0.6022   -5.3253    3.7911 H   0  0  0  0  0  0  0  0  0  0  0  0
    0.3181   -7.2177    0.5372 H   0  0  0  0  0  0  0  0  0  0  0  0
    2.0303   -7.3790    0.9628 H   0  0  0  0  0  0  0  0  0  0  0  0
    0.8676   -5.4415   -1.1172 H   0  0  0  0  0  0  0  0  0  0  0  0
    0.3860   -8.0474   -1.2134 H   0  0  0  0  0  0  0  0  0  0  0  0
    3.1849   -4.7388   -1.5542 H   0  0  0  0  0  0  0  0  0  0  0  0
    3.8008   -5.8095   -0.3049 H   0  0  0  0  0  0  0  0  0  0  0  0
  1  2  1  0
  1 22  1  0
  1 23  1  0
  1 24  1  0
  2  3  1  0
  2 25  1  0
  2 26  1  0
  3  4  2  0
  3  8  1  0
  4  5  1  0
  4 27  1  0
  5  6  2  0
  5 28  1  0
  6  7  1  0
  6 29  1  0
  7  8  2  0
  7 30  1  0
  8  9  1  0
  9 10  1  0
  9 31  1  0
  9 32  1  0
 10 11  2  0
 10 12  1  0
 12 13  1  0
 12 21  1  0
 13 14  1  0
 13 33  1  0
 13 34  1  0
 14 15  1  0
 14 16  1  0
 14 35  1  6
 15 36  1  0
 15 37  1  0
 15 38  1  0
 16 17  1  0
 16 39  1  0
 16 40  1  0
 17 18  1  0
 17 21  1  0
 17 41  1  6
 18 19  2  0
 18 20  1  0
 20 42  1  0
 21 43  1  0
 21 44  1  0
M  END

