
     RDKit          3D

 34 35  0  0  0  0  0  0  0  0999 V2000
    6.0726   -2.9119    0.4244 C   0  0  0  0  0  0  0  0  0  0  0  0
    5.0540   -2.0877    1.1257 C   0  0  0  0  0  0  0  0  0  0  0  0
    5.5111   -1.1642    2.0088 O   0  0  0  0  0  0  0  0  0  0  0  0
    4.4419   -0.5130    2.5392 C   0  0  0  0  0  0  0  0  0  0  0  0
    3.2872   -1.0053    2.0157 C   0  0  0  0  0  0  0  0  0  0  0  0
    3.6748   -2.0429    1.0870 C   0  0  0  0  0  0  0  0  0  0  0  0
    2.8132   -2.9115    0.2310 C   0  0  0  0  0  0  0  0  0  0  0  0
    3.2755   -3.5670   -0.6979 O   0  0  0  0  0  0  0  0  0  0  0  0
    1.4898   -2.9062    0.5752 N   0  0  0  0  0  0  0  0  0  0  0  0
    0.3478   -3.6190   -0.0251 C   0  0  1  0  0  0  0  0  0  0  0  0
    0.0664   -3.2899   -1.5099 C   0  0  0  0  0  0  0  0  0  0  0  0
    0.8384   -4.1338   -2.5348 C   0  0  0  0  0  0  0  0  0  0  0  0
    0.7198   -5.6335   -2.2321 C   0  0  0  0  0  0  0  0  0  0  0  0
    1.1421   -5.9515   -0.7897 C   0  0  0  0  0  0  0  0  0  0  0  0
    0.3291   -5.1621    0.2509 C   0  0  2  0  0  0  0  0  0  0  0  0
   -1.0257   -5.7097    0.3298 N   0  0  0  0  0  0  0  0  0  0  0  0
    6.6674   -3.4989    1.1444 H   0  0  0  0  0  0  0  0  0  0  0  0
    6.7730   -2.2693   -0.1346 H   0  0  0  0  0  0  0  0  0  0  0  0
    5.5678   -3.5867   -0.2760 H   0  0  0  0  0  0  0  0  0  0  0  0
    4.6640    0.2717    3.2575 H   0  0  0  0  0  0  0  0  0  0  0  0
    2.2844   -0.6471    2.2412 H   0  0  0  0  0  0  0  0  0  0  0  0
    1.2674   -2.4061    1.4252 H   0  0  0  0  0  0  0  0  0  0  0  0
   -0.5053   -3.2158    0.5450 H   0  0  0  0  0  0  0  0  0  0  0  0
    0.2325   -2.2131   -1.6773 H   0  0  0  0  0  0  0  0  0  0  0  0
   -1.0152   -3.4584   -1.6650 H   0  0  0  0  0  0  0  0  0  0  0  0
    1.8988   -3.8487   -2.5186 H   0  0  0  0  0  0  0  0  0  0  0  0
    0.4496   -3.9155   -3.5444 H   0  0  0  0  0  0  0  0  0  0  0  0
    1.3431   -6.2106   -2.9351 H   0  0  0  0  0  0  0  0  0  0  0  0
   -0.3187   -5.9735   -2.4098 H   0  0  0  0  0  0  0  0  0  0  0  0
    2.2057   -5.7001   -0.6725 H   0  0  0  0  0  0  0  0  0  0  0  0
    1.0160   -7.0250   -0.5759 H   0  0  0  0  0  0  0  0  0  0  0  0
    0.7918   -5.3096    1.2424 H   0  0  0  0  0  0  0  0  0  0  0  0
   -1.5086   -5.6362   -0.5649 H   0  0  0  0  0  0  0  0  0  0  0  0
   -1.5917   -5.2021    1.0097 H   0  0  0  0  0  0  0  0  0  0  0  0
  1  2  1  0
  1 17  1  0
  1 18  1  0
  1 19  1  0
  2  3  1  0
  2  6  2  0
  3  4  1  0
  4  5  2  0
  4 20  1  0
  5  6  1  0
  5 21  1  0
  6  7  1  0
  7  8  2  0
  7  9  1  0
  9 10  1  0
  9 22  1  0
 10 11  1  0
 10 15  1  0
 10 23  1  1
 11 12  1  0
 11 24  1  0
 11 25  1  0
 12 13  1  0
 12 26  1  0
 12 27  1  0
 13 14  1  0
 13 28  1  0
 13 29  1  0
 14 15  1  0
 14 30  1  0
 14 31  1  0
 15 16  1  0
 15 32  1  1
 16 33  1  0
 16 34  1  0
M  END

