
     RDKit          3D

 51 52  0  0  0  0  0  0  0  0999 V2000
    3.3317    2.5599   -0.4555 C   0  0  0  0  0  0  0  0  0  0  0  0
    2.7422    1.5552   -1.4314 C   0  0  0  0  0  0  0  0  0  0  0  0
    3.5077    0.3408   -1.4775 O   0  0  0  0  0  0  0  0  0  0  0  0
    4.5785    0.3274   -2.3094 C   0  0  0  0  0  0  0  0  0  0  0  0
    4.9081    1.2421   -3.0298 O   0  0  0  0  0  0  0  0  0  0  0  0
    5.2283   -0.8730   -2.2046 N   0  0  0  0  0  0  0  0  0  0  0  0
    6.3586   -1.2159   -3.0471 C   0  0  1  0  0  0  0  0  0  0  0  0
    6.8409   -0.2622   -3.3068 H   0  0  0  0  0  0  0  0  0  0  0  0
    7.3763   -2.0363   -2.2318 C   0  0  0  0  0  0  0  0  0  0  0  0
    8.0075   -1.2075   -1.1133 C   0  0  0  0  0  0  0  0  0  0  0  0
    8.4056   -0.0752   -1.3101 O   0  0  0  0  0  0  0  0  0  0  0  0
    8.1030   -1.8607    0.0964 N   0  0  0  0  0  0  0  0  0  0  0  0
    8.6700   -1.4083    1.3024 C   0  0  0  0  0  0  0  0  0  0  0  0
    9.2291   -0.1296    1.4675 C   0  0  0  0  0  0  0  0  0  0  0  0
    9.7883    0.2689    2.6879 C   0  0  0  0  0  0  0  0  0  0  0  0
   10.3775    1.6579    2.7820 C   0  0  0  0  0  0  0  0  0  0  0  0
    9.7979   -0.6017    3.8084 C   0  0  0  0  0  0  0  0  0  0  0  0
   10.4277   -0.1653    5.1089 C   0  0  0  0  0  0  0  0  0  0  0  0
    9.2071   -1.8646    3.6110 C   0  0  0  0  0  0  0  0  0  0  0  0
    9.1048   -2.8537    4.7071 N   0  0  0  0  0  0  0  0  0  0  0  0
    9.0557   -2.4381    5.8545 O   0  0  0  0  0  0  0  0  0  0  0  0
    9.0488   -4.0346    4.3978 O   0  0  0  0  0  0  0  0  0  0  0  0
    8.6699   -2.2804    2.3928 C   0  0  0  0  0  0  0  0  0  0  0  0
    5.9845   -1.9343   -4.3436 C   0  0  0  0  0  0  0  0  0  0  0  0
    6.8518   -1.8606   -5.4450 C   0  0  0  0  0  0  0  0  0  0  0  0
    6.5633   -2.5390   -6.6310 C   0  0  0  0  0  0  0  0  0  0  0  0
    5.3964   -3.3032   -6.7363 C   0  0  0  0  0  0  0  0  0  0  0  0
    4.5221   -3.3770   -5.6493 C   0  0  0  0  0  0  0  0  0  0  0  0
    4.8148   -2.6961   -4.4629 C   0  0  0  0  0  0  0  0  0  0  0  0
    2.6809    3.4468   -0.3895 H   0  0  0  0  0  0  0  0  0  0  0  0
    4.3257    2.8892   -0.7925 H   0  0  0  0  0  0  0  0  0  0  0  0
    3.4237    2.1246    0.5521 H   0  0  0  0  0  0  0  0  0  0  0  0
    2.6862    1.9807   -2.4444 H   0  0  0  0  0  0  0  0  0  0  0  0
    1.7354    1.2394   -1.1200 H   0  0  0  0  0  0  0  0  0  0  0  0
    4.7988   -1.5752   -1.6138 H   0  0  0  0  0  0  0  0  0  0  0  0
    8.1935   -2.3507   -2.9012 H   0  0  0  0  0  0  0  0  0  0  0  0
    6.9069   -2.9624   -1.8567 H   0  0  0  0  0  0  0  0  0  0  0  0
    7.7375   -2.8050    0.1248 H   0  0  0  0  0  0  0  0  0  0  0  0
    9.2233    0.5537    0.6214 H   0  0  0  0  0  0  0  0  0  0  0  0
   10.2143    2.2137    1.8486 H   0  0  0  0  0  0  0  0  0  0  0  0
   11.4646    1.6286    2.9669 H   0  0  0  0  0  0  0  0  0  0  0  0
    9.9287    2.2377    3.6046 H   0  0  0  0  0  0  0  0  0  0  0  0
   11.1883    0.6063    4.9346 H   0  0  0  0  0  0  0  0  0  0  0  0
   10.8948   -0.9996    5.6455 H   0  0  0  0  0  0  0  0  0  0  0  0
    9.6719    0.2526    5.7945 H   0  0  0  0  0  0  0  0  0  0  0  0
    8.2592   -3.2881    2.3246 H   0  0  0  0  0  0  0  0  0  0  0  0
    7.7599   -1.2537   -5.3762 H   0  0  0  0  0  0  0  0  0  0  0  0
    7.2473   -2.4629   -7.4803 H   0  0  0  0  0  0  0  0  0  0  0  0
    5.1663   -3.8313   -7.6650 H   0  0  0  0  0  0  0  0  0  0  0  0
    3.6024   -3.9631   -5.7245 H   0  0  0  0  0  0  0  0  0  0  0  0
    4.1116   -2.7459   -3.6281 H   0  0  0  0  0  0  0  0  0  0  0  0
  1  2  1  0
  1 30  1  0
  1 31  1  0
  1 32  1  0
  2  3  1  0
  2 33  1  0
  2 34  1  0
  3  4  1  0
  4  5  2  0
  4  6  1  0
  6  7  1  0
  6 35  1  0
  7  8  1  6
  7  9  1  0
  7 24  1  0
  9 10  1  0
  9 36  1  0
  9 37  1  0
 10 11  2  0
 10 12  1  0
 12 13  1  0
 12 38  1  0
 13 14  2  0
 13 23  1  0
 14 15  1  0
 14 39  1  0
 15 16  1  0
 15 17  2  0
 16 40  1  0
 16 41  1  0
 16 42  1  0
 17 18  1  0
 17 19  1  0
 18 43  1  0
 18 44  1  0
 18 45  1  0
 19 20  1  0
 19 23  2  0
 20 21  2  0
 20 22  1  0
 23 46  1  0
 24 25  2  0
 24 29  1  0
 25 26  1  0
 25 47  1  0
 26 27  2  0
 26 48  1  0
 27 28  1  0
 27 49  1  0
 28 29  2  0
 28 50  1  0
 29 51  1  0
M  CHG  2  20   1  22  -1
M  END

