
     RDKit          3D

 46 49  0  0  0  0  0  0  0  0999 V2000
    1.4086   -0.7360   -0.1736 O   0  0  0  0  0  0  0  0  0  0  0  0
    2.5633   -0.3333   -0.1652 C   0  0  0  0  0  0  0  0  0  0  0  0
    3.1187    0.3053   -1.2356 N   0  0  0  0  0  0  0  0  0  0  0  0
    2.3546    0.4804   -2.4579 C   0  0  1  0  0  0  0  0  0  0  0  0
    1.3884    1.6674   -2.4057 C   0  0  0  0  0  0  0  0  0  0  0  0
    1.8782    2.9826   -2.3830 C   0  0  0  0  0  0  0  0  0  0  0  0
    0.9968    4.0634   -2.3239 C   0  0  0  0  0  0  0  0  0  0  0  0
   -0.3846    3.8403   -2.2855 C   0  0  0  0  0  0  0  0  0  0  0  0
   -0.8778    2.5334   -2.3007 C   0  0  0  0  0  0  0  0  0  0  0  0
    0.0060    1.4504   -2.3570 C   0  0  0  0  0  0  0  0  0  0  0  0
    3.3378    0.6097   -3.5939 C   0  0  0  0  0  0  0  0  0  0  0  0
    4.6418    0.6192   -3.4485 N   0  0  0  0  0  0  0  0  0  0  0  0
    5.1571    0.7620   -4.7218 C   0  0  0  0  0  0  0  0  0  0  0  0
    6.4892    0.8307   -5.1605 C   0  0  0  0  0  0  0  0  0  0  0  0
    6.7278    0.9821   -6.5216 C   0  0  0  0  0  0  0  0  0  0  0  0
    5.6481    1.0623   -7.4223 C   0  0  0  0  0  0  0  0  0  0  0  0
    5.9383    1.2239   -8.8612 N   0  0  0  0  0  0  0  0  0  0  0  0
    7.1090    1.2810   -9.2007 O   0  0  0  0  0  0  0  0  0  0  0  0
    4.9869    1.2909   -9.6250 O   0  0  0  0  0  0  0  0  0  0  0  0
    4.3113    0.9966   -7.0302 C   0  0  0  0  0  0  0  0  0  0  0  0
    4.0934    0.8450   -5.6632 C   0  0  0  0  0  0  0  0  0  0  0  0
    2.9439    0.7399   -4.9005 N   0  0  0  0  0  0  0  0  0  0  0  0
    1.9870    0.8080   -5.2263 H   0  0  0  0  0  0  0  0  0  0  0  0
    3.4543   -0.5215    1.0379 C   0  0  0  0  0  0  0  0  0  0  0  0
    3.0553   -1.4758    1.9874 C   0  0  0  0  0  0  0  0  0  0  0  0
    3.8214   -1.7056    3.1275 C   0  0  0  0  0  0  0  0  0  0  0  0
    4.9855   -0.9578    3.3124 C   0  0  0  0  0  0  0  0  0  0  0  0
    5.8060   -1.1928    4.5226 N   0  0  0  0  0  0  0  0  0  0  0  0
    5.4218   -2.0456    5.3052 O   0  0  0  0  0  0  0  0  0  0  0  0
    6.8138   -0.5188    4.6585 O   0  0  0  0  0  0  0  0  0  0  0  0
    5.3984    0.0097    2.3967 C   0  0  0  0  0  0  0  0  0  0  0  0
    4.6245    0.2244    1.2565 C   0  0  0  0  0  0  0  0  0  0  0  0
    4.1259    0.4106   -1.3335 H   0  0  0  0  0  0  0  0  0  0  0  0
    1.7453   -0.4277   -2.6151 H   0  0  0  0  0  0  0  0  0  0  0  0
    2.9571    3.1606   -2.4090 H   0  0  0  0  0  0  0  0  0  0  0  0
    1.3877    5.0839   -2.3077 H   0  0  0  0  0  0  0  0  0  0  0  0
   -1.0747    4.6866   -2.2391 H   0  0  0  0  0  0  0  0  0  0  0  0
   -1.9549    2.3530   -2.2587 H   0  0  0  0  0  0  0  0  0  0  0  0
   -0.3774    0.4274   -2.3367 H   0  0  0  0  0  0  0  0  0  0  0  0
    7.3100    0.7655   -4.4443 H   0  0  0  0  0  0  0  0  0  0  0  0
    7.7394    1.0416   -6.9210 H   0  0  0  0  0  0  0  0  0  0  0  0
    3.5188    1.0634   -7.7744 H   0  0  0  0  0  0  0  0  0  0  0  0
    2.1307   -2.0272    1.8090 H   0  0  0  0  0  0  0  0  0  0  0  0
    3.5372   -2.4458    3.8750 H   0  0  0  0  0  0  0  0  0  0  0  0
    6.3069    0.5783    2.5923 H   0  0  0  0  0  0  0  0  0  0  0  0
    4.9298    0.9995    0.5508 H   0  0  0  0  0  0  0  0  0  0  0  0
  1  2  2  0
  2  3  1  0
  2 24  1  0
  3  4  1  0
  3 33  1  0
  4  5  1  0
  4 11  1  0
  4 34  1  6
  5  6  2  0
  5 10  1  0
  6  7  1  0
  6 35  1  0
  7  8  2  0
  7 36  1  0
  8  9  1  0
  8 37  1  0
  9 10  2  0
  9 38  1  0
 10 39  1  0
 11 12  2  0
 11 22  1  0
 12 13  1  0
 13 14  2  0
 13 21  1  0
 14 15  1  0
 14 40  1  0
 15 16  2  0
 15 41  1  0
 16 17  1  0
 16 20  1  0
 17 18  2  0
 17 19  1  0
 20 21  2  0
 20 42  1  0
 21 22  1  0
 22 23  1  0
 24 25  2  0
 24 32  1  0
 25 26  1  0
 25 43  1  0
 26 27  2  0
 26 44  1  0
 27 28  1  0
 27 31  1  0
 28 29  2  0
 28 30  1  0
 31 32  2  0
 31 45  1  0
 32 46  1  0
M  CHG  4  17   1  19  -1  28   1  30  -1
M  END

