
     RDKit          3D

 46 46  0  0  0  0  0  0  0  0999 V2000
    7.1786    3.4087   -5.6427 C   0  0  0  0  0  0  0  0  0  0  0  0
    7.1344    2.5909   -4.3792 C   0  0  0  0  0  0  0  0  0  0  0  0
    7.6316    3.0447   -3.1507 C   0  0  0  0  0  0  0  0  0  0  0  0
    7.5785    2.2518   -1.9993 C   0  0  0  0  0  0  0  0  0  0  0  0
    7.0178    0.9686   -2.0301 C   0  0  0  0  0  0  0  0  0  0  0  0
    6.9239    0.1131   -0.7603 C   0  0  1  0  0  0  0  0  0  0  0  0
    5.5009    0.1416   -0.1855 C   0  0  0  0  0  0  0  0  0  0  0  0
    7.3558   -1.2716   -0.9009 N   0  0  0  0  0  0  0  0  0  0  0  0
    8.7259   -1.4880   -1.3357 C   0  0  0  0  0  0  0  0  0  0  0  0
    9.1910   -2.9575   -1.1954 C   0  0  1  0  0  0  0  0  0  0  0  0
    9.1112   -3.4012    0.2739 C   0  0  0  0  0  0  0  0  0  0  0  0
    8.3204   -3.8855   -2.0613 C   0  0  0  0  0  0  0  0  0  0  0  0
   10.6581   -3.0129   -1.7046 C   0  0  0  0  0  0  0  0  0  0  0  0
   11.2766   -4.3375   -1.6598 N   0  0  0  0  0  0  0  0  0  0  0  0
   11.7091   -4.8428   -2.9480 C   0  0  0  0  0  0  0  0  0  0  0  0
   12.2939   -4.4907   -0.6383 C   0  0  0  0  0  0  0  0  0  0  0  0
    6.5173    0.4983   -3.2539 C   0  0  0  0  0  0  0  0  0  0  0  0
    6.5834    1.3026   -4.3845 C   0  0  0  0  0  0  0  0  0  0  0  0
    6.0969    0.8242   -5.5468 F   0  0  0  0  0  0  0  0  0  0  0  0
    7.6281    4.3950   -5.4585 H   0  0  0  0  0  0  0  0  0  0  0  0
    6.1687    3.5625   -6.0570 H   0  0  0  0  0  0  0  0  0  0  0  0
    7.7667    2.9044   -6.4273 H   0  0  0  0  0  0  0  0  0  0  0  0
    8.0753    4.0431   -3.0990 H   0  0  0  0  0  0  0  0  0  0  0  0
    7.9826    2.6401   -1.0599 H   0  0  0  0  0  0  0  0  0  0  0  0
    7.5953    0.5798   -0.0170 H   0  0  0  0  0  0  0  0  0  0  0  0
    4.7833   -0.3094   -0.8918 H   0  0  0  0  0  0  0  0  0  0  0  0
    5.1708    1.1737    0.0057 H   0  0  0  0  0  0  0  0  0  0  0  0
    5.4627   -0.4292    0.7547 H   0  0  0  0  0  0  0  0  0  0  0  0
    6.6991   -1.7967   -1.4758 H   0  0  0  0  0  0  0  0  0  0  0  0
    9.3757   -0.8522   -0.7072 H   0  0  0  0  0  0  0  0  0  0  0  0
    8.9040   -1.1590   -2.3837 H   0  0  0  0  0  0  0  0  0  0  0  0
    8.0839   -3.2931    0.6507 H   0  0  0  0  0  0  0  0  0  0  0  0
    9.7639   -2.7822    0.9130 H   0  0  0  0  0  0  0  0  0  0  0  0
    9.4208   -4.4519    0.3806 H   0  0  0  0  0  0  0  0  0  0  0  0
    7.2861   -3.9423   -1.6845 H   0  0  0  0  0  0  0  0  0  0  0  0
    8.7327   -4.9056   -2.0464 H   0  0  0  0  0  0  0  0  0  0  0  0
    8.2857   -3.5451   -3.1108 H   0  0  0  0  0  0  0  0  0  0  0  0
   11.2595   -2.2893   -1.1194 H   0  0  0  0  0  0  0  0  0  0  0  0
   10.6737   -2.6358   -2.7431 H   0  0  0  0  0  0  0  0  0  0  0  0
   10.8803   -4.8157   -3.6717 H   0  0  0  0  0  0  0  0  0  0  0  0
   12.0295   -5.8935   -2.8531 H   0  0  0  0  0  0  0  0  0  0  0  0
   12.5620   -4.2733   -3.3874 H   0  0  0  0  0  0  0  0  0  0  0  0
   11.9047   -4.1904    0.3453 H   0  0  0  0  0  0  0  0  0  0  0  0
   13.2132   -3.8900   -0.8363 H   0  0  0  0  0  0  0  0  0  0  0  0
   12.5996   -5.5473   -0.5634 H   0  0  0  0  0  0  0  0  0  0  0  0
    6.0744   -0.4960   -3.3509 H   0  0  0  0  0  0  0  0  0  0  0  0
  1  2  1  0
  1 20  1  0
  1 21  1  0
  1 22  1  0
  2  3  2  0
  2 18  1  0
  3  4  1  0
  3 23  1  0
  4  5  2  0
  4 24  1  0
  5  6  1  0
  5 17  1  0
  6  7  1  0
  6  8  1  0
  6 25  1  1
  7 26  1  0
  7 27  1  0
  7 28  1  0
  8  9  1  0
  8 29  1  0
 10  9  1  1
  9 30  1  0
  9 31  1  0
 10 11  1  0
 10 12  1  0
 10 13  1  0
 11 32  1  0
 11 33  1  0
 11 34  1  0
 12 35  1  0
 12 36  1  0
 12 37  1  0
 13 14  1  0
 13 38  1  0
 13 39  1  0
 14 15  1  0
 14 16  1  0
 15 40  1  0
 15 41  1  0
 15 42  1  0
 16 43  1  0
 16 44  1  0
 16 45  1  0
 17 18  2  0
 17 46  1  0
 18 19  1  0
M  END

