
     RDKit          3D

 59 63  0  0  0  0  0  0  0  0999 V2000
    2.1485   -4.8256   -4.1873 C   0  0  0  0  0  0  0  0  0  0  0  0
    1.9122   -4.1018   -2.9977 O   0  0  0  0  0  0  0  0  0  0  0  0
    1.6441   -2.7707   -3.0459 C   0  0  0  0  0  0  0  0  0  0  0  0
    1.6554   -2.0509   -4.2506 C   0  0  0  0  0  0  0  0  0  0  0  0
    1.3463   -0.6894   -4.2653 C   0  0  0  0  0  0  0  0  0  0  0  0
    1.0087   -0.0341   -3.0807 C   0  0  0  0  0  0  0  0  0  0  0  0
    0.9913   -0.7450   -1.8819 C   0  0  0  0  0  0  0  0  0  0  0  0
    1.3212   -2.1117   -1.8247 C   0  0  0  0  0  0  0  0  0  0  0  0
    1.2929   -2.7871   -0.5006 C   0  0  0  0  0  0  0  0  0  0  0  0
    2.0634   -3.9710   -0.2307 C   0  0  0  0  0  0  0  0  0  0  0  0
    2.0123   -4.5517    1.0072 C   0  0  0  0  0  0  0  0  0  0  0  0
    2.7486   -5.8130    1.3958 C   0  0  1  0  0  0  0  0  0  0  0  0
    1.8901   -6.8631    1.3977 F   0  0  0  0  0  0  0  0  0  0  0  0
    3.7197   -6.0690    0.4836 F   0  0  0  0  0  0  0  0  0  0  0  0
    1.2241   -3.9728    1.9552 N   0  0  0  0  0  0  0  0  0  0  0  0
    1.0461   -4.4084    3.2159 N   0  0  0  0  0  0  0  0  0  0  0  0
    0.2156   -3.5168    3.7551 C   0  0  0  0  0  0  0  0  0  0  0  0
   -0.1599   -2.4853    2.8664 C   0  0  0  0  0  0  0  0  0  0  0  0
   -1.0806   -1.3922    3.2391 C   0  0  0  0  0  0  0  0  0  0  0  0
   -1.6473   -1.3912    4.3268 O   0  0  0  0  0  0  0  0  0  0  0  0
   -1.2515   -0.3869    2.3176 N   0  0  0  0  0  0  0  0  0  0  0  0
   -2.0721    0.7125    2.5388 C   0  0  0  0  0  0  0  0  0  0  0  0
   -2.9173    0.9880    3.6104 C   0  0  0  0  0  0  0  0  0  0  0  0
   -3.4929    2.1997    3.3426 N   0  0  0  0  0  0  0  0  0  0  0  0
   -4.5037    2.8723    4.1335 C   0  0  0  0  0  0  0  0  0  0  0  0
   -3.0914    2.7202    2.1900 N   0  0  0  0  0  0  0  0  0  0  0  0
   -2.2202    1.8396    1.6808 C   0  0  0  0  0  0  0  0  0  0  0  0
   -1.5177    2.0827    0.4032 C   0  0  0  0  0  0  0  0  0  0  0  0
   -0.7013    1.2751   -0.0432 O   0  0  0  0  0  0  0  0  0  0  0  0
   -1.8324    3.2546   -0.2112 N   0  0  0  0  0  0  0  0  0  0  0  0
   -1.3090    3.6220   -1.5161 C   0  0  0  0  0  0  0  0  0  0  0  0
   -2.2817    3.4456   -2.6388 C   0  0  0  0  0  0  0  0  0  0  0  0
   -2.4892    2.4530   -3.5580 C   0  0  0  0  0  0  0  0  0  0  0  0
   -3.6218    2.8562   -4.3417 C   0  0  0  0  0  0  0  0  0  0  0  0
   -4.0186    4.0607   -3.8362 C   0  0  0  0  0  0  0  0  0  0  0  0
   -3.2147    4.4272   -2.8056 O   0  0  0  0  0  0  0  0  0  0  0  0
    0.5142   -2.7962    1.6685 C   0  0  0  0  0  0  0  0  0  0  0  0
    0.5578   -2.2292    0.4574 N   0  0  0  0  0  0  0  0  0  0  0  0
    2.3000   -5.8708   -3.8869 H   0  0  0  0  0  0  0  0  0  0  0  0
    3.0517   -4.4692   -4.7131 H   0  0  0  0  0  0  0  0  0  0  0  0
    1.2868   -4.7697   -4.8751 H   0  0  0  0  0  0  0  0  0  0  0  0
    1.9028   -2.5518   -5.1857 H   0  0  0  0  0  0  0  0  0  0  0  0
    1.3682   -0.1464   -5.2139 H   0  0  0  0  0  0  0  0  0  0  0  0
    0.7617    1.0292   -3.0823 H   0  0  0  0  0  0  0  0  0  0  0  0
    0.7080   -0.2341   -0.9628 H   0  0  0  0  0  0  0  0  0  0  0  0
    2.6935   -4.4123   -0.9943 H   0  0  0  0  0  0  0  0  0  0  0  0
    3.1996   -5.7316    2.3980 H   0  0  0  0  0  0  0  0  0  0  0  0
   -0.1109   -3.6207    4.7889 H   0  0  0  0  0  0  0  0  0  0  0  0
   -0.7561   -0.4066    1.4240 H   0  0  0  0  0  0  0  0  0  0  0  0
   -3.1204    0.4177    4.5089 H   0  0  0  0  0  0  0  0  0  0  0  0
   -4.4072    2.5669    5.1840 H   0  0  0  0  0  0  0  0  0  0  0  0
   -5.5172    2.6239    3.7779 H   0  0  0  0  0  0  0  0  0  0  0  0
   -4.3528    3.9568    4.0522 H   0  0  0  0  0  0  0  0  0  0  0  0
   -2.5585    3.8175    0.2208 H   0  0  0  0  0  0  0  0  0  0  0  0
   -0.4339    2.9851   -1.6967 H   0  0  0  0  0  0  0  0  0  0  0  0
   -0.9704    4.6714   -1.4900 H   0  0  0  0  0  0  0  0  0  0  0  0
   -1.9065    1.5391   -3.6535 H   0  0  0  0  0  0  0  0  0  0  0  0
   -4.0779    2.3194   -5.1710 H   0  0  0  0  0  0  0  0  0  0  0  0
   -4.8150    4.7541   -4.0940 H   0  0  0  0  0  0  0  0  0  0  0  0
  1  2  1  0
  1 39  1  0
  1 40  1  0
  1 41  1  0
  2  3  1  0
  3  4  2  0
  3  8  1  0
  4  5  1  0
  4 42  1  0
  5  6  2  0
  5 43  1  0
  6  7  1  0
  6 44  1  0
  7  8  2  0
  7 45  1  0
  8  9  1  0
  9 10  1  0
  9 38  2  0
 10 11  2  0
 10 46  1  0
 11 12  1  0
 11 15  1  0
 12 13  1  0
 12 14  1  0
 12 47  1  1
 15 16  1  0
 15 37  1  0
 16 17  2  0
 17 18  1  0
 17 48  1  0
 18 19  1  0
 18 37  2  0
 19 20  2  0
 19 21  1  0
 21 22  1  0
 21 49  1  0
 22 23  2  0
 22 27  1  0
 23 24  1  0
 23 50  1  0
 24 25  1  0
 24 26  1  0
 25 51  1  0
 25 52  1  0
 25 53  1  0
 26 27  2  0
 27 28  1  0
 28 29  2  0
 28 30  1  0
 30 31  1  0
 30 54  1  0
 31 32  1  0
 31 55  1  0
 31 56  1  0
 32 33  2  0
 32 36  1  0
 33 34  1  0
 33 57  1  0
 34 35  2  0
 34 58  1  0
 35 36  1  0
 35 59  1  0
 37 38  1  0
M  END

