
     RDKit          3D

 57 60  0  0  0  0  0  0  0  0999 V2000
    1.2309   -1.5425   -0.4975 C   0  0  0  0  0  0  0  0  0  0  0  0
    2.5998   -1.1252   -0.9776 C   0  0  0  0  0  0  0  0  0  0  0  0
    3.1608   -1.6522   -2.1503 C   0  0  0  0  0  0  0  0  0  0  0  0
    4.4316   -1.2676   -2.5827 C   0  0  0  0  0  0  0  0  0  0  0  0
    5.1910   -0.3332   -1.8623 C   0  0  0  0  0  0  0  0  0  0  0  0
    6.6068   -0.0052   -2.3354 C   0  0  1  0  0  0  0  0  0  0  0  0
    6.7458   -0.1038   -3.7569 O   0  0  0  0  0  0  0  0  0  0  0  0
    6.0711    0.9175   -4.4907 C   0  0  0  0  0  0  0  0  0  0  0  0
    6.5676    2.3134   -4.1161 C   0  0  0  0  0  0  0  0  0  0  0  0
    6.4993    2.5131   -2.5977 C   0  0  0  0  0  0  0  0  0  0  0  0
    7.1895    1.3432   -1.8676 C   0  0  2  0  0  0  0  0  0  0  0  0
    8.6255    1.3090   -2.1166 N   0  0  0  0  0  0  0  0  0  0  0  0
    9.4986    2.0159   -1.3263 C   0  0  0  0  0  0  0  0  0  0  0  0
    9.1154    2.6334   -0.3396 O   0  0  0  0  0  0  0  0  0  0  0  0
   10.8390    1.9983   -1.7024 N   0  0  0  0  0  0  0  0  0  0  0  0
   11.4073    1.1978   -2.7742 C   0  0  0  0  0  0  0  0  0  0  0  0
   12.5832    1.9480   -3.4048 C   0  0  0  0  0  0  0  0  0  0  0  0
   13.5286    2.3525   -2.4433 O   0  0  0  0  0  0  0  0  0  0  0  0
   12.9672    3.2115   -1.4591 C   0  0  2  0  0  0  0  0  0  0  0  0
   14.0496    3.6508   -0.4952 C   0  0  0  0  0  0  0  0  0  0  0  0
   15.2402    2.9213   -0.3605 C   0  0  0  0  0  0  0  0  0  0  0  0
   16.2004    3.3332    0.5665 C   0  0  0  0  0  0  0  0  0  0  0  0
   15.9897    4.4603    1.3640 C   0  0  0  0  0  0  0  0  0  0  0  0
   14.8001    5.1906    1.2296 C   0  0  0  0  0  0  0  0  0  0  0  0
   14.5339    6.3005    1.9678 O   0  0  0  0  0  0  0  0  0  0  0  0
   13.8358    4.7832    0.2987 C   0  0  0  0  0  0  0  0  0  0  0  0
   11.8178    2.4915   -0.7394 C   0  0  0  0  0  0  0  0  0  0  0  0
    4.6346    0.1929   -0.6861 C   0  0  0  0  0  0  0  0  0  0  0  0
    3.3644   -0.1966   -0.2550 C   0  0  0  0  0  0  0  0  0  0  0  0
    0.7310   -2.2014   -1.2228 H   0  0  0  0  0  0  0  0  0  0  0  0
    0.5797   -0.6689   -0.3294 H   0  0  0  0  0  0  0  0  0  0  0  0
    1.2917   -2.0857    0.4610 H   0  0  0  0  0  0  0  0  0  0  0  0
    2.5934   -2.3808   -2.7369 H   0  0  0  0  0  0  0  0  0  0  0  0
    4.8497   -1.6955   -3.4964 H   0  0  0  0  0  0  0  0  0  0  0  0
    7.2721   -0.7976   -1.9514 H   0  0  0  0  0  0  0  0  0  0  0  0
    4.9797    0.8475   -4.3220 H   0  0  0  0  0  0  0  0  0  0  0  0
    6.2589    0.6938   -5.5521 H   0  0  0  0  0  0  0  0  0  0  0  0
    5.9666    3.0732   -4.6433 H   0  0  0  0  0  0  0  0  0  0  0  0
    7.6083    2.4373   -4.4621 H   0  0  0  0  0  0  0  0  0  0  0  0
    5.4456    2.5639   -2.2742 H   0  0  0  0  0  0  0  0  0  0  0  0
    6.9759    3.4569   -2.2911 H   0  0  0  0  0  0  0  0  0  0  0  0
    7.0691    1.4672   -0.7836 H   0  0  0  0  0  0  0  0  0  0  0  0
    8.9297    0.8111   -2.9419 H   0  0  0  0  0  0  0  0  0  0  0  0
   10.6671    1.0147   -3.5661 H   0  0  0  0  0  0  0  0  0  0  0  0
   11.7542    0.2132   -2.3988 H   0  0  0  0  0  0  0  0  0  0  0  0
   12.1931    2.8300   -3.9538 H   0  0  0  0  0  0  0  0  0  0  0  0
   13.1091    1.2980   -4.1209 H   0  0  0  0  0  0  0  0  0  0  0  0
   12.5434    4.1053   -1.9626 H   0  0  0  0  0  0  0  0  0  0  0  0
   15.4067    2.0482   -0.9910 H   0  0  0  0  0  0  0  0  0  0  0  0
   17.1314    2.7699    0.6717 H   0  0  0  0  0  0  0  0  0  0  0  0
   16.7472    4.7786    2.0876 H   0  0  0  0  0  0  0  0  0  0  0  0
   15.2739    6.4748    2.5637 H   0  0  0  0  0  0  0  0  0  0  0  0
   12.9215    5.3752    0.2083 H   0  0  0  0  0  0  0  0  0  0  0  0
   11.3001    3.1623   -0.0441 H   0  0  0  0  0  0  0  0  0  0  0  0
   12.2466    1.6535   -0.1544 H   0  0  0  0  0  0  0  0  0  0  0  0
    5.1915    0.9141   -0.0847 H   0  0  0  0  0  0  0  0  0  0  0  0
    2.9595    0.2347    0.6656 H   0  0  0  0  0  0  0  0  0  0  0  0
  1  2  1  0
  1 30  1  0
  1 31  1  0
  1 32  1  0
  2  3  2  0
  2 29  1  0
  3  4  1  0
  3 33  1  0
  4  5  2  0
  4 34  1  0
  5  6  1  0
  5 28  1  0
  6  7  1  0
  6 11  1  0
  6 35  1  1
  7  8  1  0
  8  9  1  0
  8 36  1  0
  8 37  1  0
  9 10  1  0
  9 38  1  0
  9 39  1  0
 10 11  1  0
 10 40  1  0
 10 41  1  0
 11 12  1  0
 11 42  1  1
 12 13  1  0
 12 43  1  0
 13 14  2  0
 13 15  1  0
 15 16  1  0
 15 27  1  0
 16 17  1  0
 16 44  1  0
 16 45  1  0
 17 18  1  0
 17 46  1  0
 17 47  1  0
 18 19  1  0
 19 20  1  0
 19 27  1  0
 19 48  1  6
 20 21  2  0
 20 26  1  0
 21 22  1  0
 21 49  1  0
 22 23  2  0
 22 50  1  0
 23 24  1  0
 23 51  1  0
 24 25  1  0
 24 26  2  0
 25 52  1  0
 26 53  1  0
 27 54  1  0
 27 55  1  0
 28 29  2  0
 28 56  1  0
 29 57  1  0
M  END

