
     RDKit          3D

 58 61  0  0  0  0  0  0  0  0999 V2000
   -0.8733   -0.9217    1.1779 N   0  0  0  0  0  0  0  0  0  0  0  0
   -0.4056   -0.9083   -0.1077 C   0  0  0  0  0  0  0  0  0  0  0  0
   -0.1039    0.2974   -0.6105 N   0  0  0  0  0  0  0  0  0  0  0  0
    0.3916    0.3667   -1.8375 C   0  0  0  0  0  0  0  0  0  0  0  0
    0.6087   -0.7844   -2.6173 C   0  0  0  0  0  0  0  0  0  0  0  0
    1.3063   -0.6036   -3.9454 C   0  0  0  0  0  0  0  0  0  0  0  0
    2.0049    0.3964   -4.0838 O   0  0  0  0  0  0  0  0  0  0  0  0
    1.1660   -1.5333   -4.9441 N   0  0  0  0  0  0  0  0  0  0  0  0
    0.2081   -2.6343   -5.0294 C   0  0  0  0  0  0  0  0  0  0  0  0
   -0.6400   -2.4864   -6.2955 C   0  0  0  0  0  0  0  0  0  0  0  0
    0.1564   -2.3732   -7.4547 O   0  0  0  0  0  0  0  0  0  0  0  0
    1.0345   -1.2662   -7.3805 C   0  0  0  0  0  0  0  0  0  0  0  0
    1.9545   -1.3664   -6.1660 C   0  0  0  0  0  0  0  0  0  0  0  0
    0.2827   -1.9812   -2.1255 N   0  0  0  0  0  0  0  0  0  0  0  0
   -0.2431   -2.0879   -0.9054 C   0  0  0  0  0  0  0  0  0  0  0  0
   -0.5958   -3.4589   -0.4487 C   0  0  0  0  0  0  0  0  0  0  0  0
    0.1778   -4.5556   -0.8805 C   0  0  0  0  0  0  0  0  0  0  0  0
   -0.1433   -5.8492   -0.4903 C   0  0  0  0  0  0  0  0  0  0  0  0
   -1.2563   -6.1285    0.3251 C   0  0  0  0  0  0  0  0  0  0  0  0
   -1.4815   -7.5766    0.6978 C   0  0  0  0  0  0  0  0  0  0  0  0
   -0.6297   -8.4148    0.4579 O   0  0  0  0  0  0  0  0  0  0  0  0
   -2.6863   -7.8908    1.2770 N   0  0  0  0  0  0  0  0  0  0  0  0
   -2.9723   -9.2127    1.8123 C   0  0  2  0  0  0  0  0  0  0  0  0
   -2.2460   -9.8920    1.3434 H   0  0  0  0  0  0  0  0  0  0  0  0
   -4.3828   -9.6414    1.3551 C   0  0  0  0  0  0  0  0  0  0  0  0
   -4.4910   -9.7094   -0.0402 O   0  0  0  0  0  0  0  0  0  0  0  0
   -2.8217   -9.3059    3.3276 C   0  0  0  0  0  0  0  0  0  0  0  0
   -2.8753   -8.1720    4.1473 C   0  0  0  0  0  0  0  0  0  0  0  0
   -2.7786   -8.3237    5.5290 C   0  0  0  0  0  0  0  0  0  0  0  0
   -2.8275   -7.2312    6.3029 F   0  0  0  0  0  0  0  0  0  0  0  0
   -2.6307   -9.5672    6.1362 C   0  0  0  0  0  0  0  0  0  0  0  0
   -2.5761  -10.6884    5.3039 C   0  0  0  0  0  0  0  0  0  0  0  0
   -2.3596  -12.4117    6.0873 Br  0  0  0  0  0  0  0  0  0  0  0  0
   -2.6677  -10.5720    3.9159 C   0  0  0  0  0  0  0  0  0  0  0  0
   -2.0149   -5.0241    0.7306 C   0  0  0  0  0  0  0  0  0  0  0  0
   -3.1102   -5.1953    1.5157 F   0  0  0  0  0  0  0  0  0  0  0  0
   -1.7094   -3.7166    0.3702 C   0  0  0  0  0  0  0  0  0  0  0  0
   -0.7741   -0.0418    1.6738 H   0  0  0  0  0  0  0  0  0  0  0  0
   -0.7892   -1.7660    1.7296 H   0  0  0  0  0  0  0  0  0  0  0  0
    0.6475    1.3520   -2.2359 H   0  0  0  0  0  0  0  0  0  0  0  0
   -0.4248   -2.6627   -4.1385 H   0  0  0  0  0  0  0  0  0  0  0  0
    0.7604   -3.5915   -5.0733 H   0  0  0  0  0  0  0  0  0  0  0  0
   -1.2980   -1.5975   -6.1909 H   0  0  0  0  0  0  0  0  0  0  0  0
   -1.2788   -3.3735   -6.4272 H   0  0  0  0  0  0  0  0  0  0  0  0
    0.4573   -0.3197   -7.3296 H   0  0  0  0  0  0  0  0  0  0  0  0
    1.6242   -1.2605   -8.3099 H   0  0  0  0  0  0  0  0  0  0  0  0
    2.5696   -0.4649   -6.0572 H   0  0  0  0  0  0  0  0  0  0  0  0
    2.6171   -2.2438   -6.2846 H   0  0  0  0  0  0  0  0  0  0  0  0
    1.0375   -4.3695   -1.5250 H   0  0  0  0  0  0  0  0  0  0  0  0
    0.4661   -6.7005   -0.7993 H   0  0  0  0  0  0  0  0  0  0  0  0
   -3.3166   -7.1319    1.5086 H   0  0  0  0  0  0  0  0  0  0  0  0
   -5.1278   -8.9489    1.8056 H   0  0  0  0  0  0  0  0  0  0  0  0
   -4.6047  -10.6443    1.7503 H   0  0  0  0  0  0  0  0  0  0  0  0
   -4.1517   -8.8772   -0.3995 H   0  0  0  0  0  0  0  0  0  0  0  0
   -2.9712   -7.1663    3.7367 H   0  0  0  0  0  0  0  0  0  0  0  0
   -2.5553   -9.6432    7.2209 H   0  0  0  0  0  0  0  0  0  0  0  0
   -2.6078  -11.4654    3.2917 H   0  0  0  0  0  0  0  0  0  0  0  0
   -2.3744   -2.9219    0.7098 H   0  0  0  0  0  0  0  0  0  0  0  0
  1  2  1  0
  1 38  1  0
  1 39  1  0
  2  3  2  0
  2 15  1  0
  3  4  1  0
  4  5  2  0
  4 40  1  0
  5  6  1  0
  5 14  1  0
  6  7  2  0
  6  8  1  0
  8  9  1  0
  8 13  1  0
  9 10  1  0
  9 41  1  0
  9 42  1  0
 10 11  1  0
 10 43  1  0
 10 44  1  0
 11 12  1  0
 12 13  1  0
 12 45  1  0
 12 46  1  0
 13 47  1  0
 13 48  1  0
 14 15  2  0
 15 16  1  0
 16 17  2  0
 16 37  1  0
 17 18  1  0
 17 49  1  0
 18 19  2  0
 18 50  1  0
 19 20  1  0
 19 35  1  0
 20 21  2  0
 20 22  1  0
 22 23  1  0
 22 51  1  0
 23 24  1  6
 23 25  1  0
 23 27  1  0
 25 26  1  0
 25 52  1  0
 25 53  1  0
 26 54  1  0
 27 28  2  0
 27 34  1  0
 28 29  1  0
 28 55  1  0
 29 30  1  0
 29 31  2  0
 31 32  1  0
 31 56  1  0
 32 33  1  0
 32 34  2  0
 34 57  1  0
 35 36  1  0
 35 37  2  0
 37 58  1  0
M  END

