
     RDKit          3D

 37 39  0  0  0  0  0  0  0  0999 V2000
    3.4161   -1.1612    1.6013 N   0  0  0  0  0  0  0  0  0  0  0  0
    4.1785   -2.1898    1.1632 C   0  0  0  0  0  0  0  0  0  0  0  0
    4.3591   -3.2403    1.7431 O   0  0  0  0  0  0  0  0  0  0  0  0
    4.8110   -1.9740   -0.0985 N   0  0  0  0  0  0  0  0  0  0  0  0
    4.7444   -0.8777   -0.9142 C   0  0  0  0  0  0  0  0  0  0  0  0
    4.0707    0.1180   -0.6925 O   0  0  0  0  0  0  0  0  0  0  0  0
    5.5757   -0.9740   -2.2017 C   0  0  0  0  0  0  0  0  0  0  0  0
    6.9867   -1.0190   -1.9642 O   0  0  0  0  0  0  0  0  0  0  0  0
    7.5549   -2.2314   -1.7694 C   0  0  0  0  0  0  0  0  0  0  0  0
    6.9069   -3.2560   -1.6600 O   0  0  0  0  0  0  0  0  0  0  0  0
    9.0112   -2.1514   -1.7007 C   0  0  0  0  0  0  0  0  0  0  0  0
    9.8370   -1.0478   -1.8372 C   0  0  0  0  0  0  0  0  0  0  0  0
   11.2094   -1.3691   -1.7180 C   0  0  0  0  0  0  0  0  0  0  0  0
   11.4154   -2.7260   -1.4840 C   0  0  0  0  0  0  0  0  0  0  0  0
    9.9242   -3.6083   -1.4221 S   0  0  0  0  0  0  0  0  0  0  0  0
   12.7436   -3.3063   -1.2905 C   0  0  0  0  0  0  0  0  0  0  0  0
   12.9534   -4.5842   -0.7424 C   0  0  0  0  0  0  0  0  0  0  0  0
   14.2449   -5.0796   -0.5666 C   0  0  0  0  0  0  0  0  0  0  0  0
   15.3449   -4.2973   -0.9312 C   0  0  0  0  0  0  0  0  0  0  0  0
   15.1454   -3.0246   -1.4757 C   0  0  0  0  0  0  0  0  0  0  0  0
   13.8583   -2.5128   -1.6670 C   0  0  0  0  0  0  0  0  0  0  0  0
   13.6242   -1.1657   -2.3223 C   0  0  0  0  0  0  0  0  0  0  0  0
   12.3924   -0.4361   -1.7668 C   0  0  0  0  0  0  0  0  0  0  0  0
    2.9396   -1.2830    2.4847 H   0  0  0  0  0  0  0  0  0  0  0  0
    3.3042   -0.3293    1.0250 H   0  0  0  0  0  0  0  0  0  0  0  0
    5.3833   -2.7624   -0.4092 H   0  0  0  0  0  0  0  0  0  0  0  0
    5.3912   -0.0539   -2.7671 H   0  0  0  0  0  0  0  0  0  0  0  0
    5.2673   -1.8561   -2.7851 H   0  0  0  0  0  0  0  0  0  0  0  0
    9.4468   -0.0454   -2.0168 H   0  0  0  0  0  0  0  0  0  0  0  0
   12.0945   -5.1886   -0.4386 H   0  0  0  0  0  0  0  0  0  0  0  0
   14.3929   -6.0731   -0.1369 H   0  0  0  0  0  0  0  0  0  0  0  0
   16.3600   -4.6764   -0.7893 H   0  0  0  0  0  0  0  0  0  0  0  0
   16.0085   -2.4169   -1.7627 H   0  0  0  0  0  0  0  0  0  0  0  0
   13.4772   -1.3305   -3.4071 H   0  0  0  0  0  0  0  0  0  0  0  0
   14.5223   -0.5368   -2.2234 H   0  0  0  0  0  0  0  0  0  0  0  0
   12.1638    0.4503   -2.3788 H   0  0  0  0  0  0  0  0  0  0  0  0
   12.6062   -0.0652   -0.7464 H   0  0  0  0  0  0  0  0  0  0  0  0
  1  2  1  0
  1 24  1  0
  1 25  1  0
  2  3  2  0
  2  4  1  0
  4  5  1  0
  4 26  1  0
  5  6  2  0
  5  7  1  0
  7  8  1  0
  7 27  1  0
  7 28  1  0
  8  9  1  0
  9 10  2  0
  9 11  1  0
 11 12  2  0
 11 15  1  0
 12 13  1  0
 12 29  1  0
 13 14  2  0
 13 23  1  0
 14 15  1  0
 14 16  1  0
 16 17  2  0
 16 21  1  0
 17 18  1  0
 17 30  1  0
 18 19  2  0
 18 31  1  0
 19 20  1  0
 19 32  1  0
 20 21  2  0
 20 33  1  0
 21 22  1  0
 22 23  1  0
 22 34  1  0
 22 35  1  0
 23 36  1  0
 23 37  1  0
M  END

