
     RDKit          3D

 41 43  0  0  0  0  0  0  0  0999 V2000
    1.3285   -0.2877    0.4254 C   0  0  0  0  0  0  0  0  0  0  0  0
    2.6626   -0.3112   -0.1520 N   0  0  0  0  0  0  0  0  0  0  0  0
    2.9512    0.4286   -1.3650 C   0  0  2  0  0  0  0  0  0  0  0  0
    4.0539    0.4523   -1.4542 H   0  0  0  0  0  0  0  0  0  0  0  0
    2.4579    1.8966   -1.3540 C   0  0  1  0  0  0  0  0  0  0  0  0
    1.3590    1.8632   -1.4529 H   0  0  0  0  0  0  0  0  0  0  0  0
    2.7182    2.5460   -0.0735 N   0  0  0  0  0  0  0  0  0  0  0  0
    2.0757    3.8301    0.1827 C   0  0  0  0  0  0  0  0  0  0  0  0
    3.1622    4.9298    0.0101 C   0  0  0  0  0  0  0  0  0  0  0  0
    4.5056    4.1627    0.1276 C   0  0  0  0  0  0  0  0  0  0  0  0
    4.0884    2.6927    0.4046 C   0  0  0  0  0  0  0  0  0  0  0  0
    3.0010    2.6260   -2.6091 C   0  0  0  0  0  0  0  0  0  0  0  0
    2.5959    1.9243   -3.9108 C   0  0  0  0  0  0  0  0  0  0  0  0
    3.0288    0.4564   -3.9153 C   0  0  0  0  0  0  0  0  0  0  0  0
    2.5006   -0.2745   -2.6760 C   0  0  1  0  0  0  0  0  0  0  0  0
    2.9878   -1.6203   -2.6779 O   0  0  0  0  0  0  0  0  0  0  0  0
    1.8968   -2.5202   -2.7769 C   0  0  0  0  0  0  0  0  0  0  0  0
    0.7539   -1.6318   -3.2712 C   0  0  0  0  0  0  0  0  0  0  0  0
    1.0818   -0.3751   -2.7091 O   0  0  0  0  0  0  0  0  0  0  0  0
    1.3322   -0.9073    1.3375 H   0  0  0  0  0  0  0  0  0  0  0  0
    0.5141   -0.6518   -0.2314 H   0  0  0  0  0  0  0  0  0  0  0  0
    1.0842    0.7388    0.7364 H   0  0  0  0  0  0  0  0  0  0  0  0
    3.0054   -1.2622   -0.2635 H   0  0  0  0  0  0  0  0  0  0  0  0
    1.7002    3.8515    1.2240 H   0  0  0  0  0  0  0  0  0  0  0  0
    1.2031    3.9730   -0.4733 H   0  0  0  0  0  0  0  0  0  0  0  0
    3.0604    5.7178    0.7725 H   0  0  0  0  0  0  0  0  0  0  0  0
    3.0766    5.4223   -0.9709 H   0  0  0  0  0  0  0  0  0  0  0  0
    5.1498    4.5600    0.9276 H   0  0  0  0  0  0  0  0  0  0  0  0
    5.0780    4.2368   -0.8104 H   0  0  0  0  0  0  0  0  0  0  0  0
    4.1130    2.4986    1.4933 H   0  0  0  0  0  0  0  0  0  0  0  0
    4.7592    1.9552   -0.0570 H   0  0  0  0  0  0  0  0  0  0  0  0
    4.1027    2.6834   -2.5475 H   0  0  0  0  0  0  0  0  0  0  0  0
    2.6296    3.6635   -2.6167 H   0  0  0  0  0  0  0  0  0  0  0  0
    3.0243    2.4502   -4.7801 H   0  0  0  0  0  0  0  0  0  0  0  0
    1.4992    1.9694   -4.0224 H   0  0  0  0  0  0  0  0  0  0  0  0
    4.1284    0.3725   -3.9151 H   0  0  0  0  0  0  0  0  0  0  0  0
    2.6724   -0.0649   -4.8187 H   0  0  0  0  0  0  0  0  0  0  0  0
    1.6631   -2.9618   -1.7897 H   0  0  0  0  0  0  0  0  0  0  0  0
    2.1500   -3.3345   -3.4748 H   0  0  0  0  0  0  0  0  0  0  0  0
   -0.2380   -1.9372   -2.9070 H   0  0  0  0  0  0  0  0  0  0  0  0
    0.7271   -1.5853   -4.3771 H   0  0  0  0  0  0  0  0  0  0  0  0
  1  2  1  0
  1 20  1  0
  1 21  1  0
  1 22  1  0
  2  3  1  0
  2 23  1  0
  3  4  1  6
  3  5  1  0
  3 15  1  0
  5  6  1  6
  5  7  1  0
  5 12  1  0
  7  8  1  0
  7 11  1  0
  8  9  1  0
  8 24  1  0
  8 25  1  0
  9 10  1  0
  9 26  1  0
  9 27  1  0
 10 11  1  0
 10 28  1  0
 10 29  1  0
 11 30  1  0
 11 31  1  0
 12 13  1  0
 12 32  1  0
 12 33  1  0
 13 14  1  0
 13 34  1  0
 13 35  1  0
 14 15  1  0
 14 36  1  0
 14 37  1  0
 15 16  1  1
 15 19  1  0
 16 17  1  0
 17 18  1  0
 17 38  1  0
 17 39  1  0
 18 19  1  0
 18 40  1  0
 18 41  1  0
M  END

