
     RDKit          3D

 49 51  0  0  0  0  0  0  0  0999 V2000
    2.9359    1.2228    2.9253 C   0  0  0  0  0  0  0  0  0  0  0  0
    3.1201    0.4636    1.6074 C   0  0  2  0  0  0  0  0  0  0  0  0
    4.4569   -0.2847    1.6097 C   0  0  0  0  0  0  0  0  0  0  0  0
    4.6140   -1.1229    0.3481 C   0  0  0  0  0  0  0  0  0  0  0  0
    4.3226   -0.3084   -0.8920 C   0  0  0  0  0  0  0  0  0  0  0  0
    4.8272   -0.7194   -2.1299 C   0  0  0  0  0  0  0  0  0  0  0  0
    4.5774   -0.0165   -3.3098 C   0  0  0  0  0  0  0  0  0  0  0  0
    3.7980    1.1382   -3.2361 C   0  0  0  0  0  0  0  0  0  0  0  0
    3.2838    1.5737   -2.0150 C   0  0  0  0  0  0  0  0  0  0  0  0
    3.5339    0.8739   -0.8085 C   0  0  0  0  0  0  0  0  0  0  0  0
    3.0490    1.3403    0.4229 N   0  0  0  0  0  0  0  0  0  0  0  0
    2.0721    2.4148    0.4405 C   0  0  0  0  0  0  0  0  0  0  0  0
    0.6291    1.9844    0.1048 C   0  0  0  0  0  0  0  0  0  0  0  0
   -0.3679    3.0768    0.4724 C   0  0  0  0  0  0  0  0  0  0  0  0
   -0.2869    3.6941    1.5246 O   0  0  0  0  0  0  0  0  0  0  0  0
   -1.3614    3.3138   -0.4355 N   0  0  0  0  0  0  0  0  0  0  0  0
   -2.4295    4.2659   -0.1819 C   0  0  0  0  0  0  0  0  0  0  0  0
   -2.0137    5.7299   -0.4389 C   0  0  1  0  0  0  0  0  0  0  0  0
   -1.6583    6.0141   -1.8994 C   0  0  0  0  0  0  0  0  0  0  0  0
   -2.8128    5.9814   -2.7199 O   0  0  0  0  0  0  0  0  0  0  0  0
   -3.7545    6.9512   -2.2961 C   0  0  0  0  0  0  0  0  0  0  0  0
   -4.1642    6.6964   -0.8511 C   0  0  0  0  0  0  0  0  0  0  0  0
   -3.0311    6.6269   -0.0010 O   0  0  0  0  0  0  0  0  0  0  0  0
    3.0984    0.5268    3.7624 H   0  0  0  0  0  0  0  0  0  0  0  0
    1.9290    1.6467    3.0466 H   0  0  0  0  0  0  0  0  0  0  0  0
    3.6697    2.0401    3.0160 H   0  0  0  0  0  0  0  0  0  0  0  0
    2.3139   -0.3022    1.5501 H   0  0  0  0  0  0  0  0  0  0  0  0
    4.5129   -0.9212    2.5068 H   0  0  0  0  0  0  0  0  0  0  0  0
    5.2721    0.4563    1.6829 H   0  0  0  0  0  0  0  0  0  0  0  0
    3.9246   -1.9869    0.3969 H   0  0  0  0  0  0  0  0  0  0  0  0
    5.6285   -1.5498    0.2878 H   0  0  0  0  0  0  0  0  0  0  0  0
    5.4387   -1.6269   -2.1604 H   0  0  0  0  0  0  0  0  0  0  0  0
    4.9832   -0.3628   -4.2629 H   0  0  0  0  0  0  0  0  0  0  0  0
    3.5800    1.7159   -4.1386 H   0  0  0  0  0  0  0  0  0  0  0  0
    2.6826    2.4813   -2.0102 H   0  0  0  0  0  0  0  0  0  0  0  0
    2.3919    3.2146   -0.2431 H   0  0  0  0  0  0  0  0  0  0  0  0
    2.0547    2.8780    1.4320 H   0  0  0  0  0  0  0  0  0  0  0  0
    0.3693    1.1028    0.7165 H   0  0  0  0  0  0  0  0  0  0  0  0
    0.5371    1.6783   -0.9492 H   0  0  0  0  0  0  0  0  0  0  0  0
   -1.3885    2.7612   -1.2830 H   0  0  0  0  0  0  0  0  0  0  0  0
   -2.7386    4.1902    0.8714 H   0  0  0  0  0  0  0  0  0  0  0  0
   -3.2817    3.9932   -0.8203 H   0  0  0  0  0  0  0  0  0  0  0  0
   -1.1409    5.9402    0.1982 H   0  0  0  0  0  0  0  0  0  0  0  0
   -0.9578    5.2582   -2.2855 H   0  0  0  0  0  0  0  0  0  0  0  0
   -1.1687    7.0064   -1.9680 H   0  0  0  0  0  0  0  0  0  0  0  0
   -4.6240    6.8845   -2.9689 H   0  0  0  0  0  0  0  0  0  0  0  0
   -3.3191    7.9680   -2.3871 H   0  0  0  0  0  0  0  0  0  0  0  0
   -4.7640    5.7663   -0.7962 H   0  0  0  0  0  0  0  0  0  0  0  0
   -4.7916    7.5191   -0.4728 H   0  0  0  0  0  0  0  0  0  0  0  0
  1  2  1  0
  1 24  1  0
  1 25  1  0
  1 26  1  0
  2  3  1  0
  2 11  1  0
  2 27  1  6
  3  4  1  0
  3 28  1  0
  3 29  1  0
  4  5  1  0
  4 30  1  0
  4 31  1  0
  5  6  1  0
  5 10  2  0
  6  7  2  0
  6 32  1  0
  7  8  1  0
  7 33  1  0
  8  9  2  0
  8 34  1  0
  9 10  1  0
  9 35  1  0
 10 11  1  0
 11 12  1  0
 12 13  1  0
 12 36  1  0
 12 37  1  0
 13 14  1  0
 13 38  1  0
 13 39  1  0
 14 15  2  0
 14 16  1  0
 16 17  1  0
 16 40  1  0
 17 18  1  0
 17 41  1  0
 17 42  1  0
 18 19  1  0
 18 23  1  0
 18 43  1  1
 19 20  1  0
 19 44  1  0
 19 45  1  0
 20 21  1  0
 21 22  1  0
 21 46  1  0
 21 47  1  0
 22 23  1  0
 22 48  1  0
 22 49  1  0
M  END

