
     RDKit          3D

 53 56  0  0  0  0  0  0  0  0999 V2000
    3.9138   -2.7789    1.8481 C   0  0  0  0  0  0  0  0  0  0  0  0
    4.9873   -2.2224    0.9274 C   0  0  0  0  0  0  0  0  0  0  0  0
    5.9319   -2.8865    0.5458 O   0  0  0  0  0  0  0  0  0  0  0  0
    4.7748   -0.9132    0.5455 N   0  0  0  0  0  0  0  0  0  0  0  0
    5.5169   -0.2092   -0.4107 C   0  0  0  0  0  0  0  0  0  0  0  0
    6.0306    1.4226   -0.0227 S   0  0  0  0  0  0  0  0  0  0  0  0
    6.8239    1.5888   -1.5622 C   0  0  0  0  0  0  0  0  0  0  0  0
    6.7241    0.4354   -2.3041 C   0  0  0  0  0  0  0  0  0  0  0  0
    5.9546   -0.6043   -1.6580 C   0  0  0  0  0  0  0  0  0  0  0  0
    5.6760   -1.9543   -2.2786 C   0  0  0  0  0  0  0  0  0  0  0  0
    4.2736   -2.3609   -2.1730 N   0  0  0  0  0  0  0  0  0  0  0  0
    3.3340   -1.6010   -2.9865 C   0  0  0  0  0  0  0  0  0  0  0  0
    3.3111   -2.0323   -4.4592 C   0  0  0  0  0  0  0  0  0  0  0  0
    3.0855   -3.4750   -4.5818 N   0  0  0  0  0  0  0  0  0  0  0  0
    2.6576   -3.9789   -5.8240 C   0  0  0  0  0  0  0  0  0  0  0  0
    3.2263   -5.1324   -6.4061 C   0  0  0  0  0  0  0  0  0  0  0  0
    2.7550   -5.6441   -7.6192 C   0  0  0  0  0  0  0  0  0  0  0  0
    1.7179   -4.9985   -8.2802 C   0  0  0  0  0  0  0  0  0  0  0  0
    1.2659   -5.4838   -9.4510 F   0  0  0  0  0  0  0  0  0  0  0  0
    1.1372   -3.8517   -7.7416 C   0  0  0  0  0  0  0  0  0  0  0  0
    1.6001   -3.3542   -6.5257 C   0  0  0  0  0  0  0  0  0  0  0  0
    4.0219   -4.2656   -3.7920 C   0  0  0  0  0  0  0  0  0  0  0  0
    4.0281   -3.7868   -2.3316 C   0  0  0  0  0  0  0  0  0  0  0  0
    7.3472    0.3358   -3.6795 C   0  0  0  0  0  0  0  0  0  0  0  0
    8.3295    1.4856   -3.9547 C   0  0  0  0  0  0  0  0  0  0  0  0
    7.7662    2.8381   -3.5046 C   0  0  0  0  0  0  0  0  0  0  0  0
    7.5170    2.8543   -1.9883 C   0  0  0  0  0  0  0  0  0  0  0  0
    4.3442   -3.6005    2.4345 H   0  0  0  0  0  0  0  0  0  0  0  0
    3.0919   -3.1850    1.2356 H   0  0  0  0  0  0  0  0  0  0  0  0
    3.4932   -2.0202    2.5264 H   0  0  0  0  0  0  0  0  0  0  0  0
    3.9753   -0.4379    0.9500 H   0  0  0  0  0  0  0  0  0  0  0  0
    6.2641   -2.7065   -1.7298 H   0  0  0  0  0  0  0  0  0  0  0  0
    6.0478   -1.9480   -3.3226 H   0  0  0  0  0  0  0  0  0  0  0  0
    3.5733   -0.5282   -2.9172 H   0  0  0  0  0  0  0  0  0  0  0  0
    2.3198   -1.7416   -2.5697 H   0  0  0  0  0  0  0  0  0  0  0  0
    4.2654   -1.7474   -4.9553 H   0  0  0  0  0  0  0  0  0  0  0  0
    2.5147   -1.4830   -4.9779 H   0  0  0  0  0  0  0  0  0  0  0  0
    4.0569   -5.6435   -5.9205 H   0  0  0  0  0  0  0  0  0  0  0  0
    3.1999   -6.5376   -8.0624 H   0  0  0  0  0  0  0  0  0  0  0  0
    0.3155   -3.3667   -8.2727 H   0  0  0  0  0  0  0  0  0  0  0  0
    1.1108   -2.4764   -6.1012 H   0  0  0  0  0  0  0  0  0  0  0  0
    5.0515   -4.2269   -4.2134 H   0  0  0  0  0  0  0  0  0  0  0  0
    3.7069   -5.3198   -3.8124 H   0  0  0  0  0  0  0  0  0  0  0  0
    4.7767   -4.3490   -1.7527 H   0  0  0  0  0  0  0  0  0  0  0  0
    3.0357   -4.0147   -1.9008 H   0  0  0  0  0  0  0  0  0  0  0  0
    6.5500    0.3354   -4.4474 H   0  0  0  0  0  0  0  0  0  0  0  0
    7.8676   -0.6297   -3.7939 H   0  0  0  0  0  0  0  0  0  0  0  0
    8.5818    1.5103   -5.0272 H   0  0  0  0  0  0  0  0  0  0  0  0
    9.2748    1.2942   -3.4155 H   0  0  0  0  0  0  0  0  0  0  0  0
    6.8165    3.0334   -4.0343 H   0  0  0  0  0  0  0  0  0  0  0  0
    8.4542    3.6546   -3.7779 H   0  0  0  0  0  0  0  0  0  0  0  0
    6.9214    3.7386   -1.7042 H   0  0  0  0  0  0  0  0  0  0  0  0
    8.4813    2.9552   -1.4548 H   0  0  0  0  0  0  0  0  0  0  0  0
  1  2  1  0
  1 28  1  0
  1 29  1  0
  1 30  1  0
  2  3  2  0
  2  4  1  0
  4  5  1  0
  4 31  1  0
  5  6  1  0
  5  9  2  0
  6  7  1  0
  7  8  2  0
  7 27  1  0
  8  9  1  0
  8 24  1  0
  9 10  1  0
 10 11  1  0
 10 32  1  0
 10 33  1  0
 11 12  1  0
 11 23  1  0
 12 13  1  0
 12 34  1  0
 12 35  1  0
 13 14  1  0
 13 36  1  0
 13 37  1  0
 14 15  1  0
 14 22  1  0
 15 16  2  0
 15 21  1  0
 16 17  1  0
 16 38  1  0
 17 18  2  0
 17 39  1  0
 18 19  1  0
 18 20  1  0
 20 21  2  0
 20 40  1  0
 21 41  1  0
 22 23  1  0
 22 42  1  0
 22 43  1  0
 23 44  1  0
 23 45  1  0
 24 25  1  0
 24 46  1  0
 24 47  1  0
 25 26  1  0
 25 48  1  0
 25 49  1  0
 26 27  1  0
 26 50  1  0
 26 51  1  0
 27 52  1  0
 27 53  1  0
M  END

