
     RDKit          3D

 43 48  0  0  0  0  0  0  0  0999 V2000
    0.1856   -0.7428    0.4989 C   0  0  0  0  0  0  0  0  0  0  0  0
    0.1334    0.6802    0.3794 C   0  0  0  0  0  0  0  0  0  0  0  0
   -1.0029    1.3742   -0.0015 C   0  0  0  0  0  0  0  0  0  0  0  0
   -1.0156    2.8551   -0.0936 C   0  0  0  0  0  0  0  0  0  0  0  0
   -1.7682    3.5368   -1.0703 C   0  0  0  0  0  0  0  0  0  0  0  0
   -1.7419    4.9274   -1.1598 C   0  0  0  0  0  0  0  0  0  0  0  0
   -0.9573    5.6850   -0.2776 C   0  0  0  0  0  0  0  0  0  0  0  0
   -0.9270    7.1000   -0.3725 N   0  0  0  0  0  0  0  0  0  0  0  0
   -1.2352    7.9972    0.6562 C   0  0  0  0  0  0  0  0  0  0  0  0
   -1.6725    7.7413    1.9624 C   0  0  0  0  0  0  0  0  0  0  0  0
   -1.9342    8.8354    2.7883 C   0  0  0  0  0  0  0  0  0  0  0  0
   -1.7718   10.1565    2.3305 C   0  0  0  0  0  0  0  0  0  0  0  0
   -1.3500   10.4071    1.0255 C   0  0  0  0  0  0  0  0  0  0  0  0
   -1.0804    9.3255    0.1744 C   0  0  0  0  0  0  0  0  0  0  0  0
   -0.6574    9.2221   -1.2087 C   0  0  0  0  0  0  0  0  0  0  0  0
   -0.3343   10.1656   -2.1947 C   0  0  0  0  0  0  0  0  0  0  0  0
    0.0677    9.7224   -3.4539 C   0  0  0  0  0  0  0  0  0  0  0  0
    0.1564    8.3454   -3.7326 C   0  0  0  0  0  0  0  0  0  0  0  0
   -0.1597    7.3859   -2.7698 C   0  0  0  0  0  0  0  0  0  0  0  0
   -0.5756    7.8355   -1.5099 C   0  0  0  0  0  0  0  0  0  0  0  0
   -0.2066    5.0205    0.7038 C   0  0  0  0  0  0  0  0  0  0  0  0
   -0.2455    3.6308    0.7957 C   0  0  0  0  0  0  0  0  0  0  0  0
   -2.1653    0.5662   -0.2891 C   0  0  0  0  0  0  0  0  0  0  0  0
   -3.3700    1.0057   -0.6660 N   0  0  0  0  0  0  0  0  0  0  0  0
   -4.3330   -0.3094   -0.8432 S   0  0  0  0  0  0  0  0  0  0  0  0
   -3.2671   -1.4896   -0.4493 N   0  0  0  0  0  0  0  0  0  0  0  0
   -2.1091   -0.8864   -0.1630 C   0  0  0  0  0  0  0  0  0  0  0  0
   -0.9044   -1.5346    0.2376 C   0  0  0  0  0  0  0  0  0  0  0  0
    1.1302   -1.2017    0.8013 H   0  0  0  0  0  0  0  0  0  0  0  0
    1.0493    1.2402    0.5795 H   0  0  0  0  0  0  0  0  0  0  0  0
   -2.3919    2.9711   -1.7611 H   0  0  0  0  0  0  0  0  0  0  0  0
   -2.3441    5.4367   -1.9147 H   0  0  0  0  0  0  0  0  0  0  0  0
   -1.8120    6.7217    2.3246 H   0  0  0  0  0  0  0  0  0  0  0  0
   -2.2758    8.6591    3.8115 H   0  0  0  0  0  0  0  0  0  0  0  0
   -1.9844   10.9906    3.0035 H   0  0  0  0  0  0  0  0  0  0  0  0
   -1.2345   11.4333    0.6676 H   0  0  0  0  0  0  0  0  0  0  0  0
   -0.3936   11.2349   -1.9763 H   0  0  0  0  0  0  0  0  0  0  0  0
    0.3210   10.4474   -4.2310 H   0  0  0  0  0  0  0  0  0  0  0  0
    0.4819    8.0173   -4.7232 H   0  0  0  0  0  0  0  0  0  0  0  0
   -0.0795    6.3213   -2.9944 H   0  0  0  0  0  0  0  0  0  0  0  0
    0.4093    5.5989    1.3950 H   0  0  0  0  0  0  0  0  0  0  0  0
    0.3271    3.1399    1.5854 H   0  0  0  0  0  0  0  0  0  0  0  0
   -0.8775   -2.6217    0.3229 H   0  0  0  0  0  0  0  0  0  0  0  0
  1  2  1  0
  1 28  2  0
  1 29  1  0
  2  3  2  0
  2 30  1  0
  3  4  1  0
  3 23  1  0
  4  5  2  0
  4 22  1  0
  5  6  1  0
  5 31  1  0
  6  7  2  0
  6 32  1  0
  7  8  1  0
  7 21  1  0
  8  9  1  0
  8 20  1  0
  9 10  2  0
  9 14  1  0
 10 11  1  0
 10 33  1  0
 11 12  2  0
 11 34  1  0
 12 13  1  0
 12 35  1  0
 13 14  2  0
 13 36  1  0
 14 15  1  0
 15 16  1  0
 15 20  2  0
 16 17  2  0
 16 37  1  0
 17 18  1  0
 17 38  1  0
 18 19  2  0
 18 39  1  0
 19 20  1  0
 19 40  1  0
 21 22  2  0
 21 41  1  0
 22 42  1  0
 23 24  2  0
 23 27  1  0
 24 25  1  0
 25 26  1  0
 26 27  2  0
 27 28  1  0
 28 43  1  0
M  END

