
     RDKit          3D

 47 48  0  0  0  0  0  0  0  0999 V2000
   -0.0455    0.0166    0.6814 C   0  0  0  0  0  0  0  0  0  0  0  0
    1.3278    0.3342    0.7289 O   0  0  0  0  0  0  0  0  0  0  0  0
    2.1715   -0.4586    1.4334 C   0  0  0  0  0  0  0  0  0  0  0  0
    3.5248   -0.0773    1.4357 C   0  0  0  0  0  0  0  0  0  0  0  0
    4.4639   -0.8332    2.1299 C   0  0  0  0  0  0  0  0  0  0  0  0
    4.0887   -1.9842    2.8410 C   0  0  0  0  0  0  0  0  0  0  0  0
    5.1091   -2.7650    3.6445 C   0  0  1  0  0  0  0  0  0  0  0  0
    4.9842   -2.5251    5.0881 N   0  0  0  0  0  0  0  0  0  0  0  0
    5.3068   -3.7821    5.7590 C   0  0  0  0  0  0  0  0  0  0  0  0
    5.1418   -4.8767    4.7014 C   0  0  0  0  0  0  0  0  0  0  0  0
    5.1725   -6.0799    4.8730 O   0  0  0  0  0  0  0  0  0  0  0  0
    4.9896   -4.2253    3.5029 N   0  0  0  0  0  0  0  0  0  0  0  0
    4.9982   -4.9291    2.2315 C   0  0  0  0  0  0  0  0  0  0  0  0
    6.3200   -4.8045    1.4351 C   0  0  1  0  0  0  0  0  0  0  0  0
    7.5120   -5.2060    2.3179 C   0  0  0  0  0  0  0  0  0  0  0  0
    6.2648   -5.5583    0.0557 C   0  0  1  0  0  0  0  0  0  0  0  0
    5.0263   -5.1135   -0.7525 C   0  0  0  0  0  0  0  0  0  0  0  0
    7.5118   -5.1912   -0.7764 C   0  0  0  0  0  0  0  0  0  0  0  0
    6.2197   -7.0890    0.2349 C   0  0  0  0  0  0  0  0  0  0  0  0
    2.7387   -2.3549    2.8320 C   0  0  0  0  0  0  0  0  0  0  0  0
    1.7808   -1.6094    2.1378 C   0  0  0  0  0  0  0  0  0  0  0  0
   -0.5239    0.7893    0.0649 H   0  0  0  0  0  0  0  0  0  0  0  0
   -0.5051    0.0262    1.6863 H   0  0  0  0  0  0  0  0  0  0  0  0
   -0.2240   -0.9708    0.2186 H   0  0  0  0  0  0  0  0  0  0  0  0
    3.8115    0.8191    0.8823 H   0  0  0  0  0  0  0  0  0  0  0  0
    5.5127   -0.5227    2.1240 H   0  0  0  0  0  0  0  0  0  0  0  0
    6.1189   -2.4506    3.3110 H   0  0  0  0  0  0  0  0  0  0  0  0
    4.0227   -2.2588    5.2886 H   0  0  0  0  0  0  0  0  0  0  0  0
    4.6663   -3.9753    6.6318 H   0  0  0  0  0  0  0  0  0  0  0  0
    6.3543   -3.8074    6.1152 H   0  0  0  0  0  0  0  0  0  0  0  0
    4.1563   -4.5610    1.6280 H   0  0  0  0  0  0  0  0  0  0  0  0
    4.8033   -5.9831    2.4816 H   0  0  0  0  0  0  0  0  0  0  0  0
    6.4424   -3.7364    1.1729 H   0  0  0  0  0  0  0  0  0  0  0  0
    7.3948   -6.2228    2.7226 H   0  0  0  0  0  0  0  0  0  0  0  0
    7.6034   -4.5290    3.1809 H   0  0  0  0  0  0  0  0  0  0  0  0
    8.4659   -5.1570    1.7736 H   0  0  0  0  0  0  0  0  0  0  0  0
    4.9680   -4.0148   -0.8290 H   0  0  0  0  0  0  0  0  0  0  0  0
    4.0836   -5.4724   -0.3126 H   0  0  0  0  0  0  0  0  0  0  0  0
    5.0765   -5.5157   -1.7773 H   0  0  0  0  0  0  0  0  0  0  0  0
    7.5849   -4.1012   -0.9272 H   0  0  0  0  0  0  0  0  0  0  0  0
    7.4611   -5.6620   -1.7716 H   0  0  0  0  0  0  0  0  0  0  0  0
    8.4460   -5.5298   -0.3042 H   0  0  0  0  0  0  0  0  0  0  0  0
    5.3446   -7.4128    0.8202 H   0  0  0  0  0  0  0  0  0  0  0  0
    7.1204   -7.4709    0.7395 H   0  0  0  0  0  0  0  0  0  0  0  0
    6.1579   -7.5860   -0.7471 H   0  0  0  0  0  0  0  0  0  0  0  0
    2.4242   -3.2544    3.3690 H   0  0  0  0  0  0  0  0  0  0  0  0
    0.7405   -1.9351    2.1490 H   0  0  0  0  0  0  0  0  0  0  0  0
  1  2  1  0
  1 22  1  0
  1 23  1  0
  1 24  1  0
  2  3  1  0
  3  4  2  0
  3 21  1  0
  4  5  1  0
  4 25  1  0
  5  6  2  0
  5 26  1  0
  6  7  1  0
  6 20  1  0
  7  8  1  0
  7 12  1  0
  7 27  1  6
  8  9  1  0
  8 28  1  0
  9 10  1  0
  9 29  1  0
  9 30  1  0
 10 11  2  0
 10 12  1  0
 12 13  1  0
 13 14  1  0
 13 31  1  0
 13 32  1  0
 14 15  1  0
 14 16  1  0
 14 33  1  6
 15 34  1  0
 15 35  1  0
 15 36  1  0
 16 17  1  6
 16 18  1  0
 16 19  1  0
 17 37  1  0
 17 38  1  0
 17 39  1  0
 18 40  1  0
 18 41  1  0
 18 42  1  0
 19 43  1  0
 19 44  1  0
 19 45  1  0
 20 21  2  0
 20 46  1  0
 21 47  1  0
M  END

