
     RDKit          3D

 25 26  0  0  0  0  0  0  0  0999 V2000
    1.1530    0.5354    1.0874 C   0  0  0  0  0  0  0  0  0  0  0  0
    2.5715    0.4195    0.9804 O   0  0  0  0  0  0  0  0  0  0  0  0
    3.0700   -0.8303    1.0070 C   0  0  0  0  0  0  0  0  0  0  0  0
    2.3802   -1.8176    1.1154 O   0  0  0  0  0  0  0  0  0  0  0  0
    4.5587   -0.8503    0.8880 C   0  0  0  0  0  0  0  0  0  0  0  0
    5.3302    0.3145    0.7575 C   0  0  0  0  0  0  0  0  0  0  0  0
    6.7116    0.2227    0.6399 C   0  0  0  0  0  0  0  0  0  0  0  0
    7.3651   -1.0223    0.6566 C   0  0  0  0  0  0  0  0  0  0  0  0
    8.7755   -1.0310    0.5324 N   0  0  0  0  0  0  0  0  0  0  0  0
    9.5838   -1.9051   -0.1518 C   0  0  0  0  0  0  0  0  0  0  0  0
   10.8676   -1.4126   -0.0629 C   0  0  0  0  0  0  0  0  0  0  0  0
   10.7380   -0.2217    0.6985 C   0  0  0  0  0  0  0  0  0  0  0  0
    9.4813    0.0068    1.0440 N   0  0  0  0  0  0  0  0  0  0  0  0
    6.5844   -2.1873    0.8146 C   0  0  0  0  0  0  0  0  0  0  0  0
    7.2959   -3.7816    0.9463 Cl  0  0  0  0  0  0  0  0  0  0  0  0
    5.1967   -2.0950    0.9186 C   0  0  0  0  0  0  0  0  0  0  0  0
    0.9285    1.6075    1.0270 H   0  0  0  0  0  0  0  0  0  0  0  0
    0.7988    0.1246    2.0452 H   0  0  0  0  0  0  0  0  0  0  0  0
    0.6535   -0.0075    0.2709 H   0  0  0  0  0  0  0  0  0  0  0  0
    4.8411    1.2885    0.7395 H   0  0  0  0  0  0  0  0  0  0  0  0
    7.3294    1.1144    0.5381 H   0  0  0  0  0  0  0  0  0  0  0  0
    9.1853   -2.7854   -0.6451 H   0  0  0  0  0  0  0  0  0  0  0  0
   11.7690   -1.8478   -0.4877 H   0  0  0  0  0  0  0  0  0  0  0  0
   11.5185    0.4730    1.0094 H   0  0  0  0  0  0  0  0  0  0  0  0
    4.5969   -2.9974    1.0408 H   0  0  0  0  0  0  0  0  0  0  0  0
  1  2  1  0
  1 17  1  0
  1 18  1  0
  1 19  1  0
  2  3  1  0
  3  4  2  0
  3  5  1  0
  5  6  2  0
  5 16  1  0
  6  7  1  0
  6 20  1  0
  7  8  2  0
  7 21  1  0
  8  9  1  0
  8 14  1  0
  9 10  1  0
  9 13  1  0
 10 11  2  0
 10 22  1  0
 11 12  1  0
 11 23  1  0
 12 13  2  0
 12 24  1  0
 14 15  1  0
 14 16  2  0
 16 25  1  0
M  END

