
     RDKit          3D

 31 31  0  0  0  0  0  0  0  0999 V2000
    2.9136    2.3307    0.2688 C   0  0  0  0  0  0  0  0  0  0  0  0
    2.5606    1.7128   -1.0841 C   0  0  0  0  0  0  0  0  0  0  0  0
    3.0476    0.2571   -1.3403 C   0  0  1  0  0  0  0  0  0  0  0  0
    2.5434   -0.7025   -0.2502 C   0  0  0  0  0  0  0  0  0  0  0  0
    2.5813   -0.1079   -2.6828 N   0  0  0  0  0  0  0  0  0  0  0  0
    4.5998    0.2902   -1.3341 C   0  0  0  0  0  0  0  0  0  0  0  0
    5.2124    0.0277   -0.3197 O   0  0  0  0  0  0  0  0  0  0  0  0
    5.3127    0.6729   -2.6269 C   0  0  1  0  0  0  0  0  0  0  0  0
    6.6770    1.3580   -2.3991 C   0  0  0  0  0  0  0  0  0  0  0  0
    7.5346    0.9152   -3.5909 C   0  0  0  0  0  0  0  0  0  0  0  0
    7.1548   -0.5629   -3.7504 C   0  0  0  0  0  0  0  0  0  0  0  0
    5.6322   -0.6032   -3.4921 C   0  0  0  0  0  0  0  0  0  0  0  0
    2.5606    3.3731    0.3128 H   0  0  0  0  0  0  0  0  0  0  0  0
    3.9993    2.3355    0.4500 H   0  0  0  0  0  0  0  0  0  0  0  0
    2.4433    1.7890    1.1038 H   0  0  0  0  0  0  0  0  0  0  0  0
    2.9433    2.3465   -1.9016 H   0  0  0  0  0  0  0  0  0  0  0  0
    1.4610    1.7021   -1.2049 H   0  0  0  0  0  0  0  0  0  0  0  0
    1.4441   -0.6543   -0.1813 H   0  0  0  0  0  0  0  0  0  0  0  0
    2.9748   -0.4719    0.7328 H   0  0  0  0  0  0  0  0  0  0  0  0
    2.8263   -1.7397   -0.4929 H   0  0  0  0  0  0  0  0  0  0  0  0
    1.5794    0.0684   -2.7637 H   0  0  0  0  0  0  0  0  0  0  0  0
    2.7105   -1.1066   -2.8480 H   0  0  0  0  0  0  0  0  0  0  0  0
    4.6401    1.3125   -3.2137 H   0  0  0  0  0  0  0  0  0  0  0  0
    7.1110    0.9804   -1.4594 H   0  0  0  0  0  0  0  0  0  0  0  0
    6.5849    2.4519   -2.3065 H   0  0  0  0  0  0  0  0  0  0  0  0
    8.6135    1.0727   -3.4323 H   0  0  0  0  0  0  0  0  0  0  0  0
    7.2517    1.4800   -4.4976 H   0  0  0  0  0  0  0  0  0  0  0  0
    7.6812   -1.1577   -2.9850 H   0  0  0  0  0  0  0  0  0  0  0  0
    7.4274   -0.9836   -4.7313 H   0  0  0  0  0  0  0  0  0  0  0  0
    5.3382   -1.5378   -2.9878 H   0  0  0  0  0  0  0  0  0  0  0  0
    5.0603   -0.5584   -4.4308 H   0  0  0  0  0  0  0  0  0  0  0  0
  1  2  1  0
  1 13  1  0
  1 14  1  0
  1 15  1  0
  2  3  1  0
  2 16  1  0
  2 17  1  0
  3  4  1  0
  3  5  1  0
  3  6  1  6
  4 18  1  0
  4 19  1  0
  4 20  1  0
  5 21  1  0
  5 22  1  0
  6  7  2  0
  6  8  1  0
  8  9  1  0
  8 12  1  0
  8 23  1  6
  9 10  1  0
  9 24  1  0
  9 25  1  0
 10 11  1  0
 10 26  1  0
 10 27  1  0
 11 12  1  0
 11 28  1  0
 11 29  1  0
 12 30  1  0
 12 31  1  0
M  END

