
     RDKit          3D

 46 47  0  0  0  0  0  0  0  0999 V2000
    1.1025    0.9623    1.7784 C   0  0  0  0  0  0  0  0  0  0  0  0
    2.5762    1.3192    1.6880 C   0  0  0  0  0  0  0  0  0  0  0  0
    3.3009    0.1451    1.3643 O   0  0  0  0  0  0  0  0  0  0  0  0
    4.7333    0.2171    1.3625 C   0  0  1  0  0  0  0  0  0  0  0  0
    5.2713    0.5530    2.7836 C   0  0  0  0  0  0  0  0  0  0  0  0
    6.0798    1.5179    3.0499 N   0  0  0  0  0  0  0  0  0  0  0  0
    4.9357   -0.3137    3.8083 N   0  0  0  0  0  0  0  0  0  0  0  0
    5.5208   -0.0992    5.1292 C   0  0  0  0  0  0  0  0  0  0  0  0
    5.2220   -1.4111    5.8617 C   0  0  0  0  0  0  0  0  0  0  0  0
    3.8945   -1.9117    5.2422 C   0  0  0  0  0  0  0  0  0  0  0  0
    3.6791   -1.0510    3.9728 C   0  0  0  0  0  0  0  0  0  0  0  0
    5.2266   -1.1816    0.9315 C   0  0  0  0  0  0  0  0  0  0  0  0
    4.7686   -1.5566   -0.4834 C   0  0  0  0  0  0  0  0  0  0  0  0
    5.1799   -0.5378   -1.5735 C   0  0  2  0  0  0  0  0  0  0  0  0
    4.4572   -0.8785   -2.8875 C   0  0  0  0  0  0  0  0  0  0  0  0
    6.6997   -0.5883   -1.8271 C   0  0  0  0  0  0  0  0  0  0  0  0
    4.7472    0.8734   -1.1050 C   0  0  0  0  0  0  0  0  0  0  0  0
    5.2253    1.2335    0.3073 C   0  0  0  0  0  0  0  0  0  0  0  0
    0.5044    1.8589    2.0055 H   0  0  0  0  0  0  0  0  0  0  0  0
    0.9237    0.2166    2.5681 H   0  0  0  0  0  0  0  0  0  0  0  0
    0.7468    0.5403    0.8255 H   0  0  0  0  0  0  0  0  0  0  0  0
    2.9339    1.7483    2.6445 H   0  0  0  0  0  0  0  0  0  0  0  0
    2.7217    2.0983    0.9154 H   0  0  0  0  0  0  0  0  0  0  0  0
    6.3263    2.0362    2.2088 H   0  0  0  0  0  0  0  0  0  0  0  0
    5.0526    0.7711    5.6337 H   0  0  0  0  0  0  0  0  0  0  0  0
    6.5884    0.1357    5.0318 H   0  0  0  0  0  0  0  0  0  0  0  0
    5.1605   -1.2741    6.9518 H   0  0  0  0  0  0  0  0  0  0  0  0
    6.0296   -2.1344    5.6682 H   0  0  0  0  0  0  0  0  0  0  0  0
    3.0479   -1.7889    5.9348 H   0  0  0  0  0  0  0  0  0  0  0  0
    3.9491   -2.9825    4.9948 H   0  0  0  0  0  0  0  0  0  0  0  0
    2.8336   -0.3531    4.1271 H   0  0  0  0  0  0  0  0  0  0  0  0
    3.4338   -1.6461    3.0862 H   0  0  0  0  0  0  0  0  0  0  0  0
    4.8736   -1.9362    1.6479 H   0  0  0  0  0  0  0  0  0  0  0  0
    6.3263   -1.1829    1.0035 H   0  0  0  0  0  0  0  0  0  0  0  0
    3.6698   -1.6400   -0.4770 H   0  0  0  0  0  0  0  0  0  0  0  0
    5.1603   -2.5557   -0.7430 H   0  0  0  0  0  0  0  0  0  0  0  0
    4.7321   -1.8856   -3.2429 H   0  0  0  0  0  0  0  0  0  0  0  0
    4.7172   -0.1606   -3.6834 H   0  0  0  0  0  0  0  0  0  0  0  0
    3.3627   -0.8557   -2.7584 H   0  0  0  0  0  0  0  0  0  0  0  0
    7.0032   -1.5893   -2.1753 H   0  0  0  0  0  0  0  0  0  0  0  0
    7.2930   -0.3616   -0.9281 H   0  0  0  0  0  0  0  0  0  0  0  0
    6.9911    0.1369   -2.6049 H   0  0  0  0  0  0  0  0  0  0  0  0
    3.6461    0.9263   -1.1315 H   0  0  0  0  0  0  0  0  0  0  0  0
    5.1138    1.6300   -1.8203 H   0  0  0  0  0  0  0  0  0  0  0  0
    4.8959    2.2520    0.5671 H   0  0  0  0  0  0  0  0  0  0  0  0
    6.3257    1.2540    0.3338 H   0  0  0  0  0  0  0  0  0  0  0  0
  1  2  1  0
  1 19  1  0
  1 20  1  0
  1 21  1  0
  2  3  1  0
  2 22  1  0
  2 23  1  0
  4  3  1  1
  4  5  1  0
  4 12  1  0
  4 18  1  0
  5  6  2  0
  5  7  1  0
  6 24  1  0
  7  8  1  0
  7 11  1  0
  8  9  1  0
  8 25  1  0
  8 26  1  0
  9 10  1  0
  9 27  1  0
  9 28  1  0
 10 11  1  0
 10 29  1  0
 10 30  1  0
 11 31  1  0
 11 32  1  0
 12 13  1  0
 12 33  1  0
 12 34  1  0
 13 14  1  0
 13 35  1  0
 13 36  1  0
 14 15  1  6
 14 16  1  0
 14 17  1  0
 15 37  1  0
 15 38  1  0
 15 39  1  0
 16 40  1  0
 16 41  1  0
 16 42  1  0
 17 18  1  0
 17 43  1  0
 17 44  1  0
 18 45  1  0
 18 46  1  0
M  END

