
     RDKit          3D

 53 55  0  0  0  0  0  0  0  0999 V2000
    0.6632   -7.3258   -2.6466 C   0  0  0  0  0  0  0  0  0  0  0  0
    2.0992   -7.1945   -2.2091 C   0  0  0  0  0  0  0  0  0  0  0  0
    2.9127   -8.1902   -2.5960 N   0  0  0  0  0  0  0  0  0  0  0  0
    4.2006   -8.1118   -2.2762 C   0  0  0  0  0  0  0  0  0  0  0  0
    4.7991   -7.1099   -1.6279 N   0  0  0  0  0  0  0  0  0  0  0  0
    4.0029   -6.1154   -1.2459 C   0  0  0  0  0  0  0  0  0  0  0  0
    2.6157   -6.1054   -1.4736 C   0  0  0  0  0  0  0  0  0  0  0  0
    1.8752   -4.8960   -0.9559 C   0  0  0  0  0  0  0  0  0  0  0  0
    2.4250   -3.8029   -0.9476 O   0  0  0  0  0  0  0  0  0  0  0  0
    0.6180   -5.0931   -0.4530 N   0  0  0  0  0  0  0  0  0  0  0  0
   -0.0924   -4.0420    0.2634 C   0  0  0  0  0  0  0  0  0  0  0  0
   -1.4071   -3.5128   -0.3893 C   0  0  1  0  0  0  0  0  0  0  0  0
   -2.5172   -4.5032   -0.3299 N   0  0  0  0  0  0  0  0  0  0  0  0
   -2.9391   -4.9571    0.9912 C   0  0  0  0  0  0  0  0  0  0  0  0
   -4.3741   -5.4973    0.9604 C   0  0  0  0  0  0  0  0  0  0  0  0
   -4.5191   -6.6210   -0.0693 C   0  0  0  0  0  0  0  0  0  0  0  0
   -3.9663   -6.1714   -1.4241 C   0  0  0  0  0  0  0  0  0  0  0  0
   -2.5474   -5.6064   -1.2813 C   0  0  0  0  0  0  0  0  0  0  0  0
   -1.8483   -2.2466    0.4043 C   0  0  0  0  0  0  0  0  0  0  0  0
   -0.9903   -0.9933    0.1342 C   0  0  0  0  0  0  0  0  0  0  0  0
   -0.8453   -0.6569   -1.2719 N   0  0  0  0  0  0  0  0  0  0  0  0
   -1.9945   -0.0074   -1.8711 C   0  0  0  0  0  0  0  0  0  0  0  0
   -0.3253   -1.8018   -2.0064 C   0  0  0  0  0  0  0  0  0  0  0  0
   -1.1741   -3.0815   -1.8584 C   0  0  0  0  0  0  0  0  0  0  0  0
    0.6261   -7.9730   -3.5327 H   0  0  0  0  0  0  0  0  0  0  0  0
    0.1999   -6.3561   -2.8713 H   0  0  0  0  0  0  0  0  0  0  0  0
    0.0548   -7.8175   -1.8666 H   0  0  0  0  0  0  0  0  0  0  0  0
    4.8369   -8.9493   -2.5886 H   0  0  0  0  0  0  0  0  0  0  0  0
    4.4596   -5.2647   -0.7291 H   0  0  0  0  0  0  0  0  0  0  0  0
    0.2658   -6.0398   -0.3900 H   0  0  0  0  0  0  0  0  0  0  0  0
    0.6273   -3.2214    0.3764 H   0  0  0  0  0  0  0  0  0  0  0  0
   -0.3297   -4.4034    1.2776 H   0  0  0  0  0  0  0  0  0  0  0  0
   -2.8833   -4.1290    1.7089 H   0  0  0  0  0  0  0  0  0  0  0  0
   -2.2706   -5.7619    1.3847 H   0  0  0  0  0  0  0  0  0  0  0  0
   -5.0544   -4.6670    0.7042 H   0  0  0  0  0  0  0  0  0  0  0  0
   -4.6551   -5.8507    1.9671 H   0  0  0  0  0  0  0  0  0  0  0  0
   -5.5710   -6.9397   -0.1586 H   0  0  0  0  0  0  0  0  0  0  0  0
   -3.9533   -7.5061    0.2773 H   0  0  0  0  0  0  0  0  0  0  0  0
   -4.6126   -5.3844   -1.8496 H   0  0  0  0  0  0  0  0  0  0  0  0
   -3.9573   -7.0101   -2.1410 H   0  0  0  0  0  0  0  0  0  0  0  0
   -2.1932   -5.2696   -2.2626 H   0  0  0  0  0  0  0  0  0  0  0  0
   -1.8770   -6.4461   -0.9709 H   0  0  0  0  0  0  0  0  0  0  0  0
   -1.8340   -2.4399    1.4894 H   0  0  0  0  0  0  0  0  0  0  0  0
   -2.8980   -2.0505    0.1328 H   0  0  0  0  0  0  0  0  0  0  0  0
    0.0203   -1.1345    0.5584 H   0  0  0  0  0  0  0  0  0  0  0  0
   -1.4286   -0.1349    0.6695 H   0  0  0  0  0  0  0  0  0  0  0  0
   -2.2403    0.9067   -1.3059 H   0  0  0  0  0  0  0  0  0  0  0  0
   -2.9216   -0.6218   -1.9216 H   0  0  0  0  0  0  0  0  0  0  0  0
   -1.7501    0.2986   -2.9014 H   0  0  0  0  0  0  0  0  0  0  0  0
    0.7046   -2.0015   -1.6646 H   0  0  0  0  0  0  0  0  0  0  0  0
   -0.2527   -1.5400   -3.0746 H   0  0  0  0  0  0  0  0  0  0  0  0
   -0.6820   -3.8858   -2.4261 H   0  0  0  0  0  0  0  0  0  0  0  0
   -2.1652   -2.9267   -2.3162 H   0  0  0  0  0  0  0  0  0  0  0  0
  1  2  1  0
  1 25  1  0
  1 26  1  0
  1 27  1  0
  2  3  2  0
  2  7  1  0
  3  4  1  0
  4  5  2  0
  4 28  1  0
  5  6  1  0
  6  7  2  0
  6 29  1  0
  7  8  1  0
  8  9  2  0
  8 10  1  0
 10 11  1  0
 10 30  1  0
 12 11  1  1
 11 31  1  0
 11 32  1  0
 12 13  1  0
 12 19  1  0
 12 24  1  0
 13 14  1  0
 13 18  1  0
 14 15  1  0
 14 33  1  0
 14 34  1  0
 15 16  1  0
 15 35  1  0
 15 36  1  0
 16 17  1  0
 16 37  1  0
 16 38  1  0
 17 18  1  0
 17 39  1  0
 17 40  1  0
 18 41  1  0
 18 42  1  0
 19 20  1  0
 19 43  1  0
 19 44  1  0
 20 21  1  0
 20 45  1  0
 20 46  1  0
 21 22  1  0
 21 23  1  0
 22 47  1  0
 22 48  1  0
 22 49  1  0
 23 24  1  0
 23 50  1  0
 23 51  1  0
 24 52  1  0
 24 53  1  0
M  END

