
     RDKit          3D

 39 39  0  0  0  0  0  0  0  0999 V2000
    2.8673    3.2414    0.0107 C   0  0  0  0  0  0  0  0  0  0  0  0
    3.7238    2.2515    0.7991 C   0  0  0  0  0  0  0  0  0  0  0  0
    4.3803    1.1826   -0.0873 C   0  0  1  0  0  0  0  0  0  0  0  0
    5.1666    1.7626   -1.1243 O   0  0  0  0  0  0  0  0  0  0  0  0
    5.1907    0.1775    0.6949 C   0  0  0  0  0  0  0  0  0  0  0  0
    5.0586   -0.2798    2.0326 C   0  0  0  0  0  0  0  0  0  0  0  0
    5.9784   -1.1927    2.3375 N   0  0  0  0  0  0  0  0  0  0  0  0
    6.7127   -1.3396    1.2261 N   0  0  0  0  0  0  0  0  0  0  0  0
    7.8122   -2.2922    1.2042 C   0  0  0  0  0  0  0  0  0  0  0  0
    7.3363   -3.7450    1.2833 C   0  0  0  0  0  0  0  0  0  0  0  0
    8.4864   -4.7412    1.2804 C   0  0  0  0  0  0  0  0  0  0  0  0
    9.3190   -4.4917    2.3890 O   0  0  0  0  0  0  0  0  0  0  0  0
   10.4228   -5.3557    2.4956 C   0  0  0  0  0  0  0  0  0  0  0  0
   11.2056   -4.9760    3.7409 C   0  0  0  0  0  0  0  0  0  0  0  0
   12.3061   -5.8416    3.8425 O   0  0  0  0  0  0  0  0  0  0  0  0
   13.1168   -5.6023    4.9610 C   0  0  0  0  0  0  0  0  0  0  0  0
    6.2779   -0.5423    0.2134 C   0  0  0  0  0  0  0  0  0  0  0  0
    2.4552    4.0258    0.6646 H   0  0  0  0  0  0  0  0  0  0  0  0
    2.0200    2.7333   -0.4795 H   0  0  0  0  0  0  0  0  0  0  0  0
    3.4619    3.7236   -0.7794 H   0  0  0  0  0  0  0  0  0  0  0  0
    3.1109    1.7481    1.5666 H   0  0  0  0  0  0  0  0  0  0  0  0
    4.5204    2.7859    1.3497 H   0  0  0  0  0  0  0  0  0  0  0  0
    3.5753    0.6534   -0.6306 H   0  0  0  0  0  0  0  0  0  0  0  0
    5.9341    2.1747   -0.7014 H   0  0  0  0  0  0  0  0  0  0  0  0
    4.3308    0.0221    2.7857 H   0  0  0  0  0  0  0  0  0  0  0  0
    8.4799   -2.0784    2.0512 H   0  0  0  0  0  0  0  0  0  0  0  0
    8.3788   -2.1165    0.2763 H   0  0  0  0  0  0  0  0  0  0  0  0
    6.6714   -3.9672    0.4315 H   0  0  0  0  0  0  0  0  0  0  0  0
    6.7428   -3.8690    2.2026 H   0  0  0  0  0  0  0  0  0  0  0  0
    9.0695   -4.6604    0.3369 H   0  0  0  0  0  0  0  0  0  0  0  0
    8.0876   -5.7760    1.3187 H   0  0  0  0  0  0  0  0  0  0  0  0
   11.0830   -5.2809    1.6071 H   0  0  0  0  0  0  0  0  0  0  0  0
   10.1002   -6.4142    2.5725 H   0  0  0  0  0  0  0  0  0  0  0  0
   10.5440   -5.0516    4.6289 H   0  0  0  0  0  0  0  0  0  0  0  0
   11.5276   -3.9161    3.6666 H   0  0  0  0  0  0  0  0  0  0  0  0
   13.9407   -6.3309    4.9425 H   0  0  0  0  0  0  0  0  0  0  0  0
   12.5595   -5.7239    5.9124 H   0  0  0  0  0  0  0  0  0  0  0  0
   13.5492   -4.5806    4.9505 H   0  0  0  0  0  0  0  0  0  0  0  0
    6.7575   -0.5304   -0.7629 H   0  0  0  0  0  0  0  0  0  0  0  0
  1  2  1  0
  1 18  1  0
  1 19  1  0
  1 20  1  0
  2  3  1  0
  2 21  1  0
  2 22  1  0
  3  4  1  0
  3  5  1  0
  3 23  1  6
  4 24  1  0
  5  6  1  0
  5 17  2  0
  6  7  2  0
  6 25  1  0
  7  8  1  0
  8  9  1  0
  8 17  1  0
  9 10  1  0
  9 26  1  0
  9 27  1  0
 10 11  1  0
 10 28  1  0
 10 29  1  0
 11 12  1  0
 11 30  1  0
 11 31  1  0
 12 13  1  0
 13 14  1  0
 13 32  1  0
 13 33  1  0
 14 15  1  0
 14 34  1  0
 14 35  1  0
 15 16  1  0
 16 36  1  0
 16 37  1  0
 16 38  1  0
 17 39  1  0
M  END

