
     RDKit          3D

 54 56  0  0  0  0  0  0  0  0999 V2000
    5.8539    3.2358   -1.4038 O   0  0  0  0  0  0  0  0  0  0  0  0
    6.8585    2.7504   -1.8499 C   0  0  0  0  0  0  0  0  0  0  0  0
    7.3249    3.1556   -3.0537 O   0  0  0  0  0  0  0  0  0  0  0  0
    7.7104    1.6955   -1.1285 C   0  0  1  0  0  0  0  0  0  0  0  0
    7.0368    1.2369    0.1760 C   0  0  0  0  0  0  0  0  0  0  0  0
    5.8310    0.3181   -0.0807 C   0  0  0  0  0  0  0  0  0  0  0  0
    6.1570   -0.8814   -0.9832 C   0  0  2  0  0  0  0  0  0  0  0  0
    7.0107   -1.8325   -0.2576 N   0  0  0  0  0  0  0  0  0  0  0  0
    7.1135   -3.1385   -0.7066 C   0  0  0  0  0  0  0  0  0  0  0  0
    6.5978   -3.4916   -1.7591 O   0  0  0  0  0  0  0  0  0  0  0  0
    7.8504   -4.0128    0.0847 N   0  0  0  0  0  0  0  0  0  0  0  0
    7.8624   -5.4245   -0.2681 C   0  0  0  0  0  0  0  0  0  0  0  0
    7.2929   -6.3362    0.8260 C   0  0  0  0  0  0  0  0  0  0  0  0
    8.1306   -6.4594    2.1025 C   0  0  0  0  0  0  0  0  0  0  0  0
    8.0112   -5.3487    3.0613 N   0  0  0  0  0  0  0  0  0  0  0  0
    8.3276   -5.6662    4.3673 C   0  0  0  0  0  0  0  0  0  0  0  0
    8.7821   -6.7597    4.6712 O   0  0  0  0  0  0  0  0  0  0  0  0
    8.0664   -4.6474    5.4536 C   0  0  0  0  0  0  0  0  0  0  0  0
    6.8520   -3.9516    5.5676 C   0  0  0  0  0  0  0  0  0  0  0  0
    6.6203   -3.1162    6.6645 C   0  0  0  0  0  0  0  0  0  0  0  0
    7.5960   -2.9533    7.6507 C   0  0  0  0  0  0  0  0  0  0  0  0
    8.7933   -3.6575    7.5264 C   0  0  0  0  0  0  0  0  0  0  0  0
    9.7324   -3.5131    8.4716 F   0  0  0  0  0  0  0  0  0  0  0  0
    9.0377   -4.5114    6.4564 C   0  0  0  0  0  0  0  0  0  0  0  0
    7.8428   -3.9690    2.6012 C   0  0  0  0  0  0  0  0  0  0  0  0
    8.5707   -3.6358    1.2842 C   0  0  0  0  0  0  0  0  0  0  0  0
    6.8274   -0.4044   -2.2865 C   0  0  0  0  0  0  0  0  0  0  0  0
    8.0514    0.4756   -2.0160 C   0  0  0  0  0  0  0  0  0  0  0  0
    8.1338    2.6762   -3.2827 H   0  0  0  0  0  0  0  0  0  0  0  0
    8.6541    2.2160   -0.8763 H   0  0  0  0  0  0  0  0  0  0  0  0
    6.7124    2.1156    0.7521 H   0  0  0  0  0  0  0  0  0  0  0  0
    7.7951    0.7156    0.7858 H   0  0  0  0  0  0  0  0  0  0  0  0
    5.0388    0.9075   -0.5660 H   0  0  0  0  0  0  0  0  0  0  0  0
    5.4097   -0.0344    0.8775 H   0  0  0  0  0  0  0  0  0  0  0  0
    5.2224   -1.3988   -1.2570 H   0  0  0  0  0  0  0  0  0  0  0  0
    7.1219   -1.6559    0.7320 H   0  0  0  0  0  0  0  0  0  0  0  0
    8.9009   -5.7382   -0.4930 H   0  0  0  0  0  0  0  0  0  0  0  0
    7.2807   -5.5239   -1.1924 H   0  0  0  0  0  0  0  0  0  0  0  0
    7.2278   -7.3512    0.3991 H   0  0  0  0  0  0  0  0  0  0  0  0
    6.2582   -6.0383    1.0674 H   0  0  0  0  0  0  0  0  0  0  0  0
    9.1930   -6.6135    1.8310 H   0  0  0  0  0  0  0  0  0  0  0  0
    7.8428   -7.3646    2.6526 H   0  0  0  0  0  0  0  0  0  0  0  0
    6.0745   -4.0819    4.8126 H   0  0  0  0  0  0  0  0  0  0  0  0
    5.6676   -2.5889    6.7562 H   0  0  0  0  0  0  0  0  0  0  0  0
    7.4432   -2.3025    8.5138 H   0  0  0  0  0  0  0  0  0  0  0  0
    9.9684   -5.0786    6.4098 H   0  0  0  0  0  0  0  0  0  0  0  0
    8.2301   -3.3058    3.3857 H   0  0  0  0  0  0  0  0  0  0  0  0
    6.7742   -3.7160    2.4665 H   0  0  0  0  0  0  0  0  0  0  0  0
    9.5630   -4.1215    1.2799 H   0  0  0  0  0  0  0  0  0  0  0  0
    8.7739   -2.5561    1.2572 H   0  0  0  0  0  0  0  0  0  0  0  0
    6.0785    0.1592   -2.8706 H   0  0  0  0  0  0  0  0  0  0  0  0
    7.1001   -1.2832   -2.8878 H   0  0  0  0  0  0  0  0  0  0  0  0
    8.5173    0.7809   -2.9703 H   0  0  0  0  0  0  0  0  0  0  0  0
    8.8190   -0.1204   -1.4956 H   0  0  0  0  0  0  0  0  0  0  0  0
  1  2  2  0
  2  3  1  0
  2  4  1  0
  3 29  1  0
  4  5  1  0
  4 28  1  0
  4 30  1  1
  5  6  1  0
  5 31  1  0
  5 32  1  0
  6  7  1  0
  6 33  1  0
  6 34  1  0
  7  8  1  0
  7 27  1  0
  7 35  1  6
  8  9  1  0
  8 36  1  0
  9 10  2  0
  9 11  1  0
 11 12  1  0
 11 26  1  0
 12 13  1  0
 12 37  1  0
 12 38  1  0
 13 14  1  0
 13 39  1  0
 13 40  1  0
 14 15  1  0
 14 41  1  0
 14 42  1  0
 15 16  1  0
 15 25  1  0
 16 17  2  0
 16 18  1  0
 18 19  2  0
 18 24  1  0
 19 20  1  0
 19 43  1  0
 20 21  2  0
 20 44  1  0
 21 22  1  0
 21 45  1  0
 22 23  1  0
 22 24  2  0
 24 46  1  0
 25 26  1  0
 25 47  1  0
 25 48  1  0
 26 49  1  0
 26 50  1  0
 27 28  1  0
 27 51  1  0
 27 52  1  0
 28 53  1  0
 28 54  1  0
M  END

