
     RDKit          3D

 44 47  0  0  0  0  0  0  0  0999 V2000
    2.1650   -0.0205   -0.8352 O   0  0  0  0  0  0  0  0  0  0  0  0
    2.1361    0.4944    0.2567 C   0  0  0  0  0  0  0  0  0  0  0  0
    3.2083    1.1068    0.8237 O   0  0  0  0  0  0  0  0  0  0  0  0
    4.4237    1.1479    0.0847 C   0  0  0  0  0  0  0  0  0  0  0  0
    4.8121    2.5542   -0.2991 C   0  0  0  0  0  0  0  0  0  0  0  0
    4.0524    3.6267    0.0410 C   0  0  0  0  0  0  0  0  0  0  0  0
    4.4167    4.9955   -0.3113 C   0  0  0  0  0  0  0  0  0  0  0  0
    3.7929    5.9879   -0.0441 O   0  0  0  0  0  0  0  0  0  0  0  0
    5.6052    5.1365   -1.0176 O   0  0  0  0  0  0  0  0  0  0  0  0
    6.3894    4.0885   -1.3782 C   0  0  0  0  0  0  0  0  0  0  0  0
    7.5589    4.3891   -2.0901 C   0  0  0  0  0  0  0  0  0  0  0  0
    8.3933    3.3468   -2.4745 C   0  0  0  0  0  0  0  0  0  0  0  0
    8.0698    2.0088   -2.1603 C   0  0  0  0  0  0  0  0  0  0  0  0
    6.9096    1.7161   -1.4584 C   0  0  0  0  0  0  0  0  0  0  0  0
    6.0444    2.7572   -1.0474 C   0  0  0  0  0  0  0  0  0  0  0  0
    9.1242    1.0725   -2.7125 C   0  0  0  0  0  0  0  0  0  0  0  0
   10.3207    2.0149   -2.9869 C   0  0  0  0  0  0  0  0  0  0  0  0
    9.6875    3.4010   -3.2551 C   0  0  0  0  0  0  0  0  0  0  0  0
    0.9380    0.5318    1.1397 C   0  0  0  0  0  0  0  0  0  0  0  0
   -0.2524   -0.0417    0.6617 C   0  0  0  0  0  0  0  0  0  0  0  0
   -1.3996   -0.0372    1.4455 C   0  0  0  0  0  0  0  0  0  0  0  0
   -1.3641    0.5428    2.7193 C   0  0  0  0  0  0  0  0  0  0  0  0
   -2.5652    0.4901    3.4056 O   0  0  0  0  0  0  0  0  0  0  0  0
   -2.7100    0.9488    4.6711 C   0  0  1  0  0  0  0  0  0  0  0  0
   -1.8969    0.3236    5.5340 F   0  0  0  0  0  0  0  0  0  0  0  0
   -2.4637    2.2627    4.7682 F   0  0  0  0  0  0  0  0  0  0  0  0
   -3.9636    0.7264    5.0335 F   0  0  0  0  0  0  0  0  0  0  0  0
   -0.1898    1.1198    3.2156 C   0  0  0  0  0  0  0  0  0  0  0  0
    0.9554    1.1082    2.4181 C   0  0  0  0  0  0  0  0  0  0  0  0
    4.3226    0.5202   -0.8139 H   0  0  0  0  0  0  0  0  0  0  0  0
    5.2067    0.7095    0.7259 H   0  0  0  0  0  0  0  0  0  0  0  0
    3.1258    3.5175    0.6027 H   0  0  0  0  0  0  0  0  0  0  0  0
    7.7792    5.4343   -2.3162 H   0  0  0  0  0  0  0  0  0  0  0  0
    6.6653    0.6783   -1.2218 H   0  0  0  0  0  0  0  0  0  0  0  0
    8.7643    0.6096   -3.6505 H   0  0  0  0  0  0  0  0  0  0  0  0
    9.3744    0.2457   -2.0290 H   0  0  0  0  0  0  0  0  0  0  0  0
   10.9616    1.6683   -3.8112 H   0  0  0  0  0  0  0  0  0  0  0  0
   10.9513    2.0734   -2.0843 H   0  0  0  0  0  0  0  0  0  0  0  0
    9.4662    3.5346   -4.3307 H   0  0  0  0  0  0  0  0  0  0  0  0
   10.3362    4.2412   -2.9611 H   0  0  0  0  0  0  0  0  0  0  0  0
   -0.2577   -0.4892   -0.3337 H   0  0  0  0  0  0  0  0  0  0  0  0
   -2.3343   -0.4766    1.0934 H   0  0  0  0  0  0  0  0  0  0  0  0
   -0.1542    1.5755    4.2036 H   0  0  0  0  0  0  0  0  0  0  0  0
    1.8765    1.5532    2.7952 H   0  0  0  0  0  0  0  0  0  0  0  0
  1  2  2  0
  2  3  1  0
  2 19  1  0
  3  4  1  0
  4  5  1  0
  4 30  1  0
  4 31  1  0
  5  6  2  0
  5 15  1  0
  6  7  1  0
  6 32  1  0
  7  8  2  0
  7  9  1  0
  9 10  1  0
 10 11  1  0
 10 15  2  0
 11 12  2  0
 11 33  1  0
 12 13  1  0
 12 18  1  0
 13 14  2  0
 13 16  1  0
 14 15  1  0
 14 34  1  0
 16 17  1  0
 16 35  1  0
 16 36  1  0
 17 18  1  0
 17 37  1  0
 17 38  1  0
 18 39  1  0
 18 40  1  0
 19 20  2  0
 19 29  1  0
 20 21  1  0
 20 41  1  0
 21 22  2  0
 21 42  1  0
 22 23  1  0
 22 28  1  0
 23 24  1  0
 24 25  1  1
 24 26  1  0
 24 27  1  0
 28 29  2  0
 28 43  1  0
 29 44  1  0
M  END

