
     RDKit          3D

 29 30  0  0  0  0  0  0  0  0999 V2000
    1.3069    0.4763    0.1557 C   0  0  0  0  0  0  0  0  0  0  0  0
    2.7358   -0.0735    0.0414 C   0  0  1  0  0  0  0  0  0  0  0  0
    3.5662    0.9531   -0.5388 O   0  0  0  0  0  0  0  0  0  0  0  0
    3.2872   -0.4781    1.4347 C   0  0  0  0  0  0  0  0  0  0  0  0
    4.3353    0.2572    2.0128 C   0  0  0  0  0  0  0  0  0  0  0  0
    4.8428   -0.0352    3.2800 C   0  0  0  0  0  0  0  0  0  0  0  0
    4.3081   -1.0926    4.0147 C   0  0  0  0  0  0  0  0  0  0  0  0
    3.2734   -1.8509    3.4678 C   0  0  0  0  0  0  0  0  0  0  0  0
    2.7739   -1.5474    2.1976 C   0  0  0  0  0  0  0  0  0  0  0  0
    1.4894   -2.5852    1.5998 Cl  0  0  0  0  0  0  0  0  0  0  0  0
    2.8288   -1.2141   -0.9545 C   0  0  0  0  0  0  0  0  0  0  0  0
    1.6716   -1.6968   -1.4586 O   0  0  0  0  0  0  0  0  0  0  0  0
    1.9741   -2.7139   -2.3102 C   0  0  0  0  0  0  0  0  0  0  0  0
    3.3217   -2.8895   -2.3699 C   0  0  0  0  0  0  0  0  0  0  0  0
    3.8946   -1.9012   -1.4981 C   0  0  0  0  0  0  0  0  0  0  0  0
    5.3691   -1.7530   -1.3055 C   0  0  0  0  0  0  0  0  0  0  0  0
    6.1328   -2.6527   -1.5525 O   0  0  0  0  0  0  0  0  0  0  0  0
    5.8087   -0.5618   -0.8704 O   0  0  0  0  0  0  0  0  0  0  0  0
    1.3105    1.3449    0.8335 H   0  0  0  0  0  0  0  0  0  0  0  0
    0.6163   -0.2725    0.5607 H   0  0  0  0  0  0  0  0  0  0  0  0
    0.9487    0.7910   -0.8344 H   0  0  0  0  0  0  0  0  0  0  0  0
    3.4431    1.7789   -0.0490 H   0  0  0  0  0  0  0  0  0  0  0  0
    4.7888    1.0707    1.4474 H   0  0  0  0  0  0  0  0  0  0  0  0
    5.6640    0.5614    3.6831 H   0  0  0  0  0  0  0  0  0  0  0  0
    4.6961   -1.3374    5.0060 H   0  0  0  0  0  0  0  0  0  0  0  0
    2.8428   -2.6910    4.0149 H   0  0  0  0  0  0  0  0  0  0  0  0
    1.1285   -3.2029   -2.7861 H   0  0  0  0  0  0  0  0  0  0  0  0
    3.8811   -3.6156   -2.9542 H   0  0  0  0  0  0  0  0  0  0  0  0
    5.0840    0.0984   -0.8337 H   0  0  0  0  0  0  0  0  0  0  0  0
  1  2  1  0
  1 19  1  0
  1 20  1  0
  1 21  1  0
  2  3  1  6
  2  4  1  0
  2 11  1  0
  3 22  1  0
  4  5  2  0
  4  9  1  0
  5  6  1  0
  5 23  1  0
  6  7  2  0
  6 24  1  0
  7  8  1  0
  7 25  1  0
  8  9  2  0
  8 26  1  0
  9 10  1  0
 11 12  1  0
 11 15  2  0
 12 13  1  0
 13 14  2  0
 13 27  1  0
 14 15  1  0
 14 28  1  0
 15 16  1  0
 16 17  2  0
 16 18  1  0
 18 29  1  0
M  END

