
     RDKit          3D

 32 34  0  0  0  0  0  0  0  0999 V2000
    0.7286    0.0847    0.1944 C   0  0  0  0  0  0  0  0  0  0  0  0
    2.1645   -0.0866    0.0944 N   0  0  0  0  0  0  0  0  0  0  0  0
    2.6020   -1.4346   -0.2468 C   0  0  0  0  0  0  0  0  0  0  0  0
    2.4506   -1.7782   -1.7405 C   0  0  0  0  0  0  0  0  0  0  0  0
    3.1703   -0.7389   -2.6336 C   0  0  2  0  0  0  0  0  0  0  0  0
    4.6774   -0.8893   -2.6296 C   0  0  0  0  0  0  0  0  0  0  0  0
    5.5235    0.0825   -2.5499 N   0  0  0  0  0  0  0  0  0  0  0  0
    6.8336   -0.3492   -2.6429 C   0  0  0  0  0  0  0  0  0  0  0  0
    7.9705    0.4745   -2.5873 C   0  0  0  0  0  0  0  0  0  0  0  0
    9.2318   -0.1042   -2.6952 C   0  0  0  0  0  0  0  0  0  0  0  0
    9.3766   -1.4953   -2.8573 C   0  0  0  0  0  0  0  0  0  0  0  0
    8.2621   -2.3320   -2.9141 C   0  0  0  0  0  0  0  0  0  0  0  0
    6.9934   -1.7500   -2.8070 C   0  0  0  0  0  0  0  0  0  0  0  0
    5.4168   -2.5056   -2.8328 S   0  0  0  0  0  0  0  0  0  0  0  0
    2.7337    0.6870   -2.2342 C   0  0  0  0  0  0  0  0  0  0  0  0
    2.8548    0.9143   -0.7155 C   0  0  0  0  0  0  0  0  0  0  0  0
    0.3179   -0.6387    0.9181 H   0  0  0  0  0  0  0  0  0  0  0  0
    0.1596   -0.0424   -0.7546 H   0  0  0  0  0  0  0  0  0  0  0  0
    0.5023    1.0946    0.5741 H   0  0  0  0  0  0  0  0  0  0  0  0
    2.0440   -2.1603    0.3677 H   0  0  0  0  0  0  0  0  0  0  0  0
    3.6660   -1.5348    0.0370 H   0  0  0  0  0  0  0  0  0  0  0  0
    1.3828   -1.7871   -2.0165 H   0  0  0  0  0  0  0  0  0  0  0  0
    2.8263   -2.7966   -1.9369 H   0  0  0  0  0  0  0  0  0  0  0  0
    2.8606   -0.9198   -3.6799 H   0  0  0  0  0  0  0  0  0  0  0  0
    7.8412    1.5513   -2.4612 H   0  0  0  0  0  0  0  0  0  0  0  0
   10.1225    0.5274   -2.6537 H   0  0  0  0  0  0  0  0  0  0  0  0
   10.3766   -1.9283   -2.9398 H   0  0  0  0  0  0  0  0  0  0  0  0
    8.3796   -3.4106   -3.0391 H   0  0  0  0  0  0  0  0  0  0  0  0
    1.6861    0.8234   -2.5522 H   0  0  0  0  0  0  0  0  0  0  0  0
    3.3392    1.4303   -2.7731 H   0  0  0  0  0  0  0  0  0  0  0  0
    2.4697    1.9127   -0.4510 H   0  0  0  0  0  0  0  0  0  0  0  0
    3.9237    0.9046   -0.4421 H   0  0  0  0  0  0  0  0  0  0  0  0
  1  2  1  0
  1 17  1  0
  1 18  1  0
  1 19  1  0
  2  3  1  0
  2 16  1  0
  3  4  1  0
  3 20  1  0
  3 21  1  0
  4  5  1  0
  4 22  1  0
  4 23  1  0
  5  6  1  0
  5 15  1  0
  5 24  1  6
  6  7  2  0
  6 14  1  0
  7  8  1  0
  8  9  2  0
  8 13  1  0
  9 10  1  0
  9 25  1  0
 10 11  2  0
 10 26  1  0
 11 12  1  0
 11 27  1  0
 12 13  2  0
 12 28  1  0
 13 14  1  0
 15 16  1  0
 15 29  1  0
 15 30  1  0
 16 31  1  0
 16 32  1  0
M  END

