
     RDKit          3D

 72 78  0  0  0  0  0  0  0  0999 V2000
    8.6556    2.4275    2.5685 C   0  0  0  0  0  0  0  0  0  0  0  0
    7.7224    1.6550    1.9840 C   0  0  0  0  0  0  0  0  0  0  0  0
    6.2879    1.8582    2.1250 C   0  0  0  0  0  0  0  0  0  0  0  0
    5.3044    1.1646    1.5026 C   0  0  0  0  0  0  0  0  0  0  0  0
    5.4361    0.1313    0.4741 C   0  0  0  0  0  0  0  0  0  0  0  0
    6.1879    0.1446   -0.6796 C   0  0  0  0  0  0  0  0  0  0  0  0
    7.0805    1.1607   -1.2965 C   0  0  0  0  0  0  0  0  0  0  0  0
    5.9924   -0.9953   -1.4181 O   0  0  0  0  0  0  0  0  0  0  0  0
    5.0883   -1.7631   -0.7484 C   0  0  0  0  0  0  0  0  0  0  0  0
    4.6023   -3.0078   -1.1372 C   0  0  0  0  0  0  0  0  0  0  0  0
    3.6745   -3.6135   -0.2891 C   0  0  0  0  0  0  0  0  0  0  0  0
    3.2423   -2.9999    0.9147 C   0  0  0  0  0  0  0  0  0  0  0  0
    2.2074   -3.6556    1.7707 C   0  0  0  0  0  0  0  0  0  0  0  0
    1.0297   -2.9942    2.0081 C   0  0  0  0  0  0  0  0  0  0  0  0
   -0.0479   -3.5556    2.7747 C   0  0  0  0  0  0  0  0  0  0  0  0
   -1.2754   -2.8501    2.9926 C   0  0  0  0  0  0  0  0  0  0  0  0
   -1.4718   -1.4657    2.4848 C   0  0  0  0  0  0  0  0  0  0  0  0
   -0.7143   -0.3993    2.7744 C   0  0  0  0  0  0  0  0  0  0  0  0
   -2.3581   -3.4707    3.6460 C   0  0  0  0  0  0  0  0  0  0  0  0
   -3.6234   -2.7061    3.7816 C   0  0  0  0  0  0  0  0  0  0  0  0
   -4.8611   -3.1615    3.5448 C   0  0  0  0  0  0  0  0  0  0  0  0
   -2.2036   -4.7986    4.1499 C   0  0  0  0  0  0  0  0  0  0  0  0
   -3.2528   -5.5092    4.9436 C   0  0  0  0  0  0  0  0  0  0  0  0
   -3.7171   -6.7890    4.5174 C   0  0  0  0  0  0  0  0  0  0  0  0
   -4.6443   -7.4949    5.2539 C   0  0  0  0  0  0  0  0  0  0  0  0
   -5.1640   -6.9739    6.4704 C   0  0  0  0  0  0  0  0  0  0  0  0
   -6.1196   -7.6733    7.2597 C   0  0  0  0  0  0  0  0  0  0  0  0
   -6.5941   -7.1343    8.4370 C   0  0  0  0  0  0  0  0  0  0  0  0
   -6.1331   -5.8672    8.8801 C   0  0  0  0  0  0  0  0  0  0  0  0
   -5.2084   -5.1640    8.1376 C   0  0  0  0  0  0  0  0  0  0  0  0
   -4.6990   -5.6908    6.9157 C   0  0  0  0  0  0  0  0  0  0  0  0
   -3.7471   -4.9888    6.1291 C   0  0  0  0  0  0  0  0  0  0  0  0
   -0.9981   -5.4626    3.9494 C   0  0  0  0  0  0  0  0  0  0  0  0
    0.0945   -4.8848    3.2715 C   0  0  0  0  0  0  0  0  0  0  0  0
    1.3567   -5.5932    3.0789 C   0  0  0  0  0  0  0  0  0  0  0  0
    1.5831   -6.8855    3.6156 C   0  0  0  0  0  0  0  0  0  0  0  0
    2.7948   -7.5373    3.4607 C   0  0  0  0  0  0  0  0  0  0  0  0
    3.8450   -6.9128    2.7626 C   0  0  0  0  0  0  0  0  0  0  0  0
    3.6545   -5.6545    2.2189 C   0  0  0  0  0  0  0  0  0  0  0  0
    2.4167   -4.9727    2.3456 C   0  0  0  0  0  0  0  0  0  0  0  0
    3.7577   -1.7459    1.2749 C   0  0  0  0  0  0  0  0  0  0  0  0
    4.6884   -1.1172    0.4338 C   0  0  0  0  0  0  0  0  0  0  0  0
    9.7224    2.2181    2.4582 H   0  0  0  0  0  0  0  0  0  0  0  0
    8.3796    3.2945    3.1778 H   0  0  0  0  0  0  0  0  0  0  0  0
    8.0430    0.7965    1.3848 H   0  0  0  0  0  0  0  0  0  0  0  0
    5.9833    2.6296    2.8418 H   0  0  0  0  0  0  0  0  0  0  0  0
    4.2733    1.3781    1.8098 H   0  0  0  0  0  0  0  0  0  0  0  0
    6.9972    2.1178   -0.7662 H   0  0  0  0  0  0  0  0  0  0  0  0
    6.8099    1.3092   -2.3544 H   0  0  0  0  0  0  0  0  0  0  0  0
    8.1379    0.8453   -1.2711 H   0  0  0  0  0  0  0  0  0  0  0  0
    4.9274   -3.4794   -2.0662 H   0  0  0  0  0  0  0  0  0  0  0  0
    3.2552   -4.5830   -0.5664 H   0  0  0  0  0  0  0  0  0  0  0  0
    0.8861   -2.0137    1.5569 H   0  0  0  0  0  0  0  0  0  0  0  0
   -2.3509   -1.3166    1.8456 H   0  0  0  0  0  0  0  0  0  0  0  0
    0.1546   -0.4684    3.4358 H   0  0  0  0  0  0  0  0  0  0  0  0
   -0.9495    0.5866    2.3636 H   0  0  0  0  0  0  0  0  0  0  0  0
   -3.5071   -1.6532    4.0625 H   0  0  0  0  0  0  0  0  0  0  0  0
   -5.0557   -4.1918    3.2361 H   0  0  0  0  0  0  0  0  0  0  0  0
   -5.7290   -2.5055    3.6556 H   0  0  0  0  0  0  0  0  0  0  0  0
   -3.3352   -7.2039    3.5812 H   0  0  0  0  0  0  0  0  0  0  0  0
   -4.9938   -8.4706    4.9049 H   0  0  0  0  0  0  0  0  0  0  0  0
   -6.4722   -8.6500    6.9164 H   0  0  0  0  0  0  0  0  0  0  0  0
   -7.3274   -7.6818    9.0346 H   0  0  0  0  0  0  0  0  0  0  0  0
   -6.5159   -5.4502    9.8152 H   0  0  0  0  0  0  0  0  0  0  0  0
   -4.8529   -4.1875    8.4778 H   0  0  0  0  0  0  0  0  0  0  0  0
   -3.3979   -4.0149    6.4807 H   0  0  0  0  0  0  0  0  0  0  0  0
   -0.9052   -6.4658    4.3641 H   0  0  0  0  0  0  0  0  0  0  0  0
    0.7939   -7.3853    4.1772 H   0  0  0  0  0  0  0  0  0  0  0  0
    2.9361   -8.5315    3.8919 H   0  0  0  0  0  0  0  0  0  0  0  0
    4.8095   -7.4153    2.6548 H   0  0  0  0  0  0  0  0  0  0  0  0
    4.4734   -5.1672    1.6892 H   0  0  0  0  0  0  0  0  0  0  0  0
    3.4452   -1.2778    2.2110 H   0  0  0  0  0  0  0  0  0  0  0  0
  1  2  2  0
  1 43  1  0
  1 44  1  0
  2  3  1  0
  2 45  1  0
  3  4  2  0
  3 46  1  0
  4  5  1  0
  4 47  1  0
  5  6  2  0
  5 42  1  0
  6  7  1  0
  6  8  1  0
  7 48  1  0
  7 49  1  0
  7 50  1  0
  8  9  1  0
  9 10  1  0
  9 42  2  0
 10 11  2  0
 10 51  1  0
 11 12  1  0
 11 52  1  0
 12 13  1  0
 12 41  2  0
 13 14  2  0
 13 40  1  0
 14 15  1  0
 14 53  1  0
 15 16  2  0
 15 34  1  0
 16 17  1  0
 16 19  1  0
 17 18  2  0
 17 54  1  0
 18 55  1  0
 18 56  1  0
 19 20  1  0
 19 22  2  0
 20 21  2  0
 20 57  1  0
 21 58  1  0
 21 59  1  0
 22 23  1  0
 22 33  1  0
 23 24  2  0
 23 32  1  0
 24 25  1  0
 24 60  1  0
 25 26  2  0
 25 61  1  0
 26 27  1  0
 26 31  1  0
 27 28  2  0
 27 62  1  0
 28 29  1  0
 28 63  1  0
 29 30  2  0
 29 64  1  0
 30 31  1  0
 30 65  1  0
 31 32  2  0
 32 66  1  0
 33 34  2  0
 33 67  1  0
 34 35  1  0
 35 36  1  0
 35 40  2  0
 36 37  2  0
 36 68  1  0
 37 38  1  0
 37 69  1  0
 38 39  2  0
 38 70  1  0
 39 40  1  0
 39 71  1  0
 41 42  1  0
 41 72  1  0
M  END

