
     RDKit          3D

 39 40  0  0  0  0  0  0  0  0999 V2000
    0.9244    0.0707    0.3770 C   0  0  0  0  0  0  0  0  0  0  0  0
    2.2614    0.2458   -0.1668 N   0  0  0  0  0  0  0  0  0  0  0  0
    2.1986    0.6159   -1.5819 C   0  0  0  0  0  0  0  0  0  0  0  0
    1.9672   -0.5851   -2.5007 C   0  0  0  0  0  0  0  0  0  0  0  0
    2.0221   -0.2212   -3.9776 C   0  0  0  0  0  0  0  0  0  0  0  0
    2.2738    0.9166   -4.3311 O   0  0  0  0  0  0  0  0  0  0  0  0
    1.7692   -1.2951   -4.9974 C   0  0  0  0  0  0  0  0  0  0  0  0
    1.5040   -2.6339   -4.6590 C   0  0  0  0  0  0  0  0  0  0  0  0
    1.2806   -3.5909   -5.6496 C   0  0  0  0  0  0  0  0  0  0  0  0
    1.3235   -3.1969   -6.9859 C   0  0  0  0  0  0  0  0  0  0  0  0
    1.1090   -4.1095   -7.9396 F   0  0  0  0  0  0  0  0  0  0  0  0
    1.5844   -1.8765   -7.3562 C   0  0  0  0  0  0  0  0  0  0  0  0
    1.8068   -0.9338   -6.3570 C   0  0  0  0  0  0  0  0  0  0  0  0
    3.1432    1.1380    0.6133 C   0  0  1  0  0  0  0  0  0  0  0  0
    3.0296    0.9367    2.1385 C   0  0  0  0  0  0  0  0  0  0  0  0
    3.6165   -0.4022    2.5918 C   0  0  0  0  0  0  0  0  0  0  0  0
    4.9641   -0.5419    2.1900 O   0  0  0  0  0  0  0  0  0  0  0  0
    5.1255   -0.4410    0.7875 C   0  0  0  0  0  0  0  0  0  0  0  0
    4.6276    0.9019    0.2520 C   0  0  0  0  0  0  0  0  0  0  0  0
    0.3274   -0.5525   -0.3052 H   0  0  0  0  0  0  0  0  0  0  0  0
    0.3726    1.0294    0.5113 H   0  0  0  0  0  0  0  0  0  0  0  0
    0.9395   -0.4528    1.3432 H   0  0  0  0  0  0  0  0  0  0  0  0
    3.1390    1.0914   -1.8859 H   0  0  0  0  0  0  0  0  0  0  0  0
    1.4160    1.3822   -1.7685 H   0  0  0  0  0  0  0  0  0  0  0  0
    0.9975   -1.0700   -2.2950 H   0  0  0  0  0  0  0  0  0  0  0  0
    2.7285   -1.3579   -2.2932 H   0  0  0  0  0  0  0  0  0  0  0  0
    1.4715   -2.9462   -3.6139 H   0  0  0  0  0  0  0  0  0  0  0  0
    1.0747   -4.6346   -5.4050 H   0  0  0  0  0  0  0  0  0  0  0  0
    1.6090   -1.6124   -8.4153 H   0  0  0  0  0  0  0  0  0  0  0  0
    2.0160    0.1085   -6.6049 H   0  0  0  0  0  0  0  0  0  0  0  0
    2.8862    2.2001    0.3963 H   0  0  0  0  0  0  0  0  0  0  0  0
    1.9951    1.0459    2.4966 H   0  0  0  0  0  0  0  0  0  0  0  0
    3.6079    1.7442    2.6169 H   0  0  0  0  0  0  0  0  0  0  0  0
    3.0102   -1.2428    2.1952 H   0  0  0  0  0  0  0  0  0  0  0  0
    3.6084   -0.4758    3.6907 H   0  0  0  0  0  0  0  0  0  0  0  0
    4.5834   -1.2644    0.2805 H   0  0  0  0  0  0  0  0  0  0  0  0
    6.2009   -0.5669    0.5877 H   0  0  0  0  0  0  0  0  0  0  0  0
    4.7965    0.9516   -0.8346 H   0  0  0  0  0  0  0  0  0  0  0  0
    5.2279    1.7117    0.6998 H   0  0  0  0  0  0  0  0  0  0  0  0
  1  2  1  0
  1 20  1  0
  1 21  1  0
  1 22  1  0
  2  3  1  0
  2 14  1  0
  3  4  1  0
  3 23  1  0
  3 24  1  0
  4  5  1  0
  4 25  1  0
  4 26  1  0
  5  6  2  0
  5  7  1  0
  7  8  2  0
  7 13  1  0
  8  9  1  0
  8 27  1  0
  9 10  2  0
  9 28  1  0
 10 11  1  0
 10 12  1  0
 12 13  2  0
 12 29  1  0
 13 30  1  0
 14 15  1  0
 14 19  1  0
 14 31  1  1
 15 16  1  0
 15 32  1  0
 15 33  1  0
 16 17  1  0
 16 34  1  0
 16 35  1  0
 17 18  1  0
 18 19  1  0
 18 36  1  0
 18 37  1  0
 19 38  1  0
 19 39  1  0
M  END

