
     RDKit          3D

 29 30  0  0  0  0  0  0  0  0999 V2000
    3.8328   -1.2513    0.6623 O   0  0  0  0  0  0  0  0  0  0  0  0
    3.3873   -0.1817    0.3260 C   0  0  0  0  0  0  0  0  0  0  0  0
    3.0443    0.2240   -1.0956 C   0  0  1  0  0  0  0  0  0  0  0  0
    3.9559    1.4144   -1.5486 C   0  0  0  0  0  0  0  0  0  0  0  0
    4.9163    0.8232   -2.6111 C   0  0  0  0  0  0  0  0  0  0  0  0
    4.8045   -0.7029   -2.4664 C   0  0  2  0  0  0  0  0  0  0  0  0
    5.2183   -1.4873   -3.7072 C   0  0  0  0  0  0  0  0  0  0  0  0
    5.2584   -0.9500   -4.7992 O   0  0  0  0  0  0  0  0  0  0  0  0
    5.5438   -2.9489   -3.5631 C   0  0  0  0  0  0  0  0  0  0  0  0
    5.9125   -3.6549   -4.7230 C   0  0  0  0  0  0  0  0  0  0  0  0
    6.2268   -5.0107   -4.6593 C   0  0  0  0  0  0  0  0  0  0  0  0
    6.1744   -5.6837   -3.4322 C   0  0  0  0  0  0  0  0  0  0  0  0
    5.8063   -4.9941   -2.2735 C   0  0  0  0  0  0  0  0  0  0  0  0
    5.4937   -3.6334   -2.3349 C   0  0  0  0  0  0  0  0  0  0  0  0
    3.3126   -0.9020   -2.1019 C   0  0  0  0  0  0  0  0  0  0  0  0
    3.2071    0.6231    1.0890 H   0  0  0  0  0  0  0  0  0  0  0  0
    1.9837    0.5327   -1.0768 H   0  0  0  0  0  0  0  0  0  0  0  0
    4.5074    1.8361   -0.6911 H   0  0  0  0  0  0  0  0  0  0  0  0
    3.3556    2.2386   -1.9610 H   0  0  0  0  0  0  0  0  0  0  0  0
    5.9508    1.1797   -2.4931 H   0  0  0  0  0  0  0  0  0  0  0  0
    4.5979    1.0981   -3.6275 H   0  0  0  0  0  0  0  0  0  0  0  0
    5.4088   -1.0408   -1.6103 H   0  0  0  0  0  0  0  0  0  0  0  0
    5.9440   -3.1079   -5.6673 H   0  0  0  0  0  0  0  0  0  0  0  0
    6.5140   -5.5484   -5.5665 H   0  0  0  0  0  0  0  0  0  0  0  0
    6.4207   -6.7476   -3.3802 H   0  0  0  0  0  0  0  0  0  0  0  0
    5.7624   -5.5167   -1.3147 H   0  0  0  0  0  0  0  0  0  0  0  0
    5.2052   -3.1159   -1.4179 H   0  0  0  0  0  0  0  0  0  0  0  0
    3.0913   -1.8942   -1.6856 H   0  0  0  0  0  0  0  0  0  0  0  0
    2.6962   -0.7606   -3.0047 H   0  0  0  0  0  0  0  0  0  0  0  0
  1  2  2  0
  2  3  1  0
  2 16  1  0
  3  4  1  0
  3 15  1  0
  3 17  1  1
  4  5  1  0
  4 18  1  0
  4 19  1  0
  5  6  1  0
  5 20  1  0
  5 21  1  0
  6  7  1  0
  6 15  1  0
  6 22  1  1
  7  8  2  0
  7  9  1  0
  9 10  2  0
  9 14  1  0
 10 11  1  0
 10 23  1  0
 11 12  2  0
 11 24  1  0
 12 13  1  0
 12 25  1  0
 13 14  2  0
 13 26  1  0
 14 27  1  0
 15 28  1  0
 15 29  1  0
M  END

