
     RDKit          3D

 47 51  0  0  0  0  0  0  0  0999 V2000
    4.0541    2.6780    0.2787 C   0  0  0  0  0  0  0  0  0  0  0  0
    4.0245    1.1961    0.2374 C   0  0  0  0  0  0  0  0  0  0  0  0
    2.9986    0.4021    0.2506 N   0  0  0  0  0  0  0  0  0  0  0  0
    3.4915   -0.8849    0.1976 N   0  0  0  0  0  0  0  0  0  0  0  0
    4.7866   -0.7876    0.1555 C   0  0  0  0  0  0  0  0  0  0  0  0
    5.7637   -1.8775    0.0926 C   0  0  0  0  0  0  0  0  0  0  0  0
    5.2989   -3.2169    0.0879 C   0  0  0  0  0  0  0  0  0  0  0  0
    6.2090   -4.2520    0.0200 C   0  0  0  0  0  0  0  0  0  0  0  0
    5.7852   -5.6928    0.0122 C   0  0  0  0  0  0  0  0  0  0  0  0
    6.0074   -6.5339    1.6422 S   0  0  0  0  0  0  0  0  0  0  0  0
    7.6033   -3.9201   -0.0428 C   0  0  0  0  0  0  0  0  0  0  0  0
    8.5133   -4.9211   -0.1224 N   0  0  0  0  0  0  0  0  0  0  0  0
    9.7713   -4.5397   -0.2000 C   0  0  0  0  0  0  0  0  0  0  0  0
   10.7349   -5.5602   -0.2979 N   0  0  0  0  0  0  0  0  0  0  0  0
   10.4896   -6.9272   -0.3576 C   0  0  0  0  0  0  0  0  0  0  0  0
   11.7247   -7.5137   -0.4423 C   0  0  0  0  0  0  0  0  0  0  0  0
   12.7230   -6.5587   -0.4356 N   0  0  0  0  0  0  0  0  0  0  0  0
   12.1105   -5.4097   -0.3495 C   0  0  0  0  0  0  0  0  0  0  0  0
   10.2483   -3.2929   -0.1920 N   0  0  0  0  0  0  0  0  0  0  0  0
    9.4095   -2.2570   -0.0965 C   0  0  0  0  0  0  0  0  0  0  0  0
    9.9674   -1.0186   -0.0833 N   0  0  0  0  0  0  0  0  0  0  0  0
   11.4213   -0.8478   -0.2024 C   0  0  0  0  0  0  0  0  0  0  0  0
   11.7373    0.1895   -1.2798 C   0  0  0  0  0  0  0  0  0  0  0  0
   11.0908    1.4190   -1.0325 O   0  0  0  0  0  0  0  0  0  0  0  0
    9.6907    1.2600   -0.9480 C   0  0  0  0  0  0  0  0  0  0  0  0
    9.2917    0.2660    0.1417 C   0  0  0  0  0  0  0  0  0  0  0  0
    7.9675   -2.5380   -0.0251 C   0  0  0  0  0  0  0  0  0  0  0  0
    7.0464   -1.5603    0.0367 N   0  0  0  0  0  0  0  0  0  0  0  0
    5.1958    0.5068    0.1772 O   0  0  0  0  0  0  0  0  0  0  0  0
    3.0235    3.0508    0.3262 H   0  0  0  0  0  0  0  0  0  0  0  0
    4.5463    3.0874   -0.6179 H   0  0  0  0  0  0  0  0  0  0  0  0
    4.6098    3.0363    1.1599 H   0  0  0  0  0  0  0  0  0  0  0  0
    4.2243   -3.4026    0.1354 H   0  0  0  0  0  0  0  0  0  0  0  0
    6.3421   -6.2552   -0.7487 H   0  0  0  0  0  0  0  0  0  0  0  0
    4.7113   -5.7768   -0.2041 H   0  0  0  0  0  0  0  0  0  0  0  0
    7.3593   -6.4874    1.6199 H   0  0  0  0  0  0  0  0  0  0  0  0
    9.4789   -7.3196   -0.3361 H   0  0  0  0  0  0  0  0  0  0  0  0
   11.9525   -8.5770   -0.5085 H   0  0  0  0  0  0  0  0  0  0  0  0
   12.5712   -4.4256   -0.3139 H   0  0  0  0  0  0  0  0  0  0  0  0
   11.8803   -1.8118   -0.4400 H   0  0  0  0  0  0  0  0  0  0  0  0
   11.8170   -0.5006    0.7696 H   0  0  0  0  0  0  0  0  0  0  0  0
   11.4417   -0.2115   -2.2717 H   0  0  0  0  0  0  0  0  0  0  0  0
   12.8195    0.3890   -1.2995 H   0  0  0  0  0  0  0  0  0  0  0  0
    9.2792    0.9209   -1.9216 H   0  0  0  0  0  0  0  0  0  0  0  0
    9.2655    2.2495   -0.7214 H   0  0  0  0  0  0  0  0  0  0  0  0
    8.2090    0.1217    0.1606 H   0  0  0  0  0  0  0  0  0  0  0  0
    9.6219    0.6577    1.1220 H   0  0  0  0  0  0  0  0  0  0  0  0
  1  2  1  0
  1 30  1  0
  1 31  1  0
  1 32  1  0
  2  3  2  0
  2 29  1  0
  3  4  1  0
  4  5  2  0
  5  6  1  0
  5 29  1  0
  6  7  2  0
  6 28  1  0
  7  8  1  0
  7 33  1  0
  8  9  1  0
  8 11  2  0
  9 10  1  0
  9 34  1  0
  9 35  1  0
 10 36  1  0
 11 12  1  0
 11 27  1  0
 12 13  2  0
 13 14  1  0
 13 19  1  0
 14 15  1  0
 14 18  1  0
 15 16  2  0
 15 37  1  0
 16 17  1  0
 16 38  1  0
 17 18  2  0
 18 39  1  0
 19 20  2  0
 20 21  1  0
 20 27  1  0
 21 22  1  0
 21 26  1  0
 22 23  1  0
 22 40  1  0
 22 41  1  0
 23 24  1  0
 23 42  1  0
 23 43  1  0
 24 25  1  0
 25 26  1  0
 25 44  1  0
 25 45  1  0
 26 46  1  0
 26 47  1  0
 27 28  2  0
M  END

