
     RDKit          3D

 39 39  0  0  0  0  0  0  0  0999 V2000
    1.6444    0.7311    1.8918 C   0  0  0  0  0  0  0  0  0  0  0  0
    2.8056    0.3964    0.9861 C   0  0  0  0  0  0  0  0  0  0  0  0
    3.2423    1.3238    0.0226 C   0  0  0  0  0  0  0  0  0  0  0  0
    4.3036    1.0396   -0.8414 C   0  0  0  0  0  0  0  0  0  0  0  0
    4.7598    2.0358   -1.8805 C   0  0  0  0  0  0  0  0  0  0  0  0
    4.9413   -0.2089   -0.7268 C   0  0  0  0  0  0  0  0  0  0  0  0
    4.5360   -1.1534    0.2196 C   0  0  0  0  0  0  0  0  0  0  0  0
    5.2746   -2.4856    0.3522 C   0  0  1  0  0  0  0  0  0  0  0  0
    5.9683   -2.6667    1.6339 N   0  0  0  0  0  0  0  0  0  0  0  0
    4.3758   -3.7118    0.1290 C   0  0  0  0  0  0  0  0  0  0  0  0
    3.6069   -3.7007   -1.5324 S   0  0  0  0  0  0  0  0  0  0  0  0
    2.9112   -5.3992   -1.5335 C   0  0  0  0  0  0  0  0  0  0  0  0
    2.1797   -5.7196   -2.8469 C   0  0  1  0  0  0  0  0  0  0  0  0
    3.1287   -5.7482   -4.0521 C   0  0  0  0  0  0  0  0  0  0  0  0
    1.4165   -7.0446   -2.7119 C   0  0  0  0  0  0  0  0  0  0  0  0
    3.4630   -0.8340    1.0705 C   0  0  0  0  0  0  0  0  0  0  0  0
    1.8111    1.6818    2.4251 H   0  0  0  0  0  0  0  0  0  0  0  0
    1.4767   -0.0535    2.6446 H   0  0  0  0  0  0  0  0  0  0  0  0
    0.7102    0.8470    1.3163 H   0  0  0  0  0  0  0  0  0  0  0  0
    2.7368    2.2921   -0.0529 H   0  0  0  0  0  0  0  0  0  0  0  0
    4.2035    2.9820   -1.8080 H   0  0  0  0  0  0  0  0  0  0  0  0
    4.6182    1.6402   -2.9005 H   0  0  0  0  0  0  0  0  0  0  0  0
    5.8331    2.2655   -1.7731 H   0  0  0  0  0  0  0  0  0  0  0  0
    5.7736   -0.4482   -1.3970 H   0  0  0  0  0  0  0  0  0  0  0  0
    6.0488   -2.5105   -0.4331 H   0  0  0  0  0  0  0  0  0  0  0  0
    5.3000   -2.5941    2.4035 H   0  0  0  0  0  0  0  0  0  0  0  0
    6.6289   -1.9010    1.7738 H   0  0  0  0  0  0  0  0  0  0  0  0
    3.5849   -3.7535    0.8989 H   0  0  0  0  0  0  0  0  0  0  0  0
    4.9978   -4.6133    0.2399 H   0  0  0  0  0  0  0  0  0  0  0  0
    2.2124   -5.4865   -0.6848 H   0  0  0  0  0  0  0  0  0  0  0  0
    3.7283   -6.1239   -1.3675 H   0  0  0  0  0  0  0  0  0  0  0  0
    1.4374   -4.9169   -3.0125 H   0  0  0  0  0  0  0  0  0  0  0  0
    3.8775   -6.5518   -3.9414 H   0  0  0  0  0  0  0  0  0  0  0  0
    3.6743   -4.7991   -4.1633 H   0  0  0  0  0  0  0  0  0  0  0  0
    2.5738   -5.9351   -4.9856 H   0  0  0  0  0  0  0  0  0  0  0  0
    2.1084   -7.8831   -2.5211 H   0  0  0  0  0  0  0  0  0  0  0  0
    0.8618   -7.2763   -3.6355 H   0  0  0  0  0  0  0  0  0  0  0  0
    0.6907   -7.0135   -1.8831 H   0  0  0  0  0  0  0  0  0  0  0  0
    3.1265   -1.5602    1.8177 H   0  0  0  0  0  0  0  0  0  0  0  0
  1  2  1  0
  1 17  1  0
  1 18  1  0
  1 19  1  0
  2  3  2  0
  2 16  1  0
  3  4  1  0
  3 20  1  0
  4  5  1  0
  4  6  2  0
  5 21  1  0
  5 22  1  0
  5 23  1  0
  6  7  1  0
  6 24  1  0
  7  8  1  0
  7 16  2  0
  8  9  1  0
  8 10  1  0
  8 25  1  6
  9 26  1  0
  9 27  1  0
 10 11  1  0
 10 28  1  0
 10 29  1  0
 11 12  1  0
 12 13  1  0
 12 30  1  0
 12 31  1  0
 13 14  1  0
 13 15  1  0
 13 32  1  6
 14 33  1  0
 14 34  1  0
 14 35  1  0
 15 36  1  0
 15 37  1  0
 15 38  1  0
 16 39  1  0
M  END

