
     RDKit          3D

 39 40  0  0  0  0  0  0  0  0999 V2000
    1.9070   -1.2514    0.4380 C   0  0  0  0  0  0  0  0  0  0  0  0
    1.9416    0.2050   -0.0523 C   0  0  1  0  0  0  0  0  0  0  0  0
    1.0510    1.0698    0.8535 C   0  0  0  0  0  0  0  0  0  0  0  0
    3.3948    0.7561   -0.1408 C   0  0  1  0  0  0  0  0  0  0  0  0
    4.3238   -0.0718   -1.0590 C   0  0  0  0  0  0  0  0  0  0  0  0
    4.0094    0.1094   -2.5531 C   0  0  0  0  0  0  0  0  0  0  0  0
    4.0342    1.5840   -2.9960 C   0  0  2  0  0  0  0  0  0  0  0  0
    5.4116    2.0565   -3.0327 N   0  0  0  0  0  0  0  0  0  0  0  0
    5.8649    3.1647   -3.6953 C   0  0  0  0  0  0  0  0  0  0  0  0
    5.0593    3.9085   -4.5870 C   0  0  0  0  0  0  0  0  0  0  0  0
    5.5854    5.0072   -5.2578 C   0  0  0  0  0  0  0  0  0  0  0  0
    4.7799    5.6796   -6.0959 F   0  0  0  0  0  0  0  0  0  0  0  0
    6.8993    5.4348   -5.0943 C   0  0  0  0  0  0  0  0  0  0  0  0
    7.7075    4.7126   -4.2105 C   0  0  0  0  0  0  0  0  0  0  0  0
    7.2057    3.6102   -3.5276 C   0  0  0  0  0  0  0  0  0  0  0  0
    8.2539    2.7338   -2.4155 Cl  0  0  0  0  0  0  0  0  0  0  0  0
    3.1347    2.4346   -2.0691 C   0  0  0  0  0  0  0  0  0  0  0  0
    3.4857    2.2332   -0.5887 C   0  0  0  0  0  0  0  0  0  0  0  0
    0.8679   -1.6032    0.5401 H   0  0  0  0  0  0  0  0  0  0  0  0
    2.3865   -1.3463    1.4280 H   0  0  0  0  0  0  0  0  0  0  0  0
    2.4171   -1.9446   -0.2472 H   0  0  0  0  0  0  0  0  0  0  0  0
    1.4938    0.2211   -1.0629 H   0  0  0  0  0  0  0  0  0  0  0  0
    1.4785    1.1498    1.8683 H   0  0  0  0  0  0  0  0  0  0  0  0
    0.0481    0.6245    0.9526 H   0  0  0  0  0  0  0  0  0  0  0  0
    0.9157    2.0908    0.4673 H   0  0  0  0  0  0  0  0  0  0  0  0
    3.8047    0.6952    0.8848 H   0  0  0  0  0  0  0  0  0  0  0  0
    4.2904   -1.1412   -0.8027 H   0  0  0  0  0  0  0  0  0  0  0  0
    5.3659    0.2370   -0.8586 H   0  0  0  0  0  0  0  0  0  0  0  0
    3.0078   -0.2953   -2.7722 H   0  0  0  0  0  0  0  0  0  0  0  0
    4.7191   -0.4673   -3.1693 H   0  0  0  0  0  0  0  0  0  0  0  0
    3.6367    1.6365   -4.0241 H   0  0  0  0  0  0  0  0  0  0  0  0
    6.0752    1.6324   -2.3960 H   0  0  0  0  0  0  0  0  0  0  0  0
    4.0197    3.6412   -4.7703 H   0  0  0  0  0  0  0  0  0  0  0  0
    7.2694    6.3043   -5.6381 H   0  0  0  0  0  0  0  0  0  0  0  0
    8.7447    5.0084   -4.0437 H   0  0  0  0  0  0  0  0  0  0  0  0
    2.0819    2.1601   -2.2561 H   0  0  0  0  0  0  0  0  0  0  0  0
    3.2279    3.4989   -2.3388 H   0  0  0  0  0  0  0  0  0  0  0  0
    2.8558    2.8797    0.0403 H   0  0  0  0  0  0  0  0  0  0  0  0
    4.5213    2.5796   -0.4252 H   0  0  0  0  0  0  0  0  0  0  0  0
  1  2  1  0
  1 19  1  0
  1 20  1  0
  1 21  1  0
  2  3  1  0
  2  4  1  0
  2 22  1  6
  3 23  1  0
  3 24  1  0
  3 25  1  0
  4  5  1  0
  4 18  1  0
  4 26  1  1
  5  6  1  0
  5 27  1  0
  5 28  1  0
  6  7  1  0
  6 29  1  0
  6 30  1  0
  7  8  1  0
  7 17  1  0
  7 31  1  6
  8  9  1  0
  8 32  1  0
  9 10  2  0
  9 15  1  0
 10 11  1  0
 10 33  1  0
 11 12  1  0
 11 13  2  0
 13 14  1  0
 13 34  1  0
 14 15  2  0
 14 35  1  0
 15 16  1  0
 17 18  1  0
 17 36  1  0
 17 37  1  0
 18 38  1  0
 18 39  1  0
M  END

