
     RDKit          3D

 39 40  0  0  0  0  0  0  0  0999 V2000
    6.4240    4.5710   -2.1550 C   0  0  0  0  0  0  0  0  0  0  0  0
    6.6998    3.3210   -1.3414 C   0  0  0  0  0  0  0  0  0  0  0  0
    5.8410    3.3321   -0.2124 O   0  0  0  0  0  0  0  0  0  0  0  0
    5.8926    2.3223    0.6915 C   0  0  0  0  0  0  0  0  0  0  0  0
    5.0148    2.4220    1.7841 C   0  0  0  0  0  0  0  0  0  0  0  0
    5.0040    1.4291    2.7604 C   0  0  0  0  0  0  0  0  0  0  0  0
    5.8601    0.3263    2.6695 C   0  0  0  0  0  0  0  0  0  0  0  0
    6.7381    0.2175    1.5834 C   0  0  0  0  0  0  0  0  0  0  0  0
    7.6571   -0.9804    1.4648 C   0  0  0  0  0  0  0  0  0  0  0  0
    6.8959   -2.2159    1.2222 N   0  0  0  0  0  0  0  0  0  0  0  0
    7.6671   -3.4548    1.1163 C   0  0  1  0  0  0  0  0  0  0  0  0
    8.2006   -3.8849    2.4909 C   0  0  0  0  0  0  0  0  0  0  0  0
    7.1502   -4.0871    3.5940 C   0  0  0  0  0  0  0  0  0  0  0  0
    7.3160   -4.8672    4.4955 O   0  0  0  0  0  0  0  0  0  0  0  0
    6.0589   -3.3162    3.5083 O   0  0  0  0  0  0  0  0  0  0  0  0
    6.9267   -4.6099    0.3827 C   0  0  0  0  0  0  0  0  0  0  0  0
    8.1860   -4.9338   -0.3006 N   0  0  0  0  0  0  0  0  0  0  0  0
    8.7346   -3.6015   -0.0167 C   0  0  0  0  0  0  0  0  0  0  0  0
    6.7513    1.2146    0.5945 C   0  0  0  0  0  0  0  0  0  0  0  0
    7.0733    4.5984   -3.0437 H   0  0  0  0  0  0  0  0  0  0  0  0
    6.6145    5.4742   -1.5556 H   0  0  0  0  0  0  0  0  0  0  0  0
    5.3752    4.5942   -2.4880 H   0  0  0  0  0  0  0  0  0  0  0  0
    7.7564    3.2925   -1.0133 H   0  0  0  0  0  0  0  0  0  0  0  0
    6.5181    2.4123   -1.9468 H   0  0  0  0  0  0  0  0  0  0  0  0
    4.3553    3.2902    1.8422 H   0  0  0  0  0  0  0  0  0  0  0  0
    4.3204    1.5167    3.6087 H   0  0  0  0  0  0  0  0  0  0  0  0
    5.8461   -0.4474    3.4410 H   0  0  0  0  0  0  0  0  0  0  0  0
    8.2180   -1.1045    2.4049 H   0  0  0  0  0  0  0  0  0  0  0  0
    8.4077   -0.7992    0.6709 H   0  0  0  0  0  0  0  0  0  0  0  0
    6.3052   -2.0937    0.4001 H   0  0  0  0  0  0  0  0  0  0  0  0
    8.9292   -3.1446    2.8668 H   0  0  0  0  0  0  0  0  0  0  0  0
    8.7506   -4.8301    2.3906 H   0  0  0  0  0  0  0  0  0  0  0  0
    6.1169   -2.7708    2.6729 H   0  0  0  0  0  0  0  0  0  0  0  0
    6.1240   -4.2155   -0.2749 H   0  0  0  0  0  0  0  0  0  0  0  0
    6.5000   -5.4155    1.0045 H   0  0  0  0  0  0  0  0  0  0  0  0
    8.1261   -5.2170   -1.2762 H   0  0  0  0  0  0  0  0  0  0  0  0
    8.5715   -2.8477   -0.8149 H   0  0  0  0  0  0  0  0  0  0  0  0
    9.7994   -3.5805    0.2745 H   0  0  0  0  0  0  0  0  0  0  0  0
    7.4424    1.1188   -0.2439 H   0  0  0  0  0  0  0  0  0  0  0  0
  1  2  1  0
  1 20  1  0
  1 21  1  0
  1 22  1  0
  2  3  1  0
  2 23  1  0
  2 24  1  0
  3  4  1  0
  4  5  2  0
  4 19  1  0
  5  6  1  0
  5 25  1  0
  6  7  2  0
  6 26  1  0
  7  8  1  0
  7 27  1  0
  8  9  1  0
  8 19  2  0
  9 10  1  0
  9 28  1  0
  9 29  1  0
 11 10  1  1
 10 30  1  0
 11 12  1  0
 11 16  1  0
 11 18  1  0
 12 13  1  0
 12 31  1  0
 12 32  1  0
 13 14  2  0
 13 15  1  0
 15 33  1  0
 16 17  1  0
 16 34  1  0
 16 35  1  0
 17 18  1  0
 17 36  1  0
 18 37  1  0
 18 38  1  0
 19 39  1  0
M  END

