
     RDKit          3D

 54 57  0  0  0  0  0  0  0  0999 V2000
    4.9037   -1.5417    3.5917 C   0  0  0  0  0  0  0  0  0  0  0  0
    4.1509   -1.0807    2.3388 C   0  0  1  0  0  0  0  0  0  0  0  0
    4.5563    0.3544    1.9172 C   0  0  0  0  0  0  0  0  0  0  0  0
    5.5831    0.1180    0.8355 C   0  0  0  0  0  0  0  0  0  0  0  0
    6.4909    0.9948    0.2499 C   0  0  0  0  0  0  0  0  0  0  0  0
    7.3088    0.5343   -0.7918 C   0  0  0  0  0  0  0  0  0  0  0  0
    7.2037   -0.7884   -1.2344 C   0  0  0  0  0  0  0  0  0  0  0  0
    6.2963   -1.6844   -0.6535 C   0  0  0  0  0  0  0  0  0  0  0  0
    5.4943   -1.2113    0.3896 C   0  0  0  0  0  0  0  0  0  0  0  0
    4.5133   -1.9015    1.1492 N   0  0  0  0  0  0  0  0  0  0  0  0
    3.9721   -3.1175    0.8106 C   0  0  0  0  0  0  0  0  0  0  0  0
    4.3380   -3.7777   -0.1433 O   0  0  0  0  0  0  0  0  0  0  0  0
    2.7940   -3.6029    1.6813 C   0  0  0  0  0  0  0  0  0  0  0  0
    2.3590   -4.8748    1.2857 O   0  0  0  0  0  0  0  0  0  0  0  0
    3.0200   -6.0108    1.6742 C   0  0  0  0  0  0  0  0  0  0  0  0
    4.1370   -5.9860    2.5204 C   0  0  0  0  0  0  0  0  0  0  0  0
    4.7308   -7.1794    2.9384 C   0  0  0  0  0  0  0  0  0  0  0  0
    4.2150   -8.4075    2.5227 C   0  0  0  0  0  0  0  0  0  0  0  0
    3.1099   -8.4265    1.6729 C   0  0  0  0  0  0  0  0  0  0  0  0
    2.5033   -7.2470    1.2177 C   0  0  0  0  0  0  0  0  0  0  0  0
    1.3350   -7.4366    0.2719 C   0  0  0  0  0  0  0  0  0  0  0  0
    0.7638   -8.5202    0.2029 O   0  0  0  0  0  0  0  0  0  0  0  0
    1.0082   -6.3849   -0.5272 N   0  0  0  0  0  0  0  0  0  0  0  0
   -0.0769   -6.4539   -1.4920 C   0  0  0  0  0  0  0  0  0  0  0  0
   -1.3780   -5.8435   -0.9990 C   0  0  0  0  0  0  0  0  0  0  0  0
   -1.8780   -4.6576   -1.5532 C   0  0  0  0  0  0  0  0  0  0  0  0
   -3.0718   -4.0951   -1.0866 C   0  0  0  0  0  0  0  0  0  0  0  0
   -3.7794   -4.7155   -0.0546 C   0  0  0  0  0  0  0  0  0  0  0  0
   -3.2891   -5.9016    0.5055 C   0  0  0  0  0  0  0  0  0  0  0  0
   -2.0995   -6.4622    0.0372 C   0  0  0  0  0  0  0  0  0  0  0  0
    4.6170   -0.9225    4.4563 H   0  0  0  0  0  0  0  0  0  0  0  0
    5.9910   -1.4466    3.4444 H   0  0  0  0  0  0  0  0  0  0  0  0
    4.6859   -2.5906    3.8434 H   0  0  0  0  0  0  0  0  0  0  0  0
    3.0667   -1.1419    2.5112 H   0  0  0  0  0  0  0  0  0  0  0  0
    4.9417    0.9317    2.7713 H   0  0  0  0  0  0  0  0  0  0  0  0
    3.6912    0.9094    1.5132 H   0  0  0  0  0  0  0  0  0  0  0  0
    6.5623    2.0302    0.5941 H   0  0  0  0  0  0  0  0  0  0  0  0
    8.0279    1.2110   -1.2593 H   0  0  0  0  0  0  0  0  0  0  0  0
    7.8430   -1.1379   -2.0491 H   0  0  0  0  0  0  0  0  0  0  0  0
    6.2058   -2.7125   -0.9959 H   0  0  0  0  0  0  0  0  0  0  0  0
    1.9356   -2.9307    1.5172 H   0  0  0  0  0  0  0  0  0  0  0  0
    3.0279   -3.5726    2.7577 H   0  0  0  0  0  0  0  0  0  0  0  0
    4.5625   -5.0396    2.8527 H   0  0  0  0  0  0  0  0  0  0  0  0
    5.6044   -7.1388    3.5940 H   0  0  0  0  0  0  0  0  0  0  0  0
    4.6726   -9.3426    2.8531 H   0  0  0  0  0  0  0  0  0  0  0  0
    2.6742   -9.3661    1.3283 H   0  0  0  0  0  0  0  0  0  0  0  0
    1.4644   -5.4966   -0.3511 H   0  0  0  0  0  0  0  0  0  0  0  0
   -0.2269   -7.5191   -1.7194 H   0  0  0  0  0  0  0  0  0  0  0  0
    0.2417   -5.9492   -2.4183 H   0  0  0  0  0  0  0  0  0  0  0  0
   -1.3293   -4.1687   -2.3643 H   0  0  0  0  0  0  0  0  0  0  0  0
   -3.4490   -3.1708   -1.5327 H   0  0  0  0  0  0  0  0  0  0  0  0
   -4.7131   -4.2799    0.3111 H   0  0  0  0  0  0  0  0  0  0  0  0
   -3.8421   -6.3956    1.3090 H   0  0  0  0  0  0  0  0  0  0  0  0
   -1.7174   -7.3919    0.4673 H   0  0  0  0  0  0  0  0  0  0  0  0
  1  2  1  0
  1 31  1  0
  1 32  1  0
  1 33  1  0
  2  3  1  0
  2 10  1  0
  2 34  1  1
  3  4  1  0
  3 35  1  0
  3 36  1  0
  4  5  2  0
  4  9  1  0
  5  6  1  0
  5 37  1  0
  6  7  2  0
  6 38  1  0
  7  8  1  0
  7 39  1  0
  8  9  2  0
  8 40  1  0
  9 10  1  0
 10 11  1  0
 11 12  2  0
 11 13  1  0
 13 14  1  0
 13 41  1  0
 13 42  1  0
 14 15  1  0
 15 16  2  0
 15 20  1  0
 16 17  1  0
 16 43  1  0
 17 18  2  0
 17 44  1  0
 18 19  1  0
 18 45  1  0
 19 20  2  0
 19 46  1  0
 20 21  1  0
 21 22  2  0
 21 23  1  0
 23 24  1  0
 23 47  1  0
 24 25  1  0
 24 48  1  0
 24 49  1  0
 25 26  2  0
 25 30  1  0
 26 27  1  0
 26 50  1  0
 27 28  2  0
 27 51  1  0
 28 29  1  0
 28 52  1  0
 29 30  2  0
 29 53  1  0
 30 54  1  0
M  END

