
     RDKit          3D

 37 38  0  0  0  0  0  0  0  0999 V2000
    3.4977    1.3148   -0.8725 C   0  0  0  0  0  0  0  0  0  0  0  0
    2.7488    0.2292   -0.0896 C   0  0  1  0  0  0  0  0  0  0  0  0
    1.2637    0.5974    0.0420 C   0  0  0  0  0  0  0  0  0  0  0  0
    2.9468   -1.2340   -0.6450 C   0  0  1  0  0  0  0  0  0  0  0  0
    2.3182   -2.1511    0.2421 O   0  0  0  0  0  0  0  0  0  0  0  0
    2.3847   -1.3702   -2.0536 C   0  0  0  0  0  0  0  0  0  0  0  0
    1.6159   -2.3973   -2.4519 C   0  0  0  0  0  0  0  0  0  0  0  0
    1.0456   -2.5946   -3.7933 C   0  0  0  0  0  0  0  0  0  0  0  0
    1.5317   -1.9117   -4.9280 C   0  0  0  0  0  0  0  0  0  0  0  0
    0.9964   -2.0919   -6.1989 C   0  0  0  0  0  0  0  0  0  0  0  0
   -0.0629   -2.9896   -6.3700 C   0  0  0  0  0  0  0  0  0  0  0  0
   -0.7475   -3.2362   -7.9558 Cl  0  0  0  0  0  0  0  0  0  0  0  0
   -0.5752   -3.6968   -5.2823 C   0  0  0  0  0  0  0  0  0  0  0  0
   -0.0208   -3.4953   -4.0155 C   0  0  0  0  0  0  0  0  0  0  0  0
   -0.7188   -4.4026   -2.6879 Cl  0  0  0  0  0  0  0  0  0  0  0  0
    4.4325   -1.6088   -0.6039 C   0  0  0  0  0  0  0  0  0  0  0  0
    5.0058   -2.1427    0.5609 C   0  0  0  0  0  0  0  0  0  0  0  0
    6.2992   -2.4596    0.6472 N   0  0  0  0  0  0  0  0  0  0  0  0
    7.0393   -2.2492   -0.4422 C   0  0  0  0  0  0  0  0  0  0  0  0
    6.6098   -1.7639   -1.6071 N   0  0  0  0  0  0  0  0  0  0  0  0
    5.3141   -1.4523   -1.6806 C   0  0  0  0  0  0  0  0  0  0  0  0
    3.3958    2.2831   -0.3577 H   0  0  0  0  0  0  0  0  0  0  0  0
    3.0906    1.4499   -1.8882 H   0  0  0  0  0  0  0  0  0  0  0  0
    4.5735    1.1041   -0.9607 H   0  0  0  0  0  0  0  0  0  0  0  0
    3.1782    0.1908    0.9268 H   0  0  0  0  0  0  0  0  0  0  0  0
    0.7607    0.6225   -0.9384 H   0  0  0  0  0  0  0  0  0  0  0  0
    1.1589    1.5951    0.4963 H   0  0  0  0  0  0  0  0  0  0  0  0
    0.7096   -0.0987    0.6927 H   0  0  0  0  0  0  0  0  0  0  0  0
    1.3797   -1.9267    0.2905 H   0  0  0  0  0  0  0  0  0  0  0  0
    2.6306   -0.5640   -2.7503 H   0  0  0  0  0  0  0  0  0  0  0  0
    1.3774   -3.1684   -1.7165 H   0  0  0  0  0  0  0  0  0  0  0  0
    2.3744   -1.2276   -4.8101 H   0  0  0  0  0  0  0  0  0  0  0  0
    1.3988   -1.5527   -7.0575 H   0  0  0  0  0  0  0  0  0  0  0  0
   -1.3994   -4.3972   -5.4138 H   0  0  0  0  0  0  0  0  0  0  0  0
    4.3834   -2.3279    1.4411 H   0  0  0  0  0  0  0  0  0  0  0  0
    8.1043   -2.5037   -0.3745 H   0  0  0  0  0  0  0  0  0  0  0  0
    4.9648   -1.0657   -2.6444 H   0  0  0  0  0  0  0  0  0  0  0  0
  1  2  1  0
  1 22  1  0
  1 23  1  0
  1 24  1  0
  2  3  1  0
  2  4  1  0
  2 25  1  1
  3 26  1  0
  3 27  1  0
  3 28  1  0
  4  5  1  1
  4  6  1  0
  4 16  1  0
  5 29  1  0
  6  7  2  0
  6 30  1  0
  7  8  1  0
  7 31  1  0
  8  9  2  0
  8 14  1  0
  9 10  1  0
  9 32  1  0
 10 11  2  0
 10 33  1  0
 11 12  1  0
 11 13  1  0
 13 14  2  0
 13 34  1  0
 14 15  1  0
 16 17  2  0
 16 21  1  0
 17 18  1  0
 17 35  1  0
 18 19  2  0
 19 20  1  0
 19 36  1  0
 20 21  2  0
 21 37  1  0
M  END

