
     RDKit          3D

 46 49  0  0  0  0  0  0  0  0999 V2000
    4.5016   -1.4020   -1.1763 O   0  0  0  0  0  0  0  0  0  0  0  0
    3.9258   -1.4941   -0.1097 C   0  0  0  0  0  0  0  0  0  0  0  0
    2.8089   -0.5065    0.2754 C   0  0  0  0  0  0  0  0  0  0  0  0
    1.9567   -0.9716    1.3623 N   0  0  0  0  0  0  0  0  0  0  0  0
    1.4461    0.0500    2.2736 C   0  0  0  0  0  0  0  0  0  0  0  0
    0.2609    0.8493    1.7152 C   0  0  0  0  0  0  0  0  0  0  0  0
   -0.7995   -0.0451    1.2665 N   0  0  0  0  0  0  0  0  0  0  0  0
   -2.0983    0.4543    1.1252 C   0  0  0  0  0  0  0  0  0  0  0  0
   -2.3986    1.8152    1.3528 C   0  0  0  0  0  0  0  0  0  0  0  0
   -3.7082    2.2756    1.2554 C   0  0  0  0  0  0  0  0  0  0  0  0
   -3.9465    3.5688    1.4784 F   0  0  0  0  0  0  0  0  0  0  0  0
   -4.7738    1.4389    0.9143 C   0  0  0  0  0  0  0  0  0  0  0  0
   -6.3955    2.0324    0.7897 Cl  0  0  0  0  0  0  0  0  0  0  0  0
   -4.4625    0.0937    0.6760 C   0  0  0  0  0  0  0  0  0  0  0  0
   -5.4462   -0.7475    0.3544 F   0  0  0  0  0  0  0  0  0  0  0  0
   -3.1696   -0.3997    0.7746 C   0  0  0  0  0  0  0  0  0  0  0  0
   -0.3317   -1.0893    0.3526 C   0  0  0  0  0  0  0  0  0  0  0  0
    0.8600   -1.8494    0.9439 C   0  0  0  0  0  0  0  0  0  0  0  0
    4.1949   -2.4064    0.8772 N   0  0  0  0  0  0  0  0  0  0  0  0
    5.1609   -3.4190    0.9139 C   0  0  0  0  0  0  0  0  0  0  0  0
    6.0701   -3.6600   -0.1430 C   0  0  0  0  0  0  0  0  0  0  0  0
    6.9923   -4.6315   -0.1009 N   0  0  0  0  0  0  0  0  0  0  0  0
    7.0428   -5.3883    0.9808 C   0  0  0  0  0  0  0  0  0  0  0  0
    6.1827   -5.2192    2.0721 C   0  0  0  0  0  0  0  0  0  0  0  0
    5.2182   -4.2300    2.0680 C   0  0  0  0  0  0  0  0  0  0  0  0
    6.4220   -6.1189    3.0772 O   0  0  0  0  0  0  0  0  0  0  0  0
    7.4779   -6.9524    2.6984 C   0  0  0  0  0  0  0  0  0  0  0  0
    7.8680   -7.8186    3.4147 O   0  0  0  0  0  0  0  0  0  0  0  0
    7.9564   -6.5346    1.3067 C   0  0  0  0  0  0  0  0  0  0  0  0
    2.2812   -0.2641   -0.6655 H   0  0  0  0  0  0  0  0  0  0  0  0
    3.3182    0.4215    0.5851 H   0  0  0  0  0  0  0  0  0  0  0  0
    2.2603    0.7390    2.5465 H   0  0  0  0  0  0  0  0  0  0  0  0
    1.1176   -0.4547    3.1987 H   0  0  0  0  0  0  0  0  0  0  0  0
    0.6005    1.5214    0.8968 H   0  0  0  0  0  0  0  0  0  0  0  0
   -0.1231    1.4905    2.5210 H   0  0  0  0  0  0  0  0  0  0  0  0
   -1.6364    2.5533    1.5922 H   0  0  0  0  0  0  0  0  0  0  0  0
   -3.0342   -1.4660    0.6022 H   0  0  0  0  0  0  0  0  0  0  0  0
   -0.0558   -0.6468   -0.6284 H   0  0  0  0  0  0  0  0  0  0  0  0
   -1.1355   -1.8085    0.1559 H   0  0  0  0  0  0  0  0  0  0  0  0
    1.2338   -2.5806    0.2103 H   0  0  0  0  0  0  0  0  0  0  0  0
    0.5158   -2.4147    1.8271 H   0  0  0  0  0  0  0  0  0  0  0  0
    3.5760   -2.2987    1.6824 H   0  0  0  0  0  0  0  0  0  0  0  0
    6.0287   -3.0357   -1.0352 H   0  0  0  0  0  0  0  0  0  0  0  0
    4.5405   -4.0863    2.9124 H   0  0  0  0  0  0  0  0  0  0  0  0
    7.8716   -7.3884    0.6142 H   0  0  0  0  0  0  0  0  0  0  0  0
    9.0237   -6.2610    1.3488 H   0  0  0  0  0  0  0  0  0  0  0  0
  1  2  2  0
  2  3  1  0
  2 19  1  0
  3  4  1  0
  3 30  1  0
  3 31  1  0
  4  5  1  0
  4 18  1  0
  5  6  1  0
  5 32  1  0
  5 33  1  0
  6  7  1  0
  6 34  1  0
  6 35  1  0
  7  8  1  0
  7 17  1  0
  8  9  2  0
  8 16  1  0
  9 10  1  0
  9 36  1  0
 10 11  1  0
 10 12  2  0
 12 13  1  0
 12 14  1  0
 14 15  1  0
 14 16  2  0
 16 37  1  0
 17 18  1  0
 17 38  1  0
 17 39  1  0
 18 40  1  0
 18 41  1  0
 19 20  1  0
 19 42  1  0
 20 21  2  0
 20 25  1  0
 21 22  1  0
 21 43  1  0
 22 23  2  0
 23 24  1  0
 23 29  1  0
 24 25  2  0
 24 26  1  0
 25 44  1  0
 26 27  1  0
 27 28  2  0
 27 29  1  0
 29 45  1  0
 29 46  1  0
M  END

