
     RDKit          3D

 51 53  0  0  0  0  0  0  0  0999 V2000
    1.2260   -8.4731   -4.0388 C   0  0  0  0  0  0  0  0  0  0  0  0
    2.1389   -7.6037   -4.8819 C   0  0  0  0  0  0  0  0  0  0  0  0
    2.7390   -6.6336   -4.0352 O   0  0  0  0  0  0  0  0  0  0  0  0
    3.6434   -5.7474   -4.5498 C   0  0  0  0  0  0  0  0  0  0  0  0
    3.9809   -5.6706   -5.9070 C   0  0  0  0  0  0  0  0  0  0  0  0
    4.9080   -4.7120   -6.3365 C   0  0  0  0  0  0  0  0  0  0  0  0
    5.4939   -3.8345   -5.4261 C   0  0  0  0  0  0  0  0  0  0  0  0
    5.1517   -3.9221   -4.0707 C   0  0  0  0  0  0  0  0  0  0  0  0
    4.2385   -4.8734   -3.6116 C   0  0  0  0  0  0  0  0  0  0  0  0
    3.8711   -4.9853   -2.1452 C   0  0  0  0  0  0  0  0  0  0  0  0
    2.4979   -4.6016   -1.8539 N   0  0  0  0  0  0  0  0  0  0  0  0
    2.1797   -3.3418   -1.4258 C   0  0  0  0  0  0  0  0  0  0  0  0
    3.0282   -2.4951   -1.1792 O   0  0  0  0  0  0  0  0  0  0  0  0
    0.7094   -3.0523   -1.2628 C   0  0  0  0  0  0  0  0  0  0  0  0
   -0.2741   -4.0461   -1.1255 C   0  0  0  0  0  0  0  0  0  0  0  0
   -1.6170   -3.7026   -0.9664 C   0  0  0  0  0  0  0  0  0  0  0  0
   -2.0150   -2.3573   -0.9371 C   0  0  0  0  0  0  0  0  0  0  0  0
   -3.4823   -1.9868   -0.8209 C   0  0  0  0  0  0  0  0  0  0  0  0
   -4.2334   -2.8534    0.0622 N   0  0  0  0  0  0  0  0  0  0  0  0
   -3.9375   -2.7253    1.4852 C   0  0  0  0  0  0  0  0  0  0  0  0
   -5.0221   -3.5823    2.1604 C   0  0  0  0  0  0  0  0  0  0  0  0
   -6.2000   -3.5822    1.1454 C   0  0  0  0  0  0  0  0  0  0  0  0
   -5.6833   -2.7442   -0.0385 C   0  0  0  0  0  0  0  0  0  0  0  0
   -1.0284   -1.3671   -1.0543 C   0  0  0  0  0  0  0  0  0  0  0  0
    0.3150   -1.7077   -1.2105 C   0  0  0  0  0  0  0  0  0  0  0  0
    0.7549   -9.2466   -4.6647 H   0  0  0  0  0  0  0  0  0  0  0  0
    0.4271   -7.8728   -3.5762 H   0  0  0  0  0  0  0  0  0  0  0  0
    1.7924   -8.9721   -3.2376 H   0  0  0  0  0  0  0  0  0  0  0  0
    1.5683   -7.1018   -5.6858 H   0  0  0  0  0  0  0  0  0  0  0  0
    2.9241   -8.2140   -5.3656 H   0  0  0  0  0  0  0  0  0  0  0  0
    3.5296   -6.3437   -6.6358 H   0  0  0  0  0  0  0  0  0  0  0  0
    5.1645   -4.6571   -7.3977 H   0  0  0  0  0  0  0  0  0  0  0  0
    6.2113   -3.0833   -5.7639 H   0  0  0  0  0  0  0  0  0  0  0  0
    5.5976   -3.2341   -3.3475 H   0  0  0  0  0  0  0  0  0  0  0  0
    4.5181   -4.3285   -1.5511 H   0  0  0  0  0  0  0  0  0  0  0  0
    4.0198   -6.0233   -1.8054 H   0  0  0  0  0  0  0  0  0  0  0  0
    1.7735   -5.1877   -2.2499 H   0  0  0  0  0  0  0  0  0  0  0  0
    0.0064   -5.1026   -1.1105 H   0  0  0  0  0  0  0  0  0  0  0  0
   -2.3782   -4.4761   -0.8426 H   0  0  0  0  0  0  0  0  0  0  0  0
   -3.9389   -2.0580   -1.8253 H   0  0  0  0  0  0  0  0  0  0  0  0
   -3.5660   -0.9146   -0.5245 H   0  0  0  0  0  0  0  0  0  0  0  0
   -4.0206   -1.6631    1.8169 H   0  0  0  0  0  0  0  0  0  0  0  0
   -2.9122   -3.0564    1.7108 H   0  0  0  0  0  0  0  0  0  0  0  0
   -5.3062   -3.1751    3.1422 H   0  0  0  0  0  0  0  0  0  0  0  0
   -4.6555   -4.6064    2.3265 H   0  0  0  0  0  0  0  0  0  0  0  0
   -7.1239   -3.1581    1.5663 H   0  0  0  0  0  0  0  0  0  0  0  0
   -6.4311   -4.6078    0.8208 H   0  0  0  0  0  0  0  0  0  0  0  0
   -6.0202   -1.6854    0.0645 H   0  0  0  0  0  0  0  0  0  0  0  0
   -6.0380   -3.1034   -1.0187 H   0  0  0  0  0  0  0  0  0  0  0  0
   -1.3170   -0.3124   -1.0159 H   0  0  0  0  0  0  0  0  0  0  0  0
    1.0886   -0.9413   -1.2870 H   0  0  0  0  0  0  0  0  0  0  0  0
  1  2  1  0
  1 26  1  0
  1 27  1  0
  1 28  1  0
  2  3  1  0
  2 29  1  0
  2 30  1  0
  3  4  1  0
  4  5  2  0
  4  9  1  0
  5  6  1  0
  5 31  1  0
  6  7  2  0
  6 32  1  0
  7  8  1  0
  7 33  1  0
  8  9  2  0
  8 34  1  0
  9 10  1  0
 10 11  1  0
 10 35  1  0
 10 36  1  0
 11 12  1  0
 11 37  1  0
 12 13  2  0
 12 14  1  0
 14 15  2  0
 14 25  1  0
 15 16  1  0
 15 38  1  0
 16 17  2  0
 16 39  1  0
 17 18  1  0
 17 24  1  0
 18 19  1  0
 18 40  1  0
 18 41  1  0
 19 20  1  0
 19 23  1  0
 20 21  1  0
 20 42  1  0
 20 43  1  0
 21 22  1  0
 21 44  1  0
 21 45  1  0
 22 23  1  0
 22 46  1  0
 22 47  1  0
 23 48  1  0
 23 49  1  0
 24 25  2  0
 24 50  1  0
 25 51  1  0
M  END

