
     RDKit          3D

 71 81  0  0  0  0  0  0  0  0999 V2000
   -1.7524    0.0925   -1.3499 O   0  0  0  0  0  0  0  0  0  0  0  0
   -0.7146    1.1765   -1.3354 P   0  0  1  0  0  0  0  0  0  0  0  0
    0.9781    0.5207   -1.3575 C   0  0  0  0  0  0  0  0  0  0  0  0
    1.6297   -0.0058   -0.2307 C   0  0  0  0  0  0  0  0  0  0  0  0
    2.8531   -0.6851   -0.3165 C   0  0  0  0  0  0  0  0  0  0  0  0
    3.4936   -1.2392    0.9031 C   0  0  0  0  0  0  0  0  0  0  0  0
    2.7360   -1.7413    1.9794 C   0  0  0  0  0  0  0  0  0  0  0  0
    3.3226   -2.2475    3.1494 C   0  0  0  0  0  0  0  0  0  0  0  0
    4.7085   -2.2805    3.3044 C   0  0  0  0  0  0  0  0  0  0  0  0
    5.5008   -1.7948    2.2560 C   0  0  0  0  0  0  0  0  0  0  0  0
    4.8842   -1.2936    1.0891 C   0  0  0  0  0  0  0  0  0  0  0  0
    5.8203   -0.8523    0.1873 O   0  0  0  0  0  0  0  0  0  0  0  0
    7.0488   -1.0619    0.7560 C   0  0  0  0  0  0  0  0  0  0  0  0
    8.2720   -0.7518    0.1704 C   0  0  0  0  0  0  0  0  0  0  0  0
    9.4180   -1.0437    0.9160 C   0  0  0  0  0  0  0  0  0  0  0  0
    9.3303   -1.6232    2.1956 C   0  0  0  0  0  0  0  0  0  0  0  0
    8.0925   -1.9265    2.7654 C   0  0  0  0  0  0  0  0  0  0  0  0
    6.9296   -1.6425    2.0350 C   0  0  0  0  0  0  0  0  0  0  0  0
    3.4263   -0.8395   -1.5973 C   0  0  0  0  0  0  0  0  0  0  0  0
    2.8019   -0.3311   -2.7285 C   0  0  0  0  0  0  0  0  0  0  0  0
    1.5855    0.3557   -2.6190 C   0  0  0  0  0  0  0  0  0  0  0  0
    1.0695    0.8205   -3.8022 O   0  0  0  0  0  0  0  0  0  0  0  0
    0.1870    1.8596   -3.8765 C   0  0  0  0  0  0  0  0  0  0  0  0
    0.1090    2.5479   -5.0903 C   0  0  0  0  0  0  0  0  0  0  0  0
   -0.7276    3.6638   -5.1772 C   0  0  0  0  0  0  0  0  0  0  0  0
   -1.4433    4.1270   -4.0703 C   0  0  0  0  0  0  0  0  0  0  0  0
   -1.3516    3.4223   -2.8665 C   0  0  0  0  0  0  0  0  0  0  0  0
   -0.5930    2.2445   -2.7738 C   0  0  0  0  0  0  0  0  0  0  0  0
   -2.0066    3.9452   -1.7890 O   0  0  0  0  0  0  0  0  0  0  0  0
   -1.7169    3.6158   -0.4910 C   0  0  0  0  0  0  0  0  0  0  0  0
   -2.1705    4.5322    0.4678 C   0  0  0  0  0  0  0  0  0  0  0  0
   -1.9404    4.3046    1.8176 C   0  0  0  0  0  0  0  0  0  0  0  0
   -1.2566    3.1528    2.2632 C   0  0  0  0  0  0  0  0  0  0  0  0
   -0.9947    2.9362    3.7086 C   0  0  0  0  0  0  0  0  0  0  0  0
   -0.7859    4.0118    4.5942 C   0  0  0  0  0  0  0  0  0  0  0  0
   -0.5482    3.8320    5.9654 C   0  0  0  0  0  0  0  0  0  0  0  0
   -0.5057    2.5568    6.5290 C   0  0  0  0  0  0  0  0  0  0  0  0
   -0.7044    1.4571    5.6844 C   0  0  0  0  0  0  0  0  0  0  0  0
   -0.9384    1.6669    4.3080 C   0  0  0  0  0  0  0  0  0  0  0  0
   -1.1185    0.4745    3.6530 O   0  0  0  0  0  0  0  0  0  0  0  0
   -1.0048   -0.5170    4.5911 C   0  0  0  0  0  0  0  0  0  0  0  0
   -1.1241   -1.8805    4.3404 C   0  0  0  0  0  0  0  0  0  0  0  0
   -0.9706   -2.7352    5.4365 C   0  0  0  0  0  0  0  0  0  0  0  0
   -0.7103   -2.2328    6.7256 C   0  0  0  0  0  0  0  0  0  0  0  0
   -0.5976   -0.8603    6.9550 C   0  0  0  0  0  0  0  0  0  0  0  0
   -0.7466    0.0157    5.8701 C   0  0  0  0  0  0  0  0  0  0  0  0
   -0.8374    2.2347    1.2895 C   0  0  0  0  0  0  0  0  0  0  0  0
   -1.0409    2.4479   -0.0833 C   0  0  0  0  0  0  0  0  0  0  0  0
    1.1717    0.1228    0.7502 H   0  0  0  0  0  0  0  0  0  0  0  0
    1.6478   -1.7560    1.8913 H   0  0  0  0  0  0  0  0  0  0  0  0
    2.6756   -2.6244    3.9448 H   0  0  0  0  0  0  0  0  0  0  0  0
    5.1628   -2.6740    4.2164 H   0  0  0  0  0  0  0  0  0  0  0  0
    8.3244   -0.3012   -0.8222 H   0  0  0  0  0  0  0  0  0  0  0  0
   10.4007   -0.8164    0.4956 H   0  0  0  0  0  0  0  0  0  0  0  0
   10.2471   -1.8376    2.7498 H   0  0  0  0  0  0  0  0  0  0  0  0
    8.0327   -2.3760    3.7595 H   0  0  0  0  0  0  0  0  0  0  0  0
    4.3744   -1.3661   -1.7054 H   0  0  0  0  0  0  0  0  0  0  0  0
    3.2437   -0.4480   -3.7198 H   0  0  0  0  0  0  0  0  0  0  0  0
    0.7164    2.2154   -5.9331 H   0  0  0  0  0  0  0  0  0  0  0  0
   -0.7933    4.2095   -6.1216 H   0  0  0  0  0  0  0  0  0  0  0  0
   -2.0527    5.0307   -4.1148 H   0  0  0  0  0  0  0  0  0  0  0  0
   -2.7068    5.4190    0.1251 H   0  0  0  0  0  0  0  0  0  0  0  0
   -2.3186    5.0260    2.5445 H   0  0  0  0  0  0  0  0  0  0  0  0
   -0.7861    5.0269    4.1920 H   0  0  0  0  0  0  0  0  0  0  0  0
   -0.3869    4.7098    6.5953 H   0  0  0  0  0  0  0  0  0  0  0  0
   -0.3205    2.4198    7.5966 H   0  0  0  0  0  0  0  0  0  0  0  0
   -1.3360   -2.2537    3.3369 H   0  0  0  0  0  0  0  0  0  0  0  0
   -1.0599   -3.8142    5.2884 H   0  0  0  0  0  0  0  0  0  0  0  0
   -0.5982   -2.9304    7.5589 H   0  0  0  0  0  0  0  0  0  0  0  0
   -0.3977   -0.4787    7.9590 H   0  0  0  0  0  0  0  0  0  0  0  0
   -0.3544    1.3148    1.6128 H   0  0  0  0  0  0  0  0  0  0  0  0
  1  2  2  0
  2  3  1  1
  2 28  1  0
  2 48  1  0
  3  4  2  0
  3 21  1  0
  4  5  1  0
  4 49  1  0
  5  6  1  0
  5 19  2  0
  6  7  2  0
  6 11  1  0
  7  8  1  0
  7 50  1  0
  8  9  2  0
  8 51  1  0
  9 10  1  0
  9 52  1  0
 10 11  2  0
 10 18  1  0
 11 12  1  0
 12 13  1  0
 13 14  1  0
 13 18  2  0
 14 15  2  0
 14 53  1  0
 15 16  1  0
 15 54  1  0
 16 17  2  0
 16 55  1  0
 17 18  1  0
 17 56  1  0
 19 20  1  0
 19 57  1  0
 20 21  2  0
 20 58  1  0
 21 22  1  0
 22 23  1  0
 23 24  2  0
 23 28  1  0
 24 25  1  0
 24 59  1  0
 25 26  2  0
 25 60  1  0
 26 27  1  0
 26 61  1  0
 27 28  2  0
 27 29  1  0
 29 30  1  0
 30 31  2  0
 30 48  1  0
 31 32  1  0
 31 62  1  0
 32 33  2  0
 32 63  1  0
 33 34  1  0
 33 47  1  0
 34 35  2  0
 34 39  1  0
 35 36  1  0
 35 64  1  0
 36 37  2  0
 36 65  1  0
 37 38  1  0
 37 66  1  0
 38 39  2  0
 38 46  1  0
 39 40  1  0
 40 41  1  0
 41 42  1  0
 41 46  2  0
 42 43  2  0
 42 67  1  0
 43 44  1  0
 43 68  1  0
 44 45  2  0
 44 69  1  0
 45 46  1  0
 45 70  1  0
 47 48  2  0
 47 71  1  0
M  END

