
     RDKit          3D

 60 61  0  0  0  0  0  0  0  0999 V2000
    1.6617   -0.6572   -0.6198 C   0  0  0  0  0  0  0  0  0  0  0  0
    2.7185    0.0227    0.0166 O   0  0  0  0  0  0  0  0  0  0  0  0
    3.1868    1.1904   -0.5086 C   0  0  0  0  0  0  0  0  0  0  0  0
    2.7018    1.7512   -1.6964 C   0  0  0  0  0  0  0  0  0  0  0  0
    3.2154    2.9531   -2.2073 C   0  0  0  0  0  0  0  0  0  0  0  0
    2.6532    3.5087   -3.4945 C   0  0  0  0  0  0  0  0  0  0  0  0
    4.2422    3.6107   -1.4968 C   0  0  0  0  0  0  0  0  0  0  0  0
    4.8449    4.9048   -2.0352 C   0  0  1  0  0  0  0  0  0  0  0  0
    4.0453    5.5092   -2.4882 H   0  0  0  0  0  0  0  0  0  0  0  0
    5.5335    5.7970   -0.9943 C   0  0  0  0  0  0  0  0  0  0  0  0
    5.7530    4.5908   -3.1454 N   0  0  0  0  0  0  0  0  0  0  0  0
    5.9773    5.4624   -4.1750 C   0  0  0  0  0  0  0  0  0  0  0  0
    5.4149    6.5489   -4.2407 O   0  0  0  0  0  0  0  0  0  0  0  0
    6.9565    5.0139   -5.2299 C   0  0  0  0  0  0  0  0  0  0  0  0
    7.3102    3.6701   -5.4251 C   0  0  0  0  0  0  0  0  0  0  0  0
    8.2229    3.3285   -6.4347 C   0  0  0  0  0  0  0  0  0  0  0  0
    8.6113    2.0613   -6.7206 O   0  0  0  0  0  0  0  0  0  0  0  0
    8.1174    0.9980   -5.9411 C   0  0  0  0  0  0  0  0  0  0  0  0
    8.8006    4.3354   -7.2372 C   0  0  0  0  0  0  0  0  0  0  0  0
    9.7394    3.9975   -8.1616 O   0  0  0  0  0  0  0  0  0  0  0  0
    9.3027    3.9408   -9.5108 C   0  0  0  0  0  0  0  0  0  0  0  0
    8.4163    5.6804   -7.0475 C   0  0  0  0  0  0  0  0  0  0  0  0
    8.9999    6.5768   -7.8814 O   0  0  0  0  0  0  0  0  0  0  0  0
    8.6932    7.9469   -7.7355 C   0  0  0  0  0  0  0  0  0  0  0  0
    7.4963    6.0140   -6.0462 C   0  0  0  0  0  0  0  0  0  0  0  0
    4.7054    3.0337   -0.3025 C   0  0  0  0  0  0  0  0  0  0  0  0
    4.2110    1.8353    0.2202 C   0  0  0  0  0  0  0  0  0  0  0  0
    4.7371    1.2045    1.5041 C   0  0  1  0  0  0  0  0  0  0  0  0
    5.7079    0.0482    1.1925 C   0  0  0  0  0  0  0  0  0  0  0  0
    5.3751    2.2057    2.4745 C   0  0  0  0  0  0  0  0  0  0  0  0
    1.4488   -1.5458   -0.0099 H   0  0  0  0  0  0  0  0  0  0  0  0
    1.9344   -0.9827   -1.6401 H   0  0  0  0  0  0  0  0  0  0  0  0
    0.7489   -0.0374   -0.6790 H   0  0  0  0  0  0  0  0  0  0  0  0
    1.9036    1.2545   -2.2489 H   0  0  0  0  0  0  0  0  0  0  0  0
    1.8494    2.8687   -3.8865 H   0  0  0  0  0  0  0  0  0  0  0  0
    3.4289    3.5965   -4.2715 H   0  0  0  0  0  0  0  0  0  0  0  0
    2.2369    4.5203   -3.3555 H   0  0  0  0  0  0  0  0  0  0  0  0
    4.8504    6.0352   -0.1641 H   0  0  0  0  0  0  0  0  0  0  0  0
    5.8366    6.7379   -1.4754 H   0  0  0  0  0  0  0  0  0  0  0  0
    6.4357    5.3237   -0.5755 H   0  0  0  0  0  0  0  0  0  0  0  0
    6.3646    3.7920   -3.0319 H   0  0  0  0  0  0  0  0  0  0  0  0
    6.8433    2.8865   -4.8299 H   0  0  0  0  0  0  0  0  0  0  0  0
    8.5781    0.0817   -6.3343 H   0  0  0  0  0  0  0  0  0  0  0  0
    7.0184    0.9040   -6.0157 H   0  0  0  0  0  0  0  0  0  0  0  0
    8.3916    1.1053   -4.8757 H   0  0  0  0  0  0  0  0  0  0  0  0
   10.1726    3.6454  -10.1144 H   0  0  0  0  0  0  0  0  0  0  0  0
    8.9393    4.9218   -9.8601 H   0  0  0  0  0  0  0  0  0  0  0  0
    8.5053    3.1875   -9.6420 H   0  0  0  0  0  0  0  0  0  0  0  0
    9.2806    8.4796   -8.4953 H   0  0  0  0  0  0  0  0  0  0  0  0
    8.9725    8.3239   -6.7358 H   0  0  0  0  0  0  0  0  0  0  0  0
    7.6203    8.1490   -7.9024 H   0  0  0  0  0  0  0  0  0  0  0  0
    7.1696    7.0380   -5.8736 H   0  0  0  0  0  0  0  0  0  0  0  0
    5.4878    3.5490    0.2545 H   0  0  0  0  0  0  0  0  0  0  0  0
    3.8636    0.7599    2.0096 H   0  0  0  0  0  0  0  0  0  0  0  0
    6.6088    0.4211    0.6769 H   0  0  0  0  0  0  0  0  0  0  0  0
    5.2317   -0.7054    0.5486 H   0  0  0  0  0  0  0  0  0  0  0  0
    6.0321   -0.4525    2.1201 H   0  0  0  0  0  0  0  0  0  0  0  0
    6.3177    2.6212    2.0812 H   0  0  0  0  0  0  0  0  0  0  0  0
    5.6177    1.7078    3.4268 H   0  0  0  0  0  0  0  0  0  0  0  0
    4.7010    3.0482    2.6958 H   0  0  0  0  0  0  0  0  0  0  0  0
  1  2  1  0
  1 31  1  0
  1 32  1  0
  1 33  1  0
  2  3  1  0
  3  4  2  0
  3 27  1  0
  4  5  1  0
  4 34  1  0
  5  6  1  0
  5  7  2  0
  6 35  1  0
  6 36  1  0
  6 37  1  0
  7  8  1  0
  7 26  1  0
  8  9  1  6
  8 10  1  0
  8 11  1  0
 10 38  1  0
 10 39  1  0
 10 40  1  0
 11 12  1  0
 11 41  1  0
 12 13  2  0
 12 14  1  0
 14 15  2  0
 14 25  1  0
 15 16  1  0
 15 42  1  0
 16 17  1  0
 16 19  2  0
 17 18  1  0
 18 43  1  0
 18 44  1  0
 18 45  1  0
 19 20  1  0
 19 22  1  0
 20 21  1  0
 21 46  1  0
 21 47  1  0
 21 48  1  0
 22 23  1  0
 22 25  2  0
 23 24  1  0
 24 49  1  0
 24 50  1  0
 24 51  1  0
 25 52  1  0
 26 27  2  0
 26 53  1  0
 27 28  1  0
 28 29  1  0
 28 30  1  0
 28 54  1  1
 29 55  1  0
 29 56  1  0
 29 57  1  0
 30 58  1  0
 30 59  1  0
 30 60  1  0
M  END

