
     RDKit          3D

 36 39  0  0  0  0  0  0  0  0999 V2000
    0.2408   -0.0280    0.9788 O   0  0  0  0  0  0  0  0  0  0  0  0
    1.4867   -0.0633    0.2074 S   0  0  1  0  0  0  0  0  0  0  0  0
    1.4749   -0.0492   -1.2537 O   0  0  0  0  0  0  0  0  0  0  0  0
    2.4588    1.3480    0.7523 C   0  0  0  0  0  0  0  0  0  0  0  0
    1.9407    2.1922    1.7045 C   0  0  0  0  0  0  0  0  0  0  0  0
    2.6539    3.3551    2.1393 C   0  0  0  0  0  0  0  0  0  0  0  0
    3.8841    3.6818    1.6243 C   0  0  0  0  0  0  0  0  0  0  0  0
    4.4517    2.8288    0.6304 C   0  0  0  0  0  0  0  0  0  0  0  0
    5.6320    2.9907    0.0250 N   0  0  0  0  0  0  0  0  0  0  0  0
    5.8040    1.7424   -1.0214 S   0  0  0  0  0  0  0  0  0  0  0  0
    4.3934    0.9522   -0.7523 N   0  0  0  0  0  0  0  0  0  0  0  0
    3.7351    1.6453    0.1760 C   0  0  0  0  0  0  0  0  0  0  0  0
    2.3841   -1.4046    0.7442 N   0  0  0  0  0  0  0  0  0  0  0  0
    1.8100   -2.2032    1.8530 C   0  0  0  0  0  0  0  0  0  0  0  0
    2.1275   -3.6826    1.5785 C   0  0  0  0  0  0  0  0  0  0  0  0
    2.2353   -3.8459   -0.2397 S   0  0  0  0  0  0  0  0  0  0  0  0
    3.1040   -2.1948   -0.2525 C   0  0  2  0  0  0  0  0  0  0  0  0
    4.5912   -2.3444    0.0309 C   0  0  0  0  0  0  0  0  0  0  0  0
    5.3983   -3.0179   -0.9012 C   0  0  0  0  0  0  0  0  0  0  0  0
    6.7671   -3.1708   -0.6832 C   0  0  0  0  0  0  0  0  0  0  0  0
    7.3571   -2.6577    0.4785 C   0  0  0  0  0  0  0  0  0  0  0  0
    6.5644   -1.9867    1.4108 C   0  0  0  0  0  0  0  0  0  0  0  0
    5.1917   -1.8265    1.1852 C   0  0  0  0  0  0  0  0  0  0  0  0
    0.9606    1.9628    2.1268 H   0  0  0  0  0  0  0  0  0  0  0  0
    2.1943    3.9918    2.8988 H   0  0  0  0  0  0  0  0  0  0  0  0
    4.4343    4.5663    1.9486 H   0  0  0  0  0  0  0  0  0  0  0  0
    0.7262   -2.0334    1.8918 H   0  0  0  0  0  0  0  0  0  0  0  0
    2.2389   -1.8925    2.8207 H   0  0  0  0  0  0  0  0  0  0  0  0
    1.3344   -4.3432    1.9559 H   0  0  0  0  0  0  0  0  0  0  0  0
    3.0827   -3.9833    2.0354 H   0  0  0  0  0  0  0  0  0  0  0  0
    2.9505   -1.7526   -1.2452 H   0  0  0  0  0  0  0  0  0  0  0  0
    4.9438   -3.4356   -1.8037 H   0  0  0  0  0  0  0  0  0  0  0  0
    7.3784   -3.6953   -1.4223 H   0  0  0  0  0  0  0  0  0  0  0  0
    8.4291   -2.7810    0.6524 H   0  0  0  0  0  0  0  0  0  0  0  0
    7.0138   -1.5785    2.3201 H   0  0  0  0  0  0  0  0  0  0  0  0
    4.5827   -1.2764    1.9048 H   0  0  0  0  0  0  0  0  0  0  0  0
  1  2  2  0
  2  3  2  0
  2  4  1  1
  2 13  1  0
  4  5  2  0
  4 12  1  0
  5  6  1  0
  5 24  1  0
  6  7  2  0
  6 25  1  0
  7  8  1  0
  7 26  1  0
  8  9  2  0
  8 12  1  0
  9 10  1  0
 10 11  1  0
 11 12  2  0
 13 14  1  0
 13 17  1  0
 14 15  1  0
 14 27  1  0
 14 28  1  0
 15 16  1  0
 15 29  1  0
 15 30  1  0
 16 17  1  0
 17 18  1  0
 17 31  1  6
 18 19  2  0
 18 23  1  0
 19 20  1  0
 19 32  1  0
 20 21  2  0
 20 33  1  0
 21 22  1  0
 21 34  1  0
 22 23  2  0
 22 35  1  0
 23 36  1  0
M  END

