
     RDKit          3D

 32 32  0  0  0  0  0  0  0  0999 V2000
    6.0305   -1.4467   -3.8543 C   0  0  0  0  0  0  0  0  0  0  0  0
    5.9884   -1.8504   -2.4880 O   0  0  0  0  0  0  0  0  0  0  0  0
    4.7638   -1.9376   -1.9126 C   0  0  0  0  0  0  0  0  0  0  0  0
    4.0983   -0.8031   -1.4123 C   0  0  0  0  0  0  0  0  0  0  0  0
    4.8484    0.7679   -1.5589 Cl  0  0  0  0  0  0  0  0  0  0  0  0
    2.8642   -0.9311   -0.7759 C   0  0  0  0  0  0  0  0  0  0  0  0
    2.2649   -2.1785   -0.6225 C   0  0  0  0  0  0  0  0  0  0  0  0
    2.8975   -3.3407   -1.1035 C   0  0  0  0  0  0  0  0  0  0  0  0
    2.3485   -4.6200   -0.9707 N   0  0  0  0  0  0  0  0  0  0  0  0
    1.1549   -5.0033   -0.3885 C   0  0  0  0  0  0  0  0  0  0  0  0
    0.3755   -4.2168    0.1166 O   0  0  0  0  0  0  0  0  0  0  0  0
    0.8863   -6.5302   -0.4315 C   0  0  1  0  0  0  0  0  0  0  0  0
    2.0035   -7.2782    0.3295 C   0  0  0  0  0  0  0  0  0  0  0  0
   -0.4652   -6.7957    0.2476 C   0  0  0  0  0  0  0  0  0  0  0  0
    0.8308   -7.0092   -1.8993 C   0  0  0  0  0  0  0  0  0  0  0  0
    4.1452   -3.1899   -1.7522 C   0  0  0  0  0  0  0  0  0  0  0  0
    5.0713   -4.7223   -2.4272 Br  0  0  0  0  0  0  0  0  0  0  0  0
    7.0902   -1.4351   -4.1429 H   0  0  0  0  0  0  0  0  0  0  0  0
    5.6082   -0.4378   -3.9888 H   0  0  0  0  0  0  0  0  0  0  0  0
    5.4892   -2.1629   -4.4961 H   0  0  0  0  0  0  0  0  0  0  0  0
    2.3697   -0.0379   -0.3909 H   0  0  0  0  0  0  0  0  0  0  0  0
    1.3042   -2.2805   -0.1243 H   0  0  0  0  0  0  0  0  0  0  0  0
    2.9218   -5.3595   -1.3628 H   0  0  0  0  0  0  0  0  0  0  0  0
    2.0786   -6.9283    1.3712 H   0  0  0  0  0  0  0  0  0  0  0  0
    2.9932   -7.1563   -0.1390 H   0  0  0  0  0  0  0  0  0  0  0  0
    1.7839   -8.3577    0.3515 H   0  0  0  0  0  0  0  0  0  0  0  0
   -0.4597   -6.4518    1.2918 H   0  0  0  0  0  0  0  0  0  0  0  0
   -0.6866   -7.8745    0.2342 H   0  0  0  0  0  0  0  0  0  0  0  0
   -1.2793   -6.2643   -0.2659 H   0  0  0  0  0  0  0  0  0  0  0  0
    1.7901   -6.8799   -2.4257 H   0  0  0  0  0  0  0  0  0  0  0  0
    0.0591   -6.4653   -2.4665 H   0  0  0  0  0  0  0  0  0  0  0  0
    0.5818   -8.0819   -1.9343 H   0  0  0  0  0  0  0  0  0  0  0  0
  1  2  1  0
  1 18  1  0
  1 19  1  0
  1 20  1  0
  2  3  1  0
  3  4  2  0
  3 16  1  0
  4  5  1  0
  4  6  1  0
  6  7  2  0
  6 21  1  0
  7  8  1  0
  7 22  1  0
  8  9  1  0
  8 16  2  0
  9 10  1  0
  9 23  1  0
 10 11  2  0
 12 10  1  6
 12 13  1  0
 12 14  1  0
 12 15  1  0
 13 24  1  0
 13 25  1  0
 13 26  1  0
 14 27  1  0
 14 28  1  0
 14 29  1  0
 15 30  1  0
 15 31  1  0
 15 32  1  0
 16 17  1  0
M  END

