
     RDKit          3D

 46 48  0  0  0  0  0  0  0  0999 V2000
    1.0308   -0.4130   -4.4022 C   0  0  0  0  0  0  0  0  0  0  0  0
    1.8230   -0.6268   -3.2555 O   0  0  0  0  0  0  0  0  0  0  0  0
    2.1317    0.4096   -2.4304 C   0  0  0  0  0  0  0  0  0  0  0  0
    1.7576    1.7372   -2.6271 C   0  0  0  0  0  0  0  0  0  0  0  0
    2.1333    2.7168   -1.6958 C   0  0  0  0  0  0  0  0  0  0  0  0
    2.8824    2.3885   -0.5640 C   0  0  0  0  0  0  0  0  0  0  0  0
    3.2909    3.4343    0.4461 C   0  0  0  0  0  0  0  0  0  0  0  0
    3.2606    1.0462   -0.3713 C   0  0  0  0  0  0  0  0  0  0  0  0
    2.8985    0.0552   -1.2875 C   0  0  0  0  0  0  0  0  0  0  0  0
    3.2399   -1.3059   -1.1763 N   0  0  0  0  0  0  0  0  0  0  0  0
    3.8958   -1.9269   -0.1549 C   0  0  0  0  0  0  0  0  0  0  0  0
    4.3302   -1.3882    0.8491 O   0  0  0  0  0  0  0  0  0  0  0  0
    4.0842   -3.4382   -0.3568 C   0  0  0  0  0  0  0  0  0  0  0  0
    2.6238   -4.4569    0.1215 S   0  0  0  0  0  0  0  0  0  0  0  0
    1.7194   -4.4028   -1.3756 C   0  0  0  0  0  0  0  0  0  0  0  0
    2.0621   -3.7561   -2.4773 N   0  0  0  0  0  0  0  0  0  0  0  0
    1.0618   -3.9476   -3.3641 N   0  0  0  0  0  0  0  0  0  0  0  0
    0.1348   -4.6749   -2.8710 N   0  0  0  0  0  0  0  0  0  0  0  0
    0.5123   -4.9919   -1.5989 N   0  0  0  0  0  0  0  0  0  0  0  0
   -0.3319   -5.7782   -0.7637 C   0  0  0  0  0  0  0  0  0  0  0  0
   -1.7186   -5.5846   -0.8254 C   0  0  0  0  0  0  0  0  0  0  0  0
   -2.5554   -6.3519   -0.0226 C   0  0  0  0  0  0  0  0  0  0  0  0
   -2.0121   -7.3066    0.8437 C   0  0  0  0  0  0  0  0  0  0  0  0
   -2.9447   -8.0120    1.5858 O   0  0  0  0  0  0  0  0  0  0  0  0
   -2.6015   -8.7848    2.6435 C   0  0  1  0  0  0  0  0  0  0  0  0
   -1.8598   -9.8435    2.2805 F   0  0  0  0  0  0  0  0  0  0  0  0
   -1.9041   -8.1049    3.5620 F   0  0  0  0  0  0  0  0  0  0  0  0
   -3.7202   -9.2263    3.1944 F   0  0  0  0  0  0  0  0  0  0  0  0
   -0.6309   -7.5108    0.9043 C   0  0  0  0  0  0  0  0  0  0  0  0
    0.2066   -6.7445    0.0903 C   0  0  0  0  0  0  0  0  0  0  0  0
    0.8808   -1.4011   -4.8563 H   0  0  0  0  0  0  0  0  0  0  0  0
    1.5324    0.2557   -5.1249 H   0  0  0  0  0  0  0  0  0  0  0  0
    0.0480    0.0195   -4.1413 H   0  0  0  0  0  0  0  0  0  0  0  0
    1.1724    2.0204   -3.5024 H   0  0  0  0  0  0  0  0  0  0  0  0
    1.8305    3.7536   -1.8658 H   0  0  0  0  0  0  0  0  0  0  0  0
    2.9255    4.4330    0.1637 H   0  0  0  0  0  0  0  0  0  0  0  0
    4.3881    3.4927    0.5436 H   0  0  0  0  0  0  0  0  0  0  0  0
    2.8942    3.2018    1.4487 H   0  0  0  0  0  0  0  0  0  0  0  0
    3.8426    0.7540    0.5008 H   0  0  0  0  0  0  0  0  0  0  0  0
    2.9098   -1.8958   -1.9455 H   0  0  0  0  0  0  0  0  0  0  0  0
    4.8670   -3.7606    0.3410 H   0  0  0  0  0  0  0  0  0  0  0  0
    4.3597   -3.7069   -1.3858 H   0  0  0  0  0  0  0  0  0  0  0  0
   -2.1292   -4.8368   -1.5041 H   0  0  0  0  0  0  0  0  0  0  0  0
   -3.6380   -6.2186   -0.0483 H   0  0  0  0  0  0  0  0  0  0  0  0
   -0.1960   -8.2650    1.5579 H   0  0  0  0  0  0  0  0  0  0  0  0
    1.2832   -6.9190    0.1192 H   0  0  0  0  0  0  0  0  0  0  0  0
  1  2  1  0
  1 31  1  0
  1 32  1  0
  1 33  1  0
  2  3  1  0
  3  4  2  0
  3  9  1  0
  4  5  1  0
  4 34  1  0
  5  6  2  0
  5 35  1  0
  6  7  1  0
  6  8  1  0
  7 36  1  0
  7 37  1  0
  7 38  1  0
  8  9  2  0
  8 39  1  0
  9 10  1  0
 10 11  1  0
 10 40  1  0
 11 12  2  0
 11 13  1  0
 13 14  1  0
 13 41  1  0
 13 42  1  0
 14 15  1  0
 15 16  2  0
 15 19  1  0
 16 17  1  0
 17 18  2  0
 18 19  1  0
 19 20  1  0
 20 21  2  0
 20 30  1  0
 21 22  1  0
 21 43  1  0
 22 23  2  0
 22 44  1  0
 23 24  1  0
 23 29  1  0
 24 25  1  0
 25 26  1  6
 25 27  1  0
 25 28  1  0
 29 30  2  0
 29 45  1  0
 30 46  1  0
M  END

