
     RDKit          3D

 35 35  0  0  0  0  0  0  0  0999 V2000
    2.0504   -0.4664    1.2696 N   0  0  0  0  0  0  0  0  0  0  0  0
    2.5665    0.0455    0.0859 C   0  0  0  0  0  0  0  0  0  0  0  0
    3.1669    1.4284    0.1439 C   0  0  0  0  0  0  0  0  0  0  0  0
    2.1384    2.5209   -0.1972 C   0  0  0  0  0  0  0  0  0  0  0  0
    2.7229    3.9333   -0.1290 C   0  0  0  0  0  0  0  0  0  0  0  0
    1.7020    5.0100   -0.4934 C   0  0  0  0  0  0  0  0  0  0  0  0
    2.3085    6.3399   -0.4030 N   0  0  0  0  0  0  0  0  0  0  0  0
    1.3501    7.7101   -0.5122 S   0  0  1  0  0  0  0  0  0  0  0  0
    2.1695    8.7283   -1.1664 O   0  0  0  0  0  0  0  0  0  0  0  0
    0.0212    7.3465   -1.0132 O   0  0  0  0  0  0  0  0  0  0  0  0
    1.1197    8.1901    1.2036 C   0  0  0  0  0  0  0  0  0  0  0  0
   -0.1754    8.3020    1.7186 C   0  0  0  0  0  0  0  0  0  0  0  0
   -0.3836    8.7283    3.0308 C   0  0  0  0  0  0  0  0  0  0  0  0
    0.7263    9.0444    3.8131 C   0  0  0  0  0  0  0  0  0  0  0  0
    0.5436    9.4533    5.0704 F   0  0  0  0  0  0  0  0  0  0  0  0
    2.0305    8.9457    3.3280 C   0  0  0  0  0  0  0  0  0  0  0  0
    2.2124    8.5216    2.0158 C   0  0  0  0  0  0  0  0  0  0  0  0
    3.4520    8.4185    1.5423 F   0  0  0  0  0  0  0  0  0  0  0  0
    2.4097   -0.6425   -0.9890 N   0  0  0  0  0  0  0  0  0  0  0  0
    2.8333    0.0706   -2.1259 O   0  0  0  0  0  0  0  0  0  0  0  0
    2.6191   -0.3051    2.0955 H   0  0  0  0  0  0  0  0  0  0  0  0
    1.7336   -1.4298    1.1925 H   0  0  0  0  0  0  0  0  0  0  0  0
    4.0008    1.4749   -0.5722 H   0  0  0  0  0  0  0  0  0  0  0  0
    3.5786    1.6057    1.1525 H   0  0  0  0  0  0  0  0  0  0  0  0
    1.2821    2.4360    0.4943 H   0  0  0  0  0  0  0  0  0  0  0  0
    1.7496    2.3226   -1.2091 H   0  0  0  0  0  0  0  0  0  0  0  0
    3.5870    4.0046   -0.8156 H   0  0  0  0  0  0  0  0  0  0  0  0
    3.1150    4.1404    0.8821 H   0  0  0  0  0  0  0  0  0  0  0  0
    0.8534    4.9762    0.2080 H   0  0  0  0  0  0  0  0  0  0  0  0
    1.2832    4.8173   -1.4980 H   0  0  0  0  0  0  0  0  0  0  0  0
    3.1503    6.4904   -0.9581 H   0  0  0  0  0  0  0  0  0  0  0  0
   -1.0140    8.0471    1.0683 H   0  0  0  0  0  0  0  0  0  0  0  0
   -1.3855    8.8217    3.4521 H   0  0  0  0  0  0  0  0  0  0  0  0
    2.8864    9.1967    3.9555 H   0  0  0  0  0  0  0  0  0  0  0  0
    2.6800   -0.5660   -2.8345 H   0  0  0  0  0  0  0  0  0  0  0  0
  1  2  1  0
  1 21  1  0
  1 22  1  0
  2  3  1  0
  2 19  2  0
  3  4  1  0
  3 23  1  0
  3 24  1  0
  4  5  1  0
  4 25  1  0
  4 26  1  0
  5  6  1  0
  5 27  1  0
  5 28  1  0
  6  7  1  0
  6 29  1  0
  6 30  1  0
  8  7  1  1
  7 31  1  0
  8  9  2  0
  8 10  2  0
  8 11  1  0
 11 12  2  0
 11 17  1  0
 12 13  1  0
 12 32  1  0
 13 14  2  0
 13 33  1  0
 14 15  1  0
 14 16  1  0
 16 17  2  0
 16 34  1  0
 17 18  1  0
 19 20  1  0
 20 35  1  0
M  END

