
     RDKit          3D

 61 62  0  0  0  0  0  0  0  0999 V2000
    1.5763    1.1839    0.6346 C   0  0  0  0  0  0  0  0  0  0  0  0
    3.0244    0.7407    0.4210 C   0  0  0  0  0  0  0  0  0  0  0  0
    3.4285   -0.4674    1.2719 C   0  0  0  0  0  0  0  0  0  0  0  0
    4.8773   -0.9179    1.0639 C   0  0  0  0  0  0  0  0  0  0  0  0
    5.2800   -2.1261    1.9148 C   0  0  0  0  0  0  0  0  0  0  0  0
    6.7290   -2.5763    1.7064 C   0  0  0  0  0  0  0  0  0  0  0  0
    7.1272   -3.7850    2.5579 C   0  0  0  0  0  0  0  0  0  0  0  0
    8.5846   -4.2330    2.3431 C   0  0  0  0  0  0  0  0  0  0  0  0
    8.9760   -5.4260    3.1876 C   0  0  0  0  0  0  0  0  0  0  0  0
    9.5114   -5.2530    4.4750 C   0  0  0  0  0  0  0  0  0  0  0  0
    9.8408   -6.3646    5.2518 C   0  0  0  0  0  0  0  0  0  0  0  0
    9.6369   -7.6602    4.7740 C   0  0  0  0  0  0  0  0  0  0  0  0
    9.1073   -7.8558    3.4837 C   0  0  0  0  0  0  0  0  0  0  0  0
    8.8874   -9.1518    2.9818 N   0  0  0  0  0  0  0  0  0  0  0  0
    7.9101   -9.4071    2.0331 C   0  0  0  0  0  0  0  0  0  0  0  0
    7.9773  -10.5592    1.3070 C   0  0  0  0  0  0  0  0  0  0  0  0
    7.0352  -11.0125    0.3967 O   0  0  0  0  0  0  0  0  0  0  0  0
    6.0801  -10.2396   -0.1663 C   0  0  0  0  0  0  0  0  0  0  0  0
    5.9341   -9.0616    0.0569 O   0  0  0  0  0  0  0  0  0  0  0  0
    5.2039  -11.0750   -1.0790 C   0  0  0  0  0  0  0  0  0  0  0  0
    4.3119  -10.2482   -2.0058 C   0  0  0  0  0  0  0  0  0  0  0  0
    5.0707   -9.5234   -3.1232 C   0  0  0  0  0  0  0  0  0  0  0  0
    4.1574   -8.7081   -4.0392 C   0  0  0  0  0  0  0  0  0  0  0  0
    9.0821  -11.3805    1.3513 N   0  0  0  0  0  0  0  0  0  0  0  0
    9.8884  -11.2439    2.3361 C   0  0  0  0  0  0  0  0  0  0  0  0
    9.6001  -10.3140    3.5004 C   0  0  0  0  0  0  0  0  0  0  0  0
    8.7904   -6.7262    2.7029 C   0  0  0  0  0  0  0  0  0  0  0  0
    1.3211    2.0534    0.0078 H   0  0  0  0  0  0  0  0  0  0  0  0
    1.3943    1.4667    1.6852 H   0  0  0  0  0  0  0  0  0  0  0  0
    0.8686    0.3753    0.3855 H   0  0  0  0  0  0  0  0  0  0  0  0
    3.7047    1.5836    0.6421 H   0  0  0  0  0  0  0  0  0  0  0  0
    3.1834    0.5015   -0.6464 H   0  0  0  0  0  0  0  0  0  0  0  0
    2.7486   -1.3117    1.0512 H   0  0  0  0  0  0  0  0  0  0  0  0
    3.2700   -0.2292    2.3405 H   0  0  0  0  0  0  0  0  0  0  0  0
    5.5569   -0.0735    1.2847 H   0  0  0  0  0  0  0  0  0  0  0  0
    5.0352   -1.1559   -0.0046 H   0  0  0  0  0  0  0  0  0  0  0  0
    4.6012   -2.9707    1.6937 H   0  0  0  0  0  0  0  0  0  0  0  0
    5.1223   -1.8887    2.9835 H   0  0  0  0  0  0  0  0  0  0  0  0
    7.4093   -1.7327    1.9281 H   0  0  0  0  0  0  0  0  0  0  0  0
    6.8874   -2.8146    0.6381 H   0  0  0  0  0  0  0  0  0  0  0  0
    6.4540   -4.6324    2.3366 H   0  0  0  0  0  0  0  0  0  0  0  0
    6.9752   -3.5521    3.6272 H   0  0  0  0  0  0  0  0  0  0  0  0
    9.2572   -3.3877    2.5687 H   0  0  0  0  0  0  0  0  0  0  0  0
    8.7326   -4.4719    1.2760 H   0  0  0  0  0  0  0  0  0  0  0  0
    9.6768   -4.2447    4.8638 H   0  0  0  0  0  0  0  0  0  0  0  0
   10.2548   -6.2252    6.2540 H   0  0  0  0  0  0  0  0  0  0  0  0
    9.8694   -8.5116    5.4146 H   0  0  0  0  0  0  0  0  0  0  0  0
    7.1444   -8.6551    1.8683 H   0  0  0  0  0  0  0  0  0  0  0  0
    4.5921  -11.7147   -0.4174 H   0  0  0  0  0  0  0  0  0  0  0  0
    5.8514  -11.7694   -1.6392 H   0  0  0  0  0  0  0  0  0  0  0  0
    3.7586   -9.5099   -1.4012 H   0  0  0  0  0  0  0  0  0  0  0  0
    3.5569  -10.9183   -2.4525 H   0  0  0  0  0  0  0  0  0  0  0  0
    5.6287  -10.2659   -3.7230 H   0  0  0  0  0  0  0  0  0  0  0  0
    5.8268   -8.8584   -2.6727 H   0  0  0  0  0  0  0  0  0  0  0  0
    3.4023   -9.3468   -4.5283 H   0  0  0  0  0  0  0  0  0  0  0  0
    4.7293   -8.2026   -4.8336 H   0  0  0  0  0  0  0  0  0  0  0  0
    3.6157   -7.9314   -3.4740 H   0  0  0  0  0  0  0  0  0  0  0  0
   10.8241  -11.8194    2.3373 H   0  0  0  0  0  0  0  0  0  0  0  0
   10.5401   -9.9922    3.9688 H   0  0  0  0  0  0  0  0  0  0  0  0
    9.0055  -10.8432    4.2811 H   0  0  0  0  0  0  0  0  0  0  0  0
    8.4192   -6.8648    1.6851 H   0  0  0  0  0  0  0  0  0  0  0  0
  1  2  1  0
  1 28  1  0
  1 29  1  0
  1 30  1  0
  2  3  1  0
  2 31  1  0
  2 32  1  0
  3  4  1  0
  3 33  1  0
  3 34  1  0
  4  5  1  0
  4 35  1  0
  4 36  1  0
  5  6  1  0
  5 37  1  0
  5 38  1  0
  6  7  1  0
  6 39  1  0
  6 40  1  0
  7  8  1  0
  7 41  1  0
  7 42  1  0
  8  9  1  0
  8 43  1  0
  8 44  1  0
  9 10  2  0
  9 27  1  0
 10 11  1  0
 10 45  1  0
 11 12  2  0
 11 46  1  0
 12 13  1  0
 12 47  1  0
 13 14  1  0
 13 27  2  0
 14 15  1  0
 14 26  1  0
 15 16  2  0
 15 48  1  0
 16 17  1  0
 16 24  1  0
 17 18  1  0
 18 19  2  0
 18 20  1  0
 20 21  1  0
 20 49  1  0
 20 50  1  0
 21 22  1  0
 21 51  1  0
 21 52  1  0
 22 23  1  0
 22 53  1  0
 22 54  1  0
 23 55  1  0
 23 56  1  0
 23 57  1  0
 24 25  2  0
 25 26  1  0
 25 58  1  0
 26 59  1  0
 26 60  1  0
 27 61  1  0
M  END

