
     RDKit          3D

 40 42  0  0  0  0  0  0  0  0999 V2000
    2.6625   -2.9048   -1.0523 O   0  0  0  0  0  0  0  0  0  0  0  0
    3.2526   -1.8166   -0.2651 S   0  0  1  0  0  0  0  0  0  0  0  0
    4.3600   -2.0541    0.6529 O   0  0  0  0  0  0  0  0  0  0  0  0
    3.7320   -0.5257   -1.4217 C   0  0  0  0  0  0  0  0  0  0  0  0
    4.3167    0.6535   -0.9461 C   0  0  0  0  0  0  0  0  0  0  0  0
    4.7333    1.6115   -1.8725 C   0  0  0  0  0  0  0  0  0  0  0  0
    4.5769    1.3851   -3.2455 C   0  0  0  0  0  0  0  0  0  0  0  0
    3.9974    0.1978   -3.7018 C   0  0  0  0  0  0  0  0  0  0  0  0
    3.5698   -0.7704   -2.7880 C   0  0  0  0  0  0  0  0  0  0  0  0
    1.9528   -1.1478    0.6686 N   0  0  0  0  0  0  0  0  0  0  0  0
    0.5774   -1.5425    0.3414 C   0  0  0  0  0  0  0  0  0  0  0  0
   -0.3609   -0.3766    0.0321 C   0  0  2  0  0  0  0  0  0  0  0  0
   -1.3340   -0.8342   -0.2583 H   0  0  0  0  0  0  0  0  0  0  0  0
    0.1073    0.5307   -1.1109 C   0  0  0  0  0  0  0  0  0  0  0  0
   -0.8434    1.7227   -1.2850 C   0  0  0  0  0  0  0  0  0  0  0  0
   -1.0532    2.4338    0.0570 C   0  0  0  0  0  0  0  0  0  0  0  0
   -1.4674    1.4241    1.1259 C   0  0  0  0  0  0  0  0  0  0  0  0
   -0.5411    0.3584    1.2315 O   0  0  0  0  0  0  0  0  0  0  0  0
    2.2649   -0.6107    1.9196 C   0  0  0  0  0  0  0  0  0  0  0  0
    3.1137    0.3557    2.1142 N   0  0  0  0  0  0  0  0  0  0  0  0
    3.2742    0.6236    3.4471 C   0  0  0  0  0  0  0  0  0  0  0  0
    2.5216   -0.1324    4.3037 C   0  0  0  0  0  0  0  0  0  0  0  0
    1.5832   -1.2769    3.4074 S   0  0  0  0  0  0  0  0  0  0  0  0
    4.4073    0.8185    0.1296 H   0  0  0  0  0  0  0  0  0  0  0  0
    5.1860    2.5412   -1.5192 H   0  0  0  0  0  0  0  0  0  0  0  0
    4.9101    2.1392   -3.9631 H   0  0  0  0  0  0  0  0  0  0  0  0
    3.8798    0.0192   -4.7734 H   0  0  0  0  0  0  0  0  0  0  0  0
    3.1226   -1.7087   -3.1189 H   0  0  0  0  0  0  0  0  0  0  0  0
    0.1504   -2.1251    1.1761 H   0  0  0  0  0  0  0  0  0  0  0  0
    0.6267   -2.2160   -0.5229 H   0  0  0  0  0  0  0  0  0  0  0  0
    0.1792   -0.0549   -2.0427 H   0  0  0  0  0  0  0  0  0  0  0  0
    1.1207    0.8937   -0.8748 H   0  0  0  0  0  0  0  0  0  0  0  0
   -1.8184    1.3647   -1.6651 H   0  0  0  0  0  0  0  0  0  0  0  0
   -0.4505    2.4206   -2.0422 H   0  0  0  0  0  0  0  0  0  0  0  0
   -1.8182    3.2243   -0.0256 H   0  0  0  0  0  0  0  0  0  0  0  0
   -0.1136    2.9196    0.3730 H   0  0  0  0  0  0  0  0  0  0  0  0
   -2.4766    1.0216    0.8911 H   0  0  0  0  0  0  0  0  0  0  0  0
   -1.5185    1.8884    2.1226 H   0  0  0  0  0  0  0  0  0  0  0  0
    3.9553    1.4181    3.7569 H   0  0  0  0  0  0  0  0  0  0  0  0
    2.4474   -0.0621    5.3874 H   0  0  0  0  0  0  0  0  0  0  0  0
  1  2  2  0
  2  3  2  0
  2  4  1  0
  2 10  1  1
  4  5  2  0
  4  9  1  0
  5  6  1  0
  5 24  1  0
  6  7  2  0
  6 25  1  0
  7  8  1  0
  7 26  1  0
  8  9  2  0
  8 27  1  0
  9 28  1  0
 10 11  1  0
 10 19  1  0
 11 12  1  0
 11 29  1  0
 11 30  1  0
 12 13  1  6
 12 14  1  0
 12 18  1  0
 14 15  1  0
 14 31  1  0
 14 32  1  0
 15 16  1  0
 15 33  1  0
 15 34  1  0
 16 17  1  0
 16 35  1  0
 16 36  1  0
 17 18  1  0
 17 37  1  0
 17 38  1  0
 19 20  2  0
 19 23  1  0
 20 21  1  0
 21 22  2  0
 21 39  1  0
 22 23  1  0
 22 40  1  0
M  END

