
     RDKit          3D

 48 49  0  0  0  0  0  0  0  0999 V2000
    2.3328    0.2032    2.9663 C   0  0  0  0  0  0  0  0  0  0  0  0
    3.5532    0.1155    2.2624 O   0  0  0  0  0  0  0  0  0  0  0  0
    3.9242   -1.0686    1.7136 C   0  0  0  0  0  0  0  0  0  0  0  0
    5.2012   -1.1060    1.1260 C   0  0  0  0  0  0  0  0  0  0  0  0
    5.6557   -2.2877    0.5526 C   0  0  0  0  0  0  0  0  0  0  0  0
    4.8590   -3.4403    0.5611 C   0  0  0  0  0  0  0  0  0  0  0  0
    3.5833   -3.4216    1.1392 C   0  0  0  0  0  0  0  0  0  0  0  0
    2.7630   -4.7086    1.1734 C   0  0  1  0  0  0  0  0  0  0  0  0
    2.6351   -5.2916    2.6152 C   0  0  0  0  0  0  0  0  0  0  0  0
    1.8724   -4.4983    3.6797 C   0  0  1  0  0  0  0  0  0  0  0  0
    0.3618   -4.4088    3.5022 C   0  0  0  0  0  0  0  0  0  0  0  0
    2.1522   -5.1812    4.9333 O   0  0  0  0  0  0  0  0  0  0  0  0
    2.2262   -4.4328    6.0514 C   0  0  0  0  0  0  0  0  0  0  0  0
    2.5172   -5.2934    7.2579 C   0  0  0  0  0  0  0  0  0  0  0  0
    2.0761   -3.2344    6.0739 O   0  0  0  0  0  0  0  0  0  0  0  0
    1.4550   -4.6908    0.3645 C   0  0  0  0  0  0  0  0  0  0  0  0
    0.9947   -3.5653   -0.3274 C   0  0  0  0  0  0  0  0  0  0  0  0
   -0.1819   -3.6343   -1.0895 C   0  0  0  0  0  0  0  0  0  0  0  0
   -0.9079   -4.8141   -1.1824 C   0  0  0  0  0  0  0  0  0  0  0  0
   -0.4471   -5.9597   -0.5087 C   0  0  0  0  0  0  0  0  0  0  0  0
   -1.1991   -7.0813   -0.6606 O   0  0  0  0  0  0  0  0  0  0  0  0
   -0.8024   -8.2745   -0.0267 C   0  0  0  0  0  0  0  0  0  0  0  0
    0.7247   -5.8926    0.2544 C   0  0  0  0  0  0  0  0  0  0  0  0
    3.1199   -2.2174    1.7063 C   0  0  0  0  0  0  0  0  0  0  0  0
    2.2757    1.2254    3.3640 H   0  0  0  0  0  0  0  0  0  0  0  0
    2.2905   -0.5118    3.8075 H   0  0  0  0  0  0  0  0  0  0  0  0
    1.4624    0.0314    2.3072 H   0  0  0  0  0  0  0  0  0  0  0  0
    5.8087   -0.1991    1.1391 H   0  0  0  0  0  0  0  0  0  0  0  0
    6.6480   -2.3180    0.0950 H   0  0  0  0  0  0  0  0  0  0  0  0
    5.2362   -4.3633    0.1132 H   0  0  0  0  0  0  0  0  0  0  0  0
    3.3890   -5.4567    0.6578 H   0  0  0  0  0  0  0  0  0  0  0  0
    3.6593   -5.4267    2.9972 H   0  0  0  0  0  0  0  0  0  0  0  0
    2.1981   -6.3023    2.5594 H   0  0  0  0  0  0  0  0  0  0  0  0
    2.2914   -3.4893    3.7744 H   0  0  0  0  0  0  0  0  0  0  0  0
   -0.0889   -5.4130    3.4690 H   0  0  0  0  0  0  0  0  0  0  0  0
    0.1027   -3.8922    2.5670 H   0  0  0  0  0  0  0  0  0  0  0  0
   -0.0810   -3.8484    4.3392 H   0  0  0  0  0  0  0  0  0  0  0  0
    1.7161   -6.0375    7.3879 H   0  0  0  0  0  0  0  0  0  0  0  0
    2.5921   -4.6627    8.1516 H   0  0  0  0  0  0  0  0  0  0  0  0
    3.4548   -5.8498    7.1061 H   0  0  0  0  0  0  0  0  0  0  0  0
    1.5530   -2.6307   -0.2902 H   0  0  0  0  0  0  0  0  0  0  0  0
   -0.5292   -2.7454   -1.6229 H   0  0  0  0  0  0  0  0  0  0  0  0
   -1.8241   -4.8860   -1.7717 H   0  0  0  0  0  0  0  0  0  0  0  0
   -1.5521   -9.0334   -0.2890 H   0  0  0  0  0  0  0  0  0  0  0  0
   -0.7727   -8.1687    1.0732 H   0  0  0  0  0  0  0  0  0  0  0  0
    0.1888   -8.6182   -0.3749 H   0  0  0  0  0  0  0  0  0  0  0  0
    1.0874   -6.7830    0.7678 H   0  0  0  0  0  0  0  0  0  0  0  0
    2.1197   -2.1732    2.1322 H   0  0  0  0  0  0  0  0  0  0  0  0
  1  2  1  0
  1 25  1  0
  1 26  1  0
  1 27  1  0
  2  3  1  0
  3  4  2  0
  3 24  1  0
  4  5  1  0
  4 28  1  0
  5  6  2  0
  5 29  1  0
  6  7  1  0
  6 30  1  0
  7  8  1  0
  7 24  2  0
  8  9  1  0
  8 16  1  0
  8 31  1  6
  9 10  1  0
  9 32  1  0
  9 33  1  0
 10 11  1  0
 10 12  1  0
 10 34  1  1
 11 35  1  0
 11 36  1  0
 11 37  1  0
 12 13  1  0
 13 14  1  0
 13 15  2  0
 14 38  1  0
 14 39  1  0
 14 40  1  0
 16 17  2  0
 16 23  1  0
 17 18  1  0
 17 41  1  0
 18 19  2  0
 18 42  1  0
 19 20  1  0
 19 43  1  0
 20 21  1  0
 20 23  2  0
 21 22  1  0
 22 44  1  0
 22 45  1  0
 22 46  1  0
 23 47  1  0
 24 48  1  0
M  END

