
     RDKit          3D

 49 51  0  0  0  0  0  0  0  0999 V2000
    0.9521    0.3236   -0.2336 C   0  0  0  0  0  0  0  0  0  0  0  0
    2.4760    0.4600   -0.1284 C   0  0  0  0  0  0  0  0  0  0  0  0
    3.1527    0.4579   -1.4632 C   0  0  0  0  0  0  0  0  0  0  0  0
    3.9022    1.4511   -1.8775 N   0  0  0  0  0  0  0  0  0  0  0  0
    4.3168    1.0428   -3.1420 O   0  0  0  0  0  0  0  0  0  0  0  0
    3.7683   -0.1638   -3.3668 C   0  0  0  0  0  0  0  0  0  0  0  0
    4.0398   -0.8383   -4.6369 C   0  0  0  0  0  0  0  0  0  0  0  0
    4.8576   -0.2406   -5.6074 C   0  0  0  0  0  0  0  0  0  0  0  0
    5.0891   -0.9174   -6.8024 C   0  0  0  0  0  0  0  0  0  0  0  0
    4.5311   -2.1746   -7.0637 C   0  0  0  0  0  0  0  0  0  0  0  0
    4.8076   -2.8761   -8.3704 C   0  0  0  0  0  0  0  0  0  0  0  0
    3.7041   -2.7706   -6.0736 C   0  0  0  0  0  0  0  0  0  0  0  0
    3.1570   -4.0323   -6.3597 N   0  0  0  0  0  0  0  0  0  0  0  0
    2.3298   -4.8222   -5.5644 C   0  0  0  0  0  0  0  0  0  0  0  0
    1.9420   -4.5057   -4.4531 O   0  0  0  0  0  0  0  0  0  0  0  0
    1.9792   -6.0092   -6.1699 N   0  0  0  0  0  0  0  0  0  0  0  0
    1.1633   -7.0027   -5.5077 C   0  0  0  0  0  0  0  0  0  0  0  0
    1.9304   -8.2630   -5.0514 C   0  0  1  0  0  0  0  0  0  0  0  0
    3.0251   -7.9133   -4.0375 C   0  0  0  0  0  0  0  0  0  0  0  0
    0.9425   -9.3229   -4.5101 C   0  0  0  0  0  0  0  0  0  0  0  0
    1.4629  -10.7214   -4.8538 C   0  0  0  0  0  0  0  0  0  0  0  0
    1.8579  -10.6804   -6.3301 C   0  0  0  0  0  0  0  0  0  0  0  0
    2.7306   -9.0755   -6.5572 S   0  0  0  0  0  0  0  0  0  0  0  0
    3.4642   -2.0973   -4.8666 C   0  0  0  0  0  0  0  0  0  0  0  0
    3.0399   -0.5721   -2.3644 N   0  0  0  0  0  0  0  0  0  0  0  0
    0.4963    0.2776    0.7675 H   0  0  0  0  0  0  0  0  0  0  0  0
    0.6810   -0.5928   -0.7794 H   0  0  0  0  0  0  0  0  0  0  0  0
    0.5123    1.1799   -0.7691 H   0  0  0  0  0  0  0  0  0  0  0  0
    2.8814   -0.3826    0.4579 H   0  0  0  0  0  0  0  0  0  0  0  0
    2.7577    1.3859    0.3950 H   0  0  0  0  0  0  0  0  0  0  0  0
    5.3029    0.7381   -5.4250 H   0  0  0  0  0  0  0  0  0  0  0  0
    5.7254   -0.4588   -7.5641 H   0  0  0  0  0  0  0  0  0  0  0  0
    5.4640   -2.2715   -9.0114 H   0  0  0  0  0  0  0  0  0  0  0  0
    3.8814   -3.0669   -8.9429 H   0  0  0  0  0  0  0  0  0  0  0  0
    5.3074   -3.8504   -8.2197 H   0  0  0  0  0  0  0  0  0  0  0  0
    3.3888   -4.4018   -7.2718 H   0  0  0  0  0  0  0  0  0  0  0  0
    2.3761   -6.2712   -7.0655 H   0  0  0  0  0  0  0  0  0  0  0  0
    0.3458   -7.3106   -6.1810 H   0  0  0  0  0  0  0  0  0  0  0  0
    0.7162   -6.5104   -4.6306 H   0  0  0  0  0  0  0  0  0  0  0  0
    2.5965   -7.3663   -3.1815 H   0  0  0  0  0  0  0  0  0  0  0  0
    3.7951   -7.2712   -4.4902 H   0  0  0  0  0  0  0  0  0  0  0  0
    3.5264   -8.8199   -3.6677 H   0  0  0  0  0  0  0  0  0  0  0  0
   -0.0427   -9.1808   -4.9876 H   0  0  0  0  0  0  0  0  0  0  0  0
    0.7958   -9.1885   -3.4259 H   0  0  0  0  0  0  0  0  0  0  0  0
    0.7049  -11.4990   -4.6613 H   0  0  0  0  0  0  0  0  0  0  0  0
    2.3453  -10.9644   -4.2394 H   0  0  0  0  0  0  0  0  0  0  0  0
    0.9728  -10.7246   -6.9851 H   0  0  0  0  0  0  0  0  0  0  0  0
    2.5405  -11.4931   -6.6184 H   0  0  0  0  0  0  0  0  0  0  0  0
    2.8309   -2.5527   -4.1096 H   0  0  0  0  0  0  0  0  0  0  0  0
  1  2  1  0
  1 26  1  0
  1 27  1  0
  1 28  1  0
  2  3  1  0
  2 29  1  0
  2 30  1  0
  3  4  2  0
  3 25  1  0
  4  5  1  0
  5  6  1  0
  6  7  1  0
  6 25  2  0
  7  8  2  0
  7 24  1  0
  8  9  1  0
  8 31  1  0
  9 10  2  0
  9 32  1  0
 10 11  1  0
 10 12  1  0
 11 33  1  0
 11 34  1  0
 11 35  1  0
 12 13  1  0
 12 24  2  0
 13 14  1  0
 13 36  1  0
 14 15  2  0
 14 16  1  0
 16 17  1  0
 16 37  1  0
 18 17  1  6
 17 38  1  0
 17 39  1  0
 18 19  1  0
 18 20  1  0
 18 23  1  0
 19 40  1  0
 19 41  1  0
 19 42  1  0
 20 21  1  0
 20 43  1  0
 20 44  1  0
 21 22  1  0
 21 45  1  0
 21 46  1  0
 22 23  1  0
 22 47  1  0
 22 48  1  0
 24 49  1  0
M  END

