
     RDKit          3D

 42 43  0  0  0  0  0  0  0  0999 V2000
    0.0458   -2.0396    2.4790 C   0  0  0  0  0  0  0  0  0  0  0  0
    1.3606   -1.2681    2.4850 C   0  0  0  0  0  0  0  0  0  0  0  0
    2.2474   -1.7344    1.4255 N   0  0  0  0  0  0  0  0  0  0  0  0
    3.5413   -1.0541    1.3044 C   0  0  0  0  0  0  0  0  0  0  0  0
    4.5831   -1.4820    2.3219 C   0  0  0  0  0  0  0  0  0  0  0  0
    4.8443   -0.7392    3.4870 C   0  0  0  0  0  0  0  0  0  0  0  0
    3.9165    0.7143    3.8561 Cl  0  0  0  0  0  0  0  0  0  0  0  0
    5.8593   -1.0689    4.3908 C   0  0  0  0  0  0  0  0  0  0  0  0
    6.6569   -2.1784    4.1276 C   0  0  0  0  0  0  0  0  0  0  0  0
    6.4362   -2.9428    2.9824 C   0  0  0  0  0  0  0  0  0  0  0  0
    5.4129   -2.6166    2.0752 C   0  0  0  0  0  0  0  0  0  0  0  0
    5.2335   -3.3791    0.8881 N   0  0  0  0  0  0  0  0  0  0  0  0
    4.0936   -4.3052    0.8990 C   0  0  0  0  0  0  0  0  0  0  0  0
    3.6092   -4.6805   -0.5008 C   0  0  2  0  0  0  0  0  0  0  0  0
    2.4092   -5.6239   -0.4514 C   0  0  0  0  0  0  0  0  0  0  0  0
    4.9444   -5.4814   -1.4872 S   0  0  0  0  0  0  0  0  0  0  0  0
    6.2654   -4.2292   -1.2089 C   0  0  2  0  0  0  0  0  0  0  0  0
    7.5568   -4.7379   -1.8461 C   0  0  0  0  0  0  0  0  0  0  0  0
    6.4400   -3.9358    0.2838 C   0  0  0  0  0  0  0  0  0  0  0  0
   -0.6181   -1.6904    3.2853 H   0  0  0  0  0  0  0  0  0  0  0  0
    0.2201   -3.1185    2.6156 H   0  0  0  0  0  0  0  0  0  0  0  0
   -0.4943   -1.9037    1.5257 H   0  0  0  0  0  0  0  0  0  0  0  0
    1.8689   -1.4115    3.4524 H   0  0  0  0  0  0  0  0  0  0  0  0
    1.1546   -0.1773    2.4139 H   0  0  0  0  0  0  0  0  0  0  0  0
    1.7629   -1.6710    0.5305 H   0  0  0  0  0  0  0  0  0  0  0  0
    3.4374    0.0470    1.3512 H   0  0  0  0  0  0  0  0  0  0  0  0
    3.9471   -1.3138    0.3153 H   0  0  0  0  0  0  0  0  0  0  0  0
    6.0136   -0.4529    5.2773 H   0  0  0  0  0  0  0  0  0  0  0  0
    7.4534   -2.4533    4.8238 H   0  0  0  0  0  0  0  0  0  0  0  0
    7.0612   -3.8166    2.7953 H   0  0  0  0  0  0  0  0  0  0  0  0
    3.2635   -3.8065    1.4192 H   0  0  0  0  0  0  0  0  0  0  0  0
    4.3536   -5.2347    1.4511 H   0  0  0  0  0  0  0  0  0  0  0  0
    3.3268   -3.7538   -1.0291 H   0  0  0  0  0  0  0  0  0  0  0  0
    2.6612   -6.5598    0.0729 H   0  0  0  0  0  0  0  0  0  0  0  0
    2.0651   -5.8839   -1.4644 H   0  0  0  0  0  0  0  0  0  0  0  0
    1.5723   -5.1457    0.0828 H   0  0  0  0  0  0  0  0  0  0  0  0
    5.9474   -3.2975   -1.7068 H   0  0  0  0  0  0  0  0  0  0  0  0
    7.8986   -5.6683   -1.3644 H   0  0  0  0  0  0  0  0  0  0  0  0
    8.3572   -3.9861   -1.7478 H   0  0  0  0  0  0  0  0  0  0  0  0
    7.4144   -4.9437   -2.9180 H   0  0  0  0  0  0  0  0  0  0  0  0
    7.2494   -3.1961    0.3965 H   0  0  0  0  0  0  0  0  0  0  0  0
    6.7710   -4.8728    0.7829 H   0  0  0  0  0  0  0  0  0  0  0  0
  1  2  1  0
  1 20  1  0
  1 21  1  0
  1 22  1  0
  2  3  1  0
  2 23  1  0
  2 24  1  0
  3  4  1  0
  3 25  1  0
  4  5  1  0
  4 26  1  0
  4 27  1  0
  5  6  2  0
  5 11  1  0
  6  7  1  0
  6  8  1  0
  8  9  2  0
  8 28  1  0
  9 10  1  0
  9 29  1  0
 10 11  2  0
 10 30  1  0
 11 12  1  0
 12 13  1  0
 12 19  1  0
 13 14  1  0
 13 31  1  0
 13 32  1  0
 14 15  1  0
 14 16  1  0
 14 33  1  6
 15 34  1  0
 15 35  1  0
 15 36  1  0
 16 17  1  0
 17 18  1  0
 17 19  1  0
 17 37  1  6
 18 38  1  0
 18 39  1  0
 18 40  1  0
 19 41  1  0
 19 42  1  0
M  END

