
     RDKit          3D

 41 43  0  0  0  0  0  0  0  0999 V2000
    1.3156    0.6130   -0.0107 O   0  0  0  0  0  0  0  0  0  0  0  0
    2.1805   -0.2487    0.0409 C   0  0  0  0  0  0  0  0  0  0  0  0
    2.8994   -0.7680   -1.2016 C   0  0  0  0  0  0  0  0  0  0  0  0
    1.9402   -0.9490   -2.3796 C   0  0  2  0  0  0  0  0  0  0  0  0
    0.9188   -2.1273   -2.2292 C   0  0  0  0  0  0  0  0  0  0  0  0
    1.0489   -2.8862   -3.5696 C   0  0  2  0  0  0  0  0  0  0  0  0
    2.3899   -3.6562   -3.5705 C   0  0  0  0  0  0  0  0  0  0  0  0
    3.4502   -2.5176   -3.7117 C   0  0  0  0  0  0  0  0  0  0  0  0
    2.5860   -1.2360   -3.7609 C   0  0  1  0  0  0  0  0  0  0  0  0
    1.3574   -1.7341   -4.5508 C   0  0  0  0  0  0  0  0  0  0  0  0
    2.5815   -0.7921    1.2304 N   0  0  0  0  0  0  0  0  0  0  0  0
    1.9989   -0.3738    2.4915 C   0  0  0  0  0  0  0  0  0  0  0  0
    0.5953   -0.9534    2.7419 C   0  0  0  0  0  0  0  0  0  0  0  0
    0.5818   -2.4533    2.8125 C   0  0  0  0  0  0  0  0  0  0  0  0
    1.4497   -3.1833    3.4552 N   0  0  0  0  0  0  0  0  0  0  0  0
    1.1724   -4.5267    3.3551 C   0  0  0  0  0  0  0  0  0  0  0  0
    2.0673   -5.5123    4.0396 C   0  0  0  0  0  0  0  0  0  0  0  0
    1.9126   -6.7043    3.9895 O   0  0  0  0  0  0  0  0  0  0  0  0
    3.0681   -4.9313    4.7203 O   0  0  0  0  0  0  0  0  0  0  0  0
    0.0651   -4.8490    2.6134 C   0  0  0  0  0  0  0  0  0  0  0  0
   -0.6592   -3.4066    2.0125 S   0  0  0  0  0  0  0  0  0  0  0  0
    3.4422   -1.6994   -0.9705 H   0  0  0  0  0  0  0  0  0  0  0  0
    3.6631   -0.0122   -1.4613 H   0  0  0  0  0  0  0  0  0  0  0  0
    1.3803   -0.0043   -2.4586 H   0  0  0  0  0  0  0  0  0  0  0  0
   -0.1031   -1.7463   -2.0789 H   0  0  0  0  0  0  0  0  0  0  0  0
    1.1471   -2.7781   -1.3679 H   0  0  0  0  0  0  0  0  0  0  0  0
    0.1780   -3.5127   -3.8136 H   0  0  0  0  0  0  0  0  0  0  0  0
    2.4403   -4.3551   -4.4205 H   0  0  0  0  0  0  0  0  0  0  0  0
    2.5219   -4.2539   -2.6545 H   0  0  0  0  0  0  0  0  0  0  0  0
    4.0235   -2.6225   -4.6463 H   0  0  0  0  0  0  0  0  0  0  0  0
    4.1865   -2.5105   -2.8938 H   0  0  0  0  0  0  0  0  0  0  0  0
    3.1107   -0.3636   -4.1801 H   0  0  0  0  0  0  0  0  0  0  0  0
    1.6021   -2.0805   -5.5681 H   0  0  0  0  0  0  0  0  0  0  0  0
    0.5505   -0.9866   -4.6166 H   0  0  0  0  0  0  0  0  0  0  0  0
    3.2534   -1.5488    1.2294 H   0  0  0  0  0  0  0  0  0  0  0  0
    1.9205    0.7239    2.4953 H   0  0  0  0  0  0  0  0  0  0  0  0
    2.6772   -0.6751    3.3024 H   0  0  0  0  0  0  0  0  0  0  0  0
   -0.0824   -0.6004    1.9515 H   0  0  0  0  0  0  0  0  0  0  0  0
    0.2134   -0.5499    3.6970 H   0  0  0  0  0  0  0  0  0  0  0  0
    2.9699   -3.9654    4.6128 H   0  0  0  0  0  0  0  0  0  0  0  0
   -0.3260   -5.8440    2.4107 H   0  0  0  0  0  0  0  0  0  0  0  0
  1  2  2  0
  2  3  1  0
  2 11  1  0
  3  4  1  0
  3 22  1  0
  3 23  1  0
  4  5  1  0
  4  9  1  0
  4 24  1  6
  5  6  1  0
  5 25  1  0
  5 26  1  0
  6  7  1  0
  6 10  1  0
  6 27  1  6
  7  8  1  0
  7 28  1  0
  7 29  1  0
  8  9  1  0
  8 30  1  0
  8 31  1  0
  9 10  1  0
  9 32  1  6
 10 33  1  0
 10 34  1  0
 11 12  1  0
 11 35  1  0
 12 13  1  0
 12 36  1  0
 12 37  1  0
 13 14  1  0
 13 38  1  0
 13 39  1  0
 14 15  2  0
 14 21  1  0
 15 16  1  0
 16 17  1  0
 16 20  2  0
 17 18  2  0
 17 19  1  0
 19 40  1  0
 20 21  1  0
 20 41  1  0
M  END

