
     RDKit          3D

 46 47  0  0  0  0  0  0  0  0999 V2000
    2.3693    0.1549    1.2764 C   0  0  0  0  0  0  0  0  0  0  0  0
    2.5260   -0.2326   -0.1909 C   0  0  0  0  0  0  0  0  0  0  0  0
    2.7722    0.9199   -1.0813 N   0  0  0  0  0  0  0  0  0  0  0  0
    1.8363    1.5468   -1.8427 C   0  0  0  0  0  0  0  0  0  0  0  0
    2.1195    2.4239   -2.6591 O   0  0  0  0  0  0  0  0  0  0  0  0
    0.3297    1.1911   -1.6642 C   0  0  0  0  0  0  0  0  0  0  0  0
   -0.1315    0.5304   -0.7439 O   0  0  0  0  0  0  0  0  0  0  0  0
   -0.3979    1.7393   -2.6603 N   0  0  0  0  0  0  0  0  0  0  0  0
   -1.8446    1.6610   -2.7115 C   0  0  0  0  0  0  0  0  0  0  0  0
   -2.5494    2.8539   -2.0312 C   0  0  0  0  0  0  0  0  0  0  0  0
   -4.0564    2.7466   -2.0900 C   0  0  0  0  0  0  0  0  0  0  0  0
   -4.7659    2.0104   -1.1293 C   0  0  0  0  0  0  0  0  0  0  0  0
   -6.1540    1.8716   -1.1979 C   0  0  0  0  0  0  0  0  0  0  0  0
   -6.8704    2.4719   -2.2428 C   0  0  0  0  0  0  0  0  0  0  0  0
   -8.2202    2.3747   -2.3610 O   0  0  0  0  0  0  0  0  0  0  0  0
   -6.1780    3.2115   -3.2122 C   0  0  0  0  0  0  0  0  0  0  0  0
   -4.7924    3.3403   -3.1296 C   0  0  0  0  0  0  0  0  0  0  0  0
    4.1702    1.3650   -1.1672 C   0  0  1  0  0  0  0  0  0  0  0  0
    4.8495    1.0640   -2.5310 C   0  0  0  0  0  0  0  0  0  0  0  0
    6.2308    1.7389   -2.5513 C   0  0  0  0  0  0  0  0  0  0  0  0
    6.1994    3.0298   -1.2294 S   0  0  2  0  0  0  0  0  0  0  0  0
    6.5068    4.3574   -1.7693 O   0  0  0  0  0  0  0  0  0  0  0  0
    6.9307    2.4915   -0.0701 O   0  0  0  0  0  0  0  0  0  0  0  0
    4.4169    2.8511   -0.8759 C   0  0  0  0  0  0  0  0  0  0  0  0
    2.2445   -0.7503    1.8917 H   0  0  0  0  0  0  0  0  0  0  0  0
    1.4753    0.7812    1.4065 H   0  0  0  0  0  0  0  0  0  0  0  0
    3.2494    0.6990    1.6563 H   0  0  0  0  0  0  0  0  0  0  0  0
    1.6287   -0.7560   -0.5318 H   0  0  0  0  0  0  0  0  0  0  0  0
    3.3816   -0.9163   -0.3197 H   0  0  0  0  0  0  0  0  0  0  0  0
    0.1210    2.3480   -3.2895 H   0  0  0  0  0  0  0  0  0  0  0  0
   -2.1427    0.7275   -2.2126 H   0  0  0  0  0  0  0  0  0  0  0  0
   -2.1579    1.5916   -3.7656 H   0  0  0  0  0  0  0  0  0  0  0  0
   -2.2179    3.7885   -2.5144 H   0  0  0  0  0  0  0  0  0  0  0  0
   -2.2117    2.8979   -0.9832 H   0  0  0  0  0  0  0  0  0  0  0  0
   -4.2254    1.5380   -0.3036 H   0  0  0  0  0  0  0  0  0  0  0  0
   -6.6859    1.2971   -0.4325 H   0  0  0  0  0  0  0  0  0  0  0  0
   -8.5708    1.8464   -1.6320 H   0  0  0  0  0  0  0  0  0  0  0  0
   -6.7449    3.6811   -4.0187 H   0  0  0  0  0  0  0  0  0  0  0  0
   -4.2697    3.9269   -3.8914 H   0  0  0  0  0  0  0  0  0  0  0  0
    4.7078    0.8052   -0.3880 H   0  0  0  0  0  0  0  0  0  0  0  0
    4.2160    1.4794   -3.3250 H   0  0  0  0  0  0  0  0  0  0  0  0
    4.9305   -0.0222   -2.6870 H   0  0  0  0  0  0  0  0  0  0  0  0
    6.4633    2.2484   -3.4952 H   0  0  0  0  0  0  0  0  0  0  0  0
    7.0600    1.0763   -2.2688 H   0  0  0  0  0  0  0  0  0  0  0  0
    3.8644    3.5093   -1.5571 H   0  0  0  0  0  0  0  0  0  0  0  0
    4.2674    3.1383    0.1731 H   0  0  0  0  0  0  0  0  0  0  0  0
  1  2  1  0
  1 25  1  0
  1 26  1  0
  1 27  1  0
  2  3  1  0
  2 28  1  0
  2 29  1  0
  3  4  1  0
  3 18  1  0
  4  5  2  0
  4  6  1  0
  6  7  2  0
  6  8  1  0
  8  9  1  0
  8 30  1  0
  9 10  1  0
  9 31  1  0
  9 32  1  0
 10 11  1  0
 10 33  1  0
 10 34  1  0
 11 12  2  0
 11 17  1  0
 12 13  1  0
 12 35  1  0
 13 14  2  0
 13 36  1  0
 14 15  1  0
 14 16  1  0
 15 37  1  0
 16 17  2  0
 16 38  1  0
 17 39  1  0
 18 19  1  0
 18 24  1  0
 18 40  1  1
 19 20  1  0
 19 41  1  0
 19 42  1  0
 21 20  1  6
 20 43  1  0
 20 44  1  0
 21 22  2  0
 21 23  2  0
 21 24  1  0
 24 45  1  0
 24 46  1  0
M  END

