
     RDKit          3D

 49 51  0  0  0  0  0  0  0  0999 V2000
   -0.6827    0.8542   -2.5449 C   0  0  0  0  0  0  0  0  0  0  0  0
    0.5640    1.1224   -1.6824 C   0  0  1  0  0  0  0  0  0  0  0  0
    1.7786    1.1487   -2.4921 N   0  0  0  0  0  0  0  0  0  0  0  0
    2.5184    0.0336   -2.7136 C   0  0  0  0  0  0  0  0  0  0  0  0
    2.3013   -1.0587   -2.2128 O   0  0  0  0  0  0  0  0  0  0  0  0
    3.7140    0.2442   -3.6549 C   0  0  0  0  0  0  0  0  0  0  0  0
    3.2939    0.2021   -5.4452 S   0  0  0  0  0  0  0  0  0  0  0  0
    2.7912    1.8698   -5.6960 C   0  0  0  0  0  0  0  0  0  0  0  0
    2.5951    2.7866   -4.7771 N   0  0  0  0  0  0  0  0  0  0  0  0
    2.2603    3.9541   -5.4162 N   0  0  0  0  0  0  0  0  0  0  0  0
    2.2525    3.7294   -6.7065 C   0  0  0  0  0  0  0  0  0  0  0  0
    1.9470    4.7338   -7.7767 C   0  0  0  0  0  0  0  0  0  0  0  0
    1.7624    6.1660   -7.2485 C   0  0  0  0  0  0  0  0  0  0  0  0
    3.0875    6.8413   -6.8734 C   0  0  0  0  0  0  0  0  0  0  0  0
    3.4443    6.7209   -5.5647 N   0  0  0  0  0  0  0  0  0  0  0  0
    3.7497    7.4395   -7.7041 O   0  0  0  0  0  0  0  0  0  0  0  0
    2.5707    2.4031   -6.9474 N   0  0  0  0  0  0  0  0  0  0  0  0
    2.7670    1.7621   -8.2224 C   0  0  1  0  0  0  0  0  0  0  0  0
    2.0897    0.4449   -8.5079 C   0  0  0  0  0  0  0  0  0  0  0  0
    1.6269    1.6902   -9.2080 C   0  0  0  0  0  0  0  0  0  0  0  0
    0.4280    2.3968   -0.8613 C   0  0  0  0  0  0  0  0  0  0  0  0
    0.2205    2.3296    0.5232 C   0  0  0  0  0  0  0  0  0  0  0  0
    0.0610    3.4852    1.2937 C   0  0  0  0  0  0  0  0  0  0  0  0
    0.1139    4.7324    0.6689 C   0  0  0  0  0  0  0  0  0  0  0  0
   -0.0972    6.3205    1.7072 Br  0  0  0  0  0  0  0  0  0  0  0  0
    0.3225    4.8307   -0.7096 C   0  0  0  0  0  0  0  0  0  0  0  0
    0.4742    3.6651   -1.4638 C   0  0  0  0  0  0  0  0  0  0  0  0
   -0.5722   -0.1030   -3.0773 H   0  0  0  0  0  0  0  0  0  0  0  0
   -0.8308    1.6548   -3.2876 H   0  0  0  0  0  0  0  0  0  0  0  0
   -1.5864    0.8011   -1.9177 H   0  0  0  0  0  0  0  0  0  0  0  0
    0.6856    0.2727   -0.9950 H   0  0  0  0  0  0  0  0  0  0  0  0
    2.0024    1.9773   -3.0524 H   0  0  0  0  0  0  0  0  0  0  0  0
    4.3897   -0.6102   -3.5218 H   0  0  0  0  0  0  0  0  0  0  0  0
    4.2484    1.1834   -3.4534 H   0  0  0  0  0  0  0  0  0  0  0  0
    1.0291    4.4217   -8.3039 H   0  0  0  0  0  0  0  0  0  0  0  0
    2.7464    4.7215   -8.5376 H   0  0  0  0  0  0  0  0  0  0  0  0
    1.0623    6.1629   -6.4000 H   0  0  0  0  0  0  0  0  0  0  0  0
    1.3326    6.7762   -8.0543 H   0  0  0  0  0  0  0  0  0  0  0  0
    3.0122    5.9885   -5.0045 H   0  0  0  0  0  0  0  0  0  0  0  0
    4.3679    7.0524   -5.3073 H   0  0  0  0  0  0  0  0  0  0  0  0
    3.7749    1.9049   -8.6281 H   0  0  0  0  0  0  0  0  0  0  0  0
    1.4419    0.0280   -7.7329 H   0  0  0  0  0  0  0  0  0  0  0  0
    2.6668   -0.2990   -9.0622 H   0  0  0  0  0  0  0  0  0  0  0  0
    0.6642    2.1065   -8.9014 H   0  0  0  0  0  0  0  0  0  0  0  0
    1.8685    1.8333  -10.2643 H   0  0  0  0  0  0  0  0  0  0  0  0
    0.1854    1.3540    1.0162 H   0  0  0  0  0  0  0  0  0  0  0  0
   -0.0979    3.4153    2.3711 H   0  0  0  0  0  0  0  0  0  0  0  0
    0.3653    5.8096   -1.1901 H   0  0  0  0  0  0  0  0  0  0  0  0
    0.6385    3.7613   -2.5412 H   0  0  0  0  0  0  0  0  0  0  0  0
  1  2  1  0
  1 28  1  0
  1 29  1  0
  1 30  1  0
  2  3  1  0
  2 21  1  0
  2 31  1  1
  3  4  1  0
  3 32  1  0
  4  5  2  0
  4  6  1  0
  6  7  1  0
  6 33  1  0
  6 34  1  0
  7  8  1  0
  8  9  2  0
  8 17  1  0
  9 10  1  0
 10 11  2  0
 11 12  1  0
 11 17  1  0
 12 13  1  0
 12 35  1  0
 12 36  1  0
 13 14  1  0
 13 37  1  0
 13 38  1  0
 14 15  1  0
 14 16  2  0
 15 39  1  0
 15 40  1  0
 17 18  1  0
 18 19  1  0
 18 20  1  0
 18 41  1  6
 19 20  1  0
 19 42  1  0
 19 43  1  0
 20 44  1  0
 20 45  1  0
 21 22  2  0
 21 27  1  0
 22 23  1  0
 22 46  1  0
 23 24  2  0
 23 47  1  0
 24 25  1  0
 24 26  1  0
 26 27  2  0
 26 48  1  0
 27 49  1  0
M  END

