
     RDKit          3D

 21 21  0  0  0  0  0  0  0  0999 V2000
    2.5461   -2.4720    0.6957 N   0  0  0  0  0  0  0  0  0  0  0  0
    2.6604   -2.1917   -0.6122 C   0  0  0  0  0  0  0  0  0  0  0  0
    2.3279   -3.2624   -1.8319 S   0  0  0  0  0  0  0  0  0  0  0  0
    3.1598   -0.7638   -0.8804 C   0  0  1  0  0  0  0  0  0  0  0  0
    2.8297   -0.5192   -1.9054 H   0  0  0  0  0  0  0  0  0  0  0  0
    2.6196    0.1399    0.1424 N   0  0  0  0  0  0  0  0  0  0  0  0
    4.7023   -0.6641   -0.8377 C   0  0  0  0  0  0  0  0  0  0  0  0
    5.4602   -1.5397   -1.8113 C   0  0  1  0  0  0  0  0  0  0  0  0
    6.9484   -1.7282   -1.6392 C   0  0  0  0  0  0  0  0  0  0  0  0
    6.0060   -2.8792   -1.3929 C   0  0  0  0  0  0  0  0  0  0  0  0
    2.1958   -3.3780    0.9835 H   0  0  0  0  0  0  0  0  0  0  0  0
    2.6060   -1.6896    1.3465 H   0  0  0  0  0  0  0  0  0  0  0  0
    1.6332    0.3344   -0.0321 H   0  0  0  0  0  0  0  0  0  0  0  0
    3.1043    1.0369    0.1200 H   0  0  0  0  0  0  0  0  0  0  0  0
    5.0361   -0.8707    0.1941 H   0  0  0  0  0  0  0  0  0  0  0  0
    4.9512    0.3960   -1.0369 H   0  0  0  0  0  0  0  0  0  0  0  0
    5.0995   -1.4801   -2.8440 H   0  0  0  0  0  0  0  0  0  0  0  0
    7.4263   -1.2598   -0.7724 H   0  0  0  0  0  0  0  0  0  0  0  0
    7.5767   -1.7473   -2.5343 H   0  0  0  0  0  0  0  0  0  0  0  0
    5.8388   -3.1952   -0.3588 H   0  0  0  0  0  0  0  0  0  0  0  0
    5.9696   -3.6969   -2.1170 H   0  0  0  0  0  0  0  0  0  0  0  0
  1  2  1  0
  1 11  1  0
  1 12  1  0
  2  3  2  0
  2  4  1  0
  4  5  1  6
  4  6  1  0
  4  7  1  0
  6 13  1  0
  6 14  1  0
  7  8  1  0
  7 15  1  0
  7 16  1  0
  8  9  1  0
  8 10  1  0
  8 17  1  6
  9 10  1  0
  9 18  1  0
  9 19  1  0
 10 20  1  0
 10 21  1  0
M  END

