
     RDKit          3D

 35 35  0  0  0  0  0  0  0  0999 V2000
   10.6710    0.7189   -0.4505 C   0  0  0  0  0  0  0  0  0  0  0  0
    9.6181   -0.0622    0.0505 O   0  0  0  0  0  0  0  0  0  0  0  0
    8.3313    0.4379   -0.2481 C   0  0  0  0  0  0  0  0  0  0  0  0
    7.3042   -0.4763    0.3941 C   0  0  0  0  0  0  0  0  0  0  0  0
    7.5480   -0.5733    1.8180 N   0  0  0  0  0  0  0  0  0  0  0  0
    6.5852   -0.7515    2.7625 C   0  0  0  0  0  0  0  0  0  0  0  0
    4.9366   -0.8025    2.4260 S   0  0  0  0  0  0  0  0  0  0  0  0
    7.0358   -0.8809    4.0411 N   0  0  0  0  0  0  0  0  0  0  0  0
    8.4171   -0.7562    4.4921 C   0  0  0  0  0  0  0  0  0  0  0  0
    8.4852   -0.5959    5.9910 C   0  0  0  0  0  0  0  0  0  0  0  0
    8.7038   -1.6653    6.8705 C   0  0  0  0  0  0  0  0  0  0  0  0
    8.9440   -3.2861    6.2440 Cl  0  0  0  0  0  0  0  0  0  0  0  0
    8.7407   -1.4950    8.2601 C   0  0  0  0  0  0  0  0  0  0  0  0
    8.5416   -0.2212    8.7844 C   0  0  0  0  0  0  0  0  0  0  0  0
    8.3106    0.8744    7.9472 C   0  0  0  0  0  0  0  0  0  0  0  0
    8.2776    0.6877    6.5586 C   0  0  0  0  0  0  0  0  0  0  0  0
    8.0608    1.6850    5.6686 O   0  0  0  0  0  0  0  0  0  0  0  0
    7.8150    2.9977    6.1275 C   0  0  0  0  0  0  0  0  0  0  0  0
   11.6167    0.2407   -0.1560 H   0  0  0  0  0  0  0  0  0  0  0  0
   10.6535    1.7503   -0.0434 H   0  0  0  0  0  0  0  0  0  0  0  0
   10.6421    0.7897   -1.5565 H   0  0  0  0  0  0  0  0  0  0  0  0
    8.1669    0.4733   -1.3446 H   0  0  0  0  0  0  0  0  0  0  0  0
    8.2205    1.4713    0.1413 H   0  0  0  0  0  0  0  0  0  0  0  0
    7.3498   -1.4736   -0.0827 H   0  0  0  0  0  0  0  0  0  0  0  0
    6.2857   -0.0906    0.2447 H   0  0  0  0  0  0  0  0  0  0  0  0
    8.5254   -0.6839    2.0674 H   0  0  0  0  0  0  0  0  0  0  0  0
    6.3057   -1.0216    4.7287 H   0  0  0  0  0  0  0  0  0  0  0  0
    8.8693    0.1351    4.0265 H   0  0  0  0  0  0  0  0  0  0  0  0
    9.0111   -1.6373    4.1945 H   0  0  0  0  0  0  0  0  0  0  0  0
    8.9181   -2.3552    8.9059 H   0  0  0  0  0  0  0  0  0  0  0  0
    8.5648   -0.0738    9.8670 H   0  0  0  0  0  0  0  0  0  0  0  0
    8.1555    1.8614    8.3812 H   0  0  0  0  0  0  0  0  0  0  0  0
    7.6515    3.6127    5.2330 H   0  0  0  0  0  0  0  0  0  0  0  0
    8.6746    3.4020    6.6910 H   0  0  0  0  0  0  0  0  0  0  0  0
    6.9139    3.0443    6.7637 H   0  0  0  0  0  0  0  0  0  0  0  0
  1  2  1  0
  1 19  1  0
  1 20  1  0
  1 21  1  0
  2  3  1  0
  3  4  1  0
  3 22  1  0
  3 23  1  0
  4  5  1  0
  4 24  1  0
  4 25  1  0
  5  6  1  0
  5 26  1  0
  6  7  2  0
  6  8  1  0
  8  9  1  0
  8 27  1  0
  9 10  1  0
  9 28  1  0
  9 29  1  0
 10 11  2  0
 10 16  1  0
 11 12  1  0
 11 13  1  0
 13 14  2  0
 13 30  1  0
 14 15  1  0
 14 31  1  0
 15 16  2  0
 15 32  1  0
 16 17  1  0
 17 18  1  0
 18 33  1  0
 18 34  1  0
 18 35  1  0
M  END

