
     RDKit          3D

 40 43  0  0  0  0  0  0  0  0999 V2000
    9.6478    6.6818    1.0325 N   0  0  0  0  0  0  0  0  0  0  0  0
    9.9275    5.7794    0.3573 C   0  0  0  0  0  0  0  0  0  0  0  0
   10.2678    4.6373   -0.4453 C   0  0  0  0  0  0  0  0  0  0  0  0
    9.3338    3.5940   -0.5694 C   0  0  0  0  0  0  0  0  0  0  0  0
    9.5877    2.4409   -1.3156 C   0  0  0  0  0  0  0  0  0  0  0  0
   10.8546    2.3281   -1.9715 C   0  0  0  0  0  0  0  0  0  0  0  0
   11.7757    3.3754   -1.8273 C   0  0  0  0  0  0  0  0  0  0  0  0
   11.5176    4.5335   -1.0896 C   0  0  0  0  0  0  0  0  0  0  0  0
   12.5673    5.6279   -1.0031 C   0  0  0  0  0  0  0  0  0  0  0  0
   12.9141    6.2039   -2.2937 N   0  0  0  0  0  0  0  0  0  0  0  0
   14.0316    5.8165   -3.0486 C   0  0  0  0  0  0  0  0  0  0  0  0
   14.8197    4.9525   -2.7362 O   0  0  0  0  0  0  0  0  0  0  0  0
   14.0090    6.6773   -4.2711 C   0  0  0  0  0  0  0  0  0  0  0  0
   14.8809    6.7231   -5.3526 C   0  0  0  0  0  0  0  0  0  0  0  0
   14.5991    7.6461   -6.3712 C   0  0  0  0  0  0  0  0  0  0  0  0
   13.4792    8.4877   -6.2958 C   0  0  0  0  0  0  0  0  0  0  0  0
   12.6049    8.4337   -5.1995 C   0  0  0  0  0  0  0  0  0  0  0  0
   12.8923    7.5163   -4.1961 C   0  0  0  0  0  0  0  0  0  0  0  0
   12.1693    7.2226   -2.9192 C   0  0  0  0  0  0  0  0  0  0  0  0
   11.1665    7.7233   -2.4729 O   0  0  0  0  0  0  0  0  0  0  0  0
   11.2386    1.3273   -2.8306 O   0  0  0  0  0  0  0  0  0  0  0  0
   11.6549    0.0341   -2.3101 C   0  0  0  0  0  0  0  0  0  0  0  0
   10.3877   -0.5292   -1.7625 C   0  0  0  0  0  0  0  0  0  0  0  0
    9.9659   -0.1488   -0.5482 C   0  0  0  0  0  0  0  0  0  0  0  0
    8.5796    0.4206   -0.4748 C   0  0  0  0  0  0  0  0  0  0  0  0
    8.5561    1.5333   -1.4095 O   0  0  0  0  0  0  0  0  0  0  0  0
    8.3591    3.6767   -0.0861 H   0  0  0  0  0  0  0  0  0  0  0  0
   12.7346    3.2616   -2.3379 H   0  0  0  0  0  0  0  0  0  0  0  0
   13.4993    5.2168   -0.5875 H   0  0  0  0  0  0  0  0  0  0  0  0
   12.2199    6.4403   -0.3508 H   0  0  0  0  0  0  0  0  0  0  0  0
   15.7497    6.0630   -5.4003 H   0  0  0  0  0  0  0  0  0  0  0  0
   15.2611    7.7122   -7.2381 H   0  0  0  0  0  0  0  0  0  0  0  0
   13.2865    9.1959   -7.1054 H   0  0  0  0  0  0  0  0  0  0  0  0
   11.7302    9.0840   -5.1297 H   0  0  0  0  0  0  0  0  0  0  0  0
   12.4401    0.1622   -1.5454 H   0  0  0  0  0  0  0  0  0  0  0  0
   12.0682   -0.4924   -3.1805 H   0  0  0  0  0  0  0  0  0  0  0  0
    9.6383   -0.7715   -2.5265 H   0  0  0  0  0  0  0  0  0  0  0  0
   10.6911    0.1626    0.2123 H   0  0  0  0  0  0  0  0  0  0  0  0
    8.3102    0.7747    0.5351 H   0  0  0  0  0  0  0  0  0  0  0  0
    7.7981   -0.2654   -0.8330 H   0  0  0  0  0  0  0  0  0  0  0  0
  1  2  3  0
  2  3  1  0
  3  4  2  0
  3  8  1  0
  4  5  1  0
  4 27  1  0
  5  6  2  0
  5 26  1  0
  6  7  1  0
  6 21  1  0
  7  8  2  0
  7 28  1  0
  8  9  1  0
  9 10  1  0
  9 29  1  0
  9 30  1  0
 10 11  1  0
 10 19  1  0
 11 12  2  0
 11 13  1  0
 13 14  1  0
 13 18  2  0
 14 15  2  0
 14 31  1  0
 15 16  1  0
 15 32  1  0
 16 17  2  0
 16 33  1  0
 17 18  1  0
 17 34  1  0
 18 19  1  0
 19 20  2  0
 21 22  1  0
 22 23  1  0
 22 35  1  0
 22 36  1  0
 23 24  2  0
 23 37  1  0
 24 25  1  0
 24 38  1  0
 25 26  1  0
 25 39  1  0
 25 40  1  0
M  END

