
     RDKit          3D

 67 69  0  0  0  0  0  0  0  0999 V2000
    4.6561   -3.3176   -8.3853 C   0  0  0  0  0  0  0  0  0  0  0  0
    4.6220   -1.9097   -8.3087 O   0  0  0  0  0  0  0  0  0  0  0  0
    3.4938   -1.2498   -8.6630 C   0  0  0  0  0  0  0  0  0  0  0  0
    2.3157   -1.8703   -9.1070 C   0  0  0  0  0  0  0  0  0  0  0  0
    1.2098   -1.0816   -9.4453 C   0  0  0  0  0  0  0  0  0  0  0  0
    1.2600    0.3074   -9.3542 C   0  0  0  0  0  0  0  0  0  0  0  0
    2.4394    0.9265   -8.8978 C   0  0  0  0  0  0  0  0  0  0  0  0
    2.4995    2.3554   -8.7736 N   0  0  0  0  0  0  0  0  0  0  0  0
    1.5475    3.0498   -7.8838 C   0  0  0  0  0  0  0  0  0  0  0  0
    1.9490    2.9610   -6.4072 C   0  0  0  0  0  0  0  0  0  0  0  0
    3.1673    3.8218   -6.0384 C   0  0  0  0  0  0  0  0  0  0  0  0
    2.7861    5.2887   -5.8392 C   0  0  0  0  0  0  0  0  0  0  0  0
    2.0350    5.6201   -4.9352 O   0  0  0  0  0  0  0  0  0  0  0  0
    3.3455    6.1653   -6.7360 N   0  0  0  0  0  0  0  0  0  0  0  0
    3.2107    7.5596   -6.7692 C   0  0  0  0  0  0  0  0  0  0  0  0
    2.3832    8.2983   -5.9209 C   0  0  0  0  0  0  0  0  0  0  0  0
    2.3369    9.6938   -6.0500 C   0  0  0  0  0  0  0  0  0  0  0  0
    1.2305   10.6224   -4.9895 S   0  0  1  0  0  0  0  0  0  0  0  0
    1.3950   12.0413   -5.3407 O   0  0  0  0  0  0  0  0  0  0  0  0
   -0.0930    9.9923   -5.0252 O   0  0  0  0  0  0  0  0  0  0  0  0
    1.8442   10.3482   -3.4419 N   0  0  0  0  0  0  0  0  0  0  0  0
    2.9136   11.2298   -2.9626 C   0  0  0  0  0  0  0  0  0  0  0  0
    2.3386   12.3434   -2.0859 C   0  0  0  0  0  0  0  0  0  0  0  0
    1.5514   11.8096   -1.0373 O   0  0  0  0  0  0  0  0  0  0  0  0
    0.4635   11.0443   -1.5232 C   0  0  0  0  0  0  0  0  0  0  0  0
    0.9467    9.8760   -2.3816 C   0  0  0  0  0  0  0  0  0  0  0  0
    3.0794   10.3709   -7.0113 C   0  0  0  0  0  0  0  0  0  0  0  0
    3.9105    9.6363   -7.8666 C   0  0  0  0  0  0  0  0  0  0  0  0
    3.9849    8.2473   -7.7503 C   0  0  0  0  0  0  0  0  0  0  0  0
    4.7630    7.4485   -8.5176 O   0  0  0  0  0  0  0  0  0  0  0  0
    5.4906    7.9892   -9.5985 C   0  0  0  0  0  0  0  0  0  0  0  0
    3.4439    3.2317   -9.8536 S   0  0  1  0  0  0  0  0  0  0  0  0
    2.4502    3.4099  -11.3457 C   0  0  0  0  0  0  0  0  0  0  0  0
    3.6031    4.5789   -9.2858 O   0  0  0  0  0  0  0  0  0  0  0  0
    4.6108    2.4288  -10.2078 O   0  0  0  0  0  0  0  0  0  0  0  0
    3.5459    0.1508   -8.5520 C   0  0  0  0  0  0  0  0  0  0  0  0
    5.6581   -3.6237   -8.0567 H   0  0  0  0  0  0  0  0  0  0  0  0
    4.4932   -3.6769   -9.4174 H   0  0  0  0  0  0  0  0  0  0  0  0
    3.9046   -3.7842   -7.7229 H   0  0  0  0  0  0  0  0  0  0  0  0
    2.2483   -2.9546   -9.1932 H   0  0  0  0  0  0  0  0  0  0  0  0
    0.2953   -1.5681   -9.7939 H   0  0  0  0  0  0  0  0  0  0  0  0
    0.3932    0.9110   -9.6307 H   0  0  0  0  0  0  0  0  0  0  0  0
    0.5470    2.6104   -8.0260 H   0  0  0  0  0  0  0  0  0  0  0  0
    1.4861    4.1010   -8.1999 H   0  0  0  0  0  0  0  0  0  0  0  0
    2.1468    1.9054   -6.1590 H   0  0  0  0  0  0  0  0  0  0  0  0
    1.0955    3.2769   -5.7848 H   0  0  0  0  0  0  0  0  0  0  0  0
    3.9662    3.7025   -6.7847 H   0  0  0  0  0  0  0  0  0  0  0  0
    3.5632    3.4860   -5.0670 H   0  0  0  0  0  0  0  0  0  0  0  0
    3.8650    5.7668   -7.5175 H   0  0  0  0  0  0  0  0  0  0  0  0
    1.7893    7.7734   -5.1765 H   0  0  0  0  0  0  0  0  0  0  0  0
    3.4589   11.6528   -3.8178 H   0  0  0  0  0  0  0  0  0  0  0  0
    3.6206   10.6174   -2.3751 H   0  0  0  0  0  0  0  0  0  0  0  0
    1.7353   13.0212   -2.7219 H   0  0  0  0  0  0  0  0  0  0  0  0
    3.1462   12.9265   -1.6160 H   0  0  0  0  0  0  0  0  0  0  0  0
   -0.2197   11.6800   -2.1234 H   0  0  0  0  0  0  0  0  0  0  0  0
   -0.0887   10.6776   -0.6436 H   0  0  0  0  0  0  0  0  0  0  0  0
    0.1016    9.3437   -2.8362 H   0  0  0  0  0  0  0  0  0  0  0  0
    1.5140    9.1636   -1.7564 H   0  0  0  0  0  0  0  0  0  0  0  0
    3.0040   11.4557   -7.0917 H   0  0  0  0  0  0  0  0  0  0  0  0
    4.5000   10.1584   -8.6203 H   0  0  0  0  0  0  0  0  0  0  0  0
    5.9772    7.1408  -10.0967 H   0  0  0  0  0  0  0  0  0  0  0  0
    6.2623    8.7007   -9.2550 H   0  0  0  0  0  0  0  0  0  0  0  0
    4.8269    8.5000  -10.3182 H   0  0  0  0  0  0  0  0  0  0  0  0
    1.5344    3.9652  -11.1047 H   0  0  0  0  0  0  0  0  0  0  0  0
    2.2244    2.4083  -11.7344 H   0  0  0  0  0  0  0  0  0  0  0  0
    3.0627    3.9711  -12.0644 H   0  0  0  0  0  0  0  0  0  0  0  0
    4.4675    0.6201   -8.2111 H   0  0  0  0  0  0  0  0  0  0  0  0
  1  2  1  0
  1 37  1  0
  1 38  1  0
  1 39  1  0
  2  3  1  0
  3  4  2  0
  3 36  1  0
  4  5  1  0
  4 40  1  0
  5  6  2  0
  5 41  1  0
  6  7  1  0
  6 42  1  0
  7  8  1  0
  7 36  2  0
  8  9  1  0
 32  8  1  1
  9 10  1  0
  9 43  1  0
  9 44  1  0
 10 11  1  0
 10 45  1  0
 10 46  1  0
 11 12  1  0
 11 47  1  0
 11 48  1  0
 12 13  2  0
 12 14  1  0
 14 15  1  0
 14 49  1  0
 15 16  2  0
 15 29  1  0
 16 17  1  0
 16 50  1  0
 18 17  1  6
 17 27  2  0
 18 19  2  0
 18 20  2  0
 18 21  1  0
 21 22  1  0
 21 26  1  0
 22 23  1  0
 22 51  1  0
 22 52  1  0
 23 24  1  0
 23 53  1  0
 23 54  1  0
 24 25  1  0
 25 26  1  0
 25 55  1  0
 25 56  1  0
 26 57  1  0
 26 58  1  0
 27 28  1  0
 27 59  1  0
 28 29  2  0
 28 60  1  0
 29 30  1  0
 30 31  1  0
 31 61  1  0
 31 62  1  0
 31 63  1  0
 32 33  1  0
 32 34  2  0
 32 35  2  0
 33 64  1  0
 33 65  1  0
 33 66  1  0
 36 67  1  0
M  END

