
     RDKit          3D

 32 34  0  0  0  0  0  0  0  0999 V2000
    1.2555    0.1678   -0.3805 C   0  0  0  0  0  0  0  0  0  0  0  0
    2.6757    0.1828   -0.3022 O   0  0  0  0  0  0  0  0  0  0  0  0
    3.2656   -0.9040    0.2624 C   0  0  0  0  0  0  0  0  0  0  0  0
    3.4826   -0.9488    1.6464 C   0  0  0  0  0  0  0  0  0  0  0  0
    4.1233   -2.0325    2.2457 C   0  0  0  0  0  0  0  0  0  0  0  0
    4.5796   -3.0921    1.4509 C   0  0  0  0  0  0  0  0  0  0  0  0
    5.2384   -4.2149    2.0347 N   0  0  0  0  0  0  0  0  0  0  0  0
    6.4463   -4.2406    2.7331 C   0  0  0  0  0  0  0  0  0  0  0  0
    7.2358   -3.0217    3.0542 C   0  0  0  0  0  0  0  0  0  0  0  0
    6.7271   -2.2565    4.6341 Cl  0  0  0  0  0  0  0  0  0  0  0  0
    6.8129   -5.4489    3.0767 N   0  0  0  0  0  0  0  0  0  0  0  0
    5.8309   -6.2851    2.6037 C   0  0  0  0  0  0  0  0  0  0  0  0
    5.6985   -7.6850    2.6860 C   0  0  0  0  0  0  0  0  0  0  0  0
    6.9159   -8.6292    3.4930 Cl  0  0  0  0  0  0  0  0  0  0  0  0
    4.5822   -8.2906    2.1164 C   0  0  0  0  0  0  0  0  0  0  0  0
    3.5959   -7.5184    1.4672 C   0  0  0  0  0  0  0  0  0  0  0  0
    3.6932   -6.1325    1.3636 C   0  0  0  0  0  0  0  0  0  0  0  0
    4.8241   -5.5391    1.9383 C   0  0  0  0  0  0  0  0  0  0  0  0
    4.3823   -3.0617    0.0629 C   0  0  0  0  0  0  0  0  0  0  0  0
    3.7201   -1.9817   -0.5221 C   0  0  0  0  0  0  0  0  0  0  0  0
    3.4664   -1.9485   -2.4064 Br  0  0  0  0  0  0  0  0  0  0  0  0
    0.9538    1.1165   -0.8444 H   0  0  0  0  0  0  0  0  0  0  0  0
    0.7981    0.0939    0.6224 H   0  0  0  0  0  0  0  0  0  0  0  0
    0.8952   -0.6688   -1.0035 H   0  0  0  0  0  0  0  0  0  0  0  0
    3.1391   -0.1046    2.2482 H   0  0  0  0  0  0  0  0  0  0  0  0
    4.2880   -2.0534    3.3234 H   0  0  0  0  0  0  0  0  0  0  0  0
    7.1410   -2.2422    2.2886 H   0  0  0  0  0  0  0  0  0  0  0  0
    8.2850   -3.3086    3.1804 H   0  0  0  0  0  0  0  0  0  0  0  0
    4.4767   -9.3746    2.1803 H   0  0  0  0  0  0  0  0  0  0  0  0
    2.7311   -8.0282    1.0358 H   0  0  0  0  0  0  0  0  0  0  0  0
    2.9238   -5.5436    0.8624 H   0  0  0  0  0  0  0  0  0  0  0  0
    4.7497   -3.8785   -0.5595 H   0  0  0  0  0  0  0  0  0  0  0  0
  1  2  1  0
  1 22  1  0
  1 23  1  0
  1 24  1  0
  2  3  1  0
  3  4  2  0
  3 20  1  0
  4  5  1  0
  4 25  1  0
  5  6  2  0
  5 26  1  0
  6  7  1  0
  6 19  1  0
  7  8  1  0
  7 18  1  0
  8  9  1  0
  8 11  2  0
  9 10  1  0
  9 27  1  0
  9 28  1  0
 11 12  1  0
 12 13  1  0
 12 18  2  0
 13 14  1  0
 13 15  2  0
 15 16  1  0
 15 29  1  0
 16 17  2  0
 16 30  1  0
 17 18  1  0
 17 31  1  0
 19 20  2  0
 19 32  1  0
 20 21  1  0
M  END

