
     RDKit          3D

 42 46  0  0  0  0  0  0  0  0999 V2000
    1.0951    0.2097   -0.3681 N   0  0  0  0  0  0  0  0  0  0  0  0
    2.4499    0.0433   -0.3812 C   0  0  0  0  0  0  0  0  0  0  0  0
    3.3853    1.0707   -0.4829 C   0  0  0  0  0  0  0  0  0  0  0  0
    2.9832    2.4930   -0.4431 C   0  0  0  0  0  0  0  0  0  0  0  0
    1.8338    2.7793   -0.0754 O   0  0  0  0  0  0  0  0  0  0  0  0
    3.8729    3.4967   -0.7667 N   0  0  0  0  0  0  0  0  0  0  0  0
    4.9941    3.3868   -1.6990 C   0  0  0  0  0  0  0  0  0  0  0  0
    4.7044    4.1358   -3.0101 C   0  0  0  0  0  0  0  0  0  0  0  0
    4.2940    5.5905   -2.7565 C   0  0  0  0  0  0  0  0  0  0  0  0
    3.1391    5.6577   -1.7502 C   0  0  0  0  0  0  0  0  0  0  0  0
    3.4841    4.8788   -0.4763 C   0  0  0  0  0  0  0  0  0  0  0  0
    5.0662    0.4611   -0.4021 S   0  0  0  0  0  0  0  0  0  0  0  0
    4.4997   -1.1971   -0.2864 C   0  0  0  0  0  0  0  0  0  0  0  0
    5.3095   -2.2260   -0.2039 N   0  0  0  0  0  0  0  0  0  0  0  0
    4.7588   -3.4595   -0.1342 C   0  0  0  0  0  0  0  0  0  0  0  0
    5.6412   -4.5857   -0.0413 C   0  0  0  0  0  0  0  0  0  0  0  0
    5.0773   -5.8282    0.0210 C   0  0  0  0  0  0  0  0  0  0  0  0
    3.6705   -6.0321   -0.0032 C   0  0  0  0  0  0  0  0  0  0  0  0
    2.7863   -4.9962   -0.0897 C   0  0  0  0  0  0  0  0  0  0  0  0
    3.3241   -3.6673   -0.1557 C   0  0  0  0  0  0  0  0  0  0  0  0
    2.4962   -2.5290   -0.2457 C   0  0  0  0  0  0  0  0  0  0  0  0
    3.0715   -1.2665   -0.3063 C   0  0  0  0  0  0  0  0  0  0  0  0
    3.4177   -7.3687    0.0800 O   0  0  0  0  0  0  0  0  0  0  0  0
    4.6759   -8.0335    0.1061 C   0  0  0  0  0  0  0  0  0  0  0  0
    5.6932   -7.0378    0.1185 O   0  0  0  0  0  0  0  0  0  0  0  0
    0.8097    1.1690   -0.1649 H   0  0  0  0  0  0  0  0  0  0  0  0
    0.5370   -0.5351    0.0293 H   0  0  0  0  0  0  0  0  0  0  0  0
    5.2055    2.3350   -1.9182 H   0  0  0  0  0  0  0  0  0  0  0  0
    5.8993    3.8084   -1.2220 H   0  0  0  0  0  0  0  0  0  0  0  0
    3.8930    3.6089   -3.5431 H   0  0  0  0  0  0  0  0  0  0  0  0
    5.5972    4.0857   -3.6562 H   0  0  0  0  0  0  0  0  0  0  0  0
    4.0186    6.0845   -3.7031 H   0  0  0  0  0  0  0  0  0  0  0  0
    5.1604    6.1484   -2.3543 H   0  0  0  0  0  0  0  0  0  0  0  0
    2.2252    5.2243   -2.1921 H   0  0  0  0  0  0  0  0  0  0  0  0
    2.9062    6.7040   -1.4899 H   0  0  0  0  0  0  0  0  0  0  0  0
    2.6326    4.8518    0.2126 H   0  0  0  0  0  0  0  0  0  0  0  0
    4.3353    5.3673    0.0354 H   0  0  0  0  0  0  0  0  0  0  0  0
    6.7178   -4.4205   -0.0241 H   0  0  0  0  0  0  0  0  0  0  0  0
    1.7083   -5.1650   -0.1065 H   0  0  0  0  0  0  0  0  0  0  0  0
    1.4104   -2.6610   -0.2758 H   0  0  0  0  0  0  0  0  0  0  0  0
    4.7837   -8.6644   -0.7953 H   0  0  0  0  0  0  0  0  0  0  0  0
    4.7511   -8.6529    1.0168 H   0  0  0  0  0  0  0  0  0  0  0  0
  1  2  1  0
  1 26  1  0
  1 27  1  0
  2  3  2  0
  2 22  1  0
  3  4  1  0
  3 12  1  0
  4  5  2  0
  4  6  1  0
  6  7  1  0
  6 11  1  0
  7  8  1  0
  7 28  1  0
  7 29  1  0
  8  9  1  0
  8 30  1  0
  8 31  1  0
  9 10  1  0
  9 32  1  0
  9 33  1  0
 10 11  1  0
 10 34  1  0
 10 35  1  0
 11 36  1  0
 11 37  1  0
 12 13  1  0
 13 14  1  0
 13 22  2  0
 14 15  2  0
 15 16  1  0
 15 20  1  0
 16 17  2  0
 16 38  1  0
 17 18  1  0
 17 25  1  0
 18 19  2  0
 18 23  1  0
 19 20  1  0
 19 39  1  0
 20 21  2  0
 21 22  1  0
 21 40  1  0
 23 24  1  0
 24 25  1  0
 24 41  1  0
 24 42  1  0
M  END

