
     RDKit          3D

 35 37  0  0  0  0  0  0  0  0999 V2000
    3.4564   -0.0960    1.2894 C   0  0  0  0  0  0  0  0  0  0  0  0
    2.6805   -0.0719   -0.0269 C   0  0  0  0  0  0  0  0  0  0  0  0
    2.8640    1.2173   -0.8756 C   0  0  1  0  0  0  0  0  0  0  0  0
    3.9450    1.4323   -0.8956 H   0  0  0  0  0  0  0  0  0  0  0  0
    2.3696    1.0641   -2.3244 C   0  0  0  0  0  0  0  0  0  0  0  0
    0.8835    1.3235   -2.4738 C   0  0  1  0  0  0  0  0  0  0  0  0
    0.6040    1.3379   -3.5434 H   0  0  0  0  0  0  0  0  0  0  0  0
    0.1112    0.3392   -1.7802 O   0  0  0  0  0  0  0  0  0  0  0  0
   -1.1569    0.8591   -1.4770 C   0  0  2  0  0  0  0  0  0  0  0  0
   -1.4433    0.4633   -0.4902 H   0  0  0  0  0  0  0  0  0  0  0  0
   -2.1251    0.5095   -2.4330 O   0  0  0  0  0  0  0  0  0  0  0  0
   -2.7091    1.6764   -3.0106 C   0  0  1  0  0  0  0  0  0  0  0  0
   -2.8247    1.4910   -4.5144 C   0  0  0  0  0  0  0  0  0  0  0  0
   -4.0533    1.9697   -2.3413 C   0  0  0  0  0  0  0  0  0  0  0  0
   -1.7818    2.7267   -2.7473 O   0  0  0  0  0  0  0  0  0  0  0  0
   -1.0453    2.4079   -1.5878 C   0  0  2  0  0  0  0  0  0  0  0  0
   -1.3929    2.9556   -0.6960 H   0  0  0  0  0  0  0  0  0  0  0  0
    0.4440    2.6447   -1.8448 C   0  0  1  0  0  0  0  0  0  0  0  0
    0.5934    3.5081   -2.5117 H   0  0  0  0  0  0  0  0  0  0  0  0
    1.0683    2.9272   -0.5901 O   0  0  0  0  0  0  0  0  0  0  0  0
    2.2541    2.4161   -0.1518 C   0  0  0  0  0  0  0  0  0  0  0  0
    2.7443    2.9009    0.8327 O   0  0  0  0  0  0  0  0  0  0  0  0
    3.2933   -1.0522    1.8121 H   0  0  0  0  0  0  0  0  0  0  0  0
    3.1519    0.7202    1.9596 H   0  0  0  0  0  0  0  0  0  0  0  0
    4.5406    0.0102    1.1166 H   0  0  0  0  0  0  0  0  0  0  0  0
    1.6070   -0.2402    0.1491 H   0  0  0  0  0  0  0  0  0  0  0  0
    3.0104   -0.9135   -0.6603 H   0  0  0  0  0  0  0  0  0  0  0  0
    2.6143    0.0611   -2.7076 H   0  0  0  0  0  0  0  0  0  0  0  0
    2.8900    1.7867   -2.9759 H   0  0  0  0  0  0  0  0  0  0  0  0
   -3.4997    0.6533   -4.7414 H   0  0  0  0  0  0  0  0  0  0  0  0
   -1.8345    1.2734   -4.9386 H   0  0  0  0  0  0  0  0  0  0  0  0
   -3.2217    2.4041   -4.9813 H   0  0  0  0  0  0  0  0  0  0  0  0
   -4.7450    1.1279   -2.4918 H   0  0  0  0  0  0  0  0  0  0  0  0
   -4.5015    2.8813   -2.7638 H   0  0  0  0  0  0  0  0  0  0  0  0
   -3.9222    2.1166   -1.2583 H   0  0  0  0  0  0  0  0  0  0  0  0
  1  2  1  0
  1 23  1  0
  1 24  1  0
  1 25  1  0
  2  3  1  0
  2 26  1  0
  2 27  1  0
  3  4  1  6
  3  5  1  0
  3 21  1  0
  5  6  1  0
  5 28  1  0
  5 29  1  0
  6  7  1  6
  6  8  1  0
  6 18  1  0
  8  9  1  0
  9 10  1  1
  9 11  1  0
  9 16  1  0
 11 12  1  0
 12 13  1  6
 12 14  1  0
 12 15  1  0
 13 30  1  0
 13 31  1  0
 13 32  1  0
 14 33  1  0
 14 34  1  0
 14 35  1  0
 15 16  1  0
 16 17  1  1
 16 18  1  0
 18 19  1  6
 18 20  1  0
 20 21  1  0
 21 22  2  0
M  END

